#------------------------------------------------------------------------------
#$Date: 2019-11-05 14:13:30 +0200 (Tue, 05 Nov 2019) $
#$Revision: 223345 $
#$URL: file:///home/coder/svn-repositories/cod/cif/7/70/17/7701723.cif $
#------------------------------------------------------------------------------
#
# This file is available in the Crystallography Open Database (COD),
# http://www.crystallography.net/
#
# All data on this site have been placed in the public domain by the
# contributors.
#
data_7701723
loop_
_publ_author_name
'So, Shiu-Chun'
'Cheung, Wai-Man'
'Chiu, Wai-Hang'
'de Vere-Tucker, Matthew'
'Sung, Herman H.-Y.'
'Williams, Ian D.'
'Leung, Wa-Hung'
_publ_section_title
;
 Iridium porphyrin complexes with \m-nitrido, hydroxo, hydrosulfido and
 alkynyl ligands.
;
_journal_issue                   23
_journal_name_full
'Dalton transactions (Cambridge, England : 2003)'
_journal_page_first              8340
_journal_page_last               8349
_journal_paper_doi               10.1039/c9dt00244h
_journal_volume                  48
_journal_year                    2019
_chemical_formula_moiety         'C69 H76 Cl2 Co Ir N5 O9 P3 Ru'
_chemical_formula_sum            'C75 H90 Cl2 Co Ir N5 O9 P3 Ru'
_chemical_formula_weight         1721.52
_space_group_crystal_system      triclinic
_space_group_IT_number           2
_space_group_name_Hall           '-P 1'
_space_group_name_H-M_alt        'P -1'
_atom_sites_solution_hydrogens   geom
_atom_sites_solution_primary     iterative
_audit_creation_date             2018-04-26
_audit_creation_method
;
Olex2 1.2
(compiled 2017.08.10 svn.r3458 for OlexSys, GUI svn.r5381)
;
_audit_update_record
;
2019-05-01 deposited with the CCDC.	2019-05-15 downloaded from the CCDC.
;
_cell_angle_alpha                85.316(2)
_cell_angle_beta                 80.0763(19)
_cell_angle_gamma                78.870(2)
_cell_formula_units_Z            2
_cell_length_a                   13.0825(3)
_cell_length_b                   13.8500(5)
_cell_length_c                   20.4656(5)
_cell_measurement_reflns_used    13938
_cell_measurement_temperature    99.9(4)
_cell_measurement_theta_max      75.4840
_cell_measurement_theta_min      4.5200
_cell_volume                     3579.54(18)
_computing_cell_refinement
;
CrysAlisPro, Agilent Technologies,
Version 1.171.36.32 (release 02-08-2013 CrysAlis171 .NET)
(compiled Aug  2 2013,16:46:58)
;
_computing_data_collection
;
CrysAlisPro, Agilent Technologies,
Version 1.171.36.32 (release 02-08-2013 CrysAlis171 .NET)
(compiled Aug  2 2013,16:46:58)
;
_computing_data_reduction
;
CrysAlisPro, Agilent Technologies,
Version 1.171.36.32 (release 02-08-2013 CrysAlis171 .NET)
(compiled Aug  2 2013,16:46:58)
;
_computing_molecular_graphics    'Olex2 (Dolomanov et al., 2009)'
_computing_publication_material  'Olex2 (Dolomanov et al., 2009)'
_computing_structure_refinement  'ShelXL (Sheldrick, 2015)'
_computing_structure_solution    'J. Appl. Cryst. (2007) 40, 786-790'
_diffrn_ambient_temperature      99.9(4)
_diffrn_detector_area_resol_mean 10.3587
_diffrn_measured_fraction_theta_full 0.979
_diffrn_measured_fraction_theta_max 0.978
_diffrn_measurement_details
;
#__ type_ start__ end____ width___ exp.time_
  1 omega   86.00  178.00   1.0000    5.0000
omega____ theta____ kappa____ phi______ frames
    -      110.5703   61.0000    0.0000 92

#__ type_ start__ end____ width___ exp.time_
  2 omega  -68.00   32.00   1.0000    2.0000
omega____ theta____ kappa____ phi______ frames
    -      -40.9453   57.0000  -30.0000 100

#__ type_ start__ end____ width___ exp.time_
  3 omega  -69.00   37.00   1.0000    2.0000
omega____ theta____ kappa____ phi______ frames
    -      -40.9453   77.0000   60.0000 106

#__ type_ start__ end____ width___ exp.time_
  4 omega  -69.00   31.00   1.0000    2.0000
omega____ theta____ kappa____ phi______ frames
    -      -40.9453   57.0000 -150.0000 100

#__ type_ start__ end____ width___ exp.time_
  5 omega   33.00  115.00   1.0000    5.0000
omega____ theta____ kappa____ phi______ frames
    -      110.5703 -111.0000 -120.0000 82

#__ type_ start__ end____ width___ exp.time_
  6 omega   40.00  135.00   1.0000    5.0000
omega____ theta____ kappa____ phi______ frames
    -      110.5703  -61.0000  -60.0000 95

#__ type_ start__ end____ width___ exp.time_
  7 omega  102.00  176.00   1.0000    5.0000
omega____ theta____ kappa____ phi______ frames
    -      110.5703  111.0000  -60.0000 74

#__ type_ start__ end____ width___ exp.time_
  8 omega   32.00  115.00   1.0000    5.0000
omega____ theta____ kappa____ phi______ frames
    -      110.5703 -111.0000  -30.0000 83

#__ type_ start__ end____ width___ exp.time_
  9 omega   97.00  172.00   1.0000    5.0000
omega____ theta____ kappa____ phi______ frames
    -      110.5703   45.0000   60.0000 75

#__ type_ start__ end____ width___ exp.time_
 10 omega   84.00  175.00   1.0000    5.0000
omega____ theta____ kappa____ phi______ frames
    -      110.5703   30.0000  120.0000 91

#__ type_ start__ end____ width___ exp.time_
 11 omega   64.00  141.00   1.0000    5.0000
omega____ theta____ kappa____ phi______ frames
    -      110.5703  -77.0000   30.0000 77

#__ type_ start__ end____ width___ exp.time_
 12 omega   36.00   73.00   1.0000    5.0000
omega____ theta____ kappa____ phi______ frames
    -      110.5703  -45.0000 -150.0000 37
;
_diffrn_measurement_device       'kappa diffractometer'
_diffrn_measurement_device_type  'SuperNova, Dual, Cu at zero, Atlas'
_diffrn_measurement_method       '\w scans'
_diffrn_orient_matrix_UB_11      0.0729772000
_diffrn_orient_matrix_UB_12      0.0616251000
_diffrn_orient_matrix_UB_13      -0.0450722000
_diffrn_orient_matrix_UB_21      0.0129334000
_diffrn_orient_matrix_UB_22      -0.0713709000
_diffrn_orient_matrix_UB_23      -0.0560102000
_diffrn_orient_matrix_UB_31      -0.0963823000
_diffrn_orient_matrix_UB_32      0.0631834000
_diffrn_orient_matrix_UB_33      -0.0261896000
_diffrn_radiation_monochromator  mirror
_diffrn_radiation_probe          x-ray
_diffrn_radiation_type           CuK\a
_diffrn_radiation_wavelength     1.54184
_diffrn_reflns_av_R_equivalents  0.0216
_diffrn_reflns_av_unetI/netI     0.0307
_diffrn_reflns_Laue_measured_fraction_full 0.979
_diffrn_reflns_Laue_measured_fraction_max 0.978
_diffrn_reflns_limit_h_max       11
_diffrn_reflns_limit_h_min       -15
_diffrn_reflns_limit_k_max       16
_diffrn_reflns_limit_k_min       -16
_diffrn_reflns_limit_l_max       24
_diffrn_reflns_limit_l_min       -24
_diffrn_reflns_number            20356
_diffrn_reflns_point_group_measured_fraction_full 0.979
_diffrn_reflns_point_group_measured_fraction_max 0.978
_diffrn_reflns_theta_full        66.500
_diffrn_reflns_theta_max         67.499
_diffrn_reflns_theta_min         4.318
_diffrn_source                   'micro-focus sealed X-ray tube'
_diffrn_source_current           0.80
_diffrn_source_power             0.040
_diffrn_source_target            Cu
_diffrn_source_voltage           50
_exptl_absorpt_coefficient_mu    8.818
_exptl_absorpt_correction_T_max  1.00000
_exptl_absorpt_correction_T_min  0.63557
_exptl_absorpt_correction_type   multi-scan
_exptl_absorpt_process_details
;
CrysAlisPro, Agilent Technologies,
Version 1.171.36.32 (release 02-08-2013 CrysAlis171 .NET)
(compiled Aug  2 2013,16:46:58)
Empirical absorption correction using spherical harmonics,
 implemented in SCALE3 ABSPACK scaling algorithm.
;
_exptl_crystal_colour            red
_exptl_crystal_colour_primary    red
_exptl_crystal_density_diffrn    1.597
_exptl_crystal_description       block
_exptl_crystal_F_000             1748
_exptl_crystal_size_max          0.2
_exptl_crystal_size_mid          0.18
_exptl_crystal_size_min          0.1
_refine_diff_density_max         1.177
_refine_diff_density_min         -1.348
_refine_diff_density_rms         0.085
_refine_ls_extinction_method     none
_refine_ls_goodness_of_fit_ref   1.012
_refine_ls_hydrogen_treatment    constr
_refine_ls_matrix_type           full
_refine_ls_number_parameters     889
_refine_ls_number_reflns         12629
_refine_ls_number_restraints     234
_refine_ls_restrained_S_all      1.050
_refine_ls_R_factor_all          0.0312
_refine_ls_R_factor_gt           0.0291
_refine_ls_shift/su_max          0.001
_refine_ls_shift/su_mean         0.000
_refine_ls_structure_factor_coef Fsqd
_refine_ls_weighting_details
'w=1/[\s^2^(Fo^2^)+(0.0500P)^2^+1.9500P] where P=(Fo^2^+2Fc^2^)/3'
_refine_ls_weighting_scheme      calc
_refine_ls_wR_factor_gt          0.0763
_refine_ls_wR_factor_ref         0.0777
_reflns_Friedel_coverage         0.000
_reflns_number_gt                11814
_reflns_number_total             12629
_reflns_threshold_expression     'I > 2\s(I)'
_cod_data_source_file            c9dt00244h2.cif
_cod_data_source_block           wai150cult
_cod_original_cell_volume        3579.55(17)
_cod_database_code               7701723
_shelx_shelxl_version_number     2014/7
_shelx_space_group_comment
;
The symmetry employed for this shelxl refinement is uniquely defined
by the following loop, which should always be used as a source of
symmetry information in preference to the above space-group names.
They are only intended as comments.
;
_reflns_odcompleteness_completeness 98.76
_reflns_odcompleteness_iscentric 1
_reflns_odcompleteness_theta     68.13
_olex2_refinement_description
;
1. Fixed Uiso
 At 1.2 times of:
  All C(H) groups, All C(H,H) groups
 At 1.5 times of:
  All C(H,H,H) groups
2. Restrained distances
 C98-C97
 1.52 with sigma of 0.02
 C97-C96
 1.52 with sigma of 0.02
 C94-C93 = C95-C94
 1.52 with sigma of 0.02
 C96A-C94A
 2.3 with sigma of 0.02
 C94-C96
 2.3 with sigma of 0.02
 C98A-C91 \\sim C92A-C91 \\sim C96A-C92A \\sim C97A-C96A \\sim C98A-C97A \\sim
C93A-C92A \\sim C94A-
 C93A \\sim C95A-C94A \\sim C96A-C95A
 with sigma of 0.02
 C98-C97 \\sim C97-C96 \\sim C98-C91 \\sim C92-C91 \\sim C96-C92 \\sim C96-C95
\\sim C95-C94 \\sim C94-C93
 \\sim C93-C92
 with sigma of 0.02
3. Uiso/Uaniso restraints and constraints
Uanis(C91) \\sim Ueq: with sigma of 0.005 and sigma for terminal atoms of 0.002
Uanis(C93A) \\sim Ueq, Uanis(C94A) \\sim Ueq, Uanis(C95) \\sim Ueq, Uanis(C95A)
\\sim Ueq: with sigma of 0.005 and sigma for terminal atoms of 0.002
4. Rigid body (RIGU) restrains
 C91, C92A, C93A, C94A, C95A, C96A, C97A, C98A
 with sigma for 1-2 distances of 0.005 and sigma for 1-3 distances of 0.002
 C91, C92, C93, C94, C95, C96, C97, C98
 with sigma for 1-2 distances of 0.005 and sigma for 1-3 distances of 0.002
5. Others
 Fixed Sof: H91(0.5) H91A(0.5) C92(0.5) H92(0.5) C92A(0.5) H92A(0.5) C93(0.5)
 H93A(0.5) H93B(0.5) C93A(0.5) H93C(0.5) H93D(0.5) C94(0.5) H94A(0.5) H94B(0.5)
 C94A(0.5) H94C(0.5) H94D(0.5) C95(0.5) H95A(0.5) H95B(0.5) C95A(0.5) H95C(0.5)
 H95D(0.5) C96(0.5) H96(0.5) C96A(0.5) H96A(0.5) C97(0.5) H97A(0.5) H97B(0.5)
 C97A(0.5) H97C(0.5) H97D(0.5) C98(0.5) H98A(0.5) H98B(0.5) C98A(0.5) H98C(0.5)
 H98D(0.5)
6.a Ternary CH refined with riding coordinates:
 C91(H91), C91(H91A), C92(H92), C92A(H92A), C96(H96), C96A(H96A)
6.b Secondary CH2 refined with riding coordinates:
 C11(H11A,H11B), C13(H13A,H13B), C15(H15A,H15B), C17(H17A,H17B), C19(H19A,
 H19B), C21(H21A,H21B), C93(H93A,H93B), C93A(H93C,H93D), C94(H94A,H94B),
 C94A(H94C,H94D), C95(H95A,H95B), C95A(H95C,H95D), C97(H97A,H97B), C97A(H97C,
 H97D), C98(H98A,H98B), C98A(H98C,H98D)
6.c Aromatic/amide H refined with riding coordinates:
 C1(H1), C2(H2), C3(H3), C4(H4), C5(H5), C32(H32), C33(H33), C37(H37),
 C38(H38), C42(H42), C43(H43), C47(H47), C48(H48), C52(H52), C53(H53), C54(H54),
  C55(H55), C56(H56), C62(H62), C63(H63), C64(H64), C65(H65), C66(H66),
 C72(H72), C73(H73), C74(H74), C75(H75), C76(H76), C82(H82), C83(H83), C84(H84),
  C85(H85), C86(H86)
6.d Idealised Me refined as rotating group:
 C12(H12A,H12B,H12C), C14(H14A,H14B,H14C), C16(H16A,H16B,H16C), C18(H18A,H18B,
 H18C), C20(H20A,H20B,H20C), C22(H22A,H22B,H22C)
;
_shelx_res_file
;
    wai150cult.res created by SHELXL-2014/7

TITL CF solution in P-1
CELL 1.54184 13.08253 13.85002 20.46558 85.3157 80.0763 78.8704
ZERR 2 0.00028 0.00045 0.00048 0.0024 0.0019 0.0023
LATT 1
SFAC C H Cl Co Ir N O P Ru
UNIT 150 180 4 2 2 10 18 6 2
DFIX 1.52 C98 C97
DFIX 1.52 C97 C96
DFIX 1.52 C94 C93 C95 C94
SADI C98A C91 C92A C91 C96A C92A C97A C96A C98A C97A C93A C92A C94A C93A =
 C95A C94A C96A C95A
SADI C98 C97 C97 C96 C98 C91 C92 C91 C96 C92 C96 C95 C95 C94 C94 C93 C93 C92
DANG 2.3 0.02 C96A C94A
DANG 2.3 0.02 C94 C96
RIGU 0.005 0.002 C91 C92A C93A C94A C95A C96A C97A C98A
RIGU 0.005 0.002 C91 C92 C93 C94 C95 C96 C97 C98
ISOR 0.005 0.002 C91
ISOR 0.005 0.002 C93A C94A C95 C95A

L.S. 10
PLAN  25
TEMP -173
BOND
ABIN
fmap 2
acta 133
OMIT 0 135
OMIT 1 1 1
OMIT 1 -1 2
OMIT 1 3 0
OMIT 0 1 2
OMIT -1 -3 1
OMIT -2 -3 1
OMIT 3 1 4
OMIT 1 2 1
OMIT 2 1 0
OMIT -1 1 0
OMIT -1 -1 7
OMIT 3 0 4
OMIT -1 -8 20
OMIT 1 5 8
OMIT 3 4 10
OMIT -1 0 7
OMIT -2 -4 2
OMIT 0 -2 2
OMIT 2 3 0
OMIT 2 4 1
OMIT -1 -7 21
OMIT 2 0 4
OMIT 0 3 8
OMIT 2 1 4
OMIT 3 0 8
OMIT 0 -2 3
OMIT 2 4 0
OMIT 3 4 0
OMIT 2 -1 8
OMIT 0 -2 4
OMIT 3 2 1
OMIT 4 2 2
OMIT 2 0 1
OMIT 2 5 4
OMIT 2 2 9
OMIT -2 1 6
OMIT 15 2 10
OMIT 1 -1 3
OMIT -1 -2 2
OMIT 2 1 1
OMIT -1 4 6
OMIT -1 -2 1
OMIT 1 -1 4
OMIT 2 2 2
OMIT 0 0 9
OMIT -3 3 9
OMIT -1 -9 19
OMIT 2 -1 1
OMIT 3 2 8
OMIT 0 -1 6
OMIT -4 3 3
OMIT 1 -6 22
OMIT 2 -1 2
OMIT 0 3 7
OMIT -7 -1 1
OMIT -2 -2 5
OMIT 6 1 10
OMIT 2 -1 3
OMIT 2 3 5
OMIT 1 4 3
OMIT -1 -3 4
OMIT 1 2 0
OMIT 1 0 8
OMIT -2 4 2
OMIT 5 8 5
OMIT 3 -1 7
OMIT 15 1 9
OMIT 0 -6 6
OMIT 1 2 7
OMIT 2 4 14
OMIT 3 2 10
OMIT 0 4 5
OMIT -2 5 4
OMIT 6 9 11
OMIT -1 1 6
OMIT 4 2 5
OMIT 7 3 2
OMIT -5 0 2
OMIT 0 3 5
OMIT 1 8 0
OMIT 2 -6 22
OMIT -3 2 7
OMIT -3 -9 4
OMIT -1 1 1
OMIT -3 4 0
OMIT 3 4 4
OMIT -3 -5 3
OMIT 1 1 4
OMIT 4 2 4
OMIT 0 2 4
OMIT -1 -3 3
OMIT 8 4 10
OMIT 5 -11 4
OMIT 2 3 3
OMIT -4 -6 1
OMIT 0 4 3
OMIT 0 2 7
OMIT 2 2 1
OMIT 0 2 13
OMIT -2 3 2
OMIT 0 -2 7
OMIT -3 -5 12
OMIT -2 4 10
OMIT 0 -2 6
OMIT -1 -1 6
OMIT -4 -7 15
OMIT 14 10 5
OMIT 14 0 9
OMIT 0 -2 1
OMIT 2 4 10
OMIT 8 2 3
OMIT 7 3 7
OMIT -2 0 6
OMIT 2 -7 2
OMIT -1 0 2
OMIT 3 1 2
OMIT 2 2 4
OMIT 3 -3 6
OMIT 0 2 2
OMIT 4 -1 3
OMIT -1 1 2
OMIT 10 -5 17
OMIT 3 -2 1
OMIT -1 -1 5
OMIT 0 -1 5
OMIT -3 -5 1
OMIT 1 0 5
OMIT 4 -2 9
OMIT 0 0 4
OMIT 4 -3 5
OMIT 1 -7 21
OMIT -1 -1 3
OMIT -1 1 4
OMIT 0 5 6
OMIT -6 -3 2
OMIT 0 0 7
OMIT -1 5 3
OMIT 4 -2 7
OMIT -2 0 2
REM <olex2.extras>
REM <HklSrc "%.\\wai150CuLT.hkl">
REM </olex2.extras>

WGHT    0.050000    1.950000
FVAR       2.01552
IR1   5    0.255732    0.171813    0.230702    11.00000    0.02326    0.02212 =
         0.02320    0.00295    0.00240   -0.00551
RU1   9    0.129855    0.406204    0.169103    11.00000    0.02203    0.01931 =
         0.01932   -0.00069    0.00076   -0.00555
CO1   4    0.017123    0.662873    0.255976    11.00000    0.03490    0.02188 =
         0.02456   -0.00409    0.00301   -0.00590
CL1   3    0.032013    0.335806    0.106810    11.00000    0.02516    0.02893 =
         0.03014   -0.00586   -0.00687   -0.00557
CL2   3    0.264234    0.407166    0.078488    11.00000    0.02854    0.02535 =
         0.02309    0.00194    0.00651   -0.00510
P1    8   -0.037368    0.525134    0.285267    11.00000    0.02781    0.02472 =
         0.02309   -0.00290    0.00415   -0.00596
P2    8    0.006042    0.641216    0.154649    11.00000    0.03141    0.02097 =
         0.02366   -0.00005    0.00137   -0.00314
P3    8    0.180534    0.591443    0.238130    11.00000    0.03321    0.02388 =
         0.02327   -0.00270    0.00019   -0.01086
O1    7   -0.012667    0.493871    0.358674    11.00000    0.04399    0.02937 =
         0.02597   -0.00016   -0.00109   -0.01111
O2    7   -0.163596    0.537661    0.297740    11.00000    0.02904    0.03658 =
         0.03503   -0.00717    0.00500   -0.00588
O3    7   -0.116158    0.654307    0.150249    11.00000    0.03528    0.03034 =
         0.02687   -0.00049   -0.00180   -0.00557
O4    7    0.042417    0.729026    0.106786    11.00000    0.03956    0.02303 =
         0.02876   -0.00045    0.00840   -0.00378
O5    7    0.244294    0.653714    0.182388    11.00000    0.03543    0.02971 =
         0.03061   -0.00154    0.00311   -0.01427
O6    7    0.242188    0.597649    0.298696    11.00000    0.04638    0.03480 =
         0.02908   -0.00302   -0.00871   -0.01417
O7    7   -0.000765    0.436681    0.241811    11.00000    0.02821    0.02570 =
         0.02812   -0.00323    0.00620   -0.00767
O8    7    0.065619    0.545124    0.126009    11.00000    0.03616    0.02292 =
         0.02299    0.00023   -0.00270   -0.00178
O9    7    0.205914    0.483207    0.221824    11.00000    0.03066    0.02426 =
         0.02928   -0.00132   -0.00319   -0.00699
N1    6    0.181624    0.301180    0.204893    11.00000    0.02131    0.02192 =
         0.01990   -0.00148    0.00086   -0.00948
N2    6    0.169369    0.162556    0.323702    11.00000    0.03058    0.02790 =
         0.02946    0.00664    0.00076   -0.00854
N3    6    0.149109    0.112722    0.192224    11.00000    0.03481    0.02406 =
         0.03052   -0.00536    0.00760   -0.01153
N4    6    0.345938    0.175383    0.139189    11.00000    0.02247    0.02175 =
         0.02739   -0.00075    0.00138   -0.00455
N5    6    0.362209    0.230084    0.269604    11.00000    0.02515    0.04353 =
         0.02129    0.00285    0.00187   -0.00600
C1    1   -0.113392    0.751380    0.307017    11.00000    0.05622    0.03488 =
         0.05995   -0.02364    0.02521   -0.00883
AFIX  43
H1    2   -0.181445    0.734471    0.318653    11.00000   -1.20000
AFIX   0
C2    1   -0.077116    0.800988    0.250489    11.00000    0.07850    0.02649 =
         0.04095   -0.00907   -0.00334    0.01109
AFIX  43
H2    2   -0.117064    0.825174    0.216064    11.00000   -1.20000
AFIX   0
C3    1    0.023445    0.811187    0.249958    11.00000    0.08280    0.02872 =
         0.07658   -0.02031    0.03383   -0.01967
AFIX  43
H3    2    0.065537    0.842368    0.215195    11.00000   -1.20000
AFIX   0
C4    1    0.055106    0.768733    0.308403    11.00000    0.06195    0.05831 =
         0.14110   -0.06826   -0.03152    0.00765
AFIX  43
H4    2    0.122020    0.766423    0.321184    11.00000   -1.20000
AFIX   0
C5    1   -0.030095    0.729407    0.345674    11.00000    0.16707    0.02853 =
         0.02587   -0.01092   -0.01503    0.01815
AFIX  43
H5    2   -0.031637    0.695249    0.387917    11.00000   -1.20000
AFIX   0
C11   1   -0.030661    0.397352    0.387057    11.00000    0.05874    0.03214 =
         0.03139    0.00169    0.00055   -0.01451
AFIX  23
H11A  2    0.033354    0.347088    0.374782    11.00000   -1.20000
H11B  2   -0.089693    0.378792    0.369447    11.00000   -1.20000
AFIX   0
C12   1   -0.056642    0.401589    0.461136    11.00000    0.06854    0.04639 =
         0.03262    0.00341    0.00216   -0.01680
AFIX 137
H12A  2   -0.119571    0.451990    0.472919    11.00000   -1.50000
H12B  2    0.002880    0.418204    0.478350    11.00000   -1.50000
H12C  2   -0.070223    0.337344    0.480573    11.00000   -1.50000
AFIX   0
C13   1   -0.218762    0.492901    0.255367    11.00000    0.03503    0.04181 =
         0.03889    0.00010   -0.00262   -0.01454
AFIX  23
H13A  2   -0.214010    0.421768    0.267801    11.00000   -1.20000
H13B  2   -0.185577    0.499964    0.208374    11.00000   -1.20000
AFIX   0
C14   1   -0.331012    0.542415    0.263560    11.00000    0.03799    0.06632 =
         0.05684   -0.00439   -0.00516   -0.00735
AFIX 137
H14A  2   -0.368870    0.511289    0.236261    11.00000   -1.50000
H14B  2   -0.335324    0.612247    0.249509    11.00000   -1.50000
H14C  2   -0.363007    0.536423    0.310324    11.00000   -1.50000
AFIX   0
C15   1   -0.146836    0.640979    0.086107    11.00000    0.04502    0.03239 =
         0.02984   -0.00088   -0.00551   -0.01252
AFIX  23
H15A  2   -0.129358    0.570513    0.075803    11.00000   -1.20000
H15B  2   -0.108547    0.678855    0.050105    11.00000   -1.20000
AFIX   0
C16   1   -0.264040    0.677494    0.091744    11.00000    0.04150    0.04251 =
         0.04073    0.00163   -0.01312   -0.01107
AFIX 137
H16A  2   -0.286369    0.672382    0.049036    11.00000   -1.50000
H16B  2   -0.280745    0.746445    0.103840    11.00000   -1.50000
H16C  2   -0.301252    0.637411    0.126025    11.00000   -1.50000
AFIX   0
C17   1    0.120530    0.711383    0.046423    11.00000    0.03671    0.03006 =
         0.02489   -0.00364    0.00710   -0.00733
AFIX  23
H17A  2    0.087079    0.694305    0.010122    11.00000   -1.20000
H17B  2    0.178124    0.656279    0.054735    11.00000   -1.20000
AFIX   0
C18   1    0.163218    0.804551    0.027810    11.00000    0.04916    0.03036 =
         0.03438    0.00033    0.00588   -0.01043
AFIX 137
H18A  2    0.218339    0.794576   -0.011299    11.00000   -1.50000
H18B  2    0.193135    0.822268    0.064927    11.00000   -1.50000
H18C  2    0.106091    0.857724    0.017634    11.00000   -1.50000
AFIX   0
C19   1    0.357477    0.615958    0.162776    11.00000    0.03434    0.04103 =
         0.04351    0.00362    0.00458   -0.01230
AFIX  23
H19A  2    0.369409    0.544308    0.156452    11.00000   -1.20000
H19B  2    0.396760    0.626856    0.197944    11.00000   -1.20000
AFIX   0
C20   1    0.395664    0.669220    0.099150    11.00000    0.03829    0.07765 =
         0.03736    0.00509    0.00331   -0.02310
AFIX 137
H20A  2    0.360643    0.653661    0.063715    11.00000   -1.50000
H20B  2    0.472172    0.648401    0.087230    11.00000   -1.50000
H20C  2    0.379122    0.740391    0.104940    11.00000   -1.50000
AFIX   0
C21   1    0.243400    0.526362    0.353659    11.00000    0.05396    0.04886 =
         0.03201    0.00446   -0.00939   -0.01781
AFIX  23
H21A  2    0.263137    0.458832    0.337404    11.00000   -1.20000
H21B  2    0.172679    0.533155    0.381332    11.00000   -1.20000
AFIX   0
C22   1    0.322347    0.544961    0.393282    11.00000    0.09061    0.07632 =
         0.05446    0.00823   -0.03715   -0.03177
AFIX 137
H22A  2    0.392137    0.537111    0.365567    11.00000   -1.50000
H22B  2    0.324515    0.497832    0.431655    11.00000   -1.50000
H22C  2    0.302360    0.612183    0.408706    11.00000   -1.50000
AFIX   0
C31   1    0.197371    0.181766    0.382495    11.00000    0.03564    0.04203 =
         0.02263    0.00615    0.00150   -0.00785
C32   1    0.115600    0.163340    0.436235    11.00000    0.03628    0.05005 =
         0.02828    0.00722    0.00550   -0.01240
AFIX  43
H32   2    0.115599    0.169598    0.482117    11.00000   -1.20000
AFIX   0
C33   1    0.039364    0.135717    0.409759    11.00000    0.03550    0.04003 =
         0.03274    0.00437    0.00740   -0.01299
AFIX  43
H33   2   -0.024981    0.120236    0.433510    11.00000   -1.20000
AFIX   0
C34   1    0.072323    0.133732    0.339257    11.00000    0.03067    0.02831 =
         0.03484    0.00390    0.00804   -0.00839
C35   1    0.017237    0.104595    0.293516    11.00000    0.03220    0.02348 =
         0.03811   -0.00089    0.00714   -0.00990
C36   1    0.054313    0.093065    0.225967    11.00000    0.03339    0.02455 =
         0.04026   -0.00406    0.00828   -0.01369
C37   1    0.002477    0.053274    0.181448    11.00000    0.03876    0.03349 =
         0.04447   -0.00802    0.01009   -0.02157
AFIX  43
H37   2   -0.064454    0.033803    0.191965    11.00000   -1.20000
AFIX   0
C38   1    0.065410    0.048178    0.121685    11.00000    0.04022    0.03129 =
         0.04167   -0.01021    0.00591   -0.02045
AFIX  43
H38   2    0.051640    0.023357    0.082784    11.00000   -1.20000
AFIX   0
C39   1    0.157411    0.087455    0.127962    11.00000    0.03302    0.02151 =
         0.03342   -0.00448    0.00396   -0.01083
C40   1    0.239554    0.099553    0.076389    11.00000    0.02786    0.01908 =
         0.03110   -0.00231    0.00126   -0.00426
C41   1    0.326632    0.141852    0.081983    11.00000    0.02599    0.02118 =
         0.02713   -0.00046   -0.00042   -0.00312
C42   1    0.407027    0.162740    0.027903    11.00000    0.02416    0.02598 =
         0.02454   -0.00072    0.00094   -0.00315
AFIX  43
H42   2    0.412657    0.146908   -0.017030    11.00000   -1.20000
AFIX   0
C43   1    0.472694    0.208756    0.052612    11.00000    0.02072    0.02777 =
         0.02392    0.00084    0.00161   -0.00428
AFIX  43
H43   2    0.533230    0.230939    0.028285    11.00000   -1.20000
AFIX   0
C44   1    0.434443    0.218327    0.122886    11.00000    0.02262    0.02751 =
         0.02299    0.00156    0.00192   -0.00668
C45   1    0.479420    0.264141    0.165659    11.00000    0.02131    0.03038 =
         0.02664    0.00244    0.00085   -0.00598
C46   1    0.445491    0.268896    0.234019    11.00000    0.02242    0.04068 =
         0.02372    0.00148   -0.00116   -0.00748
C47   1    0.494177    0.312126    0.279174    11.00000    0.02626    0.05236 =
         0.02763   -0.00303    0.00069   -0.01278
AFIX  43
H47   2    0.551457    0.346514    0.267657    11.00000   -1.20000
AFIX   0
C48   1    0.443313    0.294820    0.341312    11.00000    0.03185    0.05893 =
         0.02344   -0.00272   -0.00328   -0.01270
AFIX  43
H48   2    0.459734    0.313126    0.381490    11.00000   -1.20000
AFIX   0
C49   1    0.360653    0.244099    0.335269    11.00000    0.02883    0.05066 =
         0.02219    0.00640   -0.00216   -0.00861
C50   1    0.286445    0.217901    0.388474    11.00000    0.03044    0.05368 =
         0.02324    0.00654    0.00017   -0.00747
C51   1    0.307554    0.233054    0.456423    11.00000    0.03487    0.06817 =
         0.02127    0.00958   -0.00075   -0.01771
C52   1    0.383469    0.165450    0.484392    11.00000    0.04409    0.08570 =
         0.02624    0.00878   -0.00437   -0.01587
AFIX  43
H52   2    0.418583    0.108159    0.461686    11.00000   -1.20000
AFIX   0
C53   1    0.407943    0.181993    0.545920    11.00000    0.04899    0.10497 =
         0.03105    0.01977   -0.01024   -0.02551
AFIX  43
H53   2    0.459733    0.135888    0.564988    11.00000   -1.20000
AFIX   0
C54   1    0.356885    0.265384    0.579102    11.00000    0.05471    0.11333 =
         0.02049    0.00285   -0.00086   -0.04100
AFIX  43
H54   2    0.374404    0.276824    0.620614    11.00000   -1.20000
AFIX   0
C55   1    0.280684    0.331895    0.552097    11.00000    0.06403    0.09114 =
         0.02980   -0.00529    0.00299   -0.02923
AFIX  43
H55   2    0.245858    0.389232    0.574842    11.00000   -1.20000
AFIX   0
C56   1    0.254946    0.314723    0.491351    11.00000    0.05085    0.07431 =
         0.02862    0.00046    0.00118   -0.01286
AFIX  43
H56   2    0.200687    0.359481    0.473592    11.00000   -1.20000
AFIX   0
C61   1   -0.090328    0.081549    0.319788    11.00000    0.03353    0.03397 =
         0.03816   -0.00556    0.00985   -0.01340
C62   1   -0.103622   -0.000594    0.361926    11.00000    0.03702    0.03399 =
         0.04260   -0.00300    0.00945   -0.01220
AFIX  43
H62   2   -0.043547   -0.043128    0.374874    11.00000   -1.20000
AFIX   0
C63   1   -0.203655   -0.021270    0.385343    11.00000    0.04284    0.05068 =
         0.05401    0.00658    0.01145   -0.02155
AFIX  43
H63   2   -0.211783   -0.077818    0.413913    11.00000   -1.20000
AFIX   0
C64   1   -0.290760    0.040357    0.367032    11.00000    0.03825    0.07910 =
         0.07406    0.01374    0.01243   -0.02328
AFIX  43
H64   2   -0.359276    0.027170    0.383936    11.00000   -1.20000
AFIX   0
C65   1   -0.279512    0.120603    0.324613    11.00000    0.03589    0.08198 =
         0.07433    0.01728    0.00236   -0.00565
AFIX  43
H65   2   -0.340032    0.161721    0.311157    11.00000   -1.20000
AFIX   0
C66   1   -0.179172    0.142287    0.300997    11.00000    0.04217    0.04610 =
         0.05427    0.01228    0.00895   -0.00726
AFIX  43
H66   2   -0.171768    0.198618    0.272071    11.00000   -1.20000
AFIX   0
C71   1    0.234035    0.066744    0.009461    11.00000    0.03046    0.01898 =
         0.03083   -0.00049    0.00071   -0.01033
C72   1    0.314874   -0.003080   -0.022462    11.00000    0.02835    0.02432 =
         0.03495   -0.00361   -0.00415   -0.00535
AFIX  43
H72   2    0.373309   -0.031301   -0.000998    11.00000   -1.20000
AFIX   0
C73   1    0.310652   -0.031562   -0.085110    11.00000    0.03354    0.03059 =
         0.03571   -0.00818   -0.00474   -0.00194
AFIX  43
H73   2    0.366634   -0.078327   -0.106654    11.00000   -1.20000
AFIX   0
C74   1    0.225141    0.007889   -0.116415    11.00000    0.04215    0.03298 =
         0.03780   -0.00678   -0.01107   -0.00690
AFIX  43
H74   2    0.221950   -0.012171   -0.159201    11.00000   -1.20000
AFIX   0
C75   1    0.144341    0.076663   -0.085121    11.00000    0.03264    0.03206 =
         0.04289    0.00090   -0.01291   -0.00819
AFIX  43
H75   2    0.085223    0.103257   -0.106359    11.00000   -1.20000
AFIX   0
C76   1    0.148951    0.107029   -0.023119    11.00000    0.02675    0.02352 =
         0.04003   -0.00226   -0.00239   -0.00604
AFIX  43
H76   2    0.093898    0.155585   -0.002580    11.00000   -1.20000
AFIX   0
C81   1    0.572071    0.311502    0.137090    11.00000    0.02705    0.04210 =
         0.02225   -0.00660    0.00459   -0.01459
C82   1    0.671480    0.274345    0.155442    11.00000    0.02755    0.04782 =
         0.03054   -0.01346    0.00249   -0.01206
AFIX  43
H82   2    0.680658    0.217784    0.184876    11.00000   -1.20000
AFIX   0
C83   1    0.756060    0.320565    0.130417    11.00000    0.03055    0.06229 =
         0.04786   -0.02724    0.00736   -0.01812
AFIX  43
H83   2    0.823252    0.295910    0.142941    11.00000   -1.20000
AFIX   0
C84   1    0.742721    0.402804    0.087094    11.00000    0.03965    0.06325 =
         0.04982   -0.03188    0.02248   -0.03366
AFIX  43
H84   2    0.800911    0.434333    0.070228    11.00000   -1.20000
AFIX   0
C85   1    0.645840    0.439103    0.068342    11.00000    0.05954    0.04387 =
         0.03608   -0.01169    0.01756   -0.02983
AFIX  43
H85   2    0.637496    0.495308    0.038540    11.00000   -1.20000
AFIX   0
C86   1    0.559478    0.393140    0.093218    11.00000    0.03861    0.04118 =
         0.02849   -0.00591    0.00576   -0.01705
AFIX  43
H86   2    0.492706    0.417782    0.080094    11.00000   -1.20000
AFIX   0
C91   1    0.334888    0.027646    0.250955    11.00000    0.06856    0.05328 =
         0.07692    0.00952    0.00200    0.01331
PART 1
AFIX  13
H91   2    0.350703    0.037505    0.295785    10.50000   -1.20000
AFIX  13
PART 0
PART 2
H91A  2    0.273876    0.001242    0.277710    10.50000   -1.20000
AFIX   0
PART 0
PART 1
C92   1    0.444973   -0.011735    0.218445    10.50000    0.04929    0.05956 =
         0.04532    0.00029    0.00089   -0.01009
AFIX  13
H92   2    0.458973    0.017290    0.172129    10.50000   -1.20000
AFIX   0
PART 0
PART 2
C92A  1    0.414535   -0.014348    0.292147    10.50000    0.09431    0.06816 =
         0.08588    0.00627   -0.02127    0.00872
AFIX  13
H92A  2    0.395130    0.002775    0.339775    10.50000   -1.20000
AFIX   0
PART 0
PART 1
C93   1    0.497459    0.034734    0.264558    10.50000    0.10301    0.07649 =
         0.06289   -0.00013   -0.00584   -0.02713
AFIX  23
H93A  2    0.447962    0.068592    0.301405    10.50000   -1.20000
H93B  2    0.546922    0.077156    0.241718    10.50000   -1.20000
AFIX   0
PART 0
PART 2
C93A  1    0.523028    0.006792    0.258260    10.50000    0.05703    0.06895 =
         0.06467   -0.00135   -0.00800    0.00886
AFIX  23
H93C  2    0.523548    0.016416    0.209744    10.50000   -1.20000
H93D  2    0.534478    0.068662    0.274482    10.50000   -1.20000
AFIX   0
PART 0
PART 1
C94   1    0.552130   -0.072189    0.284018    10.50000    0.17637    0.08608 =
         0.15645   -0.00776   -0.10159   -0.02108
AFIX  23
H94A  2    0.628185   -0.072406    0.268646    10.50000   -1.20000
H94B  2    0.542955   -0.073883    0.333111    10.50000   -1.20000
AFIX   0
PART 0
PART 2
C94A  1    0.611867   -0.075201    0.271513    10.50000    0.08384    0.09922 =
         0.09835    0.00262   -0.01702    0.00370
AFIX  23
H94C  2    0.681566   -0.064540    0.247524    10.50000   -1.20000
H94D  2    0.614496   -0.089805    0.319424    10.50000   -1.20000
AFIX   0
PART 0
PART 1
C95   1    0.538029   -0.172408    0.269167    10.50000    0.08361    0.08680 =
         0.09449    0.00581   -0.01667   -0.01098
AFIX  23
H95A  2    0.502419   -0.208009    0.307682    10.50000   -1.20000
H95B  2    0.603872   -0.214225    0.248353    10.50000   -1.20000
AFIX   0
PART 0
PART 2
C95A  1    0.568187   -0.149177    0.241098    10.50000    0.08444    0.06838 =
         0.07579    0.01143   -0.00384    0.00529
AFIX  23
H95C  2    0.602997   -0.217765    0.250495    10.50000   -1.20000
H95D  2    0.569117   -0.136182    0.192727    10.50000   -1.20000
AFIX   0
PART 0
PART 1
C96   1    0.463752   -0.124298    0.218803    10.50000    0.04392    0.04961 =
         0.04207   -0.01266   -0.00465    0.01459
AFIX  13
H96   2    0.487490   -0.150045    0.173371    10.50000   -1.20000
AFIX   0
PART 0
PART 2
C96A  1    0.457090   -0.122908    0.281658    10.50000    0.07364    0.06332 =
         0.08151    0.00968   -0.01604    0.01413
AFIX  13
H96A  2    0.448893   -0.163956    0.324101    10.50000   -1.20000
AFIX   0
PART 0
PART 1
C97   1    0.350577   -0.155166    0.255643    10.50000    0.06053    0.06936 =
         0.06868   -0.01494    0.00376   -0.00549
AFIX  23
H97A  2    0.322590   -0.193122    0.226045    10.50000   -1.20000
H97B  2    0.359622   -0.195062    0.297340    10.50000   -1.20000
AFIX   0
PART 0
PART 2
C97A  1    0.394595   -0.149998    0.231768    10.50000    0.10312    0.06747 =
         0.09611    0.00400   -0.01747    0.00859
AFIX  23
H97C  2    0.438505   -0.197905    0.200301    10.50000   -1.20000
H97D  2    0.331369   -0.176134    0.253903    10.50000   -1.20000
AFIX   0
PART 0
PART 1
C98   1    0.276983   -0.056184    0.269880    10.50000    0.06258    0.02509 =
         0.26352   -0.00046    0.05405   -0.00661
AFIX  23
H98A  2    0.217697   -0.048671    0.244537    10.50000   -1.20000
H98B  2    0.247245   -0.054955    0.317747    10.50000   -1.20000
AFIX   0
PART 0
PART 2
C98A  1    0.365728   -0.048827    0.198185    10.50000    0.06742    0.04472 =
         0.07039    0.00401    0.00041    0.01933
AFIX  23
H98C  2    0.306042   -0.047641    0.174071    10.50000   -1.20000
H98D  2    0.426639   -0.033621    0.165727    10.50000   -1.20000
AFIX   0
HKLF 4

REM  CF solution in P-1
REM R1 =  0.0291 for   11814 Fo > 4sig(Fo)  and  0.0312 for all   12629 data
REM    889 parameters refined using    234 restraints

END

WGHT      0.0455      1.8822

REM Highest difference peak  1.177,  deepest hole -1.348,  1-sigma level  0.085
Q1    1   0.1990  0.2212  0.2287  11.00000  0.05    1.18
Q2    1   0.3148  0.1218  0.2302  11.00000  0.05    1.14
Q3    1   0.4691 -0.2078  0.2351  11.00000  0.05    0.97
Q4    1   0.2807  0.2342  0.2196  11.00000  0.05    0.94
Q5    1   0.2971 -0.1009  0.2236  11.00000  0.05    0.90
Q6    1   0.5151 -0.0627  0.2634  11.00000  0.05    0.78
Q7    1   0.2329  0.1072  0.2411  11.00000  0.05    0.71
Q8    1   0.4929 -0.1029  0.2114  11.00000  0.05    0.71
Q9    1   0.4091 -0.1994  0.3290  11.00000  0.05    0.68
Q10   1   0.3178  0.0142  0.2167  11.00000  0.05    0.67
Q11   1   0.3056 -0.1777  0.3149  11.00000  0.05    0.61
Q12   1   0.3450 -0.1994  0.2778  11.00000  0.05    0.59
Q13   1   0.3808  0.0478  0.2528  11.00000  0.05    0.58
Q14   1   0.1925  0.3572  0.1734  11.00000  0.05    0.56
Q15   1   0.2578  0.2149  0.1760  11.00000  0.05    0.53
Q16   1   0.0757  0.4632  0.1671  11.00000  0.05    0.48
Q17   1   0.1148  0.3367  0.1835  11.00000  0.05    0.48
Q18   1   0.0057  0.5883  0.2708  11.00000  0.05    0.48
Q19   1   0.2628 -0.0626  0.3363  11.00000  0.05    0.46
Q20   1   0.3542 -0.0236  0.3109  11.00000  0.05    0.42
Q21   1   0.3623 -0.1251  0.3087  11.00000  0.05    0.40
Q22   1   0.1581  0.4763  0.1609  11.00000  0.05    0.40
Q23   1   0.3373  0.1410  0.2644  11.00000  0.05    0.40
Q24   1   0.1261  0.3560  0.2203  11.00000  0.05    0.38
Q25   1   0.3210  0.2298  0.1317  11.00000  0.05    0.37
;
_shelx_res_checksum              29004
_shelx_fab_file
;
-15 -6 1 1.2350 0.5341
-15 -5 1 0.1933 -0.0480
-15 -5 2 -0.2215 -0.3108
-15 -4 1 0.6086 -0.2812
-15 -4 2 -0.2996 0.1650
-15 -3 1 -0.3552 0.6768
-15 -3 2 0.3451 -0.5864
-15 -2 1 0.1435 0.1713
-15 -2 2 0.3245 -0.2215
-15 -1 1 -0.2127 -0.3562
-15 -1 2 0.1614 0.0184
-15 0 1 -0.3761 -0.1462
-14 -9 1 0.9972 -0.6903
-14 -8 1 -0.1419 0.1057
-14 -8 2 0.0404 0.2263
-14 -8 3 0.0032 -0.5436
-14 -7 1 -1.8034 -0.1842
-14 -7 2 1.8466 0.1163
-14 -7 3 -1.7273 -0.1576
-14 -7 4 1.3984 0.3358
-14 -6 1 0.4953 -0.5707
-14 -6 2 -0.3438 0.6243
-14 -6 3 0.2588 -0.3626
-14 -6 4 -0.2293 -0.0296
-14 -6 5 0.2409 0.2574
-14 -5 1 1.0661 0.2101
-14 -5 2 -1.6706 -0.2624
-14 -5 3 2.1019 0.1436
-14 -5 4 -2.2119 0.0107
-14 -5 5 2.0250 -0.1099
-14 -5 6 -1.6805 0.2248
-14 -4 1 0.3502 -0.2740
-14 -4 2 -0.4264 0.0224
-14 -4 3 0.5682 0.1422
-14 -4 4 -0.7690 -0.0781
-14 -4 5 0.9374 -0.1273
-14 -4 6 -0.9572 0.2644
-14 -3 1 1.1280 -0.3835
-14 -3 2 -1.0797 0.4410
-14 -3 3 0.6969 -0.2150
-14 -3 4 -0.1109 -0.1111
-14 -3 5 -0.5178 0.2369
-14 -3 6 1.0548 -0.0358
-14 -3 7 -1.3951 -0.3107
-14 -2 1 -0.1291 0.0955
-14 -2 2 0.1101 0.0384
-14 -2 3 -0.1624 -0.2041
-14 -2 4 0.2717 0.2260
-14 -2 5 -0.3925 -0.0324
-14 -2 6 0.4840 -0.2332
-14 -2 7 -0.5393 0.3217
-14 -1 1 0.3945 0.0479
-14 -1 2 -0.0066 -0.1371
-14 -1 3 -0.2243 0.0177
-14 -1 4 0.2906 0.2903
-14 -1 5 -0.2230 -0.5623
-14 -1 6 0.0615 0.5203
-14 0 1 0.0876 -0.2436
-14 0 2 -0.1398 0.0418
-14 0 3 0.2273 0.2242
-14 0 4 -0.3650 -0.3843
-14 0 5 0.4908 0.2989
-14 0 6 -0.5177 0.0063
-14 1 1 -0.3943 -0.3062
-14 1 2 0.1273 0.2014
-14 1 3 0.0850 0.0377
-14 1 4 -0.2434 -0.2897
-14 1 5 0.3872 0.3905
-14 2 1 -0.0432 0.3407
-14 2 2 0.2730 -0.0620
-14 2 3 -0.3998 -0.3693
-14 2 4 0.4403 0.6796
-14 3 1 -0.0945 0.1471
-14 3 2 0.1333 -0.4168
-14 3 3 -0.1117 0.3767
-13 -11 1 -0.1663 -0.0996
-13 -10 1 0.3373 -0.1750
-13 -10 2 -0.6473 0.3914
-13 -10 3 0.7111 -0.4841
-13 -9 1 0.0293 -0.0445
-13 -9 2 0.1828 -0.1111
-13 -9 3 -0.2954 0.2320
-13 -9 4 0.0825 -0.3440
-13 -9 5 0.3999 0.5135
-13 -8 1 1.9365 -0.3882
-13 -8 2 -1.5874 0.2589
-13 -8 3 1.2954 0.0559
-13 -8 4 -1.0157 -0.3728
-13 -8 5 0.7478 0.5018
-13 -8 6 -0.5160 -0.4085
-13 -8 7 0.3385 0.2223
-13 -7 1 0.1493 0.0685
-13 -7 2 -0.4981 0.0173
-13 -7 3 0.8211 -0.1838
-13 -7 4 -0.8907 0.2414
-13 -7 5 0.6063 -0.0882
-13 -7 6 -0.1071 -0.1889
-13 -7 7 -0.3274 0.4206
-13 -7 8 0.4915 -0.5403
-13 -6 1 -2.6331 -0.1784
-13 -6 2 2.8355 0.0799
-13 -6 3 -2.8772 -0.0001
-13 -6 4 2.6493 0.0122
-13 -6 5 -2.1236 -0.0733
-13 -6 6 1.3894 0.0841
-13 -6 7 -0.6073 -0.0315
-13 -6 8 -0.0590 0.0213
-13 -5 1 0.2529 -0.0198
-13 -5 2 0.1047 0.2289
-13 -5 3 -0.4886 -0.2336
-13 -5 4 0.7895 0.0624
-13 -5 5 -0.9176 0.0957
-13 -5 6 0.8554 -0.1263
-13 -5 7 -0.6575 0.1316
-13 -5 8 0.4071 -0.3078
-13 -5 9 -0.1756 0.6966
-13 -4 1 0.2905 0.0811
-13 -4 2 -0.8261 -0.1699
-13 -4 3 1.3920 0.1138
-13 -4 4 -1.7919 -0.0069
-13 -4 5 1.9482 -0.0487
-13 -4 6 -1.9128 0.0802
-13 -4 7 1.7759 -0.1961
-13 -4 8 -1.5778 0.4086
-13 -4 9 1.3046 -0.5516
-13 -3 1 -0.2192 -0.1081
-13 -3 2 0.2508 -0.0785
-13 -3 3 -0.1752 0.1938
-13 -3 4 -0.0712 -0.1032
-13 -3 5 0.4955 -0.1346
-13 -3 6 -1.0230 0.3176
-13 -3 7 1.4983 -0.3134
-13 -3 8 -1.7380 0.1968
-13 -3 9 1.6291 -0.1601
-13 -2 1 0.0427 -0.0820
-13 -2 2 -0.1495 0.1879
-13 -2 3 0.0699 -0.0825
-13 -2 4 0.1237 -0.1532
-13 -2 5 -0.3625 0.2800
-13 -2 6 0.6088 -0.1297
-13 -2 7 -0.8225 -0.2170
-13 -2 8 0.9389 0.4922
-13 -2 9 -0.9088 -0.4880
-13 -1 1 -0.7727 0.0105
-13 -1 2 0.7231 0.0830
-13 -1 3 -0.7167 -0.1749
-13 -1 4 0.7009 0.1458
-13 -1 5 -0.6381 0.0524
-13 -1 6 0.5638 -0.3029
-13 -1 7 -0.5676 0.3838
-13 -1 8 0.7038 -0.1438
-13 -1 9 -0.9205 -0.3644
-13 0 1 0.4389 0.1339
-13 0 2 -0.1245 -0.2808
-13 0 3 -0.0263 0.2872
-13 0 4 0.0604 -0.1195
-13 0 5 -0.0321 -0.1031
-13 0 6 -0.0539 0.1860
-13 0 7 0.1975 -0.0100
-13 0 8 -0.3302 -0.3721
-13 0 9 0.3307 0.7690
-13 1 1 0.5609 0.1281
-13 1 2 -0.5245 -0.1737
-13 1 3 0.5075 0.2396
-13 1 4 -0.5781 -0.2496
-13 1 5 0.6863 0.1404
-13 1 6 -0.7198 0.0597
-13 1 7 0.6165 -0.2258
-13 1 8 -0.4207 0.2116
-13 1 9 0.2348 0.0596
-13 2 1 -0.2125 -0.1149
-13 2 2 0.0673 0.1275
-13 2 3 -0.0354 0.0350
-13 2 4 0.0689 -0.2803
-13 2 5 -0.0417 0.4223
-13 2 6 -0.1018 -0.3183
-13 2 7 0.2826 -0.0179
-13 2 8 -0.3684 0.4350
-13 3 1 -0.1864 0.0724
-13 3 2 0.5052 -0.0087
-13 3 3 -0.6986 -0.1601
-13 3 4 0.7668 0.2536
-13 3 5 -0.7633 -0.0973
-13 3 6 0.7290 -0.2960
-13 3 7 -0.6691 0.7131
-13 4 1 -0.6775 0.0163
-13 4 2 0.7356 -0.3090
-13 4 3 -0.7394 0.4501
-13 4 4 0.6532 -0.2460
-13 4 5 -0.5376 -0.2680
-13 4 6 0.4932 0.8245
-13 5 1 -0.3924 -0.0519
-13 5 2 0.4445 0.2604
-13 5 3 -0.3257 -0.2010
-13 5 4 0.0838 -0.1224
-13 6 1 0.2368 0.2655
-12 -12 1 1.1309 -0.3479
-12 -12 2 -1.1007 0.2370
-12 -11 1 -0.8641 0.4177
-12 -11 2 0.4539 -0.4572
-12 -11 3 -0.0066 0.4023
-12 -11 4 -0.4564 -0.3530
-12 -11 5 0.8154 0.3476
-12 -10 1 -0.2923 0.0410
-12 -10 2 0.6861 0.0181
-12 -10 3 -0.9430 -0.1268
-12 -10 4 1.0806 0.2689
-12 -10 5 -1.0601 -0.3880
-12 -10 6 0.8419 0.4046
-12 -9 1 -0.4211 -0.2328
-12 -9 2 -0.1914 0.3199
-12 -9 3 0.5476 -0.3165
-12 -9 4 -0.4983 0.2250
-12 -9 5 0.0478 -0.1386
-12 -9 6 0.5613 0.1731
-12 -9 7 -0.9826 -0.3611
-12 -9 8 1.0210 0.6175
-12 -8 1 -0.6598 -0.0468
-12 -8 2 0.6419 -0.0565
-12 -8 3 -0.6020 0.1166
-12 -8 4 0.3007 -0.1159
-12 -8 5 0.3144 0.1069
-12 -8 6 -1.0151 -0.1447
-12 -8 7 1.4576 0.2119
-12 -8 8 -1.4463 -0.2377
-12 -8 9 1.0589 0.1902
-12 -7 1 2.7784 0.0271
-12 -7 2 -2.2178 0.0285
-12 -7 3 1.5725 0.0218
-12 -7 4 -0.9655 -0.1342
-12 -7 5 0.5122 0.1985
-12 -7 6 -0.2681 -0.1549
-12 -7 7 0.2103 0.0443
-12 -7 8 -0.2801 0.0637
-12 -7 9 0.4377 -0.1693
-12 -7 10 -0.6593 0.3398
-12 -6 1 0.8320 -0.0554
-12 -6 2 -1.4210 -0.0289
-12 -6 3 2.0390 0.0244
-12 -6 4 -2.3600 -0.0162
-12 -6 5 2.1253 0.0797
-12 -6 6 -1.3606 -0.1775
-12 -6 7 0.3874 0.2108
-12 -6 8 0.3833 -0.1612
-12 -6 9 -0.7065 0.1455
-12 -6 10 0.6177 -0.3050
-12 -6 11 -0.3472 0.6472
-12 -5 1 -2.5541 -0.1284
-12 -5 2 2.6842 0.1022
-12 -5 3 -2.6849 0.0013
-12 -5 4 2.5278 -0.1022
-12 -5 5 -2.1793 0.1724
-12 -5 6 1.6447 -0.2395
-12 -5 7 -1.0028 0.2941
-12 -5 8 0.4004 -0.2457
-12 -5 9 0.0033 0.0094
-12 -5 10 -0.1194 0.3630
-12 -5 11 -0.0133 -0.6716
-12 -4 1 0.7481 0.2144
-12 -4 2 -0.3859 -0.0749
-12 -4 3 -0.2173 0.0143
-12 -4 4 0.8980 -0.0623
-12 -4 5 -1.4713 0.1086
-12 -4 6 1.8119 -0.0576
-12 -4 7 -1.8805 -0.0266
-12 -4 8 1.7102 -0.0338
-12 -4 9 -1.3822 0.3318
-12 -4 10 0.9996 -0.7459
-12 -4 11 -0.6528 1.0229
-12 -4 12 0.3880 -0.9954
-12 -3 1 0.8499 -0.1269
-12 -3 2 -1.0840 0.0292
-12 -3 3 1.3482 -0.0101
-12 -3 4 -1.5067 0.0310
-12 -3 5 1.4858 -0.0049
-12 -3 6 -1.2952 -0.0781
-12 -3 7 1.0045 0.1329
-12 -3 8 -0.7102 -0.0937
-12 -3 9 0.5021 0.0253
-12 -3 10 -0.4242 -0.0968
-12 -3 11 0.4485 0.4316
-12 -3 12 -0.4908 -0.9789
-12 -2 1 0.4737 -0.0466
-12 -2 2 -0.1734 -0.0557
-12 -2 3 -0.0594 0.1627
-12 -2 4 0.1711 -0.1582
-12 -2 5 -0.0800 0.0333
-12 -2 6 -0.2956 0.0974
-12 -2 7 0.9358 -0.1152
-12 -2 8 -1.6511 0.0177
-12 -2 9 2.1570 0.0896
-12 -2 10 -2.2516 -0.1170
-12 -2 11 1.9442 0.0925
-12 -2 12 -1.4204 -0.1344
-12 -1 1 -0.4654 0.1070
-12 -1 2 0.4891 -0.0201
-12 -1 3 -0.6020 0.0263
-12 -1 4 0.7083 -0.1435
-12 -1 5 -0.7596 0.2585
-12 -1 6 0.7630 -0.2332
-12 -1 7 -0.7207 0.0481
-12 -1 8 0.5983 0.1584
-12 -1 9 -0.3721 -0.2006
-12 -1 10 0.0944 0.0065
-12 -1 11 0.1125 0.3086
-12 -1 12 -0.1444 -0.5190
-12 0 1 -1.5842 0.0155
-12 0 2 1.3572 0.0074
-12 0 3 -1.2323 -0.0382
-12 0 4 1.1578 0.0245
-12 0 5 -1.0280 0.0698
-12 0 6 0.8286 -0.2106
-12 0 7 -0.6709 0.2940
-12 0 8 0.6766 -0.2057
-12 0 9 -0.8426 -0.1001
-12 0 10 1.0305 0.5520
-12 0 11 -1.0812 -0.9784
-12 0 12 0.9325 1.1923
-12 1 1 0.7816 0.0481
-12 1 2 -0.5767 -0.1627
-12 1 3 0.5106 0.2167
-12 1 4 -0.4883 -0.1787
-12 1 5 0.4164 0.0896
-12 1 6 -0.3068 -0.0254
-12 1 7 0.2404 0.0399
-12 1 8 -0.2439 -0.1296
-12 1 9 0.2361 0.2330
-12 1 10 -0.1080 -0.2531
-12 1 11 -0.1519 0.1066
-12 2 1 1.3472 0.1266
-12 2 2 -1.3332 -0.1065
-12 2 3 1.2279 0.0829
-12 2 4 -1.1568 -0.0358
-12 2 5 1.1197 -0.0360
-12 2 6 -1.0344 0.0998
-12 2 7 0.8532 -0.1148
-12 2 8 -0.6261 0.0557
-12 2 9 0.4527 0.1005
-12 2 10 -0.3913 -0.3883
-12 2 11 0.4165 0.8111
-12 3 1 0.3658 0.0132
-12 3 2 -0.4703 0.0744
-12 3 3 0.3386 -0.0427
-12 3 4 -0.0331 -0.1002
-12 3 5 -0.2205 0.2325
-12 3 6 0.2329 -0.2331
-12 3 7 -0.0106 0.0942
-12 3 8 -0.2710 0.0936
-12 3 9 0.4313 -0.2526
-12 3 10 -0.4206 0.3827
-12 4 1 0.1643 0.0873
-12 4 2 0.2302 -0.1515
-12 4 3 -0.5524 0.0893
-12 4 4 0.7470 -0.0137
-12 4 5 -0.8149 0.0839
-12 4 6 0.7732 -0.3378
-12 4 7 -0.6328 0.6495
-12 4 8 0.4135 -0.8519
-12 4 9 -0.1619 0.8796
-12 5 1 -0.7083 0.0871
-12 5 2 0.6550 -0.1812
-12 5 3 -0.6255 0.2785
-12 5 4 0.5509 -0.2516
-12 5 5 -0.4519 0.0670
-12 5 6 0.4301 0.1795
-12 5 7 -0.5590 -0.3691
-12 5 8 0.7890 0.4739
-12 6 1 -0.9301 0.1329
-12 6 2 0.9601 0.1416
-12 6 3 -0.7886 -0.2488
-12 6 4 0.4697 0.0903
-12 6 5 -0.0932 0.2086
-12 6 6 -0.2581 -0.4282
-12 7 1 0.0423 0.2071
-12 7 2 0.1533 -0.2703
-12 7 3 -0.2985 0.1318
-12 7 4 0.3497 0.1619
-11 -13 1 -0.5659 -0.0031
-11 -13 2 0.3482 0.2166
-11 -12 1 -0.9157 -0.0126
-11 -12 2 1.2845 -0.0078
-11 -12 3 -1.2480 -0.0216
-11 -12 4 0.9542 0.0386
-11 -12 5 -0.5417 0.0836
-11 -11 1 1.5611 -0.2818
-11 -11 2 -1.6355 0.2884
-11 -11 3 1.5213 -0.2172
-11 -11 4 -1.2503 0.1285
-11 -11 5 0.8829 -0.0819
-11 -11 6 -0.5391 0.0718
-11 -11 7 0.3385 -0.0360
-11 -10 1 -0.8304 0.0185
-11 -10 2 0.2953 0.0021
-11 -10 3 0.2444 -0.0571
-11 -10 4 -0.7631 0.0430
-11 -10 5 1.2065 0.0863
-11 -10 6 -1.4060 -0.2464
-11 -10 7 1.2002 0.2877
-11 -10 8 -0.6254 -0.1446
-11 -10 9 -0.0547 -0.0940
-11 -9 1 -0.0492 0.1405
-11 -9 2 0.7588 -0.1237
-11 -9 3 -1.3282 0.0658
-11 -9 4 1.6822 0.0125
-11 -9 5 -1.7651 -0.0827
-11 -9 6 1.5744 0.1096
-11 -9 7 -1.1988 -0.0796
-11 -9 8 0.7834 0.0238
-11 -9 9 -0.4368 0.0086
-11 -9 10 0.1810 -0.0034
-11 -8 1 -1.0025 -0.1697
-11 -8 2 0.4548 0.1472
-11 -8 3 0.0295 -0.0436
-11 -8 4 -0.2371 -0.1098
-11 -8 5 -0.0065 0.2250
-11 -8 6 0.6311 -0.2113
-11 -8 7 -1.3066 0.0517
-11 -8 8 1.6657 0.1789
-11 -8 9 -1.5640 -0.3787
-11 -8 10 1.1389 0.4957
-11 -8 11 -0.6436 -0.5369
-11 -7 1 -2.1611 -0.0842
-11 -7 2 2.0261 0.0500
-11 -7 3 -1.6656 0.0022
-11 -7 4 1.0233 -0.0234
-11 -7 5 -0.1242 0.0148
-11 -7 6 -0.8410 -0.0024
-11 -7 7 1.5747 -0.0210
-11 -7 8 -1.8496 0.0979
-11 -7 9 1.6560 -0.2370
-11 -7 10 -1.1960 0.3627
-11 -7 11 0.7407 -0.3555
-11 -7 12 -0.4653 0.1557
-11 -6 1 2.5847 0.2072
-11 -6 2 -1.9875 -0.1099
-11 -6 3 1.1607 -0.0035
-11 -6 4 -0.3349 0.0834
-11 -6 5 -0.2324 -0.1297
-11 -6 6 0.3858 0.1549
-11 -6 7 -0.1450 -0.1509
-11 -6 8 -0.3279 0.1180
-11 -6 9 0.8375 -0.1143
-11 -6 10 -1.2465 0.2437
-11 -6 11 1.4874 -0.5692
-11 -6 12 -1.5206 1.0319
-11 -6 13 1.3173 -1.4599
-11 -5 1 0.9442 -0.1133
-11 -5 2 -1.6773 0.0598
-11 -5 3 2.4326 -0.0313
-11 -5 4 -2.9484 -0.0012
-11 -5 5 2.9511 0.0660
-11 -5 6 -2.3479 -0.1162
-11 -5 7 1.3395 0.0578
-11 -5 8 -0.3423 0.1369
-11 -5 9 -0.2562 -0.3641
-11 -5 10 0.3395 0.4580
-11 -5 11 -0.1141 -0.3350
-11 -5 12 -0.0711 0.0725
-11 -5 13 -0.0071 0.1513
-11 -4 1 -2.5744 0.1004
-11 -4 2 2.5332 -0.0007
-11 -4 3 -2.3001 -0.0316
-11 -4 4 1.9380 0.0220
-11 -4 5 -1.4894 0.0055
-11 -4 6 0.9550 -0.0601
-11 -4 7 -0.3605 0.1383
-11 -4 8 -0.1723 -0.1722
-11 -4 9 0.4518 0.0601
-11 -4 10 -0.3411 0.2372
-11 -4 11 -0.1258 -0.6352
-11 -4 12 0.7357 0.9667
-11 -4 13 -1.2067 -1.0920
-11 -3 1 0.7372 0.1853
-11 -3 2 -0.5855 -0.1395
-11 -3 3 0.0503 0.0920
-11 -3 4 0.6674 -0.0800
-11 -3 5 -1.3475 0.0540
-11 -3 6 1.8314 0.0522
-11 -3 7 -2.0439 -0.2167
-11 -3 8 1.9988 0.3227
-11 -3 9 -1.7935 -0.2717
-11 -3 10 1.5609 0.1009
-11 -3 11 -1.3807 0.0228
-11 -3 12 1.2232 0.0602
-11 -3 13 -0.9931 -0.3569
-11 -3 14 0.6439 0.6998
-11 -2 1 1.3153 -0.1348
-11 -2 2 -1.6115 0.0407
-11 -2 3 1.8289 -0.0010
-11 -2 4 -1.8969 0.0358
-11 -2 5 1.8048 -0.0817
-11 -2 6 -1.5359 0.0692
-11 -2 7 1.0560 0.0015
-11 -2 8 -0.3894 -0.0645
-11 -2 9 -0.3146 0.0614
-11 -2 10 0.8312 -0.0117
-11 -2 11 -1.0005 0.0146
-11 -2 12 0.8280 -0.1775
-11 -2 13 -0.4619 0.5242
-11 -2 14 0.0867 -0.9545
-11 -1 1 1.3732 0.0378
-11 -1 2 -0.9226 -0.0132
-11 -1 3 0.6415 0.0516
-11 -1 4 -0.4912 -0.0970
-11 -1 5 0.4379 0.0983
-11 -1 6 -0.5350 -0.0535
-11 -1 7 0.8488 -0.0039
-11 -1 8 -1.3262 0.0485
-11 -1 9 1.7744 -0.0859
-11 -1 10 -1.9916 0.1288
-11 -1 11 1.9086 -0.1565
-11 -1 12 -1.6040 0.1028
-11 -1 13 1.2057 0.1008
-11 -1 14 -0.8000 -0.4515
-11 0 1 -0.3597 0.1697
-11 0 2 0.4929 -0.1303
-11 0 3 -0.6961 0.0739
-11 0 4 0.8039 -0.0492
-11 0 5 -0.7688 0.0621
-11 0 6 0.6545 -0.0662
-11 0 7 -0.5238 0.0057
-11 0 8 0.3666 0.1164
-11 0 9 -0.1445 -0.2098
-11 0 10 -0.1206 0.1515
-11 0 11 0.3285 0.0976
-11 0 12 -0.3708 -0.4158
-11 0 13 0.2125 0.5778
-11 0 14 0.0820 -0.4280
-11 1 1 -2.6969 0.0804
-11 1 2 2.2368 -0.0927
-11 1 3 -1.8000 0.0912
-11 1 4 1.4749 -0.0650
-11 1 5 -1.2046 0.0126
-11 1 6 0.9434 0.0413
-11 1 7 -0.7529 -0.0557
-11 1 8 0.7340 0.0226
-11 1 9 -0.8937 -0.0035
-11 1 10 1.1090 0.0930
-11 1 11 -1.2231 -0.3210
-11 1 12 1.1576 0.5957
-11 1 13 -0.9360 -0.7658
-11 2 1 0.4941 0.0556
-11 2 2 -0.4611 -0.1033
-11 2 3 0.5680 0.1087
-11 2 4 -0.6757 -0.0676
-11 2 5 0.6329 0.0058
-11 2 6 -0.4136 0.0560
-11 2 7 0.1183 -0.1082
-11 2 8 0.1432 0.1341
-11 2 9 -0.3493 -0.1197
-11 2 10 0.5493 0.1020
-11 2 11 -0.7730 -0.1824
-11 2 12 0.9701 0.4430
-11 2 13 -1.0327 -0.8279
-11 3 1 1.4151 -0.0124
-11 3 2 -1.5861 0.0058
-11 3 3 1.5796 0.0117
-11 3 4 -1.5061 -0.0000
-11 3 5 1.3731 -0.0390
-11 3 6 -1.1210 0.0651
-11 3 7 0.7393 -0.0645
-11 3 8 -0.3265 0.0767
-11 3 9 0.0332 -0.1286
-11 3 10 0.0434 0.1549
-11 3 11 0.0880 -0.0338
-11 3 12 -0.3350 -0.2691
-11 4 1 0.2810 -0.0045
-11 4 2 -0.5562 0.0277
-11 4 3 0.5728 -0.0285
-11 4 4 -0.2955 -0.0126
-11 4 5 -0.0729 0.0424
-11 4 6 0.2590 -0.0096
-11 4 7 -0.1373 -0.0565
-11 4 8 -0.1919 0.0801
-11 4 9 0.5081 -0.0501
-11 4 10 -0.6434 0.0582
-11 4 11 0.5820 -0.1913
-11 5 1 0.8241 -0.0981
-11 5 2 -0.3584 -0.0647
-11 5 3 -0.1110 0.1089
-11 5 4 0.4830 -0.0378
-11 5 5 -0.6983 -0.0556
-11 5 6 0.7319 0.0984
-11 5 7 -0.5859 -0.0887
-11 5 8 0.2957 0.0447
-11 5 9 0.0688 0.0477
-11 5 10 -0.4190 -0.1973
-11 5 11 0.6699 0.3338
-11 6 1 -0.0425 -0.0193
-11 6 2 -0.0886 0.0728
-11 6 3 0.0809 -0.0891
-11 6 4 -0.0394 0.1033
-11 6 5 0.0383 -0.1204
-11 6 6 -0.0383 0.1088
-11 6 7 -0.0651 -0.0779
-11 6 8 0.3197 0.1253
-11 6 9 -0.6476 -0.3509
-11 7 1 -1.0669 -0.1195
-11 7 2 1.1416 0.2686
-11 7 3 -1.0120 -0.3574
-11 7 4 0.7283 0.3103
-11 7 5 -0.3837 -0.1680
-11 7 6 0.0537 0.0275
-11 7 7 0.2134 0.0769
-11 7 8 -0.3814 -0.1974
-11 8 1 -0.1376 -0.0313
-11 8 2 0.3622 -0.0391
-11 8 3 -0.5582 0.0196
-11 8 4 0.5884 0.1143
-11 8 5 -0.4466 -0.3173
-11 9 1 -0.0390 -0.0111
-11 9 2 -0.0245 0.0233
-10 -14 1 0.0555 -0.0546
-10 -14 2 -0.0605 0.1480
-10 -13 1 1.1802 -0.0512
-10 -13 2 -0.7329 -0.2384
-10 -13 3 0.1149 0.5227
-10 -13 4 0.3551 -0.6365
-10 -13 5 -0.5073 0.4994
-10 -12 1 -0.8680 0.0179
-10 -12 2 0.3132 0.0473
-10 -12 3 0.0380 -0.1495
-10 -12 4 -0.1566 0.2246
-10 -12 5 0.0912 -0.2516
-10 -12 6 0.0980 0.2901
-10 -12 7 -0.3357 -0.4041
-10 -11 1 -0.9230 -0.0375
-10 -11 2 1.6701 0.0234
-10 -11 3 -1.9999 -0.0601
-10 -11 4 1.9410 0.1342
-10 -11 5 -1.5929 -0.1459
-10 -11 6 1.0539 0.0009
-10 -11 7 -0.4393 0.2671
-10 -11 8 -0.0969 -0.4944
-10 -11 9 0.4131 0.5345
-10 -10 1 1.9949 -0.0442
-10 -10 2 -2.0072 0.0545
-10 -10 3 1.8600 -0.0398
-10 -10 4 -1.6177 0.0221
-10 -10 5 1.2889 -0.0294
-10 -10 6 -0.9257 0.0491
-10 -10 7 0.6512 -0.0304
-10 -10 8 -0.5567 -0.0391
-10 -10 9 0.5949 0.0741
-10 -10 10 -0.6144 0.0491
-10 -10 11 0.5101 -0.3485
-10 -9 1 -0.1726 -0.0500
-10 -9 2 -0.3894 0.1645
-10 -9 3 0.8568 -0.3001
-10 -9 4 -1.1774 0.3542
-10 -9 5 1.4205 -0.2592
-10 -9 6 -1.5911 0.0645
-10 -9 7 1.5758 0.0925
-10 -9 8 -1.2682 -0.1114
-10 -9 9 0.7094 0.0175
-10 -9 10 -0.0900 0.0801
-10 -9 11 -0.3778 -0.1060
-10 -9 12 0.5837 0.0797
-10 -8 1 0.9228 0.0916
-10 -8 2 0.0168 -0.0971
-10 -8 3 -0.9980 0.0511
-10 -8 4 1.7985 0.0108
-10 -8 5 -2.2265 -0.0569
-10 -8 6 2.2163 0.0658
-10 -8 7 -1.8857 -0.0406
-10 -8 8 1.4719 0.0137
-10 -8 9 -1.1691 -0.0205
-10 -8 10 1.0063 0.0627
-10 -8 11 -0.8798 -0.1082
-10 -8 12 0.6971 0.1338
-10 -8 13 -0.4753 -0.1559
-10 -7 1 -0.2976 -0.0559
-10 -7 2 -0.0838 0.0264
-10 -7 3 0.3451 0.0654
-10 -7 4 -0.4025 -0.1855
-10 -7 5 0.0984 0.2630
-10 -7 6 0.6205 -0.2384
-10 -7 7 -1.5558 0.1226
-10 -7 8 2.3218 0.0006
-10 -7 9 -2.5934 -0.0449
-10 -7 10 2.3143 -0.0022
-10 -7 11 -1.6880 0.0772
-10 -7 12 0.9879 -0.1109
-10 -7 13 -0.3809 0.0932
-10 -7 14 -0.0986 -0.0696
-10 -6 1 -2.7462 -0.0207
-10 -6 2 2.8652 0.0153
-10 -6 3 -2.4473 0.0217
-10 -6 4 1.6170 -0.0508
-10 -6 5 -0.5966 0.0636
-10 -6 6 -0.3506 -0.0769
-10 -6 7 0.9855 0.0868
-10 -6 8 -1.1832 -0.0540
-10 -6 9 1.0055 -0.0489
-10 -6 10 -0.6792 0.1796
-10 -6 11 0.4640 -0.2319
-10 -6 12 -0.4922 0.1149
-10 -6 13 0.6969 0.1593
-10 -6 14 -0.8776 -0.4586
-10 -5 1 1.9074 0.0089
-10 -5 2 -1.3700 -0.0650
-10 -5 3 0.5454 0.0677
-10 -5 4 0.3980 -0.0371
-10 -5 5 -1.1726 -0.0096
-10 -5 6 1.4977 0.0548
-10 -5 7 -1.2379 -0.0687
-10 -5 8 0.4820 0.0262
-10 -5 9 0.4999 0.0589
-10 -5 10 -1.4020 -0.1234
-10 -5 11 2.0217 0.0882
-10 -5 12 -2.2933 0.0883
-10 -5 13 2.2227 -0.3796
-10 -5 14 -1.8296 0.7022
-10 -5 15 1.1718 -0.9573
-10 -4 1 0.4326 -0.1132
-10 -4 2 -1.3665 0.1352
-10 -4 3 2.2254 -0.1232
-10 -4 4 -2.7904 0.0528
-10 -4 5 2.8898 0.0787
-10 -4 6 -2.4460 -0.2084
-10 -4 7 1.5688 0.2332
-10 -4 8 -0.5979 -0.0986
-10 -4 9 -0.0295 -0.1343
-10 -4 10 0.0562 0.3202
-10 -4 11 0.3903 -0.3419
-10 -4 12 -0.8722 0.2082
-10 -4 13 0.9637 -0.0492
-10 -4 14 -0.5584 0.0123
-10 -4 15 -0.0862 -0.1445
-10 -3 1 -2.8751 0.1123
-10 -3 2 2.7748 -0.0353
-10 -3 3 -2.3722 -0.0073
-10 -3 4 1.8241 0.0164
-10 -3 5 -1.2690 -0.0189
-10 -3 6 0.7101 0.0188
-10 -3 7 -0.0814 0.0112
-10 -3 8 -0.5927 -0.0933
-10 -3 9 1.1303 0.2042
-10 -3 10 -1.2913 -0.2730
-10 -3 11 0.9434 0.2219
-10 -3 12 -0.1588 -0.0190
-10 -3 13 -0.8051 -0.2943
-10 -3 14 1.6072 0.6183
-10 -3 15 -1.9590 -0.8391
-10 -2 1 0.1768 -0.0378
-10 -2 2 -0.1026 0.0109
-10 -2 3 -0.5306 0.0078
-10 -2 4 1.4320 -0.0319
-10 -2 5 -2.2946 0.0455
-10 -2 6 2.8771 -0.0184
-10 -2 7 -3.0184 -0.0478
-10 -2 8 2.6826 0.0999
-10 -2 9 -2.0254 -0.0728
-10 -2 10 1.3560 -0.0354
-10 -2 11 -0.9507 0.1248
-10 -2 12 0.8592 -0.0444
-10 -2 13 -0.8957 -0.2870
-10 -2 14 0.8307 0.7854
-10 -2 15 -0.5939 -1.2223
-10 -1 1 0.9315 -0.1059
-10 -1 2 -1.4681 -0.0148
-10 -1 3 1.7458 0.1276
-10 -1 4 -1.6977 -0.1445
-10 -1 5 1.4657 0.0536
-10 -1 6 -1.1965 0.0651
-10 -1 7 0.8872 -0.1029
-10 -1 8 -0.4384 0.0207
-10 -1 9 -0.1768 0.1097
-10 -1 10 0.8308 -0.1679
-10 -1 11 -1.3189 0.1042
-10 -1 12 1.4899 -0.0015
-10 -1 13 -1.3121 0.0130
-10 -1 14 0.8639 -0.2277
-10 -1 15 -0.3054 0.5841
-10 0 1 2.0029 0.0328
-10 0 2 -1.3347 0.0339
-10 0 3 0.9723 -0.0458
-10 0 4 -0.8877 -0.0108
-10 0 5 0.9651 0.1008
-10 0 6 -1.1460 -0.1600
-10 0 7 1.4233 0.1403
-10 0 8 -1.7394 -0.0478
-10 0 9 1.9618 -0.0659
-10 0 10 -1.9811 0.1482
-10 0 11 1.8069 -0.1743
-10 0 12 -1.5389 0.1307
-10 0 13 1.2581 0.0127
-10 0 14 -0.9731 -0.2809
-10 0 15 0.6686 0.6289
-10 1 1 0.1259 -0.0776
-10 1 2 -0.0587 0.0432
-10 1 3 -0.1942 -0.0311
-10 1 4 0.3655 0.0425
-10 1 5 -0.3211 -0.0393
-10 1 6 0.1112 -0.0036
-10 1 7 0.1463 0.0426
-10 1 8 -0.3837 0.0061
-10 1 9 0.5890 -0.1597
-10 1 10 -0.7447 0.3018
-10 1 11 0.8062 -0.2611
-10 1 12 -0.7349 -0.0130
-10 1 13 0.5264 0.3602
-10 1 14 -0.2036 -0.5194
-10 1 15 -0.1829 0.3508
-10 2 1 -3.2549 -0.0746
-10 2 2 2.8520 0.0614
-10 2 3 -2.2539 -0.0103
-10 2 4 1.6531 -0.0525
-10 2 5 -1.1199 0.0633
-10 2 6 0.6866 0.0015
-10 2 7 -0.4231 -0.0772
-10 2 8 0.3964 0.0666
-10 2 9 -0.5807 0.0489
-10 2 10 0.8499 -0.1735
-10 2 11 -1.0703 0.1891
-10 2 12 1.1811 -0.0732
-10 2 13 -1.1848 -0.0914
-10 2 14 1.0920 0.2185
-10 2 15 -0.9082 -0.3033
-10 3 1 0.1439 0.0145
-10 3 2 -0.0477 -0.0237
-10 3 3 0.1220 0.0165
-10 3 4 -0.2582 -0.0135
-10 3 5 0.3004 0.0308
-10 3 6 -0.1764 -0.0403
-10 3 7 -0.0723 0.0016
-10 3 8 0.3623 0.0660
-10 3 9 -0.6446 -0.0790
-10 3 10 0.9154 -0.0103
-10 3 11 -1.1815 0.1227
-10 3 12 1.4268 -0.1030
-10 3 13 -1.5959 -0.1115
-10 3 14 1.5961 0.3914
-10 4 1 1.2809 -0.0501
-10 4 2 -1.5359 0.0547
-10 4 3 1.5687 0.0112
-10 4 4 -1.4812 -0.0900
-10 4 5 1.2880 0.1467
-10 4 6 -0.9388 -0.1913
-10 4 7 0.4282 0.2205
-10 4 8 0.1401 -0.1764
-10 4 9 -0.5996 0.0119
-10 4 10 0.8182 0.2077
-10 4 11 -0.7517 -0.3171
-10 4 12 0.4413 0.2080
-10 4 13 0.0026 0.0327
-10 4 14 -0.4174 -0.1792
-10 5 1 -0.1900 0.0409
-10 5 2 -0.2270 -0.0590
-10 5 3 0.5037 0.0755
-10 5 4 -0.4618 -0.1027
-10 5 5 0.1587 0.1086
-10 5 6 0.1652 -0.0721
-10 5 7 -0.2731 0.0422
-10 5 8 0.0968 -0.0970
-10 5 9 0.2361 0.2315
-10 5 10 -0.5079 -0.3214
-10 5 11 0.5646 0.2381
-10 5 12 -0.4142 0.0000
-10 5 13 0.2043 -0.2213
-10 6 1 1.4736 -0.1436
-10 6 2 -1.0692 0.0677
-10 6 3 0.5991 0.0089
-10 6 4 -0.1397 -0.0471
-10 6 5 -0.2467 0.0387
-10 6 6 0.5059 0.0294
-10 6 7 -0.5987 -0.1663
-10 6 8 0.5149 0.3175
-10 6 9 -0.2793 -0.3595
-10 6 10 -0.0527 0.2071
-10 6 11 0.3951 0.0628
-10 6 12 -0.6364 -0.2352
-10 7 1 0.5866 -0.0429
-10 7 2 -0.7696 0.1455
-10 7 3 0.7352 -0.2067
-10 7 4 -0.5417 0.2129
-10 7 5 0.3345 -0.1433
-10 7 6 -0.2024 -0.0204
-10 7 7 0.1142 0.2228
-10 7 8 0.0245 -0.3042
-10 7 9 -0.2657 0.1057
-10 7 10 0.5596 0.3585
-10 8 1 -0.6262 -0.1869
-10 8 2 0.7255 0.2308
-10 8 3 -0.7163 -0.1774
-10 8 4 0.6292 0.0450
-10 8 5 -0.5242 0.0760
-10 8 6 0.4294 -0.1060
-10 8 7 -0.3320 0.0700
-10 8 8 0.2158 -0.0802
-10 8 9 -0.0958 0.2096
-10 9 1 0.0280 0.0931
-10 9 2 0.1042 -0.0936
-10 9 3 -0.3799 0.0714
-10 9 4 0.5978 -0.0232
-10 9 5 -0.6252 -0.0361
-10 9 6 0.4617 0.1258
-10 10 1 -0.0286 0.1519
-10 10 2 -0.0331 -0.2292
-9 -14 1 -0.4850 -0.5362
-9 -14 2 -0.1425 0.5899
-9 -14 3 0.4864 -0.5331
-9 -14 4 -0.3943 0.3944
-9 -13 1 0.0732 0.0924
-9 -13 2 0.1046 0.0000
-9 -13 3 0.0238 -0.1704
-9 -13 4 -0.3384 0.4028
-9 -13 5 0.6436 -0.5841
-9 -13 6 -0.8030 0.5777
-9 -13 7 0.7852 -0.3515
-9 -12 1 1.8959 -0.0430
-9 -12 2 -1.5676 0.0467
-9 -12 3 0.9454 0.0173
-9 -12 4 -0.3314 -0.0843
-9 -12 5 -0.0581 0.0781
-9 -12 6 0.1696 -0.0144
-9 -12 7 -0.0663 0.0000
-9 -12 8 -0.1467 -0.0972
-9 -12 9 0.3638 0.2128
-9 -11 1 -1.7310 -0.1159
-9 -11 2 0.6608 0.0797
-9 -11 3 0.2403 -0.0515
-9 -11 4 -0.7598 0.0151
-9 -11 5 0.8757 0.0417
-9 -11 6 -0.6697 -0.0801
-9 -11 7 0.2627 0.0471
-9 -11 8 0.1832 0.0515
-9 -11 9 -0.4738 -0.1528
-9 -11 10 0.4648 0.2239
-9 -11 11 -0.1599 -0.3093
-9 -10 1 -1.3846 0.0037
-9 -10 2 1.9546 -0.0341
-9 -10 3 -2.2517 0.0365
-9 -10 4 2.3213 0.0166
-9 -10 5 -2.2191 -0.0763
-9 -10 6 1.9459 0.0641
-9 -10 7 -1.4986 0.0260
-9 -10 8 0.9490 -0.1035
-9 -10 9 -0.4402 0.0822
-9 -10 10 0.1034 0.0103
-9 -10 11 0.0100 -0.0546
-9 -10 12 0.0684 -0.0279
-9 -9 1 1.9550 0.1254
-9 -9 2 -2.1822 -0.1691
-9 -9 3 2.1795 0.1946
-9 -9 4 -2.0825 -0.1958
-9 -9 5 1.8882 0.1638
-9 -9 6 -1.5607 -0.1151
-9 -9 7 1.1675 0.0967
-9 -9 8 -0.8668 -0.1304
-9 -9 9 0.7620 0.1583
-9 -9 10 -0.8013 -0.0789
-9 -9 11 0.8374 -0.1382
-9 -9 12 -0.7694 0.3876
-9 -9 13 0.6101 -0.5046
-9 -8 1 0.0095 0.1820
-9 -8 2 -0.8580 -0.0936
-9 -8 3 1.7356 -0.0434
-9 -8 4 -2.3818 0.1448
-9 -8 5 2.7454 -0.1349
-9 -8 6 -2.8883 0.0264
-9 -8 7 2.8490 0.0792
-9 -8 8 -2.6144 -0.0848
-9 -8 9 2.1846 -0.0120
-9 -8 10 -1.6226 0.1235
-9 -8 11 1.0344 -0.1554
-9 -8 12 -0.5248 0.0786
-9 -8 13 0.1725 0.0673
-9 -8 14 -0.0173 -0.2116
-9 -7 1 1.9404 -0.0059
-9 -7 2 -1.0387 0.0067
-9 -7 3 -0.0705 -0.0215
-9 -7 4 1.1025 0.0257
-9 -7 5 -1.7505 -0.0118
-9 -7 6 1.8312 -0.0114
-9 -7 7 -1.4206 0.0227
-9 -7 8 0.8474 0.0021
-9 -7 9 -0.4936 -0.0671
-9 -7 10 0.5351 0.1395
-9 -7 11 -0.8399 -0.1710
-9 -7 12 1.1108 0.1459
-9 -7 13 -1.1348 -0.1045
-9 -7 14 0.9167 0.1083
-9 -7 15 -0.6126 -0.1836
-9 -6 1 0.0874 0.0112
-9 -6 2 -0.7037 0.0354
-9 -6 3 1.0301 -0.0362
-9 -6 4 -1.0510 -0.0104
-9 -6 5 0.7077 0.0590
-9 -6 6 0.0683 -0.0507
-9 -6 7 -1.2020 -0.0280
-9 -6 8 2.3893 0.1241
-9 -6 9 -3.2236 -0.1621
-9 -6 10 3.4462 0.1110
-9 -6 11 -3.0919 -0.0043
-9 -6 12 2.4055 -0.0997
-9 -6 13 -1.6333 0.1729
-9 -6 14 0.8948 -0.2350
-9 -6 15 -0.2191 0.3218
-9 -6 16 -0.3440 -0.4343
-9 -5 1 -2.0865 0.0627
-9 -5 2 2.7303 -0.0757
-9 -5 3 -2.5962 0.0736
-9 -5 4 1.8034 -0.0378
-9 -5 5 -0.7104 -0.0166
-9 -5 6 -0.2637 0.0492
-9 -5 7 0.7913 -0.0419
-9 -5 8 -0.7449 0.0270
-9 -5 9 0.2543 -0.0599
-9 -5 10 0.3413 0.1573
-9 -5 11 -0.6667 -0.2592
-9 -5 12 0.5257 0.2601
-9 -5 13 -0.0047 -0.0961
-9 -5 14 -0.6085 -0.1778
-9 -5 15 1.0177 0.3964
-9 -5 16 -1.0784 -0.3921
-9 -4 1 1.7638 -0.1508
-9 -4 2 -1.1310 0.0698
-9 -4 3 0.3510 0.0109
-9 -4 4 0.5045 -0.0815
-9 -4 5 -1.3006 0.1261
-9 -4 6 1.8273 -0.1220
-9 -4 7 -1.8568 0.0547
-9 -4 8 1.2915 0.0643
-9 -4 9 -0.2779 -0.1879
-9 -4 10 -0.8533 0.2484
-9 -4 11 1.7927 -0.1955
-9 -4 12 -2.4076 0.0371
-9 -4 13 2.7093 0.1490
-9 -4 14 -2.7073 -0.2489
-9 -4 15 2.3511 0.1723
-9 -4 16 -1.6362 0.0939
-9 -3 1 0.0780 0.0712
-9 -3 2 -1.2169 0.0270
-9 -3 3 2.3308 -0.1021
-9 -3 4 -3.1223 0.0951
-9 -3 5 3.4445 0.0102
-9 -3 6 -3.2156 -0.1561
-9 -3 7 2.4270 0.2353
-9 -3 8 -1.2688 -0.1646
-9 -3 9 0.1719 -0.0452
-9 -3 10 0.3956 0.2807
-9 -3 11 -0.2515 -0.3972
-9 -3 12 -0.3586 0.3266
-9 -3 13 0.9484 -0.1382
-9 -3 14 -1.1417 -0.0065
-9 -3 15 0.8883 -0.0224
-9 -3 16 -0.4072 0.2211
-9 -3 17 -0.0265 -0.4603
-9 -2 1 -3.0847 0.0209
-9 -2 2 3.1165 0.0279
-9 -2 3 -2.4973 -0.0421
-9 -2 4 1.5310 -0.0033
-9 -2 5 -0.6103 0.0694
-9 -2 6 -0.0581 -0.0878
-9 -2 7 0.4996 0.0298
-9 -2 8 -0.8179 0.0552
-9 -2 9 1.0484 -0.0769
-9 -2 10 -1.1386 -0.0101
-9 -2 11 1.0028 0.1520
-9 -2 12 -0.5721 -0.2288
-9 -2 13 -0.1563 0.1481
-9 -2 14 1.0471 0.0829
-9 -2 15 -1.8013 -0.3600
-9 -2 16 2.0789 0.5468
-9 -2 17 -1.7370 -0.5481
-9 -1 1 -0.5486 -0.1325
-9 -1 2 0.5922 0.1380
-9 -1 3 -1.2692 -0.1166
-9 -1 4 2.2825 0.0702
-9 -1 5 -3.3464 -0.0077
-9 -1 6 4.2275 -0.0530
-9 -1 7 -4.6784 0.0884
-9 -1 8 4.4778 -0.0906
-9 -1 9 -3.6140 0.0879
-9 -1 10 2.3941 -0.1267
-9 -1 11 -1.2897 0.2126
-9 -1 12 0.6223 -0.2678
-9 -1 13 -0.3845 0.1760
-9 -1 14 0.3495 0.1053
-9 -1 15 -0.3183 -0.4686
-9 -1 16 0.2479 0.7087
-9 -1 17 -0.1860 -0.6717
-9 0 1 -0.2879 -0.0227
-9 0 2 -0.3437 0.0058
-9 0 3 0.7570 0.0774
-9 0 4 -0.7101 -0.1502
-9 0 5 0.3147 0.1260
-9 0 6 0.1465 -0.0042
-9 0 7 -0.4793 -0.1085
-9 0 8 0.6678 0.0961
-9 0 9 -0.7868 0.0435
-9 0 10 0.8968 -0.1846
-9 0 11 -1.0144 0.1952
-9 0 12 1.1137 -0.0739
-9 0 13 -1.1153 -0.0392
-9 0 14 0.9116 -0.0121
-9 0 15 -0.4701 0.2635
-9 0 16 -0.0720 -0.6028
-9 0 17 0.4615 0.8568
-9 1 1 2.4231 0.0606
-9 1 2 -1.3967 -0.0088
-9 1 3 0.7429 -0.0579
-9 1 4 -0.4962 0.0839
-9 1 5 0.5623 -0.0431
-9 1 6 -0.8613 -0.0247
-9 1 7 1.3245 0.0511
-9 1 8 -1.8076 -0.0155
-9 1 9 2.1064 -0.0321
-9 1 10 -2.1016 0.0310
-9 1 11 1.8628 0.0232
-9 1 12 -1.5702 -0.0904
-9 1 13 1.3378 0.1578
-9 1 14 -1.1379 -0.2673
-9 1 15 0.8939 0.4478
-9 1 16 -0.6042 -0.6336
-9 1 17 0.3455 0.6827
-9 2 1 0.1752 -0.1330
-9 2 2 -0.5406 0.1175
-9 2 3 0.5796 -0.1020
-9 2 4 -0.5111 0.1305
-9 2 5 0.5285 -0.1634
-9 2 6 -0.6806 0.1168
-9 2 7 0.9142 0.0180
-9 2 8 -1.1598 -0.1249
-9 2 9 1.3586 0.0684
-9 2 10 -1.4561 0.1474
-9 2 11 1.4250 -0.3497
-9 2 12 -1.2963 0.3515
-9 2 13 1.1247 -0.1329
-9 2 14 -0.9116 -0.1408
-9 2 15 0.5974 0.2768
-9 2 16 -0.1665 -0.2194
-9 3 1 -3.6207 -0.0562
-9 3 2 3.1519 0.1095
-9 3 3 -2.3467 -0.1304
-9 3 4 1.4193 0.0854
-9 3 5 -0.5339 -0.0172
-9 3 6 -0.1612 -0.0102
-9 3 7 0.5276 -0.0059
-9 3 8 -0.5129 0.0075
-9 3 9 0.2179 0.0414
-9 3 10 0.1587 -0.1035
-9 3 11 -0.4649 0.1175
-9 3 12 0.6751 -0.0823
-9 3 13 -0.8309 0.0602
-9 3 14 0.9354 -0.0902
-9 3 15 -0.9389 0.1260
-9 3 16 0.8153 -0.0878
-9 4 1 -0.1443 0.0907
-9 4 2 0.2484 -0.0412
-9 4 3 -0.1612 -0.0439
-9 4 4 -0.0640 0.0949
-9 4 5 0.2952 -0.0584
-9 4 6 -0.4211 -0.0285
-9 4 7 0.3953 0.0680
-9 4 8 -0.2212 -0.0171
-9 4 9 -0.0661 -0.0493
-9 4 10 0.4074 0.0191
-9 4 11 -0.7444 0.1222
-9 4 12 1.0592 -0.2682
-9 4 13 -1.3661 0.3185
-9 4 14 1.6347 -0.3033
-9 4 15 -1.7371 0.3494
-9 5 1 1.1029 0.0476
-9 5 2 -1.4799 0.0075
-9 5 3 1.6118 -0.0188
-9 5 4 -1.6324 0.0048
-9 5 5 1.5814 0.0171
-9 5 6 -1.4026 -0.0606
-9 5 7 1.0422 0.1261
-9 5 8 -0.5298 -0.1566
-9 5 9 -0.0290 0.0832
-9 5 10 0.5073 0.0753
-9 5 11 -0.7919 -0.1945
-9 5 12 0.8033 0.1626
-9 5 13 -0.5373 -0.0158
-9 5 14 0.1095 -0.0750
-9 5 15 0.2755 -0.0286
-9 6 1 -0.2938 0.1280
-9 6 2 -0.0644 -0.1230
-9 6 3 0.4735 0.0898
-9 6 4 -0.7087 -0.0451
-9 6 5 0.6567 -0.0164
-9 6 6 -0.3903 0.0863
-9 6 7 0.1141 -0.1041
-9 6 8 -0.0244 -0.0009
-9 6 9 0.1744 0.2111
-9 6 10 -0.4380 -0.3911
-9 6 11 0.6049 0.3950
-9 6 12 -0.5491 -0.2133
-9 6 13 0.3325 -0.0072
-9 6 14 -0.1403 0.1053
-9 7 1 1.5507 0.1367
-9 7 2 -1.3630 -0.0898
-9 7 3 1.1654 0.0370
-9 7 4 -0.9553 -0.0144
-9 7 5 0.7037 0.0434
-9 7 6 -0.3999 -0.0820
-9 7 7 0.0738 0.0515
-9 7 8 0.2078 0.0651
-9 7 9 -0.3589 -0.1716
-9 7 10 0.3054 0.1420
-9 7 11 -0.0408 0.0338
-9 7 12 -0.3288 -0.2100
-9 7 13 0.6142 0.2189
-9 8 1 0.4471 0.0874
-9 8 2 -0.5853 -0.0499
-9 8 3 0.6646 -0.0208
-9 8 4 -0.6104 0.0912
-9 8 5 0.4721 -0.0985
-9 8 6 -0.3391 -0.0209
-9 8 7 0.2442 0.2500
-9 8 8 -0.1457 -0.4468
-9 8 9 -0.0113 0.4296
-9 8 10 0.2206 -0.1431
-9 8 11 -0.3994 -0.2599
-9 9 1 -0.5335 0.0516
-9 9 2 0.5469 0.0149
-9 9 3 -0.4465 0.0307
-9 9 4 0.2825 -0.1834
-9 9 5 -0.1492 0.3319
-9 9 6 0.1063 -0.3569
-9 9 7 -0.1338 0.2509
-9 9 8 0.1566 -0.1276
-9 9 9 -0.1124 0.1046
-9 10 1 -0.0762 0.1618
-9 10 2 0.0660 -0.1966
-9 10 3 -0.2437 0.1839
-9 10 4 0.4920 -0.1691
-9 10 5 -0.6704 0.2149
-9 10 6 0.6912 -0.3146
-9 10 7 -0.5390 0.3776
-9 11 1 -0.2092 -0.0099
-8 -15 1 -0.3163 0.1999
-8 -15 2 0.2162 -0.1426
-8 -15 3 0.2525 0.2188
-8 -14 1 -0.0124 0.2131
-8 -14 2 0.2348 -0.1842
-8 -14 3 -0.5767 0.2545
-8 -14 4 0.8126 -0.3991
-8 -14 6 0.4698 -0.3742
-8 -13 1 -1.5177 0.0734
-8 -13 2 0.6630 -0.0799
-8 -13 3 -0.0012 0.1080
-8 -13 4 -0.1836 -0.1422
-8 -13 5 -0.0493 0.1663
-8 -13 6 0.4250 -0.1570
-8 -13 7 -0.7126 0.1309
-8 -13 8 0.8599 -0.1701
-8 -13 9 -0.9257 0.3405
-8 -12 1 0.2683 0.2172
-8 -12 2 0.2757 -0.2417
-8 -12 3 -0.4062 0.2252
-8 -12 4 0.1215 -0.1231
-8 -12 5 0.3895 -0.0170
-8 -12 6 -0.8818 0.0826
-8 -12 7 1.1639 -0.0049
-8 -12 8 -1.1325 -0.1883
-8 -12 9 0.7775 0.4319
-8 -12 10 -0.1885 -0.6898
-8 -12 11 -0.4602 0.9265
-8 -11 1 3.1543 0.1081
-8 -11 2 -2.6866 -0.0352
-8 -11 3 1.8944 -0.0226
-8 -11 4 -1.1186 0.0503
-8 -11 5 0.5663 -0.0700
-8 -11 6 -0.2462 0.0720
-8 -11 7 0.0744 0.0022
-8 -11 8 0.0042 -0.1702
-8 -11 9 0.0008 0.3265
-8 -11 10 -0.0738 -0.3058
-8 -11 11 0.1659 0.0545
-8 -11 12 -0.2204 0.2862
-8 -10 1 -2.9132 -0.1738
-8 -10 2 2.0175 0.1172
-8 -10 3 -0.9069 -0.0559
-8 -10 4 -0.0909 -0.0124
-8 -10 5 0.7749 0.1026
-8 -10 6 -1.0622 -0.1980
-8 -10 7 0.9534 0.2620
-8 -10 8 -0.5475 -0.2847
-8 -10 9 0.0528 0.2826
-8 -10 10 0.2788 -0.2439
-8 -10 11 -0.2761 0.1143
-8 -10 12 -0.0684 0.1207
-8 -10 13 0.6071 -0.3493
-8 -9 1 -2.6883 -0.0639
-8 -9 2 3.4215 0.0332
-8 -9 3 -3.7535 -0.0038
-8 -9 4 3.7685 0.0111
-8 -9 5 -3.5605 -0.0352
-8 -9 6 3.1424 0.0192
-8 -9 7 -2.5018 0.0494
-8 -9 8 1.7129 -0.1035
-8 -9 9 -0.9510 0.0675
-8 -9 10 0.3912 0.0452
-8 -9 11 -0.1088 -0.1333
-8 -9 12 0.0767 0.1083
-8 -9 13 -0.2201 0.0276
-8 -9 14 0.4461 -0.2112
-8 -8 1 1.0241 0.0331
-8 -8 2 -1.6159 -0.0572
-8 -8 3 1.7882 0.0431
-8 -8 4 -1.7334 -0.0117
-8 -8 5 1.5475 -0.0152
-8 -8 6 -1.2209 0.0141
-8 -8 7 0.7787 0.0414
-8 -8 8 -0.3611 -0.1493
-8 -8 9 0.1381 0.2494
-8 -8 10 -0.1636 -0.2572
-8 -8 11 0.3359 0.1503
-8 -8 12 -0.4912 -0.0134
-8 -8 13 0.5151 -0.0271
-8 -8 14 -0.3816 -0.0832
-8 -8 15 0.1346 0.2815
-8 -7 1 -0.3882 0.1526
-8 -7 2 -0.3233 -0.1926
-8 -7 3 1.4851 0.1428
-8 -7 4 -2.7311 -0.0514
-8 -7 5 3.7380 0.0047
-8 -7 6 -4.3128 -0.0449
-8 -7 7 4.3905 0.1297
-8 -7 8 -4.0243 -0.1763
-8 -7 9 3.3757 0.1362
-8 -7 10 -2.6535 -0.0299
-8 -7 11 2.0096 -0.0758
-8 -7 12 -1.4797 0.1077
-8 -7 13 1.0301 -0.0199
-8 -7 14 -0.6505 -0.1779
-8 -7 15 0.3854 0.4078
-8 -7 16 -0.2774 -0.5581
-8 -6 1 3.3184 -0.0252
-8 -6 2 -2.4626 0.0732
-8 -6 3 1.1845 -0.0931
-8 -6 4 0.1590 0.0588
-8 -6 5 -1.1535 0.0206
-8 -6 6 1.4579 -0.1089
-8 -6 7 -0.9928 0.1601
-8 -6 8 0.0558 -0.1416
-8 -6 9 0.7971 0.0625
-8 -6 10 -1.0856 0.0205
-8 -6 11 0.7115 -0.0385
-8 -6 12 0.0184 -0.0328
-8 -6 13 -0.6593 0.1526
-8 -6 14 0.9414 -0.2512
-8 -6 15 -0.8798 0.2806
-8 -6 16 0.6545 -0.2305
-8 -6 17 -0.4256 0.1130
-8 -5 1 -0.4925 0.0405
-8 -5 2 -0.4096 0.0228
-8 -5 3 0.9649 -0.0910
-8 -5 4 -1.1277 0.1183
-8 -5 5 0.9187 -0.0926
-8 -5 6 -0.3094 0.0400
-8 -5 7 -0.7117 0.0061
-8 -5 8 1.9793 -0.0319
-8 -5 9 -3.1312 0.0383
-8 -5 10 3.8037 -0.0258
-8 -5 11 -3.8652 -0.0063
-8 -5 12 3.4575 0.0438
-8 -5 13 -2.8295 -0.0479
-8 -5 14 2.1478 -0.0357
-8 -5 15 -1.4587 0.2497
-8 -5 16 0.7846 -0.5834
-8 -5 17 -0.2062 0.9409
-8 -4 1 -1.1383 -0.0327
-8 -4 2 2.2320 -0.0570
-8 -4 3 -2.5651 0.0978
-8 -4 4 2.1059 -0.0581
-8 -4 5 -1.1302 -0.0364
-8 -4 6 0.0518 0.1168
-8 -4 7 0.7282 -0.1238
-8 -4 8 -0.9438 0.0566
-8 -4 9 0.5750 0.0204
-8 -4 10 0.1227 -0.0235
-8 -4 11 -0.7533 -0.0773
-8 -4 12 1.0229 0.2147
-8 -4 13 -0.9004 -0.2634
-8 -4 14 0.5670 0.1477
-8 -4 15 -0.2282 0.0727
-8 -4 16 -0.0205 -0.2316
-8 -4 17 0.1789 0.1888
-8 -4 18 -0.2528 0.0538
-8 -3 1 3.1795 -0.0289
-8 -3 2 -2.2283 0.0567
-8 -3 3 1.1089 -0.0772
-8 -3 4 -0.0572 0.0675
-8 -3 5 -0.8146 -0.0079
-8 -3 6 1.4246 -0.0901
-8 -3 7 -1.6095 0.1669
-8 -3 8 1.2011 -0.1423
-8 -3 9 -0.2394 -0.0157
-8 -3 10 -0.9508 0.2420
-8 -3 11 1.9539 -0.4017
-8 -3 12 -2.5461 0.3830
-8 -3 13 2.7731 -0.1803
-8 -3 14 -2.7710 -0.0954
-8 -3 15 2.5674 0.2780
-8 -3 16 -2.0960 -0.2370
-8 -3 17 1.3788 -0.0478
-8 -3 18 -0.6242 0.4577
-8 -2 1 1.3103 0.2355
-8 -2 2 -2.4726 -0.1633
-8 -2 3 3.5488 0.0407
-8 -2 4 -4.2437 0.0554
-8 -2 5 4.5285 -0.0671
-8 -2 6 -4.4332 -0.0078
-8 -2 7 3.8946 0.1144
-8 -2 8 -2.8668 -0.1695
-8 -2 9 1.5298 0.1116
-8 -2 10 -0.2962 0.0490
-8 -2 11 -0.4358 -0.2237
-8 -2 12 0.5406 0.3085
-8 -2 13 -0.1936 -0.2764
-8 -2 14 -0.3067 0.2096
-8 -2 15 0.7178 -0.2260
-8 -2 16 -0.9071 0.3634
-8 -2 17 0.8335 -0.5383
-8 -2 18 -0.5468 0.6182
-8 -1 1 -1.3574 0.0901
-8 -1 2 1.9355 -0.0556
-8 -1 3 -1.6862 0.0052
-8 -1 4 0.7729 -0.0047
-8 -1 5 0.3597 0.0740
-8 -1 6 -1.3064 -0.1524
-8 -1 7 1.8506 0.1529
-8 -1 8 -1.9307 -0.0542
-8 -1 9 1.5956 -0.0730
-8 -1 10 -1.0116 0.1394
-8 -1 11 0.4165 -0.1296
-8 -1 12 0.0350 0.1124
-8 -1 13 -0.3886 -0.1641
-8 -1 14 0.7969 0.2900
-8 -1 15 -1.2785 -0.4184
-8 -1 16 1.6099 0.4548
-8 -1 17 -1.5106 -0.3397
-8 -1 18 0.9504 0.0795
-8 0 1 0.0916 0.0306
-8 0 2 -0.1247 0.0192
-8 0 3 -0.5678 -0.0400
-8 0 4 1.6476 0.0356
-8 0 5 -2.8439 -0.0047
-8 0 6 4.0026 -0.0565
-8 0 7 -4.9213 0.1240
-8 0 8 5.2842 -0.1477
-8 0 9 -4.8582 0.1028
-8 0 10 3.7421 -0.0330
-8 0 11 -2.3597 0.0153
-8 0 12 1.1725 -0.0734
-8 0 13 -0.4000 0.1431
-8 0 14 -0.0053 -0.1423
-8 0 15 0.1810 0.0708
-8 0 16 -0.2149 -0.0240
-8 0 17 0.1563 0.1001
-8 0 18 -0.0789 -0.3006
-8 1 1 -0.8337 0.0731
-8 1 2 0.6926 0.0097
-8 1 3 -0.4976 -0.0265
-8 1 4 0.5361 -0.0282
-8 1 5 -0.8434 0.0750
-8 1 6 1.2620 -0.0462
-8 1 7 -1.6075 -0.0261
-8 1 8 1.7566 0.0427
-8 1 9 -1.6515 0.0419
-8 1 10 1.3181 -0.1555
-8 1 11 -0.8972 0.1783
-8 1 12 0.5813 -0.0716
-8 1 13 -0.4499 -0.0788
-8 1 14 0.3743 0.1404
-8 1 15 -0.1442 -0.0466
-8 1 16 -0.2848 -0.1626
-8 1 17 0.7005 0.3809
-8 1 18 -0.8284 -0.5034
-8 2 1 3.3392 0.0048
-8 2 2 -1.4485 -0.0676
-8 2 3 -0.0175 0.0696
-8 2 4 0.9082 -0.0327
-8 2 5 -1.2317 0.0043
-8 2 6 1.0104 0.0066
-8 2 7 -0.3106 -0.0296
-8 2 8 -0.6382 0.0704
-8 2 9 1.4661 -0.0799
-8 2 10 -1.8823 0.0097
-8 2 11 1.8714 0.1130
-8 2 12 -1.6459 -0.1980
-8 2 13 1.4124 0.1877
-8 2 14 -1.2097 -0.1204
-8 2 15 0.9668 0.0785
-8 2 16 -0.6583 -0.0834
-8 2 17 0.3567 0.0670
-8 2 18 -0.1472 0.0443
-8 3 1 -0.0701 0.0194
-8 3 2 -0.2250 -0.0937
-8 3 3 0.2876 0.1582
-8 3 4 -0.2185 -0.1215
-8 3 5 0.1769 -0.0087
-8 3 6 -0.2733 0.1087
-8 3 7 0.5422 -0.0637
-8 3 8 -0.9427 -0.1015
-8 3 9 1.3537 0.2377
-8 3 10 -1.6167 -0.2183
-8 3 11 1.6489 0.0556
-8 3 12 -1.5267 0.1324
-8 3 13 1.4135 -0.2457
-8 3 14 -1.3743 0.2730
-8 3 15 1.2882 -0.2517
-8 3 16 -0.9847 0.1959
-8 3 17 0.4685 -0.0870
-8 4 1 -4.3006 0.1323
-8 4 2 3.8628 -0.1265
-8 4 3 -3.0744 0.0936
-8 4 4 2.1067 -0.0796
-8 4 5 -1.0866 0.0881
-8 4 6 0.1743 -0.0896
-8 4 7 0.4344 0.0736
-8 4 8 -0.6286 -0.0604
-8 4 9 0.4906 0.0573
-8 4 10 -0.2401 -0.0337
-8 4 11 0.0526 -0.0360
-8 4 12 0.0553 0.1168
-8 4 13 -0.1616 -0.1313
-8 4 14 0.2958 0.0464
-8 4 15 -0.3965 0.0787
-8 4 16 0.3984 -0.1511
-8 4 17 -0.3151 0.1465
-8 5 1 -0.7079 0.1836
-8 5 2 0.8939 -0.1937
-8 5 3 -0.9042 0.1251
-8 5 4 0.7149 -0.0370
-8 5 5 -0.3769 0.0149
-8 5 6 -0.0112 -0.0712
-8 5 7 0.3217 0.1259
-8 5 8 -0.4310 -0.0974
-8 5 9 0.2876 -0.0028
-8 5 10 0.0372 0.0874
-8 5 11 -0.3983 -0.0941
-8 5 12 0.7048 0.0416
-8 5 13 -0.9869 0.0261
-8 5 14 1.3057 -0.1218
-8 5 15 -1.6027 0.3053
-8 5 16 1.6872 -0.5841
-8 6 1 0.4855 -0.0181
-8 6 2 -0.8705 0.0056
-8 6 3 0.9941 0.0107
-8 6 4 -1.0610 -0.0114
-8 6 5 1.1867 -0.0146
-8 6 6 -1.3436 0.0423
-8 6 7 1.4202 -0.0398
-8 6 8 -1.3091 0.0152
-8 6 9 0.9575 -0.0096
-8 6 10 -0.3939 0.0370
-8 6 11 -0.2506 -0.0571
-8 6 12 0.7638 0.0289
-8 6 13 -0.9586 0.0186
-8 6 14 0.8066 0.0031
-8 6 15 -0.4694 -0.1468
-8 7 1 0.2452 -0.1000
-8 7 2 -0.2287 0.0866
-8 7 3 0.2935 -0.0582
-8 7 4 -0.3885 0.0356
-8 7 5 0.4188 -0.0576
-8 7 6 -0.3294 0.1346
-8 7 7 0.1655 -0.2083
-8 7 8 -0.0510 0.1905
-8 7 9 0.0840 -0.0609
-8 7 10 -0.2308 -0.0855
-8 7 11 0.3313 0.1153
-8 7 12 -0.2430 0.0144
-8 7 13 -0.0048 -0.2127
-8 7 14 0.2159 0.3448
-8 8 1 1.2239 0.0344
-8 8 2 -1.0156 -0.0633
-8 8 3 0.8483 0.0437
-8 8 4 -0.7405 -0.0047
-8 8 5 0.6487 -0.0003
-8 8 6 -0.5099 -0.0404
-8 8 7 0.2830 0.0765
-8 8 8 0.0225 -0.0558
-8 8 9 -0.3299 -0.0094
-8 8 10 0.5111 0.0565
-8 8 11 -0.4569 -0.0546
-8 8 12 0.1709 0.0477
-8 8 13 0.2007 -0.0998
-8 9 1 0.2429 -0.0723
-8 9 2 -0.0118 -0.0011
-8 9 3 -0.1249 0.0260
-8 9 4 0.2072 0.0338
-8 9 5 -0.2355 -0.1363
-8 9 6 0.1999 0.1786
-8 9 7 -0.1391 -0.0923
-8 9 8 0.1447 -0.0740
-8 9 9 -0.2885 0.1836
-8 9 10 0.5342 -0.1386
-8 9 11 -0.7249 -0.0252
-8 9 12 0.6858 0.1725
-8 10 1 -0.5215 0.1136
-8 10 2 0.6280 -0.0080
-8 10 3 -0.5717 -0.0746
-8 10 4 0.3395 0.0744
-8 10 5 -0.0225 -0.0270
-8 10 6 -0.2401 0.0202
-8 10 7 0.3500 -0.0917
-8 10 8 -0.3069 0.1891
-8 10 9 0.1941 -0.2346
-8 10 10 -0.1078 0.2111
-8 11 1 -0.2366 -0.1041
-8 11 2 0.3072 0.0286
-8 11 3 -0.4389 -0.0367
-8 11 4 0.5691 0.1048
-8 11 5 -0.6535 -0.1416
-8 11 6 0.6793 0.0888
-8 11 7 -0.6340 0.0177
-8 12 1 -0.4882 -0.2777
-8 12 2 0.5913 0.2989
-7 -15 1 0.0062 0.2954
-7 -15 2 -0.0125 -0.3800
-7 -15 3 -0.1393 0.3391
-7 -15 4 0.4001 -0.2092
-7 -14 1 -0.4923 0.0064
-7 -14 2 0.6820 0.0019
-7 -14 3 -0.2670 0.0385
-7 -14 4 -0.5207 -0.0917
-7 -14 5 1.1435 0.1524
-7 -14 6 -1.2134 -0.2215
-7 -14 7 0.7853 0.2499
-7 -14 8 -0.2470 -0.1686
-7 -13 1 0.5551 -0.1460
-7 -13 2 -0.3361 0.1931
-7 -13 3 -0.1312 -0.1882
-7 -13 4 0.6394 0.0914
-7 -13 5 -0.9730 0.0243
-7 -13 6 1.0300 -0.0665
-7 -13 7 -0.8064 0.0240
-7 -13 8 0.3365 0.0439
-7 -13 9 0.2983 -0.0842
-7 -13 10 -0.9224 0.0779
-7 -12 1 -2.5776 -0.0672
-7 -12 2 1.6197 0.0506
-7 -12 3 -0.6875 -0.0324
-7 -12 4 0.1875 0.0117
-7 -12 5 -0.1654 0.0030
-7 -12 6 0.3617 0.0129
-7 -12 7 -0.5051 -0.0468
-7 -12 8 0.5306 0.0149
-7 -12 9 -0.5503 0.1542
-7 -12 10 0.6673 -0.3827
-7 -12 11 -0.8400 0.4379
-7 -12 12 0.9119 -0.1285
-7 -11 1 0.5607 -0.1620
-7 -11 2 0.0179 0.0700
-7 -11 3 -0.3645 0.0521
-7 -11 4 0.3884 -0.1161
-7 -11 5 -0.1131 0.0994
-7 -11 6 -0.3583 -0.0549
-7 -11 7 0.8618 0.0361
-7 -11 8 -1.1863 -0.0484
-7 -11 9 1.1418 0.0848
-7 -11 10 -0.6701 -0.1642
-7 -11 11 -0.1005 0.2854
-7 -11 12 0.9143 -0.3567
-7 -11 13 -1.5131 0.2379
-7 -10 1 5.6775 -0.0436
-7 -10 2 -5.2965 0.0192
-7 -10 3 4.1593 -0.0134
-7 -10 4 -2.7236 0.0299
-7 -10 5 1.4036 -0.0834
-7 -10 6 -0.3859 0.1478
-7 -10 7 -0.3236 -0.1459
-7 -10 8 0.7593 0.0344
-7 -10 9 -0.9323 0.1117
-7 -10 10 0.8644 -0.1411
-7 -10 11 -0.6309 -0.0232
-7 -10 12 0.3531 0.2962
-7 -10 13 -0.1528 -0.5106
-7 -10 14 0.1009 0.5715
-7 -9 1 -2.8562 -0.0440
-7 -9 2 2.5646 -0.0166
-7 -9 3 -1.7818 0.0491
-7 -9 4 0.7352 -0.0455
-7 -9 5 0.2986 0.0297
-7 -9 6 -1.0459 -0.0192
-7 -9 7 1.3079 0.0203
-7 -9 8 -1.0610 -0.0483
-7 -9 9 0.4966 0.1113
-7 -9 10 0.0737 -0.1608
-7 -9 11 -0.3858 0.0977
-7 -9 12 0.3264 0.1223
-7 -9 13 0.0759 -0.3869
-7 -9 14 -0.6939 0.4728
-7 -9 15 1.3154 -0.2331
-7 -8 2 4.2795 0.0279
-7 -8 3 -5.1568 -0.0070
-7 -8 4 5.5010 0.0080
-7 -8 5 -5.3284 -0.0329
-7 -8 6 4.6271 0.0355
-7 -8 7 -3.4244 0.0127
-7 -8 8 1.9242 -0.0727
-7 -8 9 -0.5089 0.0732
-7 -8 10 -0.4491 0.0115
-7 -8 11 0.7956 -0.1399
-7 -8 12 -0.6383 0.2529
-7 -8 13 0.2212 -0.3169
-7 -8 14 0.2229 0.3064
-7 -8 15 -0.5411 -0.1793
-7 -8 16 0.6685 -0.0898
-7 -7 1 -0.6573 -0.0000
-7 -7 2 -0.6864 0.0229
-7 -7 3 1.4052 -0.0934
-7 -7 4 -1.4966 0.1821
-7 -7 5 1.1112 -0.2469
-7 -7 6 -0.4346 0.2494
-7 -7 7 -0.3232 -0.1662
-7 -7 8 0.9242 0.0173
-7 -7 9 -1.1820 0.1195
-7 -7 10 1.0678 -0.1531
-7 -7 11 -0.7170 0.0622
-7 -7 12 0.3216 0.0706
-7 -7 13 -0.0254 -0.1258
-7 -7 14 -0.0946 0.0490
-7 -7 15 0.0031 0.1166
-7 -7 16 0.2793 -0.2885
-7 -7 17 -0.6349 0.4105
-7 -6 1 -1.1452 -0.1378
-7 -6 2 0.9932 0.0070
-7 -6 3 -0.0700 0.0569
-7 -6 4 -1.3980 -0.0302
-7 -6 5 3.0254 -0.0349
-7 -6 6 -4.3710 0.0675
-7 -6 7 5.0495 -0.0375
-7 -6 8 -4.8821 -0.0339
-7 -6 9 4.0140 0.0995
-7 -6 10 -2.8625 -0.1117
-7 -6 11 1.8756 0.0464
-7 -6 12 -1.2784 0.0722
-7 -6 13 1.0111 -0.1698
-7 -6 14 -0.8768 0.1706
-7 -6 15 0.7318 -0.0644
-7 -6 16 -0.5532 -0.0794
-7 -6 17 0.3795 0.1757
-7 -6 18 -0.2326 -0.1967
-7 -5 1 4.0898 0.0983
-7 -5 2 -3.5528 -0.0022
-7 -5 3 2.2468 -0.0794
-7 -5 4 -0.6086 0.1076
-7 -5 5 -0.8608 -0.0764
-7 -5 6 1.6805 0.0111
-7 -5 7 -1.5510 0.0426
-7 -5 8 0.5541 -0.0441
-7 -5 9 0.8067 -0.0057
-7 -5 10 -1.8602 0.0531
-7 -5 11 2.1729 -0.0331
-7 -5 12 -1.7812 -0.0695
-7 -5 13 1.0693 0.2066
-7 -5 14 -0.4351 -0.3145
-7 -5 15 0.0482 0.3644
-7 -5 16 0.1420 -0.3596
-7 -5 17 -0.2469 0.3018
-7 -5 18 0.3206 -0.1868
-7 -4 1 -2.3201 0.0831
-7 -4 2 1.0548 -0.0900
-7 -4 3 -0.1480 0.0408
-7 -4 4 -0.2831 0.0358
-7 -4 5 0.3235 -0.1048
-7 -4 6 -0.0268 0.1384
-7 -4 7 -0.6483 -0.1155
-7 -4 8 1.6728 0.0340
-7 -4 9 -2.7981 0.0729
-7 -4 10 3.6423 -0.1464
-7 -4 11 -3.9397 0.1429
-7 -4 12 3.6964 -0.0677
-7 -4 13 -3.1189 -0.0269
-7 -4 14 2.4310 0.0687
-7 -4 15 -1.7713 0.0085
-7 -4 16 1.2191 -0.2371
-7 -4 17 -0.8396 0.5744
-7 -4 18 0.6600 -0.8818
-7 -4 19 -0.6169 0.9845
-7 -3 1 -2.9351 -0.1580
-7 -3 2 3.9202 0.0377
-7 -3 3 -4.0353 0.0768
-7 -3 4 3.3189 -0.1178
-7 -3 5 -2.0858 0.0657
-7 -3 6 0.7271 0.0439
-7 -3 7 0.3963 -0.1417
-7 -3 8 -1.0018 0.1644
-7 -3 9 0.9741 -0.0997
-7 -3 10 -0.4524 0.0062
-7 -3 11 -0.2324 0.0281
-7 -3 12 0.7840 0.0290
-7 -3 13 -1.1318 -0.1106
-7 -3 14 1.3919 0.1105
-7 -3 15 -1.6527 0.0021
-7 -3 16 1.8331 -0.1367
-7 -3 17 -1.7714 0.1617
-7 -3 18 1.4271 -0.0271
-7 -3 19 -0.9553 -0.1961
-7 -2 1 2.8747 0.1742
-7 -2 2 -2.4617 -0.1098
-7 -2 3 1.6664 0.0099
-7 -2 4 -0.8528 0.1006
-7 -2 5 0.1780 -0.1659
-7 -2 6 0.3571 0.1339
-7 -2 7 -0.6689 -0.0174
-7 -2 8 0.5380 -0.0924
-7 -2 9 0.1540 0.0954
-7 -2 10 -1.1933 0.0252
-7 -2 11 2.1214 -0.1863
-7 -2 12 -2.5774 0.2769
-7 -2 13 2.5333 -0.2454
-7 -2 14 -2.2005 0.1271
-7 -2 15 1.7650 -0.0103
-7 -2 16 -1.2684 -0.0137
-7 -2 17 0.7197 -0.1029
-7 -2 18 -0.2349 0.3232
-7 -2 19 -0.0110 -0.5189
-7 -1 2 -2.2379 -0.0742
-7 -1 3 4.0060 0.0536
-7 -1 4 -5.1416 -0.0008
-7 -1 5 5.5704 -0.0566
-7 -1 6 -5.4596 0.0903
-7 -1 7 4.9203 -0.0745
-7 -1 8 -3.9588 0.0098
-7 -1 9 2.6473 0.0604
-7 -1 10 -1.2295 -0.0813
-7 -1 11 0.0169 0.0428
-7 -1 12 0.7827 0.0109
-7 -1 13 -1.1109 -0.0428
-7 -1 14 0.9917 0.0818
-7 -1 15 -0.5051 -0.1914
-7 -1 16 -0.1592 0.3752
-7 -1 17 0.7013 -0.5335
-7 -1 18 -0.8635 0.5345
-7 -1 19 0.6262 -0.3317
-7 0 1 0.0167 0.0420
-7 0 2 0.4302 -0.0759
-7 0 3 -0.4670 0.0481
-7 0 4 0.0303 0.0037
-7 0 5 0.6984 -0.0174
-7 0 6 -1.5007 -0.0143
-7 0 7 2.1744 0.0411
-7 0 8 -2.4772 -0.0275
-7 0 9 2.1895 0.0010
-7 0 10 -1.3246 -0.0090
-7 0 11 0.2288 0.0445
-7 0 12 0.6328 -0.0405
-7 0 13 -1.0361 -0.0547
-7 0 14 1.1239 0.2128
-7 0 15 -1.1656 -0.3418
-7 0 16 1.2313 0.3552
-7 0 17 -1.1495 -0.2190
-7 0 18 0.7733 -0.0450
-7 0 19 -0.2216 0.3670
-7 1 1 0.9863 0.1280
-7 1 2 -2.0245 -0.0653
-7 1 3 1.9732 0.0277
-7 1 4 -1.1293 -0.0008
-7 1 5 -0.1894 -0.0193
-7 1 6 1.7693 0.0117
-7 1 7 -3.3584 0.0271
-7 1 8 4.5494 -0.0559
-7 1 9 -4.9363 0.0291
-7 1 10 4.4107 0.0385
-7 1 11 -3.2623 -0.0761
-7 1 12 1.9652 0.0339
-7 1 13 -0.8754 0.0603
-7 1 14 0.1193 -0.1411
-7 1 15 0.3132 0.1894
-7 1 16 -0.4632 -0.2520
-7 1 17 0.4038 0.3715
-7 1 18 -0.2694 -0.5160
-7 1 19 0.1975 0.5952
-7 2 1 -0.2513 0.0184
-7 2 2 0.1069 0.0766
-7 2 3 -0.0081 -0.1481
-7 2 4 0.0706 0.1320
-7 2 5 -0.2820 -0.0615
-7 2 6 0.5823 0.0149
-7 2 7 -0.9355 -0.0167
-7 2 8 1.2791 0.0174
-7 2 9 -1.4582 0.0298
-7 2 10 1.3115 -0.1014
-7 2 11 -0.8586 0.1300
-7 2 12 0.3457 -0.0844
-7 2 13 -0.0327 0.0009
-7 2 14 -0.0684 0.0618
-7 2 15 0.1937 -0.0775
-7 2 16 -0.5404 0.0566
-7 2 17 1.0116 -0.0201
-7 2 18 -1.2882 -0.0092
-7 2 19 1.1527 -0.0008
-7 3 1 4.8248 -0.1404
-7 3 2 -2.5393 0.0778
-7 3 3 0.5525 -0.0255
-7 3 4 0.9131 -0.0041
-7 3 5 -1.8121 0.0294
-7 3 6 2.0905 -0.0499
-7 3 7 -1.6977 0.0346
-7 3 8 0.7610 0.0263
-7 3 9 0.3494 -0.0870
-7 3 10 -1.2110 0.0884
-7 3 11 1.6209 -0.0317
-7 3 12 -1.6655 -0.0174
-7 3 13 1.5444 0.0034
-7 3 14 -1.3698 0.0592
-7 3 15 1.1408 -0.1185
-7 3 16 -0.8506 0.1629
-7 3 17 0.5519 -0.2378
-7 3 18 -0.3113 0.3740
-7 3 19 0.1478 -0.5187
-7 4 1 0.6919 -0.0688
-7 4 2 -0.5717 -0.0134
-7 4 3 0.3491 0.1376
-7 4 4 -0.0521 -0.1940
-7 4 5 -0.2370 0.1159
-7 4 6 0.3900 0.0396
-7 4 7 -0.2663 -0.1409
-7 4 8 -0.1927 0.1049
-7 4 9 0.8597 0.0396
-7 4 10 -1.4461 -0.1969
-7 4 11 1.7026 0.2859
-7 4 12 -1.6291 -0.2734
-7 4 13 1.4596 0.1598
-7 4 14 -1.4104 0.0281
-7 4 15 1.4536 -0.2273
-7 4 16 -1.3667 0.3501
-7 4 17 1.0007 -0.3341
-7 4 18 -0.4646 0.1863
-7 5 1 -4.0595 0.0681
-7 5 2 3.6600 -0.0725
-7 5 3 -3.0306 0.0625
-7 5 4 2.3595 -0.0577
-7 5 5 -1.6840 0.0593
-7 5 6 1.0216 -0.0516
-7 5 7 -0.4625 0.0321
-7 5 8 0.1054 -0.0175
-7 5 9 0.0628 0.0144
-7 5 10 -0.1695 -0.0049
-7 5 11 0.3199 -0.0221
-7 5 12 -0.4888 0.0399
-7 5 13 0.5720 -0.0105
-7 5 14 -0.5251 -0.0548
-7 5 15 0.4151 0.0853
-7 5 16 -0.3341 -0.0247
-7 5 17 0.3012 -0.0900
-7 6 1 -0.7437 0.0344
-7 6 2 0.8968 -0.0792
-7 6 3 -1.0429 0.0744
-7 6 4 1.1416 -0.0267
-7 6 5 -1.1170 -0.0063
-7 6 6 0.9198 -0.0160
-7 6 7 -0.5995 0.0694
-7 6 8 0.3057 -0.0953
-7 6 9 -0.1828 0.0666
-7 6 10 0.2477 -0.0057
-7 6 11 -0.3879 -0.0538
-7 6 12 0.4984 0.1009
-7 6 13 -0.6011 -0.1319
-7 6 14 0.7922 0.1228
-7 6 15 -1.0719 -0.0437
-7 6 16 1.2709 -0.0974
-7 6 17 -1.1898 0.2393
-7 7 1 0.0476 -0.0326
-7 7 2 -0.5289 0.0308
-7 7 3 0.6797 -0.0155
-7 7 4 -0.6785 -0.0007
-7 7 5 0.6953 0.0024
-7 7 6 -0.8020 0.0085
-7 7 7 0.9653 -0.0165
-7 7 8 -1.0790 0.0108
-7 7 9 1.0093 0.0130
-7 7 10 -0.6651 -0.0641
-7 7 11 0.0862 0.1461
-7 7 12 0.5302 -0.2262
-7 7 13 -0.9326 0.2307
-7 7 14 0.9917 -0.1017
-7 7 15 -0.7875 -0.1325
-7 7 16 0.5186 0.3555
-7 8 1 1.0970 -0.0760
-7 8 2 -1.0673 0.1583
-7 8 3 0.8890 -0.1624
-7 8 4 -0.6529 0.0832
-7 8 5 0.4127 0.0188
-7 8 6 -0.1892 -0.0677
-7 8 7 0.0141 0.0456
-7 8 8 0.0509 -0.0043
-7 8 9 0.0328 -0.0004
-7 8 10 -0.1954 -0.0277
-7 8 11 0.2539 0.0337
-7 8 12 -0.0495 0.0244
-7 8 13 -0.3773 -0.1373
-7 8 14 0.7644 0.2655
-7 8 15 -0.8301 -0.3773
-7 9 1 1.1284 -0.1013
-7 9 2 -0.9618 0.0840
-7 9 3 0.7331 -0.0416
-7 9 4 -0.4861 -0.0042
-7 9 5 0.2491 0.0440
-7 9 6 -0.0411 -0.0732
-7 9 7 -0.1277 0.0837
-7 9 8 0.2584 -0.0761
-7 9 9 -0.3512 0.0687
-7 9 10 0.3878 -0.0759
-7 9 11 -0.3394 0.0760
-7 9 12 0.2071 -0.0224
-7 9 13 -0.0481 -0.1017
-7 10 1 0.4313 -0.0056
-7 10 2 -0.1336 0.0048
-7 10 3 -0.2551 0.0417
-7 10 4 0.6514 -0.0442
-7 10 5 -0.9133 -0.0321
-7 10 6 0.9289 0.1298
-7 10 7 -0.7261 -0.1603
-7 10 8 0.4902 0.0947
-7 10 9 -0.4464 0.0137
-7 10 10 0.6789 -0.0923
-7 10 11 -1.0339 0.1164
-7 10 12 1.2106 -0.1083
-7 11 1 0.0204 0.2754
-7 11 2 0.1467 -0.2521
-7 11 3 -0.2739 0.1361
-7 11 4 0.2685 0.0087
-7 11 5 -0.0991 -0.1373
-7 11 6 -0.1719 0.2401
-7 11 7 0.4144 -0.3070
-7 11 8 -0.5041 0.3104
-7 11 9 0.3997 -0.2412
-7 11 10 -0.1642 0.1456
-7 12 1 -0.0598 0.0942
-7 12 2 0.2124 -0.2450
-7 12 3 -0.3829 0.3010
-7 12 4 0.4473 -0.1959
-7 12 5 -0.3852 -0.0346
-7 12 6 0.2840 0.3100
-7 12 7 -0.2393 -0.5697
-7 13 1 -0.1826 0.1765
-7 13 2 0.4384 -0.0522
-6 -16 1 -0.2079 -0.3286
-6 -15 1 0.2552 0.0518
-6 -15 2 0.0130 0.1852
-6 -15 3 -0.4923 -0.4260
-6 -15 4 0.8496 0.5235
-6 -15 5 -0.8262 -0.4677
-6 -15 6 0.4654 0.3387
-6 -14 1 0.0787 0.0033
-6 -14 2 -0.2991 -0.0860
-6 -14 3 0.2862 0.1644
-6 -14 4 0.0275 -0.2208
-6 -14 5 -0.4362 0.2139
-6 -14 6 0.6520 -0.0802
-6 -14 7 -0.5873 -0.1792
-6 -14 8 0.4143 0.4300
-6 -14 9 -0.3510 -0.4780
-6 -13 1 -0.4139 0.0285
-6 -13 2 0.9229 -0.1022
-6 -13 3 -0.8545 0.1742
-6 -13 4 0.1823 -0.1546
-6 -13 5 0.6816 0.0485
-6 -13 6 -1.2371 0.0625
-6 -13 7 1.2688 -0.1211
-6 -13 8 -0.9290 0.1348
-6 -13 9 0.5329 -0.1066
-6 -13 10 -0.2964 -0.0177
-6 -13 11 0.2256 0.2780
-6 -12 1 0.7406 -0.1150
-6 -12 2 -0.6052 0.1786
-6 -12 3 0.2483 -0.2089
-6 -12 4 0.1751 0.1702
-6 -12 5 -0.5368 -0.0932
-6 -12 6 0.7981 0.0242
-6 -12 7 -0.9228 0.0308
-6 -12 8 0.7955 -0.0844
-6 -12 9 -0.2948 0.1223
-6 -12 10 -0.5344 -0.1247
-6 -12 11 1.4100 0.1287
-6 -12 12 -1.9482 -0.2115
-6 -12 13 1.9096 0.3747
-6 -11 1 -3.5336 0.0267
-6 -11 2 2.5513 -0.0172
-6 -11 3 -1.3066 0.0051
-6 -11 4 0.3003 -0.0132
-6 -11 5 0.1975 0.0328
-6 -11 6 -0.2627 -0.0170
-6 -11 7 0.1481 -0.0460
-6 -11 8 -0.0387 0.0714
-6 -11 9 -0.0558 0.0523
-6 -11 10 0.2282 -0.3029
-6 -11 11 -0.5178 0.4707
-6 -11 12 0.8127 -0.3228
-6 -11 13 -0.9033 -0.1615
-6 -11 14 0.6602 0.7387
-6 -10 1 -0.1804 -0.2267
-6 -10 2 0.6287 0.1904
-6 -10 3 -0.8530 -0.0858
-6 -10 4 0.8651 -0.0108
-6 -10 5 -0.6794 0.0590
-6 -10 6 0.2774 -0.0743
-6 -10 7 0.3123 0.0757
-6 -10 8 -0.9174 -0.0530
-6 -10 9 1.2628 0.0051
-6 -10 10 -1.1478 0.0250
-6 -10 11 0.5886 -0.0031
-6 -10 12 0.2055 -0.0116
-6 -10 13 -0.9703 -0.1094
-6 -10 14 1.4997 0.4157
-6 -10 15 -1.6791 -0.7677
-6 -9 1 7.1662 -0.2229
-6 -9 2 -7.6579 0.1624
-6 -9 3 6.9202 -0.0581
-6 -9 4 -5.2039 -0.0407
-6 -9 5 3.0319 0.0665
-6 -9 6 -0.9348 -0.0100
-6 -9 7 -0.6983 -0.0495
-6 -9 8 1.6569 0.0213
-6 -9 9 -1.9115 0.0886
-6 -9 10 1.5940 -0.1754
-6 -9 11 -0.9360 0.1485
-6 -9 12 0.1939 -0.0220
-6 -9 13 0.3958 -0.1237
-6 -9 14 -0.6495 0.2440
-6 -9 15 0.5081 -0.3542
-6 -9 16 -0.1108 0.4525
-6 -8 1 -1.6973 0.0779
-6 -8 2 1.8163 -0.1441
-6 -8 5 0.8969 0.0856
-6 -8 6 -1.9907 0.0066
-6 -8 7 2.4454 -0.0913
-6 -8 8 -2.0799 0.1134
-6 -8 9 1.1372 -0.0274
-6 -8 10 -0.1227 -0.1298
-6 -8 11 -0.5322 0.2246
-6 -8 12 0.6820 -0.1352
-6 -8 13 -0.4120 -0.1103
-6 -8 14 -0.1339 0.3247
-6 -8 15 0.8218 -0.3152
-6 -8 16 -1.4718 0.0461
-6 -8 17 1.8440 0.3478
-6 -7 1 -1.2166 0.0674
-6 -7 2 3.0468 -0.0522
-6 -7 3 -4.5926 0.0731
-6 -7 4 5.6008 -0.0797
-6 -7 5 -5.9509 0.0496
-6 -7 7 -4.2956 0.0314
-6 -7 8 2.4253 -0.0900
-6 -7 9 -0.4102 0.1514
-6 -7 10 -1.1529 -0.1789
-6 -7 11 1.8701 0.1607
-6 -7 12 -1.7260 -0.0891
-6 -7 13 1.0231 -0.0410
-6 -7 14 -0.1902 0.1892
-6 -7 15 -0.4010 -0.2508
-6 -7 16 0.5596 0.1248
-6 -7 17 -0.3340 0.1817
-6 -7 18 -0.0347 -0.5308
-6 -6 1 -1.8004 0.0647
-6 -6 2 -0.2977 -0.0916
-6 -6 3 1.8639 0.0772
-6 -6 4 -2.4418 -0.0276
-6 -6 5 1.9460 -0.0359
-6 -6 6 -0.6461 0.0762
-6 -6 7 -0.9245 -0.0497
-6 -6 8 2.1613 -0.0533
-6 -6 9 -2.6620 0.1726
-6 -6 10 2.4154 -0.2116
-6 -6 11 -1.7412 0.1278
-6 -6 12 1.0199 0.0179
-6 -6 13 -0.4591 -0.1155
-6 -6 14 0.0795 0.1064
-6 -6 15 0.1411 -0.0177
-6 -6 16 -0.1796 -0.0908
-6 -6 17 0.0252 0.1865
-6 -6 18 0.2273 -0.2607
-6 -6 19 -0.4005 0.2948
-6 -5 1 -0.6292 -0.2147
-6 -5 2 1.4082 0.1249
-6 -5 3 -1.2422 -0.0247
-6 -5 4 0.2492 -0.0305
-6 -5 5 1.3064 0.0363
-6 -5 6 -3.0330 -0.0192
-6 -5 7 4.4253 0.0084
-6 -5 8 -5.0124 -0.0275
-6 -5 9 4.6166 0.0865
-6 -5 10 -3.5002 -0.1615
-6 -5 11 2.2201 0.1950
-6 -5 12 -1.2828 -0.1444
-6 -5 13 0.8825 0.0337
-6 -5 14 -0.8999 0.0602
-6 -5 15 1.0892 -0.0820
-6 -5 16 -1.2510 0.0456
-6 -5 17 1.2863 -0.0016
-6 -5 18 -1.1692 -0.0273
-6 -5 19 0.9176 0.0545
-6 -4 1 5.1649 0.1718
-6 -4 2 -4.5328 -0.1220
-6 -4 3 2.8514 0.0344
-6 -4 4 -0.7228 0.0518
-6 -4 5 -1.2424 -0.0979
-6 -4 6 2.5052 0.0816
-6 -4 7 -2.6777 -0.0225
-6 -4 8 1.6922 -0.0236
-6 -4 9 0.0719 0.0180
-6 -4 10 -1.9139 0.0160
-6 -4 11 3.1848 -0.0179
-6 -4 12 -3.6264 -0.0387
-6 -4 13 3.4046 0.1171
-6 -4 14 -2.8609 -0.1666
-6 -4 15 2.2484 0.1832
-6 -4 16 -1.6633 -0.2015
-6 -4 17 1.1368 0.2355
-6 -4 18 -0.7111 -0.2536
-6 -4 19 0.4115 0.2236
-6 -4 20 -0.1928 -0.1597
-6 -3 1 -3.4831 0.0083
-6 -3 2 2.3220 -0.0782
-6 -3 3 -1.5500 0.1109
-6 -3 4 1.3173 -0.0939
-6 -3 5 -1.3875 0.0222
-6 -3 6 1.4964 0.0838
-6 -3 7 -1.6084 -0.1658
-6 -3 8 1.8345 0.1644
-6 -3 9 -2.1870 -0.0779
-6 -3 10 2.4946 -0.0293
-6 -3 11 -2.5484 0.0843
-6 -3 12 2.2764 -0.0648
-6 -3 13 -1.7574 -0.0009
-6 -3 14 1.1168 0.0715
-6 -3 15 -0.4657 -0.1122
-6 -3 16 -0.0681 0.0895
-6 -3 17 0.3256 0.0124
-6 -3 18 -0.2076 -0.1493
-6 -3 19 -0.2012 0.2167
-6 -3 20 0.6318 -0.1314
-6 -2 1 -4.1765 -0.0564
-6 -2 2 6.4293 0.0509
-6 -2 3 -7.2343 0.0007
-6 -2 4 6.5905 -0.0671
-6 -2 5 -4.9454 0.1129
-6 -2 6 2.8756 -0.1011
-6 -2 7 -0.9044 0.0178
-6 -2 8 -0.5427 0.0990
-6 -2 9 1.2092 -0.1792
-6 -2 10 -1.1272 0.1879
-6 -2 11 0.6088 -0.1625
-6 -2 12 -0.0157 0.1612
-6 -2 13 -0.5057 -0.1841
-6 -2 14 1.0485 0.1704
-6 -2 15 -1.7061 -0.0865
-6 -2 16 2.3490 -0.0080
-6 -2 17 -2.6825 0.0080
-6 -2 18 2.5236 0.1225
-6 -2 19 -1.9886 -0.3030
-6 -2 20 1.3861 0.4089
-6 -1 1 1.9440 0.2432
-6 -1 2 -1.8543 -0.2367
-6 -1 3 1.4086 0.1785
-6 -1 4 -1.0019 -0.0631
-6 -1 5 0.7947 -0.0671
-6 -1 6 -0.6664 0.1350
-6 -1 7 0.5206 -0.1047
-6 -1 8 -0.5018 0.0302
-6 -1 9 0.8355 -0.0063
-6 -1 10 -1.5003 0.0705
-6 -1 11 2.1529 -0.1711
-6 -1 12 -2.4091 0.2317
-6 -1 13 2.1618 -0.2285
-6 -1 14 -1.6025 0.1962
-6 -1 15 0.9814 -0.1789
-6 -1 16 -0.4142 0.1971
-6 -1 17 -0.0750 -0.2513
-6 -1 18 0.4104 0.3196
-6 -1 19 -0.4572 -0.3411
-6 -1 20 0.1813 0.2299
-6 0 1 -3.1934 -0.1851
-6 0 2 1.2284 0.1318
-6 0 3 1.3879 -0.0593
-6 0 4 -3.7413 -0.0234
-6 0 5 5.3094 0.0761
-6 0 6 -5.9627 -0.0666
-6 0 7 5.7483 0.0151
-6 0 8 -4.7853 0.0267
-6 0 9 3.3184 -0.0367
-6 0 10 -1.7182 0.0388
-6 0 11 0.3223 -0.0531
-6 0 12 0.7168 0.0587
-6 0 13 -1.3915 -0.0327
-6 0 14 1.6765 0.0100
-6 0 15 -1.4857 -0.0645
-6 0 16 0.8310 0.2106
-6 0 17 0.0270 -0.3451
-6 0 18 -0.6746 0.3220
-6 0 19 0.8404 -0.0913
-6 0 20 -0.5955 -0.2445
-6 1 1 -1.1687 -0.1273
-6 1 2 1.3654 0.0406
-6 1 3 -1.3627 0.0163
-6 1 4 1.1608 -0.0287
-6 1 5 -0.8357 0.0317
-6 1 6 0.3549 -0.0417
-6 1 7 0.3466 0.0351
-6 1 8 -1.1166 -0.0004
-6 1 9 1.5403 -0.0213
-6 1 10 -1.2596 -0.0204
-6 1 11 0.3433 0.1109
-6 1 12 0.7192 -0.1691
-6 1 13 -1.4226 0.1306
-6 1 14 1.6275 -0.0166
-6 1 15 -1.5451 -0.0896
-6 1 16 1.4091 0.1191
-6 1 17 -1.2369 -0.0551
-6 1 18 0.9150 -0.0865
-6 1 19 -0.4416 0.2764
-6 1 20 0.0061 -0.4571
-6 2 1 0.1475 0.0646
-6 2 2 -2.0848 -0.0458
-6 2 3 2.8654 0.0447
-6 2 4 -2.6137 -0.0383
-6 2 5 1.5748 0.0149
-6 2 6 0.0337 0.0007
-6 2 7 -1.9274 0.0153
-6 2 8 3.6418 -0.0429
-6 2 9 -4.6608 0.0426
-6 2 10 4.7216 -0.0131
-6 2 11 -3.9775 -0.0026
-6 2 12 2.8506 -0.0210
-6 2 13 -1.7417 0.0485
-6 2 14 0.8721 -0.0286
-6 2 15 -0.3202 -0.0280
-6 2 16 0.0947 0.0459
-6 2 17 -0.1262 0.0277
-6 2 18 0.2468 -0.1489
-6 2 19 -0.2692 0.2096
-6 2 20 0.1276 -0.1414
-6 3 1 -0.3557 0.0391
-6 3 2 -0.3471 -0.0027
-6 3 3 0.7148 -0.0490
-6 3 4 -0.7449 0.0528
-6 3 5 0.6221 -0.0097
-6 3 6 -0.4869 -0.0294
-6 3 7 0.2933 0.0360
-6 3 8 0.0670 -0.0336
-6 3 9 -0.5324 0.0522
-6 3 10 0.8482 -0.0816
-6 3 11 -0.8166 0.0883
-6 3 12 0.5259 -0.0632
-6 3 13 -0.2653 0.0274
-6 3 14 0.2071 0.0067
-6 3 15 -0.2234 -0.0526
-6 3 16 0.0517 0.1176
-6 3 17 0.3848 -0.1737
-6 3 18 -0.8644 0.1862
-6 3 19 1.0769 -0.1669
-6 3 20 -0.9144 0.1732
-6 4 1 4.9509 0.1526
-6 4 2 -3.0565 -0.1201
-6 4 3 1.3769 0.0675
-6 4 4 -0.1420 -0.0112
-6 4 5 -0.6749 -0.0088
-6 4 6 1.1195 -0.0228
-6 4 7 -1.1452 0.0746
-6 4 8 0.7306 -0.1035
-6 4 9 -0.0280 0.0969
-6 4 10 -0.6749 -0.0641
-6 4 11 1.1463 0.0033
-6 4 12 -1.3352 0.0944
-6 4 13 1.3168 -0.2032
-6 4 14 -1.1689 0.2562
-6 4 15 0.9296 -0.2093
-6 4 16 -0.6405 0.1097
-6 4 17 0.3687 -0.0723
-6 4 18 -0.1650 0.1737
-6 4 19 0.0304 -0.3706
-6 5 1 1.3389 0.0343
-6 5 2 -1.0487 0.0125
-6 5 3 0.8261 0.0121
-6 5 4 -0.6488 -0.0629
-6 5 5 0.4407 0.0673
-6 5 6 -0.2023 -0.0003
-6 5 7 0.0817 -0.0982
-6 5 8 -0.2730 0.1660
-6 5 9 0.8017 -0.1619
-6 5 10 -1.4232 0.0769
-6 5 11 1.7838 0.0669
-6 5 12 -1.7187 -0.2143
-6 5 13 1.3793 0.2956
-6 5 14 -1.0553 -0.2727
-6 5 15 0.8865 0.1718
-6 5 16 -0.7736 -0.0563
-6 5 17 0.5567 -0.0377
-6 5 18 -0.2288 0.1252
-6 5 19 -0.0561 -0.2247
-6 6 1 -3.4047 0.0665
-6 6 2 3.0233 -0.0581
-6 6 3 -2.3234 0.0205
-6 6 4 1.6018 0.0225
-6 6 5 -0.9806 -0.0543
-6 6 6 0.4631 0.0740
-6 6 7 -0.0552 -0.0827
-6 6 8 -0.2090 0.0798
-6 6 9 0.3340 -0.0726
-6 6 10 -0.3943 0.0687
-6 6 11 0.4634 -0.0511
-6 6 12 -0.5357 -0.0221
-6 6 13 0.5483 0.1637
-6 6 14 -0.4767 -0.3041
-6 6 15 0.3736 0.3192
-6 6 16 -0.3080 -0.1382
-6 6 17 0.2913 -0.1716
-6 6 18 -0.2884 0.4431
-6 7 1 -1.0084 -0.1232
-6 7 2 1.0120 0.0590
-6 7 3 -1.0354 -0.0080
-6 7 4 1.1336 -0.0009
-6 7 5 -1.2394 -0.0238
-6 7 6 1.2355 0.0521
-6 7 7 -1.0717 -0.0642
-6 7 8 0.8177 0.0595
-6 7 9 -0.5935 -0.0461
-6 7 10 0.4494 0.0348
-6 7 11 -0.3391 -0.0367
-6 7 12 0.2221 0.0524
-6 7 13 -0.1655 -0.0619
-6 7 14 0.2921 0.0423
-6 7 15 -0.6082 -0.0052
-6 7 16 0.9216 0.0032
-6 7 17 -0.9789 -0.0781
-6 8 1 -0.6161 0.0568
-6 8 2 0.0473 -0.1079
-6 8 3 0.3040 0.1226
-6 8 4 -0.4758 -0.1008
-6 8 5 0.5408 0.0616
-6 8 6 -0.5552 -0.0255
-6 8 7 0.5443 -0.0052
-6 8 8 -0.5001 0.0405
-6 8 9 0.3811 -0.0717
-6 8 10 -0.1424 0.0582
-6 8 11 -0.1976 0.0337
-6 8 12 0.5189 -0.1715
-6 8 13 -0.6655 0.2573
-6 8 14 0.5784 -0.2114
-6 8 15 -0.3589 0.0577
-6 8 16 0.1791 0.0873
-6 9 1 0.6833 0.1157
-6 9 2 -1.0197 -0.0983
-6 9 3 1.2093 0.0673
-6 9 4 -1.2207 -0.0793
-6 9 5 1.0445 0.1433
-6 9 6 -0.7219 -0.2142
-6 9 7 0.3705 0.2393
-6 9 8 -0.1586 -0.2000
-6 9 9 0.2038 0.1150
-6 9 10 -0.4546 -0.0200
-6 9 11 0.6731 -0.0451
-6 9 12 -0.5925 0.0494
-6 9 13 0.1493 0.0027
-6 9 14 0.4236 -0.0560
-6 9 15 -0.7658 0.0382
-6 10 1 0.9170 -0.1242
-6 10 2 -0.9501 0.1950
-6 10 3 0.9274 -0.1747
-6 10 4 -0.8189 0.0569
-6 10 5 0.5981 0.0974
-6 10 6 -0.2846 -0.1948
-6 10 7 -0.0385 0.1763
-6 10 8 0.2567 -0.0691
-6 10 9 -0.2839 -0.0307
-6 10 10 0.1127 0.0420
-6 10 11 0.1718 0.0294
-6 10 12 -0.4226 -0.1070
-6 10 13 0.5024 0.1285
-6 10 14 -0.3719 -0.1055
-6 11 1 0.1716 -0.0335
-6 11 2 -0.3782 0.1421
-6 11 3 0.2863 -0.1361
-6 11 4 0.0850 0.0578
-6 11 5 -0.5254 0.0212
-6 11 6 0.7596 -0.0715
-6 11 7 -0.6443 0.1053
-6 11 8 0.2874 -0.1311
-6 11 9 0.0184 0.1379
-6 11 10 -0.0140 -0.1261
-6 11 11 -0.3162 0.1261
-6 11 12 0.7184 -0.1657
-6 12 1 0.5155 -0.1333
-6 12 2 -0.5278 0.0058
-6 12 3 0.4662 0.0457
-6 12 4 -0.3255 -0.0316
-6 12 5 0.1739 -0.0063
-6 12 6 -0.1075 0.0217
-6 12 7 0.1647 0.0320
-6 12 8 -0.2808 -0.1828
-6 12 9 0.3332 0.4006
-6 13 1 -0.0079 -0.2324
-6 13 2 0.0642 0.0134
-6 13 3 -0.1504 0.2077
-6 13 4 0.1209 -0.3110
-6 13 5 0.0570 0.2447
-6 13 6 -0.2683 -0.0075
-5 -16 1 -0.3529 0.0164
-5 -16 2 -0.1090 -0.1186
-5 -16 3 0.4156 0.1549
-5 -15 1 -0.3197 -0.1968
-5 -15 2 0.5972 0.1651
-5 -15 3 -0.4739 -0.2038
-5 -15 4 0.0528 0.2966
-5 -15 5 0.3103 -0.2941
-5 -15 6 -0.3416 0.0654
-5 -15 7 0.0692 0.3201
-5 -14 1 0.4703 -0.0289
-5 -14 2 -0.3017 0.2013
-5 -14 3 -0.1829 -0.3145
-5 -14 4 0.6872 0.2581
-5 -14 5 -0.8892 -0.0662
-5 -14 6 0.6964 -0.1329
-5 -14 7 -0.2606 0.2260
-5 -14 8 -0.1977 -0.1703
-5 -14 9 0.5406 -0.0085
-5 -14 10 -0.7276 0.2124
-5 -13 1 0.1579 -0.0265
-5 -13 2 -0.5191 0.1252
-5 -13 3 0.7003 -0.1388
-5 -13 4 -0.4952 0.0240
-5 -13 5 -0.0055 0.1538
-5 -13 6 0.5078 -0.2374
-5 -13 7 -0.7990 0.1204
-5 -13 8 0.9073 0.1182
-5 -13 9 -0.9937 -0.2576
-5 -13 10 1.1292 0.1393
-5 -13 11 -1.2057 0.1815
-5 -13 12 1.0577 -0.4971
-5 -12 1 -0.1665 -0.2404
-5 -12 2 0.7709 0.1368
-5 -12 3 -1.0747 0.0252
-5 -12 4 0.8760 -0.1201
-5 -12 5 -0.2920 0.0984
-5 -12 6 -0.3669 -0.0087
-5 -12 7 0.8242 -0.0807
-5 -12 8 -0.9727 0.1355
-5 -12 9 0.8673 -0.1231
-5 -12 10 -0.6354 -0.0151
-5 -12 11 0.3771 0.2930
-5 -12 12 -0.1136 -0.5795
-5 -12 13 -0.1838 0.6345
-5 -11 1 1.2683 -0.0110
-5 -11 2 -1.1922 0.0504
-5 -11 3 0.8490 -0.0430
-5 -11 4 -0.4508 -0.0112
-5 -11 5 0.1343 0.0672
-5 -11 6 0.1220 -0.0933
-5 -11 7 -0.3719 0.1103
-5 -11 8 0.5402 -0.1479
-5 -11 9 -0.4329 0.1829
-5 -11 10 -0.0840 -0.1657
-5 -11 11 0.9173 0.1084
-5 -11 12 -1.7489 -0.0980
-5 -11 13 2.2035 0.1818
-5 -11 14 -2.0677 -0.2614
-5 -11 15 1.4252 0.1589
-5 -10 1 -3.7484 0.1639
-5 -10 2 2.9572 -0.1488
-5 -10 3 -1.6591 0.1333
-5 -10 4 0.2391 -0.1578
-5 -10 5 0.8540 0.2073
-5 -10 6 -1.3412 -0.1987
-5 -10 7 1.2190 0.0726
-5 -10 8 -0.7113 0.1011
-5 -10 9 0.1052 -0.1572
-5 -10 10 0.4233 0.0074
-5 -10 11 -0.8576 0.2365
-5 -10 12 1.2172 -0.3455
-5 -10 13 -1.4051 0.1881
-5 -10 14 1.2348 0.1540
-5 -10 15 -0.6478 -0.4788
-5 -10 16 -0.1178 0.6426
-5 -9 1 -1.4015 0.0309
-5 -9 2 2.1910 -0.0271
-5 -9 3 -2.5741 0.0439
-5 -9 4 2.5492 -0.0396
-5 -9 5 -2.1790 0.0064
-5 -9 6 1.4794 0.0204
-5 -9 7 -0.4946 -0.0203
-5 -9 8 -0.5601 0.0207
-5 -9 9 1.3196 -0.0493
-5 -9 10 -1.4887 0.0765
-5 -9 11 1.0447 -0.0505
-5 -9 12 -0.2240 -0.0074
-5 -9 13 -0.6584 -0.0131
-5 -9 14 1.3583 0.1941
-5 -9 15 -1.7305 -0.4695
-5 -9 16 1.7182 0.6554
-5 -9 17 -1.3789 -0.6155
-5 -8 1 5.8288 -0.1516
-5 -8 2 -7.2963 0.1897
-5 -8 3 7.6979 -0.1264
-5 -8 4 -6.7808 -0.0116
-5 -8 5 4.7604 0.1243
-5 -8 6 -2.2217 -0.1329
-5 -8 7 -0.1022 0.0611
-5 -8 8 1.6131 -0.0009
-5 -8 9 -2.0812 0.0060
-5 -8 10 1.6800 -0.0446
-5 -8 11 -0.8007 0.0617
-5 -8 12 -0.1825 -0.0514
-5 -8 13 0.9970 0.0400
-5 -8 14 -1.4225 -0.0172
-5 -8 15 1.2962 -0.0661
-5 -8 16 -0.6531 0.2170
-5 -8 17 -0.1785 -0.3458
-5 -8 18 0.7355 0.3284
-5 -7 1 -1.0277 -0.0255
-5 -7 2 0.9943 0.0036
-5 -7 3 -0.4435 0.0214
-5 -7 4 -0.7464 -0.0372
-5 -7 8 -4.7023 0.1727
-5 -7 9 3.1584 -0.1784
-5 -7 10 -1.1847 0.0562
-5 -7 11 -0.3962 0.1147
-5 -7 12 1.1651 -0.1860
-5 -7 13 -1.1968 0.0820
-5 -7 14 0.7960 0.1249
-5 -7 15 -0.2240 -0.2841
-5 -7 16 -0.3586 0.2968
-5 -7 17 0.8173 -0.1687
-5 -7 18 -1.0269 -0.0352
-5 -7 19 0.9438 0.2500
-5 -6 1 0.4643 -0.1309
-5 -6 2 1.1914 0.1077
-5 -6 3 -2.9116 -0.0389
-5 -6 4 4.2427 -0.0072
-5 -6 5 -4.9986 -0.0108
-5 -6 6 5.1106 0.0629
-5 -6 7 -4.5393 -0.0882
-5 -6 8 3.3554 0.0602
-5 -6 9 -1.8393 0.0044
-5 -6 10 0.4222 -0.0841
-5 -6 11 0.5039 0.1644
-5 -6 12 -0.7441 -0.2116
-5 -6 13 0.3411 0.1728
-5 -6 14 0.4566 -0.0377
-5 -6 15 -1.2590 -0.1107
-5 -6 16 1.6709 0.1424
-5 -6 17 -1.4984 0.0046
-5 -6 18 0.8868 -0.2635
-5 -6 19 -0.2250 0.4975
-5 -5 1 -2.6432 -0.1582
-5 -5 2 -0.4098 0.0487
-5 -5 3 3.0112 0.0699
-5 -5 4 -4.3658 -0.1639
-5 -5 5 4.0269 0.1885
-5 -5 6 -2.0892 -0.1327
-5 -5 7 -0.7576 0.0537
-5 -5 8 3.4563 -0.0338
-5 -5 9 -5.0788 0.0926
-5 -5 10 5.2994 -0.1643
-5 -5 11 -4.4775 0.1718
-5 -5 12 3.2903 -0.1106
-5 -5 13 -2.2474 0.0399
-5 -5 14 1.4865 -0.0036
-5 -5 15 -0.9246 -0.0124
-5 -5 16 0.5047 0.0417
-5 -5 17 -0.2665 -0.0837
-5 -5 18 0.2355 0.1067
-5 -5 19 -0.3213 -0.0915
-5 -5 20 0.3590 0.0465
-5 -4 1 2.5470 0.0417
-5 -4 2 -0.9155 -0.0022
-5 -4 3 0.3800 -0.0170
-5 -4 4 -0.6872 0.0188
-5 -4 5 1.4905 0.0029
-5 -4 6 -2.5000 -0.0339
-5 -4 7 3.4246 0.0427
-5 -4 8 -3.9210 -0.0242
-5 -4 9 3.7238 0.0191
-5 -4 10 -2.8526 -0.0665
-5 -4 11 1.6525 0.1481
-5 -4 12 -0.5930 -0.2033
-5 -4 13 -0.0015 0.1995
-5 -4 14 0.0717 -0.1644
-5 -4 15 0.2390 0.1398
-5 -4 16 -0.7134 -0.1260
-5 -4 17 1.1497 0.0947
-5 -4 18 -1.4040 -0.0444
-5 -4 19 1.4178 0.0122
-5 -4 20 -1.2254 -0.0208
-5 -3 1 7.9108 0.0154
-5 -3 2 -7.4186 -0.0642
-5 -3 3 5.3244 0.0631
-5 -3 4 -2.4699 0.0094
-5 -3 5 -0.3240 -0.1174
-5 -3 6 2.4019 0.1773
-5 -3 7 -3.3051 -0.1369
-5 -3 8 2.8623 0.0321
-5 -3 9 -1.3155 0.0554
-5 -3 10 -0.7199 -0.0879
-5 -3 11 2.5462 0.0964
-5 -3 12 -3.7248 -0.1161
-5 -3 13 4.1901 0.1289
-5 -3 14 -4.0914 -0.0946
-5 -3 15 3.5868 0.0219
-5 -3 16 -2.8002 0.0236
-5 -3 17 1.9109 0.0090
-5 -3 18 -1.1786 -0.0983
-5 -3 19 0.8054 0.1769
-5 -3 20 -0.7639 -0.1998
-5 -3 21 0.7968 0.1718
-5 -2 1 -5.8259 -0.1674
-5 -2 2 3.9772 0.1313
-5 -2 3 -2.5869 -0.0703
-5 -2 4 2.1296 0.0041
-5 -2 5 -2.3789 0.0134
-5 -2 6 2.7901 0.0523
-5 -2 7 -2.9845 -0.1579
-5 -2 8 2.8953 0.2106
-5 -2 9 -2.5929 -0.1628
-5 -2 10 2.1109 0.0610
-5 -2 11 -1.4645 0.0106
-5 -2 12 0.7419 -0.0152
-5 -2 13 -0.0845 -0.0220
-5 -2 14 -0.4302 0.0692
-5 -2 15 0.8327 -0.1217
-5 -2 16 -1.1611 0.1796
-5 -2 17 1.3441 -0.2251
-5 -2 18 -1.2346 0.2487
-5 -2 19 0.7797 -0.2829
-5 -2 20 -0.1419 0.3711
-5 -2 21 -0.3760 -0.4943
-5 -1 1 -1.8992 0.1848
-5 -1 2 6.1553 -0.0644
-5 -1 3 -8.8712 -0.0620
-5 -1 4 9.5923 0.1427
-5 -1 5 -8.5632 -0.1356
-5 -1 6 6.3869 0.0679
-5 -1 7 -3.7505 -0.0210
-5 -1 8 1.3152 0.0424
-5 -1 9 0.3925 -0.0962
-5 -1 10 -1.1638 0.1190
-5 -1 11 1.1875 -0.1044
-5 -1 12 -0.8557 0.1022
-5 -1 13 0.4279 -0.1371
-5 -1 14 0.1158 0.1666
-5 -1 15 -0.8847 -0.1446
-5 -1 16 1.7858 0.1033
-5 -1 17 -2.4806 -0.1334
-5 -1 18 2.6536 0.2720
-5 -1 19 -2.3000 -0.4336
-5 -1 20 1.7228 0.4725
-5 -1 21 -1.2483 -0.3110
-5 0 1 4.1587 0.0609
-5 0 3 3.7650 0.1445
-5 0 4 -3.0919 -0.0870
-5 0 5 2.5952 -0.0411
-5 0 6 -2.2263 0.1490
-5 0 7 1.8272 -0.1568
-5 0 8 -1.4635 0.0835
-5 0 9 1.3919 -0.0209
-5 0 10 -1.7225 0.0249
-5 0 11 2.2152 -0.0610
-5 0 12 -2.4622 0.0644
-5 0 13 2.2425 -0.0274
-5 0 14 -1.6589 0.0039
-5 0 15 0.9613 -0.0400
-5 0 16 -0.3106 0.1280
-5 0 17 -0.2550 -0.2264
-5 0 18 0.6857 0.2931
-5 0 19 -0.8508 -0.2822
-5 0 20 0.6528 0.1393
-5 0 21 -0.1856 0.1536
-5 1 1 -3.5313 -0.0280
-5 1 2 2.2266 0.0687
-5 1 3 0.4009 -0.0734
-5 1 4 -3.3513 0.0133
-5 1 5 5.7920 0.0692
-5 1 6 -7.2247 -0.1052
-5 1 7 7.4257 0.0789
-5 1 8 -6.4300 -0.0343
-5 1 9 4.5976 0.0069
-5 1 10 -2.5475 0.0149
-5 1 11 0.8589 -0.0461
-5 1 12 0.2300 0.0555
-5 1 13 -0.8284 0.0006
-5 1 14 1.1144 -0.0977
-5 1 15 -1.1044 0.1382
-5 1 16 0.7167 -0.0572
-5 1 17 -0.0131 -0.0826
-5 1 18 -0.7073 0.1354
-5 1 19 1.0988 -0.0184
-5 1 20 -1.0412 -0.1962
-5 1 21 0.7042 0.3447
-5 2 1 -1.4230 -0.0301
-5 2 2 1.7968 0.0051
-5 2 3 -1.8290 0.0147
-5 2 4 1.7262 -0.0275
-5 2 5 -1.7376 0.0615
-5 2 6 1.8197 -0.1116
-5 2 7 -1.6523 0.1247
-5 2 8 1.0349 -0.0674
-5 2 9 -0.2068 -0.0170
-5 2 10 -0.3044 0.0471
-5 2 11 0.1677 0.0052
-5 2 12 0.4536 -0.0879
-5 2 13 -1.0864 0.1361
-5 2 14 1.3791 -0.1425
-5 2 15 -1.3277 0.1433
-5 2 16 1.1315 -0.1571
-5 2 17 -0.9236 0.1669
-5 2 18 0.6843 -0.1630
-5 2 19 -0.3693 0.1692
-5 2 20 0.0397 -0.2061
-5 2 21 0.1700 0.2426
-5 3 1 -0.0629 -0.1317
-5 3 2 -1.7449 0.0816
-5 3 3 2.4715 -0.0074
-5 3 4 -2.1909 -0.0472
-5 3 5 1.1407 0.0557
-5 3 6 0.4514 -0.0398
-5 3 7 -2.3238 0.0328
-5 3 8 4.0643 -0.0330
-5 3 9 -5.1817 0.0188
-5 3 10 5.3703 -0.0013
-5 3 11 -4.7016 0.0246
-5 3 12 3.5401 -0.0986
-5 3 13 -2.2888 0.1583
-5 3 14 1.2161 -0.1216
-5 3 15 -0.4617 -0.0114
-5 3 16 0.0942 0.1439
-5 3 17 -0.0950 -0.1787
-5 3 18 0.3130 0.1157
-5 3 19 -0.5154 -0.0405
-5 3 20 0.5364 0.0288
-5 3 21 -0.3802 -0.0805
-5 4 1 -0.6098 -0.0595
-5 4 2 -0.2330 0.0305
-5 4 3 0.5570 0.0083
-5 4 4 -0.3135 -0.0737
-5 4 5 -0.1765 0.1410
-5 4 6 0.5378 -0.1609
-5 4 7 -0.6727 0.1185
-5 4 8 0.7613 -0.0530
-5 4 9 -0.9609 0.0113
-5 4 10 1.1764 -0.0024
-5 4 11 -1.1697 0.0090
-5 4 12 0.8590 -0.0231
-5 4 13 -0.4361 0.0448
-5 4 14 0.1703 -0.0539
-5 4 15 -0.1344 0.0170
-5 4 16 0.1625 0.0600
-5 4 17 -0.0593 -0.1064
-5 4 18 -0.1914 0.0476
-5 4 19 0.4308 0.1050
-5 4 20 -0.5003 -0.2433
-5 5 1 4.5125 0.2037
-5 5 2 -2.9168 -0.2299
-5 5 3 1.3057 0.1992
-5 5 4 -0.0978 -0.1153
-5 5 5 -0.6083 0.0204
-5 5 6 0.9065 0.0412
-5 5 7 -0.8878 -0.0504
-5 5 8 0.5914 0.0069
-5 5 9 -0.0821 0.0785
-5 5 10 -0.5048 -0.1679
-5 5 11 1.0173 0.1930
-5 5 12 -1.3563 -0.1052
-5 5 13 1.4816 -0.0573
-5 5 14 -1.3852 0.1741
-5 5 15 1.0937 -0.1418
-5 5 16 -0.6862 -0.0248
-5 5 17 0.2702 0.2006
-5 5 18 0.0798 -0.2585
-5 5 19 -0.3437 0.1645
-5 5 20 0.5090 0.0210
-5 6 1 1.8417 0.1130
-5 6 2 -1.3999 0.0171
-5 6 3 1.0715 -0.0840
-5 6 4 -0.9054 0.0800
-5 6 5 0.7813 -0.0359
-5 6 6 -0.5716 -0.0104
-5 6 7 0.3189 0.0302
-5 6 8 -0.2394 -0.0074
-5 6 9 0.5149 -0.0489
-5 6 10 -1.0770 0.0992
-5 6 11 1.6209 -0.1008
-5 6 12 -1.8520 0.0495
-5 6 13 1.7108 0.0188
-5 6 14 -1.3554 -0.0772
-5 6 15 0.9599 0.1415
-5 6 16 -0.5735 -0.2310
-5 6 17 0.1734 0.3000
-5 6 18 0.2035 -0.2439
-5 6 19 -0.4376 0.0029
-5 7 1 -2.1538 0.0110
-5 7 2 2.2254 -0.0753
-5 7 3 -1.8090 0.1003
-5 7 4 1.1501 -0.0834
-5 7 5 -0.4545 0.0392
-5 7 6 -0.1772 0.0044
-5 7 7 0.6914 -0.0181
-5 7 8 -1.0227 -0.0028
-5 7 9 1.1116 0.0240
-5 7 10 -0.9580 -0.0048
-5 7 11 0.6307 -0.0459
-5 7 12 -0.2340 0.0603
-5 7 13 -0.1219 0.0170
-5 7 14 0.3395 -0.1493
-5 7 15 -0.3702 0.2185
-5 7 16 0.2548 -0.1287
-5 7 17 -0.1045 -0.1032
-5 7 18 0.0071 0.3660
-5 8 1 -1.1934 -0.0667
-5 8 2 1.4061 0.0501
-5 8 3 -1.5461 -0.0037
-5 8 4 1.6508 -0.0579
-5 8 5 -1.6773 0.1071
-5 8 6 1.5665 -0.1183
-5 8 7 -1.3269 0.0872
-5 8 8 1.0509 -0.0381
-5 8 9 -0.8335 0.0026
-5 8 10 0.6751 0.0150
-5 8 11 -0.4895 -0.0404
-5 8 12 0.2330 0.0860
-5 8 13 -0.0127 -0.1156
-5 8 14 0.0190 0.0787
-5 8 15 -0.3182 0.0113
-5 8 16 0.7290 -0.0581
-5 8 17 -0.9422 -0.0288
-5 9 1 -1.0277 -0.0647
-5 9 2 0.8115 -0.0609
-5 9 3 -0.6475 0.1524
-5 9 4 0.5135 -0.1708
-5 9 5 -0.3759 0.1382
-5 9 6 0.2401 -0.1057
-5 9 7 -0.1551 0.0914
-5 9 8 0.1809 -0.0625
-5 9 9 -0.3489 -0.0126
-5 9 10 0.6298 0.1084
-5 9 11 -0.9147 -0.1587
-5 9 12 1.0414 0.1331
-5 9 13 -0.8894 -0.0759
-5 9 14 0.4928 0.0512
-5 9 15 -0.0507 -0.0623
-5 9 16 -0.2113 0.0457
-5 10 1 -0.7243 -0.1193
-5 10 2 0.5395 -0.0569
-5 10 3 -0.1488 0.1649
-5 10 4 -0.2991 -0.1919
-5 10 5 0.5919 0.1719
-5 10 6 -0.5914 -0.1503
-5 10 7 0.3448 0.1547
-5 10 8 -0.0742 -0.1745
-5 10 9 0.0298 0.1622
-5 10 10 -0.2927 -0.0753
-5 10 11 0.6863 -0.0696
-5 10 12 -0.8954 0.1921
-5 10 13 0.7223 -0.2179
-5 10 14 -0.2581 0.1550
-5 10 15 -0.1927 -0.0886
-5 11 1 0.5135 0.0422
-5 11 2 -0.4322 0.1292
-5 11 3 0.4409 -0.2432
-5 11 4 -0.5399 0.2106
-5 11 5 0.6240 -0.0343
-5 11 6 -0.5597 -0.1685
-5 11 7 0.2994 0.2502
-5 11 8 0.0577 -0.1574
-5 11 9 -0.3148 -0.0250
-5 11 10 0.3058 0.1583
-5 11 11 -0.0185 -0.1757
-5 11 12 -0.3782 0.1181
-5 11 13 0.6373 -0.0590
-5 12 1 -0.6251 0.0639
-5 12 2 0.0616 0.1363
-5 12 3 0.2836 -0.2571
-5 12 4 -0.2961 0.2563
-5 12 5 0.0784 -0.1606
-5 12 6 0.1253 0.0123
-5 12 7 -0.1098 0.1438
-5 12 8 -0.1357 -0.2451
-5 12 9 0.4170 0.2295
-5 12 10 -0.4836 -0.0929
-5 12 11 0.2328 -0.0861
-5 13 1 0.2246 -0.0407
-5 13 2 -0.3908 0.0617
-5 13 3 0.6025 -0.1318
-5 13 4 -0.6656 0.2112
-5 13 5 0.4899 -0.2373
-5 13 6 -0.1651 0.1500
-5 13 7 -0.1217 0.0955
-5 13 8 0.2443 -0.4980
-5 13 9 -0.2274 0.9655
-5 14 1 -0.4903 -0.0500
-5 14 2 0.5235 0.0346
-5 14 3 -0.4610 -0.0435
-5 14 4 0.2392 0.1043
-5 14 5 0.1039 -0.1726
-4 -16 1 0.6089 -0.3229
-4 -16 2 -0.2261 0.4327
-4 -16 3 -0.2667 -0.3324
-4 -15 1 -0.6251 -0.0567
-4 -15 2 0.1397 0.0498
-4 -15 3 0.3066 -0.0988
-4 -15 4 -0.4557 0.1823
-4 -15 5 0.2822 -0.2247
-4 -15 6 0.0239 0.1747
-4 -15 7 -0.2532 -0.0450
-4 -15 8 0.3304 -0.1062
-4 -14 1 -0.6874 0.1114
-4 -14 2 0.9904 -0.1245
-4 -14 3 -0.9176 0.0143
-4 -14 4 0.4237 0.2017
-4 -14 5 0.2145 -0.3562
-4 -14 6 -0.6404 0.2723
-4 -14 7 0.6774 0.0384
-4 -14 8 -0.3888 -0.3443
-4 -14 9 -0.0392 0.3925
-4 -14 10 0.4309 -0.1453
-4 -13 1 0.2698 0.2810
-4 -13 2 -0.1733 -0.0752
-4 -13 3 -0.1340 -0.1245
-4 -13 4 0.4726 0.1777
-4 -13 5 -0.6239 -0.0644
-4 -13 6 0.5043 -0.1194
-4 -13 7 -0.1793 0.2429
-4 -13 8 -0.2389 -0.2112
-4 -13 9 0.6628 0.0078
-4 -13 10 -1.0190 0.2671
-4 -13 11 1.2262 -0.3973
-4 -13 12 -1.2251 0.1663
-4 -12 1 -0.6787 0.2622
-4 -12 2 0.2533 -0.0511
-4 -12 3 0.2143 -0.1595
-4 -12 4 -0.4546 0.2212
-4 -12 5 0.3735 -0.1011
-4 -12 6 -0.0764 -0.0731
-4 -12 7 -0.2793 0.1307
-4 -12 8 0.6176 -0.0321
-4 -12 9 -0.9406 -0.0921
-4 -12 10 1.2395 0.0802
-4 -12 11 -1.4349 0.1013
-4 -12 12 1.4012 -0.3482
-4 -12 13 -1.0590 0.5365
-4 -12 14 0.4705 -0.6089
-4 -11 1 -0.6864 -0.3144
-4 -11 2 1.1771 0.3005
-4 -11 3 -1.5290 -0.2014
-4 -11 4 1.6172 0.0846
-4 -11 5 -1.3861 0.0043
-4 -11 6 0.8656 -0.0626
-4 -11 7 -0.1814 0.0846
-4 -11 8 -0.4600 -0.0458
-4 -11 9 0.8587 -0.0401
-4 -11 10 -0.9373 0.0795
-4 -11 11 0.7637 0.0231
-4 -11 12 -0.4475 -0.2269
-4 -11 13 0.0351 0.3313
-4 -11 14 0.4646 -0.1350
-4 -11 15 -0.9665 -0.3704
-4 -10 1 1.7590 0.0116
-4 -10 2 -1.8362 -0.0162
-4 -10 3 1.4411 0.0469
-4 -10 4 -0.7976 -0.1093
-4 -10 5 0.1651 0.1564
-4 -10 6 0.3181 -0.1474
-4 -10 7 -0.6191 0.1008
-4 -10 8 0.7139 -0.0639
-4 -10 9 -0.5519 0.0413
-4 -10 10 0.0989 0.0056
-4 -10 11 0.6069 -0.0821
-4 -10 12 -1.4203 0.1241
-4 -10 13 2.0840 -0.0779
-4 -10 14 -2.2934 0.0044
-4 -10 15 1.8706 -0.0550
-4 -10 16 -0.9495 0.3203
-4 -10 17 -0.0287 -0.7149
-4 -9 1 -3.3156 -0.0205
-4 -9 2 2.9807 0.0618
-4 -9 3 -2.1415 -0.0848
-4 -9 4 0.8498 0.0275
-4 -9 5 0.5515 0.1078
-4 -9 6 -1.5334 -0.2139
-4 -9 7 1.6801 0.1631
-4 -9 8 -0.9939 0.0481
-4 -9 9 -0.0799 -0.2650
-4 -9 10 0.9811 0.3122
-4 -9 11 -1.4293 -0.1647
-4 -9 12 1.5085 -0.0347
-4 -9 13 -1.4042 0.1172
-4 -9 14 1.1393 -0.0243
-4 -9 15 -0.6209 -0.1872
-4 -9 16 -0.0989 0.4300
-4 -9 17 0.7186 -0.6382
-4 -9 18 -0.9093 0.7597
-4 -8 1 -1.9672 -0.0561
-4 -8 2 3.6296 -0.0159
-4 -8 3 -4.8384 0.0790
-4 -8 4 5.3582 -0.0725
-4 -8 5 -5.1362 -0.0087
-4 -8 6 4.1697 0.0964
-4 -8 7 -2.5552 -0.1252
-4 -8 8 0.6337 0.1031
-4 -8 9 1.0394 -0.0824
-4 -8 10 -1.9713 0.0769
-4 -8 11 2.0096 -0.0460
-4 -8 12 -1.3658 -0.0289
-4 -8 13 0.4125 0.0876
-4 -8 14 0.5105 -0.0436
-4 -8 15 -1.1536 -0.1146
-4 -8 16 1.3677 0.3015
-4 -8 17 -1.1599 -0.4172
-4 -8 18 0.7242 0.4308
-4 -8 19 -0.3288 -0.3789
-4 -7 1 3.6049 0.1601
-4 -7 2 -4.8732 -0.0263
-4 -7 9 -0.9382 -0.0071
-4 -7 10 0.3891 0.0554
-4 -7 11 0.5212 -0.1020
-4 -7 12 -1.3460 0.1347
-4 -7 13 1.9145 -0.1216
-4 -7 14 -2.1831 0.0725
-4 -7 16 -1.3940 0.1141
-4 -7 17 0.3798 -0.2280
-4 -7 18 0.5518 0.3049
-4 -7 19 -0.9508 -0.2772
-4 -6 2 1.6825 0.0045
-4 -6 3 -0.4929 -0.0607
-4 -6 4 -1.2783 0.0743
-4 -6 5 3.6275 -0.0110
-4 -6 6 -6.2167 -0.0893
-4 -6 7 8.2375 0.1279
-4 -6 10 -5.2538 0.1483
-4 -6 11 2.6567 -0.1067
-4 -6 12 -0.6952 0.0192
-4 -6 13 -0.3351 0.0156
-4 -6 14 0.6065 0.0378
-4 -6 15 -0.4553 -0.1417
-4 -6 16 0.1653 0.2423
-4 -6 17 0.0865 -0.3104
-4 -6 18 -0.2224 0.3349
-4 -6 19 0.2550 -0.3143
-4 -6 20 -0.2437 0.2690
-4 -5 1 0.4270 -0.2523
-4 -5 2 0.8522 0.1695
-4 -5 3 -2.4996 -0.0263
-4 -5 4 3.7170 -0.0841
-4 -5 5 -4.1166 0.0975
-4 -5 6 3.7334 -0.0431
-4 -5 7 -2.8496 -0.0030
-4 -5 8 1.8224 0.0059
-4 -5 9 -0.9564 0.0106
-4 -5 10 0.4046 -0.0213
-4 -5 11 -0.1514 0.0359
-4 -5 12 0.1235 -0.0632
-4 -5 13 -0.3304 0.0707
-4 -5 14 0.8505 -0.0141
-4 -5 15 -1.6472 -0.0962
-4 -5 16 2.4359 0.1868
-4 -5 17 -2.8156 -0.1913
-4 -5 18 2.5814 0.1152
-4 -5 19 -1.9049 -0.0213
-4 -5 20 1.1864 -0.0320
-4 -5 21 -0.7262 0.0253
-4 -4 1 -6.5602 -0.2784
-4 -4 2 2.0149 0.2392
-4 -4 3 2.0141 -0.1097
-4 -4 4 -4.6540 -0.0964
-4 -4 5 5.3130 0.2752
-4 -4 6 -3.8395 -0.3139
-4 -4 7 0.7254 0.2069
-4 -4 8 2.9157 -0.0647
-4 -4 9 -5.7893 0.0002
-4 -4 10 7.0769 -0.0278
-4 -4 11 -6.8113 0.0829
-4 -4 12 5.6690 -0.1135
-4 -4 13 -4.3938 0.1204
-4 -4 14 3.3579 -0.1134
-4 -4 15 -2.5544 0.0687
-4 -4 16 1.8783 0.0469
-4 -4 17 -1.3425 -0.2246
-4 -4 18 1.0523 0.4070
-4 -4 19 -1.0404 -0.5294
-4 -4 20 1.1716 0.5501
-4 -4 21 -1.2132 -0.4522
-4 -3 1 8.6808 0.3314
-4 -3 2 -5.2964 -0.2687
-4 -3 3 3.4175 0.1393
-4 -3 4 -2.8677 -0.0070
-4 -3 5 3.0621 -0.0440
-4 -3 6 -3.4507 0.0024
-4 -3 7 3.6833 0.0529
-4 -3 8 -3.5474 -0.0444
-4 -3 9 2.9206 -0.0158
-4 -3 10 -1.8316 0.0499
-4 -3 11 0.5090 -0.0133
-4 -3 12 0.6992 -0.0615
-4 -3 13 -1.4895 0.1178
-4 -3 14 1.7180 -0.1402
-4 -3 15 -1.4180 0.1435
-4 -3 16 0.7632 -0.1219
-4 -3 17 -0.0143 0.0464
-4 -3 18 -0.5640 0.0831
-4 -3 19 0.8117 -0.2106
-4 -3 20 -0.7446 0.2698
-4 -3 21 0.5198 -0.2452
-4 -2 1 12.6205 -0.2022
-4 -2 2 -12.4191 0.1284
-4 -2 3 9.9024 0.0012
-4 -2 4 -6.2139 -0.0604
-4 -2 5 2.4625 -0.0041
-4 -2 6 0.5417 0.1139
-4 -2 7 -2.3117 -0.1528
-4 -2 8 2.6823 0.0963
-4 -2 9 -1.8598 -0.0197
-4 -2 10 0.3789 -0.0100
-4 -2 11 1.1461 0.0097
-4 -2 12 -2.3273 -0.0339
-4 -2 13 3.0949 0.0840
-4 -2 14 -3.5116 -0.1014
-4 -2 15 3.5480 0.0464
-4 -2 16 -3.0883 0.0500
-4 -2 17 2.1531 -0.1253
-4 -2 18 -1.0599 0.1560
-4 -2 19 0.2902 -0.1693
-4 -2 20 -0.1423 0.1974
-4 -2 21 0.4869 -0.2425
-4 -2 22 -0.8674 0.2857
-4 -1 1 -14.5757 -0.1292
-4 -1 2 11.7812 0.1851
-4 -1 3 -8.5005 -0.1738
-4 -1 4 5.9213 0.0667
-4 -1 5 -4.4196 0.0594
-4 -1 6 3.7026 -0.0916
-4 -1 7 -3.3274 0.0062
-4 -1 8 3.0338 0.1080
-4 -1 9 -2.7115 -0.1551
-4 -1 10 2.2567 0.1314
-4 -1 11 -1.5811 -0.1011
-4 -1 12 0.7301 0.1004
-4 -1 13 0.1008 -0.1021
-4 -1 14 -0.7136 0.0745
-4 -1 15 1.0565 -0.0358
-4 -1 16 -1.2088 0.0310
-4 -1 17 1.2408 -0.0769
-4 -1 18 -1.1256 0.1582
-4 -1 19 0.8023 -0.2685
-4 -1 20 -0.3069 0.4173
-4 -1 21 -0.1893 -0.5791
-4 -1 22 0.4856 0.6652
-4 0 1 -4.3521 0.2842
-4 0 2 9.5615 -0.2487
-4 0 3 -13.2459 0.0973
-4 0 4 14.5638 0.0881
-4 0 5 -13.5421 -0.1809
-4 0 6 10.7959 0.1436
-4 0 7 -7.1839 -0.0627
-4 0 8 3.6055 0.0398
-4 0 9 -0.8338 -0.0767
-4 0 10 -0.7186 0.0963
-4 0 11 1.1546 -0.0568
-4 0 12 -0.9462 0.0019
-4 0 13 0.5409 0.0112
-4 0 14 -0.0680 0.0060
-4 0 15 -0.5845 0.0013
-4 0 16 1.4451 -0.0373
-4 0 17 -2.2679 0.0309
-4 0 18 2.6896 0.0769
-4 0 19 -2.5561 -0.2400
-4 0 20 2.0621 0.3253
-4 0 21 -1.5617 -0.2257
-4 0 22 1.2556 -0.0500
-4 1 1 3.1208 -0.3488
-4 1 2 -4.2726 0.2293
-4 1 3 4.5415 -0.0450
-4 1 4 -4.4183 -0.0738
-4 1 5 4.3316 0.0538
-4 1 6 -4.2752 0.0417
-4 1 7 3.9956 -0.0912
-4 1 8 -3.4306 0.0510
-4 1 9 2.8513 0.0172
-4 1 10 -2.5678 -0.0458
-4 1 11 2.5825 0.0453
-4 1 12 -2.5927 -0.0720
-4 1 13 2.3037 0.1391
-4 1 14 -1.6830 -0.1962
-4 1 15 0.9124 0.1919
-4 1 16 -0.1671 -0.1259
-4 1 17 -0.5009 0.0316
-4 1 18 1.0786 0.0624
-4 1 19 -1.4730 -0.1258
-4 1 20 1.5361 0.1037
-4 1 21 -1.2169 0.0535
-4 1 22 0.6624 -0.3145
-4 2 1 -3.5116 0.1772
-4 2 2 1.7203 -0.1404
-4 2 3 1.5659 0.0902
-4 2 4 -5.3237 -0.0895
-4 2 5 8.5861 0.1214
-4 2 6 -10.6897 -0.1223
-4 2 7 11.2632 0.0759
-4 2 8 -10.2306 -0.0325
-4 2 9 7.9233 0.0321
-4 2 10 -5.0835 -0.0466
-4 2 11 2.5617 0.0288
-4 2 12 -0.8779 0.0043
-4 2 13 0.0296 0.0195
-4 2 14 0.2952 -0.1269
-4 2 15 -0.3504 0.2420
-4 2 16 0.1789 -0.2599
-4 2 17 0.2428 0.1663
-4 2 18 -0.8040 -0.0554
-4 2 19 1.2556 0.0228
-4 2 20 -1.3926 -0.0624
-4 2 21 1.2047 0.0798
-4 2 22 -0.8448 0.0057
-4 3 1 -0.9659 0.3221
-4 3 2 1.1225 -0.2930
-4 3 4 -0.1797 -0.0926
-4 3 5 0.7143 0.0493
-4 3 6 -0.6501 -0.0950
-4 3 7 0.2071 0.1584
-4 3 8 0.1280 -0.1497
-4 3 9 -0.1189 0.0588
-4 3 10 -0.0216 0.0451
-4 3 11 -0.0777 -0.0980
-4 3 12 0.5288 0.0947
-4 3 13 -1.0821 -0.0579
-4 3 14 1.3887 -0.0100
-4 3 15 -1.3029 0.1135
-4 3 16 0.9367 -0.2193
-4 3 17 -0.4908 0.2625
-4 3 18 0.0895 -0.2141
-4 3 19 0.2367 0.1202
-4 3 20 -0.4721 -0.0577
-4 3 21 0.5740 0.0565
-4 4 1 0.0758 -0.0972
-4 4 2 -2.1320 0.1067
-4 4 3 3.0948 -0.0600
-4 4 4 -2.9020 0.0033
-4 4 5 1.7829 0.0280
-4 4 6 -0.0333 -0.0464
-4 4 7 -2.0407 0.0720
-4 4 8 4.0406 -0.0820
-4 4 9 -5.4890 0.0342
-4 4 10 6.0284 0.0598
-4 4 11 -5.6215 -0.1210
-4 4 12 4.5370 0.0847
-4 4 13 -3.1467 0.0208
-4 4 14 1.7458 -0.1017
-4 4 15 -0.5283 0.1010
-4 4 16 -0.3556 -0.0514
-4 4 17 0.7991 0.0220
-4 4 18 -0.8039 -0.0380
-4 4 19 0.5067 0.0732
-4 4 20 -0.1099 -0.1044
-4 4 21 -0.2230 0.1418
-4 5 1 -1.2775 -0.0440
-4 5 2 0.3696 0.1247
-4 5 3 0.1917 -0.1498
-4 5 4 -0.0719 0.0853
-4 5 5 -0.6017 0.0349
-4 5 6 1.3828 -0.1305
-4 5 7 -1.9155 0.1482
-4 5 8 2.1794 -0.0978
-4 5 9 -2.3508 0.0209
-4 5 10 2.4950 0.0515
-4 5 11 -2.4612 -0.0998
-4 5 12 2.0710 0.1015
-4 5 13 -1.3505 -0.0501
-4 5 14 0.5442 -0.0146
-4 5 15 0.0815 0.0285
-4 5 16 -0.4212 0.0204
-4 5 17 0.5405 -0.0534
-4 5 18 -0.5559 -0.0330
-4 5 19 0.5276 0.2541
-4 5 20 -0.4482 -0.5054
-4 5 21 0.2996 0.6487
-4 6 1 3.9790 -0.1742
-4 6 2 -2.9631 0.1347
-4 6 3 1.4137 -0.1054
-4 6 4 0.0883 0.0920
-4 6 5 -1.1340 -0.0902
-4 6 6 1.6013 0.1065
-4 6 7 -1.5586 -0.1469
-4 6 8 1.1343 0.1833
-4 6 9 -0.4670 -0.1574
-4 6 10 -0.2948 0.0438
-4 6 11 1.0026 0.1002
-4 6 12 -1.5296 -0.1749
-4 6 13 1.7869 0.1368
-4 6 14 -1.7436 -0.0460
-4 6 15 1.4525 0.0042
-4 6 16 -1.0393 -0.0582
-4 6 17 0.6290 0.1742
-4 6 18 -0.2665 -0.2912
-4 6 19 -0.0764 0.3698
-4 6 20 0.4043 -0.3855
-4 7 1 2.2900 -0.0054
-4 7 2 -2.0458 0.1463
-4 7 3 1.7364 -0.2367
-4 7 4 -1.4652 0.2618
-4 7 5 1.2092 -0.2250
-4 7 6 -0.8768 0.1370
-4 7 7 0.4601 -0.0274
-4 7 8 -0.1209 -0.0544
-4 7 9 0.0897 0.0729
-4 7 10 -0.4559 -0.0400
-4 7 11 1.0651 -0.0031
-4 7 12 -1.6312 0.0385
-4 7 13 1.9407 -0.0843
-4 7 14 -1.9481 0.1430
-4 7 15 1.7142 -0.1603
-4 7 16 -1.3106 0.0736
-4 7 17 0.8061 0.0936
-4 7 18 -0.3045 -0.2144
-4 7 19 -0.0620 0.1670
-4 8 1 -0.1185 -0.0898
-4 8 2 0.5224 0.0471
-4 8 3 -0.5188 0.0265
-4 8 4 0.2178 -0.0771
-4 8 5 0.1962 0.0589
-4 8 6 -0.6146 0.0164
-4 8 7 1.0132 -0.0770
-4 8 8 -1.3577 0.0575
-4 8 9 1.5403 0.0294
-4 8 10 -1.4205 -0.1002
-4 8 11 0.9355 0.0865
-4 8 12 -0.1902 -0.0025
-4 8 13 -0.5450 -0.0828
-4 8 14 0.9602 0.1270
-4 8 15 -0.8972 -0.1464
-4 8 16 0.4689 0.1704
-4 8 17 0.0181 -0.1944
-4 8 18 -0.2974 0.1967
-4 9 1 -0.2209 0.4451
-4 9 2 0.5009 -0.3175
-4 9 3 -0.8312 0.1572
-4 9 4 1.1392 -0.0474
-4 9 5 -1.2912 0.0220
-4 9 6 1.2111 -0.0433
-4 9 7 -0.9674 0.0506
-4 9 8 0.7407 -0.0289
-4 9 9 -0.6783 0.0156
-4 9 10 0.7565 -0.0379
-4 9 11 -0.7934 0.0670
-4 9 12 0.6293 -0.0548
-4 9 13 -0.3086 0.0070
-4 9 14 0.0624 0.0141
-4 9 15 -0.0889 0.0267
-4 9 16 0.3491 -0.0730
-4 9 17 -0.5941 0.0299
-4 10 1 0.0296 0.0434
-4 10 2 -0.0061 -0.0605
-4 10 3 -0.1749 0.0852
-4 10 4 0.4579 -0.0593
-4 10 5 -0.6910 -0.0137
-4 10 6 0.7506 0.0685
-4 10 7 -0.6439 -0.0559
-4 10 8 0.5049 0.0026
-4 10 9 -0.4958 0.0213
-4 10 10 0.6837 0.0124
-4 10 11 -0.9725 -0.0616
-4 10 12 1.1472 0.0718
-4 10 13 -1.0231 -0.0412
-4 10 14 0.6021 0.0096
-4 10 15 -0.0936 0.0042
-4 10 16 -0.2436 -0.0235
-4 11 1 -0.7742 -0.3374
-4 11 2 1.1441 0.1595
-4 11 3 -1.1341 0.0377
-4 11 4 0.7936 -0.1380
-4 11 5 -0.3584 0.0816
-4 11 6 0.0835 0.0875
-4 11 7 -0.0576 -0.2402
-4 11 8 0.1445 0.2584
-4 11 9 -0.1000 -0.1344
-4 11 10 -0.2167 -0.0250
-4 11 11 0.7037 0.1011
-4 11 12 -1.0780 -0.0637
-4 11 13 1.1003 -0.0310
-4 11 14 -0.7703 0.1256
-4 11 15 0.3154 -0.2159
-4 12 1 0.8523 0.3013
-4 12 2 -0.4380 -0.2521
-4 12 3 0.0796 0.1098
-4 12 4 0.0370 0.0374
-4 12 5 0.1049 -0.0861
-4 12 6 -0.3430 0.0322
-4 12 7 0.4661 0.0210
-4 12 8 -0.3781 0.0226
-4 12 9 0.1674 -0.1463
-4 12 10 -0.0307 0.2453
-4 12 11 0.1102 -0.2478
-4 12 12 -0.3686 0.1875
-4 12 13 0.6099 -0.1533
-4 13 1 -0.5769 0.1271
-4 13 2 0.2566 -0.1069
-4 13 3 -0.0126 0.1079
-4 13 4 -0.0945 -0.1189
-4 13 5 0.1318 0.0982
-4 13 6 -0.2343 -0.0369
-4 13 7 0.4855 -0.0388
-4 13 8 -0.8328 0.1206
-4 13 9 1.1026 -0.2370
-4 13 10 -1.1118 0.4074
-4 13 11 0.8049 -0.5915
-4 14 1 -0.0423 0.5658
-4 14 2 0.0849 -0.6153
-4 14 3 0.1231 0.4941
-4 14 4 -0.3778 -0.2629
-4 14 5 0.4542 0.0091
-4 14 6 -0.2898 0.1762
-4 14 7 0.0146 -0.1948
-3 -16 1 0.0245 0.2920
-3 -16 2 -0.1949 -0.1982
-3 -16 3 0.2045 0.1086
-3 -16 4 -0.0879 -0.0380
-3 -15 1 0.7065 0.2380
-3 -15 2 -0.4134 -0.1343
-3 -15 3 -0.1559 0.1010
-3 -15 4 0.6818 -0.0970
-3 -15 5 -0.8449 0.0139
-3 -15 6 0.5670 0.1812
-3 -15 7 -0.0368 -0.3653
-3 -15 8 -0.4576 0.3597
-3 -14 1 0.0039 -0.1739
-3 -14 2 -0.2817 0.0710
-3 -14 3 0.5332 -0.0387
-3 -14 4 -0.5445 0.0931
-3 -14 5 0.2715 -0.1631
-3 -14 6 0.1467 0.1544
-3 -14 7 -0.5196 -0.0230
-3 -14 8 0.7270 -0.1889
-3 -14 9 -0.7413 0.3551
-3 -14 10 0.5941 -0.3094
-3 -14 11 -0.3571 -0.0510
-3 -13 1 -0.4240 -0.0545
-3 -13 2 0.8511 -0.0865
-3 -13 3 -1.1408 0.1147
-3 -13 4 1.1176 0.0076
-3 -13 5 -0.8004 -0.1665
-3 -13 6 0.3478 0.1856
-3 -13 7 0.0500 -0.0060
-3 -13 8 -0.2393 -0.2318
-3 -13 9 0.1447 0.3081
-3 -13 10 0.1886 -0.1308
-3 -13 11 -0.5922 -0.1816
-3 -13 12 0.8579 0.4074
-3 -13 13 -0.8653 -0.3945
-3 -12 1 1.0786 0.2266
-3 -12 2 -0.6666 -0.1696
-3 -12 3 0.1417 0.0255
-3 -12 4 0.3214 0.0901
-3 -12 5 -0.5855 -0.0946
-3 -12 6 0.6219 -0.0126
-3 -12 7 -0.4727 0.1597
-3 -12 8 0.1864 -0.2369
-3 -12 9 0.1857 0.1507
-3 -12 10 -0.5577 0.0928
-3 -12 11 0.8256 -0.3349
-3 -12 12 -0.9333 0.3339
-3 -12 13 0.9076 0.0463
-3 -12 14 -0.8179 -0.6875
-3 -11 1 -1.0601 0.2474
-3 -11 2 0.7821 -0.2034
-3 -11 3 -0.2812 0.0606
-3 -11 4 -0.2716 0.0624
-3 -11 5 0.7020 -0.0687
-3 -11 6 -0.8773 -0.0246
-3 -11 7 0.7281 0.1112
-3 -11 8 -0.2840 -0.1113
-3 -11 9 -0.3167 0.0446
-3 -11 10 0.8925 0.0139
-3 -11 11 -1.3037 -0.0190
-3 -11 12 1.4645 -0.0293
-3 -11 13 -1.2947 0.1323
-3 -11 14 0.7365 -0.3039
-3 -11 15 0.1240 0.5151
-3 -11 16 -0.9776 -0.6608
-3 -10 1 -0.9016 0.1239
-3 -10 2 1.2505 -0.0495
-3 -10 3 -1.4583 -0.0005
-3 -10 4 1.5734 0.0275
-3 -10 5 -1.5427 -0.0177
-3 -10 6 1.2236 -0.0537
-3 -10 7 -0.5633 0.1635
-3 -10 8 -0.2439 -0.2211
-3 -10 9 0.8402 0.1487
-3 -10 10 -0.9821 0.0191
-3 -10 11 0.7218 -0.1476
-3 -10 12 -0.3044 0.1335
-3 -10 13 -0.0806 -0.0124
-3 -10 14 0.4084 -0.0743
-3 -10 15 -0.7123 0.0057
-3 -10 16 0.9465 0.2329
-3 -10 17 -1.0032 -0.5632
-3 -9 1 2.6075 0.2486
-3 -9 2 -3.0530 -0.2595
-3 -9 3 2.7760 0.2222
-3 -9 5 0.5251 0.1649
-3 -9 6 0.8016 -0.1250
-3 -9 7 -1.7719 0.0633
-3 -9 8 2.1454 -0.0037
-3 -9 9 -1.9188 -0.0439
-3 -9 10 1.3015 0.0982
-3 -9 11 -0.5333 -0.1607
-3 -9 12 -0.2678 0.1823
-3 -9 13 1.0464 -0.1120
-3 -9 14 -1.6285 -0.0202
-3 -9 15 1.7113 0.0993
-3 -9 16 -1.1246 -0.0204
-3 -9 17 0.0949 -0.2216
-3 -9 18 0.8348 0.5364
-3 -8 1 -2.3173 -0.0189
-3 -8 2 2.1634 0.1327
-3 -8 3 -1.9170 -0.2513
-3 -8 4 1.3355 0.2832
-3 -8 5 -0.3714 -0.1675
-3 -8 6 -0.5840 -0.0325
-3 -8 7 0.8867 0.1571
-3 -8 8 -0.1839 -0.0965
-3 -8 9 -1.2014 -0.0973
-3 -8 10 2.4718 0.2606
-3 -8 11 -2.9741 -0.2729
-3 -8 12 2.6321 0.1497
-3 -8 13 -1.8247 0.0008
-3 -8 14 0.9472 -0.0773
-3 -8 15 -0.1629 0.0355
-3 -8 16 -0.4790 0.1206
-3 -8 17 0.8488 -0.3492
-3 -8 18 -0.7755 0.5753
-3 -8 19 0.2667 -0.7192
-3 -7 1 -1.2874 -0.4000
-3 -7 2 3.9907 0.3185
-3 -7 3 -6.3765 -0.1455
-3 -7 4 7.9457 0.0010
-3 -7 5 -8.4916 0.0266
-3 -7 6 7.9439 0.0335
-3 -7 7 -6.3632 -0.0832
-3 -7 8 4.0712 0.0706
-3 -7 9 -1.6491 -0.0285
-3 -7 10 -0.3113 0.0060
-3 -7 11 1.4904 -0.0012
-3 -7 12 -1.8939 -0.0207
-3 -7 13 1.6985 0.0673
-3 -7 14 -1.1236 -0.1037
-3 -7 15 0.4303 0.0929
-3 -7 16 0.0946 -0.0277
-3 -7 17 -0.2846 -0.0757
-3 -7 18 0.2351 0.1923
-3 -7 19 -0.2166 -0.2842
-3 -7 20 0.3911 0.3090
-3 -6 1 3.7219 0.2901
-3 -6 2 -3.7716 -0.2060
-3 -6 3 3.7711 0.0817
-3 -6 4 -3.4495 -0.0250
-3 -6 5 2.4884 0.0514
-3 -6 6 -0.8572 -0.0877
-3 -6 7 -0.9502 0.0753
-3 -6 8 2.1202 -0.0301
-3 -6 12 -1.6526 0.0881
-3 -6 13 2.3803 -0.1085
-3 -6 14 -2.7625 0.0778
-3 -6 15 2.8718 -0.0188
-3 -6 16 -2.5780 -0.0154
-3 -6 17 1.7848 -0.0070
-3 -6 18 -0.7049 0.0795
-3 -6 19 -0.2044 -0.1753
-3 -6 20 0.5952 0.2596
-3 -5 1 -4.7006 0.2344
-3 -5 2 4.0334 -0.2245
-3 -5 4 -0.5566 0.0160
-3 -5 5 3.2767 -0.0534
-3 -5 6 -6.0039 -0.0515
-3 -5 7 8.3866 0.2004
-3 -5 8 -9.8029 -0.2483
-3 -5 9 9.7630 0.1519
-3 -5 10 -8.3314 -0.0006
-3 -5 13 2.2233 0.0007
-3 -5 14 -1.2272 -0.0778
-3 -5 15 0.8203 0.1271
-3 -5 16 -0.7718 -0.1356
-3 -5 17 0.8313 0.0954
-3 -5 18 -0.8313 -0.0079
-3 -5 19 0.7514 -0.1154
-3 -5 20 -0.6696 0.2675
-3 -4 1 0.6755 -0.0892
-3 -4 2 -0.3315 -0.0002
-3 -4 3 -1.2161 0.1654
-3 -4 4 2.8396 -0.2959
-3 -4 5 -3.5919 0.2993
-3 -4 6 3.0808 -0.2073
-3 -4 7 -1.5481 0.1319
-3 -4 8 -0.3109 -0.1350
-3 -4 9 1.7288 0.1731
-3 -4 10 -2.2895 -0.1726
-3 -4 11 2.1170 0.1216
-3 -4 12 -1.6573 -0.0678
-3 -4 13 1.2311 0.0465
-3 -4 14 -0.7838 -0.0459
-3 -4 15 0.0658 0.0403
-3 -4 16 0.9736 -0.0243
-3 -4 17 -2.0177 0.0018
-3 -4 18 2.6136 0.0406
-3 -4 19 -2.5496 -0.1240
-3 -4 20 2.0027 0.2485
-3 -4 22 0.8831 0.5171
-3 -3 1 -14.3883 0.1781
-3 -3 2 7.2919 0.0197
-3 -3 3 -0.9826 -0.1478
-3 -3 4 -3.4254 0.0910
-3 -3 5 5.4138 0.0981
-3 -3 6 -4.9282 -0.2500
-3 -3 7 2.4071 0.2526
-3 -3 8 1.1561 -0.1482
-3 -3 9 -4.4455 0.0557
-3 -3 10 6.3944 -0.0346
-3 -3 11 -6.7036 0.0529
-3 -3 12 5.8630 -0.0651
-3 -3 13 -4.6666 0.0749
-3 -3 14 3.6512 -0.1072
-3 -3 15 -2.8933 0.1503
-3 -3 16 2.2187 -0.1555
-3 -3 17 -1.5302 0.0870
-3 -3 18 0.9474 0.0471
-3 -3 19 -0.6839 -0.2087
-3 -3 20 0.8185 0.3505
-3 -3 22 1.4059 0.3898
-3 -2 1 20.9250 0.0813
-3 -2 2 -14.7696 -0.1992
-3 -2 3 9.7494 0.1455
-3 -2 4 -6.4330 0.0271
-3 -2 5 4.5939 -0.1546
-3 -2 6 -3.6659 0.1316
-3 -2 7 3.1285 -0.0124
-3 -2 8 -2.6319 -0.0698
-3 -2 9 1.9747 0.0559
-3 -2 10 -1.0868 -0.0002
-3 -2 11 0.0291 -0.0234
-3 -2 12 1.0352 0.0093
-3 -2 13 -1.8989 0.0013
-3 -2 14 2.3607 0.0046
-3 -2 15 -2.2765 0.0005
-3 -2 16 1.6396 -0.0291
-3 -2 17 -0.6502 0.0467
-3 -2 18 -0.3190 -0.0122
-3 -2 19 0.8976 -0.0679
-3 -2 20 -0.9281 0.1452
-3 -2 21 0.5495 -0.1780
-3 -2 22 -0.0846 0.1598
-3 -1 1 27.0486 -0.4052
-3 -1 2 -26.2670 0.4400
-3 -1 3 21.6701 -0.2694
-3 -1 4 -14.9750 0.0794
-3 -1 5 8.0158 -0.0255
-3 -1 6 -2.2125 0.0847
-3 -1 7 -1.5984 -0.1203
-3 -1 8 3.1679 0.0633
-3 -1 9 -2.8233 0.0160
-3 -1 10 1.3524 -0.0153
-3 -1 11 0.3382 -0.0683
-3 -1 12 -1.6581 0.1437
-3 -1 14 -3.1531 0.0777
-3 -1 15 3.6458 -0.0218
-3 -1 16 -3.8175 0.0089
-3 -1 17 3.3950 -0.0331
-3 -1 18 -2.3814 0.0853
-3 -1 19 1.1912 -0.1708
-3 -1 20 -0.3935 0.2862
-3 -1 21 0.2806 -0.4035
-3 -1 22 -0.6487 0.4875
-3 0 1 -18.0146 0.1379
-3 0 2 17.1886 0.0466
-3 0 3 -14.6124 -0.2134
-3 0 4 11.6949 0.2172
-3 0 5 -9.2543 -0.0719
-3 0 6 7.3586 -0.0757
-3 0 7 -5.7635 0.1125
-3 0 8 4.3486 -0.0593
-3 0 9 -3.1659 0.0021
-3 0 10 2.2364 0.0282
-3 0 11 -1.4423 -0.0691
-3 0 12 0.6384 0.1388
-3 0 13 0.1939 -0.1889
-3 0 14 -0.9364 0.1625
-3 0 15 1.4572 -0.0706
-3 0 16 -1.7108 -0.0193
-3 0 17 1.7275 0.0567
-3 0 18 -1.5466 -0.0422
-3 0 19 1.1901 -0.0100
-3 0 20 -0.7018 0.1067
-3 0 21 0.1848 -0.2461
-3 0 22 0.2243 0.3730
-3 1 1 -8.7093 0.1356
-3 1 2 15.7810 -0.2808
-3 1 3 -21.0469 0.2101
-3 1 4 23.2700 0.0024
-3 1 5 -22.2423 -0.1564
-3 1 6 18.6024 0.1303
-3 1 7 -13.4453 0.0049
-3 1 8 8.0136 -0.0899
-3 1 9 -3.4483 0.0589
-3 1 10 0.4899 0.0149
-3 1 11 0.7707 -0.0388
-3 1 12 -0.8388 0.0119
-3 1 13 0.4113 0.0035
-3 1 14 0.0749 0.0154
-3 1 15 -0.5714 -0.0236
-3 1 16 1.1730 -0.0184
-3 1 17 -1.8147 0.0815
-3 1 18 2.2376 -0.1001
-3 1 19 -2.2288 0.0525
-3 1 20 1.8462 0.0118
-3 1 21 -1.3779 -0.0226
-3 1 22 1.0789 -0.0518
-3 2 1 -1.2362 -0.4182
-3 2 2 0.3207 0.4617
-3 2 3 -0.1084 -0.2872
-3 2 4 0.0230 0.0385
-3 2 5 0.5639 0.1109
-3 2 6 -1.7114 -0.1242
-3 2 8 -3.6542 -0.0981
-3 2 9 3.8259 0.1259
-3 2 10 -3.6962 -0.1245
-3 2 11 3.5012 0.0902
-3 2 12 -3.2086 -0.0658
-3 2 13 2.6406 0.0715
-3 2 14 -1.7428 -0.0805
-3 2 15 0.6766 0.0680
-3 2 16 0.3245 -0.0491
-3 2 17 -1.1322 0.0482
-3 2 18 1.7454 -0.0527
-3 2 19 -2.1744 0.0297
-3 2 20 2.3519 0.0134
-3 2 21 -2.1810 -0.0181
-3 2 22 1.6619 -0.0561
-3 3 1 -5.3878 0.0799
-3 3 2 3.2409 -0.1215
-3 3 3 0.7096 0.1141
-3 3 4 -5.3671 -0.1352
-3 3 5 9.6039 0.1749
-3 3 6 -12.6423 -0.1638
-3 3 7 14.0673 0.0868
-3 3 8 -13.7333 -0.0211
-3 3 10 -8.8747 -0.1147
-3 3 11 5.7665 0.1439
-3 3 12 -3.2174 -0.0799
-3 3 13 1.5224 -0.0168
-3 3 14 -0.5488 0.0544
-3 3 15 0.0233 -0.0148
-3 3 16 0.2042 -0.0413
-3 3 17 -0.1379 0.0570
-3 3 18 -0.2109 -0.0341
-3 3 19 0.7095 0.0031
-3 3 20 -1.1465 0.0313
-3 3 21 1.3610 -0.0927
-3 3 22 -1.3178 0.1910
-3 4 1 0.1220 0.1634
-3 4 2 0.1872 -0.2727
-3 4 3 0.3118 0.2611
-3 4 4 -1.6181 -0.1317
-3 4 5 3.1092 -0.0026
-3 4 6 -4.0437 0.0395
-3 4 7 4.1387 0.0153
-3 4 8 -3.6643 -0.0806
-3 4 9 3.0397 0.0997
-3 4 10 -2.4166 -0.0794
-3 4 11 1.6570 0.0454
-3 4 12 -0.6352 -0.0013
-3 4 13 -0.5182 -0.0514
-3 4 14 1.4713 0.0829
-3 4 15 -1.9392 -0.0604
-3 4 16 1.8646 0.0012
-3 4 17 -1.3986 0.0312
-3 4 18 0.7586 0.0049
-3 4 19 -0.1143 -0.0814
-3 4 20 -0.4306 0.1351
-3 4 21 0.7990 -0.1369
-3 4 22 -0.9254 0.1062
-3 5 1 0.0913 0.0110
-3 5 2 -2.5496 0.0379
-3 5 3 4.1236 -0.0326
-3 5 4 -4.4858 0.0297
-3 5 5 3.7350 -0.0571
-3 5 6 -2.1621 0.0684
-3 5 7 0.0878 -0.0061
-3 5 8 2.1191 -0.1075
-3 5 9 -4.0083 0.1770
-3 5 10 5.1681 -0.1379
-3 5 11 -5.4211 0.0286
-3 5 12 4.8934 0.0550
-3 5 13 -3.8863 -0.0599
-3 5 14 2.6892 0.0106
-3 5 15 -1.4958 0.0434
-3 5 16 0.4370 -0.0798
-3 5 17 0.3702 0.0969
-3 5 18 -0.8275 -0.0860
-3 5 19 0.8987 0.0426
-3 5 20 -0.6405 0.0023
-3 5 21 0.1947 0.0060
-3 6 1 -1.9520 0.2347
-3 6 2 1.3199 -0.0795
-3 6 3 -0.4310 -0.0936
-3 6 4 -0.1446 0.1877
-3 6 5 0.0835 -0.1699
-3 6 6 0.4839 0.0810
-3 6 7 -1.1920 0.0205
-3 6 8 1.7978 -0.1002
-3 6 9 -2.2998 0.1399
-3 6 10 2.7623 -0.1244
-3 6 11 -3.1114 0.0620
-3 6 12 3.1461 -0.0010
-3 6 13 -2.7280 -0.0078
-3 6 14 1.9342 -0.0289
-3 6 15 -1.0287 0.0471
-3 6 16 0.2959 -0.0015
-3 6 17 0.1170 -0.0722
-3 6 18 -0.2440 0.0924
-3 6 19 0.2209 -0.0233
-3 6 20 -0.1629 -0.0891
-3 6 21 0.0977 0.1735
-3 7 1 2.5784 -0.0895
-3 7 2 -2.3302 0.1317
-3 7 3 1.2678 -0.2160
-3 7 4 0.1253 0.2652
-3 7 5 -1.3118 -0.2175
-3 7 6 1.9636 0.1029
-3 7 7 -2.0120 -0.0209
-3 7 8 1.5587 0.0347
-3 7 9 -0.7809 -0.1023
-3 7 10 -0.1193 0.1253
-3 7 11 0.9380 -0.0554
-3 7 12 -1.4900 -0.0646
-3 7 13 1.6459 0.1595
-3 7 14 -1.3896 -0.1932
-3 7 15 0.8605 0.1736
-3 7 16 -0.3082 -0.1173
-3 7 17 -0.0526 0.0425
-3 7 18 0.1818 0.0113
-3 7 19 -0.2103 0.0031
-3 7 20 0.2851 -0.0834
-3 8 1 1.3376 -0.0258
-3 8 2 -1.4931 0.0356
-3 8 3 1.5601 -0.0447
-3 8 4 -1.5615 0.0582
-3 8 5 1.5122 -0.0708
-3 8 6 -1.3808 0.0579
-3 8 7 1.1366 -0.0112
-3 8 8 -0.8402 -0.0378
-3 8 9 0.6487 0.0520
-3 8 10 -0.6995 -0.0412
-3 8 11 0.9849 0.0534
-3 8 12 -1.3500 -0.1073
-3 8 13 1.6052 0.1549
-3 8 14 -1.6384 -0.1349
-3 8 15 1.4430 0.0509
-3 8 16 -1.0877 0.0288
-3 8 17 0.6796 -0.0537
-3 8 18 -0.3295 0.0485
-3 8 19 0.1091 -0.0698
-3 9 1 0.6030 -0.1198
-3 9 2 -0.2728 0.1673
-3 9 3 0.3057 -0.0720
-3 9 4 -0.6282 -0.0937
-3 9 5 0.9898 0.1861
-3 9 6 -1.2124 -0.1207
-3 9 7 1.3154 -0.0442
-3 9 8 -1.4202 0.1627
-3 9 9 1.5593 -0.1399
-3 9 10 -1.5856 0.0113
-3 9 11 1.2740 0.1108
-3 9 12 -0.5413 -0.1459
-3 9 13 -0.4017 0.0913
-3 9 14 1.1248 0.0104
-3 9 15 -1.2671 -0.1105
-3 9 16 0.8162 0.1572
-3 9 17 -0.1241 -0.1018
-3 9 18 -0.3718 -0.0551
-3 10 1 0.0810 0.4264
-3 10 2 -0.2827 -0.4718
-3 10 3 0.2887 0.3374
-3 10 4 -0.1334 -0.1398
-3 10 5 -0.0236 0.0097
-3 10 6 0.0460 0.0250
-3 10 7 0.0467 -0.0348
-3 10 8 -0.0802 0.0807
-3 10 9 -0.1265 -0.1366
-3 10 10 0.5758 0.1319
-3 10 11 -1.0448 -0.0474
-3 10 12 1.2497 -0.0629
-3 10 13 -1.0868 0.1443
-3 10 14 0.7202 -0.2018
-3 10 15 -0.4274 0.2689
-3 10 16 0.3587 -0.3351
-3 10 17 -0.4453 0.3418
-3 11 1 0.8114 0.0056
-3 11 2 -1.1219 0.0361
-3 11 3 1.1713 -0.0253
-3 11 4 -0.8421 0.0259
-3 11 5 0.2715 -0.0722
-3 11 6 0.2652 0.1229
-3 11 7 -0.5674 -0.1185
-3 11 8 0.6380 0.0638
-3 11 9 -0.6413 -0.0245
-3 11 10 0.7434 0.0416
-3 11 11 -0.9610 -0.0734
-3 11 12 1.1396 0.0382
-3 11 13 -1.0873 0.0989
-3 11 14 0.7600 -0.2957
-3 11 15 -0.3264 0.4769
-3 11 16 0.0339 -0.5833
-3 12 1 0.2897 -0.2852
-3 12 2 0.1742 0.3697
-3 12 3 -0.4834 -0.2804
-3 12 4 0.5612 0.0796
-3 12 5 -0.5069 0.0655
-3 12 6 0.4945 -0.0252
-3 12 7 -0.6050 -0.1681
-3 12 8 0.7406 0.3453
-3 12 9 -0.6949 -0.3551
-3 12 10 0.3358 0.1892
-3 12 11 0.2485 0.0406
-3 12 12 -0.7788 -0.2225
-3 12 13 0.9832 0.3189
-3 12 14 -0.8005 -0.3391
-3 13 1 1.5466 -0.0638
-3 13 2 -1.2152 -0.1322
-3 13 3 0.6539 0.1983
-3 13 4 -0.1260 -0.1077
-3 13 5 -0.1649 -0.0273
-3 13 6 0.1926 0.0976
-3 13 7 -0.0821 -0.1088
-3 13 8 -0.0180 0.1409
-3 13 9 0.0547 -0.2253
-3 13 10 -0.0922 0.2988
-3 13 11 0.2267 -0.2843
-3 13 12 -0.4664 0.1877
-3 14 1 0.1373 -0.4944
-3 14 2 -0.2039 0.5069
-3 14 3 0.1196 -0.2932
-3 14 4 0.0687 -0.0349
-3 14 5 -0.2061 0.2876
-3 14 6 0.1255 -0.3369
-3 14 7 0.2256 0.1783
-3 14 8 -0.7289 0.1169
-3 14 9 1.1541 -0.4692
-3 15 1 0.0256 -0.0447
-3 15 2 0.1949 -0.1016
-3 15 3 -0.2221 0.1512
-3 15 4 0.0935 -0.1527
-3 15 5 0.0402 0.1225
-2 -16 2 0.3065 -0.6084
-2 -16 3 -0.0412 0.5910
-2 -16 4 -0.0656 -0.3775
-2 -15 1 -0.1171 -0.0279
-2 -15 2 -0.1742 0.0357
-2 -15 3 0.4314 0.0253
-2 -15 4 -0.5457 -0.1081
-2 -15 5 0.4624 0.1281
-2 -15 6 -0.2585 -0.0457
-2 -15 7 0.1064 -0.0948
-2 -15 8 -0.1324 0.1871
-2 -14 1 0.2853 0.1725
-2 -14 2 -0.3427 -0.2630
-2 -14 3 0.1687 0.3074
-2 -14 4 0.0989 -0.2626
-2 -14 5 -0.2730 0.0946
-2 -14 6 0.2432 0.1630
-2 -14 7 -0.0127 -0.3750
-2 -14 8 -0.3344 0.3760
-2 -14 9 0.6695 -0.1137
-2 -14 10 -0.8524 -0.2736
-2 -14 11 0.7927 0.5369
-2 -13 1 0.4190 -0.1758
-2 -13 2 -0.9261 0.0651
-2 -13 3 1.2931 0.0513
-2 -13 4 -1.3608 -0.0713
-2 -13 5 1.1100 -0.0181
-2 -13 6 -0.6443 0.1286
-2 -13 7 0.1114 -0.1356
-2 -13 8 0.3430 -0.0252
-2 -13 9 -0.5883 0.2842
-2 -13 10 0.5552 -0.4437
-2 -13 11 -0.3044 0.2984
-2 -13 12 0.0256 0.1877
-2 -13 13 0.0818 -0.7978
-2 -12 1 -0.4587 -0.0900
-2 -12 2 0.5918 0.0410
-2 -12 3 -0.8291 -0.0171
-2 -12 4 1.1162 0.0627
-2 -12 5 -1.3294 -0.1456
-2 -12 6 1.3145 0.1672
-2 -12 7 -1.0024 -0.0609
-2 -12 8 0.5109 -0.1231
-2 -12 9 -0.0973 0.2461
-2 -12 10 -0.0314 -0.1988
-2 -12 11 -0.1272 -0.0101
-2 -12 12 0.3973 0.2671
-2 -12 13 -0.5858 -0.4319
-2 -12 14 0.6054 0.4103
-2 -12 15 -0.4738 -0.1963
-2 -11 1 1.8584 -0.0397
-2 -11 2 -1.3703 -0.0360
-2 -11 3 0.6995 0.0113
-2 -11 4 -0.0351 0.0686
-2 -11 5 -0.5150 -0.1228
-2 -11 6 0.9048 0.0926
-2 -11 7 -1.0681 0.0258
-2 -11 8 0.9223 -0.1703
-2 -11 9 -0.4813 0.2377
-2 -11 10 -0.0745 -0.1547
-2 -11 11 0.5005 -0.0458
-2 -11 12 -0.6759 0.2258
-2 -11 13 0.6766 -0.2429
-2 -11 14 -0.6645 0.0581
-2 -11 15 0.7333 0.2515
-2 -11 16 -0.8648 -0.5679
-2 -10 1 -1.0526 -0.2071
-2 -10 2 0.7974 0.0667
-2 -10 3 -0.2803 0.0290
-2 -10 4 -0.4493 -0.0566
-2 -10 5 1.2614 0.0503
-2 -10 6 -1.8951 -0.0496
-2 -10 7 2.0573 0.0614
-2 -10 8 -1.6460 -0.0738
-2 -10 9 0.8641 0.0782
-2 -10 10 -0.0644 -0.0599
-2 -10 11 -0.5233 -0.0109
-2 -10 12 0.8770 0.1434
-2 -10 13 -1.0109 -0.2775
-2 -10 14 0.8085 0.3009
-2 -10 15 -0.1222 -0.1403
-2 -10 16 -0.9569 -0.1680
-2 -10 17 2.0029 0.5023
-2 -10 18 -2.5062 -0.7386
-2 -9 1 -1.2828 0.2714
-2 -9 2 1.2428 -0.2146
-2 -9 3 -0.9284 0.1637
-2 -9 4 0.5668 -0.0910
-2 -9 5 -0.2433 -0.0015
-2 -9 6 -0.1992 0.0536
-2 -9 7 0.9272 -0.0102
-2 -9 8 -1.8044 -0.0973
-2 -9 9 2.3928 0.1613
-2 -9 10 -2.3094 -0.0991
-2 -9 11 1.5687 -0.0670
-2 -9 12 -0.5611 0.2302
-2 -9 13 -0.2680 -0.2853
-2 -9 14 0.6872 0.1963
-2 -9 15 -0.6949 -0.0115
-2 -9 16 0.3972 -0.1586
-2 -9 17 0.0571 0.1945
-2 -9 18 -0.4814 -0.0487
-2 -9 19 0.7082 -0.2007
-2 -8 1 3.5379 0.2102
-2 -8 2 -4.8397 -0.2610
-2 -8 3 5.2624 0.1846
-2 -8 4 -4.6582 -0.0597
-2 -8 5 3.1333 -0.0341
-2 -8 6 -1.0850 0.0753
-2 -8 7 -0.8472 -0.0797
-2 -8 8 2.0560 0.0649
-2 -8 9 -2.3355 -0.0497
-2 -8 10 1.9845 0.0586
-2 -8 11 -1.4846 -0.0980
-2 -8 12 1.0620 0.1340
-2 -8 13 -0.6014 -0.1177
-2 -8 14 -0.0270 0.0372
-2 -8 15 0.6593 0.0668
-2 -8 16 -0.9433 -0.1376
-2 -8 17 0.7338 0.1331
-2 -8 18 -0.2874 -0.0221
-2 -8 19 0.0166 -0.2126
-2 -7 1 -1.8483 0.1448
-2 -7 2 0.6944 -0.1089
-2 -7 3 0.0616 -0.0428
-2 -7 4 -0.5299 0.2319
-2 -7 5 1.0538 -0.3109
-2 -7 6 -1.6640 0.2098
-2 -7 7 1.8726 -0.0169
-2 -7 8 -1.1103 -0.1043
-2 -7 9 -0.6313 0.0705
-2 -7 10 2.6481 0.0618
-2 -7 11 -4.0341 -0.1726
-2 -7 12 4.3232 0.1885
-2 -7 13 -3.6675 -0.1173
-2 -7 14 2.5191 0.0134
-2 -7 15 -1.2640 0.0672
-2 -7 16 0.1414 -0.0903
-2 -7 17 0.6541 0.0543
-2 -7 18 -0.9614 0.0190
-2 -7 19 0.7712 -0.1186
-2 -7 20 -0.2814 0.2680
-2 -6 1 0.0215 -0.1863
-2 -6 2 3.5774 0.3613
-2 -6 3 -6.9107 -0.3046
-2 -6 4 9.1677 0.1026
-2 -6 5 -10.0650 0.0654
-2 -6 6 9.6654 -0.1067
-2 -6 7 -8.2191 0.0671
-2 -6 8 6.1388 -0.0321
-2 -6 9 -3.9368 0.0239
-2 -6 10 2.0259 -0.0046
-2 -6 11 -0.5605 -0.0532
-2 -6 12 -0.4872 0.1278
-2 -6 13 1.1193 -0.1721
-2 -6 14 -1.2652 0.1531
-2 -6 15 0.9612 -0.0726
-2 -6 16 -0.4799 -0.0308
-2 -6 17 0.1619 0.0961
-2 -6 18 -0.1006 -0.0835
-2 -6 19 0.0661 0.0172
-2 -6 20 0.2085 0.0292
-2 -5 1 4.2570 0.0892
-2 -5 2 -3.5610 -0.1581
-2 -5 3 2.6208 0.1072
-2 -5 4 -1.6030 -0.0488
-2 -5 5 0.3834 0.0416
-2 -5 6 1.2443 -0.0432
-2 -5 7 -3.1168 -0.0016
-2 -5 8 4.5707 0.0744
-2 -5 9 -4.8944 -0.1111
-2 -5 10 3.9446 0.0896
-2 -5 11 -2.2759 -0.0549
-2 -5 12 0.6464 0.0575
-2 -5 13 0.5659 -0.0951
-2 -5 14 -1.4543 0.1234
-2 -5 15 2.1978 -0.1053
-2 -5 16 -2.7148 0.0384
-2 -5 17 2.7371 0.0492
-2 -5 18 -2.1485 -0.1079
-2 -5 19 1.1710 0.0851
-2 -5 20 -0.2176 0.0357
-2 -4 1 -9.1946 -0.0486
-2 -4 3 -7.4273 0.2418
-2 -4 4 3.2787 -0.1359
-2 -4 5 0.9450 -0.0121
-2 -4 6 -4.4002 0.0455
-2 -4 7 6.7922 0.0471
-2 -4 8 -8.0362 -0.1445
-2 -4 9 8.1419 0.1424
-2 -4 10 -7.2897 -0.0549
-2 -4 11 5.8425 -0.0311
-2 -4 12 -4.2137 0.0594
-2 -4 13 2.7349 -0.0407
-2 -4 14 -1.6280 0.0097
-2 -4 15 1.0135 0.0201
-2 -4 16 -0.8769 -0.0543
-2 -4 17 1.0495 0.0959
-2 -4 18 -1.2974 -0.1337
-2 -4 19 1.4673 0.1398
-2 -4 20 -1.5327 -0.0746
-2 -4 21 1.4982 -0.0836
-2 -3 2 -0.1411 0.0762
-2 -3 3 0.6024 0.0744
-2 -3 4 0.2185 -0.2569
-2 -3 5 -1.2132 0.3052
-2 -3 6 1.4166 -0.1955
-2 -3 7 -0.4301 0.0572
-2 -3 8 -1.3936 -0.0168
-2 -3 9 3.1786 0.0722
-2 -3 10 -4.1113 -0.1285
-2 -3 11 3.9825 0.1187
-2 -3 12 -3.2341 -0.0585
-2 -3 13 2.4775 0.0001
-2 -3 14 -1.9504 0.0273
-2 -3 15 1.4185 -0.0242
-2 -3 16 -0.5550 0.0013
-2 -3 17 -0.6332 0.0219
-2 -3 18 1.7507 -0.0118
-2 -3 19 -2.3322 -0.0589
-2 -3 20 2.2007 0.1814
-2 -3 21 -1.5672 -0.3156
-2 -2 1 -31.8960 0.7599
-2 -2 2 20.0990 -0.4207
-2 -2 3 -8.5851 0.0222
-2 -2 4 -0.4394 0.2016
-2 -2 6 -7.5894 0.0701
-2 -2 7 6.1047 -0.0064
-2 -2 8 -2.5658 0.0224
-2 -2 9 -1.4995 -0.0392
-2 -2 10 4.6519 0.0094
-2 -2 11 -6.1131 0.0243
-2 -2 12 6.0045 -0.0035
-2 -2 13 -5.0529 -0.0604
-2 -2 14 4.0065 0.0998
-2 -2 15 -3.2046 -0.0693
-2 -2 16 2.5578 -0.0144
-2 -2 17 -1.8401 0.1023
-2 -2 18 1.0020 -0.1553
-2 -2 19 -0.2584 0.1535
-2 -2 20 -0.0886 -0.0929
-2 -2 22 0.5299 0.1074
-2 -2 23 -0.8846 -0.1732
-2 -1 1 27.7273 -0.7015
-2 -1 2 -22.0750 0.2958
-2 -1 3 16.3807 -0.0589
-2 -1 4 -11.6452 0.0790
-2 -1 5 8.1214 -0.2105
-2 -1 6 -5.5613 0.2613
-2 -1 7 3.5974 -0.1874
-2 -1 8 -1.9751 0.0872
-2 -1 9 0.5929 -0.0474
-2 -1 10 0.5551 0.0514
-2 -1 11 -1.4598 -0.0405
-2 -1 12 2.1523 0.0126
-2 -1 13 -2.6861 -0.0174
-2 -1 14 3.0495 0.0733
-2 -1 15 -3.1056 -0.1299
-2 -1 16 2.6682 0.1247
-2 -1 17 -1.6922 -0.0510
-2 -1 18 0.4126 -0.0441
-2 -1 19 0.7222 0.1133
-2 -1 20 -1.3009 -0.1401
-2 -1 21 1.2005 0.1285
-2 -1 22 -0.6507 -0.0884
-2 -1 23 0.0675 0.0374
-2 0 1 45.0877 -0.4585
-2 0 2 -46.3068 0.5490
-2 0 3 41.3324 -0.3659
-2 0 4 -32.0728 0.1176
-2 0 5 21.0655 -0.0303
-2 0 7 2.4624 -0.2210
-2 0 8 2.5402 0.1803
-2 0 9 -4.3108 -0.0358
-2 0 10 3.6022 -0.0646
-2 0 11 -1.6694 0.0355
-2 0 12 -0.3090 0.0758
-2 0 13 1.7271 -0.1696
-2 0 14 -2.6102 0.1961
-2 0 15 3.2375 -0.1670
-2 0 16 -3.7056 0.1093
-2 0 17 3.8196 -0.0429
-2 0 18 -3.3564 -0.0043
-2 0 19 2.3952 -0.0007
-2 0 20 -1.3638 0.0646
-2 0 21 0.7400 -0.1535
-2 0 22 -0.6780 0.2234
-2 0 23 0.9072 -0.2557
-2 1 1 -8.5883 0.4649
-2 1 2 9.9361 -0.3064
-2 1 3 -9.5696 0.0043
-2 1 4 8.7069 0.2106
-2 1 5 -8.1685 -0.2350
-2 1 7 -7.5184 -0.0834
-2 1 8 6.5480 0.0560
-2 1 9 -5.0979 -0.0181
-2 1 10 3.4944 -0.0436
-2 1 11 -2.0026 0.0734
-2 1 12 0.6940 -0.0308
-2 1 13 0.4639 -0.0434
-2 1 14 -1.4685 0.0745
-2 1 15 2.2405 -0.0456
-2 1 16 -2.6812 0.0076
-2 1 17 2.7474 -0.0046
-2 1 18 -2.4795 0.0195
-2 1 19 1.9807 -0.0070
-2 1 20 -1.3783 -0.0437
-2 1 21 0.7912 0.1015
-2 1 22 -0.3074 -0.1396
-2 1 23 -0.0308 0.1646
-2 2 1 -6.8610 -0.0785
-2 2 2 15.9918 -0.2975
-2 2 3 -23.6246 0.3706
-2 2 4 28.0492 -0.1398
-2 2 5 -28.6566 -0.1456
-2 2 6 25.8659 0.2393
-2 2 7 -20.7245 -0.1210
-2 2 8 14.5466 -0.0391
-2 2 9 -8.6582 0.0952
-2 2 10 4.1127 -0.0593
-2 2 11 -1.3793 0.0317
-2 2 12 0.2359 -0.0582
-2 2 13 -0.0312 0.0933
-2 2 14 0.1533 -0.0806
-2 2 15 -0.3355 0.0240
-2 2 16 0.5938 0.0310
-2 2 17 -0.9487 -0.0518
-2 2 18 1.2563 0.0357
-2 2 19 -1.3072 0.0094
-2 2 20 1.0485 -0.0728
-2 2 21 -0.6648 0.1309
-2 2 22 0.4148 -0.1545
-2 2 23 -0.3885 0.1377
-2 3 1 -4.3453 0.6917
-2 3 3 -5.4464 -0.0032
-2 3 4 6.5245 -0.0122
-2 3 5 -6.7789 0.0982
-2 3 6 5.7075 -0.1294
-2 3 7 -3.6733 0.1068
-2 3 8 1.5023 -0.0794
-2 3 9 0.1960 0.0566
-2 3 10 -1.3253 -0.0216
-2 3 11 2.0703 -0.0134
-2 3 12 -2.5216 0.0136
-2 3 13 2.5668 0.0201
-2 3 14 -2.0788 -0.0401
-2 3 15 1.1296 0.0146
-2 3 16 0.0052 0.0256
-2 3 17 -1.0248 -0.0244
-2 3 18 1.7721 -0.0260
-2 3 19 -2.2459 0.0760
-2 3 20 2.4863 -0.0827
-2 3 21 -2.4773 0.0571
-2 3 22 2.1672 -0.0376
-2 3 23 -1.5736 0.0324
-2 4 1 -7.6102 0.3883
-2 4 3 -2.8156 0.2195
-2 4 4 -1.8611 -0.1685
-2 4 5 6.4196 0.1875
-2 4 6 -9.9456 -0.1682
-2 4 7 12.0283 0.0467
-2 4 8 -12.5824 0.1024
-2 4 9 11.7152 -0.1480
-2 4 11 7.2759 0.0740
-2 4 12 -4.8905 -0.1224
-2 4 13 3.0133 0.0639
-2 4 14 -1.7243 0.0314
-2 4 15 0.8857 -0.0842
-2 4 16 -0.3520 0.0675
-2 4 17 0.0805 -0.0011
-2 4 18 -0.0841 -0.0751
-2 4 19 0.3251 0.1142
-2 4 20 -0.6746 -0.0788
-2 4 21 0.9712 -0.0282
-2 4 22 -1.1090 0.1518
-2 5 1 1.0765 -0.5457
-2 5 2 -0.5500 0.2662
-2 5 3 0.3267 -0.0080
-2 5 5 2.3930 0.0393
-2 5 6 -3.8783 0.0487
-2 5 7 4.8418 -0.1074
-2 5 8 -5.1542 0.1302
-2 5 9 5.0430 -0.1235
-2 5 10 -4.7090 0.0786
-2 5 11 4.1199 -0.0021
-2 5 12 -3.1431 -0.0646
-2 5 13 1.8009 0.0836
-2 5 14 -0.3621 -0.0640
-2 5 15 -0.8026 0.0443
-2 5 16 1.4437 -0.0376
-2 5 17 -1.5446 0.0202
-2 5 18 1.2617 0.0203
-2 5 19 -0.7822 -0.0529
-2 5 20 0.2353 0.0398
-2 5 21 0.2910 0.0062
-2 5 22 -0.6898 -0.0289
-2 6 1 0.1511 -0.4675
-2 6 2 -2.3467 0.3499
-2 6 3 3.9520 -0.1274
-2 6 4 -4.5031 -0.0412
-2 6 5 4.0149 0.0518
-2 6 6 -2.7726 0.0449
-2 6 7 1.0821 -0.1074
-2 6 8 0.7792 0.0552
-2 6 9 -2.4898 0.0616
-2 6 10 3.6957 -0.1372
-2 6 11 -4.1595 0.1246
-2 6 12 3.8943 -0.0614
-2 6 13 -3.1411 0.0090
-2 6 14 2.2146 0.0023
-2 6 15 -1.3496 0.0259
-2 6 16 0.6470 -0.0766
-2 6 17 -0.1164 0.1183
-2 6 18 -0.2462 -0.1125
-2 6 19 0.4155 0.0502
-2 6 20 -0.3610 0.0222
-2 6 21 0.1132 -0.0400
-2 7 1 -1.5088 0.0012
-2 7 2 1.6783 -0.0292
-2 7 3 -1.1786 -0.0169
-2 7 4 0.4323 0.0814
-2 7 5 0.0203 -0.1236
-2 7 6 0.0535 0.1353
-2 7 7 -0.5066 -0.1125
-2 7 8 1.0644 0.0475
-2 7 9 -1.5772 0.0406
-2 7 10 2.0379 -0.0960
-2 7 11 -2.4359 0.0758
-2 7 12 2.6617 -0.0049
-2 7 13 -2.5696 -0.0436
-2 7 14 2.1213 0.0270
-2 7 15 -1.4648 0.0260
-2 7 16 0.8670 -0.0611
-2 7 17 -0.5437 0.0610
-2 7 18 0.5182 -0.0448
-2 7 19 -0.6273 0.0179
-2 7 20 0.6732 0.0414
-2 7 21 -0.5824 -0.1359
-2 8 1 1.0525 0.3808
-2 8 2 -1.0080 -0.3506
-2 8 3 0.2307 0.1343
-2 8 4 0.9487 0.1188
-2 8 5 -2.0440 -0.2165
-2 8 6 2.6863 0.0990
-2 8 7 -2.7393 0.1120
-2 8 8 2.2612 -0.2360
-2 8 9 -1.4149 0.1939
-2 8 10 0.4000 -0.0481
-2 8 11 0.5744 -0.0877
-2 8 12 -1.2969 0.1462
-2 8 13 1.5820 -0.1244
-2 8 14 -1.3488 0.0514
-2 8 15 0.7090 0.0299
-2 8 16 0.0419 -0.0695
-2 8 17 -0.5812 0.0406
-2 8 18 0.7600 0.0248
-2 8 19 -0.6694 -0.0579
-2 8 20 0.5131 0.0307
-2 9 1 -0.4222 0.1917
-2 9 2 0.3608 -0.2325
-2 9 3 -0.2151 0.2538
-2 9 4 0.0088 -0.2342
-2 9 5 0.2743 0.1818
-2 9 6 -0.6178 -0.1442
-2 9 7 0.9415 0.1510
-2 9 8 -1.1657 -0.1652
-2 9 9 1.2887 0.1202
-2 9 10 -1.3765 -0.0098
-2 9 11 1.4791 -0.0856
-2 9 12 -1.5708 0.0798
-2 9 13 1.5668 0.0266
-2 9 14 -1.3881 -0.1462
-2 9 15 1.0205 0.1909
-2 9 16 -0.5423 -0.1369
-2 9 17 0.1040 0.0125
-2 9 18 0.1508 0.1406
-2 9 19 -0.1819 -0.2754
-2 10 1 -0.0638 0.2855
-2 10 2 0.5274 0.0227
-2 10 3 -0.5277 -0.1219
-2 10 4 0.0205 -0.0178
-2 10 5 0.6818 0.2306
-2 10 6 -1.2045 -0.3122
-2 10 7 1.4024 0.2047
-2 10 8 -1.4088 -0.0274
-2 10 9 1.4371 -0.0604
-2 10 10 -1.5356 0.0098
-2 10 11 1.5164 0.1020
-2 10 12 -1.1338 -0.1685
-2 10 13 0.3626 0.1411
-2 10 14 0.4884 -0.0381
-2 10 15 -0.9714 -0.0822
-2 10 16 0.8555 0.1412
-2 10 17 -0.3180 -0.0683
-2 10 18 -0.2146 -0.1405
-2 11 1 -1.1823 -0.4863
-2 11 2 0.5929 0.1069
-2 11 3 -0.0680 0.0606
-2 11 4 -0.2833 -0.0334
-2 11 5 0.4920 -0.0263
-2 11 6 -0.6493 0.0021
-2 11 7 0.7863 0.0751
-2 11 8 -0.8102 -0.1042
-2 11 9 0.5699 0.0503
-2 11 10 -0.0168 0.0255
-2 11 11 -0.6844 -0.0542
-2 11 12 1.2297 0.0367
-2 11 13 -1.3921 -0.0170
-2 11 14 1.1838 0.0073
-2 11 15 -0.8137 0.0295
-2 11 16 0.5015 -0.1250
-2 11 17 -0.3374 0.2607
-2 12 1 -0.4017 -0.4499
-2 12 2 -0.1716 0.4483
-2 12 3 0.7772 -0.3346
-2 12 4 -1.0559 0.1988
-2 12 5 0.8968 -0.1150
-2 12 6 -0.4603 0.0655
-2 12 7 0.0004 0.0148
-2 12 8 0.3346 -0.1346
-2 12 9 -0.5710 0.2169
-2 12 10 0.8196 -0.1854
-2 12 11 -1.1212 0.0597
-2 12 12 1.3651 0.0506
-2 12 13 -1.3691 -0.0380
-2 12 14 1.0588 -0.1259
-2 12 15 -0.5741 0.3874
-2 13 1 0.4145 0.4378
-2 13 2 -0.2409 0.0027
-2 13 3 0.0405 -0.3258
-2 13 4 0.1005 0.3375
-2 13 5 -0.2053 -0.0996
-2 13 6 0.3753 -0.1528
-2 13 7 -0.6727 0.2386
-2 13 8 1.0215 -0.1694
-2 13 9 -1.2246 0.0826
-2 13 10 1.1062 -0.0792
-2 13 11 -0.6738 0.1517
-2 13 12 0.1482 -0.2443
-2 13 13 0.1917 0.3331
-2 14 1 1.3222 -0.0926
-2 14 2 -1.4135 -0.1633
-2 14 3 1.1557 0.2876
-2 14 4 -0.6834 -0.1723
-2 14 5 0.1851 -0.0727
-2 14 6 0.2082 0.2420
-2 14 7 -0.4594 -0.2315
-2 14 8 0.5911 0.1020
-2 14 9 -0.6295 0.0233
-2 14 10 0.5697 -0.0818
-2 14 11 -0.3900 0.0886
-2 15 1 0.0155 0.3674
-2 15 2 -0.1085 0.1365
-2 15 3 0.1059 -0.3795
-2 15 4 0.0352 0.3280
-2 15 5 -0.2415 -0.1113
-2 15 6 0.3607 -0.1108
-2 15 7 -0.2754 0.2417
-1 -16 1 0.2649 0.0880
-1 -16 2 0.1036 -0.3436
-1 -16 3 -0.2646 0.4421
-1 -16 4 0.1976 -0.4351
-1 -15 1 -0.8459 -0.1993
-1 -15 2 0.7863 0.2125
-1 -15 3 -0.6499 -0.1469
-1 -15 4 0.5352 0.0630
-1 -15 5 -0.4852 -0.0088
-1 -15 6 0.5131 0.0350
-1 -15 7 -0.6227 -0.1954
-1 -15 8 0.7711 0.4896
-1 -14 1 -0.4331 -0.2419
-1 -14 2 0.3606 0.4516
-1 -14 3 -0.1540 -0.4296
-1 -14 4 -0.0285 0.1750
-1 -14 5 0.0647 0.1284
-1 -14 6 0.0215 -0.2571
-1 -14 7 -0.0884 0.1221
-1 -14 8 0.0191 0.1601
-1 -14 9 0.1700 -0.3399
-1 -14 10 -0.3605 0.2018
-1 -14 11 0.4481 0.2749
-1 -13 1 -0.1092 -0.6411
-1 -13 2 0.2890 0.2798
-1 -13 3 -0.3513 0.0398
-1 -13 4 0.2301 -0.1863
-1 -13 5 -0.0055 0.1183
-1 -13 6 -0.1786 0.1069
-1 -13 7 0.2619 -0.3486
-1 -13 8 -0.3135 0.4396
-1 -13 9 0.4252 -0.2823
-1 -13 10 -0.5783 -0.0754
-1 -13 11 0.6436 0.4460
-1 -13 12 -0.5126 -0.5958
-1 -13 13 0.2115 0.3773
-1 -12 1 0.0562 -0.2048
-1 -12 2 -0.7708 0.1663
-1 -12 3 1.3845 -0.0102
-1 -12 4 -1.7777 -0.1207
-1 -12 5 1.9157 0.1127
-1 -12 6 -1.7849 0.0293
-1 -12 7 1.3723 -0.1856
-1 -12 8 -0.7463 0.2114
-1 -12 9 0.1211 -0.0526
-1 -12 10 0.2401 -0.1944
-1 -12 11 -0.2370 0.3395
-1 -12 12 0.0398 -0.2451
-1 -12 13 0.0396 -0.0615
-1 -12 14 0.1939 0.4122
-1 -12 15 -0.6671 -0.6323
-1 -11 1 -1.0998 0.4581
-1 -11 2 1.0328 -0.3221
-1 -11 3 -0.9350 0.1541
-1 -11 4 0.9983 -0.0073
-1 -11 5 -1.2252 -0.0982
-1 -11 6 1.3925 0.1497
-1 -11 7 -1.2535 -0.1331
-1 -11 8 0.7880 0.0534
-1 -11 9 -0.2347 0.0503
-1 -11 10 -0.1218 -0.1194
-1 -11 11 0.1733 0.1068
-1 -11 12 -0.0061 -0.0070
-1 -11 13 -0.2417 -0.1260
-1 -11 14 0.4839 0.1934
-1 -11 15 -0.6629 -0.1167
-1 -11 16 0.6990 -0.0827
-1 -10 1 1.3342 0.3460
-1 -10 2 -0.8469 -0.3569
-1 -10 3 0.2193 0.2704
-1 -10 4 0.3890 -0.1287
-1 -10 5 -0.9666 0.0034
-1 -10 6 1.5303 0.0536
-1 -10 7 -1.9415 -0.0330
-1 -10 8 1.9324 -0.0356
-1 -10 9 -1.3665 0.1018
-1 -10 10 0.4416 -0.1246
-1 -10 11 0.4183 0.0983
-1 -10 12 -0.8867 -0.0453
-1 -10 13 0.9407 -0.0156
-1 -10 14 -0.7826 0.0765
-1 -10 15 0.6270 -0.1008
-1 -10 16 -0.5882 0.0021
-1 -10 17 0.7000 0.2888
-1 -10 18 -0.9378 -0.7120
-1 -9 1 -1.4912 -0.2027
-1 -9 2 1.4652 0.1063
-1 -9 3 -1.0713 0.0546
-1 -9 4 0.3237 -0.1706
-1 -9 5 0.7050 0.1824
-1 -9 6 -1.7213 -0.1061
-1 -9 7 2.2831 0.0033
-1 -9 8 -2.1385 0.0600
-1 -9 9 1.4796 -0.0473
-1 -9 10 -0.7835 -0.0203
-1 -9 11 0.3777 0.0682
-1 -9 12 -0.2011 -0.0224
-1 -9 13 0.0127 -0.1225
-1 -9 14 0.2281 0.2903
-1 -9 15 -0.2665 -0.3728
-1 -9 16 -0.1583 0.2876
-1 -9 17 0.9883 0.0008
-1 -9 18 -1.8395 -0.4661
-1 -8 1 -2.6741 -0.1209
-1 -8 2 2.9111 0.1445
-1 -8 3 -2.4342 -0.0365
-1 -8 4 1.5538 -0.0964
-1 -8 5 -0.5829 0.1238
-1 -8 6 -0.4542 -0.0240
-1 -8 7 1.6948 -0.1003
-1 -8 8 -3.0656 0.1300
-1 -8 9 4.1464 -0.0421
-1 -8 10 -4.4589 -0.0789
-1 -8 11 3.8649 0.1210
-1 -8 12 -2.6610 -0.0367
-1 -8 13 1.3343 -0.1184
-1 -8 14 -0.2852 0.2188
-1 -8 15 -0.2662 -0.1603
-1 -8 16 0.2671 -0.0506
-1 -8 17 0.1481 0.2931
-1 -8 18 -0.6607 -0.4420
-1 -8 19 0.9293 0.4912
-1 -7 1 3.9324 -0.5351
-1 -7 2 -5.9281 0.2966
-1 -7 3 6.9550 -0.1937
-1 -7 4 -6.8207 0.2011
-1 -7 5 5.5150 -0.2255
-1 -7 6 -3.3229 0.2092
-1 -7 7 0.9309 -0.1519
-1 -7 8 0.8056 0.0752
-1 -7 9 -1.3982 0.0001
-1 -7 10 1.0682 -0.0539
-1 -7 11 -0.4911 0.0713
-1 -7 12 0.1656 -0.0529
-1 -7 13 -0.0555 0.0116
-1 -7 14 -0.1651 0.0381
-1 -7 15 0.6185 -0.0754
-1 -7 16 -1.0714 0.0634
-1 -7 17 1.2448 0.0227
-1 -7 18 -1.1533 -0.1432
-1 -7 19 1.0637 0.1933
-1 -7 20 -1.1641 -0.0962
-1 -6 1 -1.2642 -0.3122
-1 -6 2 -1.0181 -0.0164
-1 -6 3 2.8243 0.1626
-1 -6 4 -3.7437 -0.0572
-1 -6 5 4.0594 -0.1546
-1 -6 6 -4.2156 0.2620
-1 -6 7 4.2152 -0.1843
-1 -6 8 -3.6294 0.0142
-1 -6 9 2.1554 0.1046
-1 -6 10 -0.0569 -0.1103
-1 -6 11 -1.9765 0.0449
-1 -6 12 3.3338 0.0170
-1 -6 13 -3.8099 -0.0347
-1 -6 14 3.5356 0.0139
-1 -6 15 -2.7500 0.0207
-1 -6 16 1.6935 -0.0606
-1 -6 17 -0.6131 0.1310
-1 -6 18 -0.2780 -0.2608
-1 -6 19 0.8899 0.4175
-1 -6 20 -1.2563 -0.4779
-1 -6 21 1.4187 0.3086
-1 -5 1 4.4187 0.9361
-1 -5 2 0.3452 -0.3514
-1 -5 3 -5.3174 -0.0225
-1 -5 4 9.0303 0.0867
-1 -5 5 -10.7301 0.0195
-1 -5 6 10.3808 -0.1153
-1 -5 7 -8.4798 0.1365
-1 -5 8 5.8505 -0.1220
-1 -5 9 -3.3508 0.1124
-1 -5 10 1.5058 -0.0980
-1 -5 11 -0.3275 0.0493
-1 -5 12 -0.4669 0.0368
-1 -5 13 1.0304 -0.1265
-1 -5 14 -1.2191 0.1697
-1 -5 15 0.8595 -0.1320
-1 -5 16 -0.1064 0.0247
-1 -5 17 -0.5737 0.0909
-1 -5 18 0.7983 -0.1502
-1 -5 19 -0.5939 0.1491
-1 -5 20 0.2953 -0.1497
-1 -5 21 -0.1690 0.1990
-1 -5 22 0.1923 -0.2530
-1 -4 1 6.0282 0.2761
-1 -4 2 -4.4655 -0.3770
-1 -4 3 2.3729 0.2834
-1 -4 4 -0.3792 -0.1475
-1 -4 5 -1.1834 0.0895
-1 -4 6 2.4741 -0.0909
-1 -4 7 -3.7291 0.0684
-1 -4 8 4.7848 -0.0014
-1 -4 9 -5.1385 -0.0491
-1 -4 10 4.4828 0.0305
-1 -4 11 -3.0851 0.0350
-1 -4 12 1.5776 -0.0807
-1 -4 13 -0.4147 0.0662
-1 -4 14 -0.4090 -0.0057
-1 -4 15 1.1390 -0.0544
-1 -4 16 -1.8649 0.0669
-1 -4 17 2.3862 -0.0072
-1 -4 18 -2.4183 -0.1057
-1 -4 19 1.8706 0.2066
-1 -4 20 -0.9407 -0.2253
-1 -4 21 0.0046 0.1447
-1 -4 22 0.5817 -0.0110
-1 -3 2 15.0356 0.0067
-1 -3 5 -6.0993 0.1799
-1 -3 6 0.2967 -0.0494
-1 -3 7 4.1090 0.0258
-1 -3 8 -6.5983 -0.0701
-1 -3 9 7.3093 0.0970
-1 -3 10 -6.7682 -0.0886
-1 -3 11 5.5746 0.0881
-1 -3 12 -4.1524 -0.1165
-1 -3 13 2.7091 0.1357
-1 -3 14 -1.3839 -0.0953
-1 -3 15 0.3721 -0.0078
-1 -3 16 0.1323 0.1220
-1 -3 17 -0.0860 -0.1790
-1 -3 18 -0.3634 0.1377
-1 -3 19 0.9885 -0.0150
-1 -3 20 -1.5959 -0.1121
-1 -3 21 2.0282 0.1530
-1 -3 22 -2.1313 -0.0810
-1 -3 23 1.8128 -0.0298
-1 -2 3 -0.3619 -0.2955
-1 -2 4 -0.1783 0.0698
-1 -2 5 -0.1567 0.1417
-1 -2 6 0.4518 -0.1784
-1 -2 7 0.0775 0.0813
-1 -2 8 -1.6178 0.0100
-1 -2 9 3.5892 -0.0198
-1 -2 10 -5.0258 -0.0235
-1 -2 11 5.2779 0.0631
-1 -2 12 -4.4515 -0.0778
-1 -2 13 3.2132 0.0703
-1 -2 14 -2.1801 -0.0389
-1 -2 15 1.4788 -0.0156
-1 -2 16 -0.8219 0.0713
-1 -2 17 -0.0692 -0.1003
-1 -2 18 1.1332 0.1008
-1 -2 19 -1.9944 -0.0929
-1 -2 20 2.2609 0.0845
-1 -2 21 -1.8254 -0.0581
-1 -2 22 0.9548 -0.0015
-1 -2 23 -0.1198 0.0812
-1 -1 1 -56.6180 0.6841
-1 -1 2 41.9949 -0.4253
-1 -1 3 -25.4097 0.0465
-1 -1 4 10.3176 0.2124
-1 -1 5 0.9824 -0.2412
-1 -1 8 -7.6516 0.0888
-1 -1 9 3.7953 -0.0992
-1 -1 10 0.3895 0.0413
-1 -1 11 -3.5152 0.0451
-1 -1 12 4.9960 -0.0746
-1 -1 13 -5.0626 0.0227
-1 -1 14 4.3810 0.0561
-1 -1 15 -3.5612 -0.0989
-1 -1 16 2.8628 0.0913
-1 -1 17 -2.2199 -0.0546
-1 -1 18 1.4869 0.0091
-1 -1 19 -0.6808 0.0335
-1 -1 20 0.0228 -0.0599
-1 -1 21 0.2458 0.0579
-1 -1 22 -0.0944 -0.0290
-1 -1 23 -0.2475 -0.0161
-1 0 1 16.3513 -1.4553
-1 0 2 -13.5466 0.9349
-1 0 3 10.7049 -0.4030
-1 0 4 -8.5324 0.1164
-1 0 5 7.1375 -0.0628
-1 0 6 -6.1608 0.0755
-1 0 8 -3.7034 0.0272
-1 0 9 1.9143 -0.0485
-1 0 10 -0.0195 0.0872
-1 0 11 -1.6201 -0.0736
-1 0 12 2.7652 -0.0004
-1 0 13 -3.4089 0.0664
-1 0 14 3.6933 -0.0649
-1 0 15 -3.7183 0.0108
-1 0 16 3.4353 0.0360
-1 0 17 -2.7366 -0.0408
-1 0 18 1.6487 0.0152
-1 0 19 -0.4336 0.0127
-1 0 20 -0.5108 -0.0247
-1 0 21 0.8864 0.0094
-1 0 22 -0.6891 0.0395
-1 0 23 0.2114 -0.1095
-1 1 2 -55.6457 0.5336
-1 1 3 54.3509 -0.2746
-1 1 4 -46.7668 -0.0850
-1 1 5 35.4870 0.2593
-1 1 7 12.2017 -0.0520
-1 1 8 -3.8343 0.1464
-1 1 9 -1.1927 -0.0643
-1 1 10 3.0363 -0.0814
-1 1 11 -2.5950 0.1588
-1 1 12 1.1203 -0.1350
-1 1 13 0.3417 0.0579
-1 1 14 -1.3206 0.0196
-1 1 15 1.8693 -0.0677
-1 1 16 -2.2040 0.0669
-1 1 17 2.3825 -0.0128
-1 1 18 -2.2775 -0.0605
-1 1 19 1.8016 0.0920
-1 1 20 -1.1082 -0.0483
-1 1 21 0.5375 -0.0408
-1 1 22 -0.3439 0.1130
-1 1 23 0.4733 -0.1325
-1 2 1 3.7592 0.2715
-1 2 2 -2.8760 -0.3808
-1 2 3 3.1293 0.2399
-1 2 4 -3.4160 -0.0533
-1 2 5 2.7551 -0.0281
-1 2 6 -1.0441 0.0235
-1 2 7 -1.0043 -0.0226
-1 2 8 2.5170 0.0423
-1 2 9 -3.0537 -0.0248
-1 2 10 2.7211 -0.0528
-1 2 11 -1.8930 0.1310
-1 2 12 0.8873 -0.1443
-1 2 13 0.1527 0.1050
-1 2 14 -1.1756 -0.0795
-1 2 15 2.0922 0.0951
-1 2 16 -2.7377 -0.1076
-1 2 17 2.9519 0.0657
-1 2 18 -2.6958 0.0187
-1 2 19 2.0984 -0.0775
-1 2 20 -1.3941 0.0510
-1 2 21 0.7987 0.0705
-1 2 22 -0.4113 -0.2525
-1 2 23 0.1969 0.4394
-1 3 1 0.5360 -0.9137
-1 3 2 8.5108 0.1954
-1 3 3 -17.0981 0.2826
-1 3 4 23.1377 -0.3243
-1 3 5 -25.6299 0.0940
-1 3 6 24.7094 0.0962
-1 3 7 -21.2192 -0.0887
-1 3 8 16.2776 -0.0343
-1 3 9 -11.0403 0.1149
-1 3 10 6.5255 -0.1019
-1 3 11 -3.3735 0.0647
-1 3 12 1.6600 -0.0774
-1 3 13 -0.9723 0.1399
-1 3 14 0.7517 -0.1992
-1 3 15 -0.6407 0.2077
-1 3 16 0.5756 -0.1501
-1 3 17 -0.6095 0.0433
-1 3 18 0.6988 0.0634
-1 3 19 -0.6777 -0.1043
-1 3 20 0.4259 0.0451
-1 3 21 -0.0280 0.0744
-1 3 22 -0.2685 -0.1647
-1 3 23 0.2776 0.1665
-1 4 1 -5.1682 1.8658
-1 4 2 5.7143 -1.1513
-1 4 3 -6.9854 0.5363
-1 4 4 8.8422 -0.1960
-1 4 5 -10.3147 0.0801
-1 4 7 -9.2631 0.0854
-1 4 8 7.2679 -0.0986
-1 4 9 -5.2680 0.0738
-1 4 10 3.6033 0.0019
-1 4 11 -2.1802 -0.0823
-1 4 12 0.8443 0.0940
-1 4 13 0.3168 -0.0188
-1 4 14 -1.0121 -0.0793
-1 4 15 1.0257 0.1235
-1 4 16 -0.4366 -0.1015
-1 4 17 -0.4154 0.0612
-1 4 18 1.1623 -0.0438
-1 4 19 -1.6201 0.0468
-1 4 20 1.8145 -0.0503
-1 4 21 -1.8443 0.0523
-1 4 22 1.7470 -0.0605
-1 4 23 -1.4922 0.0669
-1 5 1 -7.6286 1.1416
-1 5 2 7.9152 -0.8051
-1 5 3 -5.7843 0.3666
-1 5 4 2.0484 -0.0860
-1 5 5 2.0124 0.0449
-1 5 6 -5.3445 -0.1072
-1 5 7 7.4491 0.0963
-1 5 8 -8.2731 0.0201
-1 5 9 7.9763 -0.1304
-1 5 10 -6.8286 0.1288
-1 5 11 5.2102 -0.0259
-1 5 12 -3.5574 -0.0830
-1 5 13 2.2196 0.1208
-1 5 14 -1.3408 -0.0855
-1 5 15 0.8677 0.0314
-1 5 16 -0.6630 -0.0217
-1 5 17 0.6157 0.0871
-1 5 18 -0.6715 -0.1975
-1 5 19 0.7884 0.2653
-1 5 20 -0.8923 -0.2055
-1 5 21 0.8931 0.0220
-1 5 22 -0.7523 0.1723
-1 6 1 0.5373 -0.8486
-1 6 2 -0.5725 0.6934
-1 6 3 0.2205 -0.3793
-1 6 4 -0.2402 0.1006
-1 6 5 0.9332 0.0545
-1 6 6 -2.0004 -0.1003
-1 6 7 2.9418 0.0746
-1 6 8 -3.5133 -0.0057
-1 6 9 3.8097 -0.0674
-1 6 10 -4.0012 0.0948
-1 6 11 4.0799 -0.0589
-1 6 12 -3.8680 -0.0034
-1 6 13 3.2326 0.0442
-1 6 14 -2.2621 -0.0573
-1 6 15 1.2426 0.0709
-1 6 16 -0.4697 -0.0952
-1 6 17 0.0660 0.1076
-1 6 18 0.0466 -0.0971
-1 6 19 -0.0208 0.0969
-1 6 20 -0.0574 -0.1491
-1 6 21 0.1881 0.2457
-1 6 22 -0.3605 -0.3275
-1 7 1 0.2320 -1.0605
-1 7 2 -1.8546 0.8460
-1 7 3 3.0122 -0.3959
-1 7 4 -3.2644 -0.0490
-1 7 5 2.6434 0.2646
-1 7 6 -1.4866 -0.2168
-1 7 7 0.1360 0.0552
-1 7 8 1.1919 0.0481
-1 7 9 -2.3357 -0.0381
-1 7 10 3.1051 -0.0266
-1 7 11 -3.3229 0.0695
-1 7 12 2.9417 -0.0629
-1 7 13 -2.1075 0.0239
-1 7 14 1.1037 0.0149
-1 7 15 -0.2158 -0.0237
-1 7 16 -0.3929 -0.0075
-1 7 17 0.7183 0.0533
-1 7 18 -0.8474 -0.0700
-1 7 19 0.8488 0.0510
-1 7 20 -0.7263 -0.0547
-1 7 21 0.4751 0.1469
-1 8 1 -0.0661 -0.6415
-1 8 2 0.7740 0.4328
-1 8 3 -0.9598 -0.2251
-1 8 4 0.7119 0.0547
-1 8 5 -0.4201 0.0388
-1 8 6 0.4037 -0.0325
-1 8 7 -0.6961 -0.0374
-1 8 8 1.1217 0.0886
-1 8 9 -1.4991 -0.0715
-1 8 10 1.7546 0.0211
-1 8 11 -1.8888 -0.0110
-1 8 12 1.8942 0.0630
-1 8 13 -1.7274 -0.1232
-1 8 14 1.3620 0.1283
-1 8 15 -0.8677 -0.0710
-1 8 16 0.4241 -0.0104
-1 8 17 -0.2216 0.0829
-1 8 18 0.3122 -0.1336
-1 8 19 -0.5515 0.1464
-1 8 20 0.7127 -0.1028
-1 8 21 -0.6754 0.0207
-1 9 1 0.7972 0.4994
-1 9 2 -0.6772 -0.6245
-1 9 3 -0.0840 0.4709
-1 9 4 1.2546 -0.1351
-1 9 5 -2.4086 -0.1416
-1 9 6 3.1632 0.1819
-1 9 7 -3.3283 -0.0117
-1 9 8 2.9265 -0.1953
-1 9 9 -2.1267 0.2851
-1 9 10 1.1441 -0.2268
-1 9 11 -0.1667 0.0830
-1 9 12 -0.6550 0.0713
-1 9 13 1.1802 -0.1863
-1 9 14 -1.2948 0.2342
-1 9 15 0.9959 -0.2104
-1 9 16 -0.4535 0.1398
-1 9 17 -0.0614 -0.0553
-1 9 18 0.3492 -0.0380
-1 9 19 -0.3969 0.1566
-1 9 20 0.3283 -0.2832
-1 10 1 -0.6832 0.5769
-1 10 2 1.0269 -0.4694
-1 10 3 -1.2526 0.3545
-1 10 4 1.3352 -0.2065
-1 10 5 -1.2015 0.0372
-1 10 6 0.8172 0.0751
-1 10 7 -0.2607 -0.0618
-1 10 8 -0.3144 -0.0429
-1 10 9 0.7819 0.1165
-1 10 10 -1.1024 -0.0690
-1 10 11 1.3011 -0.0661
-1 10 12 -1.4105 0.1734
-1 10 13 1.4314 -0.1754
-1 10 14 -1.3255 0.0982
-1 10 15 1.0493 -0.0309
-1 10 16 -0.6208 0.0487
-1 10 17 0.1641 -0.1710
-1 10 18 0.1415 0.3574
-1 10 19 -0.1963 -0.5165
-1 11 1 0.5756 1.3411
-1 11 2 0.1949 -0.7394
-1 11 3 -0.6898 0.2235
-1 11 4 0.5888 -0.0045
-1 11 5 0.0025 0.0377
-1 11 6 -0.6995 -0.1160
-1 11 7 1.1546 0.0904
-1 11 8 -1.2885 0.0108
-1 11 9 1.2765 -0.0601
-1 11 10 -1.3278 -0.0084
-1 11 11 1.4544 0.1372
-1 11 12 -1.4484 -0.2169
-1 11 13 1.1022 0.1834
-1 11 14 -0.4629 -0.0474
-1 11 15 -0.1496 -0.1309
-1 11 16 0.4023 0.2681
-1 11 17 -0.2341 -0.2837
-1 11 18 -0.1140 0.1509
-1 12 1 -1.1069 -0.9974
-1 12 2 0.6265 0.4872
-1 12 3 -0.1009 -0.1249
-1 12 4 -0.3283 0.0368
-1 12 5 0.6004 -0.1021
-1 12 6 -0.7496 0.1322
-1 12 7 0.8505 -0.0601
-1 12 8 -0.9239 -0.0450
-1 12 9 0.8940 0.1033
-1 12 10 -0.6649 -0.1119
-1 12 11 0.2510 0.1068
-1 12 12 0.1879 -0.0842
-1 12 13 -0.4613 -0.0020
-1 12 14 0.4968 0.1682
-1 12 15 -0.3681 -0.3545
-1 12 16 0.1959 0.4573
-1 13 1 -1.2396 -0.9728
-1 13 2 0.9389 0.8085
-1 13 3 -0.3091 -0.4799
-1 13 4 -0.3050 0.1632
-1 13 5 0.6548 -0.0080
-1 13 6 -0.7080 0.0140
-1 13 7 0.5882 -0.0545
-1 13 8 -0.4279 0.0186
-1 13 9 0.2608 0.0865
-1 13 10 -0.0287 -0.1721
-1 13 11 -0.3092 0.1767
-1 13 12 0.6699 -0.1193
-1 13 13 -0.8640 0.0633
-1 13 14 0.7501 -0.0599
-1 14 1 0.3782 0.7980
-1 14 2 -0.1540 -0.5401
-1 14 3 -0.1142 0.1368
-1 14 4 0.2869 0.1007
-1 14 5 -0.3038 -0.0626
-1 14 6 0.2298 -0.1065
-1 14 7 -0.1985 0.1986
-1 14 8 0.2893 -0.1507
-1 14 9 -0.4399 0.0625
-1 14 10 0.4882 -0.0515
-1 14 11 -0.3286 0.1332
-1 14 12 0.0329 -0.2443
-1 15 1 0.9222 -0.5231
-1 15 2 -1.0528 -0.0108
-1 15 3 0.9585 0.4546
-1 15 4 -0.7163 -0.5289
-1 15 5 0.4294 0.2278
-1 15 6 -0.1678 0.2036
-1 15 7 -0.0374 -0.4870
-1 15 8 0.1759 0.5018
-1 15 9 -0.2445 -0.3055
-1 16 1 -0.1378 1.3681
-1 16 2 0.3670 -1.0101
0 -16 1 -0.1658 0.5936
0 -16 2 0.4853 0.1232
0 -16 3 -0.5792 -0.6094
0 -15 1 0.5326 0.3639
0 -15 2 -0.2481 -0.5456
0 -15 3 0.1030 0.4104
0 -15 4 -0.1440 -0.0876
0 -15 5 0.2702 -0.1421
0 -15 6 -0.3359 0.0793
0 -15 7 0.2799 0.2386
0 -15 8 -0.1577 -0.5674
0 -14 1 -0.5124 0.4799
0 -14 2 0.3477 -0.1220
0 -14 3 -0.3659 -0.1301
0 -14 4 0.4993 0.2268
0 -14 5 -0.5579 -0.1648
0 -14 6 0.4451 0.0039
0 -14 7 -0.2711 0.1260
0 -14 8 0.2300 -0.0897
0 -14 9 -0.3723 -0.1437
0 -14 10 0.5199 0.4412
0 -14 11 -0.4221 -0.5711
0 -13 1 -0.5232 0.4863
0 -13 2 0.5905 0.0028
0 -13 3 -0.5796 -0.3353
0 -13 4 0.6267 0.2966
0 -13 5 -0.7867 0.0369
0 -13 6 0.9628 -0.3748
0 -13 7 -0.9885 0.4473
0 -13 8 0.7858 -0.2065
0 -13 9 -0.4369 -0.1491
0 -13 10 0.1008 0.3270
0 -13 11 0.1218 -0.1485
0 -13 12 -0.2365 -0.3362
0 -13 13 0.2947 0.8989
0 -12 1 0.7135 -1.5903
0 -12 2 0.1083 0.9931
0 -12 3 -0.7503 -0.3521
0 -12 4 0.9162 -0.0988
0 -12 5 -0.6792 0.2671
0 -12 6 0.3470 -0.1967
0 -12 7 -0.1473 0.0119
0 -12 8 0.0571 0.1438
0 -12 9 0.0817 -0.1579
0 -12 10 -0.3312 -0.0090
0 -12 11 0.5718 0.2919
0 -12 12 -0.6214 -0.5201
0 -12 13 0.4002 0.4815
0 -12 14 0.0206 -0.0584
0 -12 15 -0.4875 -0.6446
0 -11 1 0.4385 -0.6541
0 -11 2 -0.9336 0.5666
0 -11 3 1.3197 -0.3123
0 -11 4 -1.6096 0.0221
0 -11 5 1.8555 0.1600
0 -11 6 -2.0004 -0.1744
0 -11 7 1.8598 0.0713
0 -11 8 -1.3138 0.0382
0 -11 9 0.5095 -0.0630
0 -11 10 0.1834 -0.0121
0 -11 11 -0.4596 0.1341
0 -11 12 0.3314 -0.2334
0 -11 13 -0.1084 0.2602
0 -11 14 0.1406 -0.1748
0 -11 15 -0.5630 -0.0634
0 -11 16 1.2211 0.4491
0 -10 1 -0.4692 0.4772
0 -10 2 0.6710 -0.3972
0 -10 3 -0.6826 0.2193
0 -10 4 0.7342 -0.0772
0 -10 5 -0.9156 0.0229
0 -10 6 1.0569 -0.0222
0 -10 7 -0.9218 0.0219
0 -10 8 0.4947 -0.0084
0 -10 9 -0.0280 0.0118
0 -10 10 -0.1982 -0.0585
0 -10 11 0.1189 0.1272
0 -10 12 0.1263 -0.1593
0 -10 13 -0.3900 0.1252
0 -10 14 0.6388 -0.0719
0 -10 15 -0.8888 0.0758
0 -10 16 1.0932 -0.1373
0 -10 17 -1.1451 0.1496
0 -10 18 0.9727 -0.0164
0 -9 1 1.3912 0.8618
0 -9 2 -0.8216 -0.7011
0 -9 3 0.0526 0.4271
0 -9 4 0.6556 -0.1533
0 -9 5 -1.2869 -0.0123
0 -9 6 1.9562 0.0403
0 -9 7 -2.6109 0.0127
0 -9 8 2.9476 -0.0597
0 -9 9 -2.6800 0.0527
0 -9 10 1.8560 -0.0153
0 -9 11 -0.8563 0.0149
0 -9 12 0.0851 -0.0888
0 -9 13 0.3002 0.1862
0 -9 14 -0.3817 -0.2026
0 -9 15 0.3083 0.0967
0 -9 16 -0.2004 0.0294
0 -9 17 0.1698 -0.0035
0 -9 18 -0.3098 -0.2412
0 -9 19 0.5999 0.5773
0 -8 1 -1.4347 0.3658
0 -8 2 1.6049 -0.2058
0 -8 3 -1.3681 0.1557
0 -8 4 0.7830 -0.1479
0 -8 5 0.1153 0.1102
0 -8 6 -1.0813 -0.0254
0 -8 7 1.6367 -0.0741
0 -8 8 -1.4215 0.1396
0 -8 9 0.5716 -0.1358
0 -8 10 0.3436 0.0600
0 -8 11 -0.8119 0.0546
0 -8 12 0.7924 -0.1568
0 -8 13 -0.6335 0.2020
0 -8 14 0.6376 -0.1626
0 -8 15 -0.7645 0.0333
0 -8 16 0.7365 0.1388
0 -8 17 -0.3473 -0.2239
0 -8 18 -0.3618 0.0582
0 -8 19 1.1535 0.4107
0 -8 20 -1.7319 -1.0078
0 -7 1 -3.3192 -0.2315
0 -7 2 4.5435 0.4486
0 -7 3 -4.7351 -0.3726
0 -7 4 4.0105 0.0860
0 -7 5 -2.7918 0.1723
0 -7 6 1.3691 -0.2130
0 -7 7 0.1987 0.0432
0 -7 8 -1.8287 0.1674
0 -7 9 3.2211 -0.2418
0 -7 10 -4.0040 0.1294
0 -7 11 4.0234 0.0744
0 -7 12 -3.4265 -0.2158
0 -7 13 2.4935 0.2057
0 -7 14 -1.4748 -0.0857
0 -7 15 0.5887 -0.0195
0 -7 16 -0.0402 0.0218
0 -7 17 -0.0982 0.0586
0 -7 18 0.0159 -0.1562
0 -7 19 -0.0560 0.2822
0 -7 20 0.3880 -0.5390
0 -7 21 -0.8107 0.9726
0 -6 1 2.4661 -1.1979
0 -6 2 -5.2515 0.7825
0 -6 3 6.8928 -0.4409
0 -6 4 -7.1823 0.2301
0 -6 5 6.0940 -0.1073
0 -6 7 1.0079 0.0012
0 -6 8 1.3563 0.0056
0 -6 9 -2.4338 -0.0277
0 -6 10 2.1212 0.0323
0 -6 11 -1.0399 -0.0035
0 -6 12 -0.0568 -0.0481
0 -6 13 0.8545 0.0875
0 -6 14 -1.4824 -0.0735
0 -6 15 2.0825 -0.0031
0 -6 16 -2.5148 0.0906
0 -6 17 2.5100 -0.1064
0 -6 18 -2.0075 0.0182
0 -6 19 1.2543 0.1130
0 -6 20 -0.5907 -0.1965
0 -6 21 0.2048 0.2173
0 -5 1 -0.9039 -1.4603
0 -5 2 -2.0939 0.7391
0 -5 3 4.8602 -0.0625
0 -5 4 -6.3974 -0.2548
0 -5 5 6.5670 0.1972
0 -5 6 -5.9218 0.0099
0 -5 7 5.0154 -0.1384
0 -5 8 -3.9708 0.1261
0 -5 9 2.6477 -0.0512
0 -5 10 -1.0414 0.0021
0 -5 11 -0.5838 0.0043
0 -5 12 1.8888 -0.0042
0 -5 13 -2.6707 0.0273
0 -5 14 2.8907 -0.0604
0 -5 15 -2.6130 0.0617
0 -5 16 1.9910 -0.0111
0 -5 17 -1.2515 -0.0441
0 -5 18 0.5831 0.0069
0 -5 19 -0.0141 0.1751
0 -5 20 -0.5414 -0.4224
0 -5 21 1.0855 0.5567
0 -5 22 -1.4378 -0.4584
0 -4 1 10.4229 1.8689
0 -4 2 -6.3106 -1.1581
0 -4 3 0.3820 0.4604
0 -4 4 5.4207 -0.0526
0 -4 5 -9.5566 -0.0643
0 -4 6 11.2078 0.0427
0 -4 7 -10.3778 -0.0058
0 -4 8 7.8339 -0.0143
0 -4 9 -4.7687 0.0278
0 -4 10 2.1978 -0.0365
0 -4 11 -0.4809 0.0331
0 -4 12 -0.6150 -0.0179
0 -4 13 1.3900 0.0010
0 -4 14 -1.7897 0.0038
0 -4 15 1.5214 0.0149
0 -4 16 -0.5196 -0.0516
0 -4 17 -0.8088 0.0719
0 -4 18 1.8344 -0.0363
0 -4 19 -2.1623 -0.0452
0 -4 20 1.8350 0.0954
0 -4 21 -1.1657 -0.0382
0 -4 22 0.4659 -0.1100
0 -4 23 0.0791 0.2386
0 -3 1 9.7170 0.7925
0 -3 2 -8.3060 -0.8592
0 -3 3 5.5912 0.6102
0 -3 4 -2.3783 -0.2626
0 -3 5 -0.4181 0.0417
0 -3 6 2.4366 0.0042
0 -3 7 -3.8295 0.0236
0 -3 8 4.7418 -0.0297
0 -3 9 -5.0079 0.0107
0 -3 10 4.3924 -0.0103
0 -3 11 -3.0063 0.0432
0 -3 12 1.3649 -0.0842
0 -3 13 -0.0204 0.1064
0 -3 14 -0.8121 -0.1003
0 -3 15 1.2752 0.0661
0 -3 16 -1.5952 -0.0120
0 -3 17 1.8318 -0.0375
0 -3 18 -1.8521 0.0505
0 -3 19 1.4809 -0.0164
0 -3 20 -0.6849 -0.0455
0 -3 21 -0.3239 0.1102
0 -3 22 1.1395 -0.1677
0 -3 23 -1.3860 0.2087
0 -2 5 -14.2329 0.2473
0 -2 8 -3.1450 0.0328
0 -2 9 5.6600 -0.0275
0 -2 10 -6.2905 0.0276
0 -2 11 5.7832 0.0014
0 -2 12 -4.7732 -0.0786
0 -2 13 3.5449 0.1627
0 -2 14 -2.1787 -0.1870
0 -2 15 0.8204 0.1200
0 -2 16 0.2442 0.0117
0 -2 17 -0.7457 -0.1438
0 -2 18 0.6030 0.2088
0 -2 19 0.0540 -0.1741
0 -2 20 -0.9672 0.0711
0 -2 21 1.8257 0.0179
0 -2 22 -2.3287 -0.0277
0 -2 23 2.2932 -0.0235
0 -1 2 -1.8560 -0.0414
0 -1 3 1.8573 -0.3154
0 -1 4 -0.9509 0.2951
0 -1 5 -0.5008 -0.0845
0 -1 7 -2.3972 0.0999
0 -1 8 1.5465 -0.0290
0 -1 9 0.4883 -0.0572
0 -1 10 -2.8020 0.1167
0 -1 11 4.3277 -0.1273
0 -1 12 -4.5318 0.0735
0 -1 13 3.6686 0.0249
0 -1 14 -2.4376 -0.1030
0 -1 15 1.4115 0.1033
0 -1 16 -0.7240 -0.0341
0 -1 17 0.1799 -0.0418
0 -1 18 0.4178 0.0717
0 -1 19 -1.0340 -0.0508
0 -1 20 1.4184 -0.0050
0 -1 21 -1.3252 0.0959
0 -1 22 0.7475 -0.2318
0 -1 23 0.0276 0.3971
0 -1 24 -0.6056 -0.5413
0 0 2 59.1240 0.0023
0 0 3 -42.3085 -0.1682
0 0 4 24.9738 0.2560
0 0 5 -10.2861 -0.1709
0 0 6 0.0027 0.0077
0 0 7 5.4842 0.0673
0 0 8 -6.8033 -0.0040
0 0 10 -2.2852 0.1283
0 0 11 -0.6417 -0.0759
0 0 12 2.6678 0.0123
0 0 13 -3.5245 0.0144
0 0 14 3.4361 -0.0176
0 0 15 -2.8446 0.0251
0 0 16 2.1396 -0.0327
0 0 17 -1.5102 0.0198
0 0 18 0.9670 0.0133
0 0 19 -0.4780 -0.0426
0 0 20 0.0834 0.0481
0 0 21 0.1215 -0.0284
0 0 22 -0.1035 -0.0068
0 0 23 -0.0409 0.0422
0 0 24 0.1579 -0.0550
0 1 3 -7.2267 -0.6025
0 1 4 6.8644 0.2160
0 1 5 -5.1461 -0.0238
0 1 6 2.7016 -0.0615
0 1 7 -0.3333 0.1215
0 1 8 -1.2757 -0.1392
0 1 9 1.7716 0.0759
0 1 10 -1.2261 0.0323
0 1 11 0.0632 -0.0985
0 1 12 1.1782 0.0811
0 1 13 -2.1129 -0.0192
0 1 14 2.6231 -0.0288
0 1 15 -2.7673 0.0469
0 1 16 2.6164 -0.0506
0 1 17 -2.1858 0.0423
0 1 18 1.5036 -0.0060
0 1 19 -0.7060 -0.0614
0 1 20 0.0373 0.1399
0 1 21 0.2726 -0.2126
0 1 22 -0.1688 0.2825
0 1 23 -0.1639 -0.3517
0 1 24 0.4108 0.3946
0 2 0 -20.5954 0.0126
0 2 1 36.3058 -0.2478
0 2 2 -46.8786 0.3962
0 2 3 50.1160 -0.2752
0 2 5 37.8894 0.2572
0 2 6 -27.4576 -0.2525
0 2 8 -9.1338 0.0449
0 2 9 3.3834 -0.0482
0 2 10 -0.2133 -0.0332
0 2 11 -0.8160 0.1028
0 2 12 0.5043 -0.1134
0 2 14 -0.9421 -0.0015
0 2 15 1.2582 -0.0718
0 2 16 -1.3091 0.1023
0 2 17 1.2216 -0.0529
0 2 18 -1.0203 -0.0559
0 2 19 0.6675 0.1428
0 2 20 -0.2076 -0.1325
0 2 21 -0.1748 0.0232
0 2 22 0.2809 0.1188
0 2 23 -0.0916 -0.2206
0 2 24 -0.1840 0.2511
0 3 0 -9.8779 0.4253
0 3 1 9.7202 -0.0107
0 3 2 -10.2372 -0.1978
0 3 3 11.5890 0.1685
0 3 4 -12.9628 -0.0662
0 3 6 -11.9741 -0.0795
0 3 9 4.0141 0.0226
0 3 10 -2.2402 -0.0360
0 3 11 1.1546 0.0663
0 3 12 -0.5759 -0.0536
0 3 13 0.4006 -0.0038
0 3 14 -0.6157 0.0471
0 3 15 1.1641 -0.0332
0 3 16 -1.8311 -0.0171
0 3 17 2.2875 0.0513
0 3 18 -2.2742 -0.0418
0 3 19 1.7761 0.0019
0 3 20 -1.0369 0.0358
0 3 21 0.4011 -0.0371
0 3 22 -0.1005 -0.0275
0 3 23 0.1297 0.1618
0 4 0 -11.0596 2.1715
0 4 1 7.6905 -1.8335
0 4 2 -1.3342 1.0359
0 4 4 11.7843 -0.1727
0 4 6 15.5747 -0.0442
0 4 7 -13.8615 -0.0272
0 4 8 10.7927 -0.0134
0 4 9 -7.2538 0.0719
0 4 10 4.0608 -0.0719
0 4 11 -1.8199 0.0217
0 4 12 0.7409 0.0268
0 4 13 -0.5839 -0.0359
0 4 14 0.8528 0.0002
0 4 15 -1.1126 0.0574
0 4 16 1.1923 -0.0905
0 4 17 -1.1435 0.0567
0 4 18 1.0457 0.0361
0 4 19 -0.8658 -0.1168
0 4 20 0.5052 0.1127
0 4 21 0.0346 -0.0282
0 4 22 -0.5642 -0.0528
0 4 23 0.8206 0.0515
0 5 0 2.9694 -1.8312
0 5 1 -3.7268 1.6796
0 5 2 3.8509 -1.1553
0 5 3 -4.3639 0.5602
0 5 4 5.6669 -0.1139
0 5 5 -7.2370 -0.1274
0 5 6 8.1942 0.1970
0 5 7 -8.0992 -0.1415
0 5 8 7.2305 0.0229
0 5 9 -6.1989 0.0705
0 5 10 5.3752 -0.0737
0 5 11 -4.6710 0.0058
0 5 12 3.7851 0.0493
0 5 13 -2.6062 -0.0344
0 5 14 1.3872 -0.0263
0 5 15 -0.5619 0.0665
0 5 16 0.3933 -0.0510
0 5 17 -0.7647 -0.0044
0 5 18 1.2809 0.0690
0 5 19 -1.5657 -0.1241
0 5 20 1.4946 0.1564
0 5 21 -1.1902 -0.1535
0 5 22 0.8475 0.1222
0 5 23 -0.5783 -0.0955
0 6 0 0.8725 -1.4811
0 6 1 -3.7415 1.3966
0 6 2 5.0901 -0.8977
0 6 3 -4.4504 0.2191
0 6 4 2.2128 0.2850
0 6 5 0.6683 -0.4181
0 6 6 -3.2411 0.2657
0 6 7 4.9341 -0.0652
0 6 8 -5.5816 -0.0193
0 6 9 5.2714 -0.0061
0 6 10 -4.2303 0.0433
0 6 11 2.7822 -0.0258
0 6 12 -1.2971 -0.0352
0 6 13 0.0948 0.0838
0 6 14 0.6460 -0.0723
0 6 15 -0.9122 -0.0017
0 6 16 0.8108 0.0839
0 6 17 -0.4896 -0.0978
0 6 18 0.0756 0.0220
0 6 19 0.3354 0.0588
0 6 20 -0.6531 -0.0076
0 6 21 0.7847 -0.2285
0 6 22 -0.6841 0.5393
0 7 0 1.5291 0.1362
0 7 1 0.0489 -0.4218
0 7 2 -0.9261 0.4949
0 7 3 1.2276 -0.3914
0 7 4 -1.4353 0.2231
0 7 5 1.8666 -0.0698
0 7 6 -2.4262 -0.0405
0 7 7 2.8102 0.0948
0 7 8 -2.8638 -0.0885
0 7 9 2.7114 0.0496
0 7 10 -2.5876 -0.0293
0 7 11 2.5945 0.0479
0 7 12 -2.6232 -0.0681
0 7 13 2.4796 0.0426
0 7 14 -2.0750 0.0230
0 7 15 1.5130 -0.0760
0 7 16 -1.0061 0.0809
0 7 17 0.7012 -0.0565
0 7 18 -0.5764 0.0409
0 7 19 0.5031 -0.0447
0 7 20 -0.3995 0.0540
0 7 21 0.3035 -0.0618
0 7 22 -0.2891 0.0693
0 8 0 0.7263 0.6041
0 8 1 0.4962 -0.7660
0 8 2 -1.8646 0.6862
0 8 3 2.8093 -0.3512
0 8 4 -2.9304 -0.0584
0 8 5 2.2367 0.3078
0 8 6 -1.0603 -0.2970
0 8 7 -0.2070 0.1158
0 8 8 1.2976 0.0667
0 8 9 -2.0793 -0.1439
0 8 10 2.4866 0.1165
0 8 11 -2.4814 -0.0445
0 8 12 2.0672 -0.0103
0 8 13 -1.3228 0.0130
0 8 14 0.4174 0.0332
0 8 15 0.4249 -0.0883
0 8 16 -1.0161 0.1094
0 8 17 1.2963 -0.0985
0 8 18 -1.3410 0.1010
0 8 19 1.2666 -0.1372
0 8 20 -1.1305 0.1500
0 8 21 0.9294 -0.0535
0 9 0 -1.4850 0.8638
0 9 1 1.1076 -0.7348
0 9 2 -0.5650 0.5224
0 9 3 0.1934 -0.2611
0 9 4 -0.0957 -0.0021
0 9 5 0.1281 0.1838
0 9 6 -0.0832 -0.2094
0 9 7 -0.1425 0.0932
0 9 8 0.5159 0.0543
0 9 9 -0.9276 -0.1227
0 9 10 1.2640 0.0986
0 9 11 -1.4525 -0.0526
0 9 12 1.4750 0.0411
0 9 13 -1.3480 -0.0488
0 9 14 1.0955 0.0292
0 9 15 -0.7562 0.0249
0 9 16 0.4178 -0.0728
0 9 17 -0.2060 0.0717
0 9 18 0.1927 -0.0072
0 9 19 -0.3099 -0.1140
0 9 20 0.3903 0.2651
0 10 0 -0.0065 0.3466
0 10 1 0.5567 -0.0351
0 10 2 -0.8382 -0.2767
0 10 3 0.6169 0.3983
0 10 4 0.0874 -0.2911
0 10 5 -1.0265 0.0885
0 10 6 1.8524 0.0443
0 10 7 -2.2697 -0.0533
0 10 8 2.1648 0.0025
0 10 9 -1.6474 0.0314
0 10 10 0.9611 -0.0341
0 10 11 -0.3230 0.0318
0 10 12 -0.1677 -0.0345
0 10 13 0.4901 0.0252
0 10 14 -0.6207 0.0069
0 10 15 0.5345 -0.0505
0 10 16 -0.2765 0.0854
0 10 17 -0.0195 -0.0878
0 10 18 0.2172 0.0261
0 10 19 -0.2766 0.1182
0 11 0 0.0752 -0.5555
0 11 1 -0.5031 0.3716
0 11 2 0.8219 -0.2232
0 11 3 -1.0636 0.1390
0 11 4 1.2219 -0.0542
0 11 5 -1.2328 -0.0811
0 11 6 1.0529 0.2181
0 11 7 -0.7271 -0.2574
0 11 8 0.3651 0.1710
0 11 9 -0.0653 -0.0458
0 11 10 -0.1293 -0.0070
0 11 11 0.2308 -0.0339
0 11 12 -0.2898 0.0934
0 11 13 0.3663 -0.0956
0 11 14 -0.4756 0.0438
0 11 15 0.5491 -0.0077
0 11 16 -0.4834 0.0584
0 11 17 0.2557 -0.2201
0 11 18 0.0186 0.4538
0 12 0 -1.2467 -1.8656
0 12 1 1.2038 1.6708
0 12 3 0.0544 0.4952
0 12 4 0.2764 -0.0983
0 12 5 -0.1510 -0.0178
0 12 6 -0.2911 0.0018
0 12 7 0.7344 -0.0232
0 12 8 -0.9228 0.1132
0 12 9 0.8400 -0.1827
0 12 10 -0.6839 0.1583
0 12 11 0.6493 -0.0655
0 12 12 -0.7249 -0.0132
0 12 13 0.7174 0.0242
0 12 14 -0.4800 0.0288
0 12 15 0.0905 -0.1115
0 12 16 0.2186 0.1843
0 12 17 -0.2910 -0.2083
0 13 0 0.2874 0.7921
0 13 1 0.1026 -0.7273
0 13 2 -0.5560 0.3973
0 13 3 0.9491 -0.0767
0 13 5 1.0849 0.0043
0 13 6 -0.7725 0.0555
0 13 7 0.3722 -0.0457
0 13 8 -0.0660 0.0041
0 13 9 -0.0697 -0.0019
0 13 10 0.0906 0.0451
0 13 11 -0.0828 -0.0875
0 13 12 0.0634 0.1123
0 13 13 0.0009 -0.1640
0 13 14 -0.1064 0.2932
0 13 15 0.1873 -0.4892
0 14 0 0.7231 0.8350
0 14 1 -0.7671 -1.0247
0 14 2 0.5490 0.9169
0 14 3 -0.1611 -0.5289
0 14 4 -0.2052 0.0524
0 14 5 0.3995 0.2742
0 14 6 -0.3928 -0.3390
0 14 7 0.2668 0.2090
0 14 8 -0.1394 -0.0312
0 14 9 0.0730 -0.0946
0 14 10 -0.0289 0.1487
0 14 11 -0.0781 -0.1428
0 14 12 0.2616 0.0864
0 14 13 -0.4075 -0.0006
0 15 0 -0.7810 -0.0009
0 15 1 0.8082 0.2768
0 15 2 -0.5407 -0.3080
0 15 3 0.0666 0.1871
0 15 4 0.4051 -0.1284
0 15 5 -0.6598 0.2218
0 15 6 0.6112 -0.3363
0 15 7 -0.3616 0.2709
0 15 8 0.1186 0.0202
0 15 9 -0.0201 -0.3724
0 15 10 0.0273 0.5635
0 16 0 -0.2329 1.2208
0 16 1 0.5064 -1.3958
0 16 2 -0.5381 1.0082
0 16 3 0.3704 -0.3092
0 16 4 -0.1447 -0.2750
0 16 5 -0.0144 0.4482
1 -16 0 -0.3022 1.4724
1 -15 0 -0.5955 -0.8197
1 -15 1 0.2222 0.7699
1 -15 2 0.0211 -0.5284
1 -15 3 -0.0558 0.3145
1 -15 4 -0.0601 -0.1966
1 -15 5 0.2092 0.0879
1 -15 6 -0.3173 0.0752
1 -15 7 0.3777 -0.1965
1 -14 0 -0.4554 0.6698
1 -14 1 0.4148 -0.2154
1 -14 2 -0.4045 -0.2450
1 -14 3 0.5542 0.4008
1 -14 4 -0.8302 -0.1999
1 -14 5 1.0359 -0.1300
1 -14 6 -0.9825 0.2808
1 -14 7 0.6711 -0.1059
1 -14 8 -0.2962 -0.2743
1 -14 9 0.0637 0.5633
1 -14 10 -0.0101 -0.4989
1 -13 0 1.0243 -0.9071
1 -13 1 -0.4439 0.6727
1 -13 2 -0.1023 -0.3721
1 -13 3 0.2884 0.0813
1 -13 4 -0.1289 0.1392
1 -13 5 -0.0708 -0.2172
1 -13 6 0.0343 0.1045
1 -13 7 0.2173 0.1488
1 -13 8 -0.4099 -0.3785
1 -13 9 0.3116 0.4073
1 -13 10 0.0219 -0.1930
1 -13 11 -0.2784 -0.1037
1 -13 12 0.1510 0.2112
1 -13 13 0.4058 0.0510
1 -12 0 1.3805 -1.3296
1 -12 1 -1.3572 1.2207
1 -12 2 1.0995 -0.7066
1 -12 3 -0.8143 0.1067
1 -12 4 0.7160 0.2264
1 -12 5 -0.8512 -0.1678
1 -12 6 1.0590 -0.1207
1 -12 7 -1.1228 0.3498
1 -12 8 0.9694 -0.3286
1 -12 9 -0.7132 0.0807
1 -12 10 0.5136 0.2112
1 -12 11 -0.4109 -0.3516
1 -12 12 0.3060 0.2392
1 -12 13 -0.0791 0.1257
1 -12 14 -0.2844 -0.6801
1 -12 15 0.6633 1.3006
1 -11 0 -1.0635 1.6987
1 -11 1 0.8885 -1.6079
1 -11 2 -0.1470 1.1238
1 -11 3 -0.6865 -0.4936
1 -11 4 1.1690 -0.0235
1 -11 5 -1.2177 0.2940
1 -11 6 1.0587 -0.3304
1 -11 7 -0.9034 0.2259
1 -11 8 0.7278 -0.0817
1 -11 9 -0.3679 -0.0243
1 -11 10 -0.2239 0.0364
1 -11 11 0.8628 0.0676
1 -11 12 -1.2596 -0.2373
1 -11 13 1.2312 0.3367
1 -11 14 -0.7995 -0.2184
1 -11 15 0.1444 -0.1429
1 -11 16 0.5054 0.5887
1 -10 0 0.2193 0.6637
1 -10 1 0.2985 -0.6637
1 -10 2 -0.7243 0.5271
1 -10 3 0.9620 -0.2862
1 -10 4 -1.0809 0.0396
1 -10 5 1.2355 0.1247
1 -10 6 -1.4545 -0.1859
1 -10 7 1.5543 0.1796
1 -10 8 -1.3154 -0.1448
1 -10 9 0.7402 0.0886
1 -10 10 -0.1055 -0.0029
1 -10 11 -0.2533 -0.0848
1 -10 12 0.2061 0.0945
1 -10 13 0.0945 0.0386
1 -10 14 -0.3409 -0.2537
1 -10 15 0.2618 0.3397
1 -10 16 0.2311 -0.0810
1 -10 17 -0.9777 -0.5213
1 -10 18 1.6212 1.1789
1 -9 0 -0.3971 0.2151
1 -9 1 -0.1463 0.0185
1 -9 2 0.5127 -0.0874
1 -9 3 -0.6745 0.0409
1 -9 4 0.8056 -0.0051
1 -9 5 -0.9711 0.0508
1 -9 6 0.9735 -0.1414
1 -9 7 -0.5598 0.1887
1 -9 8 -0.2435 -0.1473
1 -9 9 1.0690 0.0592
1 -9 10 -1.5028 -0.0072
1 -9 11 1.4121 0.0286
1 -9 12 -0.9724 -0.0824
1 -9 13 0.4337 0.1090
1 -9 14 0.0756 -0.1100
1 -9 15 -0.5371 0.1331
1 -9 16 0.9392 -0.1625
1 -9 17 -1.2498 0.0645
1 -9 18 1.4500 0.2955
1 -9 19 -1.5211 -0.8541
1 -8 0 -0.7976 -0.7926
1 -8 1 1.2690 0.7992
1 -8 2 -1.0767 -0.6073
1 -8 3 0.4058 0.2702
1 -8 4 0.3630 0.0570
1 -8 5 -1.0263 -0.2187
1 -8 6 1.6248 0.1686
1 -8 7 -2.1973 0.0045
1 -8 8 2.5954 -0.1483
1 -8 9 -2.6075 0.1572
1 -8 10 2.2156 -0.0445
1 -8 11 -1.6415 -0.0749
1 -8 12 1.1352 0.0841
1 -8 13 -0.7802 0.0268
1 -8 14 0.5270 -0.1474
1 -8 15 -0.3414 0.1549
1 -8 16 0.2415 -0.0361
1 -8 17 -0.2099 -0.1147
1 -8 18 0.1637 0.2216
1 -8 19 -0.0582 -0.3166
1 -8 20 -0.0334 0.4699
1 -7 0 1.1593 -0.9654
1 -7 1 -1.8227 0.6745
1 -7 2 1.7197 -0.3568
1 -7 3 -1.1056 0.1096
1 -7 4 0.1989 0.0563
1 -7 5 0.8917 -0.1549
1 -7 6 -1.9478 0.1864
1 -7 7 2.5170 -0.1511
1 -7 8 -2.1744 0.0745
1 -7 9 0.9368 -0.0006
1 -7 10 0.6589 -0.0380
1 -7 11 -1.9497 0.0458
1 -7 12 2.6152 -0.0649
1 -7 13 -2.7678 0.1371
1 -7 14 2.6686 -0.2455
1 -7 15 -2.4422 0.2937
1 -7 16 2.0506 -0.1784
1 -7 17 -1.4268 -0.0851
1 -7 18 0.5592 0.3212
1 -7 19 0.4933 -0.3263
1 -7 20 -1.5580 0.0698
1 -7 21 2.3144 0.2540
1 -6 0 0.4526 -0.6845
1 -6 1 -2.2245 0.2455
1 -6 2 3.9669 0.2110
1 -6 3 -4.8697 -0.4109
1 -6 4 4.6593 0.2845
1 -6 5 -3.5829 -0.0030
1 -6 6 2.0320 -0.1874
1 -6 7 -0.3006 0.1636
1 -6 8 -1.3505 0.0105
1 -6 9 2.5969 -0.1706
1 -6 10 -3.1697 0.1892
1 -6 11 3.0566 -0.0593
1 -6 12 -2.4955 -0.1192
1 -6 13 1.7523 0.2286
1 -6 14 -0.9701 -0.2271
1 -6 15 0.2470 0.1629
1 -6 16 0.2490 -0.0959
1 -6 17 -0.3728 0.0187
1 -6 18 0.2134 0.1150
1 -6 19 -0.0992 -0.2786
1 -6 20 0.2996 0.3285
1 -6 21 -0.7360 -0.1252
1 -5 0 5.1089 1.1646
1 -5 1 -1.4109 -0.8859
1 -5 2 -2.2147 0.4934
1 -5 3 4.9188 -0.1645
1 -5 4 -6.3218 -0.0487
1 -5 5 6.2545 0.1775
1 -5 6 -4.6917 -0.2419
1 -5 7 2.0056 0.2265
1 -5 8 0.8972 -0.1284
1 -5 9 -2.9461 -0.0101
1 -5 10 3.5561 0.1233
1 -5 11 -2.9240 -0.1627
1 -5 12 1.6885 0.1183
1 -5 13 -0.3528 -0.0192
1 -5 14 -0.9425 -0.0786
1 -5 15 2.1869 0.1250
1 -5 16 -3.2097 -0.1141
1 -5 17 3.6950 0.0843
1 -5 18 -3.4315 -0.0642
1 -5 19 2.4877 0.0285
1 -5 20 -1.1731 0.0684
1 -5 21 -0.1051 -0.2100
1 -5 22 0.9715 0.3008
1 -4 0 4.5101 2.3015
1 -4 1 -2.7381 -2.1400
1 -4 2 -0.3104 1.4059
1 -4 3 3.7329 -0.4787
1 -4 4 -6.2826 -0.1962
1 -4 5 7.2812 0.4226
1 -4 6 -6.8947 -0.3183
1 -4 7 5.7091 0.1269
1 -4 8 -4.1963 -0.0033
1 -4 9 2.5669 -0.0429
1 -4 10 -0.9390 0.0658
1 -4 11 -0.5267 -0.0920
1 -4 12 1.6601 0.1004
1 -4 13 -2.3486 -0.0586
1 -4 14 2.5341 -0.0319
1 -4 15 -2.2204 0.1185
1 -4 16 1.5470 -0.1283
1 -4 17 -0.8070 0.0338
1 -4 18 0.2849 0.1056
1 -4 19 -0.0407 -0.1883
1 -4 20 -0.0988 0.1722
1 -4 21 0.2975 -0.1201
1 -4 22 -0.4980 0.1251
1 -4 23 0.5023 -0.1929
1 -3 0 -7.6043 -1.4433
1 -3 1 10.9523 1.4780
1 -3 2 -10.1884 -1.0667
1 -3 3 6.1835 0.5165
1 -3 4 -0.5120 -0.1111
1 -3 5 -5.0986 -0.0640
1 -3 6 9.1492 0.0803
1 -3 7 -10.7240 -0.0346
1 -3 8 9.8194 -0.0163
1 -3 9 -7.3383 0.0429
1 -3 10 4.5475 -0.0289
1 -3 11 -2.3196 -0.0171
1 -3 12 0.7870 0.0613
1 -3 13 0.3358 -0.0728
1 -3 14 -1.1762 0.0456
1 -3 15 1.4961 0.0086
1 -3 16 -1.0027 -0.0706
1 -3 17 -0.2360 0.1055
1 -3 18 1.7236 -0.0660
1 -3 19 -2.8360 -0.0670
1 -3 20 3.1753 0.2429
1 -3 21 -2.7190 -0.3640
1 -3 22 1.7582 0.3695
1 -3 23 -0.7309 -0.2871
1 -2 0 -5.9991 -0.1088
1 -2 1 8.6093 0.5203
1 -2 2 -10.1116 -0.6637
1 -2 3 9.6565 0.4571
1 -2 4 -7.5361 -0.0951
1 -2 5 4.7253 -0.1549
1 -2 6 -2.0430 0.1818
1 -2 7 -0.2313 -0.0643
1 -2 8 2.0878 -0.0622
1 -2 9 -3.3820 0.1248
1 -2 10 3.8197 -0.1187
1 -2 11 -3.2818 0.0622
1 -2 12 2.0483 0.0174
1 -2 13 -0.6566 -0.0770
1 -2 14 -0.4344 0.0787
1 -2 15 1.0524 -0.0309
1 -2 16 -1.2722 -0.0116
1 -2 17 1.2443 -0.0027
1 -2 18 -1.0462 0.0769
1 -2 19 0.6373 -0.1716
1 -2 20 0.0597 0.2387
1 -2 21 -0.9937 -0.2424
1 -2 22 1.8781 0.1651
1 -2 23 -2.3011 -0.0204
1 -1 1 19.2404 0.0175
1 -1 5 -15.7047 0.0044
1 -1 6 11.3338 0.1065
1 -1 7 -5.1488 -0.1379
1 -1 8 -0.4337 0.0909
1 -1 9 3.9579 -0.0377
1 -1 10 -5.2354 0.0231
1 -1 11 4.9991 -0.0315
1 -1 12 -4.1664 0.0328
1 -1 13 3.2557 -0.0231
1 -1 14 -2.3215 0.0134
1 -1 15 1.2830 -0.0070
1 -1 16 -0.2298 0.0030
1 -1 17 -0.5608 -0.0085
1 -1 18 0.8169 0.0285
1 -1 19 -0.4537 -0.0531
1 -1 20 -0.3723 0.0735
1 -1 21 1.3205 -0.1084
1 -1 22 -2.0013 0.1892
1 -1 23 2.1561 -0.3075
1 -1 24 -1.7913 0.3930
1 0 2 -16.0606 -0.6216
1 0 3 12.7158 0.0523
1 0 4 -8.6973 0.2196
1 0 5 4.5604 -0.2204
1 0 6 -0.7690 0.1077
1 0 7 -2.1057 -0.0074
1 0 9 -3.0539 -0.0002
1 0 10 1.3529 0.0893
1 0 11 0.6492 -0.1766
1 0 12 -1.9972 0.1831
1 0 13 2.2954 -0.0856
1 0 14 -1.7819 -0.0449
1 0 15 0.9942 0.1089
1 0 16 -0.3637 -0.0769
1 0 17 0.0253 0.0076
1 0 18 0.1108 0.0282
1 0 19 -0.1689 -0.0180
1 0 20 0.1691 -0.0047
1 0 21 -0.0402 0.0204
1 0 22 -0.2519 -0.0494
1 0 23 0.6023 0.1192
1 0 24 -0.8191 -0.2240
1 1 0 65.5898 0.6882
1 1 2 59.0425 0.3753
1 1 3 -45.7445 -0.3004
1 1 5 -16.1595 -0.0577
1 1 6 5.7950 -0.1197
1 1 7 0.1181 0.1837
1 1 8 -2.1836 -0.0936
1 1 9 1.7286 -0.0573
1 1 10 -0.1780 0.1498
1 1 11 -1.3995 -0.1522
1 1 12 2.4610 0.1119
1 1 13 -2.8928 -0.0714
1 1 14 2.7977 0.0294
1 1 15 -2.3345 0.0226
1 1 16 1.6613 -0.0651
1 1 17 -0.9292 0.0698
1 1 18 0.2730 -0.0377
1 1 19 0.2019 -0.0019
1 1 20 -0.4313 0.0225
1 1 21 0.4145 -0.0163
1 1 22 -0.2404 -0.0154
1 1 23 0.0627 0.0670
1 1 24 -0.0037 -0.1161
1 2 2 20.4290 0.5071
1 2 3 -22.6169 -0.2314
1 2 4 22.3883 0.0073
1 2 5 -20.0049 0.0803
1 2 6 16.1711 -0.0973
1 2 8 7.4710 -0.1388
1 2 9 -4.0079 0.1108
1 2 10 1.6867 -0.0393
1 2 11 -0.5111 -0.0257
1 2 12 0.2006 0.0545
1 2 13 -0.3701 -0.0625
1 2 14 0.7006 0.0677
1 2 15 -0.9872 -0.0582
1 2 16 1.0972 0.0205
1 2 17 -0.9453 0.0206
1 2 18 0.5346 -0.0210
1 2 19 -0.0039 -0.0282
1 2 20 -0.4035 0.0880
1 2 21 0.4662 -0.1206
1 2 22 -0.1377 0.1342
1 2 23 -0.3841 -0.1628
1 2 24 0.7534 0.2117
1 3 1 15.7011 0.3036
1 3 2 -26.6839 -0.0608
1 3 3 32.3411 -0.0591
1 3 4 -31.7666 0.0072
1 3 5 26.3440 0.0868
1 3 6 -18.6449 -0.0943
1 3 7 11.1012 0.0216
1 3 8 -5.2243 0.0379
1 3 9 1.5262 -0.0321
1 3 10 0.1738 -0.0078
1 3 11 -0.4032 0.0316
1 3 12 -0.2074 -0.0277
1 3 13 1.0795 0.0064
1 3 14 -1.7924 0.0349
1 3 15 2.1366 -0.0983
1 3 16 -2.0972 0.1496
1 3 17 1.7709 -0.1338
1 3 18 -1.2662 0.0350
1 3 19 0.6602 0.0936
1 3 20 -0.0352 -0.1732
1 3 21 -0.4714 0.1654
1 3 22 0.7022 -0.0885
1 3 23 -0.5972 -0.0155
1 3 24 0.2752 0.1115
1 4 0 -6.7623 -0.0170
1 4 1 7.0603 0.3081
1 4 2 -7.6802 -0.3907
1 4 4 -10.8616 -0.0526
1 4 5 12.3370 -0.0316
1 4 6 -12.7840 -0.0053
1 4 7 12.0259 0.0589
1 4 8 -10.3878 -0.0560
1 4 9 8.3924 0.0187
1 4 10 -6.4506 0.0017
1 4 11 4.7430 0.0002
1 4 12 -3.3032 0.0067
1 4 13 2.1748 -0.0339
1 4 14 -1.4800 0.0589
1 4 15 1.3250 -0.0608
1 4 16 -1.6316 0.0408
1 4 17 2.0774 -0.0060
1 4 18 -2.2462 -0.0435
1 4 19 1.8894 0.0958
1 4 20 -1.0925 -0.1166
1 4 21 0.2140 0.0814
1 4 22 0.3501 -0.0174
1 4 23 -0.4102 -0.0126
1 5 0 -7.2617 1.3943
1 5 1 7.0814 -1.4065
1 5 2 -4.0560 0.9516
1 5 3 -0.4439 -0.3262
1 5 4 4.6656 -0.1152
1 5 5 -7.3664 0.2323
1 5 6 8.1722 -0.1356
1 5 7 -7.3530 0.0126
1 5 9 -2.9755 -0.0269
1 5 10 0.5840 0.0028
1 5 11 1.1800 0.0016
1 5 12 -1.9587 0.0245
1 5 13 1.7633 -0.0702
1 5 14 -0.9570 0.1027
1 5 15 0.0402 -0.0927
1 5 16 0.6151 0.0534
1 5 17 -0.9052 -0.0350
1 5 18 0.9351 0.0629
1 5 19 -0.8401 -0.0946
1 5 20 0.6579 0.0608
1 5 21 -0.3572 0.0470
1 5 22 -0.0374 -0.1520
1 5 23 0.3869 0.1657
1 6 0 3.1058 -0.6003
1 6 1 -3.8527 0.6735
1 6 2 3.6712 -0.5328
1 6 3 -3.3303 0.2981
1 6 4 3.4667 -0.0754
1 6 5 -4.0749 -0.0946
1 6 6 4.6548 0.1938
1 6 7 -4.7649 -0.1973
1 6 8 4.4103 0.1094
1 6 9 -3.9585 0.0069
1 6 10 3.7488 -0.0731
1 6 11 -3.7844 0.0682
1 6 12 3.7555 -0.0374
1 6 13 -3.3407 0.0279
1 6 14 2.5151 -0.0387
1 6 15 -1.6036 0.0390
1 6 16 1.0318 -0.0135
1 6 17 -0.9899 -0.0286
1 6 18 1.2990 0.0728
1 6 19 -1.5817 -0.1036
1 6 20 1.5595 0.0914
1 6 21 -1.2148 -0.0104
1 6 22 0.7232 -0.1147
1 6 23 -0.2806 0.2000
1 7 0 -1.3994 -0.7790
1 7 1 -0.9684 0.8049
1 7 2 2.4242 -0.4949
1 7 3 -2.5596 -0.0219
1 7 4 1.5084 0.4494
1 7 5 0.2004 -0.5629
1 7 6 -1.9645 0.3753
1 7 7 3.3299 -0.0865
1 7 8 -4.0308 -0.1022
1 7 9 3.9622 0.1209
1 7 11 1.9028 -0.0668
1 7 12 -0.4507 0.0909
1 7 13 -0.8514 -0.0387
1 7 14 1.7623 -0.0233
1 7 15 -2.1701 0.0124
1 7 16 2.1044 0.0861
1 7 17 -1.7076 -0.1888
1 7 18 1.1623 0.1926
1 7 19 -0.6157 -0.0960
1 7 20 0.1570 0.0225
1 7 21 0.1563 -0.1019
1 7 22 -0.2879 0.3330
1 8 1 -0.6432 -0.1471
1 8 2 -0.3198 0.1872
1 8 3 1.0153 -0.1331
1 8 4 -1.6124 0.0361
1 8 5 2.2462 0.0605
1 8 6 -2.8314 -0.1288
1 8 7 3.1562 0.1397
1 8 8 -3.0994 -0.0792
1 8 9 2.7368 -0.0145
1 8 11 1.8765 -0.0368
1 8 12 -1.6082 -0.0337
1 8 13 1.3916 0.0693
1 8 14 -1.1205 -0.0401
1 8 15 0.7700 -0.0165
1 8 16 -0.4305 0.0498
1 8 17 0.2195 -0.0461
1 8 18 -0.1551 0.0242
1 8 19 0.1373 -0.0094
1 8 20 -0.0671 0.0312
1 8 21 -0.0354 -0.1245
1 9 0 1.0947 -0.1653
1 9 1 -0.2892 0.0411
1 9 2 -0.7044 0.0416
1 9 3 1.5065 0.0021
1 9 4 -1.7959 -0.1275
1 9 5 1.4844 0.2086
1 9 6 -0.7193 -0.1636
1 9 7 -0.2265 0.0189
1 9 8 1.0670 0.1357
1 9 9 -1.5849 -0.2281
1 9 10 1.6909 0.2360
1 9 11 -1.4319 -0.1747
1 9 12 0.9266 0.0851
1 9 13 -0.2822 -0.0230
1 9 14 -0.4190 0.0248
1 9 15 1.0688 -0.0693
1 9 16 -1.5202 0.0948
1 9 17 1.6657 -0.0700
1 9 18 -1.5246 0.0335
1 9 19 1.2262 -0.0389
1 9 20 -0.9045 0.0725
1 9 21 0.6269 -0.0598
1 10 0 -1.4755 0.2615
1 10 1 1.2134 -0.1674
1 10 2 -0.6961 0.0982
1 10 3 0.1639 -0.0286
1 10 4 0.1953 -0.0740
1 10 5 -0.3065 0.1811
1 10 6 0.2051 -0.2177
1 10 7 -0.0197 0.1513
1 10 8 -0.0789 -0.0404
1 10 9 -0.0191 -0.0261
1 10 10 0.2812 0.0249
1 10 11 -0.5683 -0.0086
1 10 12 0.7579 0.0243
1 10 13 -0.8227 -0.0506
1 10 14 0.7935 0.0315
1 10 15 -0.6895 0.0462
1 10 16 0.5228 -0.1289
1 10 17 -0.3478 0.1408
1 10 18 0.2484 -0.0341
1 10 19 -0.2499 -0.1935
1 10 20 0.2752 0.4904
1 11 0 0.9524 0.4876
1 11 1 -0.5642 -0.3778
1 11 2 0.0675 0.1853
1 11 3 0.3293 -0.0151
1 11 4 -0.4375 -0.0725
1 11 5 0.1887 0.0999
1 11 6 0.2868 -0.1136
1 11 7 -0.6963 0.1111
1 11 8 0.7727 -0.0519
1 11 9 -0.4774 -0.0672
1 11 10 0.0188 0.1801
1 11 11 0.3373 -0.2099
1 11 12 -0.4676 0.1439
1 11 13 0.4147 -0.0395
1 11 14 -0.2651 -0.0325
1 11 15 0.0622 0.0326
1 11 16 0.1671 0.0403
1 11 17 -0.3627 -0.1506
1 11 18 0.4599 0.2253
1 11 19 -0.4546 -0.1882
1 12 0 0.5795 -0.0762
1 12 1 -1.0059 -0.1277
1 12 2 1.2065 0.2564
1 12 3 -1.2279 -0.2403
1 12 4 1.1000 0.1430
1 12 5 -0.8380 -0.0735
1 12 6 0.5014 0.0659
1 12 7 -0.1999 -0.0655
1 12 8 0.0222 0.0235
1 12 9 0.0178 0.0332
1 12 10 0.0491 -0.0449
1 12 11 -0.1952 0.0072
1 12 12 0.3795 0.0160
1 12 13 -0.5045 0.0293
1 12 14 0.4540 -0.1195
1 12 15 -0.2123 0.1721
1 12 16 -0.0826 -0.1162
1 12 17 0.2456 -0.0603
1 13 0 -0.0342 -0.8633
1 13 1 0.0206 0.8114
1 13 2 0.1650 -0.5027
1 13 3 -0.4277 0.1186
1 13 4 0.5980 0.1256
1 13 5 -0.5067 -0.1467
1 13 6 0.1074 0.0362
1 13 7 0.4390 0.0580
1 13 8 -0.8366 -0.0710
1 13 9 0.8756 0.0391
1 13 10 -0.6038 -0.0098
1 13 11 0.2615 -0.0246
1 13 12 -0.0453 0.0961
1 13 13 -0.0451 -0.1980
1 13 14 0.1248 0.2800
1 13 15 -0.2398 -0.2968
1 13 16 0.3125 0.2427
1 14 0 0.2942 0.0267
1 14 1 0.0350 -0.1749
1 14 2 -0.4834 0.1726
1 14 3 0.9462 -0.1268
1 14 4 -1.2652 0.1303
1 14 9 -0.7102 0.2605
1 14 10 0.8706 -0.1288
1 14 11 -0.8641 -0.0966
1 14 12 0.7417 0.3207
1 14 13 -0.5145 -0.4975
1 14 14 0.2223 0.6295
1 15 0 0.7190 -0.0680
1 15 1 -0.3824 -0.1363
1 15 2 -0.0569 0.2857
1 15 3 0.4251 -0.2659
1 15 4 -0.5889 0.0748
1 15 5 0.5108 0.1829
1 15 6 -0.2380 -0.3911
1 15 7 -0.1258 0.4933
1 15 8 0.4487 -0.4824
1 15 9 -0.6261 0.3626
1 15 10 0.6516 -0.1559
1 15 11 -0.6190 -0.0663
1 16 0 -0.7049 -0.2271
1 16 1 1.0261 0.4131
1 16 2 -1.0611 -0.3691
1 16 3 0.7495 0.1994
1 16 4 -0.1999 -0.1239
1 16 5 -0.3353 0.2509
1 16 6 0.6065 -0.4507
1 16 7 -0.5454 0.4738
2 -15 0 0.0827 0.9102
2 -15 1 -0.1469 -1.2185
2 -15 2 0.2115 1.1533
2 -15 3 -0.3130 -0.7775
2 -15 4 0.4204 0.2724
2 -15 5 -0.4586 0.1826
2 -15 6 0.3972 -0.4593
2 -14 0 -0.9127 -0.2562
2 -14 1 0.3853 0.2158
2 -14 2 0.0214 -0.0768
2 -14 3 -0.1900 0.0307
2 -14 4 0.1713 -0.1343
2 -14 5 -0.0928 0.2491
2 -14 6 0.0371 -0.2030
2 -14 7 -0.0063 0.0026
2 -14 8 -0.0248 0.1323
2 -14 9 0.0539 0.0450
2 -14 10 -0.0523 -0.5698
2 -13 0 -0.4570 0.7007
2 -13 1 0.3779 -0.6356
2 -13 2 -0.3266 0.3446
2 -13 3 0.4537 -0.0741
2 -13 4 -0.7283 0.0095
2 -13 5 0.9176 -0.1469
2 -13 6 -0.7886 0.3222
2 -13 7 0.3465 -0.3475
2 -13 8 0.1411 0.1503
2 -13 9 -0.3782 0.1713
2 -13 10 0.3089 -0.4033
2 -13 11 -0.1622 0.3426
2 -13 12 0.2373 0.0789
2 -12 0 0.5909 -0.3338
2 -12 1 -0.3381 0.1787
2 -12 2 -0.0733 -0.0546
2 -12 3 0.2769 -0.0447
2 -12 4 -0.1481 0.1590
2 -12 5 -0.1175 -0.2709
2 -12 6 0.2310 0.2870
2 -12 7 -0.1019 -0.1281
2 -12 8 -0.0909 -0.1626
2 -12 9 0.0906 0.4152
2 -12 10 0.1848 -0.4556
2 -12 11 -0.5528 0.2561
2 -12 12 0.6976 0.0249
2 -12 13 -0.4080 -0.1645
2 -12 14 -0.2513 0.0636
2 -11 0 1.6171 -0.8805
2 -11 1 -1.7087 1.0205
2 -11 2 1.4543 -0.7915
2 -11 3 -1.0605 0.3288
2 -11 4 0.7813 0.0950
2 -11 5 -0.7076 -0.2771
2 -11 6 0.7214 0.2078
2 -11 7 -0.6660 -0.0306
2 -11 8 0.5449 -0.0944
2 -11 9 -0.5264 0.0948
2 -11 10 0.7491 0.0127
2 -11 11 -1.1445 -0.1824
2 -11 12 1.4561 0.3626
2 -11 13 -1.4175 -0.4546
2 -11 14 0.9231 0.2938
2 -11 15 -0.0869 0.2522
2 -11 16 -0.8018 -1.1074
2 -10 0 -0.4565 0.5991
2 -10 1 0.5915 -0.7097
2 -10 2 -0.2293 0.5589
2 -10 3 -0.3634 -0.2560
2 -10 4 0.8464 -0.0257
2 -10 5 -1.1246 0.1705
2 -10 6 1.3481 -0.1701
2 -10 7 -1.6296 0.0897
2 -10 8 1.8316 0.0013
2 -10 9 -1.6663 -0.0681
2 -10 10 0.9896 0.1014
2 -10 11 0.0226 -0.0948
2 -10 12 -0.9698 0.0517
2 -10 13 1.4796 -0.0067
2 -10 14 -1.4118 0.0037
2 -10 15 0.9098 -0.0268
2 -10 16 -0.3029 -0.0294
2 -10 17 -0.0926 0.2661
2 -10 18 0.1694 -0.6298
2 -9 0 0.3457 0.1334
2 -9 1 -0.1392 -0.0334
2 -9 2 -0.0891 -0.1092
2 -9 3 0.2277 0.2368
2 -9 4 -0.2833 -0.2714
2 -9 5 0.3579 0.1920
2 -9 6 -0.4977 -0.0676
2 -9 7 0.6077 0.0021
2 -9 8 -0.5518 -0.0380
2 -9 9 0.3177 0.1070
2 -9 10 -0.0464 -0.0841
2 -9 11 -0.0965 -0.0847
2 -9 12 0.0427 0.2955
2 -9 13 0.1732 -0.3453
2 -9 14 -0.4603 0.1192
2 -9 15 0.6800 0.2646
2 -9 16 -0.6621 -0.5222
2 -9 17 0.3195 0.4507
2 -9 18 0.2129 -0.1177
2 -9 19 -0.6183 -0.2138
2 -8 0 -0.4293 0.2390
2 -8 1 -0.4432 -0.0631
2 -8 2 1.1330 -0.0252
2 -8 3 -1.5168 0.0160
2 -8 4 1.7499 0.0116
2 -8 5 -1.9293 0.0161
2 -8 6 1.8589 -0.0971
2 -8 7 -1.2145 0.1620
2 -8 8 -0.0657 -0.1460
2 -8 9 1.6138 0.0541
2 -8 10 -2.8715 0.0435
2 -8 11 3.4694 -0.0848
2 -8 12 -3.3759 0.0762
2 -8 13 2.7681 -0.0631
2 -8 14 -1.8634 0.0463
2 -8 15 0.8726 0.0362
2 -8 16 0.0068 -0.2103
2 -8 17 -0.6658 0.3609
2 -8 18 1.1481 -0.2848
2 -8 19 -1.5623 -0.1100
2 -8 20 1.8996 0.6667
2 -7 0 0.7556 -0.1042
2 -7 1 0.0399 0.2066
2 -7 3 0.0078 0.0712
2 -7 4 0.6913 0.1056
2 -7 5 -1.4199 -0.2030
2 -7 6 1.9858 0.1584
2 -7 7 -2.3065 -0.0108
2 -7 8 2.3041 -0.1351
2 -7 9 -1.9461 0.1825
2 -7 10 1.3592 -0.1033
2 -7 11 -0.7942 -0.0445
2 -7 12 0.4295 0.1608
2 -7 13 -0.2496 -0.1821
2 -7 14 0.1422 0.1246
2 -7 15 -0.0697 -0.0469
2 -7 16 0.0870 -0.0224
2 -7 17 -0.2208 0.0906
2 -7 18 0.4191 -0.1267
2 -7 19 -0.6497 0.0196
2 -7 20 0.9657 0.3278
2 -7 21 -1.3908 -0.8446
2 -6 0 1.8331 -0.4133
2 -6 1 -2.9242 0.2481
2 -6 2 2.9309 -0.0720
2 -6 3 -2.0996 -0.0663
2 -6 4 0.7796 0.1679
2 -6 5 0.7710 -0.2285
2 -6 6 -2.2701 0.2174
2 -6 7 3.2724 -0.1163
2 -6 8 -3.3264 -0.0409
2 -6 9 2.3300 0.1744
2 -6 10 -0.6708 -0.2059
2 -6 11 -1.0410 0.1132
2 -6 12 2.3682 0.0431
2 -6 13 -3.1861 -0.1470
2 -6 14 3.5316 0.1111
2 -6 15 -3.4443 0.0381
2 -6 16 2.9757 -0.1681
2 -6 17 -2.2457 0.1621
2 -6 18 1.3814 -0.0396
2 -6 19 -0.4230 -0.0646
2 -6 20 -0.6128 0.0551
2 -6 21 1.5515 0.0108
2 -5 0 -1.0933 -0.6354
2 -5 1 0.2552 0.4464
2 -5 2 1.0693 -0.1030
2 -5 3 -2.1799 -0.1669
2 -5 4 2.5910 0.2271
2 -5 5 -2.2205 -0.1195
2 -5 6 1.2119 -0.0152
2 -5 7 0.2354 0.0719
2 -5 8 -1.8287 -0.0409
2 -5 9 3.1342 -0.0215
2 -5 10 -3.7453 0.0549
2 -5 11 3.5483 -0.0363
2 -5 12 -2.7713 -0.0096
2 -5 13 1.7562 0.0368
2 -5 14 -0.7346 -0.0263
2 -5 15 -0.1591 0.0106
2 -5 16 0.7600 -0.0338
2 -5 17 -0.9022 0.0812
2 -5 18 0.6102 -0.0723
2 -5 19 -0.1704 -0.0507
2 -5 20 -0.0777 0.2376
2 -5 21 0.0253 -0.3621
2 -5 22 0.1666 0.3530
2 -4 0 6.4366 0.2652
2 -4 1 -3.5370 -0.0114
2 -4 2 0.0632 -0.2176
2 -4 3 3.0560 0.3112
2 -4 4 -5.3097 -0.2871
2 -4 5 6.3744 0.2274
2 -4 6 -5.9673 -0.1740
2 -4 7 4.0819 0.1107
2 -4 8 -1.2937 -0.0216
2 -4 9 -1.3689 -0.0692
2 -4 10 3.0042 0.1233
2 -4 11 -3.3392 -0.1278
2 -4 12 2.6997 0.0976
2 -4 13 -1.5752 -0.0543
2 -4 14 0.2691 0.0139
2 -4 15 1.0970 0.0169
2 -4 16 -2.3939 -0.0481
2 -4 17 3.3979 0.1038
2 -4 18 -3.8636 -0.1874
2 -4 19 3.6308 0.2461
2 -4 20 -2.6995 -0.1960
2 -4 21 1.2959 0.0038
2 -4 22 0.1192 0.2629
2 -4 23 -1.0192 -0.4871
2 -3 0 4.5135 1.1613
2 -3 1 -4.0764 -1.2968
2 -3 2 2.4273 0.9737
2 -3 3 0.1295 -0.3918
2 -3 4 -2.6702 -0.1019
2 -3 5 4.3993 0.2966
2 -3 6 -5.0961 -0.2322
2 -3 7 4.9769 0.0870
2 -3 8 -4.3214 0.0016
2 -3 9 3.3023 -0.0104
2 -3 10 -2.0589 -0.0126
2 -3 11 0.7717 0.0186
2 -3 12 0.3764 0.0061
2 -3 13 -1.2444 -0.0383
2 -3 14 1.7053 0.0376
2 -3 15 -1.6485 0.0146
2 -3 16 1.0922 -0.0868
2 -3 17 -0.2817 0.1165
2 -3 18 -0.4126 -0.0707
2 -3 19 0.7503 -0.0242
2 -3 20 -0.7580 0.1227
2 -3 21 0.6026 -0.2193
2 -3 22 -0.3756 0.3444
2 -3 23 0.0562 -0.4967
2 -2 0 -1.4899 -0.4985
2 -2 1 7.1221 0.6895
2 -2 2 -9.1148 -0.5899
2 -2 3 7.6356 0.3434
2 -2 4 -3.5951 -0.1218
2 -2 5 -1.6786 -0.0053
2 -2 6 6.6334 0.0514
2 -2 7 -9.8110 -0.0401
2 -2 8 10.4050 -0.0130
2 -2 9 -8.6913 0.0730
2 -2 10 5.8429 -0.0923
2 -2 11 -3.1519 0.0536
2 -2 12 1.2858 0.0135
2 -2 13 -0.1713 -0.0698
2 -2 14 -0.5332 0.1028
2 -2 15 0.9401 -0.1144
2 -2 16 -0.8669 0.0927
2 -2 17 0.1365 -0.0228
2 -2 18 1.1297 -0.0743
2 -2 19 -2.4887 0.1384
2 -2 20 3.3929 -0.1205
2 -2 21 -3.4763 0.0262
2 -2 22 2.7541 0.0988
2 -2 23 -1.6205 -0.2183
2 -2 24 0.6168 0.3232
2 -1 0 4.9210 0.3518
2 -1 4 -10.1825 0.1766
2 -1 5 9.5108 -0.3116
2 -1 6 -7.8208 0.2850
2 -1 7 5.6965 -0.1430
2 -1 9 1.2606 0.1215
2 -1 10 0.4042 -0.1573
2 -1 11 -1.2558 0.1117
2 -1 12 1.2754 0.0021
2 -1 13 -0.7543 -0.1250
2 -1 14 0.0955 0.1786
2 -1 15 0.3943 -0.1324
2 -1 16 -0.5854 0.0324
2 -1 17 0.4935 0.0451
2 -1 18 -0.1949 -0.0586
2 -1 19 -0.2598 0.0187
2 -1 20 0.8703 0.0406
2 -1 21 -1.6046 -0.0880
2 -1 22 2.2869 0.0992
2 -1 23 -2.6189 -0.0623
2 -1 24 2.3846 -0.0075
2 0 0 -37.3395 -0.1238
2 0 2 -10.3908 0.3817
2 0 3 -2.1058 -0.3543
2 0 5 -12.3922 -0.2390
2 0 6 9.7498 0.2250
2 0 7 -4.2190 -0.1757
2 0 8 -1.5664 0.0841
2 0 9 5.4929 0.0100
2 0 10 -6.7705 -0.0745
2 0 11 5.9807 0.1018
2 0 12 -4.3669 -0.0846
2 0 13 2.9257 0.0147
2 0 14 -1.9518 0.0838
2 0 15 1.2242 -0.1487
2 0 16 -0.4848 0.1311
2 0 17 -0.2543 -0.0449
2 0 18 0.7473 -0.0498
2 0 19 -0.7529 0.1089
2 0 20 0.2452 -0.1299
2 0 21 0.5350 0.1187
2 0 22 -1.2070 -0.0574
2 0 23 1.4764 -0.0721
2 0 24 -1.3048 0.2392
2 1 2 -31.1006 -0.6715
2 1 3 26.6297 0.2683
2 1 5 15.0145 -0.1916
2 1 6 -9.5685 0.2171
2 1 7 4.9278 -0.1530
2 1 8 -1.4469 0.0420
2 1 9 -0.5728 0.0455
2 1 10 1.1513 -0.0480
2 1 11 -0.7441 -0.0196
2 1 12 0.0244 0.0697
2 1 13 0.4771 -0.0374
2 1 14 -0.5712 -0.0432
2 1 15 0.3526 0.0801
2 1 16 -0.0217 -0.0307
2 1 17 -0.2510 -0.0549
2 1 18 0.3655 0.0983
2 1 19 -0.2791 -0.0799
2 1 20 -0.0088 0.0466
2 1 21 0.4447 -0.0490
2 1 22 -0.8949 0.0901
2 1 23 1.1627 -0.1340
2 1 24 -1.0928 0.1476
2 2 0 40.9890 0.8489
2 2 3 -32.7171 -0.3035
2 2 4 20.7804 0.1657
2 2 5 -9.1420 -0.0253
2 2 6 0.5458 -0.0931
2 2 7 3.7472 0.1209
2 2 8 -4.1056 -0.0478
2 2 10 0.6849 0.0844
2 2 11 -2.7701 -0.0534
2 2 12 3.7944 0.0082
2 2 13 -3.9807 0.0138
2 2 14 3.7291 -0.0197
2 2 15 -3.2665 0.0244
2 2 16 2.6138 -0.0195
2 2 17 -1.7609 -0.0075
2 2 18 0.8122 0.0442
2 2 19 0.0169 -0.0649
2 2 20 -0.5181 0.0644
2 2 21 0.6162 -0.0586
2 2 22 -0.4192 0.0521
2 2 23 0.1512 -0.0257
2 2 24 -0.0044 -0.0315
2 3 1 -12.6057 -0.0808
2 3 2 17.9926 -0.0294
2 3 4 23.0525 -0.2862
2 3 6 19.7069 -0.1176
2 3 7 -16.3606 0.0286
2 3 8 12.7116 0.0105
2 3 9 -9.1891 -0.0214
2 3 10 6.1111 0.0131
2 3 11 -3.6698 0.0171
2 3 12 1.9243 -0.0474
2 3 13 -0.8464 0.0394
2 3 14 0.3640 0.0091
2 3 15 -0.3388 -0.0485
2 3 16 0.5236 0.0351
2 3 17 -0.6068 0.0109
2 3 18 0.3647 -0.0303
2 3 19 0.1879 0.0020
2 3 20 -0.7872 0.0272
2 3 21 1.0781 -0.0013
2 3 22 -0.8498 -0.0733
2 3 23 0.1950 0.1314
2 3 24 0.5230 -0.1186
2 4 2 -11.4752 -0.1691
2 4 3 16.8659 0.0868
2 4 4 -17.8253 -0.0685
2 4 5 14.5520 0.0669
2 4 6 -8.7927 -0.0291
2 4 7 2.7803 -0.0251
2 4 8 1.7640 0.0412
2 4 9 -4.1045 -0.0122
2 4 11 -3.3650 0.0104
2 4 12 1.7127 0.0051
2 4 13 -0.0182 0.0032
2 4 15 2.3157 0.0442
2 4 16 -2.6979 -0.0319
2 4 17 2.5593 0.0145
2 4 18 -2.0360 -0.0111
2 4 19 1.3216 0.0154
2 4 20 -0.5956 -0.0169
2 4 21 -0.0093 0.0251
2 4 22 0.4069 -0.0536
2 4 23 -0.5634 0.0865
2 4 24 0.5160 -0.0848
2 5 0 -4.4863 -0.1180
2 5 1 4.3104 0.3257
2 5 2 -4.1095 -0.3621
2 5 3 4.2912 0.1980
2 5 5 5.9963 -0.1427
2 5 6 -6.9482 0.1150
2 5 7 7.5155 -0.0261
2 5 8 -7.5467 -0.0303
2 5 9 7.0913 0.0288
2 5 10 -6.3282 0.0040
2 5 11 5.4388 -0.0368
2 5 12 -4.5230 0.0456
2 5 13 3.6300 -0.0113
2 5 14 -2.8557 -0.0612
2 5 15 2.3603 0.1272
2 5 16 -2.2445 -0.1349
2 5 17 2.4033 0.0838
2 5 18 -2.5317 -0.0295
2 5 19 2.3169 0.0169
2 5 20 -1.6582 -0.0242
2 5 21 0.7370 -0.0064
2 5 22 0.1044 0.0884
2 5 23 -0.5745 -0.1650
2 6 0 -2.6949 0.1028
2 6 1 3.4553 -0.2824
2 6 2 -2.1423 0.2346
2 6 3 -0.4667 -0.0430
2 6 4 3.1727 -0.1148
2 6 5 -5.0432 0.1400
2 6 6 5.7360 -0.0674
2 6 7 -5.3517 -0.0146
2 6 8 4.1329 0.0531
2 6 9 -2.3302 -0.0438
2 6 10 0.2548 0.0028
2 6 11 1.6705 0.0440
2 6 12 -2.9955 -0.0625
2 6 13 3.4252 0.0357
2 6 14 -2.9707 0.0096
2 6 15 1.9605 -0.0261
2 6 16 -0.8820 0.0053
2 6 17 0.1307 0.0060
2 6 18 0.1752 0.0341
2 6 19 -0.1841 -0.1004
2 6 20 0.1282 0.1221
2 6 21 -0.1383 -0.0658
2 6 22 0.2046 -0.0240
2 6 23 -0.2659 0.0772
2 7 0 3.0403 0.1041
2 7 1 -3.7558 -0.0626
2 7 2 3.8088 0.0458
2 7 3 -3.4801 -0.0358
2 7 4 3.2207 0.0274
2 7 5 -3.2677 -0.0371
2 7 6 3.5195 0.0598
2 7 7 -3.7067 -0.0564
2 7 8 3.6449 0.0027
2 7 9 -3.3647 0.0696
2 7 10 3.0512 -0.1028
2 7 11 -2.8607 0.0771
2 7 12 2.7647 -0.0248
2 7 13 -2.5640 -0.0147
2 7 14 2.0848 0.0301
2 7 15 -1.3827 -0.0245
2 7 16 0.7396 -0.0033
2 7 17 -0.4329 0.0462
2 7 18 0.4998 -0.0732
2 7 19 -0.7274 0.0635
2 7 20 0.8606 -0.0565
2 7 21 -0.8027 0.1342
2 7 22 0.6306 -0.3255
2 8 0 -1.7422 0.0541
2 8 1 0.0006 0.0695
2 8 2 1.1886 -0.0271
2 8 3 -1.6048 -0.1695
2 8 4 1.3486 0.3599
2 8 5 -0.6782 -0.3791
2 8 6 -0.1651 0.1987
2 8 7 0.9900 0.0657
2 8 8 -1.6021 -0.2592
2 8 9 1.8132 0.2888
2 8 11 0.8220 -0.0400
2 8 12 0.1388 0.1842
2 8 13 -1.1344 -0.1832
2 8 14 1.9469 0.0555
2 8 15 -2.3795 0.0793
2 8 16 2.3242 -0.1080
2 8 17 -1.8401 0.0341
2 8 18 1.1419 0.0325
2 8 19 -0.4793 -0.0008
2 8 20 0.0116 -0.1060
2 8 21 0.2195 0.1874
2 8 22 -0.2439 -0.1803
2 9 0 0.9484 0.3265
2 9 1 -0.3723 -0.3316
2 9 2 -0.2264 0.2550
2 9 3 0.7274 -0.1180
2 9 4 -1.1326 -0.0324
2 9 5 1.4671 0.1621
2 9 6 -1.7176 -0.2460
2 9 7 1.8567 0.2489
2 9 8 -1.8744 -0.1481
2 9 9 1.7698 -0.0191
2 9 10 -1.5466 0.1584
2 9 11 1.2395 -0.1922
2 9 12 -0.9198 0.1234
2 9 13 0.6412 -0.0167
2 9 14 -0.3913 -0.0703
2 9 15 0.1344 0.1215
2 9 16 0.0968 -0.1400
2 9 17 -0.1956 0.1268
2 9 18 0.0998 -0.0958
2 9 19 0.1074 0.0781
2 9 20 -0.2538 -0.0820
2 9 21 0.2421 0.0582
2 10 0 1.0273 -0.3173
2 10 1 -0.7588 0.3387
2 10 2 0.3665 -0.2771
2 10 3 -0.0054 0.1783
2 10 4 -0.2011 -0.0745
2 10 5 0.1745 -0.0266
2 10 6 0.1307 0.1128
2 10 7 -0.6818 -0.1597
2 10 8 1.3013 0.1595
2 10 9 -1.7084 -0.1343
2 10 10 1.6968 0.1064
2 10 11 -1.2835 -0.0687
2 10 12 0.6611 0.0069
2 10 13 -0.0098 0.0588
2 10 14 -0.6126 -0.0848
2 10 15 1.1975 0.0654
2 10 16 -1.6652 -0.0539
2 10 17 1.8767 0.1012
2 10 18 -1.7623 -0.1859
2 10 19 1.3967 0.2359
2 10 20 -0.9330 -0.2189
2 11 0 -1.9844 -0.1770
2 11 1 1.6792 0.2722
2 11 2 -0.9963 -0.2476
2 11 3 0.0781 0.1250
2 11 4 0.8510 0.0010
2 11 5 -1.5027 -0.0594
2 11 6 1.6462 0.0538
2 11 7 -1.2845 -0.0202
2 11 8 0.6943 -0.0326
2 11 9 -0.2298 0.1131
2 11 10 0.0615 -0.1930
2 11 11 -0.1079 0.2045
2 11 12 0.2029 -0.1114
2 11 13 -0.2772 -0.0362
2 11 14 0.3557 0.1374
2 11 15 -0.4356 -0.1292
2 11 16 0.4437 0.0310
2 11 17 -0.3310 0.0820
2 11 18 0.1539 -0.1270
2 11 19 -0.0233 0.0449
2 12 0 0.4172 -0.1058
2 12 1 -0.3838 0.0657
2 12 2 0.2394 0.0189
2 12 3 0.0564 -0.1188
2 12 4 -0.3661 0.1891
2 12 5 0.4506 -0.1838
2 12 6 -0.2021 0.0995
2 12 7 -0.2022 -0.0013
2 12 8 0.4275 -0.0233
2 12 9 -0.2813 -0.0509
2 12 10 -0.1247 0.1607
2 12 11 0.5068 -0.2192
2 12 12 -0.6623 0.1974
2 12 13 0.5751 -0.1320
2 12 14 -0.3282 0.0750
2 12 15 -0.0029 -0.0594
2 12 16 0.3495 0.1068
2 12 17 -0.6104 -0.2261
2 12 18 0.6921 0.3799
2 13 0 0.0354 -0.1819
2 13 1 -0.3429 0.0820
2 13 2 0.5217 0.0296
2 13 3 -0.5970 -0.0641
2 13 4 0.5335 0.0242
2 13 5 -0.3033 0.0212
2 13 6 -0.0128 -0.0309
2 13 7 0.2565 0.0303
2 13 8 -0.3381 -0.0547
2 13 9 0.3116 0.0872
2 13 10 -0.2737 -0.0839
2 13 11 0.2251 0.0478
2 13 12 -0.0859 -0.0428
2 13 13 -0.1535 0.1218
2 13 14 0.3582 -0.2569
2 13 15 -0.3687 0.3551
2 13 16 0.1755 -0.3354
2 14 0 -0.0196 0.0770
2 14 1 -0.3009 -0.0244
2 14 2 0.5429 0.0450
2 14 3 -0.6882 -0.1125
2 14 4 0.7611 0.1580
2 14 5 -0.7030 -0.1372
2 14 6 0.3925 0.0694
2 14 7 0.1821 0.0007
2 14 8 -0.8132 -0.0625
2 14 9 1.1995 0.1347
2 14 10 -1.1921 -0.2063
2 14 11 0.8936 0.2164
2 14 12 -0.5165 -0.1143
2 14 13 0.1876 -0.0722
2 14 14 0.0831 0.2479
2 15 0 0.3531 0.0153
2 15 1 -0.4570 -0.0315
2 15 2 0.3434 0.0169
2 15 3 0.0208 -0.0341
2 15 4 -0.5186 0.1200
2 15 5 0.8992 -0.2090
2 15 6 -0.9525 0.1828
2 15 7 0.6831 -0.0013
2 15 8 -0.2908 -0.2354
2 15 9 -0.0193 0.3663
2 15 10 0.1898 -0.3006
2 15 11 -0.2809 0.0692
2 16 0 0.4199 0.0696
2 16 1 -0.0713 0.2115
2 16 2 -0.3597 -0.3357
2 16 3 0.6517 0.3103
2 16 4 -0.7046 -0.2182
2 16 5 0.5565 0.1533
2 16 6 -0.2965 -0.1819
2 16 7 0.0029 0.3164
3 -15 0 -0.3069 -0.2727
3 -15 1 0.4474 0.4572
3 -15 2 -0.3419 -0.4492
3 -15 3 0.0581 0.2133
3 -15 4 0.2332 0.1301
3 -14 0 0.0246 -0.3023
3 -14 1 -0.2008 0.0714
3 -14 2 0.3414 0.0950
3 -14 3 -0.4193 -0.1829
3 -14 4 0.4054 0.2070
3 -14 5 -0.2871 -0.1470
3 -14 6 0.1118 -0.0153
3 -14 7 0.0183 0.2049
3 -14 8 -0.0223 -0.2464
3 -14 9 -0.0855 -0.0033
3 -13 0 -1.5042 -0.2290
3 -13 1 1.1533 0.2306
3 -13 2 -0.6977 -0.1052
3 -13 3 0.3240 0.0210
3 -13 4 -0.1045 -0.0974
3 -13 5 0.0144 0.2744
3 -13 6 0.0017 -0.3660
3 -13 7 0.0050 0.2457
3 -13 8 0.0116 0.0160
3 -13 9 -0.0803 -0.1880
3 -13 10 0.1836 0.0592
3 -13 11 -0.2583 0.3884
3 -13 12 0.2416 -0.9536
3 -12 0 -0.7143 -0.0989
3 -12 1 0.9592 -0.0650
3 -12 2 -1.0488 0.1269
3 -12 3 1.1015 -0.0899
3 -12 4 -1.1519 0.0169
3 -12 5 1.0754 0.0157
3 -12 6 -0.7257 0.0342
3 -12 7 0.1489 -0.1407
3 -12 8 0.3724 0.2146
3 -12 9 -0.5249 -0.1587
3 -12 10 0.2416 -0.0505
3 -12 11 0.2077 0.3120
3 -12 12 -0.3946 -0.4287
3 -12 13 0.0355 0.2180
3 -12 14 0.8024 0.3491
3 -11 0 -0.5132 0.1016
3 -11 1 0.4213 -0.1729
3 -11 2 -0.5015 0.1447
3 -11 3 0.5653 -0.0352
3 -11 4 -0.4752 -0.0549
3 -11 5 0.2636 0.0447
3 -11 6 -0.0673 0.0426
3 -11 7 -0.0254 -0.0986
3 -11 8 0.0533 0.0331
3 -11 9 -0.1306 0.1374
3 -11 10 0.3357 -0.2992
3 -11 11 -0.6313 0.3400
3 -11 12 0.8672 -0.2391
3 -11 13 -0.8757 0.0599
3 -11 14 0.6133 0.1471
3 -11 15 -0.2357 -0.4091
3 -11 16 0.0002 0.7687
3 -10 0 0.1850 0.2118
3 -10 1 -0.3298 0.0393
3 -10 2 0.2841 -0.1846
3 -10 3 -0.1516 0.1775
3 -10 4 0.0816 -0.0775
3 -10 5 -0.0914 -0.0215
3 -10 6 0.0508 0.0667
3 -10 7 0.1327 -0.0614
3 -10 8 -0.3384 0.0252
3 -10 9 0.2891 0.0405
3 -10 10 0.1948 -0.1332
3 -10 11 -1.0024 0.1999
3 -10 12 1.7873 -0.1411
3 -10 13 -2.1929 -0.0925
3 -10 14 2.0384 0.3909
3 -10 15 -1.3670 -0.5097
3 -10 16 0.4083 0.2567
3 -10 17 0.4968 0.3172
3 -9 0 -1.0762 0.0199
3 -9 1 1.3456 -0.1363
3 -9 2 -1.2351 0.1472
3 -9 3 0.8552 -0.0579
3 -9 4 -0.4196 -0.0563
3 -9 5 -0.0174 0.1128
3 -9 6 0.5943 -0.0802
3 -9 7 -1.4141 -0.0063
3 -9 8 2.3190 0.0796
3 -9 9 -2.9219 -0.0918
3 -9 10 2.8658 0.0384
3 -9 11 -2.0782 0.0507
3 -9 12 0.8369 -0.1257
3 -9 13 0.3638 0.1270
3 -9 14 -1.0668 -0.0194
3 -9 15 1.1095 -0.1432
3 -9 16 -0.7357 0.1939
3 -9 17 0.4293 0.0464
3 -9 18 -0.5355 -0.5909
3 -9 19 0.9751 1.2055
3 -8 0 -1.1095 -0.0315
3 -8 1 0.8529 0.0860
3 -8 2 -0.6070 -0.1914
3 -8 3 0.4067 0.2881
3 -8 4 -0.2900 -0.2914
3 -8 5 0.2567 0.1690
3 -8 6 -0.2169 0.0154
3 -8 7 0.0365 -0.1374
3 -8 8 0.3198 0.1049
3 -8 9 -0.7133 0.0594
3 -8 10 0.9449 -0.2191
3 -8 11 -0.9452 0.2253
3 -8 12 0.8112 -0.0517
3 -8 13 -0.6474 -0.1638
3 -8 14 0.4332 0.2312
3 -8 15 -0.0997 -0.0833
3 -8 16 -0.3010 -0.1702
3 -8 17 0.6000 0.3747
3 -8 18 -0.7169 -0.5025
3 -8 19 0.7866 0.6594
3 -8 20 -0.9935 -0.9111
3 -7 0 -1.9105 -0.1023
3 -7 1 0.6951 0.1174
3 -7 2 0.5119 -0.0791
3 -7 3 -1.3762 -0.0168
3 -7 4 1.9173 0.1198
3 -7 5 -2.2596 -0.1655
3 -7 6 2.3272 0.1258
3 -7 7 -1.8548 -0.0339
3 -7 8 0.6937 -0.0398
3 -7 9 0.9524 0.0505
3 -7 10 -2.6154 -0.0195
3 -7 11 3.8417 0.0036
3 -7 12 -4.3735 -0.0217
3 -7 13 4.1513 0.0310
3 -7 14 -3.2840 0.0069
3 -7 15 2.0620 -0.0515
3 -7 16 -0.9000 0.0086
3 -7 17 0.1300 0.1585
3 -7 18 0.2008 -0.3687
3 -7 19 -0.2960 0.4988
3 -7 20 0.3611 -0.5072
3 -7 21 -0.4233 0.4569
3 -6 0 1.9775 0.2935
3 -6 1 -1.5362 -0.2606
3 -6 2 1.0857 0.2007
3 -6 3 -1.0063 -0.1616
3 -6 4 1.3701 0.1385
3 -6 5 -1.9960 -0.1069
3 -6 6 2.6088 0.0643
3 -6 7 -2.9344 -0.0280
3 -6 8 2.7646 0.0057
3 -6 9 -2.0684 0.0118
3 -6 10 1.0627 -0.0326
3 -6 11 -0.0978 0.0527
3 -6 12 -0.5811 -0.0614
3 -6 13 0.9542 0.0467
3 -6 14 -1.1129 0.0011
3 -6 15 1.0918 -0.0684
3 -6 16 -0.8733 0.0950
3 -6 17 0.5196 -0.0008
3 -6 18 -0.1828 -0.2238
3 -6 19 -0.0703 0.4565
3 -6 20 0.3719 -0.5127
3 -6 21 -0.8842 0.3125
3 -5 0 2.5043 0.1135
3 -5 1 -4.4223 -0.2020
3 -5 2 5.1937 0.2183
3 -5 3 -4.8083 -0.1742
3 -5 4 3.5126 0.1240
3 -5 5 -1.6163 -0.0981
3 -5 6 -0.4819 0.0799
3 -5 7 2.2203 -0.0410
3 -5 8 -3.0317 -0.0225
3 -5 9 2.6857 0.0876
3 -5 10 -1.4549 -0.1209
3 -5 11 -0.0996 0.0937
3 -5 12 1.5033 -0.0027
3 -5 13 -2.5362 -0.1083
3 -5 14 3.1290 0.1625
3 -5 15 -3.2414 -0.1133
3 -5 16 2.9018 -0.0036
3 -5 17 -2.2773 0.1038
3 -5 18 1.5843 -0.1499
3 -5 19 -0.9122 0.1959
3 -5 20 0.2093 -0.3150
3 -5 21 0.5205 0.4925
3 -5 22 -1.0745 -0.6179
3 -4 1 0.9725 0.0115
3 -4 2 -0.8208 0.0016
3 -4 3 0.4588 -0.0028
3 -4 4 -0.1379 -0.0390
3 -4 5 -0.0231 0.0787
3 -4 6 -0.0614 -0.0637
3 -4 7 0.5240 0.0012
3 -4 8 -1.4029 0.0570
3 -4 9 2.4603 -0.0745
3 -4 10 -3.2533 0.0565
3 -4 11 3.4359 -0.0265
3 -4 12 -2.9747 0.0043
3 -4 13 2.0814 -0.0065
3 -4 14 -1.0138 0.0428
3 -4 15 -0.0104 -0.0942
3 -4 16 0.7792 0.1119
3 -4 17 -1.1099 -0.0599
3 -4 18 0.9783 -0.0419
3 -4 19 -0.5728 0.1346
3 -4 20 0.1548 -0.1828
3 -4 21 0.1370 0.2022
3 -4 22 -0.3083 -0.2171
3 -4 23 0.3677 0.2105
3 -3 0 5.2437 -0.0698
3 -3 1 -3.1948 0.2695
3 -3 2 0.1767 -0.3874
3 -3 3 2.9113 0.3523
3 -3 4 -5.4904 -0.2156
3 -3 5 7.1435 0.0758
3 -3 6 -7.4311 0.0255
3 -3 7 6.0722 -0.1103
3 -3 8 -3.3355 0.1919
3 -3 9 0.1223 -0.2367
3 -3 10 2.4742 0.2055
3 -3 11 -3.7736 -0.1092
3 -3 12 3.7547 0.0041
3 -3 13 -2.8317 0.0553
3 -3 14 1.4792 -0.0472
3 -3 15 -0.0299 -0.0195
3 -3 16 -1.3257 0.1112
3 -3 17 2.4762 -0.1703
3 -3 18 -3.3306 0.1405
3 -3 19 3.7602 -0.0147
3 -3 20 -3.5997 -0.1446
3 -3 21 2.7828 0.2507
3 -3 22 -1.5217 -0.2624
3 -3 23 0.2987 0.2015
3 -2 0 2.7413 -0.2038
3 -2 1 -4.0576 0.0153
3 -2 2 4.4102 0.0035
3 -2 3 -3.6494 0.1036
3 -2 4 2.2454 -0.1779
3 -2 5 -0.7862 0.1227
3 -2 6 -0.4252 0.0181
3 -2 7 1.3400 -0.1349
3 -2 8 -1.9220 0.1632
3 -2 9 2.0720 -0.1135
3 -2 10 -1.7629 0.0301
3 -2 11 1.1358 0.0429
3 -2 12 -0.4158 -0.0695
3 -2 13 -0.2171 0.0333
3 -2 14 0.6391 0.0411
3 -2 15 -0.7267 -0.0987
3 -2 16 0.3904 0.1039
3 -2 17 0.3095 -0.0752
3 -2 18 -1.1306 0.0572
3 -2 19 1.7785 -0.0632
3 -2 20 -2.0658 0.0652
3 -2 21 1.9469 -0.0413
3 -2 22 -1.4594 0.0135
3 -2 23 0.7076 -0.0228
3 -1 0 1.7469 -0.1089
3 -1 1 3.3001 0.2804
3 -1 2 -5.4203 -0.3129
3 -1 3 4.5357 0.2595
3 -1 4 -1.2071 -0.1869
3 -1 5 -3.6299 0.1090
3 -1 6 8.7032 -0.0217
3 -1 8 13.8313 0.0602
3 -1 9 -12.3658 -0.0272
3 -1 10 8.9896 -0.0009
3 -1 11 -5.2032 -0.0064
3 -1 12 2.2294 0.0280
3 -1 13 -0.4624 -0.0340
3 -1 14 -0.3868 0.0369
3 -1 15 0.7505 -0.0742
3 -1 16 -0.8060 0.1462
3 -1 17 0.4753 -0.1984
3 -1 18 0.3188 0.1749
3 -1 19 -1.4244 -0.0771
3 -1 20 2.4404 -0.0427
3 -1 21 -2.9165 0.1342
3 -1 22 2.6418 -0.1812
3 -1 23 -1.8088 0.1887
3 -1 24 0.8909 -0.1581
3 0 0 15.9569 0.1922
3 0 1 -11.0786 -0.1208
3 0 2 4.7727 0.0516
3 0 3 1.0573 -0.0742
3 0 5 6.9566 -0.1786
3 0 6 -7.1453 0.1346
3 0 7 6.2274 -0.0708
3 0 9 2.9434 -0.0439
3 0 10 -1.4193 0.0481
3 0 11 0.4141 -0.0519
3 0 12 0.0307 0.0709
3 0 13 -0.0997 -0.0953
3 0 14 0.0253 0.0874
3 0 15 0.0494 -0.0307
3 0 16 -0.0712 -0.0407
3 0 17 0.0105 0.0769
3 0 18 0.1746 -0.0657
3 0 19 -0.5253 0.0365
3 0 20 1.0431 -0.0199
3 0 21 -1.6419 0.0207
3 0 22 2.1240 -0.0318
3 0 23 -2.2501 0.0565
3 0 24 1.9059 -0.0991
3 1 0 -23.1806 -0.1472
3 1 1 15.2487 -0.1618
3 1 2 -5.1735 0.3286
3 1 3 -4.4490 -0.3017
3 1 5 -13.5464 -0.0309
3 1 6 11.2998 -0.0567
3 1 7 -5.7217 0.0871
3 1 8 -0.8751 -0.0623
3 1 9 6.0718 0.0047
3 1 10 -8.4259 0.0330
3 1 11 8.0111 -0.0103
3 1 12 -6.0410 -0.0488
3 1 13 3.9031 0.0740
3 1 14 -2.3554 -0.0292
3 1 15 1.3894 -0.0437
3 1 16 -0.6512 0.0753
3 1 17 -0.0725 -0.0492
3 1 18 0.6833 0.0096
3 1 19 -0.9328 0.0068
3 1 20 0.6931 -0.0201
3 1 21 -0.1008 0.0747
3 1 22 -0.5171 -0.1711
3 1 23 0.8656 0.2522
3 1 24 -0.8682 -0.2594
3 2 0 -26.7754 -0.1069
3 2 2 -31.2380 -0.2516
3 2 3 28.8159 0.2114
3 2 4 -24.3810 -0.1510
3 2 5 19.2447 0.0717
3 2 6 -14.3446 0.0157
3 2 7 10.1183 -0.0617
3 2 9 4.1631 0.0347
3 2 11 1.2195 -0.0034
3 2 12 -0.4380 0.0756
3 2 13 -0.0542 -0.0874
3 2 14 0.2775 0.0385
3 2 15 -0.2902 0.0019
3 2 16 0.2495 0.0173
3 2 17 -0.3218 -0.0739
3 2 18 0.5331 0.1081
3 2 19 -0.7198 -0.0927
3 2 20 0.6422 0.0501
3 2 21 -0.1783 -0.0147
3 2 22 -0.5434 -0.0026
3 2 23 1.1796 0.0083
3 2 24 -1.3837 -0.0048
3 3 0 20.5374 0.2919
3 3 1 -23.7922 -0.2783
3 3 2 22.7758 0.2070
3 3 3 -17.3874 -0.1472
3 3 4 8.9801 0.0977
3 3 5 0.0917 -0.0332
3 3 6 -7.3294 -0.0281
3 3 7 10.9949 0.0424
3 3 8 -10.7148 -0.0085
3 3 9 7.5057 -0.0200
3 3 10 -3.1658 0.0010
3 3 11 -0.6542 0.0454
3 3 12 3.1359 -0.0680
3 3 13 -4.3440 0.0502
3 3 14 4.7489 -0.0191
3 3 15 -4.7047 -0.0010
3 3 16 4.2807 0.0158
3 3 17 -3.4431 -0.0352
3 3 18 2.2933 0.0463
3 3 19 -1.1171 -0.0340
3 3 20 0.2352 0.0194
3 3 21 0.1885 -0.0466
3 3 22 -0.2260 0.1235
3 3 23 0.1053 -0.1920
3 3 24 -0.0371 0.1788
3 4 1 -4.2635 0.1113
3 4 2 8.3621 -0.1857
3 4 3 -11.8662 0.2710
3 4 5 -14.1399 0.1888
3 4 6 13.1805 -0.0604
3 4 7 -11.5794 -0.0408
3 4 8 9.8161 0.0968
3 4 9 -8.1559 -0.1138
3 4 11 -5.3422 -0.0187
3 4 12 4.0612 -0.0471
3 4 13 -2.8538 0.0519
3 4 14 1.8831 0.0087
3 4 15 -1.3364 -0.0675
3 4 16 1.2199 0.0581
3 4 17 -1.2801 0.0091
3 4 18 1.1536 -0.0621
3 4 19 -0.6300 0.0563
3 4 20 -0.1912 -0.0248
3 4 21 0.9656 0.0332
3 4 22 -1.3329 -0.1005
3 4 23 1.1489 0.1784
3 4 24 -0.5736 -0.2036
3 5 0 3.1762 0.1830
3 5 1 0.6020 -0.1279
3 5 2 -5.5189 0.0713
3 5 3 9.6895 0.0119
3 5 4 -11.4211 -0.1024
3 5 5 10.0580 0.1389
3 5 6 -6.2125 -0.0956
3 5 7 1.3526 0.0239
3 5 8 2.9326 0.0065
3 5 9 -5.5910 0.0128
3 5 10 6.3957 -0.0311
3 5 11 -5.7801 0.0112
3 5 12 4.4015 0.0276
3 5 13 -2.7658 -0.0431
3 5 14 1.1460 0.0197
3 5 15 0.2721 0.0283
3 5 16 -1.2740 -0.0842
3 5 17 1.6843 0.1329
3 5 18 -1.5178 -0.1441
3 5 19 1.0135 0.0872
3 5 20 -0.4923 0.0218
3 5 21 0.1703 -0.1072
3 5 22 -0.0767 0.0961
3 5 23 0.1057 0.0036
3 6 0 -3.7136 0.2505
3 6 1 3.7279 -0.1273
3 6 2 -3.7403 0.0409
3 6 3 3.7722 -0.0604
3 6 4 -3.9024 0.1393
3 6 5 4.2319 -0.1827
3 6 6 -4.7829 0.1468
3 6 7 5.4014 -0.0594
3 6 8 -5.7986 -0.0281
3 6 9 5.7479 0.0800
3 6 10 -5.2595 -0.0757
3 6 11 4.5484 0.0143
3 6 12 -3.8377 0.0655
3 6 13 3.2157 -0.0955
3 6 14 -2.6775 0.0416
3 6 15 2.2445 0.0473
3 6 16 -1.9816 -0.0804
3 6 17 1.8966 0.0212
3 6 18 -1.8736 0.0757
3 6 19 1.7431 -0.1357
3 6 20 -1.4199 0.1509
3 6 21 0.9637 -0.1764
3 6 22 -0.5178 0.2445
3 6 23 0.2017 -0.3139
3 7 0 -0.9338 -0.3603
3 7 1 1.9174 0.2698
3 7 2 -1.4321 -0.2006
3 7 3 -0.0637 0.1521
3 7 4 1.7413 -0.0840
3 7 5 -2.9153 -0.0075
3 7 6 3.3273 0.0787
3 7 7 -3.0687 -0.0935
3 7 8 2.3423 0.0590
3 7 10 0.0614 -0.0551
3 7 11 1.2690 0.0986
3 7 12 -2.4784 -0.0989
3 7 13 3.2661 0.0416
3 7 14 -3.3475 0.0376
3 7 15 2.6517 -0.0731
3 7 16 -1.4521 0.0383
3 7 17 0.2659 0.0224
3 7 18 0.4533 -0.0453
3 7 19 -0.5848 0.0173
3 7 20 0.3477 0.0268
3 7 21 -0.0725 -0.0679
3 7 22 -0.0370 0.1296
3 8 0 2.4961 0.0513
3 8 1 -2.6109 -0.0861
3 8 2 2.5158 0.0956
3 8 3 -2.1775 -0.0837
3 8 4 1.7278 0.0680
3 8 5 -1.3993 -0.0705
3 8 6 1.3937 0.0820
3 8 7 -1.7394 -0.0621
3 8 8 2.2403 -0.0090
3 8 10 2.6307 -0.1319
3 8 11 -2.3969 0.0958
3 8 12 2.0725 -0.0095
3 8 13 -1.7491 -0.0905
3 8 14 1.3788 0.1767
3 8 15 -0.9235 -0.2145
3 8 16 0.4919 0.1641
3 8 17 -0.2692 -0.0314
3 8 18 0.3143 -0.0959
3 8 19 -0.4755 0.1084
3 8 20 0.5337 0.0081
3 8 21 -0.4097 -0.1356
3 8 22 0.2127 0.1320
3 9 0 -1.6673 0.1565
3 9 1 0.6693 -0.0282
3 9 2 -0.0025 -0.0468
3 9 3 -0.2140 0.0280
3 9 4 0.1140 0.0356
3 9 5 0.1185 -0.0624
3 9 6 -0.3925 0.0160
3 9 7 0.6652 0.0784
3 9 8 -0.8416 -0.1699
3 9 9 0.7954 0.2115
3 9 10 -0.4835 -0.1703
3 9 11 -0.0182 0.0498
3 9 12 0.6089 0.0855
3 9 13 -1.2425 -0.1383
3 9 14 1.8727 0.0643
3 9 15 -2.3534 0.0746
3 9 16 2.4729 -0.1659
3 9 17 -2.1257 0.1588
3 9 18 1.4332 -0.1036
3 9 19 -0.6687 0.0770
3 9 20 0.0707 -0.0941
3 9 21 0.2666 0.1141
3 10 0 0.3682 0.1992
3 10 1 0.3223 -0.2223
3 10 2 -1.0869 0.1615
3 10 3 1.8037 -0.0434
3 10 4 -2.3069 -0.0743
3 10 5 2.4396 0.1537
3 10 6 -2.1793 -0.1853
3 10 7 1.7021 0.1631
3 10 8 -1.2639 -0.0819
3 10 9 0.9958 -0.0343
3 10 10 -0.8362 0.1282
3 10 11 0.6668 -0.1541
3 10 12 -0.4676 0.1174
3 10 13 0.2989 -0.0562
3 10 14 -0.1695 -0.0047
3 10 15 0.0030 0.0581
3 10 16 0.2339 -0.0799
3 10 17 -0.4244 0.0278
3 10 18 0.3891 0.1005
3 10 19 -0.0839 -0.2317
3 10 20 -0.3275 0.2756
3 11 0 1.0397 0.1557
3 11 1 -0.7995 0.0123
3 11 2 0.4981 -0.1596
3 11 3 -0.2254 0.2113
3 11 4 -0.0387 -0.1436
3 11 5 0.2948 -0.0034
3 11 6 -0.4049 0.1366
3 11 7 0.1829 -0.1653
3 11 8 0.3714 0.0732
3 11 9 -0.9849 0.0671
3 11 10 1.3148 -0.1662
3 11 11 -1.2319 0.1974
3 11 12 0.8730 -0.1942
3 11 13 -0.4327 0.1831
3 11 14 -0.0278 -0.1531
3 11 15 0.5385 0.1008
3 11 16 -1.0507 -0.0717
3 11 17 1.3963 0.1208
3 11 18 -1.4355 -0.2347
3 11 19 1.1980 0.3273
3 12 0 -1.2754 0.1458
3 12 1 1.2383 0.0059
3 12 2 -0.9451 -0.1029
3 12 3 0.3455 0.0792
3 12 4 0.5108 0.0208
3 12 5 -1.3520 -0.1039
3 12 6 1.7922 0.1145
3 12 7 -1.6383 -0.0531
3 12 8 1.0772 -0.0600
3 12 9 -0.5117 0.1996
3 12 10 0.2064 -0.3163
3 12 11 -0.1202 0.3400
3 12 12 0.0719 -0.2329
3 12 13 0.0056 0.0348
3 12 14 -0.0267 0.1609
3 12 15 -0.0725 -0.2743
3 12 16 0.2098 0.2761
3 12 17 -0.2406 -0.1756
3 12 18 0.1204 0.0098
3 13 0 0.1169 -0.1831
3 13 1 -0.0417 0.2046
3 13 2 0.0569 -0.1106
3 13 3 0.0643 -0.0398
3 13 4 -0.3516 0.1646
3 13 5 0.5660 -0.2020
3 13 6 -0.4489 0.1474
3 13 7 0.0188 -0.0585
3 13 8 0.4228 0.0059
3 13 9 -0.5771 -0.0040
3 13 10 0.4015 0.0021
3 13 11 -0.0799 0.0467
3 13 12 -0.1919 -0.1220
3 13 13 0.3315 0.1599
3 13 14 -0.3200 -0.1304
3 13 15 0.1348 0.0649
3 13 16 0.2049 0.0001
3 14 0 0.1015 -0.2620
3 14 1 -0.0244 0.2715
3 14 2 -0.0892 -0.2211
3 14 3 0.1337 0.1737
3 14 4 -0.1565 -0.1547
3 14 5 0.2502 0.1335
3 14 6 -0.3792 -0.0867
3 14 7 0.3910 0.0440
3 14 8 -0.2167 -0.0520
3 14 9 -0.0021 0.1084
3 14 10 0.0452 -0.1640
3 14 11 0.1377 0.1885
3 14 12 -0.3664 -0.2092
3 14 13 0.4283 0.2710
3 14 14 -0.2955 -0.3733
3 15 0 -0.6515 0.3466
3 15 1 0.4310 -0.3706
3 15 2 -0.2490 0.2872
3 15 3 0.1273 -0.1468
3 15 4 0.0414 0.0211
3 15 5 -0.2751 0.0414
3 15 6 0.4108 -0.0343
3 15 7 -0.2666 0.0008
3 15 8 -0.1402 -0.0171
3 15 9 0.5859 0.1325
3 15 10 -0.8476 -0.3053
3 15 11 0.8766 0.4149
3 15 12 -0.7613 -0.3619
3 16 0 0.3081 0.3453
3 16 1 -0.7034 -0.3063
3 16 2 0.9435 0.1791
3 16 3 -0.8236 -0.0416
3 16 4 0.3466 -0.0269
3 16 5 0.2324 0.0326
3 16 6 -0.5975 -0.0597
3 16 7 0.6237 0.1684
3 16 8 -0.4388 -0.3173
4 -14 0 -0.2605 0.3636
4 -14 1 0.6327 -0.1160
4 -14 2 -0.8390 -0.0526
4 -14 3 0.7705 0.0927
4 -14 4 -0.4955 -0.0479
4 -14 5 0.1836 -0.0107
4 -14 6 0.0102 0.0457
4 -14 7 -0.0225 -0.0465
4 -13 0 0.8299 0.1150
4 -13 1 -0.8924 -0.0147
4 -13 2 0.7294 -0.1381
4 -13 3 -0.3875 0.2208
4 -13 4 -0.0446 -0.1503
4 -13 5 0.4550 -0.0042
4 -13 6 -0.7186 0.0649
4 -13 7 0.7436 0.0743
4 -13 8 -0.5420 -0.3089
4 -13 9 0.2491 0.3781
4 -13 10 -0.0448 -0.0840
4 -13 11 0.0353 -0.5136
4 -12 0 -1.1021 0.2698
4 -12 1 1.0737 -0.2362
4 -12 2 -0.8026 0.2433
4 -12 3 0.4219 -0.2470
4 -12 4 -0.0890 0.1681
4 -12 5 -0.0683 0.0145
4 -12 6 0.0006 -0.2233
4 -12 7 0.2205 0.3285
4 -12 8 -0.4185 -0.2459
4 -12 9 0.4195 0.0095
4 -12 10 -0.1863 0.2342
4 -12 11 -0.1417 -0.3097
4 -12 12 0.3415 0.1170
4 -12 13 -0.2545 0.3109
4 -11 0 0.1799 -0.3892
4 -11 1 0.4137 0.2725
4 -11 2 -0.8672 -0.0402
4 -11 3 1.1567 -0.1783
4 -11 4 -1.2823 0.2558
4 -11 5 1.1977 -0.1610
4 -11 6 -0.8666 -0.0109
4 -11 7 0.3815 0.1109
4 -11 8 0.0181 -0.0570
4 -11 9 -0.0871 -0.0951
4 -11 10 -0.2414 0.1922
4 -11 11 0.7882 -0.1067
4 -11 12 -1.2227 -0.1474
4 -11 13 1.2460 0.3995
4 -11 14 -0.7559 -0.4355
4 -11 15 -0.0783 0.1664
4 -10 0 0.0256 0.0788
4 -10 1 -0.0251 -0.1412
4 -10 2 -0.1123 0.1590
4 -10 3 0.3723 -0.0896
4 -10 4 -0.6794 -0.0355
4 -10 5 0.9461 0.1362
4 -10 6 -1.1006 -0.1503
4 -10 7 1.1058 0.0805
4 -10 8 -0.9752 0.0148
4 -10 9 0.7585 -0.0742
4 -10 10 -0.4962 0.0794
4 -10 11 0.2019 -0.0517
4 -10 12 0.0943 0.0110
4 -10 13 -0.3080 0.0399
4 -10 14 0.3657 -0.0720
4 -10 15 -0.3265 -0.0125
4 -10 16 0.3852 0.3290
4 -10 17 -0.6800 -0.8691
4 -9 0 -0.0392 0.4712
4 -9 1 0.3372 -0.3855
4 -9 2 -0.6438 0.2324
4 -9 3 0.8301 -0.0761
4 -9 4 -0.8061 -0.0346
4 -9 5 0.6679 0.0824
4 -9 6 -0.6577 -0.0734
4 -9 7 0.9255 0.0215
4 -9 8 -1.3301 0.0518
4 -9 9 1.5127 -0.1045
4 -9 10 -1.1976 0.0819
4 -9 11 0.4263 0.0343
4 -9 12 0.4841 -0.1791
4 -9 13 -1.1759 0.2326
4 -9 14 1.4446 -0.1232
4 -9 15 -1.2844 -0.0963
4 -9 16 0.8500 0.2935
4 -9 17 -0.3998 -0.3821
4 -9 18 0.1821 0.3851
4 -8 0 -0.5809 -0.0821
4 -8 1 1.2737 0.0445
4 -8 2 -1.6754 -0.0178
4 -8 3 1.7002 0.0319
4 -8 4 -1.4376 -0.0804
4 -8 5 0.9852 0.1198
4 -8 6 -0.3396 -0.1038
4 -8 7 -0.5433 0.0262
4 -8 8 1.6080 0.0717
4 -8 9 -2.6302 -0.1339
4 -8 10 3.2702 0.1254
4 -8 11 -3.2185 -0.0414
4 -8 12 2.3796 -0.0965
4 -8 13 -1.0140 0.2315
4 -8 14 -0.3074 -0.2764
4 -8 15 1.0154 0.1682
4 -8 16 -0.9461 0.0574
4 -8 17 0.4695 -0.2636
4 -8 18 -0.1629 0.3196
4 -8 19 0.3037 -0.2192
4 -7 0 -2.3129 0.1369
4 -7 1 2.0285 -0.2151
4 -7 2 -1.5044 0.1952
4 -7 3 0.9486 -0.1036
4 -7 4 -0.5823 0.0065
4 -7 5 0.4597 0.0386
4 -7 6 -0.3870 -0.0168
4 -7 8 0.5993 0.0698
4 -7 9 -1.4037 -0.0289
4 -7 10 1.9769 -0.0715
4 -7 11 -2.1326 0.1585
4 -7 12 1.9832 -0.1589
4 -7 13 -1.7375 0.0752
4 -7 14 1.4508 0.0147
4 -7 15 -1.0392 -0.0479
4 -7 16 0.5034 0.0516
4 -7 17 -0.0235 -0.0993
4 -7 18 -0.2342 0.1897
4 -7 19 0.3452 -0.2052
4 -7 20 -0.5596 0.0265
4 -6 0 -4.0401 -0.1958
4 -6 1 3.1713 0.1696
4 -6 2 -1.8027 -0.0883
4 -6 3 0.4348 -0.0282
4 -6 4 0.6546 0.1426
4 -6 5 -1.4038 -0.2071
4 -6 6 1.7671 0.1807
4 -6 7 -1.6208 -0.0679
4 -6 8 0.8838 -0.0603
4 -6 9 0.3300 0.1114
4 -6 10 -1.7246 -0.0570
4 -6 11 2.9597 -0.0327
4 -6 12 -3.7483 0.0602
4 -6 13 3.8839 -0.0039
4 -6 14 -3.3023 -0.0627
4 -6 15 2.1913 0.0566
4 -6 16 -0.9824 0.0291
4 -6 17 0.1238 -0.1301
4 -6 18 0.1937 0.1795
4 -6 19 -0.0842 -0.1475
4 -6 20 -0.2363 0.0284
4 -6 21 0.6363 0.1709
4 -5 0 2.0072 0.0414
4 -5 1 -2.2507 -0.1148
4 -5 2 2.0834 0.1794
4 -5 3 -1.8146 -0.2140
4 -5 4 1.7318 0.1804
4 -5 5 -1.9418 -0.0805
4 -5 6 2.3321 -0.0187
4 -5 7 -2.6157 0.0412
4 -5 8 2.4716 0.0199
4 -5 9 -1.7578 -0.0941
4 -5 10 0.6378 0.1019
4 -5 11 0.5289 -0.0213
4 -5 12 -1.4504 -0.1073
4 -5 13 2.0440 0.2160
4 -5 14 -2.3311 -0.2442
4 -5 15 2.2782 0.1653
4 -5 16 -1.8398 -0.0140
4 -5 17 1.1459 -0.1171
4 -5 18 -0.5266 0.1387
4 -5 19 0.2478 -0.0468
4 -5 20 -0.2438 -0.0676
4 -5 21 0.1999 0.1099
4 -5 22 0.0728 -0.0795
4 -4 0 2.5837 -0.0378
4 -4 1 -5.0974 -0.0149
4 -4 2 6.8101 0.0202
4 -4 3 -7.3732 0.0050
4 -4 4 6.7044 -0.0205
4 -4 5 -4.9019 0.0149
4 -4 6 2.3075 -0.0057
4 -4 7 0.4062 -0.0010
4 -4 8 -2.4041 0.0211
4 -4 9 3.1118 -0.0575
4 -4 10 -2.5348 0.0806
4 -4 11 1.1678 -0.0620
4 -4 12 0.3897 0.0139
4 -4 13 -1.7311 0.0261
4 -4 14 2.6605 -0.0447
4 -4 15 -3.0903 0.0638
4 -4 16 3.0275 -0.0937
4 -4 17 -2.6140 0.1004
4 -4 18 2.0619 -0.0446
4 -4 19 -1.4946 -0.0534
4 -4 20 0.8908 0.1109
4 -4 21 -0.2164 -0.0572
4 -4 22 -0.4288 -0.0999
4 -3 0 0.3124 0.3053
4 -3 1 0.4550 -0.2592
4 -3 2 -1.0879 0.1577
4 -3 3 1.5449 0.0186
4 -3 4 -1.8097 -0.2116
4 -3 5 1.8036 0.3070
4 -3 6 -1.5355 -0.2438
4 -3 7 1.2435 0.0804
4 -3 8 -1.2610 0.0639
4 -3 9 1.7052 -0.1196
4 -3 10 -2.3364 0.1047
4 -3 11 2.7389 -0.0685
4 -3 12 -2.6180 0.0320
4 -3 13 1.9403 0.0077
4 -3 14 -0.8780 -0.0416
4 -3 15 -0.2940 0.0483
4 -3 16 1.2736 -0.0251
4 -3 17 -1.8302 -0.0033
4 -3 18 1.9165 0.0138
4 -3 19 -1.6737 -0.0099
4 -3 20 1.2784 0.0059
4 -3 21 -0.7921 0.0002
4 -3 22 0.2037 -0.0223
4 -3 23 0.3932 0.0600
4 -2 0 3.2261 0.1393
4 -2 1 -1.0664 -0.0540
4 -2 2 -2.1495 0.0093
4 -2 3 5.5138 -0.0456
4 -2 4 -8.3890 0.1094
4 -2 5 10.3344 -0.1274
4 -2 6 -10.8905 0.0978
4 -2 7 9.6647 -0.0810
4 -2 8 -6.7206 0.1121
4 -2 9 2.8097 -0.1541
4 -2 10 0.9033 0.1472
4 -2 11 -3.4402 -0.0791
4 -2 12 4.4314 -0.0106
4 -2 13 -4.0951 0.0804
4 -2 14 2.9335 -0.1154
4 -2 15 -1.4511 0.1117
4 -2 16 0.0176 -0.0608
4 -2 17 1.1688 -0.0325
4 -2 18 -2.0531 0.1307
4 -2 19 2.6273 -0.1859
4 -2 20 -2.8346 0.1822
4 -2 21 2.5964 -0.1450
4 -2 22 -1.9563 0.1043
4 -2 23 1.1573 -0.0622
4 -1 0 -1.1082 -0.3540
4 -1 1 -1.0937 0.3039
4 -1 2 2.6478 -0.2644
4 -1 3 -3.1566 0.2248
4 -1 4 2.7964 -0.1349
4 -1 5 -1.9605 -0.0005
4 -1 6 0.9015 0.1072
4 -1 7 0.2588 -0.1232
4 -1 8 -1.3139 0.0648
4 -1 9 1.9411 0.0021
4 -1 10 -1.9339 -0.0356
4 -1 11 1.4028 0.0389
4 -1 12 -0.6927 -0.0236
4 -1 13 0.1190 -0.0132
4 -1 14 0.1867 0.0649
4 -1 15 -0.2200 -0.0952
4 -1 16 -0.0134 0.0712
4 -1 17 0.5155 -0.0111
4 -1 18 -1.2322 -0.0236
4 -1 19 2.0131 -0.0054
4 -1 20 -2.6353 0.0676
4 -1 21 2.8646 -0.0958
4 -1 22 -2.5471 0.0567
4 -1 23 1.7261 0.0183
4 -1 24 -0.6953 -0.0724
4 0 0 -0.8289 0.2344
4 0 1 4.3720 -0.1752
4 0 2 -5.3194 0.1334
4 0 3 3.5967 -0.0865
4 0 4 0.2622 0.0308
4 0 5 -5.4468 -0.0028
4 0 6 10.9156 0.0228
4 0 7 -15.3504 -0.0522
4 0 8 17.4466 0.0382
4 0 9 -16.5580 0.0129
4 0 10 13.1663 -0.0382
4 0 11 -8.6605 -0.0004
4 0 12 4.5321 0.0651
4 0 13 -1.6234 -0.0865
4 0 14 -0.0394 0.0463
4 0 15 0.8630 0.0081
4 0 16 -1.2019 -0.0247
4 0 17 1.1546 0.0013
4 0 18 -0.6802 0.0306
4 0 19 -0.1692 -0.0544
4 0 20 1.1242 0.0825
4 0 21 -1.7888 -0.1241
4 0 22 1.8825 0.1586
4 0 23 -1.4435 -0.1513
4 0 24 0.7983 0.0897
4 1 0 15.4633 -0.0754
4 1 1 -13.7319 0.0365
4 1 2 9.8895 0.0292
4 1 3 -5.3102 -0.1296
4 1 4 1.3714 0.2012
4 1 5 1.1768 -0.1799
4 1 6 -2.2477 0.0849
4 1 7 2.1187 -0.0028
4 1 8 -1.2193 -0.0080
4 1 9 0.0840 -0.0310
4 1 10 0.7448 0.0627
4 1 11 -0.9568 -0.0631
4 1 12 0.6482 0.0465
4 1 13 -0.2017 -0.0228
4 1 14 -0.0448 -0.0186
4 1 15 0.0328 0.0771
4 1 16 0.0717 -0.1210
4 1 17 -0.1143 0.1176
4 1 18 0.1178 -0.0739
4 1 19 -0.2475 0.0273
4 1 20 0.6384 0.0042
4 1 21 -1.2345 -0.0435
4 1 22 1.7668 0.1170
4 1 23 -1.9079 -0.2052
4 1 24 1.5163 0.2489
4 2 0 -9.8335 -0.1581
4 2 1 4.2845 0.0518
4 2 3 -9.9678 -0.0114
4 2 6 15.6870 -0.2196
4 2 7 -10.6471 0.2452
4 2 8 3.8156 -0.1795
4 2 9 2.6224 0.0358
4 2 10 -6.8455 0.1004
4 2 11 8.2331 -0.1383
4 2 12 -7.4443 0.0707
4 2 13 5.7259 0.0222
4 2 14 -4.0531 -0.0633
4 2 15 2.7404 0.0531
4 2 16 -1.6508 -0.0437
4 2 17 0.6338 0.0561
4 2 18 0.2331 -0.0521
4 2 19 -0.7282 -0.0089
4 2 20 0.7213 0.1053
4 2 21 -0.3218 -0.1656
4 2 22 -0.1781 0.1385
4 2 23 0.5046 -0.0399
4 2 24 -0.5742 -0.0690
4 3 0 -12.9591 0.3272
4 3 1 16.8528 -0.2767
4 3 2 -19.0688 0.1760
4 3 3 19.0012 -0.0257
4 3 4 -16.9477 -0.1198
4 3 5 13.7714 0.1774
4 3 6 -10.3918 -0.1229
4 3 7 7.4766 0.0271
4 3 8 -5.3654 0.0185
4 3 9 4.0645 0.0007
4 3 10 -3.2755 -0.0209
4 3 11 2.5651 -0.0117
4 3 12 -1.6676 0.0786
4 3 13 0.6864 -0.1216
4 3 14 0.0272 0.1138
4 3 15 -0.2279 -0.0771
4 3 16 0.0301 0.0383
4 3 17 0.1819 0.0017
4 3 18 -0.0864 -0.0500
4 3 19 -0.3091 0.0949
4 3 20 0.6878 -0.1172
4 3 21 -0.6898 0.1217
4 3 22 0.2045 -0.1367
4 3 23 0.5308 0.1771
4 3 24 -1.0950 -0.2176
4 4 0 10.5577 -0.2699
4 4 1 -12.9177 0.2348
4 4 2 12.8187 -0.1629
4 4 3 -10.0026 0.0641
4 4 4 4.9235 0.0135
4 4 5 1.2932 -0.0329
4 4 6 -7.0884 0.0120
4 4 7 10.9253 0.0062
4 4 8 -11.8847 -0.0138
4 4 9 10.0954 0.0400
4 4 10 -6.6432 -0.0940
4 4 11 2.9332 0.1342
4 4 12 0.0529 -0.1142
4 4 13 -2.0624 0.0416
4 4 14 3.3068 0.0293
4 4 15 -3.9952 -0.0575
4 4 16 4.1249 0.0448
4 4 17 -3.6353 -0.0052
4 4 18 2.6547 -0.0645
4 4 19 -1.5457 0.1595
4 4 20 0.7109 -0.2260
4 4 21 -0.3484 0.1820
4 4 22 0.3606 -0.0008
4 4 23 -0.4667 -0.2359
4 4 24 0.4225 0.3871
4 5 0 -0.4834 -0.2486
4 5 1 -1.0560 0.2089
4 5 2 3.7809 -0.1804
4 5 3 -6.7131 0.1530
4 5 4 8.8712 -0.0951
4 5 5 -9.7388 0.0145
4 5 6 9.3600 0.0461
4 5 7 -8.1487 -0.0650
4 5 8 6.6476 0.0615
4 5 9 -5.3372 -0.0536
4 5 10 4.4716 0.0267
4 5 11 -3.9801 0.0333
4 5 12 3.5562 -0.0934
4 5 13 -2.9331 0.0944
4 5 14 2.1265 -0.0243
4 5 15 -1.4094 -0.0546
4 5 16 1.0390 0.0692
4 5 17 -1.0105 -0.0145
4 5 18 1.0663 -0.0489
4 5 19 -0.9226 0.0689
4 5 20 0.4876 -0.0531
4 5 21 0.1006 0.0426
4 5 22 -0.6014 -0.0564
4 5 23 0.8371 0.0769
4 6 0 1.8628 0.0918
4 6 1 -0.3779 -0.1115
4 6 2 -2.0002 0.0810
4 6 3 4.5112 0.0141
4 6 4 -6.1472 -0.1269
4 6 5 6.1321 0.1753
4 6 6 -4.3182 -0.1260
4 6 7 1.2917 0.0325
4 6 8 1.8926 0.0230
4 6 9 -4.2387 -0.0121
4 6 10 5.2901 -0.0292
4 6 11 -5.2274 0.0565
4 6 12 4.5365 -0.0564
4 6 13 -3.5741 0.0332
4 6 14 2.4278 0.0091
4 6 15 -1.1273 -0.0545
4 6 16 -0.1110 0.0647
4 6 17 0.9189 -0.0149
4 6 18 -1.0588 -0.0620
4 6 19 0.6417 0.0961
4 6 20 -0.0570 -0.0630
4 6 21 -0.3044 0.0276
4 6 22 0.2855 -0.0789
4 6 23 0.0044 0.2231
4 7 0 -2.5343 0.2498
4 7 1 1.9941 -0.2429
4 7 2 -1.9859 0.1714
4 7 3 2.2730 -0.0931
4 7 4 -2.6337 0.0354
4 7 5 3.0508 0.0015
4 7 6 -3.6375 -0.0189
4 7 7 4.3813 0.0247
4 7 8 -5.0163 -0.0436
4 7 9 5.1975 0.0926
4 7 10 -4.7988 -0.1432
4 7 11 4.0115 0.1388
4 7 12 -3.1574 -0.0617
4 7 13 2.4498 -0.0356
4 7 14 -1.9368 0.0873
4 7 15 1.6037 -0.0920
4 7 16 -1.4403 0.1045
4 7 17 1.3959 -0.1536
4 7 18 -1.3423 0.1950
4 7 19 1.1524 -0.1675
4 7 20 -0.8260 0.0780
4 7 21 0.5053 -0.0006
4 7 22 -0.3485 -0.0083
4 8 0 0.3617 -0.0981
4 8 1 0.5864 0.1225
4 8 2 -0.5548 -0.1465
4 8 3 -0.2808 0.1527
4 8 4 1.3721 -0.1162
4 8 5 -2.1360 0.0530
4 8 6 2.2302 -0.0113
4 8 7 -1.6386 0.0177
4 8 9 0.5081 0.0893
4 8 10 -1.4282 -0.1155
4 8 11 2.0970 0.1295
4 8 12 -2.6301 -0.1110
4 8 13 3.0872 0.0422
4 8 14 -3.2974 0.0507
4 8 15 2.9646 -0.1051
4 8 16 -1.9889 0.0828
4 8 17 0.6655 -0.0037
4 8 18 0.4725 -0.0932
4 8 19 -1.0312 0.2015
4 8 20 0.9943 -0.3284
4 8 21 -0.6379 0.4285
4 8 22 0.2659 -0.4021
4 9 0 3.3066 -0.0066
4 9 1 -3.1589 0.0254
4 9 2 2.9596 -0.0639
4 9 3 -2.6226 0.1032
4 9 4 2.0148 -0.1146
4 9 5 -1.1776 0.0768
4 9 6 0.4087 -0.0093
4 9 7 -0.0594 -0.0336
4 9 8 0.2200 0.0166
4 9 9 -0.6291 0.0383
4 9 10 0.9203 -0.0814
4 9 11 -0.9371 0.0893
4 9 12 0.7824 -0.0718
4 9 13 -0.6003 0.0354
4 9 14 0.3995 0.0255
4 9 15 -0.1281 -0.0883
4 9 16 -0.1476 0.0892
4 9 17 0.2389 0.0078
4 9 18 -0.0401 -0.1309
4 9 19 -0.3147 0.1325
4 9 20 0.5477 0.0684
4 9 21 -0.4885 -0.3840
4 10 0 -1.2282 -0.0074
4 10 1 0.5260 0.0553
4 10 2 0.0184 -0.1058
4 10 3 -0.2589 0.1347
4 10 4 0.2437 -0.1485
4 10 5 -0.0542 0.1587
4 10 6 -0.2826 -0.1517
4 10 7 0.7075 0.1079
4 10 8 -1.0423 -0.0417
4 10 9 1.0858 -0.0046
4 10 10 -0.8031 0.0066
4 10 11 0.3547 0.0222
4 10 12 0.0901 -0.0630
4 10 13 -0.5235 0.1181
4 10 14 1.0311 -0.1853
4 10 15 -1.5817 0.2240
4 10 16 1.9632 -0.1830
4 10 17 -1.9661 0.0685
4 10 18 1.5985 0.0448
4 10 19 -1.0820 -0.0915
4 10 20 0.6480 0.0889
4 11 0 0.1823 -0.2301
4 11 1 0.3133 0.1174
4 11 2 -0.8956 -0.0628
4 11 3 1.6249 0.0860
4 11 4 -2.3512 -0.1344
4 11 5 2.7557 0.1455
4 11 6 -2.6252 -0.0957
4 11 7 2.0752 0.0001
4 11 8 -1.4549 0.1048
4 11 9 1.0292 -0.1699
4 11 10 -0.7967 0.1534
4 11 11 0.6212 -0.0596
4 11 12 -0.4659 -0.0505
4 11 13 0.4174 0.1108
4 11 14 -0.4987 -0.1111
4 11 15 0.5592 0.0860
4 11 16 -0.4195 -0.0419
4 11 17 0.0962 -0.0722
4 11 18 0.1855 0.2920
4 11 19 -0.2173 -0.5514
4 12 0 0.8358 0.3415
4 12 1 -0.7309 -0.2574
4 12 2 0.5390 0.0731
4 12 3 -0.3608 0.1041
4 12 4 0.1098 -0.1787
4 12 5 0.3169 0.1226
4 12 6 -0.8028 -0.0032
4 12 7 1.0396 -0.0605
4 12 8 -0.8266 -0.0013
4 12 9 0.2935 0.1465
4 12 10 0.2225 -0.2674
4 12 11 -0.4934 0.2925
4 12 12 0.5398 -0.2313
4 12 13 -0.4709 0.1282
4 12 14 0.2858 -0.0124
4 12 15 0.0920 -0.0917
4 12 16 -0.6151 0.1330
4 12 17 1.0473 -0.0601
4 12 18 -1.1491 -0.1098
4 13 0 -0.1775 0.3459
4 13 1 0.0630 -0.2482
4 13 2 -0.0075 0.0989
4 13 3 -0.1119 -0.0196
4 13 4 0.4519 0.0297
4 13 5 -0.9338 -0.0576
4 13 6 1.2331 0.0376
4 13 7 -1.0903 0.0301
4 13 8 0.5999 -0.1009
4 13 9 -0.1294 0.1332
4 13 10 -0.0494 -0.1061
4 13 11 -0.0016 0.0187
4 13 12 0.0281 0.1050
4 13 13 0.1027 -0.2204
4 13 14 -0.2877 0.2955
4 13 15 0.3619 -0.3399
4 13 16 -0.3005 0.3785
4 14 0 0.3333 0.0710
4 14 1 -0.2081 -0.0842
4 14 2 0.2748 0.1462
4 14 3 -0.2581 -0.1948
4 14 4 -0.0118 0.1750
4 14 5 0.3863 -0.0821
4 14 6 -0.5552 -0.0317
4 14 7 0.3787 0.0872
4 14 8 -0.0119 -0.0424
4 14 9 -0.2859 -0.0516
4 14 10 0.3951 0.0747
4 14 11 -0.3613 0.0534
4 14 12 0.2502 -0.2828
4 14 13 -0.0709 0.4682
4 14 14 -0.1436 -0.5019
4 15 0 0.8755 -0.0629
4 15 1 -0.8350 0.0079
4 15 2 0.6611 0.0895
4 15 3 -0.5010 -0.1476
4 15 4 0.3320 0.1199
4 15 5 -0.0619 -0.0491
4 15 6 -0.2564 0.0097
4 15 7 0.4031 -0.0172
4 15 8 -0.2266 0.0167
4 15 9 -0.1460 0.0482
4 15 10 0.3961 -0.1777
4 15 11 -0.3183 0.3304
4 15 12 0.0011 -0.4669
4 16 0 -0.7472 -0.0561
4 16 1 0.7425 -0.1956
4 16 2 -0.7473 0.3039
4 16 3 0.7517 -0.2686
4 16 4 -0.6025 0.1824
4 16 5 0.2264 -0.1402
4 16 6 0.2247 0.1698
4 16 7 -0.4927 -0.2110
4 16 8 0.4563 0.1564
5 -14 0 0.4336 -0.0114
5 -14 1 -0.3721 -0.1089
5 -14 2 0.2935 0.2336
5 -14 3 -0.2019 -0.2506
5 -14 4 0.1147 0.1359
5 -14 5 -0.0197 0.0085
5 -13 0 -0.2402 -0.0532
5 -13 1 0.4132 0.0398
5 -13 2 -0.5908 0.0358
5 -13 3 0.6120 -0.1343
5 -13 4 -0.4154 0.1743
5 -13 5 0.0715 -0.1249
5 -13 6 0.2621 0.0440
5 -13 7 -0.4346 -0.0066
5 -13 8 0.3953 -0.0011
5 -13 9 -0.2230 0.0914
5 -12 0 1.1525 0.2162
5 -12 1 -1.4053 -0.1924
5 -12 2 1.2775 -0.0091
5 -12 3 -0.8179 0.2318
5 -12 4 0.1905 -0.2856
5 -12 5 0.3768 0.1229
5 -12 6 -0.6615 0.1049
5 -12 7 0.5527 -0.1730
5 -12 8 -0.1410 -0.0153
5 -12 9 -0.3077 0.3273
5 -12 10 0.5170 -0.4891
5 -12 11 -0.3845 0.2949
5 -12 12 0.0311 0.2242
5 -11 0 -0.5896 0.1729
5 -11 1 0.5395 -0.2212
5 -11 2 -0.2856 0.2097
5 -11 3 -0.1595 -0.1878
5 -11 5 -1.0433 -0.1786
5 -11 6 1.0878 0.1265
5 -11 7 -0.7758 -0.0091
5 -11 8 0.2905 -0.1218
5 -11 9 0.0751 0.1671
5 -11 10 -0.1104 -0.0604
5 -11 11 -0.1833 -0.1619
5 -11 12 0.6117 0.3655
5 -11 13 -0.9074 -0.3951
5 -11 14 0.8620 0.1704
5 -10 0 0.6852 -0.2864
5 -10 1 -0.4982 0.3353
5 -10 2 0.2563 -0.2085
5 -10 3 -0.0326 -0.0347
5 -10 4 -0.1065 0.2443
5 -10 5 0.1002 -0.2875
5 -10 6 0.0574 0.1481
5 -10 7 -0.2740 0.0653
5 -10 8 0.4009 -0.2041
5 -10 9 -0.3379 0.1854
5 -10 10 0.0973 -0.0441
5 -10 11 0.2304 -0.1002
5 -10 12 -0.5479 0.1351
5 -10 13 0.7776 -0.0425
5 -10 14 -0.8564 -0.0925
5 -10 15 0.7659 0.1655
5 -10 16 -0.5815 -0.1536
5 -9 0 1.2521 -0.1538
5 -9 1 -1.3671 0.1603
5 -9 2 1.2318 -0.0962
5 -9 3 -0.7631 0.0192
5 -9 4 0.0083 0.0096
5 -9 5 0.8347 0.0289
5 -9 6 -1.4923 -0.0986
5 -9 7 1.7702 0.1391
5 -9 8 -1.6768 -0.1175
5 -9 9 1.3915 0.0486
5 -9 10 -1.0897 0.0345
5 -9 11 0.8054 -0.1169
5 -9 12 -0.4792 0.1945
5 -9 13 0.1174 -0.2378
5 -9 14 0.1618 0.1941
5 -9 15 -0.2720 -0.0498
5 -9 16 0.2995 -0.1212
5 -9 17 -0.4261 0.2034
5 -8 0 0.8167 -0.0599
5 -8 1 -0.2394 0.0526
5 -8 2 -0.4220 -0.0622
5 -8 3 0.9306 0.0789
5 -8 4 -1.1106 -0.0742
5 -8 5 1.0260 0.0363
5 -8 6 -0.9573 0.0103
5 -8 7 1.1544 -0.0327
5 -8 8 -1.5926 0.0313
5 -8 9 1.9779 -0.0374
5 -8 10 -1.9970 0.0678
5 -8 11 1.5587 -0.0960
5 -8 12 -0.8203 0.0835
5 -8 13 0.0415 -0.0255
5 -8 14 0.5502 -0.0497
5 -8 15 -0.8150 0.1226
5 -8 16 0.7442 -0.1955
5 -8 17 -0.5089 0.2547
5 -8 18 0.3991 -0.2441
5 -8 19 -0.6024 0.1118
5 -7 0 1.4888 -0.0689
5 -7 1 -0.4005 0.1301
5 -7 2 -0.7211 -0.1543
5 -7 3 1.4760 0.1531
5 -7 4 -1.6544 -0.1476
5 -7 5 1.2991 0.1387
5 -7 6 -0.6240 -0.1102
5 -7 7 -0.1360 0.0616
5 -7 8 0.8534 -0.0194
5 -7 9 -1.5258 0.0049
5 -7 10 2.1518 -0.0030
5 -7 11 -2.5752 -0.0154
5 -7 12 2.5032 0.0440
5 -7 13 -1.7685 -0.0351
5 -7 14 0.6043 -0.0434
5 -7 15 0.4147 0.1588
5 -7 16 -0.7998 -0.2359
5 -7 17 0.5510 0.2200
5 -7 18 -0.1037 -0.1027
5 -7 19 -0.1291 -0.1044
5 -7 20 0.1235 0.3830
5 -6 0 -2.1787 0.2476
5 -6 1 2.1744 -0.3149
5 -6 2 -1.7604 0.2855
5 -6 3 1.1188 -0.1865
5 -6 4 -0.5680 0.0648
5 -6 5 0.3057 0.0469
5 -6 7 -0.0453 0.1514
5 -6 8 0.7213 -0.1102
5 -6 9 -1.6936 0.0332
5 -6 10 2.5663 0.0248
5 -6 11 -3.0105 -0.0379
5 -6 12 2.9942 0.0315
5 -6 13 -2.6764 -0.0379
5 -6 14 2.1565 0.0427
5 -6 15 -1.4241 -0.0031
5 -6 16 0.5507 -0.0781
5 -6 17 0.1833 0.1262
5 -6 18 -0.4609 -0.0640
5 -6 19 0.2318 -0.0978
5 -6 20 0.2188 0.2633
5 -6 21 -0.5293 -0.3434
5 -5 0 -5.5047 0.1517
5 -5 1 5.4924 -0.1014
5 -5 2 -4.5069 0.0563
5 -5 3 2.9372 -0.0162
5 -5 4 -1.2559 -0.0052
5 -5 5 -0.1810 0.0054
5 -5 6 1.1515 -0.0202
5 -5 7 -1.5228 0.0933
5 -5 8 1.2641 -0.2042
5 -5 9 -0.4818 0.2556
5 -5 10 -0.6100 -0.1625
5 -5 11 1.7579 -0.0435
5 -5 12 -2.6975 0.2219
5 -5 13 3.1640 -0.2479
5 -5 14 -2.9827 0.1224
5 -5 15 2.2212 0.0433
5 -5 16 -1.2151 -0.1354
5 -5 17 0.3583 0.1199
5 -5 18 0.1656 -0.0364
5 -5 19 -0.4275 -0.0542
5 -5 20 0.5394 0.1075
5 -5 21 -0.4775 -0.1072
5 -4 0 1.5745 -0.0888
5 -4 1 -2.2215 0.0868
5 -4 2 2.3581 -0.0209
5 -4 3 -2.0976 -0.0766
5 -4 4 1.7267 0.1182
5 -4 5 -1.5151 -0.0530
5 -4 6 1.5546 -0.0696
5 -4 7 -1.6858 0.1462
5 -4 8 1.5861 -0.1230
5 -4 9 -1.0092 0.0391
5 -4 10 -0.0083 0.0299
5 -4 11 1.1809 -0.0452
5 -4 12 -2.2182 0.0180
5 -4 13 3.0015 0.0260
5 -4 14 -3.5080 -0.0674
5 -4 15 3.6371 0.0869
5 -4 16 -3.2307 -0.0678
5 -4 17 2.3100 0.0184
5 -4 18 -1.2113 0.0255
5 -4 19 0.3803 -0.0385
5 -4 20 -0.0075 0.0414
5 -4 21 -0.0877 -0.0793
5 -4 22 0.1950 0.1607
5 -3 0 2.6554 -0.1512
5 -3 1 -5.4080 0.1670
5 -3 2 7.6545 -0.1847
5 -3 3 -8.9281 0.1694
5 -3 4 8.9702 -0.0968
5 -3 5 -7.6577 0.0027
5 -3 6 5.0915 0.0479
5 -3 7 -1.7903 -0.0371
5 -3 8 -1.3302 0.0136
5 -3 9 3.3474 -0.0252
5 -3 10 -3.8214 0.0570
5 -3 11 2.9644 -0.0576
5 -3 12 -1.3895 0.0146
5 -3 13 -0.2794 0.0253
5 -3 14 1.6265 -0.0196
5 -3 15 -2.4578 -0.0115
5 -3 16 2.7574 0.0113
5 -3 17 -2.6498 0.0370
5 -3 18 2.3209 -0.0830
5 -3 19 -1.9014 0.0647
5 -3 20 1.4251 0.0233
5 -3 21 -0.9095 -0.1251
5 -3 22 0.4356 0.1784
5 -3 23 -0.0989 -0.1627
5 -2 0 0.7892 -0.0233
5 -2 1 -0.1408 -0.0211
5 -2 2 -0.3952 0.0414
5 -2 3 0.8720 0.0260
5 -2 4 -1.3169 -0.1527
5 -2 5 1.5878 0.2263
5 -2 6 -1.5194 -0.1675
5 -2 7 1.1832 0.0194
5 -2 8 -0.9103 0.0983
5 -2 9 1.0149 -0.1128
5 -2 10 -1.5079 0.0556
5 -2 11 2.0808 -0.0037
5 -2 12 -2.3329 -0.0060
5 -2 13 2.0086 -0.0083
5 -2 14 -1.1008 0.0214
5 -2 15 -0.1627 -0.0318
5 -2 16 1.4107 0.0433
5 -2 17 -2.2948 -0.0432
5 -2 18 2.6690 0.0164
5 -2 19 -2.6318 0.0251
5 -2 20 2.3681 -0.0449
5 -2 21 -1.9543 0.0162
5 -2 22 1.3553 0.0536
5 -2 23 -0.6089 -0.1325
5 -1 0 2.8240 -0.0005
5 -1 1 -0.1653 -0.0165
5 -1 2 -3.6650 0.0666
5 -1 3 7.6587 -0.1562
5 -1 4 -11.0481 0.2237
5 -1 5 13.3579 -0.2071
5 -1 6 -14.1862 0.1212
5 -1 7 13.1709 -0.0419
5 -1 8 -10.2942 0.0171
5 -1 9 6.1696 -0.0207
5 -1 10 -1.8986 0.0015
5 -1 11 -1.4641 0.0453
5 -1 12 3.3846 -0.0772
5 -1 13 -3.9180 0.0649
5 -1 14 3.4475 -0.0272
5 -1 15 -2.4067 0.0014
5 -1 16 1.1610 0.0012
5 -1 17 0.0047 0.0053
5 -1 18 -0.8904 -0.0120
5 -1 19 1.3889 0.0236
5 -1 20 -1.4785 -0.0327
5 -1 21 1.2208 0.0068
5 -1 22 -0.7724 0.0819
5 -1 23 0.3506 -0.2142
5 0 0 -3.2292 0.0055
5 0 1 1.9446 0.0559
5 0 2 -1.0197 -0.1235
5 0 3 0.8709 0.1526
5 0 4 -1.4000 -0.1013
5 0 5 2.2754 -0.0000
5 0 6 -3.2906 0.0622
5 0 7 4.3757 -0.0296
5 0 8 -5.3458 -0.0601
5 0 9 5.8094 0.1219
5 0 10 -5.4284 -0.1136
5 0 11 4.2481 0.0606
5 0 12 -2.7171 -0.0042
5 0 13 1.3717 -0.0447
5 0 14 -0.5081 0.0891
5 0 15 0.1190 -0.1094
5 0 16 -0.0637 0.0731
5 0 17 0.2467 0.0170
5 0 18 -0.6551 -0.1082
5 0 19 1.2719 0.1470
5 0 20 -1.9688 -0.1361
5 0 21 2.4769 0.1301
5 0 22 -2.4977 -0.1717
5 0 23 1.9156 0.2398
5 0 24 -0.9485 -0.2666
5 1 0 -2.7063 0.2809
5 1 1 6.2030 -0.3438
5 1 2 -7.5437 0.3437
5 1 3 6.4461 -0.2592
5 1 4 -3.2373 0.1295
5 1 5 -1.4660 -0.0400
5 1 6 6.8403 0.0375
5 1 7 -11.7593 -0.0787
5 1 8 14.9340 0.0823
5 1 9 -15.4614 -0.0251
5 1 10 13.3862 -0.0359
5 1 11 -9.7199 0.0368
5 1 12 5.8266 0.0192
5 1 13 -2.6763 -0.0730
5 1 14 0.5362 0.0785
5 1 15 0.7948 -0.0393
5 1 16 -1.5620 -0.0180
5 1 17 1.8339 0.0802
5 1 18 -1.5773 -0.1446
5 1 19 0.8525 0.1930
5 1 20 0.0840 -0.1911
5 1 21 -0.8631 0.1214
5 1 22 1.2083 -0.0084
5 1 23 -1.1018 -0.0968
5 1 24 0.7643 0.1543
5 2 0 7.1380 -0.1779
5 2 1 -7.0741 0.1425
5 2 2 5.5335 -0.0387
5 2 3 -3.1445 -0.1041
5 2 4 0.7678 0.2017
5 2 5 0.9615 -0.1915
5 2 6 -1.7303 0.0997
5 2 7 1.4454 -0.0124
5 2 8 -0.2447 -0.0156
5 2 9 -1.3942 0.0064
5 2 10 2.7385 -0.0129
5 2 11 -3.1937 0.0523
5 2 12 2.7046 -0.0981
5 2 13 -1.7619 0.1212
5 2 14 0.9839 -0.1147
5 2 15 -0.6583 0.0784
5 2 16 0.6371 -0.0098
5 2 17 -0.6059 -0.0741
5 2 18 0.4248 0.1191
5 2 19 -0.2396 -0.0702
5 2 20 0.3144 -0.0632
5 2 21 -0.7578 0.1897
5 2 22 1.3769 -0.2026
5 2 23 -1.7819 0.0729
5 2 24 1.6738 0.1221
5 3 0 -6.2706 -0.0512
5 3 1 2.5915 0.1204
5 3 2 2.3913 -0.1754
5 3 3 -7.5830 0.1878
5 3 4 11.8489 -0.1490
5 3 5 -14.1909 0.0953
5 3 6 13.8971 -0.0727
5 3 7 -10.8353 0.0779
5 3 8 5.7458 -0.0593
5 3 9 -0.1416 -0.0121
5 3 10 -4.3412 0.0930
5 3 11 6.7532 -0.1110
5 3 12 -7.1782 0.0522
5 3 13 6.3849 0.0180
5 3 14 -5.1568 -0.0280
5 3 15 3.8798 -0.0233
5 3 16 -2.6102 0.0750
5 3 17 1.3770 -0.0777
5 3 18 -0.3513 0.0416
5 3 19 -0.2442 -0.0117
5 3 20 0.3313 0.0150
5 3 21 -0.0681 -0.0429
5 3 22 -0.2476 0.0750
5 3 23 0.3777 -0.1024
5 3 24 -0.2861 0.1254
5 4 0 -5.1461 0.1114
5 4 1 8.0883 -0.1889
5 4 2 -10.4988 0.2124
5 4 3 11.6768 -0.1424
5 4 4 -11.3634 0.0238
5 4 5 9.7300 0.0434
5 4 6 -7.2463 -0.0046
5 4 7 4.5738 -0.0923
5 4 8 -2.4197 0.1519
5 4 9 1.2535 -0.1283
5 4 10 -1.0269 0.0536
5 4 11 1.2001 0.0146
5 4 12 -1.1598 -0.0502
5 4 13 0.6974 0.0569
5 4 14 -0.1135 -0.0425
5 4 15 -0.1356 0.0160
5 4 16 -0.1117 -0.0019
5 4 17 0.5923 0.0281
5 4 18 -0.8788 -0.0890
5 4 19 0.7477 0.1397
5 4 20 -0.3294 -0.1429
5 4 21 -0.0387 0.1163
5 4 22 0.0954 -0.1177
5 4 24 -0.4785 -0.2604
5 5 0 5.2488 -0.2366
5 5 1 -6.6705 0.2565
5 5 2 6.5410 -0.2039
5 5 3 -4.8958 0.1113
5 5 4 2.0571 -0.0414
5 5 5 1.4690 0.0253
5 5 6 -4.9924 -0.0325
5 5 7 7.6760 0.0170
5 5 8 -8.7950 0.0179
5 5 9 8.1344 -0.0260
5 5 10 -6.1617 -0.0148
5 5 11 3.7359 0.0677
5 5 12 -1.5641 -0.0806
5 5 13 -0.1175 0.0467
5 5 14 1.4004 -0.0020
5 5 15 -2.3382 -0.0266
5 5 16 2.7840 0.0419
5 5 17 -2.5678 -0.0442
5 5 18 1.7712 0.0068
5 5 19 -0.7823 0.0870
5 5 20 0.0730 -0.1908
5 5 22 0.1933 -0.0742
5 5 23 -0.6169 -0.1661
5 6 0 -1.3897 -0.0900
5 6 1 1.0425 0.0274
5 6 2 0.6318 0.0135
5 6 3 -3.1281 -0.0327
5 6 4 5.6457 0.0492
5 6 5 -7.4474 -0.0581
5 6 6 8.0960 0.0397
5 6 7 -7.5447 -0.0029
5 6 8 6.1385 -0.0139
5 6 9 -4.4916 -0.0060
5 6 10 3.1933 0.0275
5 6 11 -2.4787 -0.0064
5 6 12 2.1397 -0.0507
5 6 13 -1.7886 0.0913
5 6 14 1.2364 -0.0824
5 6 15 -0.6283 0.0460
5 6 16 0.2373 -0.0216
5 6 17 -0.1713 0.0128
5 6 18 0.2945 0.0070
5 6 19 -0.3909 -0.0456
5 6 20 0.3581 0.0761
5 6 21 -0.2434 -0.0765
5 6 22 0.1421 0.0645
5 6 23 -0.0969 -0.0729
5 7 0 0.6642 -0.0206
5 7 1 0.0529 -0.0119
5 7 2 -1.0681 0.0319
5 7 3 2.1896 -0.0027
5 7 4 -3.0393 -0.0546
5 7 5 3.1434 0.0747
5 7 6 -2.1770 -0.0225
5 7 7 0.2493 -0.0661
5 7 8 2.0209 0.1258
5 7 9 -3.8080 -0.1269
5 7 10 4.5907 0.0852
5 7 11 -4.4392 -0.0246
5 7 12 3.8124 -0.0407
5 7 13 -3.0845 0.0861
5 7 14 2.2834 -0.0748
5 7 16 0.0966 0.0900
5 7 17 0.8922 -0.1316
5 7 18 -1.3118 0.1194
5 7 19 1.0691 -0.1045
5 7 20 -0.4350 0.1127
5 7 21 -0.1739 -0.0874
5 7 22 0.4717 -0.0535
5 8 0 -3.9241 -0.0633
5 8 1 2.2782 -0.0128
5 8 2 -1.2890 0.0471
5 8 3 0.9153 -0.0361
5 8 4 -0.8794 -0.0116
5 8 6 -1.2749 -0.0827
5 8 7 1.7539 0.0426
5 8 8 -2.2889 0.0141
5 8 9 2.6127 -0.0276
5 8 10 -2.5666 -0.0115
5 8 11 2.2225 0.0491
5 8 12 -1.7663 -0.0357
5 8 13 1.3213 -0.0143
5 8 14 -0.9289 0.0500
5 8 15 0.6523 -0.0536
5 8 16 -0.5969 0.0529
5 8 17 0.7826 -0.0615
5 8 18 -1.0435 0.0419
5 8 19 1.1258 0.0464
5 8 20 -0.9105 -0.1762
5 8 21 0.5204 0.2617
5 8 22 -0.1992 -0.2472
5 9 0 0.4178 0.0685
5 9 1 0.3705 -0.1031
5 9 2 -0.6112 0.0975
5 9 3 0.1941 -0.0617
5 9 4 0.7005 0.0313
5 9 5 -1.6846 -0.0148
5 9 6 2.3002 -0.0104
5 9 7 -2.2020 0.0523
5 9 8 1.3577 -0.0836
5 9 9 -0.1154 0.0761
5 9 10 -1.0052 -0.0366
5 9 11 1.6862 -0.0076
5 9 12 -2.0060 0.0447
5 9 13 2.2421 -0.0771
5 9 14 -2.4922 0.0927
5 9 15 2.5379 -0.0669
5 9 16 -2.1038 0.0038
5 9 17 1.2109 0.0562
5 9 18 -0.2259 -0.0952
5 9 19 -0.4384 0.1677
5 9 20 0.6370 -0.3476
5 9 21 -0.5244 0.6098
5 10 0 3.9423 0.1457
5 10 1 -3.7739 -0.0928
5 10 2 3.5620 0.0172
5 10 3 -3.3977 0.0627
5 10 4 3.0876 -0.1132
5 10 5 -2.4280 0.1016
5 10 6 1.5057 -0.0341
5 10 7 -0.6715 -0.0385
5 10 8 0.2102 0.0716
5 10 9 -0.0916 -0.0698
5 10 10 0.0785 0.0654
5 10 11 -0.0263 -0.0635
5 10 12 -0.0078 0.0376
5 10 13 -0.0533 0.0200
5 10 14 0.1174 -0.0758
5 10 15 -0.0019 0.1026
5 10 16 -0.3176 -0.1280
5 10 17 0.6239 0.1946
5 10 18 -0.6661 -0.2721
5 10 19 0.4216 0.2449
5 10 20 -0.1106 -0.0220
5 11 0 -0.9943 0.0385
5 11 1 0.4935 -0.0795
5 11 2 0.0425 0.1232
5 11 3 -0.5197 -0.1652
5 11 4 0.9217 0.1628
5 11 5 -1.1701 -0.0857
5 11 6 1.1092 -0.0272
5 11 7 -0.6888 0.0887
5 11 8 0.1095 -0.0479
5 11 9 0.3025 -0.0614
5 11 10 -0.3820 0.1564
5 11 11 0.2371 -0.1714
5 11 12 -0.0574 0.0889
5 11 13 -0.1280 0.0608
5 11 14 0.4342 -0.2011
5 11 15 -0.8831 0.2270
5 11 16 1.2753 -0.0736
5 11 17 -1.3573 -0.2077
5 11 18 1.0878 0.4622
5 11 19 -0.6850 -0.5557
5 12 0 -0.3630 -0.2035
5 12 1 0.5980 0.0690
5 12 2 -0.6621 0.0464
5 12 3 0.8463 -0.0690
5 12 4 -1.2474 0.0210
5 12 5 1.6318 0.0244
5 12 6 -1.6858 -0.0114
5 12 7 1.3610 -0.0696
5 12 8 -0.9099 0.1856
5 12 9 0.5934 -0.2717
5 12 10 -0.4342 0.2619
5 12 11 0.2978 -0.1442
5 12 12 -0.1495 -0.0153
5 12 13 0.1228 0.1248
5 12 14 -0.3144 -0.1523
5 12 15 0.5962 0.1405
5 12 16 -0.7118 -0.1271
5 12 17 0.5481 0.0763
5 12 18 -0.2500 0.0796
5 13 0 0.0962 0.0798
5 13 1 -0.1593 -0.1397
5 13 2 0.1724 0.1326
5 13 3 -0.2510 -0.0739
5 13 4 0.2952 0.0198
5 13 5 -0.1135 -0.0335
5 13 6 -0.2937 0.1179
5 13 7 0.6662 -0.1914
5 13 8 -0.7360 0.1599
5 13 9 0.4975 -0.0160
5 13 10 -0.1714 -0.1448
5 13 11 -0.0653 0.2082
5 13 12 0.2297 -0.1289
5 13 13 -0.3932 -0.0584
5 13 14 0.4810 0.2795
5 13 15 -0.3123 -0.4469
5 13 16 -0.1521 0.4721
5 14 0 -0.3130 0.0453
5 14 1 0.0798 0.0222
5 14 2 0.0208 -0.1184
5 14 3 -0.0532 0.1022
5 14 4 0.2352 0.0410
5 14 5 -0.6093 -0.1885
5 14 6 0.9170 0.2128
5 14 7 -0.8574 -0.1052
5 14 8 0.4338 -0.0224
5 14 9 0.0248 0.0325
5 14 10 -0.1979 0.1428
5 14 11 0.0778 -0.4597
5 14 12 0.0835 0.7824
5 14 13 -0.0766 -0.9559
5 14 14 -0.0783 0.9086
5 15 0 -0.1112 -0.2061
5 15 1 0.3566 0.1225
5 15 2 -0.3253 0.0243
5 15 3 0.2250 -0.1393
5 15 4 -0.2874 0.1447
5 15 5 0.5041 -0.0344
5 15 6 -0.6651 -0.1159
5 15 7 0.6179 0.1825
5 15 8 -0.4141 -0.0731
5 15 9 0.1988 -0.1858
5 15 10 -0.0305 0.4384
5 15 11 -0.1264 -0.5099
5 15 12 0.2673 0.3517
5 16 0 0.7289 -0.0505
5 16 1 -0.9105 -0.0135
5 16 2 0.9673 0.1786
5 16 3 -0.9754 -0.2969
5 16 4 0.8683 0.2464
5 16 5 -0.5260 -0.0584
5 16 6 -0.0003 -0.1137
5 16 7 0.4321 0.1429
6 -13 0 0.1000 -0.3159
6 -13 1 -0.3258 0.2208
6 -13 2 0.5620 -0.0374
6 -13 3 -0.6832 -0.0849
6 -13 4 0.6326 0.0647
6 -13 5 -0.4105 0.0533
6 -13 6 0.0430 -0.1521
6 -13 7 0.4082 0.1402
6 -12 0 -0.4855 -0.2826
6 -12 1 0.4882 0.3532
6 -12 2 -0.5257 -0.2848
6 -12 3 0.5459 0.1290
6 -12 4 -0.4744 -0.0132
6 -12 5 0.2739 0.0175
6 -12 6 0.0084 -0.0909
6 -12 7 -0.2560 0.1062
6 -12 8 0.3683 -0.0029
6 -12 9 -0.3412 -0.1279
6 -12 10 0.2587 0.1103
6 -12 11 -0.1996 0.1545
6 -11 0 0.1829 0.1317
6 -11 1 -0.4824 -0.2207
6 -11 2 0.5774 0.1406
6 -11 3 -0.4149 0.0677
6 -11 4 0.0468 -0.2523
6 -11 5 0.3666 0.2729
6 -11 6 -0.5959 -0.1155
6 -11 7 0.4671 -0.0942
6 -11 8 -0.0107 0.1841
6 -11 9 -0.5102 -0.0669
6 -11 10 0.7642 -0.1866
6 -11 11 -0.5900 0.3854
6 -11 12 0.1094 -0.3528
6 -11 13 0.3742 0.0581
6 -10 0 -0.8286 -0.0281
6 -10 1 0.6496 -0.0131
6 -10 2 -0.3285 -0.0342
6 -10 3 -0.1579 0.1230
6 -10 4 0.7471 -0.1584
6 -10 5 -1.2724 0.0835
6 -10 6 1.5305 0.0605
6 -10 7 -1.4117 -0.1661
6 -10 8 0.9862 0.1587
6 -10 9 -0.4654 -0.0626
6 -10 10 0.0772 -0.0282
6 -10 11 0.0361 0.0378
6 -10 12 0.1531 0.0342
6 -10 13 -0.5599 -0.1255
6 -10 14 0.9915 0.1678
6 -10 15 -1.2046 -0.1335
6 -9 0 -0.2504 0.0759
6 -9 1 -0.2017 0.0039
6 -9 2 0.5827 -0.0647
6 -9 3 -0.8365 0.0665
6 -9 4 0.9781 -0.0240
6 -9 5 -1.0669 -0.0159
6 -9 6 1.1276 0.0167
6 -9 7 -1.1140 0.0248
6 -9 8 0.9733 -0.0850
6 -9 9 -0.7424 0.1297
6 -9 10 0.5412 -0.1336
6 -9 11 -0.4477 0.0982
6 -9 12 0.3987 -0.0505
6 -9 13 -0.2508 0.0097
6 -9 14 -0.0611 0.0443
6 -9 15 0.4578 -0.1530
6 -9 16 -0.8121 0.3124
6 -9 17 1.0660 -0.4374
6 -8 0 1.3334 -0.0080
6 -8 1 -1.9888 0.0510
6 -8 2 2.2876 -0.0456
6 -8 3 -1.9957 0.0013
6 -8 4 1.1060 0.0330
6 -8 5 0.0892 -0.0098
6 -8 6 -1.1138 -0.0630
6 -8 7 1.5862 0.1218
6 -8 8 -1.4673 -0.1133
6 -8 9 1.0586 0.0581
6 -8 10 -0.7274 -0.0274
6 -8 11 0.6109 0.0544
6 -8 12 -0.5772 -0.0859
6 -8 13 0.4464 0.0406
6 -8 14 -0.1989 0.0914
6 -8 15 -0.0542 -0.2220
6 -8 16 0.2456 0.2382
6 -8 17 -0.4129 -0.0921
6 -8 18 0.5734 -0.1774
6 -7 0 0.8822 -0.1609
6 -7 1 -0.5236 0.1633
6 -7 2 -0.0315 -0.1537
6 -7 3 0.5966 0.1439
6 -7 4 -0.9671 -0.1113
6 -7 5 1.0879 0.0341
6 -7 6 -1.0937 0.0599
6 -7 7 1.1715 -0.1049
6 -7 8 -1.3814 0.0651
6 -7 9 1.6176 0.0229
6 -7 10 -1.7231 -0.0876
6 -7 11 1.6067 0.0927
6 -7 12 -1.2474 -0.0555
6 -7 13 0.6558 0.0079
6 -7 14 0.0907 0.0352
6 -7 15 -0.7835 -0.0602
6 -7 16 1.1496 0.0318
6 -7 17 -1.0685 0.0824
6 -7 18 0.7134 -0.2638
6 -7 19 -0.4128 0.4384
6 -6 0 3.1345 0.0436
6 -6 1 -2.1015 -0.0171
6 -6 2 0.5774 0.0133
6 -6 3 0.8748 -0.0251
6 -6 4 -1.6987 0.0282
6 -6 6 -0.9582 0.0271
6 -6 7 0.0876 -0.0484
6 -6 8 0.5312 0.0402
6 -6 9 -0.8132 0.0403
6 -6 10 0.9744 -0.1637
6 -6 11 -1.2142 0.2328
6 -6 12 1.4488 -0.1748
6 -6 13 -1.3943 0.0196
6 -6 14 0.9224 0.1248
6 -6 15 -0.2707 -0.1693
6 -6 16 -0.1627 0.1059
6 -6 17 0.2261 0.0131
6 -6 18 -0.1492 -0.1287
6 -6 19 0.2464 0.1976
6 -6 20 -0.5402 -0.1893
6 -5 0 -1.6044 0.1168
6 -5 1 1.6846 -0.1561
6 -5 2 -1.4695 0.1144
6 -5 3 1.0071 -0.0281
6 -5 4 -0.5003 -0.0440
6 -5 5 0.1530 0.0805
6 -5 7 -0.2508 0.0866
6 -5 8 0.7661 -0.0446
6 -5 9 -1.5793 -0.0213
6 -5 10 2.4326 0.0601
6 -5 11 -3.0256 -0.0321
6 -5 12 3.2377 -0.0331
6 -5 13 -3.1098 0.0591
6 -5 14 2.6665 -0.0108
6 -5 15 -1.8601 -0.0582
6 -5 16 0.7306 0.0601
6 -5 17 0.4438 0.0336
6 -5 18 -1.2528 -0.1665
6 -5 19 1.4450 0.2591
6 -5 20 -1.0947 -0.2758
6 -5 21 0.4905 0.2313
6 -4 0 -6.5176 0.1768
6 -4 1 7.1616 -0.1912
6 -4 2 -6.6012 0.1648
6 -4 3 5.0179 -0.0824
6 -4 4 -2.9034 -0.0129
6 -4 5 0.7940 0.0536
6 -4 6 0.8999 -0.0277
6 -4 7 -1.9366 -0.0026
6 -4 8 2.2341 -0.0215
6 -4 9 -1.8473 0.0757
6 -4 10 0.9297 -0.0788
6 -4 11 0.2962 -0.0021
6 -4 12 -1.5295 0.0978
6 -4 13 2.4056 -0.1061
6 -4 14 -2.6303 0.0025
6 -4 15 2.1860 0.1346
6 -4 16 -1.3908 -0.2050
6 -4 17 0.6722 0.1804
6 -4 18 -0.2348 -0.1149
6 -4 19 -0.0342 0.0849
6 -4 20 0.3232 -0.1272
6 -4 21 -0.6161 0.2218
6 -4 22 0.7138 -0.3110
6 -3 0 1.1553 0.0085
6 -3 1 -1.7473 0.0595
6 -3 2 1.9594 -0.0852
6 -3 3 -1.8145 0.0373
6 -3 4 1.4758 0.0285
6 -3 5 -1.1555 -0.0385
6 -3 6 1.0072 -0.0108
6 -3 7 -1.0139 0.0560
6 -3 8 0.9654 -0.0480
6 -3 9 -0.6061 0.0029
6 -3 10 -0.1443 0.0323
6 -3 11 1.1212 -0.0403
6 -3 12 -2.0787 0.0402
6 -3 13 2.8887 -0.0464
6 -3 14 -3.5365 0.0475
6 -3 15 3.9501 -0.0317
6 -3 16 -3.9342 0.0094
6 -3 17 3.3504 0.0045
6 -3 18 -2.3387 -0.0220
6 -3 19 1.2838 0.0725
6 -3 20 -0.5282 -0.1588
6 -3 21 0.1357 0.2374
6 -3 22 0.0581 -0.2558
6 -2 0 2.6958 0.0876
6 -2 1 -5.7997 -0.0735
6 -2 2 8.4276 0.0165
6 -2 3 -10.0817 0.0299
6 -2 4 10.5502 -0.0126
6 -2 5 -9.7415 -0.0513
6 -2 6 7.6359 0.0905
6 -2 7 -4.4833 -0.0669
6 -2 8 0.9757 0.0195
6 -2 9 1.9273 -0.0072
6 -2 10 -3.4704 0.0303
6 -2 11 3.4842 -0.0338
6 -2 12 -2.3776 -0.0108
6 -2 13 0.8179 0.0575
6 -2 14 0.6098 -0.0378
6 -2 15 -1.5717 -0.0537
6 -2 16 1.9952 0.1443
6 -2 17 -1.9905 -0.1571
6 -2 18 1.7290 0.0838
6 -2 19 -1.3353 0.0211
6 -2 20 0.8735 -0.1039
6 -2 21 -0.4249 0.1560
6 -2 22 0.1281 -0.1986
6 -2 23 -0.0835 0.2408
6 -1 0 0.9891 -0.1704
6 -1 1 -1.0985 0.1180
6 -1 2 1.5221 -0.0099
6 -1 3 -1.9789 -0.0606
6 -1 4 2.1646 0.0524
6 -1 5 -2.0514 -0.0182
6 -1 6 1.8583 0.0319
6 -1 7 -1.7522 -0.0970
6 -1 8 1.6432 0.1471
6 -1 9 -1.2941 -0.1299
6 -1 10 0.5889 0.0633
6 -1 11 0.3301 -0.0050
6 -1 12 -1.1468 -0.0128
6 -1 13 1.5453 -0.0001
6 -1 14 -1.3433 0.0261
6 -1 15 0.5672 -0.0649
6 -1 16 0.5309 0.1164
6 -1 17 -1.5646 -0.1561
6 -1 18 2.2099 0.1486
6 -1 19 -2.3691 -0.0842
6 -1 20 2.1533 -0.0074
6 -1 21 -1.7201 0.0831
6 -1 22 1.1633 -0.1219
6 -1 23 -0.5601 0.1323
6 0 0 3.6181 -0.2225
6 0 1 -2.1916 0.2214
6 0 2 -0.6410 -0.1492
6 0 3 4.0334 0.0203
6 0 4 -7.2336 0.0910
6 0 5 9.7454 -0.1168
6 0 6 -11.1526 0.0658
6 0 7 11.0285 -0.0090
6 0 8 -9.1879 -0.0037
6 0 9 6.0238 -0.0078
6 0 10 -2.4722 -0.0055
6 0 11 -0.4718 0.0520
6 0 12 2.2724 -0.0893
6 0 13 -2.9724 0.0765
6 0 14 2.9077 -0.0164
6 0 15 -2.3717 -0.0587
6 0 16 1.5197 0.1242
6 0 17 -0.4834 -0.1694
6 0 18 -0.5166 0.1771
6 0 19 1.1980 -0.1227
6 0 20 -1.3559 0.0080
6 0 21 1.0008 0.1142
6 0 22 -0.3855 -0.1675
6 0 23 -0.1300 0.1166
6 1 0 -1.4639 0.2088
6 1 1 0.6961 -0.1314
6 1 2 -0.2394 0.0265
6 1 3 0.5124 0.0545
6 1 4 -1.4758 -0.0667
6 1 5 2.8242 0.0266
6 1 6 -4.3383 -0.0007
6 1 7 5.9471 0.0299
6 1 8 -7.4782 -0.0830
6 1 9 8.4956 0.0970
6 1 11 7.3925 -0.0070
6 1 12 -5.5112 0.0324
6 1 13 3.5104 -0.0191
6 1 14 -1.8963 -0.0001
6 1 15 0.8331 0.0009
6 1 16 -0.2312 0.0140
6 1 17 -0.0393 -0.0374
6 1 18 0.0199 0.0761
6 1 19 0.3107 -0.1317
6 1 20 -0.9129 0.1710
6 1 21 1.5861 -0.1328
6 1 22 -2.0016 -0.0202
6 1 23 1.8929 0.2531
6 2 0 1.0940 -0.0021
6 2 1 1.8193 -0.0809
6 2 2 -3.6833 0.1196
6 2 3 4.0702 -0.0608
6 2 4 -2.9455 -0.0645
6 2 5 0.4579 0.1574
6 2 6 3.0585 -0.1422
6 2 7 -6.8829 0.0368
6 2 8 9.9141 0.0751
6 2 9 -11.1340 -0.1283
6 2 10 10.2309 0.1213
6 2 11 -7.8018 -0.0866
6 2 12 4.9159 0.0439
6 2 13 -2.4275 0.0055
6 2 14 0.6198 -0.0533
6 2 15 0.6304 0.0774
6 2 16 -1.4699 -0.0664
6 2 17 1.8728 0.0355
6 2 18 -1.7454 -0.0107
6 2 19 1.1374 0.0019
6 2 20 -0.3213 -0.0006
6 2 21 -0.3339 -0.0000
6 2 22 0.5865 -0.0082
6 2 23 -0.4636 0.0360
6 3 0 4.4604 -0.0717
6 3 1 -4.6452 0.1150
6 3 2 3.8359 -0.0892
6 3 3 -2.3126 0.0204
6 3 4 0.5479 0.0193
6 3 5 1.0589 0.0161
6 3 6 -2.1756 -0.0944
6 3 7 2.4381 0.1389
6 3 8 -1.5762 -0.1087
6 3 9 -0.2616 0.0354
6 3 10 2.3819 0.0188
6 3 11 -3.8903 -0.0193
6 3 12 4.2774 -0.0271
6 3 13 -3.7210 0.0955
6 3 14 2.8485 -0.1542
6 3 15 -2.2107 0.1604
6 3 16 1.9382 -0.0768
6 3 17 -1.8080 -0.0842
6 3 18 1.5603 0.2386
6 3 19 -1.1533 -0.2768
6 3 20 0.7726 0.1516
6 3 21 -0.6405 0.0756
6 3 22 0.8016 -0.2762
6 3 23 -1.0633 0.3477
6 4 0 -4.3483 0.1528
6 4 1 2.1019 -0.0636
6 4 2 1.1083 -0.0477
6 4 3 -4.5712 0.1094
6 4 4 7.5605 -0.0916
6 4 5 -9.4188 0.0385
6 4 6 9.5880 -0.0196
6 4 7 -7.7948 0.0501
6 4 8 4.3514 -0.0781
6 4 9 -0.2315 0.0535
6 4 10 -3.3231 0.0090
6 4 11 5.4494 -0.0502
6 4 12 -6.0408 0.0396
6 4 13 5.5698 -0.0087
6 4 14 -4.5925 0.0089
6 4 15 3.4153 -0.0528
6 4 16 -2.1427 0.1067
6 4 17 0.9051 -0.1274
6 4 18 0.0493 0.0956
6 4 19 -0.4898 -0.0190
6 4 20 0.3928 -0.0758
6 4 21 0.0163 0.1482
6 4 22 -0.4051 -0.1563
6 4 23 0.5425 0.0856
6 5 0 -0.9869 -0.2223
6 5 1 3.0787 0.1305
6 5 2 -5.1542 -0.0018
6 5 3 6.7714 -0.0812
6 5 4 -7.6116 0.0952
6 5 5 7.4528 -0.0840
6 5 6 -6.2138 0.0912
6 5 7 4.1281 -0.1102
6 5 8 -1.8287 0.1041
6 5 9 0.0992 -0.0581
6 5 10 0.6116 -0.0092
6 5 11 -0.4816 0.0756
6 5 12 0.1087 -0.1340
6 5 13 0.0154 0.1767
6 5 14 0.1432 -0.1870
6 5 15 -0.2727 0.1617
6 5 16 0.1050 -0.1301
6 5 17 0.3246 0.1251
6 5 18 -0.7495 -0.1333
6 5 19 0.9316 0.0960
6 5 20 -0.8403 0.0228
6 5 21 0.6280 -0.1768
6 5 22 -0.4738 0.2643
6 5 23 0.4440 -0.2183
6 6 0 3.7098 0.0171
6 6 1 -4.7147 0.0082
6 6 2 4.4220 0.0127
6 6 3 -2.9013 -0.0476
6 6 4 0.5594 0.0357
6 6 5 2.0875 0.0391
6 6 6 -4.5258 -0.1189
6 6 7 6.2498 0.1321
6 6 8 -6.8458 -0.0716
6 6 9 6.2098 -0.0023
6 6 10 -4.6835 0.0336
6 6 11 2.8788 -0.0218
6 6 12 -1.2845 -0.0011
6 6 13 0.0206 0.0191
6 6 14 1.0331 -0.0360
6 6 15 -1.9136 0.0437
6 6 16 2.4309 -0.0193
6 6 17 -2.3477 -0.0372
6 6 18 1.6628 0.0841
6 6 19 -0.6908 -0.0806
6 6 20 -0.1287 0.0413
6 6 21 0.5030 -0.0292
6 6 22 -0.4210 0.0887
6 6 23 0.0952 -0.1977
6 7 0 -0.4291 0.1288
6 7 1 1.3415 -0.1909
6 7 2 -1.1707 0.2060
6 7 3 -0.0474 -0.1697
6 7 4 1.9132 0.1059
6 7 5 -3.8203 -0.0280
6 7 6 5.1453 -0.0591
6 7 8 4.7475 -0.1407
6 7 9 -3.4395 0.0818
6 7 10 2.1855 0.0021
6 7 11 -1.4225 -0.0516
6 7 12 1.1290 0.0513
6 7 13 -0.9796 -0.0298
6 7 14 0.7299 0.0098
6 7 15 -0.4332 0.0158
6 7 16 0.3011 -0.0518
6 7 17 -0.4189 0.0719
6 7 18 0.6431 -0.0490
6 7 19 -0.7600 0.0038
6 7 20 0.6899 0.0053
6 7 21 -0.5224 0.0452
6 7 22 0.3895 -0.1050
6 8 0 1.1170 0.0302
6 8 1 -0.2491 -0.0315
6 8 2 -0.7409 0.0570
6 8 3 1.7208 -0.0613
6 8 4 -2.5348 0.0384
6 8 5 2.9195 -0.0252
6 8 9 -2.2206 -0.0399
6 8 10 3.2729 0.0050
6 8 11 -3.5119 0.0165
6 8 12 3.2388 -0.0369
6 8 13 -2.8102 0.0618
6 8 14 2.3120 -0.0701
6 8 15 -1.6167 0.0459
6 8 16 0.6953 -0.0122
6 8 17 0.2117 0.0012
6 8 18 -0.7572 0.0036
6 8 19 0.7828 -0.0608
6 8 20 -0.4330 0.1836
6 8 21 0.0079 -0.2813
6 8 22 0.2601 0.2249
6 9 0 -5.6697 -0.2325
6 9 1 3.7841 0.1965
6 9 2 -2.1491 -0.1206
6 9 3 1.0798 0.0305
6 9 4 -0.5254 0.0282
6 9 5 0.2980 -0.0310
6 9 6 -0.2735 0.0041
6 9 7 0.3814 0.0090
6 9 8 -0.5085 -0.0015
6 9 9 0.5227 0.0018
6 9 10 -0.3998 -0.0204
6 9 12 -0.1550 0.0082
6 9 13 0.0637 -0.0558
6 9 14 0.1540 0.0589
6 9 15 -0.4843 0.0054
6 9 16 0.7127 -0.1067
6 9 17 -0.6244 0.2121
6 9 18 0.2419 -0.3243
6 9 19 0.1748 0.4474
6 9 20 -0.3681 -0.5329
6 9 21 0.2972 0.4986
6 10 0 -0.4205 -0.1639
6 10 1 1.0147 0.0506
6 10 2 -1.4199 0.0420
6 10 3 1.4808 -0.0915
6 10 4 -1.0949 0.1194
6 10 5 0.2853 -0.1352
6 10 6 0.6980 0.1176
6 10 7 -1.4151 -0.0567
6 10 8 1.5039 -0.0147
6 10 9 -0.9802 0.0485
6 10 10 0.2426 -0.0292
6 10 11 0.2782 -0.0214
6 10 12 -0.4792 0.0731
6 10 13 0.5743 -0.0994
6 10 14 -0.7517 0.0698
6 10 15 0.9163 0.0317
6 10 16 -0.8123 -0.1614
6 10 17 0.3585 0.2209
6 10 18 0.2144 -0.1487
6 10 19 -0.5731 0.0117
6 10 20 0.5852 0.0314
6 11 0 3.8844 0.0231
6 11 1 -3.6512 -0.0132
6 11 2 3.2081 -0.0045
6 11 3 -2.8714 0.0366
6 11 4 2.6286 -0.0640
6 11 5 -2.2578 0.0458
6 11 6 1.6621 0.0283
6 11 7 -1.0079 -0.1088
6 11 8 0.5275 0.1332
6 11 9 -0.2686 -0.0938
6 11 10 0.1114 0.0379
6 11 11 0.0040 -0.0041
6 11 12 0.0241 -0.0168
6 11 13 -0.2859 0.0483
6 11 14 0.6504 -0.0837
6 11 15 -0.8258 0.1021
6 11 16 0.6465 -0.1140
6 11 17 -0.2485 0.1544
6 11 18 -0.0750 -0.2179
6 11 19 0.1639 0.2296
6 12 0 -0.6205 -0.0811
6 12 1 0.3595 0.0786
6 12 2 -0.0690 -0.0400
6 12 3 -0.2758 -0.0766
6 12 4 0.7534 0.2106
6 12 5 -1.2887 -0.2481
6 12 6 1.6167 0.1439
6 12 7 -1.5181 0.0271
6 12 8 1.0671 -0.1414
6 12 9 -0.5797 0.1329
6 12 10 0.3081 -0.0293
6 12 11 -0.2410 -0.0862
6 12 12 0.2274 0.1337
6 12 13 -0.2310 -0.0850
6 12 14 0.3689 -0.0036
6 12 15 -0.6959 0.0044
6 12 16 1.0388 0.1921
6 12 17 -1.1241 -0.5612
6 13 0 -0.2323 0.0363
6 13 1 0.5712 -0.1090
6 13 2 -0.5455 0.1578
6 13 3 0.4582 -0.1243
6 13 4 -0.5826 0.0321
6 13 5 0.8599 0.0564
6 13 6 -1.0099 -0.0987
6 13 7 0.8812 0.0839
6 13 8 -0.6043 -0.0192
6 13 9 0.3958 -0.0644
6 13 10 -0.2996 0.1083
6 13 11 0.1983 -0.0654
6 13 12 -0.0401 -0.0459
6 13 13 -0.0515 0.1483
6 13 14 -0.0592 -0.1815
6 13 15 0.3103 0.1591
6 13 16 -0.4752 -0.1336
6 14 0 0.1455 -0.0544
6 14 1 -0.2494 0.0587
6 14 2 0.3074 -0.0252
6 14 3 -0.4156 0.0027
6 14 4 0.4998 -0.0031
6 14 5 -0.3822 -0.0279
6 14 6 0.0284 0.1377
6 14 7 0.3542 -0.2755
6 14 8 -0.5167 0.3084
6 14 9 0.4271 -0.1439
6 14 10 -0.2656 -0.1703
6 14 11 0.1768 0.4716
6 14 12 -0.1054 -0.5942
6 14 13 -0.0757 0.4654
6 14 14 0.3300 -0.1342
6 15 0 -0.2172 0.1060
6 15 1 0.0731 0.0518
6 15 2 -0.0510 -0.2457
6 15 3 0.1261 0.2534
6 15 4 -0.0647 -0.0238
6 15 5 -0.2562 -0.2699
6 15 6 0.6432 0.3882
6 15 7 -0.7578 -0.2280
6 15 8 0.4763 -0.1060
6 15 9 -0.0217 0.3886
6 15 10 -0.2715 -0.4224
6 15 11 0.2753 0.1493
6 16 0 -0.2456 -0.4552
6 16 1 0.6250 0.4543
6 16 2 -0.7526 -0.3163
6 16 3 0.6945 0.1137
6 16 4 -0.6208 0.0559
6 16 5 0.5956 -0.1143
6 16 6 -0.5522 0.0388
7 -13 0 -0.0673 0.3185
7 -13 1 0.1959 -0.3589
7 -13 2 -0.1449 0.2394
7 -13 3 -0.0273 -0.0362
7 -12 0 0.0437 -0.0184
7 -12 1 -0.1761 0.0029
7 -12 2 0.3678 0.1119
7 -12 3 -0.5159 -0.2143
7 -12 4 0.5672 0.2123
7 -12 5 -0.5028 -0.0995
7 -12 6 0.3028 -0.0636
7 -12 7 0.0382 0.2052
7 -12 8 -0.4573 -0.2747
7 -12 9 0.8127 0.2444
7 -11 0 -0.1391 0.1913
7 -11 1 0.1831 -0.0716
7 -11 2 -0.1935 0.0158
7 -11 3 0.2234 -0.0520
7 -11 4 -0.2735 0.1060
7 -11 5 0.2892 -0.0802
7 -11 6 -0.2260 -0.0402
7 -11 7 0.1071 0.1650
7 -11 8 0.0017 -0.1791
7 -11 9 -0.0687 0.0484
7 -11 10 0.1241 0.1440
7 -11 11 -0.1995 -0.2549
7 -11 12 0.2616 0.1842
7 -10 0 -0.6175 0.0904
7 -10 1 0.6886 -0.2454
7 -10 2 -0.6441 0.3660
7 -10 3 0.5230 -0.3781
7 -10 4 -0.4177 0.2757
7 -10 5 0.4073 -0.1188
7 -10 6 -0.4655 -0.0056
7 -10 7 0.4622 0.0377
7 -10 8 -0.2897 0.0127
7 -10 9 -0.0095 -0.0709
7 -10 10 0.2538 0.0603
7 -10 11 -0.2678 0.0227
7 -10 12 0.0227 -0.0989
7 -10 13 0.3469 0.0817
7 -10 14 -0.6376 0.0353
7 -9 0 -1.1743 -0.0787
7 -9 1 1.0437 0.0367
7 -9 2 -0.7104 -0.0191
7 -9 3 0.2061 0.0437
7 -9 4 0.3620 -0.0754
7 -9 5 -0.8305 0.0637
7 -9 6 1.0498 -0.0033
7 -9 7 -0.9698 -0.0591
7 -9 8 0.6659 0.0820
7 -9 9 -0.2729 -0.0773
7 -9 10 -0.1011 0.0885
7 -9 11 0.3874 -0.1270
7 -9 12 -0.5083 0.1479
7 -9 13 0.3764 -0.0951
7 -9 14 0.0093 -0.0371
7 -9 15 -0.4821 0.1883
7 -9 16 0.7863 -0.2685
7 -8 0 -0.9012 0.0317
7 -8 1 0.4826 -0.1149
7 -8 2 0.0612 0.1503
7 -8 3 -0.5927 -0.1338
7 -8 4 1.0092 0.0755
7 -8 5 -1.2644 -0.0050
7 -8 6 1.3291 -0.0371
7 -8 7 -1.1710 0.0306
7 -8 8 0.8150 0.0067
7 -8 9 -0.4138 -0.0414
7 -8 10 0.1943 0.0589
7 -8 11 -0.2685 -0.0628
7 -8 12 0.4923 0.0466
7 -8 13 -0.5560 0.0076
7 -8 14 0.2517 -0.0860
7 -8 15 0.3466 0.1149
7 -8 16 -0.9635 -0.0096
7 -8 17 1.3532 -0.2358
7 -7 0 0.8057 -0.0240
7 -7 1 -1.8320 0.0090
7 -7 2 2.6291 0.0233
7 -7 3 -2.7855 -0.0785
7 -7 4 2.1352 0.1237
7 -7 5 -0.9142 -0.1033
7 -7 6 -0.3224 0.0084
7 -7 7 1.0190 0.0839
7 -7 8 -0.9734 -0.0729
7 -7 9 0.4474 -0.0538
7 -7 10 0.0691 0.1872
7 -7 11 -0.2357 -0.1963
7 -7 12 0.0509 0.0579
7 -7 13 0.2655 0.1207
7 -7 14 -0.5063 -0.2050
7 -7 15 0.5747 0.1467
7 -7 16 -0.4277 -0.0012
7 -7 17 0.0463 -0.1390
7 -7 18 0.4812 0.2106
7 -6 0 0.5753 -0.0144
7 -6 1 -0.3613 0.0322
7 -6 2 0.0870 -0.0346
7 -6 3 0.2247 0.0545
7 -6 4 -0.5286 -0.0868
7 -6 5 0.7932 0.0934
7 -6 6 -1.0081 -0.0583
7 -6 7 1.1503 0.0131
7 -6 8 -1.1656 0.0045
7 -6 9 1.0240 0.0006
7 -6 10 -0.7935 0.0049
7 -6 11 0.6083 -0.0273
7 -6 12 -0.5183 0.0300
7 -6 13 0.3890 0.0146
7 -6 14 -0.0184 -0.0773
7 -6 15 -0.6129 0.0945
7 -6 16 1.2464 -0.0361
7 -6 17 -1.5501 -0.0642
7 -6 18 1.4205 0.1458
7 -6 19 -1.0479 -0.1730
7 -5 0 3.9122 0.0485
7 -5 1 -2.9868 -0.0476
7 -5 2 1.3768 0.0926
7 -5 3 0.4454 -0.1551
7 -5 4 -1.8319 0.1702
7 -5 6 -1.8411 0.0293
7 -5 7 0.8536 0.0106
7 -5 8 0.0790 -0.0018
7 -5 9 -0.6070 -0.0006
7 -5 10 0.7703 -0.0407
7 -5 11 -0.8102 0.0910
7 -5 12 0.8444 -0.0861
7 -5 13 -0.7621 0.0133
7 -5 14 0.4385 0.0731
7 -5 15 0.0163 -0.1180
7 -5 16 -0.3096 0.1254
7 -5 17 0.2812 -0.1403
7 -5 18 -0.1037 0.1853
7 -5 19 0.1093 -0.2343
7 -5 20 -0.4311 0.2451
7 -4 0 -0.7363 -0.0720
7 -4 1 0.7535 0.0514
7 -4 2 -0.7612 -0.0695
7 -4 3 0.7328 0.1220
7 -4 4 -0.6432 -0.1587
7 -4 7 0.0275 0.0768
7 -4 8 0.4361 -0.0177
7 -4 9 -1.0656 -0.0577
7 -4 10 1.7209 0.1081
7 -4 11 -2.2320 -0.0828
7 -4 12 2.5250 -0.0098
7 -4 13 -2.6121 0.0895
7 -4 14 2.4711 -0.0793
7 -4 15 -2.0047 -0.0154
7 -4 16 1.1713 0.1141
7 -4 17 -0.1324 -0.1439
7 -4 18 -0.7923 0.1020
7 -4 19 1.3398 -0.0374
7 -4 20 -1.4598 -0.0078
7 -4 21 1.2670 0.0276
7 -3 0 -6.8885 -0.1637
7 -3 1 8.0807 0.1203
7 -3 2 -7.9824 -0.0483
7 -3 3 6.6385 0.0098
7 -3 4 -4.4867 -0.0150
7 -3 6 0.0610 0.0416
7 -3 7 -1.6757 -0.1166
7 -3 8 2.5968 0.1498
7 -3 9 -2.7830 -0.1225
7 -3 10 2.2736 0.0792
7 -3 11 -1.1985 -0.0603
7 -3 12 -0.1667 0.0423
7 -3 13 1.3842 0.0328
7 -3 14 -1.9963 -0.1720
7 -3 15 1.8029 0.2977
7 -3 16 -1.0345 -0.3087
7 -3 17 0.1979 0.1706
7 -3 18 0.3136 0.0574
7 -3 19 -0.4787 -0.2698
7 -3 20 0.5292 0.3820
7 -3 21 -0.6211 -0.3639
7 -3 22 0.6767 0.2391
7 -2 0 0.2603 0.0419
7 -2 1 -0.0529 0.0254
7 -2 2 -0.2795 -0.1097
7 -2 3 0.5720 0.1315
7 -2 4 -0.7238 -0.0867
7 -2 5 0.7192 0.0297
7 -2 6 -0.5671 0.0011
7 -2 7 0.2951 -0.0166
7 -2 8 -0.0135 0.0400
7 -2 9 -0.0883 -0.0665
7 -2 10 -0.1237 0.0752
7 -2 11 0.6036 -0.0640
7 -2 12 -1.1748 0.0510
7 -2 13 1.7041 -0.0431
7 -2 14 -2.1792 0.0253
7 -2 15 2.5995 0.0087
7 -2 16 -2.8452 -0.0326
7 -2 17 2.7273 0.0123
7 -2 18 -2.1831 0.0447
7 -2 19 1.3850 -0.0830
7 -2 20 -0.6313 0.0530
7 -2 21 0.1413 0.0341
7 -2 22 0.0443 -0.1143
7 -1 0 1.0968 0.1965
7 -1 1 -3.7047 -0.2176
7 -1 2 6.1077 0.1642
7 -1 3 -7.7811 -0.0747
7 -1 4 8.5550 0.0138
7 -1 5 -8.4219 -0.0003
7 -1 6 7.3341 -0.0041
7 -1 7 -5.2908 0.0322
7 -1 8 2.5995 -0.0617
7 -1 9 0.0582 0.0461
7 -1 10 -1.9191 0.0162
7 -1 11 2.5543 -0.0684
7 -1 12 -2.0600 0.0588
7 -1 13 0.9160 0.0005
7 -1 14 0.3124 -0.0495
7 -1 15 -1.2179 0.0486
7 -1 16 1.6484 -0.0144
7 -1 17 -1.6728 -0.0131
7 -1 18 1.4553 0.0222
7 -1 19 -1.1221 -0.0357
7 -1 20 0.7221 0.0698
7 -1 21 -0.3053 -0.1025
7 -1 22 -0.0048 0.0905
7 0 0 -0.4675 -0.0158
7 0 1 0.4119 0.0272
7 0 2 0.3523 0.0288
7 0 3 -1.5514 -0.1032
7 0 4 2.6931 0.1367
7 0 5 -3.4669 -0.1180
7 0 6 3.8786 0.0778
7 0 7 -4.0524 -0.0425
7 0 8 3.9983 0.0152
7 0 9 -3.6109 0.0037
7 0 10 2.8394 -0.0015
7 0 11 -1.7911 -0.0275
7 0 12 0.6790 0.0605
7 0 13 0.2719 -0.0605
7 0 14 -0.8583 0.0148
7 0 15 0.9203 0.0510
7 0 16 -0.4246 -0.0998
7 0 17 -0.4505 0.1160
7 0 18 1.3586 -0.1074
7 0 19 -1.9610 0.0827
7 0 20 2.0897 -0.0399
7 0 21 -1.7739 -0.0194
7 0 22 1.1662 0.0741
7 0 23 -0.4719 -0.0905
7 1 0 0.8793 -0.0439
7 1 1 -0.9844 0.1246
7 1 2 0.0344 -0.1405
7 1 3 1.5075 0.0798
7 1 4 -3.1964 0.0019
7 1 5 4.7652 -0.0351
7 1 6 -5.9390 0.0034
7 1 7 6.2801 0.0515
7 1 8 -5.3991 -0.0826
7 1 9 3.3702 0.0806
7 1 10 -0.8608 -0.0628
7 1 11 -1.2456 0.0395
7 1 12 2.4090 -0.0085
7 1 13 -2.6679 -0.0237
7 1 14 2.3986 0.0347
7 1 15 -1.9110 -0.0119
7 1 16 1.2698 -0.0255
7 1 17 -0.4294 0.0437
7 1 18 -0.5346 -0.0350
7 1 19 1.3468 0.0310
7 1 20 -1.6746 -0.0679
7 1 21 1.3712 0.1397
7 1 22 -0.6221 -0.1925
7 1 23 -0.1416 0.1711
7 2 0 -2.6147 0.2000
7 2 1 1.7806 -0.1913
7 2 2 -0.8322 0.1651
7 2 3 0.2354 -0.1501
7 2 4 -0.1770 0.1604
7 2 5 0.6269 -0.1715
7 2 6 -1.5729 0.1401
7 2 7 3.0565 -0.0550
7 2 8 -4.9411 -0.0412
7 2 9 6.7367 0.0908
7 2 10 -7.7824 -0.0753
7 2 11 7.6718 0.0264
7 2 12 -6.5206 0.0118
7 2 13 4.8411 -0.0203
7 2 14 -3.1810 0.0048
7 2 15 1.8541 0.0235
7 2 16 -0.9186 -0.0553
7 2 17 0.3107 0.0735
7 2 18 0.0279 -0.0528
7 2 19 -0.1086 -0.0188
7 2 20 -0.0689 0.1192
7 2 21 0.4436 -0.1938
7 2 22 -0.8484 0.1870
7 2 23 1.0614 -0.0809
7 3 0 1.4335 -0.2139
7 3 1 -0.0036 0.1879
7 3 3 1.0334 0.0868
7 3 4 -0.4836 -0.0831
7 3 5 -0.7984 0.0791
7 3 6 2.8373 -0.0406
7 3 8 7.5668 0.0813
7 3 9 -8.5666 -0.1060
7 3 10 7.8817 0.0995
7 3 11 -5.8545 -0.0672
7 3 12 3.3697 0.0082
7 3 13 -1.2281 0.0697
7 3 14 -0.2681 -0.1373
7 3 15 1.2327 0.1618
7 3 16 -1.8330 -0.1364
7 3 17 2.0607 0.0839
7 3 18 -1.8110 -0.0309
7 3 19 1.1085 -0.0136
7 3 20 -0.2156 0.0521
7 3 21 -0.4819 -0.0800
7 3 22 0.7147 0.0845
7 3 23 -0.5014 -0.0601
7 4 0 3.5313 0.0258
7 4 1 -4.2003 0.0357
7 4 2 4.0933 -0.0542
7 4 3 -3.3244 0.0283
7 4 4 2.1587 -0.0005
7 4 5 -0.8127 0.0056
7 4 6 -0.4995 -0.0335
7 4 7 1.4037 0.0490
7 4 8 -1.4238 -0.0361
7 4 9 0.3334 0.0085
7 4 10 1.5342 0.0174
7 4 11 -3.3907 -0.0392
7 4 12 4.4839 0.0525
7 4 13 -4.5549 -0.0357
7 4 14 3.8964 -0.0271
7 4 15 -3.0380 0.1113
7 4 16 2.3737 -0.1568
7 4 17 -2.0002 0.1208
7 4 18 1.7909 -0.0226
7 4 19 -1.5716 -0.0692
7 4 20 1.2625 0.0921
7 4 21 -0.9162 -0.0323
7 4 22 0.6481 -0.0735
7 4 23 -0.5189 0.1659
7 5 0 -3.5774 0.1549
7 5 1 2.0014 -0.1455
7 5 2 0.3602 0.1004
7 5 3 -3.0429 -0.0791
7 5 4 5.5263 0.1034
7 5 5 -7.2777 -0.1289
7 5 6 7.7759 0.0951
7 5 7 -6.6790 -0.0004
7 5 8 4.1151 -0.0904
7 5 12 -4.8089 0.0503
7 5 13 4.5457 -0.0574
7 5 14 -3.7975 0.0413
7 5 15 2.8218 -0.0146
7 5 16 -1.7186 -0.0158
7 5 17 0.6251 0.0479
7 5 18 0.2170 -0.0945
7 5 19 -0.5975 0.1816
7 5 20 0.5104 -0.3138
7 5 21 -0.1714 0.4378
7 5 22 -0.1319 -0.4627
7 5 23 0.2261 0.3364
7 6 0 0.5535 -0.2484
7 6 1 0.5079 0.2659
7 6 2 -1.6800 -0.1890
7 6 3 2.7081 0.0711
7 6 4 -3.4680 0.0372
7 6 5 3.8298 -0.1136
7 6 6 -3.5874 0.1454
7 6 7 2.6224 -0.1197
7 6 8 -1.1513 0.0437
7 6 11 -1.0724 0.0985
7 6 12 0.5482 -0.0871
7 6 13 0.0697 0.0755
7 6 14 -0.5240 -0.0571
7 6 15 0.8160 0.0323
7 6 16 -1.0421 -0.0324
7 6 17 1.2235 0.0844
7 6 18 -1.2937 -0.1519
7 6 19 1.1957 0.1429
7 6 20 -0.9514 0.0060
7 6 21 0.6480 -0.2530
7 6 22 -0.3825 0.4741
7 7 0 2.3259 -0.0152
7 7 1 -3.7498 0.0199
7 7 2 4.3460 0.0230
7 7 3 -3.8175 -0.0893
7 7 4 2.2678 0.1128
7 7 5 -0.1030 -0.0616
7 7 6 -2.1329 -0.0196
7 7 7 3.8885 0.0582
7 7 9 4.5838 -0.0177
7 7 10 -3.6710 0.0404
7 7 11 2.4867 -0.0284
7 7 12 -1.4053 0.0040
7 7 13 0.5001 0.0163
7 7 14 0.3406 -0.0268
7 7 15 -1.1377 0.0145
7 7 16 1.7034 0.0314
7 7 17 -1.8050 -0.0889
7 7 18 1.4105 0.1062
7 7 19 -0.7479 -0.0591
7 7 20 0.1352 -0.0074
7 7 21 0.2292 0.0167
7 7 22 -0.3368 0.0543
7 8 0 1.3372 0.0106
7 8 1 0.0469 -0.0600
7 8 2 -0.8068 0.0782
7 8 3 0.7157 -0.0598
7 8 4 0.1718 0.0278
7 8 5 -1.5289 0.0014
7 8 6 2.8306 -0.0258
7 8 7 -3.5311 0.0364
7 8 8 3.3371 -0.0169
7 8 9 -2.4048 -0.0269
7 8 10 1.2446 0.0592
7 8 11 -0.3547 -0.0550
7 8 12 -0.1045 0.0372
7 8 13 0.2973 -0.0502
7 8 14 -0.4208 0.0981
7 8 15 0.4735 -0.1320
7 8 16 -0.3201 0.1081
7 8 17 -0.0756 -0.0364
7 8 18 0.5447 -0.0481
7 8 19 -0.8475 0.1473
7 8 20 0.8740 -0.2982
7 8 21 -0.6989 0.4982
7 9 0 2.5537 -0.0861
7 9 1 -1.7393 0.0733
7 9 2 0.6355 -0.0248
7 9 3 0.5260 -0.0109
7 9 4 -1.5805 0.0180
7 9 5 2.3725 -0.0254
7 9 6 -2.6850 0.0533
7 9 7 2.3301 -0.0733
7 9 8 -1.3591 0.0422
7 9 9 0.1373 0.0387
7 9 10 0.8705 -0.1197
7 9 11 -1.4204 0.1550
7 9 12 1.5870 -0.1384
7 9 13 -1.5550 0.0871
7 9 14 1.3769 -0.0182
7 9 15 -0.9770 -0.0398
7 9 16 0.3608 0.0377
7 9 17 0.2637 0.0509
7 9 18 -0.6189 -0.1700
7 9 19 0.5929 0.2007
7 9 20 -0.3159 -0.0737
7 10 0 -5.1132 -0.0964
7 10 1 3.8375 0.1585
7 10 2 -2.3459 -0.1780
7 10 3 1.0773 0.1252
7 10 4 -0.2312 -0.0314
7 10 5 -0.1849 -0.0438
7 10 6 0.2409 0.0711
7 10 7 -0.0600 -0.0609
7 10 8 -0.1664 0.0253
7 10 9 0.2602 0.0345
7 10 10 -0.1979 -0.1002
7 10 11 0.1214 0.1241
7 10 12 -0.1555 -0.0749
7 10 13 0.2312 -0.0134
7 10 14 -0.1482 0.0623
7 10 15 -0.1769 -0.0225
7 10 16 0.5730 -0.0913
7 10 17 -0.7630 0.2382
7 10 18 0.6365 -0.3956
7 10 19 -0.3407 0.5420
7 11 0 -1.1876 -0.1646
7 11 1 1.6956 0.1055
7 11 2 -2.0266 -0.0499
7 11 3 2.1871 0.0187
7 11 4 -2.1249 0.0180
7 11 5 1.7213 -0.0760
7 11 6 -0.9639 0.1225
7 11 7 0.0982 -0.1182
7 11 8 0.4877 0.0691
7 11 9 -0.5829 -0.0177
7 11 10 0.3369 -0.0061
7 11 11 -0.0864 0.0052
7 11 12 0.0159 0.0028
7 11 13 -0.0377 0.0028
7 11 14 -0.0011 -0.0540
7 11 15 0.0730 0.1766
7 11 16 0.0005 -0.3357
7 11 17 -0.2976 0.4165
7 11 18 0.6521 -0.3063
7 12 0 3.0861 -0.0660
7 12 1 -2.9859 0.0339
7 12 2 2.5228 0.0020
7 12 3 -2.0605 0.0040
7 12 4 1.7407 -0.0474
7 12 5 -1.4496 0.0580
7 12 6 1.0685 0.0221
7 12 7 -0.6619 -0.1568
7 12 8 0.3858 0.2403
7 12 9 -0.2789 -0.2016
7 12 10 0.2378 0.0666
7 12 11 -0.1987 0.0857
7 12 12 0.2542 -0.2002
7 12 13 -0.5228 0.2652
7 12 14 0.9346 -0.2815
7 12 15 -1.2293 0.2484
7 12 16 1.1962 -0.1833
7 12 17 -0.8806 0.1247
7 13 0 -0.4927 -0.1538
7 13 1 0.2983 0.2494
7 13 2 -0.1115 -0.3357
7 13 3 -0.1112 0.2917
7 13 4 0.5198 -0.1151
7 13 5 -1.1159 -0.0696
7 13 6 1.6414 0.1385
7 13 7 -1.7843 -0.0803
7 13 8 1.4865 -0.0178
7 13 9 -0.9968 0.0644
7 13 10 0.6111 -0.0302
7 13 11 -0.4136 -0.0522
7 13 12 0.3028 0.1210
7 13 13 -0.2157 -0.1242
7 13 14 0.2279 0.0662
7 13 15 -0.4098 -0.0336
7 14 0 -0.0494 0.0748
7 14 1 0.4831 -0.1447
7 14 2 -0.5822 0.1395
7 14 3 0.5007 -0.0541
7 14 4 -0.5103 -0.0372
7 14 5 0.6680 0.0665
7 14 6 -0.7933 -0.0377
7 14 7 0.7305 -0.0074
7 14 8 -0.5404 0.0576
7 14 9 0.3975 -0.1332
7 14 10 -0.3639 0.2252
7 14 11 0.3461 -0.2714
7 14 12 -0.2686 0.2153
7 14 13 0.2021 -0.0735
7 15 0 0.0674 0.1350
7 15 1 -0.1400 0.0066
7 15 2 0.2478 -0.0921
7 15 3 -0.4222 0.1641
7 15 4 0.5570 -0.2475
7 15 5 -0.4714 0.2683
7 15 6 0.1281 -0.1155
7 15 7 0.2718 -0.2081
7 15 8 -0.4691 0.5269
7 15 9 0.4088 -0.6091
7 15 10 -0.2728 0.3474
7 16 3 0.0602 0.1986
8 -12 0 0.1907 -0.1394
8 -12 1 0.1564 -0.0194
8 -12 2 -0.3499 0.0946
8 -12 3 0.2796 -0.0654
8 -12 4 -0.0276 0.0013
8 -12 5 -0.1972 0.0077
8 -11 0 0.2465 -0.1945
8 -11 1 -0.2800 0.2147
8 -11 2 0.2583 -0.1460
8 -11 3 -0.1744 0.0397
8 -11 4 0.1144 0.0444
8 -11 5 -0.1675 -0.0839
8 -11 6 0.3155 0.0818
8 -11 7 -0.4263 -0.0360
8 -11 8 0.3630 -0.0603
8 -11 9 -0.1027 0.1930
8 -11 10 -0.2413 -0.3167
8 -10 0 0.3472 0.1511
8 -10 1 -0.1975 -0.0943
8 -10 2 0.0922 0.0041
8 -10 3 0.0049 0.0388
8 -10 4 -0.1073 -0.0094
8 -10 5 0.1617 -0.0499
8 -10 6 -0.1004 0.0747
8 -10 7 -0.0694 -0.0303
8 -10 8 0.2538 -0.0666
8 -10 9 -0.3584 0.1569
8 -10 10 0.3745 -0.1719
8 -10 11 -0.3649 0.0825
8 -10 12 0.3776 0.0695
8 -9 0 -0.5962 -0.1297
8 -9 1 1.0016 0.1274
8 -9 2 -1.2841 -0.0558
8 -9 3 1.2814 -0.0618
8 -9 4 -0.9863 0.1725
8 -9 5 0.5698 -0.2153
8 -9 6 -0.2507 0.1647
8 -9 7 0.1354 -0.0569
8 -9 8 -0.1714 -0.0409
8 -9 9 0.2286 0.0909
8 -9 10 -0.2102 -0.1045
8 -9 11 0.1032 0.0989
8 -9 12 0.0357 -0.0541
8 -9 13 -0.1222 -0.0641
8 -9 14 0.0970 0.2375
8 -8 0 -1.3811 -0.0217
8 -8 1 1.3616 0.0691
8 -8 2 -1.0811 -0.0946
8 -8 3 0.5640 0.1012
8 -8 4 0.0390 -0.0843
8 -8 5 -0.5061 0.0419
8 -8 6 0.6617 -0.0040
8 -8 7 -0.4835 0.0227
8 -8 8 0.1103 -0.1124
8 -8 9 0.2717 0.2095
8 -8 10 -0.5596 -0.2163
8 -8 11 0.7513 0.0952
8 -8 12 -0.8475 0.0873
8 -8 13 0.7814 -0.2103
8 -8 14 -0.4907 0.1901
8 -8 15 0.0521 -0.0287
8 -8 16 0.3125 -0.2029
8 -7 0 -0.3092 -0.0949
8 -7 1 0.3319 0.0651
8 -7 2 -0.2383 -0.0090
8 -7 3 0.0182 -0.0500
8 -7 4 0.2708 0.0738
8 -7 5 -0.5235 -0.0501
8 -7 6 0.6080 0.0076
8 -7 7 -0.4106 0.0201
8 -7 8 -0.0706 -0.0340
8 -7 9 0.6462 0.0549
8 -7 10 -0.9954 -0.0770
8 -7 11 0.8895 0.0614
8 -7 12 -0.4050 0.0076
8 -7 13 -0.0957 -0.0789
8 -7 14 0.2363 0.0729
8 -7 15 0.0902 0.0325
8 -7 16 -0.6764 -0.1688
8 -6 0 0.2905 -0.0342
8 -6 1 -1.3565 0.0688
8 -6 2 2.3654 -0.1008
8 -6 3 -2.8832 0.0797
8 -6 4 2.6356 0.0061
8 -6 5 -1.6948 -0.0904
8 -6 6 0.4748 0.0873
8 -6 7 0.4905 0.0098
8 -6 8 -0.8582 -0.1093
8 -6 9 0.6555 0.1148
8 -6 10 -0.1919 -0.0245
8 -6 11 -0.1997 -0.0748
8 -6 12 0.3566 0.1021
8 -6 13 -0.2813 -0.0522
8 -6 14 0.0376 -0.0283
8 -6 15 0.2844 0.1047
8 -6 16 -0.5263 -0.1742
8 -6 17 0.4929 0.2332
8 -6 18 -0.1152 -0.2531
8 -5 0 0.4487 0.1147
8 -5 1 -0.2432 -0.0427
8 -5 2 0.1582 -0.0091
8 -5 3 -0.1514 0.0542
8 -5 4 0.0994 -0.0964
8 -5 5 0.1162 0.1137
8 -5 6 -0.5105 -0.0951
8 -5 7 0.9439 0.0682
8 -5 8 -1.1771 -0.0668
8 -5 9 1.0354 0.0814
8 -5 10 -0.5725 -0.0661
8 -5 11 0.0592 0.0016
8 -5 12 0.2379 0.0682
8 -5 13 -0.2966 -0.0782
8 -5 14 0.3387 0.0105
8 -5 15 -0.5731 0.0900
8 -5 16 0.9567 -0.1654
8 -5 17 -1.2377 0.1911
8 -5 18 1.2262 -0.1706
8 -5 19 -0.9764 0.1081
8 -4 0 4.1675 0.0824
8 -4 1 -3.3179 -0.0156
8 -4 2 1.8312 0.0009
8 -4 3 -0.0532 -0.0515
8 -4 4 -1.5190 0.0999
8 -4 5 2.4447 -0.0732
8 -4 6 -2.5384 -0.0230
8 -4 7 1.9491 0.1130
8 -4 8 -1.0548 -0.1356
8 -4 9 0.2256 0.0982
8 -4 10 0.3636 -0.0446
8 -4 11 -0.7148 -0.0040
8 -4 12 0.8359 0.0522
8 -4 13 -0.6452 -0.0876
8 -4 14 0.0909 0.0687
8 -4 15 0.6635 0.0277
8 -4 16 -1.2564 -0.1590
8 -4 17 1.3963 0.2407
8 -4 18 -1.1110 -0.2196
8 -4 19 0.7038 0.1162
8 -4 20 -0.4610 0.0057
8 -3 0 0.5209 0.0076
8 -3 1 -0.8830 -0.0391
8 -3 8 -0.3027 -0.0659
8 -3 9 -0.0945 0.0420
8 -3 10 0.4970 -0.0077
8 -3 11 -0.8176 -0.0062
8 -3 12 1.0525 -0.0104
8 -3 13 -1.2404 0.0271
8 -3 14 1.3557 -0.0091
8 -3 15 -1.2763 -0.0326
8 -3 16 0.9010 0.0461
8 -3 17 -0.2970 0.0021
8 -3 18 -0.3070 -0.0860
8 -3 19 0.6964 0.1446
8 -3 20 -0.8194 -0.1420
8 -3 21 0.7575 0.0918
8 -2 0 -5.2256 -0.0776
8 -2 1 6.5230 0.1175
8 -2 2 -6.8078 -0.0984
8 -2 3 6.0455 0.0545
8 -2 4 -4.5462 -0.0163
8 -2 5 2.7347 -0.0221
8 -2 6 -0.9605 0.0736
8 -2 7 -0.5499 -0.1161
8 -2 9 -2.2595 -0.0443
8 -2 10 2.3029 -0.0241
8 -2 11 -1.7757 0.0416
8 -2 12 0.7913 -0.0094
8 -2 13 0.3399 -0.0172
8 -2 14 -1.1623 -0.0088
8 -2 15 1.3148 0.0775
8 -2 16 -0.7984 -0.1360
8 -2 17 -0.0001 0.1362
8 -2 18 0.6003 -0.0625
8 -2 19 -0.7835 -0.0745
8 -2 20 0.6807 0.2499
8 -2 21 -0.5491 -0.4219
8 -1 0 0.5704 0.1396
8 -1 1 0.2077 -0.1253
8 -1 2 -1.2590 0.0485
8 -1 3 2.1882 0.0212
8 -1 4 -2.7406 -0.0372
8 -1 5 2.8978 0.0079
8 -1 6 -2.7467 0.0312
8 -1 7 2.3482 -0.0535
8 -1 8 -1.7631 0.0494
8 -1 10 -0.6685 -0.0208
8 -1 11 0.4644 0.0452
8 -1 12 -0.4781 -0.0330
8 -1 13 0.6045 -0.0033
8 -1 14 -0.8074 0.0272
8 -1 15 1.1094 -0.0197
8 -1 16 -1.4716 0.0059
8 -1 17 1.7398 -0.0251
8 -1 18 -1.7424 0.0757
8 -1 19 1.4325 -0.1014
8 -1 20 -0.9232 0.0453
8 -1 21 0.4040 0.0827
8 -1 22 -0.0356 -0.2003
8 0 0 0.7855 0.0935
8 0 1 -2.2041 -0.1282
8 0 2 3.6060 0.1051
8 0 3 -4.5649 -0.0405
8 0 4 4.9927 -0.0182
8 0 5 -4.9830 0.0419
8 0 6 4.5412 -0.0413
8 0 7 -3.5558 0.0405
8 0 8 2.0333 -0.0424
8 0 9 -0.2898 0.0327
8 0 11 1.8478 -0.0107
8 0 12 -1.7005 0.0119
8 0 13 0.9218 -0.0063
8 0 14 0.1038 0.0156
8 0 15 -0.9967 -0.0389
8 0 16 1.5071 0.0475
8 0 17 -1.5793 -0.0179
8 0 18 1.3286 -0.0335
8 0 19 -0.9343 0.0576
8 0 20 0.5312 -0.0164
8 0 21 -0.1922 -0.0773
8 0 22 -0.0169 0.1658
8 1 0 0.2712 0.0692
8 1 1 0.6958 -0.0107
8 1 2 -1.0470 -0.0394
8 1 3 0.7102 0.0505
8 1 4 0.0592 -0.0253
8 1 5 -0.9874 -0.0098
8 1 6 1.9383 0.0238
8 1 7 -2.8110 -0.0000
8 1 8 3.4120 -0.0488
8 1 9 -3.5254 0.0856
8 1 11 -2.3054 0.0304
8 1 12 1.3914 0.0172
8 1 13 -0.5262 -0.0259
8 1 14 -0.1968 -0.0087
8 1 15 0.6540 0.0590
8 1 16 -0.6808 -0.0970
8 1 17 0.2081 0.1154
8 1 18 0.6119 -0.1176
8 1 19 -1.4462 0.0984
8 1 20 1.9634 -0.0445
8 1 21 -1.9976 -0.0432
8 1 22 1.5934 0.1332
8 2 0 -0.5624 0.2139
8 2 1 0.5878 -0.1172
8 2 2 -1.3317 0.0047
8 2 4 -3.5428 -0.1004
8 2 5 4.5373 0.0929
8 2 6 -5.3019 -0.0690
8 2 7 5.5343 0.0462
8 2 8 -4.8424 -0.0410
8 2 9 3.1317 0.0591
8 2 11 -1.2329 0.0677
8 2 12 2.5143 -0.0080
8 2 13 -2.8955 -0.0658
8 2 14 2.6706 0.0953
8 2 15 -2.1730 -0.0498
8 2 16 1.5311 -0.0432
8 2 17 -0.7097 0.1227
8 2 18 -0.2836 -0.1478
8 2 19 1.2547 0.1301
8 2 20 -1.8710 -0.1197
8 2 21 1.8659 0.1576
8 2 22 -1.2483 -0.2371
8 3 0 -3.7068 -0.0042
8 3 1 3.7291 -0.0217
8 3 2 -3.3839 0.0597
8 3 3 2.8731 -0.1116
8 3 4 -2.3267 0.1572
8 3 5 1.8600 -0.1638
8 3 6 -1.7044 0.1180
8 3 7 2.1519 -0.0442
8 3 8 -3.2807 -0.0157
8 3 9 4.7473 0.0419
8 3 11 6.2771 0.0567
8 3 12 -5.7112 -0.0625
8 3 13 4.5126 0.0461
8 3 14 -3.1127 -0.0026
8 3 15 1.8548 -0.0435
8 3 16 -0.9223 0.0588
8 3 17 0.3624 -0.0288
8 3 18 -0.1183 -0.0367
8 3 19 0.0671 0.1155
8 3 20 -0.0879 -0.1830
8 3 21 0.1217 0.2182
8 3 22 -0.1635 -0.2149
8 4 0 -0.3171 -0.1165
8 4 1 1.5544 0.1625
8 4 2 -2.1520 -0.1714
8 4 3 2.0413 0.1510
8 4 4 -1.3697 -0.0975
8 4 5 0.2174 0.0131
8 4 6 1.4617 0.0708
8 4 7 -3.5702 -0.1077
8 4 8 5.5994 0.0795
8 4 9 -6.7639 -0.0139
8 4 11 -4.9603 0.0897
8 4 12 2.7992 -0.1227
8 4 13 -0.8160 0.1449
8 4 14 -0.5717 -0.1313
8 4 15 1.3782 0.0643
8 4 16 -1.7890 0.0317
8 4 17 1.9013 -0.1025
8 4 18 -1.6891 0.1067
8 4 19 1.1427 -0.0407
8 4 20 -0.3972 -0.0729
8 4 21 -0.2820 0.2050
8 4 22 0.6426 -0.3216
8 5 0 1.5025 0.0605
8 5 1 -2.2576 -0.0375
8 5 2 2.4980 0.0005
8 5 3 -2.2097 0.0242
8 5 4 1.5459 -0.0239
8 5 5 -0.6661 -0.0088
8 5 6 -0.2890 0.0715
8 5 7 1.0846 -0.1328
8 5 8 -1.3603 0.1384
8 5 9 0.8190 -0.0587
8 5 10 0.5088 -0.0677
8 5 11 -2.1988 0.1570
8 5 12 3.6517 -0.1537
8 5 13 -4.4134 0.0777
8 5 14 4.3598 0.0057
8 5 15 -3.6744 -0.0497
8 5 16 2.7091 0.0532
8 5 17 -1.8218 -0.0367
8 5 18 1.2316 0.0159
8 5 19 -0.9400 -0.0010
8 5 20 0.7784 0.0009
8 5 21 -0.5706 -0.0087
8 5 22 0.2828 -0.0070
8 6 0 -3.5167 0.0061
8 6 1 2.9762 -0.0003
8 6 2 -1.7665 -0.0144
8 6 3 0.0650 -0.0084
8 6 4 1.8697 0.0733
8 6 5 -3.6648 -0.1271
8 6 6 4.8203 0.1145
8 6 7 -4.8585 -0.0424
8 6 8 3.6270 -0.0270
8 6 9 -1.5078 0.0431
8 6 10 -0.7240 -0.0144
8 6 11 2.3386 -0.0129
8 6 12 -3.0361 0.0041
8 6 13 2.9707 0.0437
8 6 14 -2.4721 -0.1156
8 6 15 1.7841 0.1841
8 6 16 -1.0332 -0.2065
8 6 17 0.3444 0.1505
8 6 18 0.1147 -0.0454
8 6 19 -0.2324 -0.0077
8 6 20 0.0635 -0.0868
8 6 21 0.1869 0.3141
8 6 22 -0.3020 -0.5365
8 7 0 0.4308 0.0485
8 7 1 0.1156 0.0595
8 7 2 -0.9277 -0.1305
8 7 3 1.6700 0.1555
8 7 4 -2.1759 -0.1378
8 7 5 2.4169 0.0878
8 7 6 -2.3533 -0.0327
8 7 7 1.8936 0.0050
8 7 8 -1.0308 -0.0099
8 7 9 -0.0229 0.0179
8 7 10 0.8950 -0.0041
8 7 11 -1.2718 -0.0151
8 7 12 1.0682 0.0062
8 7 13 -0.4191 0.0263
8 7 14 -0.4407 -0.0330
8 7 15 1.2721 -0.0180
8 7 16 -1.8739 0.0918
8 7 17 2.1212 -0.1231
8 7 18 -2.0120 0.0992
8 7 19 1.6594 -0.0818
8 7 20 -1.2083 0.1353
8 7 21 0.7524 -0.2515
8 8 0 0.0775 -0.0253
8 8 1 -1.4821 0.0762
8 8 2 2.7137 -0.0756
8 8 3 -3.2748 0.0283
8 8 4 2.9117 0.0143
8 8 5 -1.7237 -0.0153
8 8 6 0.1010 -0.0052
8 8 7 1.4338 0.0010
8 8 8 -2.4267 0.0385
8 8 9 2.6840 -0.0756
8 8 10 -2.3446 0.0713
8 8 11 1.7434 -0.0228
8 8 12 -1.1487 -0.0463
8 8 13 0.6048 0.1116
8 8 14 -0.0251 -0.1469
8 8 15 -0.5884 0.1184
8 8 16 1.0609 -0.0166
8 8 17 -1.1935 -0.1024
8 8 18 0.9665 0.1387
8 8 19 -0.5679 -0.0426
8 8 20 0.2265 -0.1200
8 8 21 -0.0422 0.2207
8 9 0 1.6235 -0.0627
8 9 1 -0.4845 0.0422
8 9 2 -0.3983 -0.0382
8 9 3 0.7666 0.0614
8 9 4 -0.5125 -0.0904
8 9 5 -0.2932 0.0991
8 9 6 1.3804 -0.0729
8 9 7 -2.3201 0.0054
8 9 8 2.7001 0.0933
8 9 9 -2.3640 -0.1770
8 9 10 1.5064 0.1790
8 9 11 -0.5117 -0.0762
8 9 12 -0.3143 -0.0685
8 9 13 0.8693 0.1524
8 9 14 -1.1644 -0.1310
8 9 15 1.1925 0.0548
8 9 16 -0.9348 -0.0067
8 9 17 0.4653 0.0231
8 9 18 0.0211 -0.0939
8 9 19 -0.3267 0.2191
8 9 20 0.3879 -0.4207
8 10 0 3.2544 -0.1909
8 10 1 -2.8852 0.1392
8 10 2 1.9309 -0.0480
8 10 3 -0.6996 -0.0155
8 10 4 -0.5050 0.0199
8 10 5 1.4740 -0.0004
8 10 6 -2.0600 0.0047
8 10 7 2.1573 -0.0312
8 10 8 -1.7769 0.0372
8 10 9 1.1136 0.0017
8 10 10 -0.4603 -0.0652
8 10 11 0.0188 0.1177
8 10 12 0.1947 -0.1395
8 10 13 -0.2520 0.1225
8 10 14 0.1696 -0.0623
8 10 15 0.0895 -0.0178
8 10 16 -0.4831 0.0516
8 10 17 0.8280 0.0234
8 10 18 -0.9237 -0.1838
8 10 19 0.7321 0.3094
8 11 0 -3.0500 0.1393
8 11 1 2.4015 -0.0976
8 11 2 -1.4714 0.0189
8 11 3 0.5557 0.0366
8 11 4 0.1621 -0.0454
8 11 5 -0.5960 0.0241
8 11 6 0.6938 0.0103
8 11 7 -0.4603 -0.0520
8 11 8 0.0229 0.0808
8 11 9 0.4052 -0.0609
8 11 10 -0.6792 -0.0148
8 11 11 0.8176 0.0953
8 11 12 -0.9119 -0.1144
8 11 13 0.9628 0.0617
8 11 14 -0.8610 0.0077
8 11 15 0.5453 -0.0343
8 11 16 -0.1336 0.0060
8 11 17 -0.1544 0.0569
8 11 18 0.2017 -0.1424
8 12 0 -1.0110 0.2064
8 12 1 1.6753 -0.2001
8 12 2 -2.1146 0.1559
8 12 3 2.3450 -0.0752
8 12 4 -2.3985 0.0118
8 12 5 2.2065 -0.0022
8 12 6 -1.6885 0.0217
8 12 7 0.9413 -0.0249
8 12 8 -0.2647 0.0092
8 12 9 -0.0621 -0.0106
8 12 10 0.0186 0.0480
8 12 11 0.1743 -0.0967
8 12 12 -0.2977 0.1203
8 12 13 0.3121 -0.1032
8 12 14 -0.2896 0.0403
8 12 15 0.2408 0.0782
8 12 16 -0.0878 -0.2392
8 13 0 2.1189 0.1187
8 13 1 -2.2047 -0.2206
8 13 2 1.8738 0.3100
8 13 3 -1.4226 -0.2844
8 13 4 1.0456 0.1231
8 13 5 -0.7275 0.0611
8 13 6 0.4015 -0.1192
8 13 7 -0.1232 0.0147
8 13 8 0.0288 0.1420
8 13 9 -0.1540 -0.2073
8 13 10 0.3729 0.1310
8 13 11 -0.5445 0.0319
8 13 12 0.6681 -0.2002
8 13 13 -0.8393 0.3280
8 13 14 1.0718 -0.4009
8 13 15 -1.2278 0.4130
8 14 0 -0.0033 0.2365
8 14 1 -0.0802 -0.1628
8 14 2 0.1253 0.0279
8 14 3 -0.1619 0.0549
8 14 4 0.3670 -0.0315
8 14 5 -0.8274 -0.0428
8 14 6 1.3652 0.0848
8 14 7 -1.6608 -0.0760
8 14 8 1.5520 0.0589
8 14 9 -1.1780 -0.0695
8 14 10 0.8143 0.1029
8 14 11 -0.6092 -0.1370
8 14 12 0.5163 0.1560
8 15 0 0.0530 0.3488
8 15 1 0.2984 -0.4687
8 15 2 -0.5027 0.4604
8 15 3 0.5659 -0.3513
8 15 4 -0.6314 0.2705
8 15 5 0.7436 -0.3041
8 15 6 -0.7853 0.4014
8 15 7 0.6470 -0.4458
8 15 8 -0.3889 0.4027
8 15 9 0.1820 -0.3607
9 -11 0 0.0768 -0.0928
9 -11 1 0.2083 0.0809
9 -11 2 -0.4719 -0.0378
9 -11 3 0.5411 0.0216
9 -11 4 -0.3995 -0.0452
9 -11 5 0.2062 0.0825
9 -11 6 -0.1463 -0.0896
9 -10 0 0.2683 0.0976
9 -10 1 -0.4846 -0.0464
9 -10 2 0.5242 0.0153
9 -10 3 -0.3162 0.0234
9 -10 4 -0.0041 -0.0821
9 -10 5 0.2018 0.1292
9 -10 6 -0.1409 -0.1210
9 -10 7 -0.1071 0.0518
9 -10 8 0.3303 0.0330
9 -10 9 -0.3447 -0.0689
9 -10 10 0.1157 0.0120
9 -9 0 0.4373 0.1443
9 -9 1 -0.3256 -0.1763
9 -9 2 0.2254 0.1249
9 -9 3 -0.1100 -0.0277
9 -9 4 -0.0268 -0.0558
9 -9 5 0.1020 0.0768
9 -9 6 0.0129 -0.0214
9 -9 7 -0.3590 -0.0732
9 -9 8 0.8056 0.1318
9 -9 9 -1.1212 -0.0970
9 -9 10 1.1400 -0.0135
9 -9 11 -0.8726 0.1141
9 -9 12 0.4762 -0.1263
9 -9 13 -0.1386 0.0469
9 -8 0 -0.4149 0.0701
9 -8 1 0.5958 0.0097
9 -8 2 -0.9111 -0.1203
9 -8 3 1.1263 0.1944
9 -8 4 -1.0340 -0.1819
9 -8 5 0.6248 0.0979
9 -8 6 -0.0971 -0.0036
9 -8 7 -0.2924 -0.0538
9 -8 8 0.4013 0.0709
9 -8 9 -0.2716 -0.0602
9 -8 10 0.0763 0.0198
9 -8 11 0.0018 0.0477
9 -8 12 0.1143 -0.0967
9 -8 13 -0.3487 0.0534
9 -8 14 0.5305 0.1147
9 -8 15 -0.5250 -0.3472
9 -7 0 -1.6728 0.1649
9 -7 1 1.6311 -0.1696
9 -7 2 -1.3421 0.1339
9 -7 3 0.8027 -0.0507
9 -7 4 -0.1250 -0.0430
9 -7 5 -0.4886 0.0855
9 -7 6 0.8353 -0.0551
9 -7 7 -0.8250 0.0008
9 -7 8 0.5302 0.0075
9 -7 9 -0.1179 0.0454
9 -7 10 -0.2770 -0.1082
9 -7 11 0.6094 0.1237
9 -7 12 -0.8618 -0.0837
9 -7 13 0.9621 0.0216
9 -7 14 -0.8156 0.0327
9 -7 15 0.4329 -0.0697
9 -7 16 0.0088 0.0831
9 -6 0 0.4189 0.0886
9 -6 1 -0.2874 -0.0264
9 -6 2 0.0288 -0.0146
9 -6 3 0.1804 0.0207
9 -6 4 -0.2324 -0.0213
9 -6 5 0.1427 0.0415
9 -6 6 -0.0381 -0.0610
9 -6 7 0.0904 0.0419
9 -6 8 -0.4072 0.0111
9 -6 9 0.9235 -0.0438
9 -6 10 -1.3934 0.0158
9 -6 11 1.5374 0.0469
9 -6 12 -1.2570 -0.0793
9 -6 13 0.7242 0.0497
9 -6 14 -0.2540 0.0133
9 -6 15 0.0725 -0.0645
9 -6 16 -0.1886 0.0913
9 -6 17 0.4470 -0.1045
9 -5 0 -0.3785 0.1117
9 -5 1 -0.6245 -0.1133
9 -5 2 1.6440 0.0282
9 -5 3 -2.3425 0.0769
9 -5 4 2.4818 -0.1083
9 -5 5 -2.0451 0.0473
9 -5 6 1.2407 0.0302
9 -5 7 -0.3881 -0.0388
9 -5 8 -0.2479 -0.0322
9 -5 9 0.5676 0.1240
9 -5 10 -0.6148 -0.1785
9 -5 11 0.4716 0.1806
9 -5 12 -0.1952 -0.1381
9 -5 13 -0.1394 0.0550
9 -5 14 0.3876 0.0569
9 -5 15 -0.4004 -0.1530
9 -5 16 0.1777 0.1731
9 -5 17 0.0807 -0.0950
9 -5 18 -0.1385 -0.0368
9 -4 0 -0.0616 0.0895
9 -4 1 0.1896 -0.0649
9 -4 2 -0.1058 0.0330
9 -4 3 -0.1734 0.0111
9 -4 4 0.4867 -0.0575
9 -4 5 -0.6263 0.0681
9 -4 6 0.4642 -0.0198
9 -4 7 -0.0435 -0.0536
9 -4 8 -0.4200 0.0859
9 -4 9 0.6593 -0.0465
9 -4 10 -0.5453 -0.0290
9 -4 11 0.1890 0.0793
9 -4 12 0.1603 -0.0753
9 -4 13 -0.3433 0.0297
9 -4 14 0.4163 0.0327
9 -4 15 -0.5391 -0.0930
9 -4 16 0.7568 0.1264
9 -4 17 -0.9292 -0.1001
9 -4 18 0.8835 0.0052
9 -4 19 -0.6052 0.1139
9 -3 0 3.5402 -0.0363
9 -3 1 -2.8321 0.0638
9 -3 2 1.6381 -0.0868
9 -3 3 -0.2645 0.0595
9 -3 4 -0.9624 -0.0021
9 -3 5 1.8125 -0.0271
9 -3 6 -2.1866 0.0051
9 -3 7 2.1067 0.0316
9 -3 8 -1.6875 -0.0378
9 -3 9 1.0836 0.0128
9 -3 10 -0.4308 0.0084
9 -3 11 -0.1610 -0.0026
9 -3 12 0.5570 -0.0223
9 -3 13 -0.5840 0.0516
9 -3 14 0.1417 -0.0856
9 -3 15 0.6416 0.1253
9 -3 16 -1.4037 -0.1498
9 -3 17 1.7692 0.1324
9 -3 18 -1.6184 -0.0795
9 -3 19 1.1461 0.0401
9 -3 20 -0.6624 -0.0587
9 -2 0 0.5453 -0.0897
9 -2 1 -1.3654 -0.0083
9 -2 2 1.9035 0.1016
9 -2 3 -1.9294 -0.1420
9 -2 4 1.5047 0.1330
9 -2 5 -0.8848 -0.1075
9 -2 6 0.3200 0.0886
9 -2 7 0.0613 -0.0798
9 -2 8 -0.2473 0.0774
9 -2 9 0.2937 -0.0743
9 -2 10 -0.2810 0.0563
9 -2 11 0.2631 -0.0118
9 -2 12 -0.2213 -0.0464
9 -2 13 0.0883 0.0820
9 -2 14 0.1502 -0.0713
9 -2 15 -0.3861 0.0347
9 -2 16 0.4607 -0.0209
9 -2 17 -0.3208 0.0543
9 -2 18 0.0814 -0.1073
9 -2 19 0.0876 0.1334
9 -2 20 -0.1227 -0.1215
9 -2 21 0.0936 0.1073
9 -1 0 -3.5379 0.0680
9 -1 1 4.3061 -0.0399
9 -1 2 -4.4128 -0.0022
9 -1 3 3.8513 0.0418
9 -1 4 -2.8620 -0.0608
9 -1 5 1.7240 0.0389
9 -1 6 -0.6191 0.0229
9 -1 7 -0.3550 -0.0861
9 -1 8 1.1207 0.0990
9 -1 9 -1.6069 -0.0458
9 -1 10 1.7667 -0.0338
9 -1 11 -1.5765 0.0785
9 -1 12 1.0479 -0.0564
9 -1 13 -0.2928 -0.0173
9 -1 14 -0.4231 0.1015
9 -1 15 0.7704 -0.1556
9 -1 16 -0.5835 0.1516
9 -1 17 0.0233 -0.0798
9 -1 18 0.5187 -0.0363
9 -1 19 -0.7165 0.1338
9 -1 20 0.5336 -0.1377
9 -1 21 -0.1844 0.0174
9 0 0 0.6716 0.0280
9 0 1 -0.4740 -0.0906
9 0 2 -0.2630 0.1137
9 0 3 1.2187 -0.0896
9 0 4 -2.0826 0.0476
9 0 5 2.7134 -0.0231
9 0 6 -3.0615 0.0312
9 0 7 3.0481 -0.0573
9 0 8 -2.6053 0.0705
9 0 9 1.8201 -0.0521
9 0 10 -0.9600 0.0153
9 0 11 0.3114 0.0076
9 0 12 -0.0014 -0.0022
9 0 13 -0.0120 -0.0069
9 0 14 -0.1837 -0.0169
9 0 15 0.5368 0.0726
9 0 16 -0.9915 -0.1080
9 0 17 1.4257 0.0677
9 0 18 -1.6834 0.0402
9 0 19 1.6745 -0.1317
9 0 20 -1.4287 0.1108
9 0 21 1.0568 0.0430
9 1 0 1.2366 -0.1064
9 1 1 -2.3962 0.0726
9 1 2 3.5313 -0.0442
9 1 3 -4.2403 0.0279
9 1 4 4.4284 -0.0239
9 1 5 -4.2119 0.0274
9 1 6 3.6778 -0.0253
9 1 7 -2.8007 0.0006
9 1 8 1.5866 0.0504
9 1 9 -0.2250 -0.1022
9 1 10 -0.9530 0.1125
9 1 11 1.6628 -0.0613
9 1 12 -1.7972 -0.0206
9 1 13 1.4129 0.0693
9 1 14 -0.6620 -0.0422
9 1 15 -0.2355 -0.0434
9 1 16 1.0096 0.1215
9 1 17 -1.4229 -0.1292
9 1 18 1.3855 0.0525
9 1 19 -0.9914 0.0647
9 1 20 0.4371 -0.1529
9 1 21 0.0876 0.1632
9 1 22 -0.4471 -0.0993
9 2 0 2.4476 0.0405
9 2 1 -1.5742 0.0118
9 2 2 0.8676 -0.1145
9 2 3 -0.5157 0.1946
9 2 4 0.5094 -0.1885
9 2 5 -0.8164 0.1003
9 2 6 1.4335 0.0001
9 2 7 -2.2513 -0.0413
9 2 8 2.9554 0.0146
9 2 9 -3.1724 0.0272
9 2 10 2.7516 -0.0331
9 2 11 -1.8808 0.0067
9 2 12 0.9110 0.0079
9 2 13 -0.0938 0.0155
9 2 14 -0.4988 -0.0525
9 2 15 0.8496 0.0572
9 2 16 -0.8833 -0.0112
9 2 17 0.5204 -0.0628
9 2 18 0.1796 0.1316
9 2 19 -0.9767 -0.1849
9 2 20 1.5671 0.2366
9 2 21 -1.7491 -0.2979
9 2 22 1.5068 0.3530
9 3 0 0.6667 0.1387
9 3 1 -0.6934 -0.1494
9 3 2 -0.0139 0.1003
9 3 3 1.1924 -0.0075
9 3 4 -2.5326 -0.0880
9 3 5 3.8372 0.1281
9 3 6 -4.9392 -0.0789
9 3 7 5.5455 -0.0293
9 3 8 -5.2923 0.1152
9 3 9 4.0344 -0.1165
9 3 10 -2.0702 0.0474
9 3 11 0.0271 0.0201
9 3 12 1.5163 -0.0309
9 3 13 -2.3333 -0.0024
9 3 14 2.5436 0.0246
9 3 15 -2.3814 -0.0017
9 3 16 1.9913 -0.0432
9 3 17 -1.3976 0.0512
9 3 18 0.6045 0.0250
9 3 19 0.2978 -0.1851
9 3 20 -1.1042 0.3709
9 3 21 1.5641 -0.4874
9 3 22 -1.5238 0.4548
9 4 0 -2.2381 -0.2146
9 4 1 2.6056 0.2308
9 4 2 -2.9257 -0.1787
9 4 3 3.1730 0.0823
9 4 4 -3.2344 -0.0111
9 4 5 3.0583 0.0238
9 4 6 -2.8100 -0.1037
9 4 7 2.8205 0.1633
9 4 8 -3.3159 -0.1275
9 4 9 4.1806 0.0113
9 4 10 -5.0003 0.0938
9 4 11 5.3486 -0.1105
9 4 12 -5.0429 0.0433
9 4 13 4.1740 0.0431
9 4 14 -2.9704 -0.0927
9 4 15 1.6846 0.0937
9 4 16 -0.5634 -0.0602
9 4 17 -0.1834 0.0076
9 4 18 0.4705 0.0450
9 4 19 -0.3994 -0.0688
9 4 20 0.1934 0.0478
9 4 21 -0.0407 -0.0045
9 4 22 -0.0097 -0.0173
9 5 0 0.8906 0.0528
9 5 1 0.3825 -0.0356
9 5 2 -1.2798 -0.0087
9 5 3 1.6034 0.0677
9 5 4 -1.3974 -0.0984
9 5 5 0.7424 0.0780
9 5 6 0.3691 -0.0388
9 5 7 -1.9044 0.0344
9 5 8 3.5642 -0.0732
9 5 9 -4.7742 0.1068
9 5 10 4.9980 -0.0901
9 5 11 -4.1125 0.0368
9 5 12 2.5023 0.0006
9 5 13 -0.7977 0.0026
9 5 14 -0.4966 -0.0171
9 5 15 1.1955 0.0031
9 5 16 -1.3824 0.0411
9 5 17 1.2436 -0.0838
9 5 18 -0.9415 0.0989
9 5 19 0.5730 -0.0789
9 5 20 -0.1934 0.0154
9 5 21 -0.1379 0.1033
9 6 0 0.7446 0.0688
9 6 1 -1.5841 -0.1010
9 6 2 2.1571 0.0866
9 6 3 -2.2740 -0.0277
9 6 4 1.9131 -0.0414
9 6 5 -1.1902 0.0646
9 6 6 0.2921 -0.0120
9 6 7 0.5508 -0.0729
9 6 8 -1.0829 0.0945
9 6 9 1.0896 0.0047
9 6 10 -0.4947 -0.1748
9 6 11 -0.5873 0.2945
9 6 12 1.8815 -0.2791
9 6 13 -3.0311 0.1461
9 6 14 3.6932 0.0210
9 6 15 -3.6595 -0.1505
9 6 16 2.9781 0.2136
9 6 17 -1.9730 -0.2060
9 6 18 1.0775 0.1410
9 6 19 -0.5627 -0.0689
9 6 20 0.3847 0.0671
9 7 0 -2.4518 -0.0448
9 7 1 2.5067 0.1154
9 7 2 -2.1264 -0.1656
9 7 3 1.3697 0.1431
9 7 4 -0.3116 -0.0562
9 7 5 -0.9082 -0.0241
9 7 6 2.0137 0.0352
9 7 7 -2.6244 0.0110
9 7 8 2.4485 -0.0472
9 7 9 -1.5096 0.0274
9 7 10 0.1883 0.0289
9 7 11 0.9913 -0.0694
9 7 12 -1.6580 0.0593
9 7 13 1.7355 0.0088
9 7 14 -1.3673 -0.1281
9 7 15 0.7672 0.2637
9 7 16 -0.1386 -0.3284
9 7 17 -0.3352 0.2199
9 7 18 0.5197 0.0753
9 7 19 -0.3931 -0.4191
9 7 20 0.0725 0.6017
9 7 21 0.2500 -0.5096
9 8 0 0.4420 0.1938
9 8 1 -0.2801 -0.1506
9 8 2 -0.3852 0.0814
9 8 3 1.2020 -0.0043
9 8 4 -1.8378 -0.0663
9 8 5 2.1612 0.1185
9 8 6 -2.2036 -0.1503
9 8 7 2.0060 0.1604
9 8 8 -1.5451 -0.1302
9 8 9 0.8058 0.0380
9 8 10 0.1049 0.0922
9 8 11 -0.9316 -0.1749
9 8 12 1.3651 0.1304
9 8 13 -1.2001 0.0224
9 8 14 0.4700 -0.1619
9 8 15 0.5270 0.1715
9 8 16 -1.3607 -0.0442
9 8 17 1.7096 -0.1299
9 8 18 -1.5454 0.2662
9 8 19 1.1057 -0.3499
9 8 20 -0.6767 0.4004
9 9 0 -1.3077 0.0676
9 9 1 0.2091 -0.0160
9 9 2 1.0888 -0.0034
9 9 3 -2.1484 -0.0072
9 9 4 2.5849 0.0150
9 9 5 -2.2647 0.0034
9 9 6 1.3563 -0.0316
9 9 7 -0.2397 0.0379
9 9 8 -0.6682 -0.0193
9 9 9 1.1000 0.0017
9 9 10 -1.0441 -0.0014
9 9 11 0.6907 0.0089
9 9 12 -0.2551 -0.0164
9 9 13 -0.1648 0.0376
9 9 14 0.5719 -0.0787
9 9 15 -0.9470 0.1047
9 9 16 1.1894 -0.0697
9 9 17 -1.2017 -0.0110
9 9 18 1.0088 0.0497
9 9 19 -0.7547 0.0253
9 10 0 0.6196 -0.0016
9 10 1 0.1250 -0.0303
9 10 2 -0.6183 0.0657
9 10 3 0.7428 -0.0683
9 10 4 -0.5037 0.0264
9 10 5 -0.0479 0.0480
9 10 6 0.8425 -0.1221
9 10 7 -1.7346 0.1465
9 10 8 2.4677 -0.0887
9 10 9 -2.7655 -0.0203
9 10 10 2.4925 0.0893
9 10 11 -1.7358 -0.0456
9 10 12 0.7482 -0.0896
9 10 13 0.1737 0.2222
9 10 14 -0.7855 -0.2843
9 10 15 0.9550 0.2948
9 10 16 -0.7125 -0.3138
9 10 17 0.2550 0.3611
9 10 18 0.1512 -0.4050
9 11 0 2.5954 -0.1318
9 11 1 -2.9034 0.0835
9 11 2 2.5348 0.0199
9 11 3 -1.6457 -0.1101
9 11 4 0.5384 0.1287
9 11 5 0.4951 -0.0823
9 11 6 -1.2384 0.0178
9 11 7 1.5552 0.0336
9 11 8 -1.4204 -0.0695
9 11 9 0.9614 0.0849
9 11 10 -0.4191 -0.0635
9 11 11 0.0170 0.0089
9 11 12 0.1472 0.0395
9 11 13 -0.0907 -0.0429
9 11 14 -0.1336 0.0041
9 11 15 0.4631 0.0471
9 11 16 -0.7853 -0.1024
9 11 17 0.9367 0.1817
9 12 0 -1.7344 0.0182
9 12 1 1.1412 -0.0869
9 12 2 -0.3781 0.1311
9 12 3 -0.2910 -0.1418
9 12 4 0.7495 0.1115
9 12 5 -0.9952 -0.0448
9 12 6 1.0188 -0.0172
9 12 7 -0.7763 0.0202
9 12 8 0.2808 0.0404
9 12 9 0.3312 -0.0990
9 12 10 -0.8678 0.0846
9 12 11 1.2083 0.0013
9 12 12 -1.3385 -0.0912
9 12 13 1.2800 0.1286
9 12 14 -1.0365 -0.1195
9 12 15 0.6376 0.1017
9 13 0 -0.4980 0.1401
9 13 1 0.9824 -0.1518
9 13 2 -1.3705 0.1154
9 13 3 1.6311 -0.0522
9 13 4 -1.7857 0.0145
9 13 5 1.7904 -0.0212
9 13 6 -1.5517 0.0264
9 13 7 1.0777 0.0184
9 13 8 -0.5649 -0.0876
9 13 9 0.2749 0.0974
9 13 10 -0.3153 -0.0010
9 13 11 0.5625 -0.1546
9 13 12 -0.7997 0.2759
9 13 13 0.8988 -0.3068
9 13 14 -0.8542 0.2538
9 14 0 1.0533 -0.3497
9 14 1 -1.2902 0.0543
9 14 2 1.1803 0.2283
9 14 3 -0.9001 -0.3274
9 14 4 0.5986 0.1709
9 14 5 -0.2817 0.1223
9 14 6 -0.0864 -0.3321
9 14 7 0.4322 0.3295
9 14 8 -0.5864 -0.1733
9 14 9 0.4557 0.0232
9 14 10 -0.1345 0.0143
9 14 11 -0.1840 0.0544
9 15 1 -0.5985 -0.2238
9 15 2 0.5580 0.2808
9 15 3 -0.4356 -0.2833
9 15 4 0.3656 0.2471
9 15 5 -0.4786 -0.1568
9 15 6 0.7245 0.0178
10 -10 0 -0.0202 0.0592
10 -10 1 0.2014 -0.0039
10 -10 2 -0.4223 -0.0099
10 -10 3 0.5401 -0.0010
10 -10 4 -0.5017 0.0098
10 -10 5 0.4072 0.0159
10 -10 6 -0.4119 -0.0897
10 -9 0 0.1016 0.1104
10 -9 1 -0.4101 -0.1736
10 -9 2 0.6591 0.2478
10 -9 3 -0.6436 -0.2570
10 -9 4 0.3604 0.1592
10 -9 5 0.0038 0.0088
10 -9 6 -0.2418 -0.1625
10 -9 7 0.2864 0.2342
10 -9 8 -0.2250 -0.2089
10 -9 9 0.1873 0.1193
10 -9 10 -0.2327 -0.0253
10 -8 0 0.4679 -0.0917
10 -8 1 -0.3472 -0.0058
10 -8 2 0.3106 0.0820
10 -8 3 -0.3023 -0.1202
10 -8 4 0.2367 0.1018
10 -8 5 -0.1305 -0.0319
10 -8 6 0.1370 -0.0415
10 -8 7 -0.4159 0.0630
10 -8 8 0.9541 -0.0227
10 -8 9 -1.5193 -0.0372
10 -8 10 1.8037 0.0758
10 -8 11 -1.6354 -0.0961
10 -8 12 1.0862 0.1248
10 -8 13 -0.4112 -0.1601
10 -7 0 -0.2992 0.0582
10 -7 1 0.1141 -0.0918
10 -7 2 -0.1517 0.0303
10 -7 3 0.3332 0.0768
10 -7 4 -0.4466 -0.1487
10 -7 5 0.3265 0.1517
10 -7 6 0.0179 -0.1192
10 -7 7 -0.4251 0.0961
10 -7 8 0.7112 -0.0865
10 -7 9 -0.7937 0.0652
10 -7 10 0.7288 -0.0232
10 -7 11 -0.6533 -0.0216
10 -7 12 0.6766 0.0570
10 -7 13 -0.7929 -0.0970
10 -7 14 0.8837 0.1566
10 -6 0 -1.7279 -0.1504
10 -6 1 1.7648 0.0579
10 -6 2 -1.5592 0.0752
10 -6 3 1.1329 -0.1458
10 -6 4 -0.5477 0.1070
10 -6 5 -0.0941 -0.0110
10 -6 6 0.6570 -0.0513
10 -6 7 -1.0144 0.0377
10 -6 8 1.1092 0.0256
10 -6 9 -0.9742 -0.0917
10 -6 10 0.6860 0.1340
10 -6 11 -0.3093 -0.1391
10 -6 12 -0.0987 0.0894
10 -6 13 0.4437 0.0211
10 -6 14 -0.6010 -0.1572
10 -6 15 0.5049 0.2520
10 -5 0 0.4685 -0.0091
10 -5 1 -0.4379 0.0789
10 -5 2 0.1403 -0.1164
10 -5 3 0.2351 0.0978
10 -5 4 -0.5006 -0.0651
10 -5 5 0.5727 0.0752
10 -5 6 -0.4854 -0.1236
10 -5 7 0.3477 0.1415
10 -5 8 -0.2812 -0.0732
10 -5 9 0.3486 -0.0587
10 -5 10 -0.5047 0.1749
10 -5 11 0.6206 -0.2108
10 -5 12 -0.5823 0.1584
10 -5 13 0.3831 -0.0500
10 -5 14 -0.1229 -0.0691
10 -5 15 -0.0769 0.1463
10 -5 16 0.1528 -0.1279
10 -5 17 -0.1118 -0.0046
10 -4 0 -0.7170 0.0253
10 -4 1 -0.1027 -0.0932
10 -4 2 0.9691 0.0741
10 -4 3 -1.6257 0.0273
10 -4 4 1.9039 -0.1303
10 -4 5 -1.7906 0.1670
10 -4 6 1.4058 -0.1421
10 -4 7 -0.9236 0.1059
10 -4 8 0.4869 -0.0883
10 -4 9 -0.1605 0.0795
10 -4 10 -0.0445 -0.0613
10 -4 11 0.1066 0.0351
10 -4 12 0.0228 -0.0104
10 -4 13 -0.3419 -0.0151
10 -4 14 0.7101 0.0470
10 -4 15 -0.8890 -0.0731
10 -4 16 0.7289 0.0705
10 -4 17 -0.3262 -0.0395
10 -4 18 -0.0359 0.0164
10 -3 0 -0.3655 0.0026
10 -3 1 0.5441 -0.0135
10 -3 2 -0.5228 0.0385
10 -3 3 0.2646 -0.0368
10 -3 4 0.1457 -0.0102
10 -3 5 -0.5638 0.0669
10 -3 6 0.8465 -0.0785
10 -3 7 -0.8999 0.0319
10 -3 8 0.7299 0.0323
10 -3 9 -0.4605 -0.0656
10 -3 10 0.2629 0.0563
10 -3 11 -0.2283 -0.0273
10 -3 12 0.3070 0.0065
10 -3 13 -0.3867 -0.0108
10 -3 14 0.4202 0.0478
10 -3 15 -0.4556 -0.1103
10 -3 16 0.5387 0.1625
10 -3 17 -0.6233 -0.1513
10 -3 18 0.6064 0.0563
10 -3 19 -0.4442 0.0698
10 -2 0 3.2061 -0.0712
10 -2 1 -2.5735 0.0718
10 -2 2 1.4824 -0.0670
10 -2 3 -0.2502 0.0422
10 -2 4 -0.8098 -0.0125
10 -2 5 1.5332 0.0100
10 -2 6 -1.9009 -0.0402
10 -2 7 1.9580 0.0686
10 -2 8 -1.7583 -0.0574
10 -2 9 1.3561 0.0077
10 -2 10 -0.8111 0.0411
10 -2 11 0.2008 -0.0491
10 -2 12 0.3477 0.0053
10 -2 13 -0.6504 0.0712
10 -2 14 0.5505 -0.1412
10 -2 15 -0.0665 0.1526
10 -2 16 -0.5456 -0.0567
10 -2 17 0.9306 -0.1521
10 -2 18 -0.8849 0.4032
10 -2 19 0.4940 -0.5728
10 -1 0 0.1813 -0.0988
10 -1 1 -0.8013 0.0799
10 -1 2 1.4667 -0.0280
10 -1 3 -1.9087 -0.0274
10 -1 4 2.0124 0.0584
10 -1 5 -1.8058 -0.0551
10 -1 6 1.3710 0.0306
10 -1 7 -0.8065 -0.0128
10 -1 8 0.2433 0.0246
10 -1 9 0.1782 -0.0605
10 -1 10 -0.3866 0.0872
10 -1 11 0.4169 -0.0740
10 -1 12 -0.3454 0.0247
10 -1 13 0.2019 0.0252
10 -1 14 0.0245 -0.0476
10 -1 15 -0.3012 0.0485
10 -1 16 0.5230 -0.0491
10 -1 17 -0.6014 0.0446
10 -1 18 0.5653 0.0051
10 -1 19 -0.5357 -0.1293
10 -1 20 0.5896 0.2936
10 0 0 -2.7821 0.1050
10 0 1 3.3222 -0.1278
10 0 2 -3.3563 0.0758
10 0 3 2.8737 0.0274
10 0 4 -2.0669 -0.1203
10 0 5 1.1473 0.1471
10 0 6 -0.2429 -0.1004
10 0 7 -0.5612 0.0242
10 0 8 1.1652 0.0261
10 0 9 -1.4885 -0.0271
10 0 10 1.5357 -0.0057
10 0 11 -1.3794 0.0423
10 0 12 1.0763 -0.0598
10 0 13 -0.6455 0.0445
10 0 14 0.1525 0.0112
10 0 15 0.2270 -0.0982
10 0 16 -0.2965 0.1780
10 0 17 0.0189 -0.1970
10 0 18 0.4133 0.1284
10 0 19 -0.7160 -0.0071
10 0 20 0.7292 -0.0848
10 1 0 -0.4219 -0.1472
10 1 1 0.2329 0.0918
10 1 2 -0.4566 -0.0001
10 1 3 0.9845 -0.0477
10 1 4 -1.6609 0.0228
10 1 5 2.3674 0.0336
10 1 6 -2.9567 -0.0590
10 1 7 3.1916 0.0337
10 1 8 -2.8560 0.0086
10 1 9 1.9627 -0.0297
10 1 10 -0.8182 0.0327
10 1 11 -0.1562 -0.0486
10 1 12 0.6793 0.0805
10 1 13 -0.7084 -0.0810
10 1 14 0.3494 -0.0011
10 1 15 0.2563 0.1502
10 1 16 -0.9485 -0.2713
10 1 17 1.5250 0.2592
10 1 18 -1.7919 -0.0897
10 1 19 1.6767 -0.1498
10 1 20 -1.2806 0.3184
10 1 21 0.8023 -0.3231
10 2 0 0.4132 -0.0860
10 2 1 -1.4745 0.1344
10 2 2 2.6131 -0.1400
10 2 3 -3.4776 0.0894
10 2 4 3.9190 -0.0250
10 2 5 -3.9365 0.0044
10 2 6 3.5349 -0.0334
10 2 7 -2.7028 0.0529
10 2 8 1.5310 -0.0042
10 2 9 -0.2808 -0.0980
10 2 10 -0.7315 0.1704
10 2 11 1.3274 -0.1418
10 2 12 -1.5233 0.0235
10 2 13 1.4102 0.1022
10 2 14 -1.0292 -0.1547
10 2 15 0.3982 0.1161
10 2 16 0.3711 -0.0343
10 2 17 -1.0468 -0.0159
10 2 18 1.4000 -0.0238
10 2 19 -1.3507 0.1637
10 2 20 0.9918 -0.3537
10 2 21 -0.4982 0.5010
10 3 0 2.6692 0.1679
10 3 1 -2.3284 -0.1296
10 3 2 2.0484 -0.0096
10 3 3 -1.9105 0.1585
10 3 4 1.9106 -0.2001
10 3 5 -2.0796 0.1051
10 3 6 2.4895 0.0354
10 3 7 -3.1016 -0.0999
10 3 8 3.6535 0.0549
10 3 9 -3.7779 0.0260
10 3 10 3.2787 -0.0536
10 3 11 -2.2840 0.0148
10 3 12 1.1249 0.0350
10 3 13 -0.0867 -0.0496
10 3 14 -0.7104 0.0385
10 3 15 1.2309 -0.0355
10 3 16 -1.4137 0.0440
10 3 17 1.1922 -0.0303
10 3 18 -0.6080 -0.0318
10 3 19 -0.1424 0.1252
10 3 20 0.7976 -0.1967
10 3 21 -1.1692 0.1928
10 4 0 0.3405 -0.0621
10 4 1 -0.7648 -0.0166
10 4 2 0.7637 0.0896
10 4 3 -0.3612 -0.1049
10 4 4 -0.3869 0.0545
10 4 5 1.4079 -0.0034
10 4 6 -2.5269 0.0301
10 4 7 3.4016 -0.1344
10 4 8 -3.6321 0.2263
10 4 9 3.0178 -0.2157
10 4 10 -1.7322 0.1052
10 4 11 0.2354 0.0193
10 4 12 1.0087 -0.0807
10 4 13 -1.7637 0.0770
10 4 14 2.0394 -0.0586
10 4 15 -1.9643 0.0631
10 4 16 1.6690 -0.0856
10 4 17 -1.2511 0.0950
10 4 18 0.7795 -0.0557
10 4 19 -0.2968 -0.0644
10 4 20 -0.1612 0.2716
10 4 21 0.5277 -0.5108
10 5 0 -2.1666 -0.0955
10 5 1 2.2952 0.1928
10 5 2 -2.4525 -0.2091
10 5 3 2.6779 0.1299
10 5 4 -2.8733 -0.0335
10 5 5 2.9325 0.0209
10 5 6 -2.8949 -0.1041
10 5 7 2.9509 0.1838
10 5 8 -3.2725 -0.1535
10 5 9 3.8363 0.0148
10 5 10 -4.4183 0.1252
10 5 11 4.7540 -0.1675
10 5 12 -4.6890 0.1091
10 5 13 4.1984 -0.0173
10 5 14 -3.3290 -0.0558
10 5 15 2.1864 0.1056
10 5 16 -0.9734 -0.1364
10 5 17 -0.0328 0.1312
10 5 18 0.6150 -0.0792
10 5 19 -0.7554 0.0095
10 5 20 0.6305 0.0336
10 6 0 2.1235 0.0259
10 6 1 -1.2015 -0.0892
10 6 2 0.2751 0.1105
10 6 3 0.4053 -0.0762
10 6 4 -0.7141 0.0291
10 6 5 0.6200 -0.0084
10 6 6 -0.1215 -0.0011
10 6 7 -0.7405 0.0375
10 6 8 1.7968 -0.0901
10 6 9 -2.7165 0.0930
10 6 10 3.1226 -0.0029
10 6 11 -2.7948 -0.1368
10 6 12 1.8050 0.2305
10 6 13 -0.4846 -0.2238
10 6 14 -0.7358 0.1401
10 6 15 1.5106 -0.0298
10 6 16 -1.7050 -0.0858
10 6 17 1.4233 0.2029
10 6 18 -0.9239 -0.2936
10 6 19 0.4581 0.3156
10 7 0 0.8139 -0.0309
10 7 1 -1.4549 -0.0156
10 7 2 2.0792 0.0416
10 7 3 -2.4509 -0.0199
10 7 4 2.3830 -0.0318
10 7 5 -1.8566 0.0537
10 7 6 1.0275 -0.0037
10 7 7 -0.1401 -0.0804
10 7 8 -0.5756 0.1006
10 7 9 0.9623 -0.0042
10 7 10 -0.9382 -0.1430
10 7 11 0.4824 0.2097
10 7 12 0.3451 -0.1296
10 7 13 -1.3479 -0.0373
10 7 14 2.1799 0.1761
10 7 15 -2.4700 -0.2228
10 7 16 2.0562 0.1837
10 7 17 -1.1455 -0.0788
10 7 18 0.2171 -0.0829
10 8 0 -1.6349 0.0126
10 8 1 2.0052 0.1166
10 8 2 -2.0096 -0.2203
10 8 3 1.7032 0.2236
10 8 4 -1.1719 -0.1251
10 8 5 0.4941 0.0043
10 8 6 0.2409 0.0552
10 8 7 -0.8810 -0.0433
10 8 8 1.2162 0.0143
10 8 9 -1.0833 -0.0145
10 8 10 0.4963 0.0430
10 8 11 0.3200 -0.0820
10 8 12 -1.0333 0.1301
10 8 13 1.3711 -0.1811
10 8 14 -1.2450 0.1916
10 8 15 0.7760 -0.1187
10 8 16 -0.2216 0.0031
10 8 17 -0.1590 0.0215
10 9 0 0.5667 -0.0022
10 9 1 -0.4805 -0.0025
10 9 2 -0.1716 0.0073
10 9 3 1.1366 -0.0314
10 9 4 -2.0037 0.0631
10 9 5 2.5011 -0.0729
10 9 6 -2.6286 0.0374
10 9 7 2.5317 0.0296
10 9 8 -2.2860 -0.0643
10 9 9 1.8229 0.0006
10 9 10 -1.0595 0.1442
10 9 11 0.0910 -0.2470
10 9 12 0.7543 0.1787
10 9 13 -1.0796 0.0540
10 9 14 0.6997 -0.2852
10 9 15 0.1820 0.3302
10 9 16 -1.0688 -0.1479
10 9 17 1.4940 -0.1393
10 9 18 -1.3279 0.3718
10 10 0 -1.6863 -0.0140
10 10 1 0.9927 -0.0218
10 10 2 -0.0052 0.0541
10 10 3 -1.0057 -0.0722
10 10 4 1.7262 0.0650
10 10 5 -1.9511 -0.0405
10 10 6 1.6556 0.0265
10 10 7 -0.9837 -0.0358
10 10 8 0.1921 0.0383
10 10 9 0.4367 0.0048
10 10 10 -0.7010 -0.0789
10 10 11 0.5583 0.1093
10 10 12 -0.1219 -0.0363
10 10 13 -0.4147 -0.1186
10 10 14 0.8626 0.2751
10 10 15 -1.0902 -0.3738
10 10 16 1.0524 0.4079
10 10 17 -0.8128 -0.3786
10 11 0 -0.0809 -0.0511
10 11 1 0.9905 0.0224
10 11 2 -1.4501 0.0447
10 11 3 1.3292 -0.1169
10 11 4 -0.7755 0.1541
10 11 5 0.0451 -0.1251
10 11 6 0.7034 0.0316
10 11 7 -1.4464 0.0747
10 11 8 2.1640 -0.1211
10 11 9 -2.7189 0.0826
10 11 10 2.8892 -0.0119
10 11 11 -2.5257 -0.0188
10 11 12 1.6880 0.0010
10 11 13 -0.6515 0.0081
10 11 14 -0.2193 0.0288
10 11 15 0.6560 -0.0652
10 11 16 -0.6247 0.0176
10 12 0 1.4643 0.0240
10 12 1 -1.8621 -0.0086
10 12 2 1.8869 0.0117
10 12 3 -1.5263 -0.0339
10 12 4 0.9046 0.0554
10 12 5 -0.1943 -0.0660
10 12 6 -0.4344 0.0574
10 12 7 0.8196 -0.0080
10 12 8 -0.8426 -0.0901
10 12 9 0.5053 0.1861
10 12 10 0.0300 -0.1863
10 12 11 -0.5106 0.0404
10 12 12 0.7291 0.1941
10 12 13 -0.6126 -0.3880
10 12 14 0.2223 0.4412
10 13 0 -1.1871 -0.2183
10 13 1 0.7314 0.2172
10 13 2 -0.0513 -0.0755
10 13 3 -0.5477 -0.1195
10 13 4 0.9068 0.2514
10 13 5 -1.0516 -0.2467
10 13 6 1.0575 0.1383
10 13 7 -0.9282 -0.0371
10 13 8 0.6206 0.0222
10 13 9 -0.1535 -0.0663
10 13 10 -0.3513 0.0821
10 13 11 0.7403 -0.0282
10 13 12 -0.9212 -0.0529
10 14 0 -0.1518 -0.0486
10 14 1 0.2968 0.0956
10 14 2 -0.4264 -0.1579
10 14 3 0.5298 0.1744
10 14 4 -0.6283 -0.0901
10 14 5 0.6967 -0.0715
10 14 6 -0.6513 0.1954
10 14 7 0.4508 -0.1773
10 14 8 -0.1920 0.0419
10 14 9 0.0628 0.0657
11 -9 0 0.0424 0.0073
11 -9 1 0.0831 -0.0085
11 -9 2 -0.3039 -0.0239
11 -9 3 0.4977 0.0654
11 -9 4 -0.5725 -0.0779
11 -9 5 0.5629 0.0635
11 -9 6 -0.5864 -0.0668
11 -8 0 0.0543 -0.0961
11 -8 1 -0.1639 0.0745
11 -8 2 0.3462 0.0203
11 -8 3 -0.4159 -0.1024
11 -8 4 0.2857 0.1067
11 -8 5 -0.0216 -0.0479
11 -8 6 -0.2501 -0.0110
11 -8 7 0.4667 0.0300
11 -8 8 -0.6511 -0.0200
11 -8 9 0.8311 0.0155
11 -8 10 -0.9662 -0.0392
11 -7 0 0.8480 -0.0278
11 -7 1 -0.6381 0.0338
11 -7 2 0.5604 -0.0757
11 -7 3 -0.5905 0.0769
11 -7 4 0.5781 -0.0314
11 -7 5 -0.4133 -0.0077
11 -7 6 0.1697 0.0024
11 -7 7 -0.0654 0.0319
11 -7 8 0.2638 -0.0578
11 -7 9 -0.7040 0.0569
11 -7 10 1.1227 -0.0287
11 -7 11 -1.2453 -0.0341
11 -7 12 0.9798 0.1404
11 -6 0 0.3162 0.0669
11 -6 1 -0.5986 -0.1228
11 -6 2 0.7225 0.0970
11 -6 3 -0.6289 -0.0174
11 -6 4 0.4065 -0.0339
11 -6 5 -0.2049 0.0141
11 -6 6 0.1191 0.0337
11 -6 7 -0.1468 -0.0320
11 -6 8 0.2261 -0.0469
11 -6 9 -0.2976 0.1571
11 -6 10 0.3414 -0.2256
11 -6 11 -0.3780 0.2042
11 -6 12 0.4406 -0.0845
11 -6 13 -0.5345 -0.1087
11 -6 14 0.6150 0.3159
11 -5 0 -1.1715 -0.2623
11 -5 1 1.3308 0.2939
11 -5 2 -1.3111 -0.1707
11 -5 3 1.1644 -0.0032
11 -5 4 -0.9207 0.1058
11 -5 5 0.5744 -0.1016
11 -5 6 -0.1427 0.0410
11 -5 7 -0.2811 0.0145
11 -5 8 0.5566 -0.0428
11 -5 9 -0.5870 0.0475
11 -5 10 0.3793 -0.0292
11 -5 11 -0.0262 -0.0104
11 -5 12 -0.3496 0.0484
11 -5 13 0.6323 -0.0496
11 -5 14 -0.7314 0.0004
11 -4 0 0.0181 -0.0205
11 -4 1 -0.1086 0.0883
11 -4 2 -0.0666 -0.1436
11 -4 3 0.3872 0.1188
11 -4 4 -0.6822 -0.0240
11 -4 5 0.8444 -0.0629
11 -4 6 -0.8551 0.0801
11 -4 7 0.7529 -0.0379
11 -4 8 -0.6053 -0.0076
11 -4 9 0.4859 0.0180
11 -4 10 -0.4399 0.0017
11 -4 11 0.4517 -0.0250
11 -4 12 -0.4555 0.0286
11 -4 13 0.3860 0.0019
11 -4 14 -0.2240 -0.0699
11 -4 15 0.0029 0.1516
11 -4 16 0.2091 -0.1939
11 -3 0 -0.9497 0.0150
11 -3 1 0.1992 -0.0469
11 -3 2 0.6636 0.0391
11 -3 3 -1.3885 0.0088
11 -3 4 1.7739 -0.0518
11 -3 5 -1.7455 0.0547
11 -3 6 1.3699 -0.0305
11 -3 7 -0.8199 0.0155
11 -3 8 0.3016 -0.0202
11 -3 9 0.0351 0.0177
11 -3 10 -0.1478 0.0195
11 -3 11 0.0716 -0.0860
11 -3 12 0.1495 0.1480
11 -3 13 -0.4772 -0.1682
11 -3 14 0.8203 0.1209
11 -3 15 -1.0026 0.0050
11 -3 16 0.8541 -0.1917
11 -3 17 -0.3739 0.3769
11 -2 0 -0.6604 0.0111
11 -2 1 0.8183 -0.0149
11 -2 2 -0.8199 0.0623
11 -2 3 0.6130 -0.1029
11 -2 4 -0.2306 0.0950
11 -2 5 -0.2660 -0.0472
11 -2 6 0.7934 0.0026
11 -2 7 -1.2178 0.0081
11 -2 8 1.3876 0.0126
11 -2 9 -1.2417 -0.0445
11 -2 10 0.8825 0.0728
11 -2 11 -0.5118 -0.0888
11 -2 12 0.2816 0.0834
11 -2 13 -0.2077 -0.0508
11 -2 14 0.2135 -0.0030
11 -2 15 -0.2261 0.0715
11 -2 16 0.2145 -0.1691
11 -2 17 -0.1639 0.3252
11 -2 18 0.0601 -0.5370
11 -1 0 2.9285 0.0663
11 -1 1 -2.6850 -0.0646
11 -1 2 1.9227 0.0848
11 -1 3 -0.8380 -0.1169
11 -1 4 -0.2653 0.1319
11 -1 5 1.1353 -0.1080
11 -1 6 -1.6404 0.0547
11 -1 7 1.7625 -0.0061
11 -1 8 -1.5745 -0.0095
11 -1 9 1.2080 -0.0103
11 -1 10 -0.7887 0.0479
11 -1 11 0.3751 -0.0815
11 -1 12 0.0259 0.0902
11 -1 13 -0.3741 -0.0561
11 -1 14 0.5560 -0.0202
11 -1 15 -0.4722 0.0978
11 -1 16 0.1711 -0.1033
11 -1 17 0.1385 -0.0165
11 -1 18 -0.2430 0.2368
11 -1 19 0.1008 -0.4512
11 0 0 0.4548 0.1499
11 0 1 -0.8035 -0.0779
11 0 2 1.3024 0.0047
11 0 3 -1.8156 0.0241
11 0 4 2.2283 -0.0115
11 0 5 -2.4128 0.0006
11 0 6 2.2206 -0.0224
11 0 7 -1.5903 0.0595
11 0 8 0.6781 -0.0674
11 0 9 0.1707 0.0265
11 0 10 -0.6389 0.0378
11 0 11 0.6491 -0.0868
11 0 12 -0.3664 0.1094
11 0 13 0.0168 -0.1199
11 0 14 0.2728 0.1211
11 0 15 -0.4736 -0.0863
11 0 16 0.5672 -0.0062
11 0 17 -0.5240 0.1248
11 0 18 0.3674 -0.1832
11 0 19 -0.2078 0.1052
11 1 0 -1.9075 0.1234
11 1 1 2.3151 -0.2001
11 1 2 -2.4069 0.1940
11 1 3 2.1437 -0.1020
11 1 4 -1.6138 -0.0034
11 1 5 0.9210 0.0471
11 1 6 -0.1422 -0.0199
11 1 7 -0.6132 -0.0273
11 1 8 1.1729 0.0478
11 1 9 -1.3936 -0.0415
11 1 10 1.2863 0.0339
11 1 11 -1.0089 -0.0307
11 1 12 0.7168 0.0107
11 1 13 -0.4426 0.0387
11 1 14 0.1430 -0.0947
11 1 15 0.1647 0.1166
11 1 16 -0.3623 -0.0875
11 1 17 0.3456 0.0302
11 1 18 -0.1496 0.0163
11 1 19 -0.0716 -0.0310
11 2 0 -1.0744 -0.1887
11 2 1 1.0030 0.1308
11 2 2 -1.1290 0.0048
11 2 3 1.4296 -0.1066
11 2 4 -1.9011 0.0996
11 2 5 2.5323 -0.0187
11 2 6 -3.1829 -0.0387
11 2 7 3.5435 0.0237
11 2 8 -3.3041 0.0212
11 2 9 2.4134 -0.0290
11 2 10 -1.1681 -0.0061
11 2 11 0.0234 0.0284
11 2 12 0.6929 -0.0012
11 2 13 -0.9035 -0.0403
11 2 14 0.6897 0.0294
11 2 15 -0.1615 0.0455
11 2 16 -0.5534 -0.1087
11 2 17 1.2505 0.0557
11 2 18 -1.6747 0.1554
11 2 19 1.6635 -0.4606
11 2 20 -1.2680 0.7245
11 3 0 -0.4407 0.1564
11 3 1 -0.1803 -0.0486
11 3 2 0.9005 -0.0506
11 3 3 -1.5443 0.0569
11 3 4 2.0423 0.0128
11 3 5 -2.3444 -0.0611
11 3 6 2.3291 0.0271
11 3 7 -1.8647 0.0427
11 3 8 0.9857 -0.0537
11 3 9 0.0317 -0.0229
11 3 10 -0.8232 0.1157
11 3 11 1.1864 -0.1305
11 3 12 -1.1744 0.0424
11 3 13 0.9572 0.0920
11 3 14 -0.6291 -0.1934
11 3 15 0.1775 0.2120
11 3 16 0.3915 -0.1392
11 3 17 -0.9539 0.0040
11 3 18 1.3236 0.1259
11 3 19 -1.3892 -0.1616
11 3 20 1.1789 0.0498
11 4 0 2.4168 0.2257
11 4 1 -2.1411 -0.2718
11 4 2 1.8661 0.1739
11 4 3 -1.6889 0.0037
11 4 4 1.6859 -0.1135
11 4 5 -1.9390 0.0731
11 4 6 2.4927 0.0507
11 4 7 -3.2465 -0.1188
11 4 8 3.9159 0.0689
11 4 9 -4.1674 0.0329
11 4 10 3.8414 -0.0844
11 4 11 -3.0515 0.0579
11 4 12 2.0649 -0.0046
11 4 13 -1.0964 -0.0293
11 4 14 0.2266 0.0511
11 4 15 0.5129 -0.0829
11 4 16 -1.0387 0.1020
11 4 17 1.2411 -0.0484
11 4 18 -1.0995 -0.1126
11 4 19 0.7343 0.3505
11 4 20 -0.3305 -0.5885
11 5 0 -0.3502 -0.1550
11 5 1 -0.1314 0.1203
11 5 2 0.5608 -0.0098
11 5 3 -0.9084 -0.0913
11 5 4 1.0286 0.1053
11 5 5 -0.7782 -0.0507
11 5 6 0.1919 0.0154
11 5 7 0.4475 -0.0461
11 5 8 -0.7501 0.0969
11 5 9 0.4781 -0.0954
11 5 10 0.2892 0.0346
11 5 11 -1.2256 0.0283
11 5 12 1.9818 -0.0539
11 5 13 -2.3649 0.0659
11 5 14 2.3574 -0.1048
11 5 15 -2.0389 0.1665
11 5 16 1.5266 -0.2114
11 5 17 -0.9591 0.2227
11 5 18 0.4684 -0.2198
11 5 19 -0.1214 0.2085
11 6 0 -2.8471 0.2218
11 6 1 2.8091 -0.1462
11 6 2 -2.5833 0.0519
11 6 3 2.2803 -0.0116
11 6 4 -1.9734 0.0170
11 6 5 1.7241 0.0006
11 6 6 -1.6199 -0.0679
11 6 7 1.7591 0.1250
11 6 8 -2.1769 -0.1017
11 6 9 2.7868 0.0183
11 6 10 -3.4034 0.0289
11 6 11 3.8304 0.0138
11 6 12 -3.9296 -0.0867
11 6 13 3.6278 0.0866
11 6 14 -2.9096 0.0117
11 6 15 1.8528 -0.1332
11 6 16 -0.6725 0.1964
11 6 17 -0.3218 -0.1948
11 6 18 0.8790 0.1681
11 6 19 -0.9553 -0.1258
11 7 0 2.0938 -0.0525
11 7 1 -1.7972 -0.0309
11 7 2 1.2741 0.1042
11 7 3 -0.6297 -0.1303
11 7 4 0.0517 0.1284
11 7 5 0.2832 -0.1274
11 7 6 -0.2920 0.1139
11 7 7 0.0080 -0.0585
11 7 8 0.4477 -0.0172
11 7 9 -0.9062 0.0403
11 7 10 1.1876 0.0286
11 7 11 -1.1445 -0.1330
11 7 12 0.7189 0.1725
11 7 13 0.0040 -0.1113
11 7 14 -0.7899 0.0043
11 7 15 1.3394 0.0858
11 7 16 -1.4482 -0.1642
11 7 17 1.1430 0.2700
11 7 18 -0.6708 -0.3891
11 8 0 1.5292 -0.1306
11 8 1 -2.0527 0.0701
11 8 2 2.5472 -0.0284
11 8 3 -2.8684 0.0279
11 8 4 2.8351 -0.0490
11 8 5 -2.3746 0.0351
11 8 6 1.5847 0.0482
11 8 7 -0.6703 -0.1523
11 8 8 -0.1650 0.1744
11 8 9 0.7720 -0.0718
11 8 10 -1.0403 -0.0664
11 8 11 0.8808 0.0983
11 8 12 -0.2745 0.0135
11 8 13 -0.6326 -0.1497
11 8 14 1.4967 0.1568
11 8 15 -1.9021 -0.0047
11 8 16 1.6104 -0.2023
11 9 0 -0.6890 0.0993
11 9 1 1.2945 -0.0084
11 9 2 -1.6163 -0.0806
11 9 3 1.6091 0.1050
11 9 4 -1.3550 -0.0529
11 9 5 0.9736 -0.0201
11 9 6 -0.5213 0.0507
11 9 7 0.0031 -0.0328
11 9 8 0.5186 0.0064
11 9 9 -0.8631 0.0067
11 9 10 0.8245 -0.0226
11 9 11 -0.3567 0.0445
11 9 12 -0.3263 -0.0270
11 9 13 0.8532 -0.0724
11 9 14 -0.9389 0.2144
11 10 0 1.2052 -0.0430
11 10 1 -1.1440 0.1411
11 10 2 0.4778 -0.1915
11 10 3 0.6442 0.1444
11 10 4 -1.8056 -0.0210
11 10 5 2.6136 -0.1000
11 10 6 -2.9504 0.1365
11 10 7 2.9562 -0.0731
11 10 8 -2.7981 -0.0074
11 10 9 2.4821 -0.0074
11 10 10 -1.8956 0.1309
11 10 11 1.0164 -0.2221
11 10 12 -0.0625 0.1012
11 11 0 -1.2634 -0.1891
11 11 1 0.7429 0.0531
11 11 2 -0.0929 0.0618
11 11 3 -0.5204 -0.0998
11 11 4 0.9501 0.0474
11 11 5 -1.1298 0.0438
11 11 6 1.0470 -0.0855
11 11 7 -0.6947 0.0354
11 11 8 0.0963 0.0462
11 11 9 0.6143 -0.0457
11 11 10 -1.1770 -0.0820
11 11 11 1.3245 0.2524
11 11 12 -0.9611 -0.3208
11 11 13 0.2484 0.2087
11 11 14 0.4786 0.0473
11 12 0 0.1477 -0.0626
11 12 1 0.7477 0.0969
11 12 2 -1.3488 -0.0892
11 12 3 1.3727 0.0385
11 12 4 -0.8767 0.0350
11 12 5 0.1743 -0.0944
11 12 6 0.4414 0.1118
11 12 7 -0.8936 -0.1010
11 12 8 1.2715 0.1069
11 12 9 -1.6319 -0.1456
11 12 10 1.8801 0.1691
11 12 11 -1.8394 -0.1185
11 12 12 1.4252 0.0129
11 12 13 -0.7534 0.0441
11 13 0 0.7772 0.1312
11 13 1 -0.9110 -0.1374
11 13 2 0.9170 0.0328
11 13 3 -0.8058 0.1216
11 13 4 0.6220 -0.2402
11 13 5 -0.3886 0.2486
11 13 6 0.1089 -0.1466
11 13 7 0.1692 0.0307
11 13 8 -0.3236 -0.0191
11 13 9 0.2354 0.1308
11 13 10 0.0907 -0.2496
12 -8 2 -0.2089 0.2860
12 -8 3 0.3406 -0.2586
12 -7 0 -0.1818 0.0463
12 -7 1 0.1934 0.0686
12 -7 2 -0.1133 -0.0910
12 -7 3 0.0461 0.0832
12 -7 4 -0.0557 -0.1101
12 -7 5 0.1132 0.1490
12 -7 6 -0.1607 -0.1167
12 -7 7 0.2041 -0.0304
12 -7 8 -0.3147 0.2393
12 -7 9 0.5329 -0.3977
12 -6 0 0.7457 0.3425
12 -6 1 -0.5610 -0.3330
12 -6 2 0.5315 0.1442
12 -6 3 -0.6675 0.0653
12 -6 4 0.8020 -0.1731
12 -6 5 -0.7337 0.1681
12 -6 6 0.4241 -0.1074
12 -6 7 -0.0545 0.0422
12 -6 8 -0.1224 0.0051
12 -6 9 -0.0018 -0.0249
12 -6 10 0.3042 0.0136
12 -6 11 -0.5377 0.0128
12 -5 0 0.8496 0.0818
12 -5 1 -1.0532 -0.1309
12 -5 2 1.2165 0.1416
12 -5 3 -1.2451 -0.0791
12 -5 4 1.1159 0.0000
12 -5 5 -0.8701 0.0215
12 -5 6 0.5753 0.0261
12 -5 7 -0.3043 -0.0916
12 -5 8 0.1275 0.1217
12 -5 9 -0.0856 -0.1043
12 -5 10 0.1551 0.0592
12 -5 11 -0.2501 -0.0145
12 -5 12 0.2771 0.0003
12 -4 0 -0.5247 -0.0616
12 -4 1 0.7641 0.1602
12 -4 2 -0.8787 -0.1318
12 -4 3 0.9231 0.0279
12 -4 4 -0.9190 0.0414
12 -4 5 0.8101 -0.0199
12 -4 6 -0.5349 -0.0606
12 -4 7 0.1427 0.1363
12 -4 8 0.1855 -0.1723
12 -4 9 -0.2529 0.1680
12 -4 10 -0.0075 -0.1295
12 -4 11 0.4880 0.0578
12 -4 12 -0.9855 0.0403
12 -3 0 -0.1750 0.1216
12 -3 1 0.1170 -0.1553
12 -3 2 -0.2935 0.1068
12 -3 3 0.6281 -0.0391
12 -3 4 -0.9523 0.0090
12 -3 5 1.1274 -0.0228
12 -3 6 -1.1035 0.0537
12 -3 7 0.9188 -0.0743
12 -3 8 -0.6788 0.0650
12 -3 9 0.5229 -0.0112
12 -3 10 -0.5590 -0.0853
12 -3 11 0.7908 0.1907
12 -3 12 -1.0998 -0.2516
12 -3 13 1.3105 0.2339
12 -3 14 -1.2904 -0.1480
12 -3 15 1.0125 0.0320
12 -3 16 -0.5570 0.0828
12 -2 0 -1.1052 0.1428
12 -2 1 0.5403 -0.1277
12 -2 2 0.2500 0.0671
12 -2 3 -1.0444 0.0077
12 -2 4 1.5896 -0.0421
12 -2 5 -1.6891 0.0138
12 -2 6 1.2843 0.0425
12 -2 7 -0.5119 -0.0717
12 -2 8 -0.3206 0.0507
12 -2 9 0.8784 -0.0030
12 -2 10 -0.9858 -0.0299
12 -2 11 0.7041 0.0220
12 -2 12 -0.2399 0.0267
12 -2 13 -0.2163 -0.0940
12 -2 14 0.5634 0.1372
12 -2 15 -0.7457 -0.1041
12 -2 16 0.7032 -0.0334
12 -1 0 -1.0946 -0.0491
12 -1 1 1.3575 0.0731
12 -1 2 -1.4107 -0.0338
12 -1 3 1.2012 -0.0149
12 -1 4 -0.7710 0.0315
12 -1 5 0.1836 -0.0173
12 -1 6 0.4895 -0.0018
12 -1 7 -1.1168 0.0068
12 -1 8 1.5031 0.0056
12 -1 9 -1.5015 -0.0318
12 -1 10 1.1473 0.0634
12 -1 11 -0.6575 -0.0779
12 -1 12 0.2773 0.0444
12 -1 13 -0.1171 0.0503
12 -1 14 0.1216 -0.1839
12 -1 15 -0.1668 0.3189
12 -1 16 0.1625 -0.4448
12 -1 17 -0.0824 0.5910
12 0 0 1.8147 0.0151
12 0 1 -1.8547 -0.0148
12 0 2 1.5560 0.0326
12 0 3 -0.9144 -0.0527
12 0 4 0.0706 0.0471
12 0 5 0.7439 -0.0175
12 0 6 -1.2795 -0.0012
12 0 7 1.3678 -0.0164
12 0 8 -1.0270 0.0523
12 0 9 0.4815 -0.0648
12 0 10 -0.0261 0.0390
12 0 11 -0.1819 -0.0041
12 0 12 0.2130 -0.0041
12 0 13 -0.2442 -0.0096
12 0 14 0.3578 0.0010
12 0 15 -0.4738 0.0637
12 0 16 0.4728 -0.1649
12 0 17 -0.3490 0.2409
12 0 18 0.2126 -0.2413
12 1 0 0.5936 0.1728
12 1 1 -0.8514 -0.1351
12 1 2 1.1812 0.0218
12 1 3 -1.5671 0.0752
12 1 4 2.0108 -0.1047
12 1 5 -2.4119 0.0949
12 1 6 2.5236 -0.0963
12 1 7 -2.1100 0.1120
12 1 8 1.1937 -0.1037
12 1 9 -0.1269 0.0512
12 1 10 -0.6301 0.0180
12 1 11 0.8350 -0.0660
12 1 12 -0.5951 0.0912
12 1 13 0.2109 -0.1188
12 1 14 0.0776 0.1455
12 1 15 -0.2016 -0.1153
12 1 16 0.1944 -0.0331
12 1 17 -0.0925 0.2907
12 1 18 -0.0761 -0.5548
12 2 0 -0.7805 -0.0510
12 2 1 1.0150 -0.0179
12 2 2 -1.1231 0.0643
12 2 3 1.1003 -0.0399
12 2 4 -0.9510 -0.0078
12 2 5 0.6420 0.0091
12 2 6 -0.1421 0.0380
12 2 7 -0.4750 -0.0734
12 2 8 1.0042 0.0596
12 2 9 -1.2354 -0.0316
12 2 10 1.1223 0.0501
12 2 11 -0.8067 -0.1196
12 2 12 0.4688 0.1730
12 2 13 -0.1700 -0.1334
12 2 14 -0.1359 -0.0197
12 2 15 0.4641 0.2423
12 2 16 -0.7184 -0.4641
12 2 17 0.7776 0.6231
12 2 18 -0.6357 -0.6787
12 3 0 -0.7644 -0.2245
12 3 1 0.8531 0.2072
12 3 2 -1.0627 -0.0647
12 3 3 1.3656 -0.0845
12 3 4 -1.8265 0.1196
12 3 5 2.5154 -0.0457
12 3 6 -3.3275 -0.0266
12 3 7 3.9230 0.0198
12 3 8 -3.9185 0.0280
12 3 9 3.1907 -0.0261
12 3 10 -2.0033 -0.0481
12 3 11 0.8233 0.1227
12 3 12 -0.0013 -0.1199
12 3 13 -0.3887 0.0411
12 3 14 0.4514 0.0490
12 3 15 -0.2882 -0.1061
12 3 16 -0.0562 0.1525
12 3 17 0.5068 -0.2435
12 3 18 -0.8973 0.4053
12 4 0 -0.8171 0.2868
12 4 1 0.6685 -0.2000
12 4 2 -0.4215 0.0252
12 4 3 0.1371 0.0841
12 4 4 0.1862 -0.0590
12 4 5 -0.5107 -0.0285
12 4 6 0.6849 0.0690
12 4 7 -0.5205 -0.0362
12 4 8 -0.0239 -0.0131
12 4 9 0.7457 0.0315
12 4 10 -1.3155 -0.0314
12 4 11 1.5089 0.0436
12 4 12 -1.3338 -0.0638
12 4 13 0.9480 0.0646
12 4 14 -0.4873 -0.0413
12 4 15 -0.0056 0.0116
12 4 16 0.5135 0.0311
12 4 17 -0.9620 -0.1300
12 4 18 1.2386 0.3061
12 5 0 2.2932 -0.0490
12 5 1 -1.8818 -0.0526
12 5 2 1.3319 0.0632
12 5 3 -0.7497 0.0266
12 5 4 0.3554 -0.1074
12 5 5 -0.4028 0.0795
12 5 6 1.0118 0.0310
12 5 7 -2.0283 -0.1102
12 5 8 3.0509 0.0934
12 5 9 -3.6486 -0.0266
12 5 10 3.6178 -0.0138
12 5 11 -3.0689 0.0209
12 5 12 2.2831 -0.0475
12 5 13 -1.4906 0.1109
12 5 14 0.7734 -0.1550
12 5 15 -0.1404 0.1217
12 5 16 -0.3617 -0.0342
12 5 17 0.6470 -0.0188
12 5 18 -0.6838 -0.0255
12 6 0 -0.4259 -0.2013
12 6 1 0.1203 0.2859
12 6 2 0.2566 -0.2301
12 6 3 -0.7570 0.0886
12 6 4 1.2368 0.0146
12 6 5 -1.4801 -0.0165
12 6 6 1.4111 -0.0461
12 6 7 -1.1965 0.1101
12 6 8 1.1399 -0.1515
12 6 9 -1.4497 0.1638
12 6 10 2.0772 -0.1159
12 6 11 -2.7508 -0.0141
12 6 12 3.1586 0.1637
12 6 13 -3.1235 -0.1968
12 6 14 2.6601 0.0283
12 6 15 -1.9245 0.2723
12 6 16 1.1328 -0.5323
12 6 17 -0.4880 0.6328
12 6 18 0.1094 -0.5923
12 7 0 -3.1487 0.1258
12 7 1 3.2352 -0.1763
12 7 2 -2.9660 0.1509
12 7 3 2.3432 -0.0837
12 7 4 -1.4946 0.0051
12 7 5 0.6599 0.0793
12 7 6 -0.0962 -0.1452
12 7 7 -0.0385 0.1355
12 7 8 -0.2550 -0.0322
12 7 9 0.8442 -0.0776
12 7 10 -1.5407 0.0627
12 7 11 2.1610 0.0995
12 7 12 -2.5421 -0.2616
12 7 13 2.5425 0.2355
12 7 14 -2.0794 0.0166
12 7 15 1.2028 -0.3433
12 7 16 -0.1370 0.5553
12 7 17 -0.7877 -0.5865
12 8 0 0.8219 -0.1279
12 8 1 -1.0553 0.1489
12 8 2 1.1319 -0.1244
12 8 3 -0.9002 0.0780
12 8 4 0.4300 -0.0099
12 8 5 0.0500 -0.0741
12 8 6 -0.3328 0.1288
12 8 7 0.3547 -0.1056
12 8 8 -0.1867 0.0225
12 8 9 -0.0441 0.0393
12 8 10 0.2094 -0.0310
12 8 11 -0.1981 0.0026
12 8 12 -0.0559 -0.0410
12 8 13 0.5138 0.1483
12 8 14 -0.9952 -0.2245
12 8 15 1.2412 0.1892
12 8 16 -1.0773 -0.0893
12 9 0 1.1517 -0.1206
12 9 1 -1.9264 0.0506
12 9 2 2.6609 -0.0507
12 9 3 -3.2014 0.1018
12 9 4 3.3829 -0.1443
12 9 5 -3.1441 0.1073
12 9 6 2.5649 0.0270
12 9 7 -1.7932 -0.1751
12 9 8 0.9605 0.2050
12 9 9 -0.1774 -0.0751
12 9 10 -0.4136 -0.0891
12 9 11 0.6348 0.1028
12 9 12 -0.3734 0.0728
12 9 13 -0.2888 -0.2559
12 9 14 1.0476 0.2096
12 10 0 -0.2449 0.0537
12 10 1 0.8134 -0.0343
12 10 2 -1.1947 0.0157
12 10 3 1.2214 -0.0316
12 10 4 -0.9142 0.0753
12 10 5 0.4373 -0.0927
12 10 6 0.0758 0.0397
12 10 7 -0.6163 0.0604
12 10 8 1.2031 -0.1402
12 10 9 -1.7196 0.1657
12 10 10 1.9094 -0.1649
12 10 11 -1.5796 0.1655
12 10 12 0.8232 -0.1357
12 11 0 1.1837 0.2407
12 11 1 -1.2405 0.0070
12 11 2 0.8602 -0.1977
12 11 3 -0.0754 0.2376
12 11 4 -0.8230 -0.1315
12 11 5 1.4829 -0.0169
12 11 6 -1.7449 0.0744
12 11 7 1.7053 0.0120
12 11 8 -1.5483 -0.1491
12 11 9 1.3483 0.1640
12 12 0 -0.9206 -0.3329
12 12 1 0.4958 0.1893
12 12 2 -0.0050 0.0077
12 12 3 -0.3509 -0.1373
12 12 4 0.4695 0.1081
13 -6 0 -0.3345 0.1411
13 -6 1 0.3815 0.0530
13 -6 2 -0.3785 -0.1696
13 -6 3 0.3593 0.2053
13 -6 4 -0.3315 -0.2330
13 -6 5 0.2519 0.2758
13 -6 6 -0.0835 -0.2728
13 -6 7 -0.1262 0.1545
13 -5 0 0.2059 0.2018
13 -5 1 -0.0209 -0.2757
13 -5 2 -0.0046 0.1323
13 -5 3 -0.1748 0.0874
13 -5 4 0.4272 -0.2204
13 -5 5 -0.5384 0.2118
13 -5 6 0.3971 -0.1178
13 -5 7 -0.0988 0.0296
13 -5 8 -0.1331 -0.0080
13 -5 9 0.1336 0.0669
13 -5 10 0.0819 -0.1803
13 -4 0 0.6548 -0.1942
13 -4 1 -0.7264 0.2283
13 -4 2 0.8776 -0.1509
13 -4 3 -1.0413 0.0739
13 -4 4 1.1359 -0.0541
13 -4 5 -1.0929 0.0820
13 -4 6 0.8885 -0.1225
13 -4 7 -0.5838 0.1415
13 -4 8 0.3283 -0.1069
13 -4 9 -0.2795 -0.0001
13 -4 10 0.4796 0.1562
13 -4 11 -0.7985 -0.2936
13 -3 0 -0.1736 0.0039
13 -3 1 0.4605 0.0850
13 -3 2 -0.6206 -0.0885
13 -3 3 0.6804 0.0154
13 -3 4 -0.6734 0.0383
13 -3 5 0.5696 0.0040
13 -3 6 -0.3098 -0.1297
13 -3 7 -0.0822 0.2586
13 -3 8 0.4468 -0.3072
13 -3 9 -0.5770 0.2360
13 -3 10 0.3758 -0.0587
13 -2 0 0.3669 0.0282
13 -2 1 -0.3530 -0.1847
13 -2 2 0.0737 0.2549
13 -2 3 0.4040 -0.2038
13 -2 4 -0.8906 0.0599
13 -2 5 1.1829 0.1058
13 -2 6 -1.1604 -0.2111
13 -2 7 0.8394 0.2062
13 -2 8 -0.3835 -0.1103
13 -2 9 0.0508 0.0016
13 -2 11 0.4702 -0.0153
13 -2 12 -1.0889 -0.0302
13 -2 13 1.6218 0.0200
13 -2 14 -1.8285 0.0745
13 -1 0 -0.4858 0.1209
13 -1 1 0.2136 -0.1148
13 -1 2 0.2349 0.0785
13 -1 3 -0.7412 -0.0271
13 -1 4 1.1244 -0.0007
13 -1 5 -1.1822 -0.0088
13 -1 6 0.7708 0.0300
13 -1 7 0.0736 -0.0287
13 -1 8 -1.0708 -0.0062
13 -1 9 1.8013 0.0615
13 -1 10 -1.9531 -0.1178
13 -1 11 1.5204 0.1538
13 -1 12 -0.7800 -0.1389
13 -1 13 0.0734 0.0424
13 -1 14 0.4017 0.1324
13 -1 15 -0.6275 -0.3241
13 0 0 -0.8627 -0.0260
13 0 1 1.2356 0.0996
13 0 2 -1.3963 -0.0826
13 0 3 1.2884 0.0335
13 0 4 -0.9630 -0.0030
13 0 5 0.5056 0.0043
13 0 6 0.0045 -0.0297
13 0 7 -0.4672 0.0673
13 0 8 0.7490 -0.0945
13 0 9 -0.7577 0.0788
13 0 10 0.5433 -0.0082
13 0 11 -0.2976 -0.0777
13 0 12 0.2167 0.1048
13 0 13 -0.3489 -0.0292
13 0 14 0.5728 -0.1142
13 0 15 -0.7142 0.2349
13 0 16 0.6780 -0.2665
13 1 0 0.8689 0.0425
13 1 1 -0.9537 -0.0341
13 1 2 0.9352 0.0199
13 1 3 -0.7229 0.0104
13 1 4 0.2746 -0.0795
13 1 5 0.3371 0.1578
13 1 6 -0.8927 -0.1687
13 1 7 1.1126 0.0745
13 1 8 -0.8538 0.0622
13 1 9 0.2546 -0.1229
13 1 10 0.3389 0.0462
13 1 11 -0.6371 0.1128
13 1 12 0.6236 -0.2334
13 1 13 -0.5179 0.2343
13 1 14 0.5316 -0.1301
13 1 15 -0.6741 0.0029
13 1 16 0.7901 0.0681
13 2 0 0.2493 0.1109
13 2 1 -0.6278 -0.2158
13 2 2 0.9830 0.1770
13 2 3 -1.3039 -0.0694
13 2 4 1.6635 -0.0172
13 2 5 -2.0662 0.0630
13 2 6 2.3286 -0.0891
13 2 7 -2.1709 0.0925
13 2 8 1.4720 -0.0489
13 2 9 -0.4385 -0.0291
13 2 10 -0.5040 0.0760
13 2 11 1.0107 -0.0387
13 2 12 -1.0355 -0.0548
13 2 13 0.7892 0.1154
13 2 14 -0.5252 -0.0866
13 2 15 0.3718 0.0096
13 2 16 -0.3253 0.0107
13 3 0 0.1581 -0.1935
13 3 1 -0.1096 0.1408
13 3 2 0.0573 -0.0502
13 3 3 0.0345 0.0164
13 3 4 -0.1403 -0.0292
13 3 5 0.1462 0.0234
13 3 6 0.0621 0.0156
13 3 7 -0.4640 -0.0374
13 3 8 0.8704 0.0111
13 3 9 -1.0580 0.0176
13 3 10 0.9514 0.0237
13 3 11 -0.6647 -0.1400
13 3 12 0.3614 0.2486
13 3 13 -0.0928 -0.2493
13 3 14 -0.2038 0.0990
13 3 15 0.5597 0.1778
13 3 16 -0.8698 -0.5190
13 3 17 0.9643 0.8446
13 4 0 0.0241 -0.0984
13 4 1 -0.0589 0.2066
13 4 2 -0.1164 -0.1533
13 4 3 0.4366 0.0162
13 4 4 -0.9482 0.0587
13 4 5 1.7453 -0.0249
13 4 6 -2.7741 -0.0328
13 4 7 3.7223 0.0240
13 4 8 -4.1563 0.0349
13 4 9 3.8256 -0.0579
13 4 10 -2.8619 0.0100
13 4 11 1.6854 0.0489
13 4 12 -0.7092 -0.0418
13 4 13 0.1105 -0.0392
13 4 14 0.1644 0.1422
13 4 15 -0.2357 -0.2281
13 4 16 0.1698 0.3026
13 5 0 -0.5163 0.2105
13 5 1 0.6712 -0.2549
13 5 2 -0.7193 0.0903
13 5 3 0.6494 0.1221
13 5 4 -0.4692 -0.2143
13 5 5 0.2691 0.1539
13 5 6 -0.2277 -0.0231
13 5 7 0.5064 -0.0861
13 5 8 -1.1004 0.1228
13 5 9 1.7894 -0.0627
13 5 10 -2.2566 -0.0879
13 5 11 2.2918 0.2529
13 5 12 -1.9074 -0.2978
13 5 13 1.2852 0.1354
13 5 14 -0.6303 0.1727
13 5 15 0.0714 -0.4512
13 5 16 0.3353 0.5656
13 6 0 2.3482 -0.2028
13 6 1 -1.9470 0.1594
13 6 2 1.3326 -0.1360
13 6 3 -0.5020 0.1764
13 6 4 -0.3354 -0.2190
13 6 5 0.8178 0.1791
13 6 6 -0.6630 -0.0596
13 6 7 -0.1043 -0.0600
13 6 8 1.1241 0.1294
13 6 9 -1.9128 -0.1745
13 6 10 2.1573 0.2227
13 6 11 -1.8688 -0.2256
13 6 12 1.2986 0.1072
13 6 13 -0.7219 0.1146
13 6 14 0.2788 -0.3002
13 6 15 0.0256 0.3136
13 6 16 -0.2251 -0.1583
13 7 0 0.0821 -0.0076
13 7 1 -0.2406 0.1525
13 7 2 0.4650 -0.2203
13 7 3 -0.8076 0.1660
13 7 4 1.1531 -0.0629
13 7 5 -1.3127 0.0042
13 7 6 1.2011 -0.0258
13 7 7 -0.9358 0.1162
13 7 8 0.7753 -0.2398
13 7 9 -0.9436 0.3190
13 7 10 1.4716 -0.2401
13 7 11 -2.1582 -0.0489
13 7 12 2.6709 0.4228
13 7 13 -2.7198 -0.6143
13 7 14 2.2092 0.4265
13 7 15 -1.2924 0.0747
13 8 0 -2.3693 -0.2971
13 8 1 2.7935 0.0932
13 8 2 -2.9862 0.0841
13 8 3 2.7325 -0.1482
13 8 4 -2.0127 0.0797
13 8 5 1.0597 0.0753
13 8 6 -0.2236 -0.2035
13 8 7 -0.2381 0.1740
13 8 8 0.2732 0.0410
13 8 9 0.0069 -0.2935
13 8 10 -0.4418 0.3609
13 8 11 0.8936 -0.1650
13 8 12 -1.2458 -0.1223
13 8 13 1.3882 0.2260
13 8 14 -1.2434 -0.0298
13 9 0 -0.0727 -0.2005
13 9 1 -0.0924 0.3143
13 9 2 0.2445 -0.3728
13 9 3 -0.1185 0.3722
13 9 4 -0.3556 -0.2984
13 9 5 1.0075 0.1579
13 9 6 -1.5666 -0.0113
13 9 7 1.8274 -0.0638
13 9 8 -1.7222 0.0528
13 9 9 1.3154 -0.0144
13 9 10 -0.7794 -0.0058
13 9 11 0.3520 0.0443
13 9 12 -0.2395 -0.1597
13 9 13 0.4855 0.3107
13 10 0 0.1852 0.0358
13 10 1 -0.8728 -0.1169
13 10 2 1.6072 0.0305
13 10 3 -2.1855 0.1591
13 10 4 2.4241 -0.3200
13 10 5 -2.2877 0.3227
13 10 6 1.8974 -0.1355
13 10 7 -1.4038 -0.1202
13 10 8 0.8749 0.2413
13 10 9 -0.3209 -0.1260
13 10 10 -0.1938 -0.1026
13 10 11 0.5114 0.1923
13 10 12 -0.4866 -0.0163
13 11 0 -0.0764 -0.0548
13 11 1 0.4639 0.0778
13 11 2 -0.8225 -0.1196
13 11 3 0.9290 0.1203
13 11 4 -0.7117 -0.0644
13 11 5 0.2964 0.0044
14 -4 0 0.2040 -0.0741
14 -4 1 -0.0469 -0.0889
14 -4 2 -0.0730 0.0523
14 -4 3 0.0729 0.0813
14 -4 4 0.0111 -0.1370
14 -4 5 -0.0574 0.0279
14 -4 6 -0.0198 0.1868
14 -4 7 0.1817 -0.3612
14 -3 0 0.0577 -0.1721
14 -3 1 -0.0949 0.3351
14 -3 2 0.2378 -0.2960
14 -3 3 -0.4627 0.1354
14 -3 4 0.6973 0.0283
14 -3 5 -0.8383 -0.1010
14 -3 6 0.7982 0.0435
14 -3 7 -0.5800 0.1124
14 -3 8 0.3156 -0.2694
14 -3 9 -0.2014 0.3158
14 -2 0 -0.2250 0.3568
14 -2 1 0.4165 -0.2052
14 -2 2 -0.4530 0.0608
14 -2 3 0.3459 -0.0266
14 -2 4 -0.1577 0.0805
14 -2 5 -0.0749 -0.1311
14 -2 6 0.3554 0.1098
14 -2 7 -0.6620 -0.0246
14 -2 8 0.8943 -0.0470
14 -1 0 0.6271 -0.2451
14 -1 1 -0.6904 0.0683
14 -1 2 0.5066 0.1222
14 -1 3 -0.1261 -0.2159
14 -1 4 -0.2881 0.1522
14 -1 5 0.5355 0.0326
14 -1 6 -0.4683 -0.2153
14 -1 7 0.0726 0.2671
14 -1 11 -0.2969 -0.4361
14 -1 12 -0.5908 0.4844
14 0 0 -0.0103 -0.3046
14 0 1 -0.1302 0.2527
14 0 2 0.3229 -0.1490
14 0 3 -0.5291 0.0331
14 0 4 0.6940 0.0722
14 0 5 -0.7261 -0.1394
14 0 6 0.5025 0.1482
14 0 7 0.0439 -0.1134
14 0 8 -0.8086 0.0793
14 0 10 -1.8423 0.0789
14 0 11 1.6944 -0.0592
14 0 12 -1.2069 0.0169
14 0 13 0.6472 -0.0093
14 1 0 -0.8503 -0.1102
14 1 1 1.2161 0.1949
14 1 2 -1.3506 -0.1652
14 1 3 1.2128 0.0639
14 1 4 -0.8674 0.0496
14 1 5 0.4251 -0.1276
14 1 6 0.0065 0.1318
14 1 7 -0.3241 -0.0496
14 1 8 0.4325 -0.0681
14 1 9 -0.3016 0.1149
14 1 10 0.0323 -0.0107
14 1 11 0.1666 -0.2113
14 1 12 -0.1156 0.4108
14 1 13 -0.1940 -0.4514
14 1 14 0.5878 0.3155
14 2 0 0.2029 0.1060
14 2 1 -0.3092 -0.0417
14 2 2 0.4237 -0.0146
14 2 3 -0.4879 0.0533
14 2 4 0.4027 -0.1150
14 2 5 -0.1025 0.1889
14 2 6 -0.3346 -0.1879
14 2 7 0.6758 0.0452
14 2 8 -0.6852 0.1841
14 2 9 0.3271 -0.3489
14 2 10 0.1840 0.3330
14 2 11 -0.5572 -0.1547
14 2 12 0.6657 -0.0574
14 2 13 -0.6191 0.1713
14 2 14 0.6089 -0.1343
14 3 0 -0.8270 -0.1187
14 3 1 0.3057 -0.1382
14 3 2 0.2528 0.2461
14 3 3 -0.7488 -0.2167
14 3 4 1.2089 0.1298
14 3 5 -1.6795 -0.0387
14 3 6 2.0829 -0.0286
14 3 7 -2.2067 0.0294
14 3 8 1.8659 0.0704
14 3 9 -1.0863 -0.2263
14 3 10 0.1273 0.3126
14 3 11 0.6825 -0.2269
14 3 12 -1.1436 -0.0024
14 3 13 1.2564 0.2269
14 3 14 -1.1450 -0.3017
14 4 0 -0.2810 -0.3895
14 4 1 0.1734 0.2894
14 4 2 -0.0478 -0.0893
14 4 3 -0.0469 -0.0492
14 4 4 0.1237 0.0718
14 4 5 -0.2888 -0.0285
14 4 6 0.6500 -0.0291
14 4 7 -1.1738 0.0932
14 4 8 1.6466 -0.1516
14 4 9 -1.8100 0.1508
14 4 10 1.5615 -0.0479
14 4 11 -1.0311 -0.1150
14 4 12 0.4602 0.2247
14 4 13 -0.0076 -0.1942
14 4 14 -0.3254 0.0296
14 5 0 -0.5151 -0.0032
14 5 1 0.1661 0.2033
14 5 2 -0.0228 -0.2314
14 5 3 0.0241 0.1042
14 5 4 -0.1679 0.0306
14 5 5 0.5295 -0.0681
14 5 6 -1.1417 0.0344
14 5 7 1.8641 -0.0088
14 5 8 -2.4002 0.0144
14 5 9 2.4786 -0.0198
14 5 10 -2.0491 0.0191
14 5 11 1.3185 -0.0552
14 5 12 -0.5992 0.1485
14 5 13 0.1088 -0.2450
14 5 14 0.1191 0.2685
14 6 0 -0.7181 -0.2950
14 6 1 0.9710 0.0502
14 6 2 -1.1393 -0.0005
14 6 3 1.0853 0.1072
14 6 4 -0.7654 -0.2223
14 6 5 0.3174 0.2364
14 6 6 -0.0166 -0.1336
14 6 7 0.1067 -0.0328
14 6 8 -0.6230 0.1630
14 6 9 1.3468 -0.1371
14 6 10 -1.9303 -0.1026
14 6 11 2.1010 0.4489
14 6 12 -1.8014 -0.6474
14 6 13 1.1844 0.4858
14 7 0 1.6910 -0.2475
14 7 1 -1.5204 0.2471
14 7 2 1.1912 -0.2213
14 7 3 -0.6156 0.2197
14 7 4 -0.1230 -0.2252
14 7 5 0.7471 0.1905
14 7 6 -0.9465 -0.1163
14 7 7 0.6040 0.0442
14 7 8 0.1008 0.0218
14 7 9 -0.7909 -0.1311
14 7 10 1.1233 0.2920
14 7 11 -0.9874 -0.3973
14 7 12 0.5405 0.3077
14 7 13 -0.0753 -0.0215
14 8 0 0.2628 0.2550
14 8 1 -0.4557 -0.2076
14 8 2 0.7929 0.0906
14 8 3 -1.2470 -0.0211
14 8 4 1.6579 0.0212
14 8 5 -1.8265 -0.0448
14 8 6 1.6482 0.0317
14 8 7 -1.1832 0.0687
14 8 8 0.6302 -0.2652
14 8 9 -0.2365 0.4671
14 8 10 0.1832 -0.4888
14 8 11 -0.4866 0.1936
14 9 0 -1.1667 -0.5852
14 9 1 1.5341 0.2334
14 9 2 -1.9161 0.1885
14 9 3 2.0126 -0.4839
14 9 4 -1.6490 0.5220
14 9 5 0.9308 -0.3026
14 9 6 -0.1711 -0.0161
14 9 7 -0.3284 0.1919
14 9 8 0.4451 -0.0804
14 9 9 -0.2457 -0.2212
14 9 10 -0.1073 0.4422
14 10 2 -0.1210 -0.2946
14 10 3 0.2244 0.2546
14 10 4 -0.5787 -0.2125
15 -1 1 0.3900 -0.7756
15 -1 2 -0.3630 0.3676
15 -1 3 0.1887 -0.0420
15 -1 4 0.0458 -0.0773
15 -1 5 -0.2585 0.0172
15 0 0 0.5497 -0.2311
15 0 1 -0.5976 0.2000
15 0 2 0.4656 -0.0753
15 0 3 -0.1892 -0.0518
15 0 4 -0.1146 0.0758
15 0 5 0.2934 0.0340
15 0 6 -0.2170 -0.1993
15 1 0 0.2590 -0.5054
15 1 1 -0.3080 0.4767
15 1 2 0.3286 -0.3359
15 1 3 -0.2956 0.1481
15 1 4 0.2271 0.0200
15 1 5 -0.1591 -0.0981
15 1 6 0.0882 0.0543
15 1 7 0.0378 0.0613
15 1 8 -0.2539 -0.1445
15 1 10 -0.7060 -0.0345
15 2 0 -0.7403 0.0042
15 2 1 1.2723 0.1366
15 2 2 -1.5681 -0.1835
15 2 3 1.5604 0.1381
15 2 4 -1.2933 -0.0290
15 2 5 0.8676 -0.0895
15 2 6 -0.3908 0.1260
15 2 7 -0.0324 -0.0041
15 2 8 0.3006 -0.2426
15 2 9 -0.3548 0.4487
15 3 0 0.3771 0.5089
15 3 1 -0.3606 -0.2003
15 3 2 0.2920 -0.0555
15 3 3 -0.1780 0.1729
15 3 4 -0.0014 -0.1992
15 3 5 0.2873 0.1951
15 3 6 -0.6665 -0.1468
15 3 7 1.0090 0.0119
15 3 8 -1.1185 0.1854
15 3 9 0.8807 -0.3472
15 3 10 -0.3724 0.3906
15 3 11 -0.1816 -0.3206
15 4 0 -0.6128 -0.1762
15 4 1 0.3792 0.0123
15 4 2 -0.0737 0.0727
15 4 3 -0.1682 -0.0617
15 4 4 0.3294 0.0035
15 4 5 -0.4832 0.0652
15 4 6 0.6815 -0.1146
15 4 7 -0.8742 0.0874
15 4 8 0.9368 0.0639
15 4 9 -0.7759 -0.2910
15 4 10 0.4103 0.4435
15 5 0 -0.2053 -0.2987
15 5 1 0.2105 0.3008
15 5 2 -0.2037 -0.1311
15 5 3 0.2155 -0.0328
15 5 4 -0.2367 0.0823
15 5 5 0.1703 -0.0203
15 5 6 0.1109 -0.1085
15 5 7 -0.6313 0.2634
15 5 8 1.2338 -0.3840
15 5 9 -1.6487 0.3858
15 5 10 1.6710 -0.2350
15 6 0 -0.9142 0.2639
15 6 1 0.5901 0.0708
15 6 2 -0.3513 -0.2607
15 6 3 0.2064 0.2350
15 6 4 -0.1347 -0.0903
15 6 5 0.1381 -0.0409
15 6 6 -0.2369 0.1026
15 6 7 0.4194 -0.1008
15 6 8 -0.6056 0.0439
15 6 9 0.6765 0.0510
15 7 1 1.1158 0.4494
15 7 2 -1.4690 -0.2676
15 7 3 1.6503 0.1747
15 7 4 -1.4863 -0.1490
15 7 5 0.9963 0.1296
15 7 6 -0.4092 -0.0631
15 7 7 0.0213 -0.0698
15 7 8 -0.0065 0.2099
0 0 0 0.0 0.0
;
_shelx_fab_checksum              14591
_olex2_submission_special_instructions 'No special instructions were received'
loop_
_space_group_symop_operation_xyz
'x, y, z'
'-x, -y, -z'
loop_
_atom_site_label
_atom_site_type_symbol
_atom_site_fract_x
_atom_site_fract_y
_atom_site_fract_z
_atom_site_U_iso_or_equiv
_atom_site_adp_type
_atom_site_occupancy
_atom_site_site_symmetry_order
_atom_site_calc_flag
_atom_site_refinement_flags_posn
_atom_site_refinement_flags_adp
_atom_site_refinement_flags_occupancy
_atom_site_disorder_assembly
_atom_site_disorder_group
Ir1 Ir 0.25573(2) 0.17181(2) 0.23070(2) 0.02364(5) Uani 1 1 d . . . . .
Ru1 Ru 0.12985(2) 0.40620(2) 0.16910(2) 0.02048(6) Uani 1 1 d . . . . .
Co1 Co 0.01712(4) 0.66287(3) 0.25598(2) 0.02779(11) Uani 1 1 d . . . . .
Cl1 Cl 0.03201(5) 0.33581(5) 0.10681(3) 0.02745(14) Uani 1 1 d . . . . .
Cl2 Cl 0.26423(5) 0.40717(5) 0.07849(3) 0.02710(14) Uani 1 1 d . . . . .
P1 P -0.03737(6) 0.52513(5) 0.28527(4) 0.02594(15) Uani 1 1 d . . . . .
P2 P 0.00604(6) 0.64122(5) 0.15465(4) 0.02632(15) Uani 1 1 d . . . . .
P3 P 0.18053(6) 0.59144(5) 0.23813(4) 0.02650(15) Uani 1 1 d . . . . .
O1 O -0.01267(18) 0.49387(16) 0.35867(11) 0.0331(5) Uani 1 1 d . . . . .
O2 O -0.16360(17) 0.53766(17) 0.29774(11) 0.0345(5) Uani 1 1 d . . . . .
O3 O -0.11616(17) 0.65431(16) 0.15025(11) 0.0313(4) Uani 1 1 d . . . . .
O4 O 0.04242(17) 0.72903(15) 0.10679(11) 0.0324(5) Uani 1 1 d . . . . .
O5 O 0.24429(17) 0.65371(15) 0.18239(11) 0.0318(5) Uani 1 1 d . . . . .
O6 O 0.24219(19) 0.59765(17) 0.29870(11) 0.0354(5) Uani 1 1 d . . . . .
O7 O -0.00076(16) 0.43668(15) 0.24181(10) 0.0282(4) Uani 1 1 d . . . . .
O8 O 0.06562(17) 0.54512(15) 0.12601(10) 0.0282(4) Uani 1 1 d . . . . .
O9 O 0.20591(16) 0.48321(15) 0.22182(10) 0.0280(4) Uani 1 1 d . . . . .
N1 N 0.18162(17) 0.30118(16) 0.20489(11) 0.0208(4) Uani 1 1 d . . . . .
N2 N 0.1694(2) 0.16256(19) 0.32370(13) 0.0300(5) Uani 1 1 d . . . . .
N3 N 0.1491(2) 0.11272(18) 0.19222(13) 0.0303(5) Uani 1 1 d . . . . .
N4 N 0.34594(18) 0.17538(17) 0.13919(12) 0.0245(5) Uani 1 1 d . . . . .
N5 N 0.3622(2) 0.2301(2) 0.26960(13) 0.0310(5) Uani 1 1 d . . . . .
C1 C -0.1134(3) 0.7514(3) 0.3070(2) 0.0532(11) Uani 1 1 d . . . . .
H1 H -0.1814 0.7345 0.3187 0.064 Uiso 1 1 calc R . . . .
C2 C -0.0771(4) 0.8010(3) 0.2505(2) 0.0518(10) Uani 1 1 d . . . . .
H2 H -0.1171 0.8252 0.2161 0.062 Uiso 1 1 calc R . . . .
C3 C 0.0234(4) 0.8112(3) 0.2500(3) 0.0660(15) Uani 1 1 d . . . . .
H3 H 0.0655 0.8424 0.2152 0.079 Uiso 1 1 calc R . . . .
C4 C 0.0551(4) 0.7687(4) 0.3084(4) 0.084(2) Uani 1 1 d . . . . .
H4 H 0.1220 0.7664 0.3212 0.101 Uiso 1 1 calc R . . . .
C5 C -0.0301(6) 0.7294(3) 0.3457(2) 0.0782(19) Uani 1 1 d . . . . .
H5 H -0.0316 0.6952 0.3879 0.094 Uiso 1 1 calc R . . . .
C11 C -0.0307(3) 0.3974(3) 0.38706(17) 0.0410(8) Uani 1 1 d . . . . .
H11A H 0.0334 0.3471 0.3748 0.049 Uiso 1 1 calc R . . . .
H11B H -0.0897 0.3788 0.3694 0.049 Uiso 1 1 calc R . . . .
C12 C -0.0566(4) 0.4016(3) 0.46114(19) 0.0499(9) Uani 1 1 d . . . . .
H12A H -0.1196 0.4520 0.4729 0.075 Uiso 1 1 calc GR . . . .
H12B H 0.0029 0.4182 0.4783 0.075 Uiso 1 1 calc GR . . . .
H12C H -0.0702 0.3373 0.4806 0.075 Uiso 1 1 calc GR . . . .
C13 C -0.2188(3) 0.4929(3) 0.25537(18) 0.0381(7) Uani 1 1 d . . . . .
H13A H -0.2140 0.4218 0.2678 0.046 Uiso 1 1 calc R . . . .
H13B H -0.1856 0.5000 0.2084 0.046 Uiso 1 1 calc R . . . .
C14 C -0.3310(3) 0.5424(3) 0.2636(2) 0.0542(10) Uani 1 1 d . . . . .
H14A H -0.3689 0.5113 0.2363 0.081 Uiso 1 1 calc GR . . . .
H14B H -0.3353 0.6122 0.2495 0.081 Uiso 1 1 calc GR . . . .
H14C H -0.3630 0.5364 0.3103 0.081 Uiso 1 1 calc GR . . . .
C15 C -0.1468(3) 0.6410(2) 0.08611(16) 0.0351(7) Uani 1 1 d . . . . .
H15A H -0.1294 0.5705 0.0758 0.042 Uiso 1 1 calc R . . . .
H15B H -0.1085 0.6789 0.0501 0.042 Uiso 1 1 calc R . . . .
C16 C -0.2640(3) 0.6775(3) 0.09174(19) 0.0405(7) Uani 1 1 d . . . . .
H16A H -0.2864 0.6724 0.0490 0.061 Uiso 1 1 calc GR . . . .
H16B H -0.2807 0.7464 0.1038 0.061 Uiso 1 1 calc GR . . . .
H16C H -0.3013 0.6374 0.1260 0.061 Uiso 1 1 calc GR . . . .
C17 C 0.1205(2) 0.7114(2) 0.04642(15) 0.0317(6) Uani 1 1 d . . . . .
H17A H 0.0871 0.6943 0.0101 0.038 Uiso 1 1 calc R . . . .
H17B H 0.1781 0.6563 0.0547 0.038 Uiso 1 1 calc R . . . .
C18 C 0.1632(3) 0.8046(2) 0.02781(17) 0.0392(7) Uani 1 1 d . . . . .
H18A H 0.2183 0.7946 -0.0113 0.059 Uiso 1 1 calc GR . . . .
H18B H 0.1931 0.8223 0.0649 0.059 Uiso 1 1 calc GR . . . .
H18C H 0.1061 0.8577 0.0176 0.059 Uiso 1 1 calc GR . . . .
C19 C 0.3575(3) 0.6160(3) 0.16278(19) 0.0405(8) Uani 1 1 d . . . . .
H19A H 0.3694 0.5443 0.1565 0.049 Uiso 1 1 calc R . . . .
H19B H 0.3968 0.6269 0.1979 0.049 Uiso 1 1 calc R . . . .
C20 C 0.3957(3) 0.6692(4) 0.09915(19) 0.0510(9) Uani 1 1 d . . . . .
H20A H 0.3606 0.6537 0.0637 0.076 Uiso 1 1 calc GR . . . .
H20B H 0.4722 0.6484 0.0872 0.076 Uiso 1 1 calc GR . . . .
H20C H 0.3791 0.7404 0.1049 0.076 Uiso 1 1 calc GR . . . .
C21 C 0.2434(3) 0.5264(3) 0.35366(18) 0.0439(8) Uani 1 1 d . . . . .
H21A H 0.2631 0.4588 0.3374 0.053 Uiso 1 1 calc R . . . .
H21B H 0.1727 0.5332 0.3813 0.053 Uiso 1 1 calc R . . . .
C22 C 0.3223(4) 0.5450(4) 0.3933(3) 0.0691(13) Uani 1 1 d . . . . .
H22A H 0.3921 0.5371 0.3656 0.104 Uiso 1 1 calc GR . . . .
H22B H 0.3245 0.4978 0.4317 0.104 Uiso 1 1 calc GR . . . .
H22C H 0.3024 0.6122 0.4087 0.104 Uiso 1 1 calc GR . . . .
C31 C 0.1974(3) 0.1818(3) 0.38249(16) 0.0345(7) Uani 1 1 d . . . . .
C32 C 0.1156(3) 0.1633(3) 0.43624(17) 0.0394(8) Uani 1 1 d . . . . .
H32 H 0.1156 0.1696 0.4821 0.047 Uiso 1 1 calc R . . . .
C33 C 0.0394(3) 0.1357(3) 0.40976(17) 0.0372(7) Uani 1 1 d . . . . .
H33 H -0.0250 0.1202 0.4335 0.045 Uiso 1 1 calc R . . . .
C34 C 0.0723(2) 0.1337(2) 0.33926(17) 0.0328(7) Uani 1 1 d . . . . .
C35 C 0.0172(2) 0.1046(2) 0.29352(17) 0.0322(7) Uani 1 1 d . . . . .
C36 C 0.0543(2) 0.0931(2) 0.22597(17) 0.0332(7) Uani 1 1 d . . . . .
C37 C 0.0025(3) 0.0533(2) 0.18145(18) 0.0385(8) Uani 1 1 d . . . . .
H37 H -0.0645 0.0338 0.1920 0.046 Uiso 1 1 calc R . . . .
C38 C 0.0654(3) 0.0482(2) 0.12169(18) 0.0369(7) Uani 1 1 d . . . . .
H38 H 0.0516 0.0234 0.0828 0.044 Uiso 1 1 calc R . . . .
C39 C 0.1574(2) 0.0875(2) 0.12796(16) 0.0295(6) Uani 1 1 d . . . . .
C40 C 0.2396(2) 0.0996(2) 0.07639(15) 0.0267(6) Uani 1 1 d . . . . .
C41 C 0.3266(2) 0.1419(2) 0.08198(15) 0.0254(6) Uani 1 1 d . . . . .
C42 C 0.4070(2) 0.1627(2) 0.02790(15) 0.0257(6) Uani 1 1 d . . . . .
H42 H 0.4127 0.1469 -0.0170 0.031 Uiso 1 1 calc R . . . .
C43 C 0.4727(2) 0.2088(2) 0.05261(14) 0.0249(6) Uani 1 1 d . . . . .
H43 H 0.5332 0.2309 0.0283 0.030 Uiso 1 1 calc R . . . .
C44 C 0.4344(2) 0.2183(2) 0.12289(14) 0.0249(6) Uani 1 1 d . . . . .
C45 C 0.4794(2) 0.2641(2) 0.16566(15) 0.0267(6) Uani 1 1 d . . . . .
C46 C 0.4455(2) 0.2689(2) 0.23402(15) 0.0292(6) Uani 1 1 d . . . . .
C47 C 0.4942(2) 0.3121(3) 0.27917(16) 0.0352(7) Uani 1 1 d . . . . .
H47 H 0.5515 0.3465 0.2677 0.042 Uiso 1 1 calc R . . . .
C48 C 0.4433(3) 0.2948(3) 0.34131(16) 0.0376(7) Uani 1 1 d . . . . .
H48 H 0.4597 0.3131 0.3815 0.045 Uiso 1 1 calc R . . . .
C49 C 0.3607(2) 0.2441(3) 0.33527(16) 0.0344(7) Uani 1 1 d . . . . .
C50 C 0.2864(3) 0.2179(3) 0.38847(16) 0.0368(7) Uani 1 1 d . . . . .
C51 C 0.3076(3) 0.2331(3) 0.45642(16) 0.0414(8) Uani 1 1 d . . . . .
C52 C 0.3835(3) 0.1655(4) 0.48439(18) 0.0523(10) Uani 1 1 d . . . . .
H52 H 0.4186 0.1082 0.4617 0.063 Uiso 1 1 calc R . . . .
C53 C 0.4079(3) 0.1820(4) 0.5459(2) 0.0610(12) Uani 1 1 d . . . . .
H53 H 0.4597 0.1359 0.5650 0.073 Uiso 1 1 calc R . . . .
C54 C 0.3569(3) 0.2654(4) 0.57910(18) 0.0603(12) Uani 1 1 d . . . . .
H54 H 0.3744 0.2768 0.6206 0.072 Uiso 1 1 calc R . . . .
C55 C 0.2807(4) 0.3319(4) 0.5521(2) 0.0607(11) Uani 1 1 d . . . . .
H55 H 0.2459 0.3892 0.5748 0.073 Uiso 1 1 calc R . . . .
C56 C 0.2549(3) 0.3147(4) 0.49135(19) 0.0521(10) Uani 1 1 d . . . . .
H56 H 0.2007 0.3595 0.4736 0.063 Uiso 1 1 calc R . . . .
C61 C -0.0903(3) 0.0815(2) 0.31979(17) 0.0359(7) Uani 1 1 d . . . . .
C62 C -0.1036(3) -0.0006(3) 0.36193(18) 0.0389(7) Uani 1 1 d . . . . .
H62 H -0.0435 -0.0431 0.3749 0.047 Uiso 1 1 calc R . . . .
C63 C -0.2037(3) -0.0213(3) 0.3853(2) 0.0502(9) Uani 1 1 d . . . . .
H63 H -0.2118 -0.0778 0.4139 0.060 Uiso 1 1 calc R . . . .
C64 C -0.2908(3) 0.0404(4) 0.3670(3) 0.0657(13) Uani 1 1 d . . . . .
H64 H -0.3593 0.0272 0.3839 0.079 Uiso 1 1 calc R . . . .
C65 C -0.2795(3) 0.1206(4) 0.3246(3) 0.0673(13) Uani 1 1 d . . . . .
H65 H -0.3400 0.1617 0.3112 0.081 Uiso 1 1 calc R . . . .
C66 C -0.1792(3) 0.1423(3) 0.3010(2) 0.0505(9) Uani 1 1 d . . . . .
H66 H -0.1718 0.1986 0.2721 0.061 Uiso 1 1 calc R . . . .
C71 C 0.2340(2) 0.0667(2) 0.00946(15) 0.0267(6) Uani 1 1 d . . . . .
C72 C 0.3149(2) -0.0031(2) -0.02246(16) 0.0291(6) Uani 1 1 d . . . . .
H72 H 0.3733 -0.0313 -0.0010 0.035 Uiso 1 1 calc R . . . .
C73 C 0.3107(3) -0.0316(2) -0.08511(17) 0.0335(7) Uani 1 1 d . . . . .
H73 H 0.3666 -0.0783 -0.1067 0.040 Uiso 1 1 calc R . . . .
C74 C 0.2251(3) 0.0079(2) -0.11642(18) 0.0368(7) Uani 1 1 d . . . . .
H74 H 0.2219 -0.0122 -0.1592 0.044 Uiso 1 1 calc R . . . .
C75 C 0.1443(3) 0.0767(2) -0.08512(18) 0.0349(7) Uani 1 1 d . . . . .
H75 H 0.0852 0.1033 -0.1064 0.042 Uiso 1 1 calc R . . . .
C76 C 0.1490(2) 0.1070(2) -0.02312(16) 0.0302(6) Uani 1 1 d . . . . .
H76 H 0.0939 0.1556 -0.0026 0.036 Uiso 1 1 calc R . . . .
C81 C 0.5721(2) 0.3115(2) 0.13709(15) 0.0301(6) Uani 1 1 d . . . . .
C82 C 0.6715(2) 0.2743(3) 0.15544(16) 0.0348(7) Uani 1 1 d . . . . .
H82 H 0.6807 0.2178 0.1849 0.042 Uiso 1 1 calc R . . . .
C83 C 0.7561(3) 0.3206(3) 0.1304(2) 0.0459(9) Uani 1 1 d . . . . .
H83 H 0.8233 0.2959 0.1429 0.055 Uiso 1 1 calc R . . . .
C84 C 0.7427(3) 0.4028(3) 0.0871(2) 0.0495(10) Uani 1 1 d . . . . .
H84 H 0.8009 0.4343 0.0702 0.059 Uiso 1 1 calc R . . . .
C85 C 0.6458(3) 0.4391(3) 0.06834(18) 0.0462(9) Uani 1 1 d . . . . .
H85 H 0.6375 0.4953 0.0385 0.055 Uiso 1 1 calc R . . . .
C86 C 0.5595(3) 0.3931(3) 0.09322(16) 0.0359(7) Uani 1 1 d . . . . .
H86 H 0.4927 0.4178 0.0801 0.043 Uiso 1 1 calc R . . . .
C91 C 0.3349(4) 0.0276(4) 0.2510(3) 0.0719(12) Uani 1 1 d D U . . .
H91 H 0.3507 0.0375 0.2958 0.086 Uiso 0.5 1 calc R . P A 1
H91A H 0.2739 0.0012 0.2777 0.086 Uiso 0.5 1 calc R . P B 2
C92 C 0.4450(6) -0.0117(6) 0.2184(4) 0.0526(17) Uani 0.5 1 d D U P C 1
H92 H 0.4590 0.0173 0.1721 0.063 Uiso 0.5 1 calc R . P C 1
C92A C 0.4145(8) -0.0143(7) 0.2921(6) 0.086(3) Uani 0.5 1 d D U P C 2
H92A H 0.3951 0.0028 0.3398 0.103 Uiso 0.5 1 calc R . P C 2
C93 C 0.4975(12) 0.0347(9) 0.2646(7) 0.080(3) Uani 0.5 1 d D U P C 1
H93A H 0.4480 0.0686 0.3014 0.097 Uiso 0.5 1 calc R . P C 1
H93B H 0.5469 0.0772 0.2417 0.097 Uiso 0.5 1 calc R . P C 1
C93A C 0.5230(8) 0.0068(9) 0.2583(7) 0.067(3) Uani 0.5 1 d D U P C 2
H93C H 0.5235 0.0164 0.2097 0.080 Uiso 0.5 1 calc R . P C 2
H93D H 0.5345 0.0687 0.2745 0.080 Uiso 0.5 1 calc R . P C 2
C94 C 0.5521(17) -0.0722(9) 0.2840(11) 0.131(8) Uani 0.5 1 d D U P C 1
H94A H 0.6282 -0.0724 0.2686 0.157 Uiso 0.5 1 calc R . P C 1
H94B H 0.5430 -0.0739 0.3331 0.157 Uiso 0.5 1 calc R . P C 1
C94A C 0.6119(9) -0.0752(9) 0.2715(9) 0.097(3) Uani 0.5 1 d D U P C 2
H94C H 0.6816 -0.0645 0.2475 0.116 Uiso 0.5 1 calc R . P C 2
H94D H 0.6145 -0.0898 0.3194 0.116 Uiso 0.5 1 calc R . P C 2
C95 C 0.5380(11) -0.1724(9) 0.2692(7) 0.089(3) Uani 0.5 1 d D U P C 1
H95A H 0.5024 -0.2080 0.3077 0.107 Uiso 0.5 1 calc R . P C 1
H95B H 0.6039 -0.2142 0.2484 0.107 Uiso 0.5 1 calc R . P C 1
C95A C 0.5682(9) -0.1492(9) 0.2411(6) 0.081(3) Uani 0.5 1 d D U P C 2
H95C H 0.6030 -0.2178 0.2505 0.097 Uiso 0.5 1 calc R . P C 2
H95D H 0.5691 -0.1362 0.1927 0.097 Uiso 0.5 1 calc R . P C 2
C96 C 0.4638(6) -0.1243(5) 0.2188(4) 0.0480(16) Uani 0.5 1 d D U P C 1
H96 H 0.4875 -0.1500 0.1734 0.058 Uiso 0.5 1 calc R . P C 1
C96A C 0.4571(7) -0.1229(7) 0.2817(6) 0.077(2) Uani 0.5 1 d D U P C 2
H96A H 0.4489 -0.1640 0.3241 0.092 Uiso 0.5 1 calc R . P C 2
C97 C 0.3506(7) -0.1552(8) 0.2556(6) 0.068(3) Uani 0.5 1 d D U P C 1
H97A H 0.3226 -0.1931 0.2260 0.082 Uiso 0.5 1 calc R . P C 1
H97B H 0.3596 -0.1951 0.2973 0.082 Uiso 0.5 1 calc R . P C 1
C97A C 0.3946(14) -0.1500(9) 0.2318(7) 0.092(3) Uani 0.5 1 d D U P C 2
H97C H 0.4385 -0.1979 0.2003 0.111 Uiso 0.5 1 calc R . P C 2
H97D H 0.3314 -0.1761 0.2539 0.111 Uiso 0.5 1 calc R . P C 2
C98 C 0.2770(8) -0.0562(6) 0.2699(10) 0.127(7) Uani 0.5 1 d D U P C 1
H98A H 0.2177 -0.0487 0.2445 0.153 Uiso 0.5 1 calc R . P C 1
H98B H 0.2472 -0.0550 0.3177 0.153 Uiso 0.5 1 calc R . P C 1
C98A C 0.3657(8) -0.0488(6) 0.1982(5) 0.067(2) Uani 0.5 1 d D U P C 2
H98C H 0.3060 -0.0476 0.1741 0.080 Uiso 0.5 1 calc R . P C 2
H98D H 0.4266 -0.0336 0.1657 0.080 Uiso 0.5 1 calc R . P C 2
loop_
_atom_site_aniso_label
_atom_site_aniso_U_11
_atom_site_aniso_U_22
_atom_site_aniso_U_33
_atom_site_aniso_U_23
_atom_site_aniso_U_13
_atom_site_aniso_U_12
Ir1 0.02326(7) 0.02212(7) 0.02320(7) 0.00295(5) 0.00240(5) -0.00551(5)
Ru1 0.02203(10) 0.01931(10) 0.01932(10) -0.00069(7) 0.00076(8) -0.00555(8)
Co1 0.0349(3) 0.0219(2) 0.0246(2) -0.00409(18) 0.00301(19) -0.00590(19)
Cl1 0.0252(3) 0.0289(3) 0.0301(3) -0.0059(3) -0.0069(3) -0.0056(2)
Cl2 0.0285(3) 0.0254(3) 0.0231(3) 0.0019(2) 0.0065(2) -0.0051(2)
P1 0.0278(3) 0.0247(3) 0.0231(3) -0.0029(3) 0.0042(3) -0.0060(3)
P2 0.0314(4) 0.0210(3) 0.0237(3) -0.0001(3) 0.0014(3) -0.0031(3)
P3 0.0332(4) 0.0239(3) 0.0233(3) -0.0027(3) 0.0002(3) -0.0109(3)
O1 0.0440(12) 0.0294(11) 0.0260(11) -0.0002(8) -0.0011(9) -0.0111(9)
O2 0.0290(11) 0.0366(12) 0.0350(12) -0.0072(9) 0.0050(9) -0.0059(9)
O3 0.0353(11) 0.0303(11) 0.0269(11) -0.0005(8) -0.0018(9) -0.0056(9)
O4 0.0396(11) 0.0230(10) 0.0288(11) -0.0005(8) 0.0084(9) -0.0038(8)
O5 0.0354(11) 0.0297(11) 0.0306(11) -0.0015(9) 0.0031(9) -0.0143(9)
O6 0.0464(13) 0.0348(12) 0.0291(11) -0.0030(9) -0.0087(10) -0.0142(10)
O7 0.0282(10) 0.0257(10) 0.0281(10) -0.0032(8) 0.0062(8) -0.0077(8)
O8 0.0362(11) 0.0229(10) 0.0230(10) 0.0002(8) -0.0027(8) -0.0018(8)
O9 0.0307(10) 0.0243(10) 0.0293(11) -0.0013(8) -0.0032(8) -0.0070(8)
N1 0.0213(10) 0.0219(11) 0.0199(11) -0.0015(9) 0.0009(9) -0.0095(9)
N2 0.0306(12) 0.0279(13) 0.0295(13) 0.0066(10) 0.0008(10) -0.0085(10)
N3 0.0348(13) 0.0241(12) 0.0305(13) -0.0054(10) 0.0076(11) -0.0115(10)
N4 0.0225(11) 0.0218(11) 0.0274(12) -0.0008(9) 0.0014(9) -0.0045(9)
N5 0.0252(12) 0.0435(15) 0.0213(12) 0.0029(10) 0.0019(10) -0.0060(11)
C1 0.056(2) 0.0349(19) 0.060(3) -0.0236(18) 0.025(2) -0.0088(16)
C2 0.079(3) 0.0265(17) 0.041(2) -0.0091(14) -0.0033(19) 0.0111(17)
C3 0.083(3) 0.0287(19) 0.077(3) -0.020(2) 0.034(3) -0.020(2)
C4 0.062(3) 0.058(3) 0.141(6) -0.068(4) -0.032(3) 0.008(2)
C5 0.167(6) 0.0285(19) 0.0259(19) -0.0109(15) -0.015(3) 0.018(3)
C11 0.059(2) 0.0321(17) 0.0314(17) 0.0017(13) 0.0006(15) -0.0145(15)
C12 0.069(2) 0.046(2) 0.0326(19) 0.0034(15) 0.0022(17) -0.0168(18)
C13 0.0350(16) 0.0418(18) 0.0389(18) 0.0001(14) -0.0026(14) -0.0145(14)
C14 0.0380(19) 0.066(3) 0.057(2) -0.004(2) -0.0052(17) -0.0073(18)
C15 0.0450(18) 0.0324(16) 0.0298(16) -0.0009(12) -0.0055(14) -0.0125(13)
C16 0.0415(18) 0.0425(19) 0.0407(19) 0.0016(15) -0.0131(15) -0.0111(15)
C17 0.0367(16) 0.0301(15) 0.0249(15) -0.0036(12) 0.0071(12) -0.0073(12)
C18 0.0492(19) 0.0304(16) 0.0344(17) 0.0003(13) 0.0059(14) -0.0104(14)
C19 0.0343(16) 0.0410(18) 0.044(2) 0.0036(15) 0.0046(14) -0.0123(14)
C20 0.0383(18) 0.078(3) 0.037(2) 0.0051(18) 0.0033(15) -0.0231(18)
C21 0.054(2) 0.049(2) 0.0320(17) 0.0045(15) -0.0094(16) -0.0178(17)
C22 0.091(3) 0.076(3) 0.054(3) 0.008(2) -0.037(3) -0.032(3)
C31 0.0356(16) 0.0420(18) 0.0226(15) 0.0062(12) 0.0015(12) -0.0078(13)
C32 0.0363(17) 0.050(2) 0.0283(16) 0.0072(14) 0.0055(13) -0.0124(15)
C33 0.0355(16) 0.0400(18) 0.0327(17) 0.0044(13) 0.0074(13) -0.0130(14)
C34 0.0307(15) 0.0283(15) 0.0348(17) 0.0039(12) 0.0080(13) -0.0084(12)
C35 0.0322(15) 0.0235(14) 0.0381(17) -0.0009(12) 0.0071(13) -0.0099(12)
C36 0.0334(15) 0.0246(14) 0.0403(18) -0.0041(12) 0.0083(13) -0.0137(12)
C37 0.0388(17) 0.0335(16) 0.0445(19) -0.0080(14) 0.0101(14) -0.0216(14)
C38 0.0402(17) 0.0313(16) 0.0417(18) -0.0102(13) 0.0059(14) -0.0204(13)
C39 0.0330(15) 0.0215(14) 0.0334(16) -0.0045(11) 0.0040(12) -0.0108(11)
C40 0.0279(14) 0.0191(13) 0.0311(15) -0.0023(11) 0.0013(12) -0.0043(11)
C41 0.0260(13) 0.0212(13) 0.0271(14) -0.0005(11) -0.0004(11) -0.0031(11)
C42 0.0242(13) 0.0260(14) 0.0245(14) -0.0007(11) 0.0009(11) -0.0032(11)
C43 0.0207(12) 0.0278(14) 0.0239(14) 0.0008(11) 0.0016(10) -0.0043(11)
C44 0.0226(13) 0.0275(14) 0.0230(14) 0.0016(11) 0.0019(11) -0.0067(11)
C45 0.0213(13) 0.0304(15) 0.0266(15) 0.0024(11) 0.0008(11) -0.0060(11)
C46 0.0224(13) 0.0407(17) 0.0237(14) 0.0015(12) -0.0012(11) -0.0075(12)
C47 0.0263(14) 0.052(2) 0.0276(16) -0.0030(14) 0.0007(12) -0.0128(13)
C48 0.0319(16) 0.059(2) 0.0234(15) -0.0027(14) -0.0033(12) -0.0127(15)
C49 0.0288(15) 0.051(2) 0.0222(15) 0.0064(13) -0.0022(12) -0.0086(14)
C50 0.0304(15) 0.054(2) 0.0232(15) 0.0065(14) 0.0002(12) -0.0075(14)
C51 0.0349(17) 0.068(2) 0.0213(15) 0.0096(15) -0.0007(13) -0.0177(16)
C52 0.044(2) 0.086(3) 0.0262(17) 0.0088(18) -0.0044(15) -0.0159(19)
C53 0.049(2) 0.105(4) 0.031(2) 0.020(2) -0.0102(17) -0.026(2)
C54 0.055(2) 0.113(4) 0.0205(17) 0.003(2) -0.0009(16) -0.041(3)
C55 0.064(3) 0.091(3) 0.0298(19) -0.005(2) 0.0030(18) -0.029(2)
C56 0.051(2) 0.074(3) 0.0286(18) 0.0005(17) 0.0012(16) -0.0129(19)
C61 0.0335(16) 0.0340(16) 0.0382(17) -0.0056(13) 0.0098(13) -0.0134(13)
C62 0.0370(17) 0.0340(17) 0.0426(19) -0.0030(14) 0.0095(14) -0.0122(13)
C63 0.043(2) 0.051(2) 0.054(2) 0.0066(18) 0.0115(17) -0.0215(17)
C64 0.038(2) 0.079(3) 0.074(3) 0.014(2) 0.012(2) -0.023(2)
C65 0.036(2) 0.082(3) 0.074(3) 0.017(3) 0.002(2) -0.006(2)
C66 0.0422(19) 0.046(2) 0.054(2) 0.0123(17) 0.0090(17) -0.0073(16)
C71 0.0305(14) 0.0190(13) 0.0308(15) -0.0005(11) 0.0007(12) -0.0103(11)
C72 0.0284(14) 0.0243(14) 0.0349(16) -0.0036(12) -0.0042(12) -0.0053(11)
C73 0.0335(15) 0.0306(16) 0.0357(17) -0.0082(13) -0.0047(13) -0.0019(12)
C74 0.0422(17) 0.0330(16) 0.0378(18) -0.0068(13) -0.0111(14) -0.0069(14)
C75 0.0326(15) 0.0321(16) 0.0429(18) 0.0009(13) -0.0129(14) -0.0082(13)
C76 0.0267(14) 0.0235(14) 0.0400(17) -0.0023(12) -0.0024(12) -0.0060(11)
C81 0.0271(14) 0.0421(17) 0.0222(14) -0.0066(12) 0.0046(11) -0.0146(13)
C82 0.0276(15) 0.0478(19) 0.0305(16) -0.0135(14) 0.0025(12) -0.0121(13)
C83 0.0306(16) 0.062(2) 0.048(2) -0.0272(19) 0.0074(15) -0.0181(16)
C84 0.0396(19) 0.063(2) 0.050(2) -0.0319(19) 0.0225(16) -0.0337(17)
C85 0.060(2) 0.044(2) 0.0361(18) -0.0117(15) 0.0176(16) -0.0298(17)
C86 0.0386(17) 0.0412(18) 0.0285(16) -0.0059(13) 0.0058(13) -0.0171(14)
C91 0.069(2) 0.053(2) 0.077(3) 0.0095(19) 0.002(2) 0.0133(17)
C92 0.049(3) 0.060(4) 0.045(4) 0.000(3) 0.001(3) -0.010(3)
C92A 0.094(5) 0.068(5) 0.086(5) 0.006(4) -0.021(4) 0.009(4)
C93 0.103(6) 0.076(5) 0.063(6) 0.000(4) -0.006(5) -0.027(4)
C93A 0.057(3) 0.069(4) 0.065(5) -0.001(3) -0.008(3) 0.009(3)
C94 0.176(15) 0.086(7) 0.156(15) -0.008(6) -0.102(15) -0.021(6)
C94A 0.084(4) 0.099(5) 0.098(5) 0.003(4) -0.017(3) 0.004(3)
C95 0.084(4) 0.087(4) 0.094(5) 0.006(3) -0.017(4) -0.011(3)
C95A 0.084(4) 0.068(4) 0.076(4) 0.011(3) -0.004(3) 0.005(3)
C96 0.044(3) 0.050(3) 0.042(4) -0.013(3) -0.005(3) 0.015(3)
C96A 0.074(4) 0.063(4) 0.082(6) 0.010(3) -0.016(4) 0.014(3)
C97 0.061(4) 0.069(4) 0.069(6) -0.015(4) 0.004(4) -0.005(3)
C97A 0.103(6) 0.067(5) 0.096(8) 0.004(4) -0.017(6) 0.009(4)
C98 0.063(4) 0.025(4) 0.264(19) 0.000(5) 0.054(7) -0.007(3)
C98A 0.067(5) 0.045(4) 0.070(4) 0.004(3) 0.000(4) 0.019(4)
loop_
_atom_type_symbol
_atom_type_description
_atom_type_scat_dispersion_real
_atom_type_scat_dispersion_imag
_atom_type_scat_source
C C 0.0181 0.0091 'International Tables Vol C Tables 4.2.6.8 and 6.1.1.4'
H H 0.0000 0.0000 'International Tables Vol C Tables 4.2.6.8 and 6.1.1.4'
Cl Cl 0.3639 0.7018 'International Tables Vol C Tables 4.2.6.8 and 6.1.1.4'
Co Co -2.3653 3.6143 'International Tables Vol C Tables 4.2.6.8 and 6.1.1.4'
Ir Ir -4.7710 6.5667 'International Tables Vol C Tables 4.2.6.8 and 6.1.1.4'
N N 0.0311 0.0180 'International Tables Vol C Tables 4.2.6.8 and 6.1.1.4'
O O 0.0492 0.0322 'International Tables Vol C Tables 4.2.6.8 and 6.1.1.4'
P P 0.2955 0.4335 'International Tables Vol C Tables 4.2.6.8 and 6.1.1.4'
Ru Ru 0.0552 3.2960 'International Tables Vol C Tables 4.2.6.8 and 6.1.1.4'
loop_
_geom_angle_atom_site_label_1
_geom_angle_atom_site_label_2
_geom_angle_atom_site_label_3
_geom_angle
N1 Ir1 N2 96.31(10)
N1 Ir1 N3 87.81(10)
N1 Ir1 N4 86.21(9)
N1 Ir1 N5 92.50(10)
N1 Ir1 C91 175.23(17)
N2 Ir1 C91 86.96(16)
N3 Ir1 N2 90.38(11)
N3 Ir1 C91 88.70(18)
N4 Ir1 N2 177.47(9)
N4 Ir1 N3 89.99(10)
N4 Ir1 C91 90.54(16)
N5 Ir1 N2 89.36(10)
N5 Ir1 N3 179.62(10)
N5 Ir1 N4 90.25(10)
N5 Ir1 C91 91.01(18)
Cl2 Ru1 Cl1 90.68(3)
O7 Ru1 Cl1 90.23(6)
O7 Ru1 Cl2 167.34(6)
O7 Ru1 O8 83.73(8)
O8 Ru1 Cl1 87.05(6)
O8 Ru1 Cl2 83.70(6)
O9 Ru1 Cl1 173.63(6)
O9 Ru1 Cl2 90.29(6)
O9 Ru1 O7 87.46(8)
O9 Ru1 O8 86.79(8)
N1 Ru1 Cl1 95.47(8)
N1 Ru1 Cl2 96.76(8)
N1 Ru1 O7 95.72(10)
N1 Ru1 O8 177.43(10)
N1 Ru1 O9 90.67(9)
P2 Co1 P1 89.08(3)
P2 Co1 P3 89.14(3)
P3 Co1 P1 92.85(3)
C1 Co1 P1 95.65(11)
C1 Co1 P2 114.79(14)
C1 Co1 P3 154.64(14)
C2 Co1 P1 126.15(14)
C2 Co1 P2 90.28(11)
C2 Co1 P3 140.98(14)
C2 Co1 C1 38.23(17)
C3 Co1 P1 160.62(12)
C3 Co1 P2 100.45(17)
C3 Co1 P3 104.04(15)
C3 Co1 C1 65.05(17)
C3 Co1 C2 38.0(2)
C3 Co1 C4 39.1(2)
C3 Co1 C5 66.16(19)
C4 Co1 P1 133.2(2)
C4 Co1 P2 137.6(2)
C4 Co1 P3 90.47(14)
C4 Co1 C1 66.46(19)
C4 Co1 C2 64.8(2)
C5 Co1 P1 98.31(16)
C5 Co1 P2 154.41(16)
C5 Co1 P3 114.74(19)
C5 Co1 C1 40.3(2)
C5 Co1 C2 65.56(16)
C5 Co1 C4 40.0(2)
O1 P1 Co1 107.30(9)
O1 P1 O2 100.73(12)
O2 P1 Co1 112.85(9)
O7 P1 Co1 120.79(9)
O7 P1 O1 109.45(12)
O7 P1 O2 103.90(12)
O3 P2 Co1 106.92(9)
O3 P2 O4 103.05(12)
O4 P2 Co1 110.65(9)
O8 P2 Co1 116.81(9)
O8 P2 O3 110.56(12)
O8 P2 O4 107.99(12)
O5 P3 Co1 109.35(9)
O5 P3 O6 99.46(12)
O6 P3 Co1 113.29(9)
O9 P3 Co1 118.35(9)
O9 P3 O5 109.74(12)
O9 P3 O6 104.96(12)
C11 O1 P1 118.1(2)
C13 O2 P1 121.6(2)
C15 O3 P2 118.5(2)
C17 O4 P2 122.10(18)
C19 O5 P3 117.4(2)
C21 O6 P3 122.4(2)
P1 O7 Ru1 129.70(12)
P2 O8 Ru1 133.57(12)
P3 O9 Ru1 129.62(12)
Ru1 N1 Ir1 169.49(14)
C31 N2 Ir1 126.8(2)
C31 N2 C34 107.0(3)
C34 N2 Ir1 126.1(2)
C36 N3 Ir1 126.1(2)
C39 N3 Ir1 126.5(2)
C39 N3 C36 107.5(3)
C41 N4 Ir1 126.74(19)
C41 N4 C44 107.6(2)
C44 N4 Ir1 125.5(2)
C46 N5 Ir1 126.0(2)
C49 N5 Ir1 126.7(2)
C49 N5 C46 107.1(3)
C2 C1 Co1 70.9(2)
C2 C1 C5 107.1(4)
C5 C1 Co1 69.6(2)
C1 C2 Co1 70.9(2)
C3 C2 Co1 70.7(2)
C3 C2 C1 110.6(4)
C2 C3 Co1 71.3(2)
C2 C3 C4 108.6(4)
C4 C3 Co1 70.5(3)
C3 C4 Co1 70.4(3)
C3 C4 C5 107.6(4)
C5 C4 Co1 70.0(2)
C1 C5 Co1 70.1(2)
C4 C5 Co1 70.0(3)
C4 C5 C1 106.1(4)
O1 C11 C12 108.9(3)
O2 C13 C14 109.2(3)
O3 C15 C16 107.6(3)
O4 C17 C18 107.1(2)
O5 C19 C20 108.6(3)
O6 C21 C22 107.4(3)
N2 C31 C32 108.7(3)
N2 C31 C50 125.5(3)
C50 C31 C32 125.7(3)
C33 C32 C31 107.6(3)
C32 C33 C34 107.8(3)
N2 C34 C33 108.7(3)
N2 C34 C35 125.3(3)
C35 C34 C33 126.0(3)
C34 C35 C61 117.1(3)
C36 C35 C34 125.8(3)
C36 C35 C61 117.0(3)
N3 C36 C35 125.9(3)
N3 C36 C37 108.8(3)
C35 C36 C37 125.2(3)
C38 C37 C36 107.9(3)
C37 C38 C39 107.2(3)
N3 C39 C38 108.6(3)
N3 C39 C40 126.1(3)
C40 C39 C38 125.2(3)
C39 C40 C41 125.1(3)
C39 C40 C71 117.9(3)
C41 C40 C71 117.0(3)
N4 C41 C40 125.5(3)
N4 C41 C42 108.8(2)
C40 C41 C42 125.6(3)
C43 C42 C41 107.6(3)
C42 C43 C44 107.7(2)
N4 C44 C43 108.3(2)
N4 C44 C45 126.6(3)
C45 C44 C43 125.2(3)
C44 C45 C46 125.0(3)
C44 C45 C81 118.2(3)
C46 C45 C81 116.9(3)
N5 C46 C45 125.8(3)
N5 C46 C47 108.7(3)
C45 C46 C47 125.5(3)
C48 C47 C46 107.3(3)
C47 C48 C49 107.4(3)
N5 C49 C48 109.4(3)
N5 C49 C50 125.9(3)
C50 C49 C48 124.6(3)
C31 C50 C49 125.2(3)
C31 C50 C51 119.3(3)
C49 C50 C51 115.5(3)
C52 C51 C50 119.6(4)
C56 C51 C50 121.3(3)
C56 C51 C52 119.1(4)
C51 C52 C53 119.9(4)
C54 C53 C52 120.1(4)
C55 C54 C53 120.2(4)
C54 C55 C56 119.8(5)
C51 C56 C55 120.8(4)
C62 C61 C35 121.6(3)
C66 C61 C35 119.8(3)
C66 C61 C62 118.6(3)
C63 C62 C61 120.8(4)
C64 C63 C62 119.8(4)
C65 C64 C63 120.4(4)
C64 C65 C66 120.2(4)
C61 C66 C65 120.1(4)
C72 C71 C40 120.8(3)
C76 C71 C40 120.6(3)
C76 C71 C72 118.6(3)
C73 C72 C71 120.6(3)
C74 C73 C72 120.2(3)
C75 C74 C73 119.7(3)
C74 C75 C76 120.5(3)
C75 C76 C71 120.4(3)
C82 C81 C45 120.1(3)
C86 C81 C45 120.0(3)
C86 C81 C82 119.9(3)
C83 C82 C81 119.7(4)
C82 C83 C84 120.1(4)
C85 C84 C83 120.6(3)
C84 C85 C86 120.0(4)
C81 C86 C85 119.7(3)
C92 C91 Ir1 122.9(4)
C92A C91 Ir1 134.1(6)
C92A C91 C98A 97.5(7)
C98 C91 Ir1 121.9(5)
C98 C91 C92 109.0(6)
C98A C91 Ir1 121.8(4)
C91 C92 C93 95.0(8)
C91 C92 C96 110.4(6)
C93 C92 C96 118.0(8)
C91 C92A C93A 109.8(9)
C91 C92A C96A 112.8(9)
C96A C92A C93A 88.1(9)
C92 C93 C94 87.0(9)
C94A C93A C92A 112.4(11)
C95 C94 C93 133.2(11)
C95A C94A C93A 92.8(10)
C94 C95 C96 89.7(8)
C94A C95A C96A 94.4(9)
C92 C96 C95 111.5(7)
C92 C96 C97 105.2(6)
C95 C96 C97 100.7(8)
C92A C96A C95A 116.7(9)
C92A C96A C97A 104.8(8)
C97A C96A C95A 98.2(11)
C98 C97 C96 104.2(7)
C98A C97A C96A 98.9(9)
C91 C98 C97 111.0(7)
C97A C98A C91 108.9(8)
loop_
_geom_bond_atom_site_label_1
_geom_bond_atom_site_label_2
_geom_bond_distance
Ir1 N1 1.944(2)
Ir1 N2 2.047(3)
Ir1 N3 2.040(3)
Ir1 N4 2.037(2)
Ir1 N5 2.036(3)
Ir1 C91 2.108(4)
Ru1 Cl1 2.3370(7)
Ru1 Cl2 2.3262(6)
Ru1 O7 2.0640(19)
Ru1 O8 2.131(2)
Ru1 O9 2.064(2)
Ru1 N1 1.652(2)
Co1 P1 2.1674(9)
Co1 P2 2.1525(9)
Co1 P3 2.1577(9)
Co1 C1 2.073(3)
Co1 C2 2.072(4)
Co1 C3 2.065(4)
Co1 C4 2.066(4)
Co1 C5 2.065(4)
P1 O1 1.599(2)
P1 O2 1.604(2)
P1 O7 1.525(2)
P2 O3 1.591(2)
P2 O4 1.592(2)
P2 O8 1.514(2)
P3 O5 1.591(2)
P3 O6 1.607(2)
P3 O9 1.523(2)
O1 C11 1.459(4)
O2 C13 1.461(4)
O3 C15 1.472(4)
O4 C17 1.466(3)
O5 C19 1.469(4)
O6 C21 1.435(4)
N2 C31 1.376(4)
N2 C34 1.381(4)
N3 C36 1.376(4)
N3 C39 1.369(4)
N4 C41 1.373(4)
N4 C44 1.381(4)
N5 C46 1.377(4)
N5 C49 1.370(4)
C1 C2 1.357(6)
C1 C5 1.427(7)
C2 C3 1.348(7)
C3 C4 1.382(9)
C4 C5 1.412(9)
C11 C12 1.499(5)
C13 C14 1.483(5)
C15 C16 1.506(5)
C17 C18 1.499(4)
C19 C20 1.500(5)
C21 C22 1.489(6)
C31 C32 1.440(4)
C31 C50 1.381(5)
C32 C33 1.342(5)
C33 C34 1.434(5)
C34 C35 1.402(5)
C35 C36 1.395(5)
C35 C61 1.502(4)
C36 C37 1.426(5)
C37 C38 1.350(5)
C38 C39 1.442(4)
C39 C40 1.395(4)
C40 C41 1.403(4)
C40 C71 1.495(4)
C41 C42 1.442(4)
C42 C43 1.347(4)
C43 C44 1.447(4)
C44 C45 1.388(4)
C45 C46 1.396(4)
C45 C81 1.497(4)
C46 C47 1.435(5)
C47 C48 1.356(5)
C48 C49 1.425(5)
C49 C50 1.402(4)
C50 C51 1.502(5)
C51 C52 1.393(6)
C51 C56 1.388(6)
C52 C53 1.398(6)
C53 C54 1.384(7)
C54 C55 1.378(7)
C55 C56 1.392(6)
C61 C62 1.390(5)
C61 C66 1.389(5)
C62 C63 1.389(5)
C63 C64 1.374(6)
C64 C65 1.368(7)
C65 C66 1.399(6)
C71 C72 1.397(4)
C71 C76 1.396(4)
C72 C73 1.385(4)
C73 C74 1.384(5)
C74 C75 1.383(5)
C75 C76 1.383(5)
C81 C82 1.406(5)
C81 C86 1.387(5)
C82 C83 1.386(5)
C83 C84 1.388(6)
C84 C85 1.377(6)
C85 C86 1.403(5)
C91 C92 1.497(8)
C91 C92A 1.457(10)
C91 C98 1.496(9)
C91 C98A 1.524(9)
C92 C93 1.506(12)
C92 C96 1.530(9)
C92A C93A 1.539(12)
C92A C96A 1.518(11)
C93 C94 1.567(11)
C93A C94A 1.504(12)
C94 C95 1.497(10)
C94A C95A 1.489(12)
C95 C96 1.560(11)
C95A C96A 1.537(11)
C96 C97 1.658(9)
C96A C97A 1.523(12)
C97 C98 1.533(9)
C97A C98A 1.519(11)
loop_
_smtbx_masks_void_nr
_smtbx_masks_void_average_x
_smtbx_masks_void_average_y
_smtbx_masks_void_average_z
_smtbx_masks_void_volume
_smtbx_masks_void_count_electrons
_smtbx_masks_void_content
1 -0.500 0.500 0.500 390.3 85.3 'a molecule of hexane'
