#------------------------------------------------------------------------------
#$Date: 2020-09-06 12:32:59 +0300 (Sun, 06 Sep 2020) $
#$Revision: 256064 $
#$URL: file:///home/coder/svn-repositories/cod/cif/7/70/48/7704857.cif $
#------------------------------------------------------------------------------
#
# This file is available in the Crystallography Open Database (COD),
# http://www.crystallography.net/
#
# All data on this site have been placed in the public domain by the
# contributors.
#
data_7704857
loop_
_publ_author_name
'Xia, Zhinan'
'Li, Fengyan'
'Xu, Lin'
'Feng, Pingyun'
_publ_section_title
;
 A stable and highly selective metalloporphyrin based framework for the
 catalytic oxidation of cyclohexene.
;
_journal_issue                   32
_journal_name_full
'Dalton transactions (Cambridge, England : 2003)'
_journal_page_first              11157
_journal_page_last               11162
_journal_paper_doi               10.1039/d0dt01420f
_journal_volume                  49
_journal_year                    2020
_chemical_formula_sum            'C50 H43 Mo2 N5 O16'
_chemical_formula_weight         1325.77
_space_group_crystal_system      orthorhombic
_space_group_IT_number           62
_space_group_name_Hall           '-P 2ac 2n'
_space_group_name_H-M_alt        'P n m a'
_atom_sites_solution_hydrogens   geom
_atom_sites_solution_primary     direct
_audit_creation_method           SHELXL-2014
_audit_update_record
;
2020-07-09 deposited with the CCDC.	2020-07-17 downloaded from the CCDC.
;
_cell_angle_alpha                90
_cell_angle_beta                 90
_cell_angle_gamma                90
_cell_formula_units_Z            4
_cell_length_a                   24.2727(9)
_cell_length_b                   35.9510(13)
_cell_length_c                   7.6427(3)
_cell_measurement_reflns_used    9864
_cell_measurement_temperature    296(2)
_cell_measurement_theta_max      25.124
_cell_measurement_theta_min      2.583
_cell_volume                     6669.2(4)
_computing_cell_refinement       'Bruker SMART'
_computing_data_collection       'Bruker SMART'
_computing_data_reduction        'Bruker SMART'
_computing_molecular_graphics    'DIAMOND (Brandenburg, 1999)'
_computing_publication_material  'SHELXL-2014 (Sheldrick, 2014)'
_computing_structure_refinement  'SHELXL-2014 (Sheldrick, 2014)'
_computing_structure_solution    'SHELXL-2014 (Sheldrick, 2014)'
_diffrn_ambient_temperature      296(2)
_diffrn_measured_fraction_theta_full 0.434
_diffrn_measured_fraction_theta_max 0.999
_diffrn_measurement_device_type  'Bruker SMART APEX CCD'
_diffrn_measurement_method       'phi and omega scans'
_diffrn_radiation_type           MoK\a
_diffrn_radiation_wavelength     0.71073
_diffrn_reflns_av_R_equivalents  0.0747
_diffrn_reflns_av_unetI/netI     0.0449
_diffrn_reflns_Laue_measured_fraction_full 0.434
_diffrn_reflns_Laue_measured_fraction_max 0.999
_diffrn_reflns_limit_h_max       22
_diffrn_reflns_limit_h_min       -22
_diffrn_reflns_limit_k_max       27
_diffrn_reflns_limit_k_min       -32
_diffrn_reflns_limit_l_max       6
_diffrn_reflns_limit_l_min       -5
_diffrn_reflns_number            18695
_diffrn_reflns_point_group_measured_fraction_full 0.434
_diffrn_reflns_point_group_measured_fraction_max 0.999
_diffrn_reflns_theta_full        25.242
_diffrn_reflns_theta_max         18.838
_diffrn_reflns_theta_min         1.771
_diffrn_source                   'fine-focus sealed tube'
_exptl_absorpt_coefficient_mu    0.433
_exptl_absorpt_correction_T_max  0.996
_exptl_absorpt_correction_T_min  0.990
_exptl_absorpt_correction_type   multi-scan
_exptl_absorpt_process_details
;
'SADABS 2014/5 (Bruker, 2014) was used for absorption correction. 
R(int) was 0.0870 before and 0.0747 after correction. 
The Ratio of minimum to maximum transmission is 0.9939. 
The \l/2 correction factor is not present.' 
;
_exptl_crystal_colour            dark-red
_exptl_crystal_density_diffrn    1.320
_exptl_crystal_description       block
_exptl_crystal_F_000             2360
_exptl_crystal_size_max          0.030
_exptl_crystal_size_mid          0.020
_exptl_crystal_size_min          0.010
_platon_squeeze_details
;
TITL test1 in Pnma
CELL   24.2727   35.9510    7.6427     90.00     90.00     90.00
SPGR Pnma
# Solvent Accessible Volume =      2405
# Electrons Found in S.A.V. =       586
# Note: Atoms in Void are Labelled as Cxxx and Qxxx for all Others
Q101 0.434 0.243 0.252 !       2.55 eA-3
C102 0.291 0.947 0.082 !       2.31 eA-3
Q103 0.930 0.203 0.232 !       2.31 eA-3
C104 0.294 0.936 0.139 !       2.25 eA-3
C105 0.842 0.921 0.517 !       2.02 eA-3
Q106 0.500 0.500 0.000 !       1.89 eA-3
C107 0.780 0.573 0.248 !       1.67 eA-3
C108 0.681 0.449 0.967 !       1.66 eA-3
Q109 0.005 0.248 0.375 !       1.60 eA-3
C110 0.282 0.984 0.066 !       1.56 eA-3
C111 0.249 0.461 0.686 !       1.42 eA-3
Q112 0.993 0.710 0.205 !       1.29 eA-3
Q113 0.954 0.736 0.058 !       1.27 eA-3
C114 0.176 0.485 0.409 !       1.22 eA-3
C115 0.765 0.458 0.656 !       1.19 eA-3
Q116 0.042 0.747 0.875 !       1.14 eA-3
Q117 0.469 0.253 0.719 !       1.14 eA-3
C118 0.486 0.211 0.166 !       1.14 eA-3
C119 0.641 0.461 0.073 !       1.09 eA-3
Q120 0.437 0.753 0.625 !       1.08 eA-3
C121 0.685 0.451 0.237 !       1.05 eA-3
Q122 0.006 0.768 0.986 !       1.01 eA-3
C123 0.803 0.475 0.702 !       0.98 eA-3
Q124 0.533 0.778 0.687 !       0.95 eA-3
Q125 0.275 0.928 0.969 !       0.95 eA-3
Q126 0.491 0.206 0.439 !       0.94 eA-3
C127 0.246 0.506 0.254 !       0.94 eA-3
Q128 0.813 0.583 0.617 !       0.93 eA-3
Q129 0.562 0.484 0.153 !       0.92 eA-3
Q130 0.391 0.964 0.053 !       0.88 eA-3
C131 0.736 0.995 0.108 !       0.87 eA-3
Q132 0.837 0.751 0.437 !       0.85 eA-3
Q133 0.040 0.732 0.438 !       0.84 eA-3
C134 0.764 0.055 0.947 !       0.82 eA-3
Q135 0.180 0.010 0.065 !       0.80 eA-3
C136 0.005 0.290 0.207 !       0.80 eA-3
C137 0.995 0.710 0.793 !       0.80 eA-3
Q138 0.326 0.601 0.380 !       0.79 eA-3
Q139 0.503 0.250 0.406 !       0.77 eA-3
Q140 0.969 0.305 0.560 !       0.76 eA-3
C141 0.813 0.991 0.738 !       0.76 eA-3
Q142 0.927 0.164 0.241 !       0.76 eA-3
C143 0.235 0.014 0.081 !       0.75 eA-3
Q144 0.438 0.269 0.728 !       0.74 eA-3
Q145 0.938 0.231 0.772 !       0.74 eA-3
Q146 0.319 0.034 0.005 !       0.74 eA-3
Q147 0.319 0.749 0.469 !       0.73 eA-3
Q148 0.078 0.725 0.303 !       0.73 eA-3
Q149 0.765 0.912 0.862 !       0.73 eA-3
Q150 0.703 0.419 0.215 !       0.70 eA-3
Q151 0.422 0.251 0.125 !       0.69 eA-3
Q152 0.795 0.496 0.278 !       0.68 eA-3
Q153 0.930 0.217 0.055 !       0.67 eA-3
Q154 0.196 0.713 0.483 !       0.67 eA-3
Q155 0.343 0.972 0.251 !       0.66 eA-3
C156 0.781 0.523 0.831 !       0.66 eA-3
Q157 0.600 0.426 0.112 !       0.65 eA-3
Q158 0.227 0.749 0.406 !       0.65 eA-3
Q159 0.148 0.969 0.373 !       0.65 eA-3
C160 0.781 0.554 0.892 !       0.65 eA-3
Q161 0.372 0.164 0.287 !       0.64 eA-3
Q162 0.500 0.782 0.165 !       0.63 eA-3
Q163 0.607 0.517 0.213 !       0.63 eA-3
Q164 0.194 0.936 0.151 !       0.63 eA-3
Q165 0.994 0.305 0.709 !       0.63 eA-3
Q166 0.590 0.728 0.039 !       0.63 eA-3
C167 0.984 0.781 0.860 !       0.62 eA-3
Q168 0.907 0.236 0.484 !       0.61 eA-3
Q169 0.860 0.495 0.535 !       0.61 eA-3
Q170 0.088 0.801 0.467 !       0.61 eA-3
C171 0.453 0.211 0.062 !       0.61 eA-3
Q172 0.054 0.805 0.340 !       0.60 eA-3
Q173 0.554 0.780 0.450 !       0.60 eA-3
Q174 0.889 0.253 0.000 !       0.60 eA-3
Q175 0.844 0.811 0.584 !       0.60 eA-3
C176 0.446 0.321 0.577 !       0.60 eA-3
Q177 0.827 0.571 0.148 !       0.59 eA-3
Q178 0.539 0.695 0.319 !       0.59 eA-3
Q179 0.017 0.229 0.561 !       0.59 eA-3
C180 0.816 0.589 0.898 !       0.59 eA-3
Q181 0.205 0.649 0.429 !       0.59 eA-3
C182 0.740 0.361 0.608 !       0.58 eA-3
Q183 0.351 0.017 0.932 !       0.58 eA-3
C184 0.849 0.892 0.407 !       0.58 eA-3
Q185 0.572 0.080-0.017 !       0.57 eA-3
Q186 0.063 0.433 0.463 !       0.57 eA-3
Q187 0.625 0.052 0.256 !       0.55 eA-3
Q188 0.036 0.287 0.331 !       0.55 eA-3
Q189 0.784 0.791 0.473 !       0.54 eA-3
C190 0.959 0.183 0.250 !       0.54 eA-3
Q191 0.124 0.750 0.250 !       0.53 eA-3
Q192 0.982 0.329 0.348 !       0.52 eA-3
Q193 0.444 0.961 0.047 !       0.52 eA-3
Q194 0.366 0.572 0.309 !       0.51 eA-3
Q195 0.204 0.893 0.385 !       0.51 eA-3
Q196 0.345 0.829 0.055 !       0.51 eA-3
Q197 0.947 0.795 0.033 !       0.50 eA-3
;
_refine_diff_density_max         1.656
_refine_diff_density_min         -0.818
_refine_diff_density_rms         0.122
_refine_ls_extinction_coef       0.0008(2)
_refine_ls_extinction_expression Fc^*^=kFc[1+0.001xFc^2^\l^3^/sin(2\q)]^-1/4^
_refine_ls_extinction_method     SHELXL
_refine_ls_goodness_of_fit_ref   1.014
_refine_ls_hydrogen_treatment    constr
_refine_ls_matrix_type           full
_refine_ls_number_parameters     321
_refine_ls_number_reflns         2664
_refine_ls_number_restraints     30
_refine_ls_restrained_S_all      1.012
_refine_ls_R_factor_all          0.0867
_refine_ls_R_factor_gt           0.0778
_refine_ls_shift/su_max          0.001
_refine_ls_shift/su_mean         0.000
_refine_ls_structure_factor_coef Fsqd
_refine_ls_weighting_details
'w=1/[\s^2^(Fo^2^)+(0.0828P)^2^+140.7050P] where P=(Fo^2^+2Fc^2^)/3'
_refine_ls_weighting_scheme      calc
_refine_ls_wR_factor_gt          0.1952
_refine_ls_wR_factor_ref         0.2016
_reflns_Friedel_coverage         0.000
_reflns_number_gt                2320
_reflns_number_total             2664
_reflns_threshold_expression     'I > 2\s(I)'
_cod_data_source_file            d0dt01420f2.cif
_cod_data_source_block           mo1_sq
_cod_depositor_comments          'Adding full bibliography for 7704857.cif.'
_cod_database_code               7704857
_shelx_space_group_comment
;
The symmetry employed for this shelxl refinement is uniquely defined
by the following loop, which should always be used as a source of
symmetry information in preference to the above space-group names.
They are only intended as comments.
;
_shelx_estimated_absorpt_t_min   0.987
_shelx_estimated_absorpt_t_max   0.996
_shelxl_version_number           2014-3
_shelx_res_file
;
TITL mo1_sq in Pnma
CELL  0.71073  24.2727  35.9510   7.6427   90.000   90.000   90.000
ZERR     4.00   0.0009   0.0013   0.0003    0.000    0.000    0.000
LATT   1
SYMM  1/2 - X, - Y, 1/2 + Z
SYMM  - X, 1/2 + Y, - Z
SYMM  1/2 + X, 1/2 - Y, 1/2 - Z
SFAC  C    H    N    O    MO
UNIT  200 172 20 64 8
MERG   2
ISOR C8 C20 C22 C6 C15 0.01
FMAP   2
PLAN   20
SIZE     0.010   0.020   0.030
ACTA
BOND
L.S. 10 0   82
TEMP    23.00
ABIN
WGHT    0.082800  140.704971
EXTI    0.000759
FVAR       0.07125
MO1   5    0.339077    0.714476    0.038291    11.00000    0.03371    0.02180 =
         0.02468   -0.00140   -0.00165   -0.00156
O1    4    0.284394    0.750000   -0.026758    10.50000    0.02660    0.04096 =
         0.04125    0.00000   -0.00121    0.00000
O2    4    0.397238    0.750000    0.007023    10.50000    0.01645    0.03230 =
         0.03143    0.00000   -0.00062    0.00000
O4    4    0.284424    0.672538   -0.039396    11.00000    0.03212    0.05046 =
         0.07088   -0.00925    0.00978   -0.01742
O5    4    0.398712    0.671704   -0.025059    11.00000    0.04683    0.03286 =
         0.02974    0.00030    0.00023    0.00621
O6    4    0.336454    0.706432    0.252072    11.00000    0.05005    0.03923 =
         0.03134   -0.00958   -0.01048   -0.00030
O7    4    0.213979    0.688461    0.133890    11.00000    0.06293    0.04956 =
         0.06207   -0.00365    0.00411   -0.01949
O3    4    0.360345    0.700718   -0.245010    11.00000    0.05491    0.01358 =
         0.03487   -0.00294   -0.00397    0.01856
C3    1    0.199513    0.639726   -0.066324    11.00000    0.03786    0.04701 =
         0.02758   -0.01301   -0.00356   -0.01010
C1    1    0.236986    0.669227    0.018143    11.00000    0.05111    0.03204 =
         0.03215   -0.00179   -0.01302    0.01244
C6    1    0.463048    0.590244   -0.375072    11.00000    0.04759    0.01591 =
         0.03870   -0.00774    0.00346    0.00730
AFIX  43
H6    2    0.482604    0.569754   -0.334324    11.00000   -1.20000
AFIX   0
C5    1    0.452746    0.594637   -0.552487    11.00000    0.04865    0.02320 =
         0.02744   -0.01636    0.00800   -0.00526
C4    1    0.150206    0.630362    0.008530    11.00000    0.06254    0.07910 =
         0.06408   -0.02888   -0.00781   -0.04333
AFIX  43
H4    2    0.139657    0.641367    0.113435    11.00000   -1.20000
AFIX   0
C7    1    0.415242    0.647500   -0.316855    11.00000    0.04341    0.01163 =
         0.04425    0.00504    0.00154   -0.00424
C10   1    0.116199    0.604831   -0.070183    11.00000    0.05109    0.08357 =
         0.05393   -0.01369    0.01314   -0.03030
AFIX  43
H10   2    0.083186    0.598328   -0.016531    11.00000   -1.20000
AFIX   0
C8    1    0.406554    0.651565   -0.493438    11.00000    0.05900    0.03978 =
         0.03146    0.00242   -0.00812    0.00086
AFIX  43
H8    2    0.386905    0.671987   -0.534482    11.00000   -1.20000
AFIX   0
C9    1    0.426511    0.625866   -0.609912    11.00000    0.06720    0.03218 =
         0.03640   -0.01012    0.01142    0.01335
AFIX  43
H9    2    0.422101    0.629784   -0.729374    11.00000   -1.20000
AFIX   0
C11   1    0.216087    0.622368   -0.211762    11.00000    0.02655    0.05232 =
         0.09645   -0.03268   -0.00015   -0.01489
AFIX  43
H11   2    0.251255    0.626999   -0.254862    11.00000   -1.20000
AFIX   0
N2    3    0.525986    0.551666   -0.943370    11.00000    0.04594    0.03354 =
         0.03554   -0.00784    0.00920   -0.00693
N1    3    0.451073    0.500961   -0.780911    11.00000    0.04648    0.02286 =
         0.04998   -0.00531    0.01851   -0.00002
AFIX  43
H1    2    0.473378    0.499808   -0.868173    11.00000   -1.20000
AFIX   0
C15   1    0.063796    0.572712   -0.462498    11.00000    0.04215    0.02798 =
         0.03306    0.00567    0.00274   -0.00274
C16   1    0.071300    0.608138   -0.545685    11.00000    0.07559    0.04750 =
         0.04582   -0.00268   -0.01503   -0.01881
AFIX  43
H16   2    0.095451    0.626641   -0.508965    11.00000   -1.20000
AFIX   0
C24   1    0.538058    0.610223   -0.815956    11.00000    0.06966    0.03163 =
         0.03892   -0.00805    0.00730   -0.00384
AFIX  43
H24   2    0.534226    0.630247   -0.739882    11.00000   -1.20000
AFIX   0
C25   1    0.443645    0.616970   -0.259701    11.00000    0.07576    0.03294 =
         0.02048   -0.00249   -0.00254   -0.00727
AFIX  43
H25   2    0.450101    0.614066   -0.140536    11.00000   -1.20000
AFIX   0
C14   1    0.091812    0.561079   -0.312447    11.00000    0.05992    0.03590 =
         0.03249    0.01281    0.00645   -0.00332
C18   1    0.470144    0.565515   -0.680369    11.00000    0.02921    0.02327 =
         0.04999    0.00872    0.01306   -0.00192
C12   1    0.181201    0.596916   -0.302578    11.00000    0.05134    0.06149 =
         0.08540   -0.02381    0.00616    0.00086
AFIX  43
H12   2    0.191906    0.586163   -0.407902    11.00000   -1.20000
AFIX   0
C17   1    0.085332    0.527237   -0.229350    11.00000    0.04604    0.05943 =
         0.02372    0.00463   -0.01582   -0.01460
C19   1    0.445365    0.531044   -0.668607    11.00000    0.05410    0.03194 =
         0.03941    0.00507    0.03113   -0.00409
C20   1    0.508766    0.574665   -0.807689    11.00000    0.04459    0.02398 =
         0.03759   -0.00056   -0.00022   -0.00059
C13   1    0.130170    0.588838   -0.226241    11.00000    0.04898    0.02179 =
         0.03700    0.00017   -0.01259   -0.01512
C22   1    0.402456    0.521516   -0.547536    11.00000    0.07216    0.05294 =
         0.05936   -0.02593    0.01387   -0.01030
AFIX  43
H22   2    0.388689    0.536881   -0.459949    11.00000   -1.20000
AFIX   0
C26   1    0.390759    0.675014   -0.192815    11.00000    0.05201    0.02782 =
         0.04080   -0.01907    0.01553   -0.00219
C27   1    0.114183    0.512599   -0.081075    11.00000    0.07495    0.04544 =
         0.04754    0.01286   -0.02246   -0.03252
AFIX  43
H27   2    0.140848    0.525364   -0.017597    11.00000   -1.20000
AFIX   0
O1W   4    0.189216    0.750000    0.086465    10.50000    0.00795
N3    3    0.276072    0.750000    0.552124    10.50000    0.08671
C29   1    0.245520    0.715498    0.554013    11.00000    0.11489
AFIX  33
H29A  2    0.270753    0.694938    0.552450    11.00000   -1.50000
H29B  2    0.223386    0.714318    0.657962    11.00000   -1.50000
H29C  2    0.222128    0.714319    0.452881    11.00000   -1.50000
AFIX   0
O2W   4    0.134511    0.750000   -0.162713    10.50000    0.15358
O3W   4    0.110038    0.750000    0.279616    10.50000    0.15820
O4W   4    0.520653    0.750000    0.293023    10.50000    0.24360
HKLF    4

REM  mo1_sq in Pnma
REM R1 =  0.0778 for    2320 Fo > 4sig(Fo)  and  0.0867 for all    2664 data
REM    321 parameters refined using     30 restraints

END

WGHT      0.0803     99.3959

REM Highest difference peak  1.656,  deepest hole -0.818,  1-sigma level  0.122
Q1    1   0.5000  0.5000 -1.0000  10.50000  0.05    1.66
Q2    1   0.4871  0.7201  0.3210  11.00000  0.05    1.17
Q3    1   0.4989  0.7139  0.3034  11.00000  0.05    1.14
Q4    1   0.0946  0.7500 -0.2144  10.50000  0.05    0.96
Q5    1   0.3402  0.7500  0.0186  10.50000  0.05    0.79
Q6    1   0.0748  0.7300  0.2532  11.00000  0.05    0.72
Q7    1   0.5399  0.7500  0.2697  10.50000  0.05    0.69
Q8    1   0.3419  0.6898 -0.0791  11.00000  0.05    0.58
Q9    1   0.1553  0.7425 -0.1744  11.00000  0.05    0.54
Q10   1   0.3840  0.7126  0.0157  11.00000  0.05    0.53
Q11   1   0.2839  0.7127  0.0329  11.00000  0.05    0.51
Q12   1   0.1377  0.7500  0.3156  10.50000  0.05    0.49
Q13   1   0.3420  0.6723  0.0512  11.00000  0.05    0.46
Q14   1   0.3205  0.7500  0.4752  10.50000  0.05    0.44
Q15   1   0.1988  0.7142  0.4840  11.00000  0.05    0.41
Q16   1   0.1989  0.6741  0.4899  11.00000  0.05    0.35
Q17   1   0.1164  0.7421 -0.0199  11.00000  0.05    0.35
Q18   1   0.1829  0.7309  0.0185  11.00000  0.05    0.35
Q19   1   0.2607  0.6812  0.4962  11.00000  0.05    0.33
Q20   1   0.4199  0.5096 -0.4863  11.00000  0.05    0.33
;
_shelx_res_checksum              98834
_shelx_fab_file
;
    1    0    1    -61.37      0.00
    2    0    2     -2.39      0.00
    3    0    3     19.09      0.00
    4    0    4     -8.87      0.00
    5    0    5     -5.70      0.00
    6    0    6      2.07      0.00
    1    1    1     16.21      0.00
    2    1    2    -27.97      0.00
    3    1    3     -0.56      0.00
    4    1    4      8.26      0.00
    5    1    5     -1.70      0.00
    6    1    6      4.12      0.00
    1    2    1    -56.86      0.00
    2    2    2     16.41      0.00
    3    2    3     -1.30      0.00
    4    2    4      3.29      0.00
    5    2    5     -1.26      0.00
    6    2    6     -5.02      0.00
    1    3    1     67.78      0.00
    2    3    2      0.42      0.00
    3    3    3     -0.26      0.00
    4    3    4     -4.64      0.00
    5    3    5      0.29      0.00
    6    3    6      3.75      0.00
    0    4    0    166.32      0.00
    1    4    1    -21.02      0.00
    2    4    2    -29.04      0.00
    3    4    3      7.03      0.00
    4    4    4     -0.13      0.00
    5    4    5     -0.43      0.00
    6    4    6      1.77      0.00
    1    5    1     70.43      0.00
    2    5    2    -28.19      0.00
    3    5    3      5.10      0.00
    4    5    4      9.27      0.00
    5    5    5      1.32      0.00
    6    5    6      0.89      0.00
    0    6    0    -63.61      0.00
    1    6    1      2.80      0.00
    2    6    2    -16.13      0.00
    3    6    3     -7.01      0.00
    4    6    4      5.45      0.00
    5    6    5     -1.76      0.00
    6    6    6      0.58      0.00
    1    7    1     49.39      0.00
    2    7    2    -15.49      0.00
    3    7    3      1.24      0.00
    4    7    4     -2.37      0.00
    5    7    5     -1.39      0.00
    6    7    6     -2.23      0.00
    0    8    0    -76.23      0.00
    1    8    1     11.24      0.00
    2    8    2    -14.82      0.00
    3    8    3     -0.54      0.00
    4    8    4      5.36      0.00
    5    8    5      4.60      0.00
    6    8    6     -2.59      0.00
    1    9    1      5.49      0.00
    2    9    2      1.56      0.00
    3    9    3      1.65      0.00
    4    9    4      2.98      0.00
    5    9    5      0.13      0.00
    6    9    6     -5.07      0.00
    0   10    0     -6.31      0.00
    1   10    1      6.82      0.00
    2   10    2     -3.78      0.00
    3   10    3     -0.30      0.00
    4   10    4     -2.66      0.00
    5   10    5      5.36      0.00
    6   10    6     -2.70      0.00
    1   11    1     -3.06      0.00
    2   11    2      4.39      0.00
    3   11    3     -9.02      0.00
    4   11    4     -0.93      0.00
    5   11    5     -2.91      0.00
    6   11    6     -0.23      0.00
    0   12    0     -7.76      0.00
    1   12    1     -0.73      0.00
    2   12    2     -5.57      0.00
    3   12    3     -1.44      0.00
    4   12    4      0.23      0.00
    5   12    5      7.24      0.00
    6   12    6      0.89      0.00
    1   13    1     -2.11      0.00
    2   13    2      0.68      0.00
    3   13    3     -8.01      0.00
    4   13    4      5.77      0.00
    5   13    5     -2.12      0.00
    6   13    6      2.33      0.00
    0   14    0      8.53      0.00
    1   14    1     -3.35      0.00
    2   14    2     -2.96      0.00
    3   14    3      1.78      0.00
    4   14    4     -5.13      0.00
    5   14    5      3.48      0.00
    1   15    1      3.48      0.00
    2   15    2     -0.32      0.00
    3   15    3     -3.42      0.00
    4   15    4      2.77      0.00
    5   15    5      0.54      0.00
    0   16    0     13.45      0.00
    1   16    1      1.60      0.00
    2   16    2     -8.58      0.00
    3   16    3     -1.95      0.00
    4   16    4     -2.80      0.00
    5   16    5      0.09      0.00
    1   17    1      5.96      0.00
    2   17    2     -8.20      0.00
    3   17    3      1.49      0.00
    4   17    4     -0.28      0.00
    5   17    5      0.84      0.00
    0   18    0    -11.23      0.00
    1   18    1     -1.04      0.00
    2   18    2      7.21      0.00
    3   18    3     -1.22      0.00
    4   18    4      0.45      0.00
    5   18    5      3.24      0.00
    1   19    1      2.37      0.00
    2   19    2      1.99      0.00
    3   19    3     -0.66      0.00
    4   19    4     -3.06      0.00
    5   19    5     -2.77      0.00
    0   20    0     -4.64      0.00
    1   20    1      5.85      0.00
    2   20    2     -2.06      0.00
    3   20    3     -2.55      0.00
    4   20    4     -3.47      0.00
    5   20    5     -0.99      0.00
    1   21    1     -2.03      0.00
    2   21    2      2.18      0.00
    3   21    3     -5.36      0.00
    4   21    4      0.80      0.00
    5   21    5     -7.83      0.00
    0   22    0    -15.51      0.00
    1   22    1      3.62      0.00
    2   22    2      2.24      0.00
    3   22    3     -4.39      0.00
    4   22    4      0.60      0.00
    1   23    1     -2.35      0.00
    2   23    2      4.97      0.00
    3   23    3     -5.67      0.00
    4   23    4     -1.47      0.00
    0   24    0     -5.84      0.00
    1   24    1     -4.36      0.00
    2   24    2     -4.22      0.00
    3   24    3     -3.95      0.00
    4   24    4     -4.84      0.00
    1   25    1      0.44      0.00
    2   25    2      0.95      0.00
    3   25    3     -1.63      0.00
    4   25    4      0.15      0.00
    0   26    0      0.13      0.00
    1   26    1      2.09      0.00
    2   26    2      3.55      0.00
    3   26    3      0.23      0.00
    4   26    4      2.13      0.00
    1   27    1     -1.18      0.00
    2   27    2     -4.83      0.00
    3   27    3     -4.59      0.00
    0   28    0     -2.65      0.00
    1   28    1     -0.89      0.00
    2   28    2      2.97      0.00
    3   28    3      1.02      0.00
    1   29    1     -0.05      0.00
    2   29    2      2.14      0.00
    3   29    3      8.54      0.00
    0   30    0     -1.04      0.00
    1   30    1      3.06      0.00
    2   30    2      2.86      0.00
    1   31    1     -1.17      0.00
    2   31    2     -4.91      0.00
    0   32    0    -12.88      0.00
    1   32    1      4.87      0.00
    5    0    6     -2.91      0.00
    4    0    5     -2.08      0.00
    3    0    4      9.10      0.00
    2    0    3    -27.49      0.00
    1    0    2     -3.27      0.00
    2    0    1     31.17      0.00
    3    0    2     27.89      0.00
    4    0    3    -19.90      0.00
    5    0    4     -0.48      0.00
    6    0    5      4.08      0.00
    7    0    6     -7.08      0.00
    5    1    6     -0.73      0.00
    4    1    5      1.04      0.00
    3    1    4     -1.42      0.00
    2    1    3     17.68      0.00
    1    1    2     -0.38      0.00
    0    1    1    -35.20      0.00
    2    1    1    -91.58      0.00
    3    1    2      4.07      0.00
    4    1    3     -1.04      0.00
    5    1    4     -4.32      0.00
    6    1    5      1.06      0.00
    7    1    6     -1.19      0.00
    5    2    6     -2.55      0.00
    4    2    5     -3.67      0.00
    3    2    4      5.00      0.00
    2    2    3     10.18      0.00
    1    2    2     -9.39      0.00
    2    2    1    -56.29      0.00
    3    2    2     27.01      0.00
    4    2    3     15.43      0.00
    5    2    4     -6.50      0.00
    6    2    5      5.70      0.00
    7    2    6      0.47      0.00
    5    3    6     -0.54      0.00
    4    3    5     -2.72      0.00
    3    3    4      7.06      0.00
    2    3    3    -13.20      0.00
    1    3    2     -2.32      0.00
    0    3    1    136.70      0.00
    2    3    1    -33.12      0.00
    3    3    2      8.34      0.00
    4    3    3     -1.08      0.00
    5    3    4     -0.12      0.00
    6    3    5     -0.30      0.00
    7    3    6      0.69      0.00
    5    4    6     -2.51      0.00
    4    4    5      1.96      0.00
    3    4    4      5.53      0.00
    2    4    3     -7.92      0.00
    1    4    2    -11.09      0.00
    2    4    1    -10.82      0.00
    3    4    2     26.69      0.00
    4    4    3    -11.27      0.00
    5    4    4     -0.71      0.00
    6    4    5      5.06      0.00
    7    4    6     -0.51      0.00
    5    5    6     -0.62      0.00
    4    5    5      1.80      0.00
    3    5    4     -0.40      0.00
    2    5    3      2.17      0.00
    1    5    2      4.08      0.00
    0    5    1     18.65      0.00
    2    5    1    -73.00      0.00
    3    5    2     13.63      0.00
    4    5    3      0.24      0.00
    5    5    4     -3.19      0.00
    6    5    5      0.64      0.00
    7    5    6      0.17      0.00
    5    6    6     -0.38      0.00
    4    6    5     -2.97      0.00
    3    6    4     -2.69      0.00
    2    6    3     -6.69      0.00
    1    6    2      3.68      0.00
    2    6    1    -19.35      0.00
    3    6    2     12.51      0.00
    4    6    3     -0.73      0.00
    5    6    4     -6.21      0.00
    6    6    5      1.06      0.00
    7    6    6      2.04      0.00
    5    7    6     -0.93      0.00
    4    7    5     -0.11      0.00
    3    7    4      4.28      0.00
    2    7    3     -7.52      0.00
    1    7    2     -4.38      0.00
    0    7    1     13.08      0.00
    2    7    1     -0.54      0.00
    3    7    2     -1.68      0.00
    4    7    3      0.62      0.00
    5    7    4      2.95      0.00
    6    7    5     -5.74      0.00
    7    7    6      0.74      0.00
    5    8    6     -1.88      0.00
    4    8    5      0.75      0.00
    3    8    4      4.39      0.00
    2    8    3     -2.55      0.00
    1    8    2      9.74      0.00
    2    8    1    -14.52      0.00
    3    8    2     -4.57      0.00
    4    8    3     12.72      0.00
    5    8    4     -1.35      0.00
    6    8    5      5.00      0.00
    7    8    6     -1.95      0.00
    5    9    6      0.02      0.00
    4    9    5      1.47      0.00
    3    9    4     -1.72      0.00
    2    9    3     -7.53      0.00
    1    9    2     13.66      0.00
    0    9    1     -1.40      0.00
    2    9    1     -7.58      0.00
    3    9    2      2.29      0.00
    4    9    3     10.44      0.00
    5    9    4     -3.65      0.00
    6    9    5     -0.46      0.00
    7    9    6      4.30      0.00
    5   10    6      2.75      0.00
    4   10    5     -4.84      0.00
    3   10    4      2.23      0.00
    2   10    3    -12.42      0.00
    1   10    2      5.63      0.00
    2   10    1      7.98      0.00
    3   10    2      2.85      0.00
    4   10    3      6.96      0.00
    5   10    4     -6.69      0.00
    6   10    5      4.64      0.00
    7   10    6     -0.27      0.00
    5   11    6     -1.19      0.00
    4   11    5     -4.71      0.00
    3   11    4      4.24      0.00
    2   11    3      0.31      0.00
    1   11    2     -3.46      0.00
    0   11    1     -6.43      0.00
    2   11    1      4.32      0.00
    3   11    2    -11.68      0.00
    4   11    3      0.61      0.00
    5   11    4     -1.83      0.00
    6   11    5     -3.19      0.00
    7   11    6      1.96      0.00
    5   12    6      1.89      0.00
    4   12    5     -3.93      0.00
    3   12    4      3.28      0.00
    2   12    3     -3.57      0.00
    1   12    2     -3.61      0.00
    2   12    1     -0.12      0.00
    3   12    2      1.48      0.00
    4   12    3      4.43      0.00
    5   12    4      3.01      0.00
    6   12    5      1.70      0.00
    7   12    6     -1.46      0.00
    5   13    6      3.18      0.00
    4   13    5     -0.18      0.00
    3   13    4      0.03      0.00
    2   13    3      4.48      0.00
    1   13    2      8.61      0.00
    0   13    1    -12.65      0.00
    2   13    1      5.32      0.00
    3   13    2     -0.09      0.00
    4   13    3      2.33      0.00
    5   13    4     -1.66      0.00
    6   13    5     -1.63      0.00
    5   14    6      0.49      0.00
    4   14    5      0.61      0.00
    3   14    4     -6.28      0.00
    2   14    3      2.27      0.00
    1   14    2     -4.87      0.00
    2   14    1     -0.20      0.00
    3   14    2      1.87      0.00
    4   14    3      2.11      0.00
    5   14    4      0.75      0.00
    6   14    5      3.04      0.00
    4   15    5      1.40      0.00
    3   15    4     -0.66      0.00
    2   15    3     -3.67      0.00
    1   15    2      4.48      0.00
    0   15    1     -7.80      0.00
    2   15    1      8.45      0.00
    3   15    2     -0.83      0.00
    4   15    3      4.91      0.00
    5   15    4     -0.26      0.00
    6   15    5     -3.42      0.00
    4   16    5      1.42      0.00
    3   16    4      2.47      0.00
    2   16    3     -0.81      0.00
    1   16    2     -4.07      0.00
    2   16    1      4.52      0.00
    3   16    2      6.73      0.00
    4   16    3     -5.11      0.00
    5   16    4      1.73      0.00
    6   16    5     -2.24      0.00
    4   17    5     -2.60      0.00
    3   17    4      0.09      0.00
    2   17    3     -7.03      0.00
    1   17    2     -1.27      0.00
    0   17    1    -10.27      0.00
    2   17    1      0.32      0.00
    3   17    2     -0.87      0.00
    4   17    3      3.77      0.00
    5   17    4      0.80      0.00
    6   17    5     -1.55      0.00
    4   18    5     -2.36      0.00
    3   18    4      2.01      0.00
    2   18    3      5.40      0.00
    1   18    2     -8.92      0.00
    2   18    1      3.19      0.00
    3   18    2     -3.74      0.00
    4   18    3      1.00      0.00
    5   18    4     -4.12      0.00
    6   18    5      0.17      0.00
    4   19    5     -0.95      0.00
    3   19    4      2.20      0.00
    2   19    3     -4.35      0.00
    1   19    2      8.30      0.00
    0   19    1      1.80      0.00
    2   19    1     -0.93      0.00
    3   19    2      2.47      0.00
    4   19    3      7.55      0.00
    5   19    4      2.63      0.00
    6   19    5      0.34      0.00
    4   20    5      1.00      0.00
    3   20    4     -0.67      0.00
    2   20    3      2.10      0.00
    1   20    2     -6.06      0.00
    2   20    1      5.75      0.00
    3   20    2     -0.47      0.00
    4   20    3     -1.84      0.00
    5   20    4     -2.52      0.00
    6   20    5      4.60      0.00
    4   21    5     -2.82      0.00
    3   21    4     -1.22      0.00
    2   21    3     -7.33      0.00
    1   21    2     -2.45      0.00
    0   21    1      0.78      0.00
    2   21    1     -7.46      0.00
    3   21    2      2.30      0.00
    4   21    3      0.00      0.00
    5   21    4     -0.85      0.00
    3   22    4      0.23      0.00
    2   22    3      4.66      0.00
    1   22    2     -4.58      0.00
    2   22    1      1.21      0.00
    3   22    2     -0.40      0.00
    4   22    3      0.24      0.00
    5   22    4      4.21      0.00
    3   23    4      0.14      0.00
    2   23    3     -1.44      0.00
    1   23    2     -2.60      0.00
    0   23    1      3.18      0.00
    2   23    1      3.49      0.00
    3   23    2      4.50      0.00
    4   23    3      1.27      0.00
    5   23    4      0.87      0.00
    3   24    4     -6.09      0.00
    2   24    3      1.22      0.00
    1   24    2     -1.34      0.00
    2   24    1      1.29      0.00
    3   24    2    -10.43      0.00
    4   24    3     -0.44      0.00
    5   24    4      7.26      0.00
    3   25    4      4.79      0.00
    2   25    3     -2.63      0.00
    1   25    2      3.21      0.00
    0   25    1    -23.92      0.00
    2   25    1      3.94      0.00
    3   25    2      4.49      0.00
    4   25    3     -2.89      0.00
    5   25    4     -3.10      0.00
    3   26    4     -9.46      0.00
    2   26    3     -0.07      0.00
    1   26    2     10.45      0.00
    2   26    1      6.31      0.00
    3   26    2     -4.37      0.00
    4   26    3      0.76      0.00
    2   27    3      4.46      0.00
    1   27    2     -7.03      0.00
    0   27    1     -9.55      0.00
    2   27    1     14.84      0.00
    3   27    2     -0.88      0.00
    4   27    3      0.16      0.00
    2   28    3      3.79      0.00
    1   28    2      0.79      0.00
    2   28    1      6.95      0.00
    3   28    2    -12.50      0.00
    4   28    3      1.29      0.00
    2   29    3     -3.10      0.00
    1   29    2      2.19      0.00
    0   29    1     -5.34      0.00
    2   29    1      0.55      0.00
    3   29    2     -0.32      0.00
    1   30    2     -2.39      0.00
    2   30    1     15.48      0.00
    3   30    2      6.67      0.00
    1   31    2      0.83      0.00
    0   31    1     -0.49      0.00
    2   31    1     -0.91      0.00
    2   32    1     -1.22      0.00
    4    0    6      8.79      0.00
    3    0    5     -2.31      0.00
    2    0    4     -0.79      0.00
    1    0    3      2.41      0.00
    0    0    2    -17.86      0.00
    3    0    1     97.56      0.00
    4    0    2    -24.02      0.00
    5    0    3     10.74      0.00
    6    0    4     -2.68      0.00
    7    0    5      0.94      0.00
    8    0    6      6.10      0.00
    4    1    6     -4.82      0.00
    3    1    5     -0.08      0.00
    2    1    4      7.12      0.00
    1    1    3      7.54      0.00
    2    1    0      2.58      0.00
    3    1    1     -6.33      0.00
    4    1    2    -29.35      0.00
    5    1    3     -1.79      0.00
    6    1    4      2.54      0.00
    7    1    5     -1.15      0.00
    8    1    6      2.27      0.00
    4    2    6     -0.09      0.00
    3    2    5      2.91      0.00
    2    2    4     -5.70      0.00
    1    2    3    -11.87      0.00
    0    2    2     37.23      0.00
    2    2    0   -322.13      0.00
    3    2    1     72.29      0.00
    4    2    2    -18.70      0.00
    5    2    3    -10.14      0.00
    6    2    4      6.72      0.00
    7    2    5     -1.34      0.00
    8    2    6     -3.85      0.00
    4    3    6     -0.87      0.00
    3    3    5     -2.26      0.00
    2    3    4    -11.51      0.00
    1    3    3     13.85      0.00
    2    3    0   -161.09      0.00
    3    3    1     10.18      0.00
    4    3    2     20.00      0.00
    5    3    3     -4.74      0.00
    6    3    4      2.30      0.00
    7    3    5     -0.13      0.00
    8    3    6     -9.80      0.00
    4    4    6      1.19      0.00
    3    4    5     -0.26      0.00
    2    4    4     -9.15      0.00
    1    4    3      7.39      0.00
    0    4    2      8.59      0.00
    2    4    0      6.36      0.00
    3    4    1     31.45      0.00
    4    4    2      3.38      0.00
    5    4    3      2.98      0.00
    6    4    4     -4.35      0.00
    7    4    5      1.23      0.00
    8    4    6     -2.10      0.00
    4    5    6     -2.54      0.00
    3    5    5     -1.21      0.00
    2    5    4     -1.91      0.00
    1    5    3      8.58      0.00
    2    5    0    -93.12      0.00
    3    5    1    -28.45      0.00
    4    5    2     -0.56      0.00
    5    5    3     -4.07      0.00
    6    5    4      6.60      0.00
    7    5    5     -1.69      0.00
    8    5    6      1.94      0.00
    4    6    6      0.38      0.00
    3    6    5     -1.00      0.00
    2    6    4     -2.34      0.00
    1    6    3      2.81      0.00
    0    6    2     21.18      0.00
    2    6    0     12.10      0.00
    3    6    1     -1.07      0.00
    4    6    2     29.99      0.00
    5    6    3     -9.00      0.00
    6    6    4     -0.88      0.00
    7    6    5     -0.28      0.00
    8    6    6     -4.72      0.00
    4    7    6      4.19      0.00
    3    7    5     -0.49      0.00
    2    7    4     -3.05      0.00
    1    7    3     -3.64      0.00
    2    7    0      1.74      0.00
    3    7    1     -9.03      0.00
    4    7    2     19.25      0.00
    5    7    3     -6.27      0.00
    6    7    4     -1.80      0.00
    7    7    5     -4.21      0.00
    8    7    6     -0.77      0.00
    4    8    6     -4.28      0.00
    3    8    5     -0.58      0.00
    2    8    4      0.57      0.00
    1    8    3      6.61      0.00
    0    8    2      3.79      0.00
    2    8    0     31.02      0.00
    3    8    1    -18.64      0.00
    4    8    2     12.92      0.00
    5    8    3     -3.93      0.00
    6    8    4     -4.12      0.00
    7    8    5     -0.15      0.00
    8    8    6     -0.61      0.00
    4    9    6     -0.74      0.00
    3    9    5     -0.20      0.00
    2    9    4      5.28      0.00
    1    9    3     -5.81      0.00
    2    9    0    -10.23      0.00
    3    9    1    -16.30      0.00
    4    9    2      8.13      0.00
    5    9    3      4.52      0.00
    6    9    4      3.68      0.00
    7    9    5      1.52      0.00
    8    9    6      2.67      0.00
    4   10    6     -5.42      0.00
    3   10    5     -1.54      0.00
    2   10    4     -1.35      0.00
    1   10    3      3.16      0.00
    0   10    2     -3.39      0.00
    2   10    0     28.85      0.00
    3   10    1     -9.87      0.00
    4   10    2      9.53      0.00
    5   10    3     -4.17      0.00
    6   10    4     -3.13      0.00
    7   10    5     -5.45      0.00
    8   10    6      3.94      0.00
    4   11    6     -3.89      0.00
    3   11    5      2.59      0.00
    2   11    4      3.46      0.00
    1   11    3     -1.20      0.00
    2   11    0     30.69      0.00
    3   11    1     -1.69      0.00
    4   11    2     -4.01      0.00
    5   11    3      4.68      0.00
    6   11    4     -4.69      0.00
    7   11    5      2.69      0.00
    8   11    6      4.88      0.00
    4   12    6    -15.54      0.00
    3   12    5     -0.62      0.00
    2   12    4      2.19      0.00
    1   12    3     -2.49      0.00
    0   12    2      5.17      0.00
    2   12    0     -0.82      0.00
    3   12    1     -0.05      0.00
    4   12    2     -2.80      0.00
    5   12    3      2.47      0.00
    6   12    4      3.67      0.00
    7   12    5     -2.68      0.00
    4   13    6     -8.64      0.00
    3   13    5      2.77      0.00
    2   13    4      1.43      0.00
    1   13    3      6.11      0.00
    2   13    0     -1.37      0.00
    3   13    1     -4.80      0.00
    4   13    2     -3.55      0.00
    5   13    3      4.77      0.00
    6   13    4     -3.61      0.00
    7   13    5      2.46      0.00
    4   14    6    -14.86      0.00
    3   14    5      5.54      0.00
    2   14    4      2.24      0.00
    1   14    3      1.79      0.00
    0   14    2     16.71      0.00
    2   14    0     -5.38      0.00
    3   14    1      5.14      0.00
    4   14    2      0.28      0.00
    5   14    3      5.87      0.00
    6   14    4     -2.10      0.00
    7   14    5     -1.08      0.00
    4   15    6     -4.69      0.00
    3   15    5      0.62      0.00
    2   15    4     -1.56      0.00
    1   15    3      2.82      0.00
    2   15    0    -11.49      0.00
    3   15    1      0.69      0.00
    4   15    2      4.28      0.00
    5   15    3      1.88      0.00
    6   15    4     -1.28      0.00
    7   15    5     -0.77      0.00
    3   16    5      1.19      0.00
    2   16    4      3.13      0.00
    1   16    3     -2.56      0.00
    0   16    2     -3.39      0.00
    2   16    0      0.45      0.00
    3   16    1      4.41      0.00
    4   16    2     -2.52      0.00
    5   16    3      3.97      0.00
    6   16    4     -0.27      0.00
    7   16    5     -0.83      0.00
    3   17    5      0.53      0.00
    2   17    4      3.22      0.00
    1   17    3      0.41      0.00
    2   17    0     -6.70      0.00
    3   17    1      2.70      0.00
    4   17    2     -3.48      0.00
    5   17    3     -4.59      0.00
    6   17    4     -1.00      0.00
    7   17    5     -0.15      0.00
    3   18    5      2.32      0.00
    2   18    4      2.82      0.00
    1   18    3      0.83      0.00
    0   18    2      1.11      0.00
    2   18    0     -5.98      0.00
    3   18    1     -3.12      0.00
    4   18    2      1.86      0.00
    5   18    3      0.68      0.00
    6   18    4     -1.02      0.00
    7   18    5     -0.22      0.00
    3   19    5      3.21      0.00
    2   19    4      1.01      0.00
    1   19    3      1.92      0.00
    2   19    0    -10.20      0.00
    3   19    1      0.26      0.00
    4   19    2      5.52      0.00
    5   19    3     -1.03      0.00
    6   19    4      0.29      0.00
    7   19    5      8.90      0.00
    3   20    5     -1.91      0.00
    2   20    4     -0.93      0.00
    1   20    3      1.50      0.00
    0   20    2     -9.58      0.00
    2   20    0      6.28      0.00
    3   20    1     -1.89      0.00
    4   20    2      0.32      0.00
    5   20    3      2.05      0.00
    6   20    4     -1.76      0.00
    7   20    5     -6.58      0.00
    3   21    5      3.47      0.00
    2   21    4      3.30      0.00
    1   21    3      1.68      0.00
    2   21    0      0.60      0.00
    3   21    1      0.43      0.00
    4   21    2     -2.43      0.00
    5   21    3      2.81      0.00
    6   21    4     -0.36      0.00
    3   22    5      0.64      0.00
    2   22    4      1.42      0.00
    1   22    3      2.18      0.00
    0   22    2      6.31      0.00
    2   22    0      4.24      0.00
    3   22    1      1.44      0.00
    4   22    2      0.34      0.00
    5   22    3      2.79      0.00
    6   22    4      7.11      0.00
    2   23    4     -0.22      0.00
    1   23    3      0.47      0.00
    2   23    0      1.77      0.00
    3   23    1     -2.13      0.00
    4   23    2     -1.66      0.00
    5   23    3      4.49      0.00
    6   23    4      1.69      0.00
    2   24    4     -3.07      0.00
    1   24    3     -0.23      0.00
    0   24    2     -0.19      0.00
    2   24    0      3.68      0.00
    3   24    1     -0.55      0.00
    4   24    2     -3.22      0.00
    5   24    3      2.83      0.00
    6   24    4      1.81      0.00
    2   25    4     -1.58      0.00
    1   25    3      3.16      0.00
    2   25    0      0.71      0.00
    3   25    1     -1.88      0.00
    4   25    2      5.39      0.00
    5   25    3      3.61      0.00
    6   25    4      4.39      0.00
    2   26    4      2.66      0.00
    1   26    3     -2.67      0.00
    0   26    2      5.28      0.00
    2   26    0     -1.23      0.00
    3   26    1      6.79      0.00
    4   26    2      0.10      0.00
    5   26    3      3.35      0.00
    1   27    3      1.25      0.00
    2   27    0      0.61      0.00
    3   27    1     -1.20      0.00
    4   27    2     -3.21      0.00
    5   27    3     -1.67      0.00
    1   28    3      0.33      0.00
    0   28    2     -1.94      0.00
    2   28    0     -4.15      0.00
    3   28    1     -2.71      0.00
    4   28    2     -3.86      0.00
    5   28    3     -7.15      0.00
    1   29    3      3.98      0.00
    2   29    0     -9.92      0.00
    3   29    1      7.09      0.00
    4   29    2      4.15      0.00
    0   30    2     -6.07      0.00
    2   30    0      1.93      0.00
    3   30    1     -1.47      0.00
    4   30    2      1.82      0.00
    2   31    0      1.66      0.00
    3   31    1     -1.64      0.00
    2   32    0     -2.88      0.00
    3    0    6      7.95      0.00
    2    0    5      2.82      0.00
    1    0    4     -7.85      0.00
    4    0    1     30.83      0.00
    5    0    2    -10.04      0.00
    6    0    3     -3.06      0.00
    7    0    4     -1.59      0.00
    8    0    5     -6.14      0.00
    9    0    6      2.23      0.00
    3    1    6     -0.79      0.00
    2    1    5      2.39      0.00
    1    1    4     -3.14      0.00
    0    1    3     28.38      0.00
    4    1    1     18.51      0.00
    5    1    2     -1.20      0.00
    6    1    3    -13.30      0.00
    7    1    4     -1.93      0.00
    8    1    5     -0.86      0.00
    9    1    6     -0.83      0.00
    3    2    6      1.78      0.00
    2    2    5     -1.65      0.00
    1    2    4     -6.68      0.00
    4    2    1    -38.93      0.00
    5    2    2    -22.10      0.00
    6    2    3     13.57      0.00
    7    2    4     -3.67      0.00
    8    2    5      1.30      0.00
    9    2    6      6.94      0.00
    3    3    6      1.00      0.00
    2    3    5      1.78      0.00
    1    3    4      2.27      0.00
    0    3    3    -19.20      0.00
    4    3    1     60.36      0.00
    5    3    2    -15.94      0.00
    6    3    3     11.64      0.00
    7    3    4      1.75      0.00
    8    3    5     -1.35      0.00
    9    3    6      9.40      0.00
    3    4    6     -0.30      0.00
    2    4    5      2.42      0.00
    1    4    4     -0.44      0.00
    4    4    1     42.14      0.00
    5    4    2    -18.91      0.00
    6    4    3      6.07      0.00
    7    4    4      1.86      0.00
    8    4    5     -1.48      0.00
    9    4    6     -2.56      0.00
    3    5    6     -0.62      0.00
    2    5    5      0.83      0.00
    1    5    4     -5.21      0.00
    0    5    3      6.33      0.00
    4    5    1     16.48      0.00
    5    5    2    -12.85      0.00
    6    5    3     -2.08      0.00
    7    5    4     -1.49      0.00
    8    5    5      0.37      0.00
    9    5    6      4.92      0.00
    3    6    6      2.73      0.00
    2    6    5     -1.20      0.00
    1    6    4      1.45      0.00
    4    6    1      8.78      0.00
    5    6    2    -11.71      0.00
    6    6    3      4.34      0.00
    7    6    4     -0.97      0.00
    8    6    5     -1.72      0.00
    9    6    6      0.36      0.00
    3    7    6     -2.79      0.00
    2    7    5     -1.15      0.00
    1    7    4      3.37      0.00
    0    7    3      9.99      0.00
    4    7    1     31.75      0.00
    5    7    2     -7.27      0.00
    6    7    3     -2.92      0.00
    7    7    4      4.22      0.00
    8    7    5      0.22      0.00
    9    7    6      0.95      0.00
    3    8    6      0.15      0.00
    2    8    5      3.89      0.00
    1    8    4      0.35      0.00
    4    8    1      2.94      0.00
    5    8    2     -6.73      0.00
    6    8    3     -2.77      0.00
    7    8    4      4.47      0.00
    8    8    5     -3.85      0.00
    9    8    6      0.35      0.00
    3    9    6      2.66      0.00
    2    9    5      5.26      0.00
    1    9    4     -4.00      0.00
    0    9    3     -0.01      0.00
    4    9    1    -11.62      0.00
    5    9    2      5.45      0.00
    6    9    3     -4.30      0.00
    7    9    4      2.90      0.00
    8    9    5      2.16      0.00
    9    9    6      2.77      0.00
    3   10    6      0.27      0.00
    2   10    5      3.55      0.00
    1   10    4     -5.08      0.00
    4   10    1     -0.13      0.00
    5   10    2      1.09      0.00
    6   10    3     -8.62      0.00
    7   10    4     -0.33      0.00
    8   10    5     -0.61      0.00
    3   11    6     -3.54      0.00
    2   11    5      1.42      0.00
    1   11    4      0.82      0.00
    0   11    3     -5.37      0.00
    4   11    1      5.16      0.00
    5   11    2      5.83      0.00
    6   11    3     -7.24      0.00
    7   11    4      6.23      0.00
    8   11    5     -1.53      0.00
    3   12    6      0.77      0.00
    2   12    5      2.50      0.00
    1   12    4      0.47      0.00
    4   12    1     -9.29      0.00
    5   12    2      2.72      0.00
    6   12    3    -10.56      0.00
    7   12    4      2.39      0.00
    8   12    5     -4.41      0.00
    3   13    6     -1.60      0.00
    2   13    5      2.58      0.00
    1   13    4     -2.09      0.00
    0   13    3     -6.80      0.00
    4   13    1     -9.27      0.00
    5   13    2      7.89      0.00
    6   13    3     -1.75      0.00
    7   13    4      3.29      0.00
    8   13    5      0.37      0.00
    3   14    6      0.85      0.00
    2   14    5     -0.71      0.00
    1   14    4      0.99      0.00
    4   14    1     -4.95      0.00
    5   14    2     -1.03      0.00
    6   14    3      0.22      0.00
    7   14    4     -3.08      0.00
    8   14    5      0.36      0.00
    3   15    6     -1.42      0.00
    2   15    5      0.36      0.00
    1   15    4      3.00      0.00
    0   15    3     -4.98      0.00
    4   15    1     -5.50      0.00
    5   15    2     -4.46      0.00
    6   15    3      0.16      0.00
    7   15    4     -2.02      0.00
    8   15    5      0.03      0.00
    2   16    5      0.17      0.00
    1   16    4     -0.06      0.00
    4   16    1      0.77      0.00
    5   16    2      3.74      0.00
    6   16    3     -0.19      0.00
    7   16    4      3.26      0.00
    8   16    5     -3.45      0.00
    2   17    5     -2.05      0.00
    1   17    4     -1.59      0.00
    0   17    3      1.97      0.00
    4   17    1     -0.06      0.00
    5   17    2     -2.54      0.00
    6   17    3     -2.67      0.00
    7   17    4     -3.78      0.00
    8   17    5      1.13      0.00
    2   18    5     -0.14      0.00
    1   18    4     -4.80      0.00
    4   18    1     -5.95      0.00
    5   18    2     -2.17      0.00
    6   18    3      2.61      0.00
    7   18    4      1.74      0.00
    8   18    5     -0.17      0.00
    2   19    5      2.22      0.00
    1   19    4     -0.45      0.00
    0   19    3      3.27      0.00
    4   19    1      1.91      0.00
    5   19    2     -4.89      0.00
    6   19    3      0.63      0.00
    7   19    4     -2.08      0.00
    8   19    5      0.73      0.00
    2   20    5      3.64      0.00
    1   20    4     -0.94      0.00
    4   20    1     -1.03      0.00
    5   20    2      2.72      0.00
    6   20    3      0.49      0.00
    7   20    4      1.81      0.00
    2   21    5     -7.33      0.00
    1   21    4      1.26      0.00
    0   21    3      4.45      0.00
    4   21    1      4.57      0.00
    5   21    2     -3.65      0.00
    6   21    3     -0.05      0.00
    7   21    4     -2.08      0.00
    2   22    5     -2.95      0.00
    1   22    4      2.18      0.00
    4   22    1      2.57      0.00
    5   22    2      1.71      0.00
    6   22    3      1.52      0.00
    7   22    4     -6.72      0.00
    1   23    4     -3.24      0.00
    0   23    3      7.23      0.00
    4   23    1      0.45      0.00
    5   23    2     -4.43      0.00
    6   23    3      2.65      0.00
    7   23    4     -0.11      0.00
    1   24    4     -0.49      0.00
    4   24    1     -1.53      0.00
    5   24    2      0.06      0.00
    6   24    3      1.55      0.00
    7   24    4     -8.67      0.00
    1   25    4      2.87      0.00
    0   25    3     -1.60      0.00
    4   25    1     -3.13      0.00
    5   25    2     -0.16      0.00
    6   25    3      0.19      0.00
    1   26    4      5.78      0.00
    4   26    1      2.36      0.00
    5   26    2      8.13      0.00
    6   26    3      0.46      0.00
    0   27    3      4.99      0.00
    4   27    1      4.75      0.00
    5   27    2      3.98      0.00
    6   27    3     -2.48      0.00
    4   28    1    -11.28      0.00
    5   28    2     -2.17      0.00
    6   28    3      0.52      0.00
    0   29    3     -4.05      0.00
    4   29    1     -2.22      0.00
    5   29    2      8.48      0.00
    4   30    1     -1.88      0.00
    5   30    2      0.08      0.00
    4   31    1      3.30      0.00
    2    0    6     -0.35      0.00
    1    0    5      1.38      0.00
    0    0    4      9.42      0.00
    4    0    0    122.15      0.00
    5    0    1    -43.99      0.00
    6    0    2     36.14      0.00
    7    0    3      4.01      0.00
    8    0    4      2.48      0.00
    9    0    5      3.88      0.00
   10    0    6      0.21      0.00
    2    1    6     -2.81      0.00
    1    1    5      2.51      0.00
    4    1    0    119.86      0.00
    5    1    1    -17.49      0.00
    6    1    2     -4.95      0.00
    7    1    3     -1.12      0.00
    8    1    4     -5.64      0.00
    9    1    5      1.61      0.00
   10    1    6     13.86      0.00
    2    2    6     -0.82      0.00
    1    2    5      2.94      0.00
    0    2    4      3.71      0.00
    4    2    0     33.38      0.00
    5    2    1    -31.15      0.00
    6    2    2      3.46      0.00
    7    2    3    -11.90      0.00
    8    2    4      2.70      0.00
    9    2    5      0.09      0.00
   10    2    6     -3.80      0.00
    2    3    6      7.58      0.00
    1    3    5     -0.15      0.00
    4    3    0     70.71      0.00
    5    3    1     -9.39      0.00
    6    3    2     23.92      0.00
    7    3    3     -2.18      0.00
    8    3    4     -1.22      0.00
    9    3    5      3.63      0.00
   10    3    6     -4.83      0.00
    2    4    6      0.57      0.00
    1    4    5     -0.45      0.00
    0    4    4      7.24      0.00
    4    4    0     51.98      0.00
    5    4    1    -24.74      0.00
    6    4    2      7.48      0.00
    7    4    3      8.39      0.00
    8    4    4     -3.90      0.00
    9    4    5      1.20      0.00
   10    4    6      4.96      0.00
    2    5    6      2.12      0.00
    1    5    5     -3.29      0.00
    4    5    0     80.70      0.00
    5    5    1    -16.73      0.00
    6    5    2    -12.22      0.00
    7    5    3     -1.13      0.00
    8    5    4     -6.23      0.00
    9    5    5      6.41      0.00
   10    5    6      5.14      0.00
    2    6    6      3.70      0.00
    1    6    5      2.66      0.00
    0    6    4      1.36      0.00
    4    6    0    -11.34      0.00
    5    6    1     -3.36      0.00
    6    6    2     -9.61      0.00
    7    6    3      8.27      0.00
    8    6    4      4.31      0.00
    9    6    5     -1.02      0.00
   10    6    6      6.13      0.00
    2    7    6      1.96      0.00
    1    7    5     -2.01      0.00
    4    7    0     28.97      0.00
    5    7    1     20.54      0.00
    6    7    2     -7.23      0.00
    7    7    3     -0.38      0.00
    8    7    4     -0.41      0.00
    9    7    5      3.54      0.00
   10    7    6     -1.09      0.00
    2    8    6      4.37      0.00
    1    8    5     -1.76      0.00
    0    8    4     -7.13      0.00
    4    8    0     16.85      0.00
    5    8    1      2.65      0.00
    6    8    2    -18.78      0.00
    7    8    3     12.70      0.00
    8    8    4     -2.65      0.00
    9    8    5      2.65      0.00
    2    9    6      4.34      0.00
    1    9    5     -4.52      0.00
    4    9    0    -40.38      0.00
    5    9    1      9.25      0.00
    6    9    2    -16.36      0.00
    7    9    3     -0.63      0.00
    8    9    4      1.51      0.00
    9    9    5     -2.08      0.00
    2   10    6      8.69      0.00
    1   10    5      0.01      0.00
    0   10    4     -1.82      0.00
    4   10    0    -14.60      0.00
    5   10    1      7.00      0.00
    6   10    2     -1.18      0.00
    7   10    3      3.11      0.00
    8   10    4      0.81      0.00
    9   10    5      2.04      0.00
    2   11    6      6.79      0.00
    1   11    5     -6.72      0.00
    4   11    0      2.36      0.00
    5   11    1     17.22      0.00
    6   11    2     -5.91      0.00
    7   11    3     -2.38      0.00
    8   11    4      4.35      0.00
    9   11    5     -5.02      0.00
    2   12    6      7.12      0.00
    1   12    5     -6.51      0.00
    0   12    4      2.44      0.00
    4   12    0    -10.75      0.00
    5   12    1      1.70      0.00
    6   12    2     -0.97      0.00
    7   12    3     -1.48      0.00
    8   12    4      2.70      0.00
    9   12    5      0.48      0.00
    2   13    6      0.18      0.00
    1   13    5     -2.36      0.00
    4   13    0     -7.05      0.00
    5   13    1      9.66      0.00
    6   13    2      0.57      0.00
    7   13    3     -3.77      0.00
    8   13    4      0.56      0.00
    9   13    5     -4.48      0.00
    2   14    6     11.53      0.00
    1   14    5     -2.61      0.00
    0   14    4      0.19      0.00
    4   14    0     -3.46      0.00
    5   14    1     -0.66      0.00
    6   14    2      6.22      0.00
    7   14    3     -9.70      0.00
    8   14    4     -0.87      0.00
    9   14    5     -2.28      0.00
    2   15    6     -6.35      0.00
    1   15    5      5.25      0.00
    4   15    0      2.95      0.00
    5   15    1      0.30      0.00
    6   15    2      7.47      0.00
    7   15    3      2.53      0.00
    8   15    4      1.90      0.00
    9   15    5     -0.21      0.00
    2   16    6      9.19      0.00
    1   16    5     -6.53      0.00
    0   16    4     -1.69      0.00
    4   16    0     -2.38      0.00
    5   16    1     -1.64      0.00
    6   16    2      4.82      0.00
    7   16    3     -2.04      0.00
    8   16    4      3.58      0.00
    9   16    5     -4.25      0.00
    1   17    5      4.93      0.00
    4   17    0     14.23      0.00
    5   17    1     -2.75      0.00
    6   17    2     -2.37      0.00
    7   17    3     -2.16      0.00
    8   17    4     -2.29      0.00
    9   17    5     -6.26      0.00
    1   18    5      1.51      0.00
    0   18    4     -1.84      0.00
    4   18    0     -1.24      0.00
    5   18    1     -2.06      0.00
    6   18    2     -4.27      0.00
    7   18    3     -1.19      0.00
    8   18    4      1.38      0.00
    9   18    5      1.09      0.00
    1   19    5      1.01      0.00
    4   19    0     -0.72      0.00
    5   19    1     -1.43      0.00
    6   19    2      1.85      0.00
    7   19    3      3.40      0.00
    8   19    4      2.13      0.00
    1   20    5     -0.19      0.00
    0   20    4      0.02      0.00
    4   20    0      1.58      0.00
    5   20    1     -2.63      0.00
    6   20    2      1.64      0.00
    7   20    3      2.32      0.00
    8   20    4     -1.31      0.00
    1   21    5      0.75      0.00
    4   21    0      0.04      0.00
    5   21    1      1.50      0.00
    6   21    2     -0.65      0.00
    7   21    3     -1.17      0.00
    8   21    4     -1.04      0.00
    1   22    5      1.36      0.00
    0   22    4      2.97      0.00
    4   22    0      0.89      0.00
    5   22    1     -2.01      0.00
    6   22    2      0.98      0.00
    7   22    3      0.93      0.00
    8   22    4      0.46      0.00
    4   23    0      1.58      0.00
    5   23    1      2.94      0.00
    6   23    2     -4.38      0.00
    7   23    3      0.08      0.00
    8   23    4     -1.71      0.00
    0   24    4     -1.60      0.00
    4   24    0     -4.41      0.00
    5   24    1     -6.13      0.00
    6   24    2     -1.77      0.00
    7   24    3     -1.11      0.00
    4   25    0     -4.88      0.00
    5   25    1      4.68      0.00
    6   25    2      3.65      0.00
    7   25    3     -1.04      0.00
    0   26    4      5.13      0.00
    4   26    0     -2.33      0.00
    5   26    1      3.49      0.00
    6   26    2      4.41      0.00
    7   26    3      1.63      0.00
    4   27    0      4.88      0.00
    5   27    1     -2.99      0.00
    6   27    2     -5.10      0.00
    7   27    3     -1.24      0.00
    4   28    0      3.33      0.00
    5   28    1     -1.79      0.00
    6   28    2     -3.37      0.00
    4   29    0     -1.60      0.00
    5   29    1      1.68      0.00
    6   29    2      4.25      0.00
    4   30    0     -1.74      0.00
    5   30    1      2.95      0.00
    4   31    0      5.89      0.00
    5   31    1     -2.39      0.00
    4   32    0      0.23      0.00
    1    0    6     -6.33      0.00
    6    0    1     37.39      0.00
    7    0    2      2.13      0.00
    8    0    3     -8.19      0.00
    9    0    4      6.03      0.00
   10    0    5     -7.42      0.00
   11    0    6      1.37      0.00
    1    1    6     -3.56      0.00
    0    1    5     -2.97      0.00
    6    1    1      6.16      0.00
    7    1    2      8.92      0.00
    8    1    3    -15.26      0.00
    9    1    4     -1.39      0.00
   10    1    5     -0.57      0.00
   11    1    6    -13.67      0.00
    1    2    6     -5.80      0.00
    6    2    1     -8.05      0.00
    7    2    2      4.20      0.00
    8    2    3    -17.53      0.00
    9    2    4      6.56      0.00
   10    2    5      3.21      0.00
   11    2    6      3.33      0.00
    1    3    6      0.77      0.00
    0    3    5     -2.96      0.00
    6    3    1    -28.99      0.00
    7    3    2      7.76      0.00
    8    3    3      7.80      0.00
    9    3    4      5.61      0.00
   10    3    5      2.27      0.00
    1    4    6     -2.21      0.00
    6    4    1      3.99      0.00
    7    4    2     14.02      0.00
    8    4    3    -10.18      0.00
    9    4    4      3.30      0.00
   10    4    5     -7.13      0.00
    1    5    6      2.72      0.00
    0    5    5     -0.26      0.00
    6    5    1    -20.24      0.00
    7    5    2     12.91      0.00
    8    5    3     -9.76      0.00
    9    5    4      0.69      0.00
   10    5    5     -3.90      0.00
    1    6    6     -1.79      0.00
    6    6    1    -29.32      0.00
    7    6    2     12.68      0.00
    8    6    3    -12.68      0.00
    9    6    4     -0.03      0.00
   10    6    5      0.59      0.00
    1    7    6     -4.54      0.00
    0    7    5     -1.99      0.00
    6    7    1     -0.88      0.00
    7    7    2     10.24      0.00
    8    7    3      2.16      0.00
    9    7    4     -0.23      0.00
   10    7    5     -3.04      0.00
    1    8    6     -4.40      0.00
    6    8    1      2.78      0.00
    7    8    2     14.78      0.00
    8    8    3     -0.75      0.00
    9    8    4     -0.90      0.00
   10    8    5      1.07      0.00
    1    9    6      2.93      0.00
    0    9    5      1.49      0.00
    6    9    1    -21.35      0.00
    7    9    2      0.87      0.00
    8    9    3     -2.71      0.00
    9    9    4     -3.84      0.00
   10    9    5     -3.58      0.00
    1   10    6     -1.75      0.00
    6   10    1     -1.70      0.00
    7   10    2      2.69      0.00
    8   10    3      7.40      0.00
    9   10    4     -4.47      0.00
   10   10    5     -0.31      0.00
    1   11    6     -2.18      0.00
    0   11    5     -3.46      0.00
    6   11    1     10.15      0.00
    7   11    2     -7.00      0.00
    8   11    3      3.95      0.00
    9   11    4     -1.58      0.00
   10   11    5      0.49      0.00
    1   12    6      1.37      0.00
    6   12    1      5.48      0.00
    7   12    2      0.30      0.00
    8   12    3      5.28      0.00
    9   12    4      0.74      0.00
   10   12    5     -2.42      0.00
    1   13    6      1.51      0.00
    0   13    5      2.10      0.00
    6   13    1      0.27      0.00
    7   13    2     -1.56      0.00
    8   13    3      1.50      0.00
    9   13    4     -1.17      0.00
   10   13    5      1.31      0.00
    1   14    6      0.13      0.00
    6   14    1      5.15      0.00
    7   14    2     -6.81      0.00
    8   14    3      5.75      0.00
    9   14    4     -4.16      0.00
   10   14    5      1.77      0.00
    1   15    6     -1.37      0.00
    0   15    5      2.46      0.00
    6   15    1      3.46      0.00
    7   15    2     -5.07      0.00
    8   15    3      4.19      0.00
    9   15    4      1.01      0.00
   10   15    5      0.15      0.00
    1   16    6     -0.22      0.00
    6   16    1      5.37      0.00
    7   16    2      2.51      0.00
    8   16    3     -2.32      0.00
    9   16    4      2.91      0.00
   10   16    5     -0.62      0.00
    0   17    5     -0.20      0.00
    6   17    1      5.09      0.00
    7   17    2      6.14      0.00
    8   17    3      1.82      0.00
    9   17    4      5.39      0.00
   10   17    5     -0.27      0.00
    6   18    1     -0.38      0.00
    7   18    2     -3.47      0.00
    8   18    3     -2.35      0.00
    9   18    4     -4.45      0.00
    0   19    5      7.83      0.00
    6   19    1     -8.33      0.00
    7   19    2     -0.38      0.00
    8   19    3      0.62      0.00
    9   19    4     -0.16      0.00
    6   20    1     -1.07      0.00
    7   20    2      3.18      0.00
    8   20    3     -0.03      0.00
    9   20    4      2.80      0.00
    0   21    5      4.13      0.00
    6   21    1     -0.17      0.00
    7   21    2      5.29      0.00
    8   21    3     -1.73      0.00
    9   21    4      0.48      0.00
    6   22    1      4.85      0.00
    7   22    2     -0.31      0.00
    8   22    3     -1.51      0.00
    9   22    4      6.79      0.00
    6   23    1      0.92      0.00
    7   23    2      0.54      0.00
    8   23    3     -1.54      0.00
    9   23    4      0.93      0.00
    6   24    1     -4.63      0.00
    7   24    2     -1.17      0.00
    8   24    3     -2.45      0.00
    6   25    1     -6.62      0.00
    7   25    2     -0.33      0.00
    8   25    3      1.79      0.00
    6   26    1      6.74      0.00
    7   26    2     -3.82      0.00
    8   26    3     -0.85      0.00
    6   27    1     -2.52      0.00
    7   27    2     -5.17      0.00
    6   28    1      4.03      0.00
    7   28    2     -5.98      0.00
    6   29    1    -12.00      0.00
    7   29    2     -8.78      0.00
    6   30    1      8.09      0.00
    6   31    1     -7.99      0.00
    0    0    6     -6.21      0.00
    6    0    0    -14.09      0.00
    7    0    1     -1.14      0.00
    8    0    2      6.11      0.00
    9    0    3      6.63      0.00
   10    0    4      1.73      0.00
   11    0    5      1.78      0.00
    6    1    0      1.81      0.00
    7    1    1      5.72      0.00
    8    1    2     -4.04      0.00
    9    1    3      5.25      0.00
   10    1    4     -4.63      0.00
   11    1    5     -1.57      0.00
    0    2    6     -1.59      0.00
    6    2    0      7.60      0.00
    7    2    1     18.95      0.00
    8    2    2    -17.99      0.00
    9    2    3     -4.46      0.00
   10    2    4      0.00      0.00
   11    2    5     -0.39      0.00
    6    3    0    -72.41      0.00
    7    3    1     24.09      0.00
    8    3    2    -16.08      0.00
    9    3    3     11.30      0.00
   10    3    4      1.09      0.00
   11    3    5     -6.33      0.00
    0    4    6     -4.05      0.00
    6    4    0    -21.20      0.00
    7    4    1      8.09      0.00
    8    4    2      3.32      0.00
    9    4    3     -1.91      0.00
   10    4    4      1.49      0.00
   11    4    5      0.69      0.00
    6    5    0    -31.88      0.00
    7    5    1      7.49      0.00
    8    5    2     -8.78      0.00
    9    5    3      6.57      0.00
   10    5    4     -6.06      0.00
   11    5    5     -3.05      0.00
    0    6    6     -3.53      0.00
    6    6    0    -30.74      0.00
    7    6    1     12.81      0.00
    8    6    2     -0.59      0.00
    9    6    3    -11.56      0.00
   10    6    4      8.04      0.00
   11    6    5     -2.75      0.00
    6    7    0    -15.03      0.00
    7    7    1      5.77      0.00
    8    7    2     13.00      0.00
    9    7    3      2.81      0.00
   10    7    4      5.52      0.00
   11    7    5     -2.66      0.00
    0    8    6     -2.41      0.00
    6    8    0     -3.38      0.00
    7    8    1      4.00      0.00
    8    8    2      5.14      0.00
    9    8    3    -11.24      0.00
   10    8    4      2.09      0.00
   11    8    5     -1.54      0.00
    6    9    0     -8.17      0.00
    7    9    1     -9.68      0.00
    8    9    2     11.28      0.00
    9    9    3     -5.97      0.00
   10    9    4     -5.69      0.00
   11    9    5      0.88      0.00
    0   10    6     -0.26      0.00
    6   10    0    -10.33      0.00
    7   10    1      0.66      0.00
    8   10    2      8.52      0.00
    9   10    3     -7.26      0.00
   10   10    4      3.53      0.00
   11   10    5     -2.15      0.00
    6   11    0      0.57      0.00
    7   11    1    -10.61      0.00
    8   11    2     15.65      0.00
    9   11    3     -3.03      0.00
   10   11    4      3.84      0.00
   11   11    5      6.16      0.00
    0   12    6      0.85      0.00
    6   12    0     12.49      0.00
    7   12    1     -7.02      0.00
    8   12    2     -1.67      0.00
    9   12    3      4.72      0.00
   10   12    4     -1.03      0.00
   11   12    5      1.85      0.00
    6   13    0     -8.99      0.00
    7   13    1     -3.66      0.00
    8   13    2     -2.19      0.00
    9   13    3     -4.98      0.00
   10   13    4     -2.75      0.00
   11   13    5      0.34      0.00
    0   14    6      4.62      0.00
    6   14    0      8.18      0.00
    7   14    1     -1.35      0.00
    8   14    2     -3.21      0.00
    9   14    3      0.58      0.00
   10   14    4     -2.83      0.00
   11   14    5      5.92      0.00
    6   15    0     -8.51      0.00
    7   15    1      0.17      0.00
    8   15    2     -4.43      0.00
    9   15    3      3.30      0.00
   10   15    4     -0.04      0.00
   11   15    5      3.50      0.00
    0   16    6     -7.14      0.00
    6   16    0     -1.05      0.00
    7   16    1     -0.91      0.00
    8   16    2      2.87      0.00
    9   16    3      4.67      0.00
   10   16    4      1.44      0.00
    6   17    0      0.61      0.00
    7   17    1      3.84      0.00
    8   17    2     -4.50      0.00
    9   17    3     -1.72      0.00
   10   17    4     -2.03      0.00
    6   18    0      8.76      0.00
    7   18    1      0.22      0.00
    8   18    2     -3.27      0.00
    9   18    3     -5.62      0.00
   10   18    4     -1.43      0.00
    6   19    0     -2.17      0.00
    7   19    1      0.82      0.00
    8   19    2     -2.08      0.00
    9   19    3      2.58      0.00
   10   19    4      5.52      0.00
    6   20    0      3.76      0.00
    7   20    1      3.95      0.00
    8   20    2      4.24      0.00
    9   20    3      0.23      0.00
   10   20    4     -1.39      0.00
    6   21    0     -1.95      0.00
    7   21    1     -0.99      0.00
    8   21    2      3.25      0.00
    9   21    3     -7.96      0.00
   10   21    4      0.33      0.00
    6   22    0      3.54      0.00
    7   22    1      4.57      0.00
    8   22    2      1.32      0.00
    9   22    3     -0.26      0.00
   10   22    4      4.82      0.00
    6   23    0      1.63      0.00
    7   23    1      0.05      0.00
    8   23    2     -2.33      0.00
    9   23    3     -4.25      0.00
    6   24    0      8.08      0.00
    7   24    1     -3.20      0.00
    8   24    2     -3.87      0.00
    9   24    3      0.61      0.00
    6   25    0     -9.84      0.00
    7   25    1      4.41      0.00
    8   25    2      0.41      0.00
    9   25    3     -6.03      0.00
    6   26    0     -0.97      0.00
    7   26    1      0.32      0.00
    8   26    2      2.60      0.00
    9   26    3      0.21      0.00
    6   27    0     -1.12      0.00
    7   27    1     -0.30      0.00
    8   27    2     -1.26      0.00
    6   28    0      5.22      0.00
    7   28    1     -4.84      0.00
    8   28    2     -5.91      0.00
    6   29    0     -2.42      0.00
    7   29    1      3.39      0.00
    6   30    0      0.65      0.00
    7   30    1     -2.19      0.00
    6   31    0     -2.40      0.00
    8    0    1    -22.24      0.00
    9    0    2      8.69      0.00
   10    0    3     10.33      0.00
   11    0    4      0.59      0.00
   12    0    5    -14.07      0.00
    8    1    1     14.49      0.00
    9    1    2     -1.95      0.00
   10    1    3     -4.82      0.00
   11    1    4     -7.39      0.00
   12    1    5     -8.03      0.00
    8    2    1     -2.14      0.00
    9    2    2     12.28      0.00
   10    2    3     -4.46      0.00
   11    2    4      0.80      0.00
   12    2    5      6.26      0.00
    8    3    1     -4.54      0.00
    9    3    2     -7.57      0.00
   10    3    3     11.05      0.00
   11    3    4     -2.91      0.00
   12    3    5      3.04      0.00
    8    4    1      5.23      0.00
    9    4    2      2.76      0.00
   10    4    3     11.54      0.00
   11    4    4     -2.72      0.00
   12    4    5     -2.14      0.00
    8    5    1     14.10      0.00
    9    5    2    -11.33      0.00
   10    5    3      0.48      0.00
   11    5    4     -3.96      0.00
   12    5    5     -0.77      0.00
    8    6    1      3.20      0.00
    9    6    2    -13.20      0.00
   10    6    3     -0.10      0.00
   11    6    4      5.12      0.00
   12    6    5     -0.44      0.00
    8    7    1     13.63      0.00
    9    7    2    -13.59      0.00
   10    7    3     13.16      0.00
   11    7    4     -0.78      0.00
   12    7    5      7.75      0.00
    8    8    1     14.92      0.00
    9    8    2     -8.03      0.00
   10    8    3      5.95      0.00
   11    8    4      3.16      0.00
   12    8    5      1.55      0.00
    8    9    1      3.56      0.00
    9    9    2     -6.09      0.00
   10    9    3      2.16      0.00
   11    9    4     -1.44      0.00
   12    9    5      0.00      0.00
    8   10    1     -7.74      0.00
    9   10    2    -11.48      0.00
   10   10    3     -1.06      0.00
   11   10    4      1.99      0.00
   12   10    5      2.34      0.00
    8   11    1     11.44      0.00
    9   11    2     -3.49      0.00
   10   11    3      6.52      0.00
   11   11    4      2.70      0.00
   12   11    5     -2.05      0.00
    8   12    1      2.32      0.00
    9   12    2     -0.36      0.00
   10   12    3     -0.51      0.00
   11   12    4      2.80      0.00
   12   12    5      5.73      0.00
    8   13    1     -5.78      0.00
    9   13    2      5.43      0.00
   10   13    3     -5.25      0.00
   11   13    4      2.47      0.00
   12   13    5      0.80      0.00
    8   14    1     -6.01      0.00
    9   14    2     -2.30      0.00
   10   14    3      1.03      0.00
   11   14    4     -5.73      0.00
   12   14    5      1.47      0.00
    8   15    1     -6.18      0.00
    9   15    2     -6.33      0.00
   10   15    3      0.08      0.00
   11   15    4     -3.01      0.00
    8   16    1     -9.71      0.00
    9   16    2      6.35      0.00
   10   16    3      2.39      0.00
   11   16    4      2.62      0.00
    8   17    1      5.72      0.00
    9   17    2      4.50      0.00
   10   17    3     -1.23      0.00
   11   17    4      2.43      0.00
    8   18    1     -1.76      0.00
    9   18    2     -3.94      0.00
   10   18    3     -2.38      0.00
   11   18    4     -2.96      0.00
    8   19    1     -0.89      0.00
    9   19    2     -7.82      0.00
   10   19    3      0.04      0.00
   11   19    4      0.75      0.00
    8   20    1     -4.68      0.00
    9   20    2      1.32      0.00
   10   20    3      0.30      0.00
   11   20    4     -1.78      0.00
    8   21    1      1.05      0.00
    9   21    2      2.19      0.00
   10   21    3      4.03      0.00
   11   21    4      2.70      0.00
    8   22    1      3.09      0.00
    9   22    2     -3.28      0.00
   10   22    3     -0.27      0.00
    8   23    1      5.30      0.00
    9   23    2     -4.97      0.00
   10   23    3      2.57      0.00
    8   24    1     -1.92      0.00
    9   24    2      1.56      0.00
   10   24    3      0.08      0.00
    8   25    1      0.09      0.00
    9   25    2     -2.04      0.00
   10   25    3     -1.63      0.00
    8   26    1     -2.34      0.00
    9   26    2      2.32      0.00
    8   27    1     10.98      0.00
    9   27    2      3.10      0.00
    8   28    1     -4.72      0.00
    9   28    2     15.48      0.00
    8   29    1      9.67      0.00
    8   30    1     -4.36      0.00
    8    0    0    -40.35      0.00
    9    0    1     -0.33      0.00
   10    0    2     -7.31      0.00
   11    0    3      8.07      0.00
   12    0    4     -2.26      0.00
   13    0    5      0.84      0.00
    8    1    0      1.56      0.00
    9    1    1     -4.77      0.00
   10    1    2     19.22      0.00
   11    1    3     -2.63      0.00
   12    1    4      2.69      0.00
   13    1    5      2.14      0.00
    8    2    0      7.29      0.00
    9    2    1      9.61      0.00
   10    2    2     -6.87      0.00
   11    2    3      2.69      0.00
   12    2    4     -3.59      0.00
   13    2    5     -2.05      0.00
    8    3    0     10.58      0.00
    9    3    1     -9.78      0.00
   10    3    2     -1.22      0.00
   11    3    3     -8.17      0.00
   12    3    4      5.81      0.00
   13    3    5     -0.96      0.00
    8    4    0     -4.63      0.00
    9    4    1    -13.25      0.00
   10    4    2      3.18      0.00
   11    4    3     -2.62      0.00
   12    4    4      2.88      0.00
   13    4    5      1.06      0.00
    8    5    0      8.13      0.00
    9    5    1    -10.00      0.00
   10    5    2      9.28      0.00
   11    5    3     -8.31      0.00
   12    5    4     -1.36      0.00
   13    5    5      3.56      0.00
    8    6    0     18.87      0.00
    9    6    1    -10.42      0.00
   10    6    2      8.09      0.00
   11    6    3     -2.29      0.00
   12    6    4      3.63      0.00
   13    6    5      0.55      0.00
    8    7    0      3.67      0.00
    9    7    1     -1.80      0.00
   10    7    2     -4.55      0.00
   11    7    3      3.22      0.00
   12    7    4      5.11      0.00
   13    7    5     -1.52      0.00
    8    8    0     11.81      0.00
    9    8    1    -13.31      0.00
   10    8    2      6.62      0.00
   11    8    3      0.84      0.00
   12    8    4     -1.10      0.00
   13    8    5      0.99      0.00
    8    9    0     11.12      0.00
    9    9    1      4.11      0.00
   10    9    2    -14.62      0.00
   11    9    3      4.36      0.00
   12    9    4     -9.03      0.00
   13    9    5     -1.72      0.00
    8   10    0     -1.26      0.00
    9   10    1      3.67      0.00
   10   10    2     -2.95      0.00
   11   10    3      1.62      0.00
   12   10    4     -2.10      0.00
   13   10    5     -1.36      0.00
    8   11    0     -0.52      0.00
    9   11    1      1.89      0.00
   10   11    2     -2.91      0.00
   11   11    3      7.38      0.00
   12   11    4      0.29      0.00
   13   11    5     -0.70      0.00
    8   12    0     -0.26      0.00
    9   12    1      1.09      0.00
   10   12    2     -3.66      0.00
   11   12    3      3.24      0.00
   12   12    4     -3.00      0.00
    8   13    0      6.62      0.00
    9   13    1      1.42      0.00
   10   13    2     -0.95      0.00
   11   13    3      0.17      0.00
   12   13    4     -0.43      0.00
    8   14    0      2.77      0.00
    9   14    1      6.35      0.00
   10   14    2     -2.85      0.00
   11   14    3     -1.62      0.00
   12   14    4     -0.12      0.00
    8   15    0      3.38      0.00
    9   15    1     -0.05      0.00
   10   15    2      5.61      0.00
   11   15    3     -0.02      0.00
   12   15    4      5.68      0.00
    8   16    0     -5.61      0.00
    9   16    1     -2.02      0.00
   10   16    2      2.28      0.00
   11   16    3      5.94      0.00
   12   16    4      0.29      0.00
    8   17    0     -5.12      0.00
    9   17    1      3.53      0.00
   10   17    2      8.61      0.00
   11   17    3     -4.60      0.00
   12   17    4      0.47      0.00
    8   18    0     -1.12      0.00
    9   18    1     -4.47      0.00
   10   18    2     -0.42      0.00
   11   18    3     -3.92      0.00
   12   18    4      1.64      0.00
    8   19    0     -2.64      0.00
    9   19    1      1.78      0.00
   10   19    2     -1.64      0.00
   11   19    3      2.93      0.00
   12   19    4     -2.36      0.00
    8   20    0     -9.29      0.00
    9   20    1     -1.99      0.00
   10   20    2      1.44      0.00
   11   20    3     -1.73      0.00
    8   21    0     -3.20      0.00
    9   21    1      1.23      0.00
   10   21    2      2.26      0.00
   11   21    3      1.09      0.00
    8   22    0    -16.40      0.00
    9   22    1      1.11      0.00
   10   22    2      0.42      0.00
   11   22    3     -6.23      0.00
    8   23    0      2.28      0.00
    9   23    1     -3.18      0.00
   10   23    2      3.51      0.00
   11   23    3      7.94      0.00
    8   24    0     -0.18      0.00
    9   24    1      1.59      0.00
   10   24    2     -2.37      0.00
   11   24    3      0.18      0.00
    8   25    0      3.23      0.00
    9   25    1     -4.18      0.00
   10   25    2      1.07      0.00
    8   26    0     -4.08      0.00
    9   26    1      2.92      0.00
   10   26    2      2.96      0.00
    8   27    0      0.06      0.00
    9   27    1     -4.97      0.00
   10   27    2      0.55      0.00
    8   28    0      9.10      0.00
    9   28    1     -0.94      0.00
    8   29    0     -2.00      0.00
    9   29    1      4.89      0.00
    8   30    0      1.46      0.00
   10    0    1    -11.61      0.00
   11    0    2    -12.05      0.00
   12    0    3      8.78      0.00
   13    0    4     -1.73      0.00
   14    0    5     -4.44      0.00
   10    1    1      2.05      0.00
   11    1    2     -4.83      0.00
   12    1    3     -2.14      0.00
   13    1    4      0.39      0.00
   14    1    5     -5.96      0.00
   10    2    1     19.45      0.00
   11    2    2     -6.48      0.00
   12    2    3     -1.28      0.00
   13    2    4     -1.45      0.00
   14    2    5      3.36      0.00
   10    3    1      3.11      0.00
   11    3    2      1.13      0.00
   12    3    3     -0.68      0.00
   13    3    4      5.40      0.00
   14    3    5     16.38      0.00
   10    4    1    -11.57      0.00
   11    4    2     -5.41      0.00
   12    4    3      7.91      0.00
   13    4    4     -4.63      0.00
   14    4    5     -6.09      0.00
   10    5    1     -1.25      0.00
   11    5    2      4.28      0.00
   12    5    3     -4.04      0.00
   13    5    4     -1.27      0.00
   14    5    5     -1.94      0.00
   10    6    1     -1.87      0.00
   11    6    2      3.56      0.00
   12    6    3     -4.59      0.00
   13    6    4      3.29      0.00
   14    6    5     -4.53      0.00
   10    7    1     -2.41      0.00
   11    7    2      1.48      0.00
   12    7    3     -0.62      0.00
   13    7    4      2.88      0.00
   14    7    5      1.86      0.00
   10    8    1      0.59      0.00
   11    8    2     10.51      0.00
   12    8    3      0.43      0.00
   13    8    4     -7.88      0.00
   14    8    5     -1.92      0.00
   10    9    1     -3.74      0.00
   11    9    2      4.23      0.00
   12    9    3     -5.98      0.00
   13    9    4     -1.77      0.00
   14    9    5      2.59      0.00
   10   10    1     -7.24      0.00
   11   10    2      4.87      0.00
   12   10    3     -7.49      0.00
   13   10    4     -1.07      0.00
   10   11    1     -2.15      0.00
   11   11    2     -3.87      0.00
   12   11    3      6.42      0.00
   13   11    4     -3.89      0.00
   10   12    1      5.42      0.00
   11   12    2      5.99      0.00
   12   12    3     -0.08      0.00
   13   12    4      2.19      0.00
   10   13    1      1.77      0.00
   11   13    2      1.89      0.00
   12   13    3     -3.41      0.00
   13   13    4     -1.99      0.00
   10   14    1      9.00      0.00
   11   14    2     -2.56      0.00
   12   14    3     -2.46      0.00
   13   14    4      0.73      0.00
   10   15    1      2.36      0.00
   11   15    2     -5.69      0.00
   12   15    3     -2.60      0.00
   13   15    4     -4.26      0.00
   10   16    1      6.14      0.00
   11   16    2     -1.71      0.00
   12   16    3      1.80      0.00
   13   16    4      4.29      0.00
   10   17    1      2.14      0.00
   11   17    2      7.15      0.00
   12   17    3     -1.48      0.00
   13   17    4      0.50      0.00
   10   18    1     12.71      0.00
   11   18    2     -1.47      0.00
   12   18    3     -0.81      0.00
   13   18    4      0.58      0.00
   10   19    1      4.41      0.00
   11   19    2    -10.79      0.00
   12   19    3     -4.58      0.00
   10   20    1      0.50      0.00
   11   20    2      2.74      0.00
   12   20    3      1.82      0.00
   10   21    1      1.89      0.00
   11   21    2      0.79      0.00
   12   21    3     -2.55      0.00
   10   22    1     -1.18      0.00
   11   22    2     -0.57      0.00
   12   22    3     -1.73      0.00
   10   23    1      2.58      0.00
   11   23    2     -1.41      0.00
   12   23    3     -2.58      0.00
   10   24    1     -0.19      0.00
   11   24    2      5.12      0.00
   10   25    1     -3.28      0.00
   11   25    2      3.63      0.00
   10   26    1     -2.37      0.00
   11   26    2     -4.31      0.00
   10   27    1     -1.21      0.00
   10   28    1     -0.36      0.00
   10    0    0     -4.55      0.00
   11    0    1     -6.86      0.00
   12    0    2     -4.39      0.00
   13    0    3     -8.51      0.00
   14    0    4      9.04      0.00
   15    0    5      2.19      0.00
   10    1    0    -10.36      0.00
   11    1    1      1.31      0.00
   12    1    2     16.77      0.00
   13    1    3      0.59      0.00
   14    1    4      5.14      0.00
   15    1    5      3.13      0.00
   10    2    0      3.34      0.00
   11    2    1      8.99      0.00
   12    2    2     13.66      0.00
   13    2    3     -4.01      0.00
   14    2    4     -0.45      0.00
   15    2    5     -3.14      0.00
   10    3    0     18.92      0.00
   11    3    1     -5.21      0.00
   12    3    2     -9.44      0.00
   13    3    3     -1.70      0.00
   14    3    4      2.08      0.00
   15    3    5     -3.50      0.00
   10    4    0     -7.80      0.00
   11    4    1      6.62      0.00
   12    4    2     -9.74      0.00
   13    4    3      3.34      0.00
   14    4    4     -2.73      0.00
   15    4    5     -4.15      0.00
   10    5    0     -2.68      0.00
   11    5    1      3.60      0.00
   12    5    2      8.66      0.00
   13    5    3      1.07      0.00
   14    5    4      1.04      0.00
   10    6    0     -0.40      0.00
   11    6    1     14.81      0.00
   12    6    2     -5.65      0.00
   13    6    3      7.17      0.00
   14    6    4     -6.85      0.00
   10    7    0     -3.74      0.00
   11    7    1      2.56      0.00
   12    7    2     -2.05      0.00
   13    7    3      1.86      0.00
   14    7    4      0.09      0.00
   10    8    0     -4.68      0.00
   11    8    1      1.42      0.00
   12    8    2     -5.03      0.00
   13    8    3     -0.09      0.00
   14    8    4      2.69      0.00
   10    9    0      3.04      0.00
   11    9    1      3.93      0.00
   12    9    2     -1.23      0.00
   13    9    3      1.74      0.00
   14    9    4     -2.79      0.00
   10   10    0      1.40      0.00
   11   10    1      1.46      0.00
   12   10    2     -0.24      0.00
   13   10    3     -5.16      0.00
   14   10    4      6.26      0.00
   10   11    0     -5.31      0.00
   11   11    1      6.24      0.00
   12   11    2     -1.40      0.00
   13   11    3      2.08      0.00
   14   11    4      3.46      0.00
   10   12    0     -7.25      0.00
   11   12    1     -5.81      0.00
   12   12    2      4.93      0.00
   13   12    3     -4.25      0.00
   14   12    4      3.49      0.00
   10   13    0     -2.87      0.00
   11   13    1     -0.97      0.00
   12   13    2     -0.43      0.00
   13   13    3     -0.12      0.00
   14   13    4     -2.48      0.00
   10   14    0     -0.99      0.00
   11   14    1      7.01      0.00
   12   14    2     -1.40      0.00
   13   14    3     -3.78      0.00
   14   14    4      6.99      0.00
   10   15    0      3.13      0.00
   11   15    1     -5.61      0.00
   12   15    2     -2.32      0.00
   13   15    3      1.52      0.00
   14   15    4     -1.72      0.00
   10   16    0     -5.88      0.00
   11   16    1      4.17      0.00
   12   16    2     -6.78      0.00
   13   16    3     -0.81      0.00
   14   16    4     -3.37      0.00
   10   17    0     -6.62      0.00
   11   17    1     -3.99      0.00
   12   17    2      0.92      0.00
   13   17    3     -0.25      0.00
   10   18    0      0.61      0.00
   11   18    1      3.75      0.00
   12   18    2     -0.51      0.00
   13   18    3      0.70      0.00
   10   19    0     -0.05      0.00
   11   19    1     -1.84      0.00
   12   19    2     -1.96      0.00
   13   19    3      0.43      0.00
   10   20    0     14.21      0.00
   11   20    1     -2.13      0.00
   12   20    2     -0.90      0.00
   13   20    3      8.81      0.00
   10   21    0     -0.60      0.00
   11   21    1      2.71      0.00
   12   21    2     -2.18      0.00
   13   21    3      1.27      0.00
   10   22    0      6.94      0.00
   11   22    1     -4.11      0.00
   12   22    2      1.65      0.00
   13   22    3      4.69      0.00
   10   23    0     -1.00      0.00
   11   23    1      4.22      0.00
   12   23    2     -2.78      0.00
   10   24    0      6.25      0.00
   11   24    1     -3.60      0.00
   12   24    2      2.19      0.00
   10   25    0      6.57      0.00
   11   25    1      3.92      0.00
   12   25    2     -4.61      0.00
   10   26    0     -6.16      0.00
   11   26    1      2.67      0.00
   10   27    0      5.04      0.00
   11   27    1     -2.68      0.00
   10   28    0     -4.25      0.00
   10   29    0      4.33      0.00
   12    0    1    -19.39      0.00
   13    0    2     -2.99      0.00
   14    0    3      0.54      0.00
   15    0    4      4.77      0.00
   12    1    1    -16.39      0.00
   13    1    2     -1.36      0.00
   14    1    3      4.13      0.00
   15    1    4     -2.56      0.00
   12    2    1     11.42      0.00
   13    2    2      3.74      0.00
   14    2    3     -3.83      0.00
   15    2    4      5.48      0.00
   12    3    1      6.55      0.00
   13    3    2      4.52      0.00
   14    3    3      1.25      0.00
   15    3    4     -4.16      0.00
   12    4    1     -8.40      0.00
   13    4    2     -1.64      0.00
   14    4    3     -2.90      0.00
   15    4    4     -0.01      0.00
   12    5    1     -9.19      0.00
   13    5    2      0.89      0.00
   14    5    3      1.46      0.00
   15    5    4     -6.62      0.00
   12    6    1      6.00      0.00
   13    6    2      0.06      0.00
   14    6    3     -0.23      0.00
   15    6    4      9.10      0.00
   12    7    1      1.43      0.00
   13    7    2     -3.53      0.00
   14    7    3     -0.86      0.00
   15    7    4      0.81      0.00
   12    8    1     -0.60      0.00
   13    8    2     -4.47      0.00
   14    8    3      7.78      0.00
   15    8    4     -0.98      0.00
   12    9    1      3.55      0.00
   13    9    2      1.33      0.00
   14    9    3     -4.58      0.00
   15    9    4     -2.43      0.00
   12   10    1      1.37      0.00
   13   10    2     -2.44      0.00
   14   10    3      0.96      0.00
   15   10    4      7.32      0.00
   12   11    1      2.90      0.00
   13   11    2     -1.21      0.00
   14   11    3     -0.23      0.00
   15   11    4      2.11      0.00
   12   12    1     -6.03      0.00
   13   12    2     -0.96      0.00
   14   12    3      0.42      0.00
   15   12    4     -1.95      0.00
   12   13    1      3.32      0.00
   13   13    2      0.47      0.00
   14   13    3     -0.04      0.00
   15   13    4      6.02      0.00
   12   14    1     -3.39      0.00
   13   14    2      0.83      0.00
   14   14    3     -4.61      0.00
   15   14    4      1.72      0.00
   12   15    1      3.26      0.00
   13   15    2     -4.24      0.00
   14   15    3      6.41      0.00
   12   16    1     -8.22      0.00
   13   16    2      1.01      0.00
   14   16    3     -2.59      0.00
   12   17    1     -4.02      0.00
   13   17    2      4.78      0.00
   14   17    3      7.76      0.00
   12   18    1     -3.13      0.00
   13   18    2      0.35      0.00
   14   18    3      3.21      0.00
   12   19    1     -1.59      0.00
   13   19    2     -0.36      0.00
   14   19    3      1.34      0.00
   12   20    1     -0.06      0.00
   13   20    2     -2.00      0.00
   14   20    3     -0.35      0.00
   12   21    1     -5.53      0.00
   13   21    2      7.26      0.00
   12   22    1      1.92      0.00
   13   22    2      0.84      0.00
   12   23    1      0.47      0.00
   13   23    2     -2.64      0.00
   12   24    1      1.82      0.00
   13   24    2      1.21      0.00
   12   25    1     -1.55      0.00
   12   26    1      3.39      0.00
   12    0    0     17.35      0.00
   13    0    1     -4.29      0.00
   14    0    2    -14.51      0.00
   15    0    3      8.03      0.00
   16    0    4      4.32      0.00
   12    1    0    -10.72      0.00
   13    1    1      6.30      0.00
   14    1    2      7.27      0.00
   15    1    3      3.91      0.00
   16    1    4      1.08      0.00
   12    2    0     -5.98      0.00
   13    2    1      0.73      0.00
   14    2    2     13.47      0.00
   15    2    3     -1.40      0.00
   16    2    4     -2.39      0.00
   12    3    0      7.65      0.00
   13    3    1     -0.40      0.00
   14    3    2    -11.13      0.00
   15    3    3     -0.47      0.00
   16    3    4     -8.83      0.00
   12    4    0      6.39      0.00
   13    4    1     -4.86      0.00
   14    4    2    -10.53      0.00
   15    4    3     -0.47      0.00
   16    4    4      4.08      0.00
   12    5    0     -0.81      0.00
   13    5    1      1.31      0.00
   14    5    2      4.21      0.00
   15    5    3      0.17      0.00
   16    5    4      3.03      0.00
   12    6    0     -3.63      0.00
   13    6    1      1.15      0.00
   14    6    2      2.38      0.00
   15    6    3     -2.88      0.00
   16    6    4     -2.50      0.00
   12    7    0      0.18      0.00
   13    7    1     -8.17      0.00
   14    7    2     -0.75      0.00
   15    7    3     -6.86      0.00
   16    7    4      2.98      0.00
   12    8    0     -0.59      0.00
   13    8    1      2.00      0.00
   14    8    2     -0.74      0.00
   15    8    3     -2.25      0.00
   16    8    4     -2.82      0.00
   12    9    0     -3.63      0.00
   13    9    1     -3.31      0.00
   14    9    2      6.03      0.00
   15    9    3     -2.30      0.00
   16    9    4      3.12      0.00
   12   10    0     10.52      0.00
   13   10    1      1.41      0.00
   14   10    2      2.02      0.00
   15   10    3      4.13      0.00
   16   10    4     -4.33      0.00
   12   11    0     -2.61      0.00
   13   11    1     -1.04      0.00
   14   11    2     -2.81      0.00
   15   11    3     -0.46      0.00
   16   11    4     -0.61      0.00
   12   12    0     -1.25      0.00
   13   12    1     -6.71      0.00
   14   12    2      5.57      0.00
   15   12    3     -0.21      0.00
   16   12    4     -6.49      0.00
   12   13    0     -6.71      0.00
   13   13    1     -1.21      0.00
   14   13    2     -3.07      0.00
   15   13    3      0.68      0.00
   12   14    0      1.68      0.00
   13   14    1     -5.39      0.00
   14   14    2     12.60      0.00
   15   14    3      1.33      0.00
   12   15    0      9.36      0.00
   13   15    1      4.42      0.00
   14   15    2     -2.51      0.00
   15   15    3      2.72      0.00
   12   16    0      4.65      0.00
   13   16    1     -5.88      0.00
   14   16    2      4.24      0.00
   15   16    3     -1.07      0.00
   12   17    0      4.85      0.00
   13   17    1     -1.09      0.00
   14   17    2     -0.33      0.00
   15   17    3      0.33      0.00
   12   18    0     -5.90      0.00
   13   18    1      4.70      0.00
   14   18    2      1.71      0.00
   15   18    3     -0.02      0.00
   12   19    0      6.30      0.00
   13   19    1     -4.35      0.00
   14   19    2      0.35      0.00
   15   19    3      2.73      0.00
   12   20    0     -1.20      0.00
   13   20    1      4.67      0.00
   14   20    2     -4.11      0.00
   12   21    0      2.63      0.00
   13   21    1     -3.00      0.00
   14   21    2     -2.66      0.00
   12   22    0     -2.40      0.00
   13   22    1      5.68      0.00
   14   22    2     -3.04      0.00
   12   23    0     -2.66      0.00
   13   23    1     -1.59      0.00
   14   23    2     -0.17      0.00
   12   24    0      0.32      0.00
   13   24    1     -2.69      0.00
   12   25    0     -8.01      0.00
   13   25    1     -1.64      0.00
   12   26    0      1.61      0.00
   12   27    0     -5.74      0.00
   14    0    1     -2.18      0.00
   15    0    2     -3.69      0.00
   16    0    3      2.19      0.00
   17    0    4     -4.30      0.00
   14    1    1    -14.21      0.00
   15    1    2     -4.96      0.00
   16    1    3      2.41      0.00
   17    1    4      4.95      0.00
   14    2    1      2.35      0.00
   15    2    2      0.56      0.00
   16    2    3      6.38      0.00
   17    2    4     -1.26      0.00
   14    3    1     19.50      0.00
   15    3    2     -5.33      0.00
   16    3    3     -3.47      0.00
   17    3    4      8.65      0.00
   14    4    1     -4.46      0.00
   15    4    2     -7.15      0.00
   16    4    3      1.92      0.00
   17    4    4     -2.12      0.00
   14    5    1     -3.37      0.00
   15    5    2     -1.09      0.00
   16    5    3      2.65      0.00
   17    5    4      1.47      0.00
   14    6    1      4.47      0.00
   15    6    2      0.33      0.00
   16    6    3     -0.34      0.00
   17    6    4      3.69      0.00
   14    7    1      5.55      0.00
   15    7    2      0.42      0.00
   16    7    3      3.43      0.00
   17    7    4      3.71      0.00
   14    8    1     -5.42      0.00
   15    8    2     -6.01      0.00
   16    8    3     -5.88      0.00
   17    8    4     -5.87      0.00
   14    9    1     -3.24      0.00
   15    9    2     -0.21      0.00
   16    9    3      4.68      0.00
   14   10    1      5.15      0.00
   15   10    2      0.08      0.00
   16   10    3     -0.29      0.00
   14   11    1      0.11      0.00
   15   11    2      0.65      0.00
   16   11    3      0.87      0.00
   14   12    1     -2.25      0.00
   15   12    2      0.42      0.00
   16   12    3      4.31      0.00
   14   13    1     -3.08      0.00
   15   13    2     -0.22      0.00
   16   13    3     -2.26      0.00
   14   14    1      4.47      0.00
   15   14    2     -1.02      0.00
   16   14    3      7.64      0.00
   14   15    1      2.67      0.00
   15   15    2      1.33      0.00
   16   15    3     -0.13      0.00
   14   16    1      0.13      0.00
   15   16    2     -1.53      0.00
   16   16    3     -0.85      0.00
   14   17    1      0.25      0.00
   15   17    2     -2.26      0.00
   16   17    3     -1.28      0.00
   14   18    1     -2.97      0.00
   15   18    2     -1.05      0.00
   14   19    1      4.46      0.00
   15   19    2     -4.29      0.00
   14   20    1      0.09      0.00
   15   20    2     -3.45      0.00
   14   21    1      0.13      0.00
   15   21    2      0.19      0.00
   14   22    1     -0.26      0.00
   14   23    1      3.21      0.00
   14   24    1     -3.60      0.00
   12   27    1     -4.29      0.00
   15    0    1      7.08      0.00
   16    0    2    -13.48      0.00
   17    0    3      8.38      0.00
   18    0    4     -0.16      0.00
   14    1    0      1.58      0.00
   15    1    1      0.53      0.00
   16    1    2      1.56      0.00
   17    1    3      4.21      0.00
   18    1    4      5.39      0.00
   14    2    0    -25.26      0.00
   15    2    1     -2.18      0.00
   16    2    2      7.51      0.00
   17    2    3     -8.21      0.00
   14    3    0     -5.74      0.00
   15    3    1     -5.33      0.00
   16    3    2     -1.30      0.00
   17    3    3     -6.53      0.00
   14    4    0      2.33      0.00
   15    4    1      3.71      0.00
   16    4    2     -3.82      0.00
   17    4    3      7.13      0.00
   14    5    0      1.55      0.00
   15    5    1      5.63      0.00
   16    5    2      2.81      0.00
   17    5    3      2.94      0.00
   14    6    0     -9.37      0.00
   15    6    1      0.26      0.00
   16    6    2      6.49      0.00
   17    6    3      8.11      0.00
   14    7    0      5.08      0.00
   15    7    1     -6.47      0.00
   16    7    2     -2.97      0.00
   17    7    3      2.78      0.00
   14    8    0     -7.97      0.00
   15    8    1     -2.87      0.00
   16    8    2      0.95      0.00
   17    8    3      3.23      0.00
   14    9    0      1.00      0.00
   15    9    1      0.92      0.00
   16    9    2      2.87      0.00
   17    9    3      2.94      0.00
   14   10    0     -5.03      0.00
   15   10    1      0.36      0.00
   16   10    2     -2.21      0.00
   17   10    3      6.53      0.00
   14   11    0      9.48      0.00
   15   11    1     -1.13      0.00
   16   11    2      3.35      0.00
   17   11    3      3.49      0.00
   14   12    0      5.29      0.00
   15   12    1      1.22      0.00
   16   12    2     -8.93      0.00
   17   12    3     -3.14      0.00
   14   13    0     -4.50      0.00
   15   13    1     -0.53      0.00
   16   13    2      0.46      0.00
   17   13    3     -1.94      0.00
   14   14    0      2.79      0.00
   15   14    1     -0.07      0.00
   16   14    2     -5.73      0.00
   17   14    3     -0.42      0.00
   14   15    0     -1.53      0.00
   15   15    1      5.34      0.00
   16   15    2     -1.18      0.00
   17   15    3      4.95      0.00
   14   16    0      3.07      0.00
   15   16    1     -1.96      0.00
   16   16    2     -6.31      0.00
   14   17    0     -2.11      0.00
   15   17    1      3.60      0.00
   16   17    2     -3.30      0.00
   14   18    0     -3.58      0.00
   15   18    1     -3.09      0.00
   16   18    2     -0.48      0.00
   14   19    0     -0.68      0.00
   15   19    1      0.90      0.00
   16   19    2      1.30      0.00
   14   20    0      1.21      0.00
   15   20    1     -7.36      0.00
   16   20    2      1.46      0.00
   14   21    0     -0.80      0.00
   15   21    1     -1.90      0.00
   14   22    0     -6.05      0.00
   15   22    1      0.73      0.00
   14   23    0      5.71      0.00
   15   23    1      1.51      0.00
   14   24    0     -1.90      0.00
   14   25    0      1.87      0.00
   16    0    1     19.68      0.00
   17    0    2     -5.84      0.00
   18    0    3     -7.79      0.00
   16    1    1    -11.42      0.00
   17    1    2      5.54      0.00
   18    1    3      0.95      0.00
   16    2    1      3.33      0.00
   17    2    2      1.49      0.00
   18    2    3     -3.86      0.00
   16    3    1      4.51      0.00
   17    3    2      5.16      0.00
   18    3    3     -2.36      0.00
   16    4    1      3.75      0.00
   17    4    2      0.12      0.00
   18    4    3     -5.87      0.00
   16    5    1     -9.00      0.00
   17    5    2      1.43      0.00
   18    5    3      0.13      0.00
   16    6    1      3.49      0.00
   17    6    2      7.89      0.00
   18    6    3      2.40      0.00
   16    7    1      4.17      0.00
   17    7    2      0.71      0.00
   18    7    3     -1.38      0.00
   16    8    1     -3.15      0.00
   17    8    2      0.22      0.00
   18    8    3     -1.64      0.00
   16    9    1     -3.91      0.00
   17    9    2      0.66      0.00
   18    9    3      0.85      0.00
   16   10    1      5.80      0.00
   17   10    2     -0.98      0.00
   18   10    3      2.50      0.00
   16   11    1      4.19      0.00
   17   11    2      4.51      0.00
   18   11    3      2.22      0.00
   16   12    1      1.08      0.00
   17   12    2     -1.65      0.00
   18   12    3     -4.48      0.00
   16   13    1     -4.38      0.00
   17   13    2     -5.42      0.00
   16   14    1      2.62      0.00
   17   14    2     -3.65      0.00
   16   15    1     -0.41      0.00
   17   15    2     -0.68      0.00
   16   16    1      5.46      0.00
   17   16    2      1.82      0.00
   16   17    1      0.06      0.00
   17   17    2     -0.66      0.00
   16   18    1      6.26      0.00
   17   18    2      1.10      0.00
   16   19    1      2.09      0.00
   16   20    1      2.78      0.00
   16   21    1     -5.13      0.00
   16    0    0     18.91      0.00
   17    0    1     13.00      0.00
   18    0    2      3.62      0.00
   19    0    3     10.37      0.00
   16    1    0     14.48      0.00
   17    1    1      7.07      0.00
   18    1    2     -3.41      0.00
   19    1    3     13.00      0.00
   16    2    0     -3.63      0.00
   17    2    1    -12.98      0.00
   18    2    2      4.58      0.00
   19    2    3     -6.02      0.00
   16    3    0     -5.84      0.00
   17    3    1     -6.54      0.00
   18    3    2      3.68      0.00
   19    3    3      0.99      0.00
   16    4    0     13.22      0.00
   17    4    1      0.58      0.00
   18    4    2      1.60      0.00
   19    4    3      3.14      0.00
   16    5    0      0.54      0.00
   17    5    1      4.95      0.00
   18    5    2      4.49      0.00
   19    5    3      5.30      0.00
   16    6    0     -0.90      0.00
   17    6    1     -0.97      0.00
   18    6    2      0.24      0.00
   19    6    3     -2.06      0.00
   16    7    0      2.49      0.00
   17    7    1     -3.41      0.00
   18    7    2      1.79      0.00
   19    7    3      0.15      0.00
   16    8    0      8.39      0.00
   17    8    1     -1.64      0.00
   18    8    2     -2.10      0.00
   19    8    3     -4.35      0.00
   16    9    0      1.04      0.00
   17    9    1      1.87      0.00
   18    9    2     -1.22      0.00
   16   10    0     -4.16      0.00
   17   10    1      4.93      0.00
   18   10    2     -2.59      0.00
   16   11    0      4.29      0.00
   17   11    1      0.32      0.00
   18   11    2      1.88      0.00
   16   12    0     -0.61      0.00
   17   12    1      6.48      0.00
   18   12    2      1.85      0.00
   16   13    0      1.05      0.00
   17   13    1     -1.66      0.00
   18   13    2     -1.98      0.00
   16   14    0     -3.51      0.00
   17   14    1      1.31      0.00
   18   14    2      2.69      0.00
   16   15    0      1.91      0.00
   17   15    1     -2.09      0.00
   18   15    2      2.87      0.00
   16   16    0      4.81      0.00
   17   16    1      0.94      0.00
   18   16    2      2.52      0.00
   16   17    0     -0.12      0.00
   17   17    1     -0.92      0.00
   16   18    0     -0.49      0.00
   17   18    1      0.71      0.00
   16   19    0     -2.80      0.00
   17   19    1      0.68      0.00
   16   20    0      6.87      0.00
   17   20    1      1.06      0.00
   16   21    0      0.04      0.00
   16   22    0      1.99      0.00
   18    0    1     -3.85      0.00
   19    0    2      3.09      0.00
   18    1    1     -0.44      0.00
   19    1    2      1.10      0.00
   18    2    1    -16.60      0.00
   19    2    2      6.26      0.00
   18    3    1     -0.97      0.00
   19    3    2     -4.45      0.00
   18    4    1      0.24      0.00
   19    4    2     -4.85      0.00
   18    5    1     -7.12      0.00
   19    5    2     -0.98      0.00
   18    6    1      4.63      0.00
   19    6    2     -3.48      0.00
   18    7    1      2.84      0.00
   19    7    2     -2.06      0.00
   18    8    1     -0.40      0.00
   19    8    2      1.00      0.00
   18    9    1     -6.59      0.00
   19    9    2     -6.90      0.00
   18   10    1     -1.00      0.00
   19   10    2     -0.70      0.00
   18   11    1     -3.46      0.00
   19   11    2      1.31      0.00
   18   12    1     -0.34      0.00
   19   12    2      1.77      0.00
   18   13    1     -0.34      0.00
   19   13    2      2.41      0.00
   18   14    1     -2.64      0.00
   18   15    1      0.33      0.00
   18   16    1     -6.64      0.00
   18   17    1     -6.09      0.00
   18   18    1     -9.67      0.00
   15   22    2     -1.71      0.00
   18    0    0      4.11      0.00
   19    0    1      7.30      0.00
   20    0    2      1.15      0.00
   18    1    0     10.13      0.00
   19    1    1     10.94      0.00
   20    1    2     -1.56      0.00
   18    2    0     -4.96      0.00
   19    2    1     -9.41      0.00
   20    2    2    -13.68      0.00
   18    3    0     -3.41      0.00
   19    3    1    -10.64      0.00
   20    3    2      0.48      0.00
   18    4    0      6.54      0.00
   19    4    1      5.98      0.00
   20    4    2     -7.30      0.00
   18    5    0      5.52      0.00
   19    5    1      0.46      0.00
   20    5    2     -6.40      0.00
   18    6    0     -8.08      0.00
   19    6    1      0.86      0.00
   20    6    2     -7.01      0.00
   18    7    0      3.26      0.00
   19    7    1     -0.34      0.00
   20    7    2     -1.07      0.00
   18    8    0      2.81      0.00
   19    8    1     -1.10      0.00
   20    8    2     -1.21      0.00
   18    9    0     -2.24      0.00
   19    9    1     -0.85      0.00
   20    9    2     -1.01      0.00
   18   10    0     -2.15      0.00
   19   10    1     -2.40      0.00
   20   10    2     -5.60      0.00
   18   11    0     -3.25      0.00
   19   11    1     -0.36      0.00
   18   12    0      1.21      0.00
   19   12    1     -1.44      0.00
   18   13    0     -2.37      0.00
   19   13    1     -3.73      0.00
   18   14    0     -0.81      0.00
   19   14    1     -5.58      0.00
   18   15    0     -6.38      0.00
   19   15    1     -2.08      0.00
   18   16    0      1.54      0.00
   18   17    0     -0.20      0.00
   18   18    0     -2.58      0.00
   20    0    1     12.16      0.00
   21    0    2    -10.45      0.00
   20    1    1      9.69      0.00
   21    1    2      0.67      0.00
   20    2    1      1.90      0.00
   21    2    2      0.56      0.00
   20    3    1      5.38      0.00
   21    3    2     -1.92      0.00
   20    4    1      4.10      0.00
   20    5    1      2.60      0.00
   20    6    1     -3.02      0.00
   20    7    1     10.01      0.00
   20    8    1     -3.58      0.00
   20    9    1      8.44      0.00
   20   10    1      0.93      0.00
   20   11    1      5.86      0.00
   20   12    1     -0.35      0.00
   20    0    0      1.56      0.00
   21    0    1      4.52      0.00
   20    1    0      2.79      0.00
   21    1    1      8.45      0.00
   20    2    0     -3.75      0.00
   21    2    1     -1.37      0.00
   20    3    0     -7.62      0.00
   21    3    1     -0.67      0.00
   20    4    0      7.97      0.00
   21    4    1      2.15      0.00
   20    5    0     -7.49      0.00
   21    5    1      6.30      0.00
   20    6    0     -1.66      0.00
   21    6    1      0.68      0.00
   20    7    0     -4.08      0.00
   21    7    1      2.57      0.00
   20    8    0      6.37      0.00
   21    8    1      3.97      0.00
   20    9    0     -4.67      0.00
   20   10    0     -1.13      0.00
   20   11    0      2.81      0.00
   20   12    0     -5.82      0.00
   20   13    0      3.57      0.00
   22    0    0      1.90      0.00
   22    1    0      2.93      0.00
   22    2    0     -2.09      0.00
    2    0    0   -187.02      0.00
   14    0    0      8.29      0.00
    0    2    0    194.61      0.00
   22    3    0      6.37      0.00
   22    4    0      1.35      0.00
   22    5    0      6.07      0.00
   22    6    0    -10.35      0.00
   22    7    0      6.92      0.00
   22    8    0     -0.24      0.00
   22    9    0     -2.31      0.00
   22   10    0      1.83      0.00
   22   11    0      6.97      0.00
   22   12    0      4.51      0.00
   22   13    0     -2.42      0.00
   20   14    0     -0.28      0.00
   22   14    0      4.44      0.00
   20   15    0      4.73      0.00
   22   15    0     -1.95      0.00
   20   16    0     -1.31      0.00
   22   16    0      1.19      0.00
   20   17    0      6.19      0.00
   22   17    0      3.02      0.00
   20   18    0     -7.30      0.00
   22   18    0      3.35      0.00
   18   19    0     -0.15      0.00
   20   19    0     -7.11      0.00
   22   19    0     -0.12      0.00
   18   20    0      7.03      0.00
   20   20    0     -0.40      0.00
   22   20    0      7.20      0.00
   18   21    0      0.68      0.00
   20   21    0     -0.43      0.00
   22   21    0      6.17      0.00
   18   22    0     -6.05      0.00
   20   22    0     -5.79      0.00
   22   22    0      1.73      0.00
   16   23    0      4.36      0.00
   18   23    0     -3.23      0.00
   20   23    0      3.23      0.00
   22   23    0      0.65      0.00
   16   24    0      5.52      0.00
   18   24    0     -5.21      0.00
   20   24    0      2.82      0.00
   22   24    0      2.37      0.00
   16   25    0     -2.13      0.00
   18   25    0     -7.69      0.00
   20   25    0      1.12      0.00
   22   25    0     -1.14      0.00
   14   26    0      3.78      0.00
   16   26    0      2.33      0.00
   18   26    0     -3.04      0.00
   20   26    0      5.59      0.00
   22   26    0     -0.10      0.00
   14   27    0      3.54      0.00
   16   27    0      3.95      0.00
   18   27    0      2.01      0.00
   20   27    0      5.19      0.00
   22   27    0      0.10      0.00
   12   28    0      6.48      0.00
   14   28    0     -0.59      0.00
   16   28    0     -4.94      0.00
   18   28    0     -2.80      0.00
   20   28    0      4.25      0.00
   22   28    0     -2.88      0.00
   12   29    0     -0.06      0.00
   14   29    0     -2.58      0.00
   16   29    0     -3.12      0.00
   18   29    0     -2.85      0.00
   20   29    0     -0.25      0.00
   22   29    0     -2.82      0.00
   10   30    0    -12.66      0.00
   12   30    0      2.08      0.00
   14   30    0     -0.30      0.00
   16   30    0      0.86      0.00
   18   30    0     -2.11      0.00
   20   30    0      1.72      0.00
   22   30    0      0.09      0.00
    8   31    0      0.81      0.00
   10   31    0      3.48      0.00
   12   31    0      0.31      0.00
   14   31    0     -1.15      0.00
   16   31    0      2.38      0.00
   18   31    0      6.33      0.00
   20   31    0      0.36      0.00
   22   31    0     -1.80      0.00
    6   32    0      5.93      0.00
    8   32    0      0.84      0.00
   10   32    0      0.87      0.00
   12   32    0      5.11      0.00
   14   32    0      0.36      0.00
   16   32    0      0.70      0.00
   18   32    0     -0.32      0.00
   20   32    0      1.50      0.00
   22   32    0      1.47      0.00
    2   33    0     -0.84      0.00
    4   33    0      1.45      0.00
    6   33    0     -2.32      0.00
    8   33    0     -1.36      0.00
   10   33    0      0.09      0.00
   12   33    0     -1.62      0.00
   14   33    0     -1.33      0.00
   16   33    0     -2.63      0.00
   18   33    0      3.01      0.00
   20   33    0     -2.62      0.00
   22   33    0     -0.97      0.00
   22    0    1     -3.20      0.00
   23    0    1     -1.09      0.00
   22    1    1      2.97      0.00
   23    1    1     -0.90      0.00
   22    2    1     -3.22      0.00
   23    2    1      0.02      0.00
   22    3    1     -6.37      0.00
   23    3    1     -1.24      0.00
   22    4    1     -0.75      0.00
   23    4    1     -1.13      0.00
   22    5    1     -4.85      0.00
   23    5    1     -4.01      0.00
   22    6    1     -2.39      0.00
   23    6    1     -3.97      0.00
   22    7    1     -3.17      0.00
   23    7    1     -0.66      0.00
   22    8    1      0.58      0.00
   23    8    1     -0.93      0.00
   21    9    1     -2.86      0.00
   22    9    1     -6.60      0.00
   23    9    1      0.14      0.00
   21   10    1     -2.65      0.00
   22   10    1      1.50      0.00
   23   10    1     -2.90      0.00
   21   11    1      1.87      0.00
   22   11    1     -6.31      0.00
   23   11    1     -3.19      0.00
   21   12    1      5.32      0.00
   22   12    1     -6.18      0.00
   23   12    1      2.77      0.00
   20   13    1      6.49      0.00
   21   13    1      3.84      0.00
   22   13    1      0.36      0.00
   23   13    1     -2.15      0.00
   20   14    1      1.59      0.00
   21   14    1      0.03      0.00
   22   14    1     -1.44      0.00
   23   14    1     -3.78      0.00
   20   15    1     -0.17      0.00
   21   15    1      0.13      0.00
   22   15    1     -2.38      0.00
   23   15    1     -3.52      0.00
   19   16    1      2.26      0.00
   20   16    1      5.66      0.00
   21   16    1      0.90      0.00
   22   16    1     -1.99      0.00
   23   16    1     -0.77      0.00
   19   17    1      2.81      0.00
   20   17    1      1.06      0.00
   21   17    1      0.88      0.00
   22   17    1      0.81      0.00
   23   17    1      0.33      0.00
   19   18    1      2.01      0.00
   20   18    1      4.47      0.00
   21   18    1     -0.81      0.00
   22   18    1     -3.24      0.00
   23   18    1      0.04      0.00
   18   19    1     -1.46      0.00
   19   19    1     -1.01      0.00
   20   19    1      6.57      0.00
   21   19    1     -3.54      0.00
   22   19    1     -0.04      0.00
   23   19    1     -0.66      0.00
   18   20    1     -4.34      0.00
   19   20    1     -1.73      0.00
   20   20    1      7.00      0.00
   21   20    1     -1.32      0.00
   22   20    1      0.52      0.00
   23   20    1     -2.45      0.00
   17   21    1      1.65      0.00
   18   21    1     -4.26      0.00
   19   21    1     -0.89      0.00
   20   21    1      0.06      0.00
   21   21    1     -0.78      0.00
   22   21    1     -2.52      0.00
   23   21    1      1.80      0.00
   16   22    1     -1.28      0.00
   17   22    1      2.56      0.00
   18   22    1     -3.98      0.00
   19   22    1     -0.17      0.00
   20   22    1      2.08      0.00
   21   22    1      1.43      0.00
   22   22    1     -1.74      0.00
   23   22    1     -0.28      0.00
   16   23    1      1.33      0.00
   17   23    1      4.41      0.00
   18   23    1      2.85      0.00
   19   23    1      0.89      0.00
   20   23    1      2.27      0.00
   21   23    1      0.02      0.00
   22   23    1      1.13      0.00
   23   23    1      0.51      0.00
   15   24    1     -0.91      0.00
   16   24    1      2.13      0.00
   17   24    1     -2.80      0.00
   18   24    1     -0.60      0.00
   19   24    1      0.68      0.00
   20   24    1      1.73      0.00
   21   24    1     -0.24      0.00
   22   24    1     -0.15      0.00
   23   24    1     -0.44      0.00
   14   25    1      0.50      0.00
   15   25    1     -3.85      0.00
   16   25    1     -2.74      0.00
   17   25    1     -3.63      0.00
   18   25    1      0.33      0.00
   19   25    1     -3.88      0.00
   20   25    1     -0.30      0.00
   21   25    1     -2.63      0.00
   22   25    1     -1.38      0.00
   23   25    1     -1.87      0.00
   13   26    1     -1.68      0.00
   14   26    1     -2.40      0.00
   15   26    1      4.78      0.00
   16   26    1      1.14      0.00
   17   26    1      0.83      0.00
   18   26    1      1.92      0.00
   19   26    1     -0.12      0.00
   20   26    1      1.61      0.00
   21   26    1     -0.51      0.00
   22   26    1      0.49      0.00
   23   26    1     -0.10      0.00
   13   27    1      3.13      0.00
   14   27    1      4.12      0.00
   15   27    1      2.23      0.00
   16   27    1     -4.30      0.00
   17   27    1      3.64      0.00
   18   27    1     -0.23      0.00
   19   27    1      4.84      0.00
   20   27    1      1.55      0.00
   21   27    1      3.17      0.00
   22   27    1      0.08      0.00
   23   27    1     -0.56      0.00
   11   28    1      4.41      0.00
   12   28    1      5.99      0.00
   13   28    1     -6.89      0.00
   14   28    1     -1.54      0.00
   15   28    1     -0.37      0.00
   16   28    1     -5.11      0.00
   17   28    1     -1.23      0.00
   18   28    1     -0.94      0.00
   19   28    1     -2.43      0.00
   20   28    1     -3.14      0.00
   21   28    1      0.68      0.00
   22   28    1     -0.54      0.00
   23   28    1      0.89      0.00
   10   29    1     -5.08      0.00
   11   29    1     -1.64      0.00
   12   29    1     -2.69      0.00
   13   29    1      1.18      0.00
   14   29    1      8.10      0.00
   15   29    1     -0.84      0.00
   16   29    1      2.11      0.00
   17   29    1     -5.84      0.00
   18   29    1      0.41      0.00
   19   29    1     -4.07      0.00
   20   29    1     -2.69      0.00
   21   29    1     -1.51      0.00
   22   29    1     -0.99      0.00
   23   29    1     -0.85      0.00
    9   30    1     -1.25      0.00
   10   30    1     -2.46      0.00
   11   30    1      4.51      0.00
   12   30    1      2.54      0.00
   13   30    1     -2.86      0.00
   14   30    1     -1.27      0.00
   15   30    1      4.53      0.00
   16   30    1      0.58      0.00
   17   30    1      2.62      0.00
   18   30    1      7.20      0.00
   19   30    1      0.77      0.00
   20   30    1      1.88      0.00
   21   30    1     -1.70      0.00
   22   30    1      0.82      0.00
   23   30    1      0.52      0.00
    7   31    1     -3.94      0.00
    8   31    1     10.02      0.00
    9   31    1     -0.80      0.00
   10   31    1     -4.15      0.00
   11   31    1     -2.59      0.00
   12   31    1     -1.17      0.00
   13   31    1     -1.80      0.00
   14   31    1     -3.63      0.00
   15   31    1      4.93      0.00
   16   31    1     -1.68      0.00
   17   31    1     -0.18      0.00
   18   31    1      0.62      0.00
   19   31    1      2.70      0.00
   20   31    1     -0.21      0.00
   21   31    1      3.62      0.00
   22   31    1      3.33      0.00
   23   31    1     -0.25      0.00
    3   32    1     -2.39      0.00
    4   32    1     -6.02      0.00
    5   32    1     -1.25      0.00
    6   32    1      1.79      0.00
    7   32    1     -1.02      0.00
    8   32    1     -3.07      0.00
    9   32    1      0.54      0.00
   10   32    1     -1.40      0.00
   11   32    1      1.44      0.00
   12   32    1      4.97      0.00
   13   32    1     -2.53      0.00
   14   32    1     -1.04      0.00
   15   32    1     -1.24      0.00
   16   32    1     -4.66      0.00
   17   32    1     -3.44      0.00
   18   32    1     -1.55      0.00
   19   32    1      0.20      0.00
   20   32    1     -1.99      0.00
   21   32    1     -1.55      0.00
   22   32    1     -0.62      0.00
   23   32    1      0.08      0.00
    0   33    1      5.93      0.00
    1   33    1      1.89      0.00
    2   33    1      2.82      0.00
    3   33    1     -0.63      0.00
    4   33    1      0.20      0.00
    5   33    1      3.55      0.00
    6   33    1     -3.94      0.00
    7   33    1      2.11      0.00
    8   33    1      6.62      0.00
    9   33    1      2.88      0.00
   10   33    1     -1.81      0.00
   11   33    1      1.76      0.00
   12   33    1      1.84      0.00
   13   33    1     -2.37      0.00
   14   33    1      0.38      0.00
   15   33    1      1.49      0.00
   16   33    1      2.89      0.00
   17   33    1     -3.85      0.00
   18   33    1      0.22      0.00
   19   33    1     -2.37      0.00
   20   33    1     -2.72      0.00
   21   33    1     -0.05      0.00
   22   33    1     -1.32      0.00
   22    0    2     12.52      0.00
   23    0    2     -3.11      0.00
   22    1    2      0.78      0.00
   23    1    2     -0.13      0.00
   22    2    2      2.92      0.00
   23    2    2      3.93      0.00
   22    3    2      0.04      0.00
   23    3    2      3.19      0.00
   21    4    2     -0.04      0.00
   22    4    2     11.48      0.00
   23    4    2     -0.49      0.00
   21    5    2      1.12      0.00
   22    5    2     -0.61      0.00
   23    5    2      1.64      0.00
   21    6    2      1.09      0.00
   22    6    2      4.47      0.00
   23    6    2     -3.86      0.00
   21    7    2      2.13      0.00
   22    7    2      5.47      0.00
   23    7    2     -2.71      0.00
   21    8    2      3.57      0.00
   22    8    2      7.68      0.00
   23    8    2     -0.71      0.00
   21    9    2      1.63      0.00
   22    9    2     -1.29      0.00
   23    9    2      4.13      0.00
   21   10    2     -1.45      0.00
   22   10    2     -0.98      0.00
   23   10    2     -2.20      0.00
   20   11    2      4.32      0.00
   21   11    2     -4.60      0.00
   22   11    2     -2.51      0.00
   23   11    2      3.91      0.00
   20   12    2      2.30      0.00
   21   12    2      8.18      0.00
   22   12    2      5.12      0.00
   23   12    2      0.64      0.00
   20   13    2      1.53      0.00
   21   13    2     -6.23      0.00
   22   13    2     -0.58      0.00
   23   13    2      3.70      0.00
   19   14    2     -4.42      0.00
   20   14    2     -3.32      0.00
   21   14    2      1.51      0.00
   22   14    2     -1.97      0.00
   23   14    2     -2.08      0.00
   19   15    2      7.79      0.00
   20   15    2      1.77      0.00
   21   15    2     -1.38      0.00
   22   15    2     -0.88      0.00
   23   15    2     -1.05      0.00
   19   16    2      4.24      0.00
   20   16    2     -2.12      0.00
   21   16    2      1.56      0.00
   22   16    2      0.79      0.00
   23   16    2      4.05      0.00
   18   17    2      1.62      0.00
   19   17    2      2.78      0.00
   20   17    2     -0.41      0.00
   21   17    2     -3.45      0.00
   22   17    2      1.21      0.00
   23   17    2      0.63      0.00
   18   18    2      2.04      0.00
   19   18    2      0.53      0.00
   20   18    2      1.00      0.00
   21   18    2     -5.91      0.00
   22   18    2     -0.01      0.00
   23   18    2     -0.69      0.00
   17   19    2      3.33      0.00
   18   19    2     -0.98      0.00
   19   19    2      1.93      0.00
   20   19    2      0.17      0.00
   21   19    2     -2.19      0.00
   22   19    2      1.40      0.00
   23   19    2      1.30      0.00
   17   20    2      5.09      0.00
   18   20    2     -2.63      0.00
   19   20    2     -2.09      0.00
   20   20    2      2.96      0.00
   21   20    2      0.83      0.00
   22   20    2     -1.13      0.00
   23   20    2      1.45      0.00
   16   21    2      2.38      0.00
   17   21    2      3.92      0.00
   18   21    2     -2.87      0.00
   19   21    2     -4.68      0.00
   20   21    2      0.61      0.00
   21   21    2     -0.46      0.00
   22   21    2     -1.57      0.00
   23   21    2      0.66      0.00
   16   22    2      4.78      0.00
   17   22    2      6.96      0.00
   18   22    2     -3.27      0.00
   19   22    2     -4.33      0.00
   20   22    2      3.99      0.00
   21   22    2      1.25      0.00
   22   22    2     -1.64      0.00
   23   22    2     -0.73      0.00
   15   23    2     -2.41      0.00
   16   23    2      4.66      0.00
   17   23    2      2.88      0.00
   18   23    2      2.53      0.00
   19   23    2     -2.24      0.00
   20   23    2      3.07      0.00
   21   23    2      4.00      0.00
   22   23    2     -0.31      0.00
   23   23    2     -0.26      0.00
   14   24    2     -4.64      0.00
   15   24    2     -0.62      0.00
   16   24    2      2.99      0.00
   17   24    2     -1.69      0.00
   18   24    2     -3.79      0.00
   19   24    2     -3.50      0.00
   20   24    2      0.43      0.00
   21   24    2      0.11      0.00
   22   24    2     -1.51      0.00
   23   24    2     -0.74      0.00
   13   25    2      0.11      0.00
   14   25    2     -2.41      0.00
   15   25    2      2.78      0.00
   16   25    2     -1.08      0.00
   17   25    2     -0.19      0.00
   18   25    2     -0.93      0.00
   19   25    2     -1.80      0.00
   20   25    2     -1.26      0.00
   21   25    2     -1.37      0.00
   22   25    2     -1.28      0.00
   23   25    2     -2.54      0.00
   12   26    2     -1.60      0.00
   13   26    2     -6.83      0.00
   14   26    2     -2.78      0.00
   15   26    2      4.22      0.00
   16   26    2      3.94      0.00
   17   26    2      0.03      0.00
   18   26    2      0.09      0.00
   19   26    2      3.17      0.00
   20   26    2      1.59      0.00
   21   26    2      1.92      0.00
   22   26    2      0.83      0.00
   23   26    2     -0.52      0.00
   11   27    2      2.43      0.00
   12   27    2      3.74      0.00
   13   27    2     -2.93      0.00
   14   27    2      1.10      0.00
   15   27    2     -2.99      0.00
   16   27    2      1.71      0.00
   17   27    2     -2.08      0.00
   18   27    2     -1.08      0.00
   19   27    2      2.63      0.00
   20   27    2     -0.22      0.00
   21   27    2      1.52      0.00
   22   27    2      2.23      0.00
   23   27    2      2.61      0.00
   10   28    2      3.55      0.00
   11   28    2     -2.60      0.00
   12   28    2     -1.82      0.00
   13   28    2      3.42      0.00
   14   28    2      3.20      0.00
   15   28    2      3.26      0.00
   16   28    2      4.04      0.00
   17   28    2     -2.84      0.00
   18   28    2     -0.56      0.00
   19   28    2     -2.17      0.00
   20   28    2     -2.19      0.00
   21   28    2     -3.43      0.00
   22   28    2     -3.61      0.00
   23   28    2     -0.36      0.00
    8   29    2      3.55      0.00
    9   29    2      1.77      0.00
   10   29    2     -5.27      0.00
   11   29    2     -3.51      0.00
   12   29    2     -0.70      0.00
   13   29    2      3.05      0.00
   14   29    2     -3.29      0.00
   15   29    2      0.46      0.00
   16   29    2      2.69      0.00
   17   29    2      2.13      0.00
   18   29    2      0.84      0.00
   19   29    2      0.90      0.00
   20   29    2      0.87      0.00
   21   29    2     -2.94      0.00
   22   29    2      0.66      0.00
   23   29    2     -1.64      0.00
    6   30    2      1.03      0.00
    7   30    2     -3.53      0.00
    8   30    2     -1.13      0.00
    9   30    2     11.37      0.00
   10   30    2      2.85      0.00
   11   30    2    -16.28      0.00
   12   30    2     -4.35      0.00
   13   30    2      0.61      0.00
   14   30    2     -4.46      0.00
   15   30    2     -1.68      0.00
   16   30    2     -2.36      0.00
   17   30    2      0.78      0.00
   18   30    2      0.22      0.00
   19   30    2      3.41      0.00
   20   30    2      3.35      0.00
   21   30    2      0.34      0.00
   22   30    2      1.89      0.00
   23   30    2      1.23      0.00
    3   31    2     -6.83      0.00
    4   31    2     -4.89      0.00
    5   31    2     10.58      0.00
    6   31    2     -2.02      0.00
    7   31    2     -3.29      0.00
    8   31    2      0.87      0.00
    9   31    2      2.71      0.00
   10   31    2     -3.49      0.00
   11   31    2     -3.87      0.00
   12   31    2      5.46      0.00
   13   31    2      4.30      0.00
   14   31    2      1.78      0.00
   15   31    2     -4.49      0.00
   16   31    2     -0.30      0.00
   17   31    2     -1.76      0.00
   18   31    2     -3.52      0.00
   19   31    2      0.36      0.00
   20   31    2     -2.24      0.00
   21   31    2      0.32      0.00
   22   31    2      0.73      0.00
    0   32    2     -1.26      0.00
    1   32    2     -7.17      0.00
    2   32    2      1.06      0.00
    3   32    2      3.53      0.00
    4   32    2      0.32      0.00
    5   32    2     -7.45      0.00
    6   32    2     -2.07      0.00
    7   32    2     -2.60      0.00
    8   32    2      1.13      0.00
    9   32    2      9.27      0.00
   10   32    2      1.14      0.00
   11   32    2     -5.22      0.00
   12   32    2      2.29      0.00
   13   32    2      5.30      0.00
   14   32    2      1.83      0.00
   15   32    2      1.59      0.00
   16   32    2      2.70      0.00
   17   32    2     -0.60      0.00
   18   32    2     -0.18      0.00
   19   32    2     -0.81      0.00
   20   32    2     -1.22      0.00
   21   32    2     -1.98      0.00
   22   32    2     -2.05      0.00
    1   33    2     -1.89      0.00
    2   33    2      0.31      0.00
    3   33    2     -6.97      0.00
    4   33    2      1.45      0.00
    5   33    2      7.45      0.00
    6   33    2     -0.28      0.00
    7   33    2      0.65      0.00
    8   33    2      2.89      0.00
    9   33    2     -2.09      0.00
   10   33    2     -3.08      0.00
   11   33    2     -3.84      0.00
   12   33    2      0.25      0.00
   13   33    2      3.38      0.00
   14   33    2     -0.44      0.00
   15   33    2     -0.76      0.00
   16   33    2      0.55      0.00
   17   33    2      1.61      0.00
   18   33    2      1.28      0.00
   19   33    2      1.02      0.00
   20   33    2      0.55      0.00
   21   33    2     -0.64      0.00
   20    0    3      5.56      0.00
   21    0    3      7.29      0.00
   22    0    3      3.22      0.00
   23    0    3    -10.25      0.00
   20    1    3      0.70      0.00
   21    1    3      5.41      0.00
   22    1    3     -3.16      0.00
   23    1    3      4.06      0.00
   20    2    3      6.86      0.00
   21    2    3      1.36      0.00
   22    2    3     -3.01      0.00
   23    2    3     -5.47      0.00
   20    3    3      2.66      0.00
   21    3    3    -11.86      0.00
   22    3    3     -0.71      0.00
   23    3    3     -0.22      0.00
   20    4    3      5.67      0.00
   21    4    3      1.28      0.00
   22    4    3     -1.00      0.00
   23    4    3     -1.31      0.00
   20    5    3     -0.75      0.00
   21    5    3     -5.00      0.00
   22    5    3     -0.47      0.00
   23    5    3     -0.31      0.00
   20    6    3      3.50      0.00
   21    6    3     -4.30      0.00
   22    6    3      1.41      0.00
   23    6    3     -1.44      0.00
   20    7    3     -0.64      0.00
   21    7    3      5.43      0.00
   22    7    3      0.61      0.00
   23    7    3     -0.22      0.00
   20    8    3     -2.58      0.00
   21    8    3      0.92      0.00
   22    8    3      0.84      0.00
   23    8    3      3.56      0.00
   19    9    3    -12.69      0.00
   20    9    3      0.18      0.00
   21    9    3      1.21      0.00
   22    9    3     -2.75      0.00
   23    9    3     -2.46      0.00
   19   10    3      1.49      0.00
   20   10    3      4.40      0.00
   21   10    3     -1.55      0.00
   22   10    3     -0.03      0.00
   23   10    3     -5.48      0.00
   19   11    3     -2.48      0.00
   20   11    3      1.05      0.00
   21   11    3      9.29      0.00
   22   11    3     -0.20      0.00
   23   11    3     -1.32      0.00
   19   12    3      2.63      0.00
   20   12    3     -2.36      0.00
   21   12    3      2.38      0.00
   22   12    3     -2.50      0.00
   23   12    3     -0.27      0.00
   18   13    3      1.29      0.00
   19   13    3     -8.22      0.00
   20   13    3     -2.99      0.00
   21   13    3     -0.88      0.00
   22   13    3     -2.03      0.00
   23   13    3     -2.68      0.00
   18   14    3      2.39      0.00
   19   14    3      5.72      0.00
   20   14    3     -0.35      0.00
   21   14    3     -1.11      0.00
   22   14    3     -0.11      0.00
   23   14    3     -2.40      0.00
   18   15    3      1.06      0.00
   19   15    3      2.55      0.00
   20   15    3      1.41      0.00
   21   15    3      1.50      0.00
   22   15    3      0.12      0.00
   23   15    3      1.06      0.00
   17   16    3     -2.57      0.00
   18   16    3     -3.51      0.00
   19   16    3      0.07      0.00
   20   16    3     -4.77      0.00
   21   16    3     -1.66      0.00
   22   16    3     -0.41      0.00
   23   16    3      1.60      0.00
   17   17    3     -2.20      0.00
   18   17    3     -5.99      0.00
   19   17    3     -0.26      0.00
   20   17    3     -1.44      0.00
   21   17    3     -6.08      0.00
   22   17    3     -1.62      0.00
   23   17    3     -1.29      0.00
   16   18    3      3.99      0.00
   17   18    3      4.22      0.00
   18   18    3      2.97      0.00
   19   18    3      0.90      0.00
   20   18    3      1.41      0.00
   21   18    3      0.24      0.00
   22   18    3      3.75      0.00
   23   18    3      0.87      0.00
   16   19    3     -0.99      0.00
   17   19    3     -2.26      0.00
   18   19    3     -1.60      0.00
   19   19    3      5.07      0.00
   20   19    3      2.54      0.00
   21   19    3      0.14      0.00
   22   19    3      2.84      0.00
   23   19    3      2.29      0.00
   15   20    3     -4.12      0.00
   16   20    3     -4.59      0.00
   17   20    3      1.24      0.00
   18   20    3     -4.36      0.00
   19   20    3     -3.76      0.00
   20   20    3     -1.34      0.00
   21   20    3     -3.77      0.00
   22   20    3     -1.71      0.00
   23   20    3      0.97      0.00
   14   21    3      5.15      0.00
   15   21    3     -0.69      0.00
   16   21    3     -0.77      0.00
   17   21    3     -1.72      0.00
   18   21    3     -3.45      0.00
   19   21    3     -0.54      0.00
   20   21    3      0.95      0.00
   21   21    3     -1.78      0.00
   22   21    3     -0.81      0.00
   23   21    3     -1.07      0.00
   14   22    3      0.63      0.00
   15   22    3     -4.80      0.00
   16   22    3      0.44      0.00
   17   22    3      4.57      0.00
   18   22    3      0.19      0.00
   19   22    3      2.25      0.00
   20   22    3      5.72      0.00
   21   22    3      0.46      0.00
   22   22    3     -0.50      0.00
   23   22    3      1.75      0.00
   13   23    3      5.19      0.00
   14   23    3      4.46      0.00
   15   23    3     -4.92      0.00
   16   23    3     -1.44      0.00
   17   23    3      0.59      0.00
   18   23    3     -2.02      0.00
   19   23    3     -3.11      0.00
   20   23    3      1.38      0.00
   21   23    3      1.38      0.00
   22   23    3     -0.59      0.00
   23   23    3      2.01      0.00
   12   24    3     -2.69      0.00
   13   24    3      3.05      0.00
   14   24    3      3.66      0.00
   15   24    3     -2.33      0.00
   16   24    3     -0.65      0.00
   17   24    3      0.30      0.00
   18   24    3     -1.27      0.00
   19   24    3     -2.52      0.00
   20   24    3      2.24      0.00
   21   24    3     -2.68      0.00
   22   24    3     -3.03      0.00
   23   24    3     -0.86      0.00
   11   25    3      4.98      0.00
   12   25    3     -5.23      0.00
   13   25    3     -0.57      0.00
   14   25    3      0.60      0.00
   15   25    3     -0.13      0.00
   16   25    3     -0.11      0.00
   17   25    3      3.11      0.00
   18   25    3      3.42      0.00
   19   25    3     -1.29      0.00
   20   25    3     -0.19      0.00
   21   25    3      1.86      0.00
   22   25    3     -0.57      0.00
   23   25    3     -0.95      0.00
   10   26    3      0.79      0.00
   11   26    3      0.40      0.00
   12   26    3      1.14      0.00
   13   26    3     -3.01      0.00
   14   26    3      1.92      0.00
   15   26    3     -1.23      0.00
   16   26    3     -6.15      0.00
   17   26    3     -0.76      0.00
   18   26    3      0.23      0.00
   19   26    3      2.11      0.00
   20   26    3      1.49      0.00
   21   26    3      2.66      0.00
   22   26    3      0.88      0.00
   23   26    3      2.86      0.00
    8   27    3     -0.21      0.00
    9   27    3     -1.19      0.00
   10   27    3      0.16      0.00
   11   27    3      5.12      0.00
   12   27    3      2.17      0.00
   13   27    3     -3.43      0.00
   14   27    3      4.82      0.00
   15   27    3      1.36      0.00
   16   27    3     -1.28      0.00
   17   27    3     -2.54      0.00
   18   27    3      0.04      0.00
   19   27    3     -3.91      0.00
   20   27    3     -3.18      0.00
   21   27    3      0.13      0.00
   22   27    3     -0.96      0.00
   23   27    3     -0.63      0.00
    7   28    3      4.59      0.00
    8   28    3     -0.91      0.00
    9   28    3      0.10      0.00
   10   28    3     -6.45      0.00
   11   28    3      1.26      0.00
   12   28    3      0.37      0.00
   13   28    3      1.11      0.00
   14   28    3      2.77      0.00
   15   28    3      2.69      0.00
   16   28    3      1.10      0.00
   17   28    3     -3.13      0.00
   18   28    3      1.87      0.00
   19   28    3      0.06      0.00
   20   28    3     -2.67      0.00
   21   28    3     -1.89      0.00
   22   28    3     -0.47      0.00
   23   28    3     -1.25      0.00
    4   29    3     -1.60      0.00
    5   29    3      0.60      0.00
    6   29    3      0.57      0.00
    7   29    3     -1.96      0.00
    8   29    3      0.80      0.00
    9   29    3      0.97      0.00
   10   29    3      2.76      0.00
   11   29    3     -1.24      0.00
   12   29    3     -1.49      0.00
   13   29    3     -1.57      0.00
   14   29    3     -3.07      0.00
   15   29    3      1.29      0.00
   16   29    3     -0.28      0.00
   17   29    3      2.52      0.00
   18   29    3      2.52      0.00
   19   29    3      1.27      0.00
   20   29    3      2.75      0.00
   21   29    3      2.13      0.00
   22   29    3     -0.29      0.00
   23   29    3      0.22      0.00
    1   30    3     -3.46      0.00
    2   30    3      0.59      0.00
    3   30    3      4.59      0.00
    4   30    3     -3.78      0.00
    5   30    3     -4.30      0.00
    6   30    3      0.26      0.00
    7   30    3     10.32      0.00
    8   30    3      1.47      0.00
    9   30    3     -2.29      0.00
   10   30    3     -1.79      0.00
   11   30    3     -3.74      0.00
   12   30    3      4.99      0.00
   13   30    3      0.06      0.00
   14   30    3     -0.19      0.00
   15   30    3     -0.43      0.00
   16   30    3     -0.70      0.00
   17   30    3     -3.88      0.00
   18   30    3     -2.02      0.00
   19   30    3      1.29      0.00
   20   30    3     -0.71      0.00
   21   30    3      1.61      0.00
   22   30    3      2.57      0.00
    0   31    3      5.92      0.00
    1   31    3     -3.60      0.00
    2   31    3      3.71      0.00
    3   31    3      2.01      0.00
    4   31    3     -2.61      0.00
    5   31    3     -5.58      0.00
    6   31    3     -1.19      0.00
    7   31    3     -0.05      0.00
    8   31    3     -3.89      0.00
    9   31    3      3.24      0.00
   10   31    3      1.07      0.00
   11   31    3     -1.43      0.00
   12   31    3      2.60      0.00
   13   31    3      2.59      0.00
   14   31    3     -1.09      0.00
   15   31    3     -1.90      0.00
   16   31    3      1.31      0.00
   17   31    3      0.61      0.00
   18   31    3     -2.55      0.00
   19   31    3     -0.97      0.00
   20   31    3      0.61      0.00
   21   31    3     -0.81      0.00
    1   32    3     -0.52      0.00
    2   32    3      0.35      0.00
    3   32    3      0.11      0.00
    4   32    3     -0.95      0.00
    5   32    3     -6.52      0.00
    6   32    3      0.80      0.00
    7   32    3      4.02      0.00
    8   32    3      1.31      0.00
    9   32    3     -1.10      0.00
   10   32    3     -1.51      0.00
   11   32    3     -0.88      0.00
   12   32    3     -0.03      0.00
   13   32    3      3.40      0.00
   14   32    3     -2.13      0.00
   15   32    3      1.01      0.00
   16   32    3      1.80      0.00
   17   32    3     -1.08      0.00
   18   32    3      0.65      0.00
   19   32    3     -0.09      0.00
   20   32    3     -1.13      0.00
   21   32    3      0.02      0.00
    0   33    3     -1.17      0.00
    1   33    3     -1.84      0.00
    2   33    3     -1.18      0.00
    3   33    3      6.14      0.00
    4   33    3     -2.28      0.00
    5   33    3     -0.49      0.00
    6   33    3      1.01      0.00
    7   33    3      1.17      0.00
    8   33    3     -0.17      0.00
    9   33    3     -1.64      0.00
   10   33    3      2.41      0.00
   11   33    3     -1.57      0.00
   12   33    3      3.76      0.00
   13   33    3      0.16      0.00
   14   33    3     -0.41      0.00
   15   33    3     -2.01      0.00
   16   33    3     -0.06      0.00
   17   33    3     -0.24      0.00
   18   33    3     -2.08      0.00
   19   33    3      0.71      0.00
   20   33    3      1.44      0.00
   19    0    4      0.97      0.00
   20    0    4      0.91      0.00
   21    0    4     -1.84      0.00
   22    0    4     -1.88      0.00
   23    0    4      0.00      0.00
   19    1    4     -4.19      0.00
   20    1    4      2.69      0.00
   21    1    4      1.16      0.00
   22    1    4      1.81      0.00
   23    1    4      0.01      0.00
   18    2    4     -5.90      0.00
   19    2    4     -3.33      0.00
   20    2    4      0.48      0.00
   21    2    4     -3.16      0.00
   22    2    4      0.58      0.00
   23    2    4     -1.39      0.00
   18    3    4     -3.72      0.00
   19    3    4     -6.50      0.00
   20    3    4     -2.14      0.00
   21    3    4      3.03      0.00
   22    3    4      1.12      0.00
   23    3    4      3.18      0.00
   18    4    4     -0.81      0.00
   19    4    4     -5.82      0.00
   20    4    4      0.79      0.00
   21    4    4      1.15      0.00
   22    4    4     -1.05      0.00
   23    4    4      0.02      0.00
   18    5    4     -1.69      0.00
   19    5    4     -6.04      0.00
   20    5    4      2.74      0.00
   21    5    4      0.88      0.00
   22    5    4      1.45      0.00
   23    5    4     -0.16      0.00
   18    6    4     -1.11      0.00
   19    6    4     -2.28      0.00
   20    6    4      2.24      0.00
   21    6    4      2.34      0.00
   22    6    4      1.48      0.00
   23    6    4     -1.58      0.00
   18    7    4     -7.89      0.00
   19    7    4     -2.56      0.00
   20    7    4      2.56      0.00
   21    7    4      4.84      0.00
   22    7    4      0.15      0.00
   23    7    4      1.74      0.00
   18    8    4     -1.88      0.00
   19    8    4     -6.92      0.00
   20    8    4      1.62      0.00
   21    8    4     -3.74      0.00
   22    8    4     -1.14      0.00
   23    8    4     -0.95      0.00
   17    9    4     -0.12      0.00
   18    9    4     -1.93      0.00
   19    9    4     -6.74      0.00
   20    9    4      3.98      0.00
   21    9    4      0.83      0.00
   22    9    4     -0.78      0.00
   23    9    4     -1.18      0.00
   17   10    4      5.52      0.00
   18   10    4     -0.51      0.00
   19   10    4      6.00      0.00
   20   10    4      3.82      0.00
   21   10    4      2.52      0.00
   22   10    4     -0.94      0.00
   23   10    4      2.30      0.00
   17   11    4     -1.48      0.00
   18   11    4      1.20      0.00
   19   11    4     -2.17      0.00
   20   11    4      2.11      0.00
   21   11    4      4.17      0.00
   22   11    4     -2.08      0.00
   23   11    4      2.96      0.00
   17   12    4     -8.87      0.00
   18   12    4     -0.20      0.00
   19   12    4     -7.52      0.00
   20   12    4     -2.10      0.00
   21   12    4     -2.72      0.00
   22   12    4     -2.47      0.00
   23   12    4     -0.91      0.00
   16   13    4     -6.20      0.00
   17   13    4     -3.08      0.00
   18   13    4      1.91      0.00
   19   13    4     -1.25      0.00
   20   13    4      0.60      0.00
   21   13    4     -0.71      0.00
   22   13    4      0.14      0.00
   23   13    4     -0.18      0.00
   16   14    4      1.32      0.00
   17   14    4      4.05      0.00
   18   14    4      3.56      0.00
   19   14    4      4.46      0.00
   20   14    4     -1.41      0.00
   21   14    4      7.87      0.00
   22   14    4      1.61      0.00
   23   14    4      0.16      0.00
   15   15    4     -1.63      0.00
   16   15    4     -3.62      0.00
   17   15    4     -4.84      0.00
   18   15    4      2.63      0.00
   19   15    4      1.16      0.00
   20   15    4     -3.16      0.00
   21   15    4      1.34      0.00
   22   15    4     -0.46      0.00
   23   15    4      2.15      0.00
   15   16    4     -3.88      0.00
   16   16    4      1.93      0.00
   17   16    4     -1.28      0.00
   18   16    4     -2.78      0.00
   19   16    4     -5.01      0.00
   20   16    4     -2.56      0.00
   21   16    4     -0.43      0.00
   22   16    4     -0.90      0.00
   23   16    4     -2.67      0.00
   14   17    4      1.83      0.00
   15   17    4      1.00      0.00
   16   17    4     -1.00      0.00
   17   17    4      3.30      0.00
   18   17    4      3.80      0.00
   19   17    4      3.99      0.00
   20   17    4      2.37      0.00
   21   17    4     -0.59      0.00
   22   17    4      2.60      0.00
   23   17    4     -0.99      0.00
   14   18    4     -9.90      0.00
   15   18    4     -5.10      0.00
   16   18    4      5.63      0.00
   17   18    4      2.22      0.00
   18   18    4     -3.10      0.00
   19   18    4      1.41      0.00
   20   18    4      2.36      0.00
   21   18    4      3.27      0.00
   22   18    4      2.84      0.00
   23   18    4     -0.73      0.00
   13   19    4     -3.87      0.00
   14   19    4      3.04      0.00
   15   19    4     -2.24      0.00
   16   19    4     -6.95      0.00
   17   19    4      1.07      0.00
   18   19    4     -6.37      0.00
   19   19    4     -1.90      0.00
   20   19    4     -1.44      0.00
   21   19    4     -2.38      0.00
   22   19    4     -2.45      0.00
   23   19    4     -0.45      0.00
   12   20    4      5.35      0.00
   13   20    4      2.56      0.00
   14   20    4     -0.51      0.00
   15   20    4      3.30      0.00
   16   20    4      5.59      0.00
   17   20    4      4.12      0.00
   18   20    4     -3.21      0.00
   19   20    4     -1.30      0.00
   20   20    4     -0.13      0.00
   21   20    4      1.36      0.00
   22   20    4     -0.42      0.00
   23   20    4     -1.45      0.00
   12   21    4    -10.81      0.00
   13   21    4     -4.03      0.00
   14   21    4      3.92      0.00
   15   21    4     -3.59      0.00
   16   21    4      3.92      0.00
   17   21    4      5.00      0.00
   18   21    4      2.22      0.00
   19   21    4      3.09      0.00
   20   21    4      4.51      0.00
   21   21    4      0.71      0.00
   22   21    4      0.78      0.00
   23   21    4     -0.34      0.00
   11   22    4     -4.01      0.00
   12   22    4     -0.99      0.00
   13   22    4     -1.83      0.00
   14   22    4     -1.56      0.00
   15   22    4     -1.40      0.00
   16   22    4     -4.40      0.00
   17   22    4     -1.35      0.00
   18   22    4     -0.76      0.00
   19   22    4     -6.77      0.00
   20   22    4      3.49      0.00
   21   22    4     -0.36      0.00
   22   22    4      0.88      0.00
   23   22    4     -0.58      0.00
   10   23    4      6.47      0.00
   11   23    4      1.88      0.00
   12   23    4     -2.52      0.00
   13   23    4      3.39      0.00
   14   23    4      3.32      0.00
   15   23    4     -3.14      0.00
   16   23    4     -0.34      0.00
   17   23    4     -0.14      0.00
   18   23    4     -3.15      0.00
   19   23    4      0.50      0.00
   20   23    4     -0.11      0.00
   21   23    4     -2.08      0.00
   22   23    4      1.45      0.00
   23   23    4     -3.04      0.00
    8   24    4    -10.23      0.00
    9   24    4      5.50      0.00
   10   24    4     -0.94      0.00
   11   24    4     -2.45      0.00
   12   24    4     -5.37      0.00
   13   24    4      0.60      0.00
   14   24    4      4.00      0.00
   15   24    4      3.86      0.00
   16   24    4      0.32      0.00
   17   24    4      7.31      0.00
   18   24    4      0.13      0.00
   19   24    4      0.76      0.00
   20   24    4      0.65      0.00
   21   24    4      1.60      0.00
   22   24    4     -1.82      0.00
   23   24    4      0.76      0.00
    7   25    4      1.88      0.00
    8   25    4     -2.89      0.00
    9   25    4      2.49      0.00
   10   25    4      4.24      0.00
   11   25    4     -3.44      0.00
   12   25    4     -6.08      0.00
   13   25    4      2.20      0.00
   14   25    4     -3.24      0.00
   15   25    4     -3.28      0.00
   16   25    4     -1.94      0.00
   17   25    4     -2.62      0.00
   18   25    4      0.94      0.00
   19   25    4      2.16      0.00
   20   25    4     -0.18      0.00
   21   25    4      3.86      0.00
   22   25    4      0.33      0.00
   23   25    4     -0.20      0.00
    5   26    4      9.57      0.00
    6   26    4      3.50      0.00
    7   26    4     -1.73      0.00
    8   26    4     -3.72      0.00
    9   26    4      1.43      0.00
   10   26    4      7.46      0.00
   11   26    4      1.63      0.00
   12   26    4      3.10      0.00
   13   26    4     -4.14      0.00
   14   26    4      4.53      0.00
   15   26    4     -2.51      0.00
   16   26    4     -0.70      0.00
   17   26    4     -0.88      0.00
   18   26    4     -1.80      0.00
   19   26    4     -3.81      0.00
   20   26    4     -0.05      0.00
   21   26    4     -3.05      0.00
   22   26    4      0.90      0.00
   23   26    4      0.20      0.00
    1   27    4     -4.73      0.00
    2   27    4     -1.10      0.00
    3   27    4     -1.02      0.00
    4   27    4      3.62      0.00
    5   27    4     -7.73      0.00
    6   27    4     -0.51      0.00
    7   27    4     -0.30      0.00
    8   27    4     -4.47      0.00
    9   27    4      2.28      0.00
   10   27    4      0.18      0.00
   11   27    4     -1.95      0.00
   12   27    4     -1.83      0.00
   13   27    4      2.60      0.00
   14   27    4      3.17      0.00
   15   27    4      0.35      0.00
   16   27    4      3.14      0.00
   17   27    4     -0.61      0.00
   18   27    4      2.96      0.00
   19   27    4     -1.82      0.00
   20   27    4     -0.89      0.00
   21   27    4      0.06      0.00
   22   27    4      0.72      0.00
    0   28    4     -4.40      0.00
    1   28    4     10.53      0.00
    2   28    4     -4.79      0.00
    3   28    4     -9.81      0.00
    4   28    4      3.53      0.00
    5   28    4      6.88      0.00
    6   28    4     -0.23      0.00
    7   28    4     -1.77      0.00
    8   28    4     -3.93      0.00
    9   28    4     -4.83      0.00
   10   28    4     -0.39      0.00
   11   28    4      2.00      0.00
   12   28    4     -6.41      0.00
   13   28    4     -2.73      0.00
   14   28    4     -2.91      0.00
   15   28    4     -0.52      0.00
   16   28    4      1.10      0.00
   17   28    4      4.17      0.00
   18   28    4      2.97      0.00
   19   28    4      4.34      0.00
   20   28    4      0.52      0.00
   21   28    4      0.58      0.00
   22   28    4      0.45      0.00
    1   29    4      2.37      0.00
    2   29    4     -4.62      0.00
    3   29    4      6.00      0.00
    4   29    4      0.35      0.00
    5   29    4      3.69      0.00
    6   29    4     -1.09      0.00
    7   29    4      4.78      0.00
    8   29    4      4.31      0.00
    9   29    4      0.15      0.00
   10   29    4      4.85      0.00
   11   29    4     -1.20      0.00
   12   29    4      2.14      0.00
   13   29    4     -0.28      0.00
   14   29    4     -2.75      0.00
   15   29    4     -1.05      0.00
   16   29    4     -4.14      0.00
   17   29    4     -0.35      0.00
   18   29    4     -2.32      0.00
   19   29    4     -1.50      0.00
   20   29    4     -0.10      0.00
   21   29    4      0.94      0.00
    0   30    4      4.85      0.00
    1   30    4      3.37      0.00
    2   30    4      1.54      0.00
    3   30    4     -7.48      0.00
    4   30    4      3.67      0.00
    5   30    4      5.67      0.00
    6   30    4     -4.63      0.00
    7   30    4      2.92      0.00
    8   30    4     -2.32      0.00
    9   30    4      1.62      0.00
   10   30    4      2.04      0.00
   11   30    4      1.50      0.00
   12   30    4      3.45      0.00
   13   30    4      1.98      0.00
   14   30    4      3.41      0.00
   15   30    4     -3.32      0.00
   16   30    4      2.04      0.00
   17   30    4     -0.72      0.00
   18   30    4     -1.76      0.00
   19   30    4      0.02      0.00
   20   30    4     -1.89      0.00
    1   31    4     -2.83      0.00
    2   31    4      1.84      0.00
    3   31    4     -2.09      0.00
    4   31    4      0.91      0.00
    5   31    4     -5.23      0.00
    6   31    4     -1.84      0.00
    7   31    4      0.02      0.00
    8   31    4     -0.43      0.00
    9   31    4     -3.02      0.00
   10   31    4     -3.67      0.00
   11   31    4     -0.37      0.00
   12   31    4     -1.03      0.00
   13   31    4     -0.66      0.00
   14   31    4     -0.36      0.00
   15   31    4      1.22      0.00
   16   31    4      3.77      0.00
   17   31    4      1.45      0.00
   18   31    4      0.92      0.00
   19   31    4     -0.12      0.00
   20   31    4      0.68      0.00
    0   32    4     -4.65      0.00
    1   32    4      0.48      0.00
    2   32    4     -3.09      0.00
    3   32    4      1.54      0.00
    4   32    4      2.02      0.00
    5   32    4      1.35      0.00
    6   32    4     -0.27      0.00
    7   32    4     -2.87      0.00
    8   32    4      1.07      0.00
    9   32    4     -1.81      0.00
   10   32    4     -1.13      0.00
   11   32    4     -3.04      0.00
   12   32    4     -0.50      0.00
   13   32    4      1.10      0.00
   14   32    4     -3.88      0.00
   15   32    4     -2.43      0.00
   16   32    4      0.52      0.00
   17   32    4      0.40      0.00
   18   32    4      0.48      0.00
   19   32    4      0.39      0.00
    1   33    4      0.54      0.00
    2   33    4     -0.61      0.00
    3   33    4      3.43      0.00
    4   33    4     -1.57      0.00
    5   33    4     -0.06      0.00
    6   33    4     -0.24      0.00
    7   33    4      3.43      0.00
    8   33    4      2.85      0.00
    9   33    4     -0.78      0.00
   10   33    4      0.40      0.00
   11   33    4     -0.03      0.00
   12   33    4      2.74      0.00
   13   33    4     -0.52      0.00
   14   33    4     -0.20      0.00
   15   33    4      1.02      0.00
   16   33    4     -0.70      0.00
   17   33    4      0.12      0.00
   18   33    4     -1.65      0.00
   16    0    5      2.02      0.00
   17    0    5     -7.65      0.00
   18    0    5     -1.25      0.00
   19    0    5      2.11      0.00
   20    0    5     11.10      0.00
   21    0    5     -3.34      0.00
   22    0    5      1.38      0.00
   23    0    5     -1.87      0.00
   16    1    5    -15.63      0.00
   17    1    5      2.08      0.00
   18    1    5     -2.58      0.00
   19    1    5      0.21      0.00
   20    1    5     -1.74      0.00
   21    1    5     -3.42      0.00
   22    1    5     -1.93      0.00
   23    1    5     -1.12      0.00
   16    2    5      1.58      0.00
   17    2    5     -1.14      0.00
   18    2    5     -6.83      0.00
   19    2    5      5.63      0.00
   20    2    5      3.70      0.00
   21    2    5      2.85      0.00
   22    2    5     -2.20      0.00
   23    2    5      1.72      0.00
   16    3    5     -2.83      0.00
   17    3    5     -1.15      0.00
   18    3    5     10.78      0.00
   19    3    5      3.63      0.00
   20    3    5      2.91      0.00
   21    3    5     -0.10      0.00
   22    3    5     -2.45      0.00
   23    3    5      0.96      0.00
   16    4    5      2.63      0.00
   17    4    5      1.38      0.00
   18    4    5      2.84      0.00
   19    4    5     -2.60      0.00
   20    4    5      5.34      0.00
   21    4    5     -1.02      0.00
   22    4    5      0.14      0.00
   23    4    5     -2.57      0.00
   15    5    5      1.01      0.00
   16    5    5    -10.01      0.00
   17    5    5      1.00      0.00
   18    5    5      3.46      0.00
   19    5    5      1.31      0.00
   20    5    5      0.72      0.00
   21    5    5      0.83      0.00
   22    5    5     -3.17      0.00
   23    5    5     -0.49      0.00
   15    6    5     -0.88      0.00
   16    6    5     -1.73      0.00
   17    6    5      0.90      0.00
   18    6    5      1.57      0.00
   19    6    5     -2.09      0.00
   20    6    5     -0.86      0.00
   21    6    5      2.73      0.00
   22    6    5      0.35      0.00
   23    6    5      1.79      0.00
   15    7    5     -0.46      0.00
   16    7    5     -0.89      0.00
   17    7    5     -0.60      0.00
   18    7    5      2.10      0.00
   19    7    5     -3.72      0.00
   20    7    5      0.38      0.00
   21    7    5     -1.10      0.00
   22    7    5     -2.41      0.00
   23    7    5     -1.82      0.00
   15    8    5      1.57      0.00
   16    8    5      2.82      0.00
   17    8    5      3.42      0.00
   18    8    5      2.60      0.00
   19    8    5      0.01      0.00
   20    8    5     -1.05      0.00
   21    8    5     -0.63      0.00
   22    8    5      0.60      0.00
   23    8    5     -1.72      0.00
   15    9    5      2.21      0.00
   16    9    5      1.03      0.00
   17    9    5      3.24      0.00
   18    9    5      2.52      0.00
   19    9    5      4.47      0.00
   20    9    5      5.15      0.00
   21    9    5      2.86      0.00
   22    9    5     -0.75      0.00
   23    9    5      1.69      0.00
   14   10    5     -8.25      0.00
   15   10    5     -5.91      0.00
   16   10    5      3.13      0.00
   17   10    5     -1.28      0.00
   18   10    5      0.42      0.00
   19   10    5     -2.00      0.00
   20   10    5      0.90      0.00
   21   10    5      2.97      0.00
   22   10    5      0.69      0.00
   23   10    5      1.19      0.00
   14   11    5      0.39      0.00
   15   11    5      0.68      0.00
   16   11    5     -1.47      0.00
   17   11    5     -5.67      0.00
   18   11    5     -3.43      0.00
   19   11    5     -3.16      0.00
   20   11    5      2.33      0.00
   21   11    5     -5.30      0.00
   22   11    5     -5.08      0.00
   23   11    5      0.27      0.00
   13   12    5      0.96      0.00
   14   12    5     -3.90      0.00
   15   12    5      0.87      0.00
   16   12    5      0.15      0.00
   17   12    5      4.50      0.00
   18   12    5     -2.32      0.00
   19   12    5     -3.31      0.00
   20   12    5      1.46      0.00
   21   12    5      1.14      0.00
   22   12    5     -1.96      0.00
   23   12    5      0.29      0.00
   13   13    5     -5.44      0.00
   14   13    5      1.97      0.00
   15   13    5      5.27      0.00
   16   13    5      5.96      0.00
   17   13    5      3.89      0.00
   18   13    5      0.48      0.00
   19   13    5      5.33      0.00
   20   13    5      4.07      0.00
   21   13    5      1.17      0.00
   22   13    5      0.25      0.00
   23   13    5      2.26      0.00
   13   14    5     -4.75      0.00
   14   14    5      0.75      0.00
   15   14    5     -2.51      0.00
   16   14    5      2.96      0.00
   17   14    5      1.72      0.00
   18   14    5     -0.18      0.00
   19   14    5     -3.16      0.00
   20   14    5      0.65      0.00
   21   14    5      3.01      0.00
   22   14    5     -2.70      0.00
   23   14    5      1.90      0.00
   12   15    5      0.73      0.00
   13   15    5     -2.79      0.00
   14   15    5     -4.91      0.00
   15   15    5      2.01      0.00
   16   15    5     -0.23      0.00
   17   15    5     -1.84      0.00
   18   15    5      0.75      0.00
   19   15    5     -3.55      0.00
   20   15    5     -1.65      0.00
   21   15    5     -2.32      0.00
   22   15    5     -3.23      0.00
   23   15    5     -1.11      0.00
   11   16    5      3.68      0.00
   12   16    5     -1.81      0.00
   13   16    5     -3.22      0.00
   14   16    5      0.42      0.00
   15   16    5      0.62      0.00
   16   16    5      1.16      0.00
   17   16    5      3.03      0.00
   18   16    5     -3.59      0.00
   19   16    5     -2.24      0.00
   20   16    5      1.86      0.00
   21   16    5      1.40      0.00
   22   16    5      1.07      0.00
   23   16    5     -0.72      0.00
   11   17    5      0.54      0.00
   12   17    5      3.29      0.00
   13   17    5     -4.55      0.00
   14   17    5     -1.15      0.00
   15   17    5      2.23      0.00
   16   17    5     -0.93      0.00
   17   17    5      2.12      0.00
   18   17    5      1.98      0.00
   19   17    5      1.27      0.00
   20   17    5      0.90      0.00
   21   17    5      3.26      0.00
   22   17    5      1.10      0.00
   23   17    5      1.75      0.00
   10   18    5      6.04      0.00
   11   18    5      1.80      0.00
   12   18    5     -0.16      0.00
   13   18    5     -0.12      0.00
   14   18    5      0.75      0.00
   15   18    5      2.27      0.00
   16   18    5      2.24      0.00
   17   18    5      0.43      0.00
   18   18    5     -4.74      0.00
   19   18    5     -4.74      0.00
   20   18    5     -1.31      0.00
   21   18    5      0.99      0.00
   22   18    5      0.13      0.00
   23   18    5     -0.01      0.00
    9   19    5     -5.68      0.00
   10   19    5     -3.22      0.00
   11   19    5      5.93      0.00
   12   19    5      4.24      0.00
   13   19    5     -2.16      0.00
   14   19    5      3.44      0.00
   15   19    5      3.86      0.00
   16   19    5     -1.05      0.00
   17   19    5      1.83      0.00
   18   19    5     -2.06      0.00
   19   19    5     -1.35      0.00
   20   19    5      0.07      0.00
   21   19    5     -1.96      0.00
   22   19    5     -0.44      0.00
   23   19    5      0.52      0.00
    8   20    5     -5.43      0.00
    9   20    5      1.62      0.00
   10   20    5      3.57      0.00
   11   20    5     -0.05      0.00
   12   20    5     -5.64      0.00
   13   20    5     -5.10      0.00
   14   20    5     -0.91      0.00
   15   20    5      2.00      0.00
   16   20    5      2.07      0.00
   17   20    5      2.97      0.00
   18   20    5      2.01      0.00
   19   20    5     -1.22      0.00
   20   20    5      1.83      0.00
   21   20    5      2.17      0.00
   22   20    5      0.27      0.00
   23   20    5     -0.21      0.00
    6   21    5     -1.55      0.00
    7   21    5      4.36      0.00
    8   21    5      3.77      0.00
    9   21    5     -9.57      0.00
   10   21    5     -1.86      0.00
   11   21    5      0.90      0.00
   12   21    5     -1.09      0.00
   13   21    5     -1.52      0.00
   14   21    5      0.72      0.00
   15   21    5     -1.50      0.00
   16   21    5     -4.03      0.00
   17   21    5     -1.75      0.00
   18   21    5     -1.18      0.00
   19   21    5     -0.54      0.00
   20   21    5      3.58      0.00
   21   21    5     -1.60      0.00
   22   21    5      0.64      0.00
   23   21    5      0.26      0.00
    4   22    5     -4.21      0.00
    5   22    5      5.17      0.00
    6   22    5      0.61      0.00
    7   22    5     -3.89      0.00
    8   22    5     -5.32      0.00
    9   22    5      0.87      0.00
   10   22    5      6.50      0.00
   11   22    5      3.73      0.00
   12   22    5      2.35      0.00
   13   22    5     -1.54      0.00
   14   22    5      2.03      0.00
   15   22    5      3.20      0.00
   16   22    5     -5.70      0.00
   17   22    5     -0.07      0.00
   18   22    5     -0.73      0.00
   19   22    5     -3.01      0.00
   20   22    5      1.04      0.00
   21   22    5     -0.67      0.00
   22   22    5     -0.82      0.00
   23   22    5     -1.25      0.00
    0   23    5      7.98      0.00
    1   23    5      0.48      0.00
    2   23    5     -1.07      0.00
    3   23    5      1.96      0.00
    4   23    5      3.75      0.00
    5   23    5     -1.74      0.00
    6   23    5      0.13      0.00
    7   23    5      7.36      0.00
    8   23    5      0.96      0.00
    9   23    5      4.08      0.00
   10   23    5     -2.20      0.00
   11   23    5     -2.60      0.00
   12   23    5     -2.74      0.00
   13   23    5      5.51      0.00
   14   23    5      7.00      0.00
   15   23    5      0.96      0.00
   16   23    5      1.53      0.00
   17   23    5      1.72      0.00
   18   23    5     -1.09      0.00
   19   23    5      2.81      0.00
   20   23    5     -0.84      0.00
   21   23    5      1.00      0.00
   22   23    5     -0.49      0.00
    1   24    5      2.26      0.00
    2   24    5      1.58      0.00
    3   24    5     -3.59      0.00
    4   24    5      3.09      0.00
    5   24    5      2.27      0.00
    6   24    5      2.60      0.00
    7   24    5     -4.04      0.00
    8   24    5     -0.48      0.00
    9   24    5      0.41      0.00
   10   24    5      0.65      0.00
   11   24    5      1.24      0.00
   12   24    5     -1.86      0.00
   13   24    5     -1.58      0.00
   14   24    5     -1.27      0.00
   15   24    5      0.90      0.00
   16   24    5     -3.32      0.00
   17   24    5     -0.81      0.00
   18   24    5      2.35      0.00
   19   24    5      0.89      0.00
   20   24    5      1.82      0.00
   21   24    5      0.95      0.00
   22   24    5     -0.52      0.00
    0   25    5     -1.29      0.00
    1   25    5     -0.88      0.00
    2   25    5      0.29      0.00
    3   25    5     -1.16      0.00
    4   25    5     -1.43      0.00
    5   25    5     -5.08      0.00
    6   25    5     -0.95      0.00
    7   25    5     -3.82      0.00
    8   25    5     -1.15      0.00
    9   25    5      1.35      0.00
   10   25    5      1.96      0.00
   11   25    5     -7.20      0.00
   12   25    5     -1.88      0.00
   13   25    5      3.32      0.00
   14   25    5     -0.07      0.00
   15   25    5     -1.48      0.00
   16   25    5      0.01      0.00
   17   25    5     -2.13      0.00
   18   25    5      0.44      0.00
   19   25    5     -2.60      0.00
   20   25    5     -0.45      0.00
   21   25    5     -2.98      0.00
    1   26    5      0.78      0.00
    2   26    5      0.65      0.00
    3   26    5     -2.62      0.00
    4   26    5      0.87      0.00
    5   26    5      1.70      0.00
    6   26    5     -3.90      0.00
    7   26    5     -2.22      0.00
    8   26    5     -1.42      0.00
    9   26    5      0.25      0.00
   10   26    5      0.58      0.00
   11   26    5     -1.91      0.00
   12   26    5      3.84      0.00
   13   26    5      0.24      0.00
   14   26    5      3.05      0.00
   15   26    5      0.30      0.00
   16   26    5      0.55      0.00
   17   26    5     -0.84      0.00
   18   26    5     -1.07      0.00
   19   26    5      0.70      0.00
   20   26    5      0.66      0.00
   21   26    5     -1.94      0.00
    0   27    5     -6.49      0.00
    1   27    5      2.50      0.00
    2   27    5      0.90      0.00
    3   27    5      0.49      0.00
    4   27    5     -1.09      0.00
    5   27    5      1.86      0.00
    6   27    5      1.88      0.00
    7   27    5      3.42      0.00
    8   27    5     -0.39      0.00
    9   27    5      2.48      0.00
   10   27    5      0.23      0.00
   11   27    5      0.78      0.00
   12   27    5     -2.46      0.00
   13   27    5     -0.98      0.00
   14   27    5     -2.26      0.00
   15   27    5     -0.41      0.00
   16   27    5      1.58      0.00
   17   27    5      2.23      0.00
   18   27    5      1.46      0.00
   19   27    5      3.45      0.00
   20   27    5      0.20      0.00
    1   28    5      0.54      0.00
    2   28    5      1.38      0.00
    3   28    5      1.06      0.00
    4   28    5      1.72      0.00
    5   28    5      3.25      0.00
    6   28    5     -4.94      0.00
    7   28    5      1.30      0.00
    8   28    5      1.49      0.00
    9   28    5      1.95      0.00
   10   28    5     -0.13      0.00
   11   28    5      0.65      0.00
   12   28    5      1.79      0.00
   13   28    5      2.08      0.00
   14   28    5     -1.95      0.00
   15   28    5     -2.16      0.00
   16   28    5     -0.96      0.00
   17   28    5     -1.80      0.00
   18   28    5     -3.99      0.00
   19   28    5      0.69      0.00
    0   29    5      3.36      0.00
    1   29    5      4.18      0.00
    2   29    5      4.84      0.00
    3   29    5     -6.74      0.00
    4   29    5      0.68      0.00
    5   29    5     -0.98      0.00
    6   29    5     -2.16      0.00
    7   29    5      0.50      0.00
    8   29    5      0.65      0.00
    9   29    5     -4.12      0.00
   10   29    5      1.43      0.00
   11   29    5      2.93      0.00
   12   29    5      1.08      0.00
   13   29    5      0.80      0.00
   14   29    5      2.52      0.00
   15   29    5      0.89      0.00
   16   29    5      1.47      0.00
   17   29    5     -0.97      0.00
   18   29    5     -0.81      0.00
   19   29    5     -2.09      0.00
    1   30    5     -0.68      0.00
    2   30    5      2.27      0.00
    3   30    5     -2.42      0.00
    4   30    5      1.42      0.00
    5   30    5     -0.81      0.00
    6   30    5     -3.85      0.00
    7   30    5     -2.70      0.00
    8   30    5      2.46      0.00
    9   30    5     -1.59      0.00
   10   30    5     -2.48      0.00
   11   30    5     -2.00      0.00
   12   30    5      2.13      0.00
   13   30    5      0.37      0.00
   14   30    5      0.11      0.00
   15   30    5      0.46      0.00
   16   30    5      3.96      0.00
   17   30    5      2.06      0.00
   18   30    5      0.35      0.00
    0   31    5     -3.89      0.00
    1   31    5      4.85      0.00
    2   31    5     -2.14      0.00
    3   31    5     -2.46      0.00
    4   31    5     -1.34      0.00
    5   31    5      3.19      0.00
    6   31    5     -3.21      0.00
    7   31    5      0.79      0.00
    8   31    5      1.90      0.00
    9   31    5     -0.97      0.00
   10   31    5      0.32      0.00
   11   31    5     -1.40      0.00
   12   31    5     -2.16      0.00
   13   31    5     -1.80      0.00
   14   31    5     -2.76      0.00
   15   31    5     -2.30      0.00
   16   31    5     -2.05      0.00
   17   31    5      1.89      0.00
    1   32    5      1.68      0.00
    2   32    5      1.80      0.00
    3   32    5     -0.18      0.00
    4   32    5     -0.82      0.00
    5   32    5      2.39      0.00
    6   32    5     -0.99      0.00
    7   32    5      0.93      0.00
    8   32    5      1.56      0.00
    9   32    5      1.96      0.00
   10   32    5     -1.57      0.00
   11   32    5      0.63      0.00
   12   32    5      3.00      0.00
   13   32    5     -0.25      0.00
   14   32    5     -0.44      0.00
   15   32    5     -0.95      0.00
   16   32    5     -0.37      0.00
    0   33    5      1.36      0.00
    1   33    5      1.08      0.00
    2   33    5      2.11      0.00
    3   33    5     -0.83      0.00
    4   33    5      0.33      0.00
    5   33    5      0.27      0.00
    6   33    5     -0.28      0.00
    7   33    5     -2.05      0.00
    8   33    5      1.77      0.00
    9   33    5      1.15      0.00
   10   33    5      0.74      0.00
   11   33    5     -0.53      0.00
   12   33    5      1.71      0.00
   13   33    5      2.07      0.00
   14   33    5      1.56      0.00
   15   33    5     -0.05      0.00
   16   33    5      0.49      0.00
   12    0    6      0.34      0.00
   13    0    6     -3.88      0.00
   14    0    6     -5.30      0.00
   15    0    6     16.57      0.00
   16    0    6      1.43      0.00
   17    0    6      5.07      0.00
   18    0    6     -2.54      0.00
   19    0    6      1.85      0.00
   20    0    6     -1.24      0.00
   21    0    6     -0.63      0.00
   22    0    6     -1.55      0.00
   23    0    6     -2.26      0.00
   12    1    6     11.27      0.00
   13    1    6     -2.94      0.00
   14    1    6      8.93      0.00
   15    1    6     -5.81      0.00
   16    1    6     -0.21      0.00
   17    1    6      1.68      0.00
   18    1    6      0.10      0.00
   19    1    6      2.76      0.00
   20    1    6     -0.57      0.00
   21    1    6      0.22      0.00
   22    1    6      1.41      0.00
   23    1    6     -0.76      0.00
   12    2    6     -0.85      0.00
   13    2    6     -9.32      0.00
   14    2    6      8.81      0.00
   15    2    6     -2.69      0.00
   16    2    6      5.61      0.00
   17    2    6     -6.87      0.00
   18    2    6      0.43      0.00
   19    2    6     -2.35      0.00
   20    2    6      0.66      0.00
   21    2    6     -0.68      0.00
   22    2    6      1.12      0.00
   23    2    6     -0.73      0.00
   11    3    6     -6.96      0.00
   12    3    6    -10.83      0.00
   13    3    6     13.29      0.00
   14    3    6     -3.84      0.00
   15    3    6     -2.24      0.00
   16    3    6     -2.22      0.00
   17    3    6     -0.14      0.00
   18    3    6      2.11      0.00
   19    3    6     -1.64      0.00
   20    3    6     -0.89      0.00
   21    3    6     -1.23      0.00
   22    3    6     -0.19      0.00
   23    3    6      0.68      0.00
   11    4    6      1.69      0.00
   12    4    6     -9.03      0.00
   13    4    6      2.85      0.00
   14    4    6      5.05      0.00
   15    4    6      2.31      0.00
   16    4    6     -5.25      0.00
   17    4    6      2.56      0.00
   18    4    6      0.13      0.00
   19    4    6      2.08      0.00
   20    4    6     -1.64      0.00
   21    4    6     -0.49      0.00
   22    4    6     -1.37      0.00
   23    4    6      0.58      0.00
   11    5    6     -7.74      0.00
   12    5    6      5.98      0.00
   13    5    6      4.28      0.00
   14    5    6      3.80      0.00
   15    5    6     -1.84      0.00
   16    5    6     -0.22      0.00
   17    5    6      0.65      0.00
   18    5    6     -1.21      0.00
   19    5    6     -1.59      0.00
   20    5    6     -1.56      0.00
   21    5    6      0.60      0.00
   22    5    6      0.03      0.00
   23    5    6      2.02      0.00
   11    6    6      0.35      0.00
   12    6    6     -4.21      0.00
   13    6    6      4.83      0.00
   14    6    6      7.48      0.00
   15    6    6     -0.42      0.00
   16    6    6     -0.41      0.00
   17    6    6      0.18      0.00
   18    6    6      4.05      0.00
   19    6    6     -1.70      0.00
   20    6    6     -0.05      0.00
   21    6    6     -2.35      0.00
   22    6    6      0.38      0.00
   23    6    6     -0.07      0.00
   11    7    6     -4.05      0.00
   12    7    6     -3.02      0.00
   13    7    6     -3.38      0.00
   14    7    6      0.16      0.00
   15    7    6     -1.25      0.00
   16    7    6     -2.84      0.00
   17    7    6      2.73      0.00
   18    7    6      1.33      0.00
   19    7    6     -0.56      0.00
   20    7    6      0.54      0.00
   21    7    6     -0.80      0.00
   22    7    6     -0.74      0.00
   23    7    6     -1.04      0.00
   10    8    6     -0.77      0.00
   11    8    6     -5.60      0.00
   12    8    6      0.02      0.00
   13    8    6      1.55      0.00
   14    8    6      2.83      0.00
   15    8    6     -4.91      0.00
   16    8    6     -1.20      0.00
   17    8    6     -2.12      0.00
   18    8    6      0.01      0.00
   19    8    6      1.21      0.00
   20    8    6     -1.30      0.00
   21    8    6      2.94      0.00
   22    8    6     -0.97      0.00
   23    8    6     -1.04      0.00
   10    9    6      4.46      0.00
   11    9    6      4.49      0.00
   12    9    6     -4.39      0.00
   13    9    6      2.16      0.00
   14    9    6      5.72      0.00
   15    9    6     -2.09      0.00
   16    9    6     -0.68      0.00
   17    9    6     -2.23      0.00
   18    9    6      1.26      0.00
   19    9    6     -2.36      0.00
   20    9    6     -1.06      0.00
   21    9    6      1.61      0.00
   22    9    6      0.21      0.00
   23    9    6      1.66      0.00
    9   10    6      3.21      0.00
   10   10    6     -4.19      0.00
   11   10    6     -1.88      0.00
   12   10    6     -0.37      0.00
   13   10    6      8.34      0.00
   14   10    6      0.45      0.00
   15   10    6      2.95      0.00
   16   10    6     -1.14      0.00
   17   10    6      0.19      0.00
   18   10    6      1.15      0.00
   19   10    6     -0.92      0.00
   20   10    6      0.73      0.00
   21   10    6      0.07      0.00
   22   10    6     -0.96      0.00
   23   10    6     -0.44      0.00
    9   11    6     -2.76      0.00
   10   11    6      0.41      0.00
   11   11    6     -2.51      0.00
   12   11    6     -0.95      0.00
   13   11    6     -0.11      0.00
   14   11    6      1.65      0.00
   15   11    6     -1.48      0.00
   16   11    6     -4.32      0.00
   17   11    6      1.48      0.00
   18   11    6     -0.17      0.00
   19   11    6     -0.38      0.00
   20   11    6     -0.37      0.00
   21   11    6      0.51      0.00
   22   11    6     -0.90      0.00
   23   11    6     -0.83      0.00
    8   12    6      4.14      0.00
    9   12    6      0.04      0.00
   10   12    6     -2.88      0.00
   11   12    6     -2.79      0.00
   12   12    6      1.47      0.00
   13   12    6     -4.17      0.00
   14   12    6      5.36      0.00
   15   12    6     -2.31      0.00
   16   12    6      0.31      0.00
   17   12    6     -0.69      0.00
   18   12    6      0.13      0.00
   19   12    6      2.39      0.00
   20   12    6      1.26      0.00
   21   12    6     -0.22      0.00
   22   12    6     -0.77      0.00
   23   12    6     -0.13      0.00
    7   13    6     -2.52      0.00
    8   13    6      2.44      0.00
    9   13    6      1.77      0.00
   10   13    6     -4.57      0.00
   11   13    6      2.24      0.00
   12   13    6      3.13      0.00
   13   13    6      1.74      0.00
   14   13    6     -0.62      0.00
   15   13    6     -3.53      0.00
   16   13    6     -0.84      0.00
   17   13    6     -0.78      0.00
   18   13    6      1.29      0.00
   19   13    6     -1.52      0.00
   20   13    6     -0.61      0.00
   21   13    6      0.23      0.00
   22   13    6     -1.56      0.00
   23   13    6      0.18      0.00
    6   14    6      7.85      0.00
    7   14    6     -0.92      0.00
    8   14    6      0.63      0.00
    9   14    6      0.25      0.00
   10   14    6     -2.84      0.00
   11   14    6      3.87      0.00
   12   14    6      0.54      0.00
   13   14    6     -2.33      0.00
   14   14    6     -0.63      0.00
   15   14    6      1.55      0.00
   16   14    6     -2.43      0.00
   17   14    6     -1.20      0.00
   18   14    6     -1.11      0.00
   19   14    6      2.10      0.00
   20   14    6      0.54      0.00
   21   14    6     -0.85      0.00
   22   14    6     -2.64      0.00
   23   14    6     -0.96      0.00
    5   15    6      6.51      0.00
    6   15    6      8.56      0.00
    7   15    6     -3.05      0.00
    8   15    6     -0.01      0.00
    9   15    6      2.29      0.00
   10   15    6      0.97      0.00
   11   15    6     -0.64      0.00
   12   15    6      5.12      0.00
   13   15    6      1.21      0.00
   14   15    6     -0.30      0.00
   15   15    6      0.82      0.00
   16   15    6      0.09      0.00
   17   15    6      0.98      0.00
   18   15    6     -0.59      0.00
   19   15    6     -0.20      0.00
   20   15    6      1.45      0.00
   21   15    6      0.93      0.00
   22   15    6     -1.03      0.00
   23   15    6      0.72      0.00
    3   16    6      1.59      0.00
    4   16    6    -12.63      0.00
    5   16    6     -0.34      0.00
    6   16    6      3.70      0.00
    7   16    6     -1.71      0.00
    8   16    6     -1.65      0.00
    9   16    6      3.16      0.00
   10   16    6     -0.88      0.00
   11   16    6     -1.77      0.00
   12   16    6      1.11      0.00
   13   16    6     -3.94      0.00
   14   16    6     -0.51      0.00
   15   16    6      0.68      0.00
   16   16    6      0.80      0.00
   17   16    6     -0.23      0.00
   18   16    6      1.35      0.00
   19   16    6      2.10      0.00
   20   16    6      2.67      0.00
   21   16    6      2.64      0.00
   22   16    6      0.45      0.00
    1   17    6      1.89      0.00
    2   17    6     -9.58      0.00
    3   17    6     -0.55      0.00
    4   17    6     -2.94      0.00
    5   17    6      0.31      0.00
    6   17    6      6.18      0.00
    7   17    6     -4.89      0.00
    8   17    6     -4.72      0.00
    9   17    6     -0.80      0.00
   10   17    6      2.75      0.00
   11   17    6     -2.43      0.00
   12   17    6     -0.82      0.00
   13   17    6     -1.35      0.00
   14   17    6     -3.30      0.00
   15   17    6      0.04      0.00
   16   17    6      0.71      0.00
   17   17    6     -0.49      0.00
   18   17    6     -3.36      0.00
   19   17    6     -1.99      0.00
   20   17    6     -0.16      0.00
   21   17    6     -1.48      0.00
   22   17    6     -1.40      0.00
    0   18    6    -15.21      0.00
    1   18    6     -0.48      0.00
    2   18    6     11.27      0.00
    3   18    6      1.96      0.00
    4   18    6     -4.09      0.00
    5   18    6      0.92      0.00
    6   18    6      2.30      0.00
    7   18    6     -3.57      0.00
    8   18    6      1.02      0.00
    9   18    6      6.47      0.00
   10   18    6      2.05      0.00
   11   18    6     -3.22      0.00
   12   18    6      0.19      0.00
   13   18    6      0.18      0.00
   14   18    6      0.97      0.00
   15   18    6      0.95      0.00
   16   18    6     -2.50      0.00
   17   18    6     -0.19      0.00
   18   18    6     -0.63      0.00
   19   18    6     -2.15      0.00
   20   18    6     -0.81      0.00
   21   18    6     -0.64      0.00
   22   18    6     -2.35      0.00
    1   19    6     -1.87      0.00
    2   19    6     -4.78      0.00
    3   19    6      2.18      0.00
    4   19    6     -2.47      0.00
    5   19    6      2.55      0.00
    6   19    6      3.71      0.00
    7   19    6      2.41      0.00
    8   19    6      0.02      0.00
    9   19    6      1.87      0.00
   10   19    6      4.88      0.00
   11   19    6      0.39      0.00
   12   19    6     -0.45      0.00
   13   19    6      0.37      0.00
   14   19    6     -1.31      0.00
   15   19    6      0.57      0.00
   16   19    6      3.13      0.00
   17   19    6      2.71      0.00
   18   19    6      0.15      0.00
   19   19    6      0.75      0.00
   20   19    6      1.11      0.00
   21   19    6     -0.08      0.00
    0   20    6    -13.08      0.00
    1   20    6     -2.11      0.00
    2   20    6      7.66      0.00
    3   20    6      1.59      0.00
    4   20    6     -3.48      0.00
    5   20    6      1.46      0.00
    6   20    6      0.61      0.00
    7   20    6     -3.35      0.00
    8   20    6      0.86      0.00
    9   20    6      2.51      0.00
   10   20    6     -0.44      0.00
   11   20    6     -1.00      0.00
   12   20    6     -3.66      0.00
   13   20    6     -0.12      0.00
   14   20    6      0.54      0.00
   15   20    6     -0.01      0.00
   16   20    6     -4.76      0.00
   17   20    6      0.49      0.00
   18   20    6      2.57      0.00
   19   20    6      0.13      0.00
   20   20    6      2.11      0.00
   21   20    6      2.04      0.00
    1   21    6     -2.26      0.00
    2   21    6      0.22      0.00
    3   21    6      2.79      0.00
    4   21    6     -5.55      0.00
    5   21    6     -2.21      0.00
    6   21    6     -0.15      0.00
    7   21    6     -2.53      0.00
    8   21    6     -1.19      0.00
    9   21    6     -2.47      0.00
   10   21    6      1.55      0.00
   11   21    6     -1.67      0.00
   12   21    6     -0.56      0.00
   13   21    6      0.69      0.00
   14   21    6      0.04      0.00
   15   21    6     -0.55      0.00
   16   21    6     -1.02      0.00
   17   21    6      0.92      0.00
   18   21    6     -1.03      0.00
   19   21    6     -1.49      0.00
   20   21    6     -1.09      0.00
   21   21    6     -0.14      0.00
    0   22    6     -1.49      0.00
    1   22    6     -3.58      0.00
    2   22    6      1.73      0.00
    3   22    6     -1.59      0.00
    4   22    6     -0.96      0.00
    5   22    6     -1.46      0.00
    6   22    6      2.50      0.00
    7   22    6     -0.19      0.00
    8   22    6      3.97      0.00
    9   22    6     -1.54      0.00
   10   22    6      0.23      0.00
   11   22    6     -0.30      0.00
   12   22    6     -0.35      0.00
   13   22    6      0.15      0.00
   14   22    6      5.12      0.00
   15   22    6      1.34      0.00
   16   22    6     -2.13      0.00
   17   22    6      0.11      0.00
   18   22    6      1.16      0.00
   19   22    6     -2.01      0.00
   20   22    6     -0.59      0.00
    1   23    6     -1.18      0.00
    2   23    6      3.22      0.00
    3   23    6      4.41      0.00
    4   23    6     -0.10      0.00
    5   23    6     -0.60      0.00
    6   23    6      4.62      0.00
    7   23    6     -0.44      0.00
    8   23    6     -0.64      0.00
    9   23    6      1.66      0.00
   10   23    6      2.05      0.00
   11   23    6      1.06      0.00
   12   23    6     -1.84      0.00
   13   23    6     -0.72      0.00
   14   23    6     -1.76      0.00
   15   23    6     -1.37      0.00
   16   23    6     -0.73      0.00
   17   23    6      0.86      0.00
   18   23    6      2.25      0.00
   19   23    6     -1.69      0.00
   20   23    6      0.14      0.00
    0   24    6      2.22      0.00
    1   24    6      0.55      0.00
    2   24    6     -4.88      0.00
    3   24    6      2.19      0.00
    4   24    6     -1.44      0.00
    5   24    6      0.77      0.00
    6   24    6      0.27      0.00
    7   24    6      1.42      0.00
    8   24    6      2.96      0.00
    9   24    6      0.24      0.00
   10   24    6     -2.77      0.00
   11   24    6     -2.23      0.00
   12   24    6     -3.16      0.00
   13   24    6      1.45      0.00
   14   24    6     -1.03      0.00
   15   24    6     -0.24      0.00
   16   24    6     -3.51      0.00
   17   24    6      0.52      0.00
   18   24    6      0.43      0.00
   19   24    6      0.20      0.00
    1   25    6     -0.32      0.00
    2   25    6     -2.98      0.00
    3   25    6      1.89      0.00
    4   25    6     -1.43      0.00
    5   25    6      1.85      0.00
    6   25    6      0.75      0.00
    7   25    6     -1.12      0.00
    8   25    6     -4.39      0.00
    9   25    6      0.29      0.00
   10   25    6      1.64      0.00
   11   25    6      1.09      0.00
   12   25    6      2.11      0.00
   13   25    6     -0.58      0.00
   14   25    6      0.80      0.00
   15   25    6     -0.33      0.00
   16   25    6      0.66      0.00
   17   25    6      1.65      0.00
   18   25    6      1.13      0.00
    0   26    6      2.75      0.00
    1   26    6     -0.76      0.00
    2   26    6      0.42      0.00
    3   26    6     -1.69      0.00
    4   26    6     -1.88      0.00
    5   26    6     -1.11      0.00
    6   26    6     -0.68      0.00
    7   26    6     -0.19      0.00
    8   26    6      2.86      0.00
    9   26    6      4.10      0.00
   10   26    6      0.94      0.00
   11   26    6     -2.37      0.00
   12   26    6      1.32      0.00
   13   26    6      1.67      0.00
   14   26    6      0.88      0.00
   15   26    6     -1.03      0.00
   16   26    6      0.99      0.00
   17   26    6      0.17      0.00
   18   26    6      0.97      0.00
    1   27    6     -3.85      0.00
    2   27    6     -0.81      0.00
    3   27    6     -3.77      0.00
    4   27    6      4.04      0.00
    5   27    6      2.00      0.00
    6   27    6      2.79      0.00
    7   27    6     -2.54      0.00
    8   27    6     -2.62      0.00
    9   27    6     -1.12      0.00
   10   27    6     -0.41      0.00
   11   27    6      1.69      0.00
   12   27    6     -1.30      0.00
   13   27    6      0.99      0.00
   14   27    6     -2.51      0.00
   15   27    6     -1.12      0.00
   16   27    6     -1.84      0.00
   17   27    6     -0.91      0.00
    0   28    6     -1.95      0.00
    1   28    6     -2.21      0.00
    2   28    6      3.54      0.00
    3   28    6     -1.30      0.00
    4   28    6     -1.59      0.00
    5   28    6     -0.75      0.00
    6   28    6      0.84      0.00
    7   28    6     -1.94      0.00
    8   28    6      1.03      0.00
    9   28    6      0.20      0.00
   10   28    6      0.50      0.00
   11   28    6     -3.00      0.00
   12   28    6     -1.83      0.00
   13   28    6     -1.13      0.00
   14   28    6     -1.22      0.00
   15   28    6      0.61      0.00
   16   28    6      0.80      0.00
    1   29    6      4.21      0.00
    2   29    6     -2.55      0.00
    3   29    6      1.71      0.00
    4   29    6      0.36      0.00
    5   29    6      4.10      0.00
    6   29    6      0.65      0.00
    7   29    6      0.04      0.00
    8   29    6     -0.27      0.00
    9   29    6     -1.54      0.00
   10   29    6      1.72      0.00
   11   29    6     -0.90      0.00
   12   29    6      0.21      0.00
   13   29    6     -0.21      0.00
   14   29    6      1.61      0.00
   15   29    6      1.10      0.00
   16   29    6      2.40      0.00
    0   30    6     -1.49      0.00
    1   30    6     -0.71      0.00
    2   30    6      0.62      0.00
    3   30    6      2.10      0.00
    4   30    6     -2.98      0.00
    5   30    6      2.37      0.00
    6   30    6     -2.16      0.00
    7   30    6      1.39      0.00
    8   30    6     -0.61      0.00
    9   30    6      2.19      0.00
   10   30    6      2.84      0.00
   11   30    6      1.36      0.00
   12   30    6      0.43      0.00
   13   30    6     -2.06      0.00
   14   30    6     -0.94      0.00
   15   30    6      0.79      0.00
    1   31    6     -4.08      0.00
    2   31    6     -0.41      0.00
    3   31    6     -2.55      0.00
    4   31    6      0.76      0.00
    5   31    6      1.12      0.00
    6   31    6      0.20      0.00
    7   31    6      0.66      0.00
    8   31    6      0.10      0.00
    9   31    6     -0.04      0.00
   10   31    6     -0.70      0.00
   11   31    6      0.32      0.00
   12   31    6     -1.08      0.00
   13   31    6      0.18      0.00
   14   31    6     -0.03      0.00
    0   32    6      1.32      0.00
    1   32    6     -0.07      0.00
    2   32    6      0.48      0.00
    3   32    6     -0.82      0.00
    4   32    6      1.35      0.00
    5   32    6     -1.39      0.00
    6   32    6      0.44      0.00
    7   32    6     -2.60      0.00
    8   32    6      0.14      0.00
    9   32    6     -0.61      0.00
   10   32    6     -0.64      0.00
   11   32    6     -0.36      0.00
   12   32    6     -0.53      0.00
   13   32    6     -0.72      0.00
    1   33    6      0.81      0.00
    2   33    6     -0.78      0.00
    3   33    6      0.19      0.00
    4   33    6     -0.34      0.00
    5   33    6      1.32      0.00
    6   33    6      0.26      0.00
    7   33    6     -0.95      0.00
    8   33    6      1.77      0.00
    9   33    6     -1.09      0.00
   10   33    6     -0.23      0.00
   11   33    6     -1.25      0.00
   12   33    6     -0.59      0.00
    1    0    7      5.60      0.00
    2    0    7     -5.87      0.00
    3    0    7     -1.62      0.00
    4    0    7     -3.05      0.00
    5    0    7      3.43      0.00
    6    0    7     -3.42      0.00
    7    0    7      2.01      0.00
    8    0    7      4.60      0.00
    9    0    7     -3.43      0.00
   10    0    7     -3.33      0.00
   11    0    7     -1.64      0.00
   12    0    7     11.54      0.00
   13    0    7     -7.30      0.00
   14    0    7      2.22      0.00
   15    0    7     -1.58      0.00
   16    0    7     -0.63      0.00
   17    0    7     -2.62      0.00
   18    0    7      4.23      0.00
   19    0    7      2.54      0.00
   20    0    7      1.18      0.00
   21    0    7     -1.10      0.00
   22    0    7      1.93      0.00
    0    1    7      5.97      0.00
    1    1    7     -1.90      0.00
    2    1    7      1.43      0.00
    3    1    7      0.66      0.00
    4    1    7     -2.00      0.00
    5    1    7      0.97      0.00
    6    1    7     -4.30      0.00
    7    1    7      3.84      0.00
    8    1    7     -3.80      0.00
    9    1    7      6.88      0.00
   10    1    7     -1.18      0.00
   11    1    7      6.00      0.00
   12    1    7      3.77      0.00
   13    1    7      0.41      0.00
   14    1    7      0.17      0.00
   15    1    7     -1.77      0.00
   16    1    7      2.01      0.00
   17    1    7     -3.14      0.00
   18    1    7     -0.14      0.00
   19    1    7     -4.23      0.00
   20    1    7     -0.63      0.00
   21    1    7     -0.85      0.00
   22    1    7      0.49      0.00
    1    2    7     -1.75      0.00
    2    2    7      3.41      0.00
    3    2    7     -3.29      0.00
    4    2    7      4.87      0.00
    5    2    7      1.14      0.00
    6    2    7      0.68      0.00
    7    2    7      0.33      0.00
    8    2    7      0.56      0.00
    9    2    7      2.22      0.00
   10    2    7     -8.22      0.00
   11    2    7      4.18      0.00
   12    2    7     -0.10      0.00
   13    2    7      2.11      0.00
   14    2    7     -2.80      0.00
   15    2    7      0.98      0.00
   16    2    7     -3.83      0.00
   17    2    7     -1.68      0.00
   18    2    7     -0.11      0.00
   19    2    7      1.41      0.00
   20    2    7     -3.55      0.00
   21    2    7     -1.42      0.00
   22    2    7     -0.18      0.00
    0    3    7     -0.09      0.00
    1    3    7     -3.21      0.00
    2    3    7     -2.25      0.00
    3    3    7      0.33      0.00
    4    3    7      4.13      0.00
    5    3    7     -0.75      0.00
    6    3    7      2.14      0.00
    7    3    7     -3.35      0.00
    8    3    7      1.71      0.00
    9    3    7     -5.16      0.00
   10    3    7      0.80      0.00
   11    3    7     -1.93      0.00
   12    3    7      1.08      0.00
   13    3    7     -1.72      0.00
   14    3    7     -6.81      0.00
   15    3    7      1.95      0.00
   16    3    7      0.69      0.00
   17    3    7      4.22      0.00
   18    3    7     -0.14      0.00
   19    3    7      1.06      0.00
   20    3    7     -0.15      0.00
   21    3    7      2.73      0.00
   22    3    7      1.30      0.00
    1    4    7      2.33      0.00
    2    4    7     -0.68      0.00
    3    4    7      0.49      0.00
    4    4    7     -2.10      0.00
    5    4    7     -0.81      0.00
    6    4    7      0.70      0.00
    7    4    7     -2.44      0.00
    8    4    7      1.90      0.00
    9    4    7     -0.61      0.00
   10    4    7      3.61      0.00
   11    4    7     -4.09      0.00
   12    4    7      3.46      0.00
   13    4    7     -0.09      0.00
   14    4    7      3.87      0.00
   15    4    7     -1.49      0.00
   16    4    7     -0.14      0.00
   17    4    7     -0.98      0.00
   18    4    7      2.42      0.00
   19    4    7      1.29      0.00
   20    4    7     -1.68      0.00
   21    4    7     -0.78      0.00
   22    4    7      2.27      0.00
    0    5    7      0.52      0.00
    1    5    7      0.00      0.00
    2    5    7     -3.06      0.00
    3    5    7     -0.93      0.00
    4    5    7      1.16      0.00
    5    5    7      0.34      0.00
    6    5    7     -4.25      0.00
    7    5    7      1.76      0.00
    8    5    7     -3.41      0.00
    9    5    7      0.23      0.00
   10    5    7      1.68      0.00
   11    5    7      1.72      0.00
   12    5    7      1.69      0.00
   13    5    7     -1.20      0.00
   14    5    7      1.99      0.00
   15    5    7     -1.75      0.00
   16    5    7      2.55      0.00
   17    5    7      0.00      0.00
   18    5    7      0.08      0.00
   19    5    7     -2.21      0.00
   20    5    7     -1.64      0.00
   21    5    7     -1.71      0.00
   22    5    7     -0.19      0.00
    1    6    7     -1.88      0.00
    2    6    7     -1.41      0.00
    3    6    7     -0.33      0.00
    4    6    7     -2.89      0.00
    5    6    7      2.43      0.00
    6    6    7     -0.04      0.00
    7    6    7      3.88      0.00
    8    6    7     -2.06      0.00
    9    6    7      3.12      0.00
   10    6    7     -1.66      0.00
   11    6    7      0.96      0.00
   12    6    7     -5.11      0.00
   13    6    7     -1.19      0.00
   14    6    7     -1.08      0.00
   15    6    7     -2.87      0.00
   16    6    7     -2.79      0.00
   17    6    7     -1.77      0.00
   18    6    7      2.70      0.00
   19    6    7      1.12      0.00
   20    6    7     -1.65      0.00
   21    6    7     -0.08      0.00
   22    6    7      0.33      0.00
    0    7    7      5.46      0.00
    1    7    7      1.22      0.00
    2    7    7      1.79      0.00
    3    7    7     -2.37      0.00
    4    7    7      3.21      0.00
    5    7    7      0.77      0.00
    6    7    7      1.12      0.00
    7    7    7      0.77      0.00
    8    7    7     -1.67      0.00
    9    7    7     -1.18      0.00
   10    7    7      1.43      0.00
   11    7    7      0.94      0.00
   12    7    7     -3.59      0.00
   13    7    7      0.12      0.00
   14    7    7      0.92      0.00
   15    7    7     -0.48      0.00
   16    7    7     -3.63      0.00
   17    7    7      0.60      0.00
   18    7    7      0.46      0.00
   19    7    7      2.60      0.00
   20    7    7      0.55      0.00
   21    7    7      0.33      0.00
   22    7    7      1.71      0.00
    1    8    7      0.14      0.00
    2    8    7      1.76      0.00
    3    8    7     -0.73      0.00
    4    8    7      1.71      0.00
    5    8    7      1.40      0.00
    6    8    7      1.30      0.00
    7    8    7     -1.98      0.00
    8    8    7      2.76      0.00
    9    8    7     -1.45      0.00
   10    8    7      3.42      0.00
   11    8    7      2.33      0.00
   12    8    7      0.68      0.00
   13    8    7      0.40      0.00
   14    8    7      3.63      0.00
   15    8    7      0.59      0.00
   16    8    7     -1.33      0.00
   17    8    7      0.43      0.00
   18    8    7      1.52      0.00
   19    8    7      0.05      0.00
   20    8    7     -1.86      0.00
   21    8    7     -0.06      0.00
    0    9    7     -3.36      0.00
    1    9    7     -3.28      0.00
    2    9    7     -2.32      0.00
    3    9    7     -4.56      0.00
    4    9    7      0.48      0.00
    5    9    7      2.92      0.00
    6    9    7      0.02      0.00
    7    9    7     -0.12      0.00
    8    9    7     -2.55      0.00
    9    9    7     -1.88      0.00
   10    9    7      0.47      0.00
   11    9    7     -0.90      0.00
   12    9    7     -0.65      0.00
   13    9    7     -0.05      0.00
   14    9    7      3.03      0.00
   15    9    7      1.17      0.00
   16    9    7      0.48      0.00
   17    9    7     -0.38      0.00
   18    9    7      1.97      0.00
   19    9    7      0.04      0.00
   20    9    7     -2.35      0.00
   21    9    7     -1.21      0.00
    1   10    7     -3.53      0.00
    2   10    7     -4.30      0.00
    3   10    7     -2.08      0.00
    4   10    7     -2.67      0.00
    5   10    7      4.20      0.00
    6   10    7     -2.67      0.00
    7   10    7     -1.04      0.00
    8   10    7     -0.57      0.00
    9   10    7      1.65      0.00
   10   10    7      1.46      0.00
   11   10    7     -1.43      0.00
   12   10    7     -2.30      0.00
   13   10    7     -2.44      0.00
   14   10    7     -0.05      0.00
   15   10    7     -2.76      0.00
   16   10    7     -1.71      0.00
   17   10    7      0.27      0.00
   18   10    7      0.73      0.00
   19   10    7     -0.59      0.00
   20   10    7     -1.07      0.00
   21   10    7     -0.38      0.00
    0   11    7     -0.11      0.00
    1   11    7     -2.40      0.00
    2   11    7     -0.43      0.00
    3   11    7      0.88      0.00
    4   11    7      2.86      0.00
    5   11    7      4.49      0.00
    6   11    7     -0.28      0.00
    7   11    7     -2.31      0.00
    8   11    7     -0.05      0.00
    9   11    7      0.18      0.00
   10   11    7     -1.53      0.00
   11   11    7     -2.06      0.00
   12   11    7      0.08      0.00
   13   11    7     -2.28      0.00
   14   11    7     -1.28      0.00
   15   11    7     -0.77      0.00
   16   11    7      0.89      0.00
   17   11    7      0.44      0.00
   18   11    7      1.33      0.00
   19   11    7      0.45      0.00
   20   11    7     -1.44      0.00
   21   11    7      1.53      0.00
    1   12    7     -2.12      0.00
    2   12    7     -1.63      0.00
    3   12    7      4.51      0.00
    4   12    7      0.07      0.00
    5   12    7      6.29      0.00
    6   12    7     -0.91      0.00
    7   12    7     -2.86      0.00
    8   12    7      0.29      0.00
    9   12    7      2.81      0.00
   10   12    7      1.19      0.00
   11   12    7      0.44      0.00
   12   12    7     -0.64      0.00
   13   12    7      1.65      0.00
   14   12    7      1.15      0.00
   15   12    7     -1.49      0.00
   16   12    7      1.00      0.00
   17   12    7      1.19      0.00
   18   12    7     -0.04      0.00
   19   12    7      0.08      0.00
   20   12    7     -0.68      0.00
   21   12    7      0.46      0.00
    0   13    7      3.92      0.00
    1   13    7     -0.54      0.00
    2   13    7     -0.98      0.00
    3   13    7      1.93      0.00
    4   13    7      3.13      0.00
    5   13    7      2.66      0.00
    6   13    7     -0.14      0.00
    7   13    7     -2.23      0.00
    8   13    7      0.81      0.00
    9   13    7      2.03      0.00
   10   13    7     -1.94      0.00
   11   13    7      0.16      0.00
   12   13    7      0.29      0.00
   13   13    7      1.95      0.00
   14   13    7     -1.58      0.00
   15   13    7      1.10      0.00
   16   13    7      1.41      0.00
   17   13    7      0.57      0.00
   18   13    7      0.30      0.00
   19   13    7      0.03      0.00
   20   13    7     -0.71      0.00
    1   14    7     -8.94      0.00
    2   14    7     -0.76      0.00
    3   14    7     -0.21      0.00
    4   14    7     -0.43      0.00
    5   14    7      1.65      0.00
    6   14    7     -0.90      0.00
    7   14    7     -3.62      0.00
    8   14    7      2.87      0.00
    9   14    7      0.77      0.00
   10   14    7     -0.34      0.00
   11   14    7     -2.68      0.00
   12   14    7      1.22      0.00
   13   14    7      0.99      0.00
   14   14    7      1.93      0.00
   15   14    7     -0.07      0.00
   16   14    7     -0.13      0.00
   17   14    7      0.31      0.00
   18   14    7     -2.26      0.00
   19   14    7     -1.03      0.00
   20   14    7     -1.14      0.00
    0   15    7     -3.55      0.00
    1   15    7      3.50      0.00
    2   15    7     -5.49      0.00
    3   15    7      2.75      0.00
    4   15    7     -0.65      0.00
    5   15    7     -2.84      0.00
    6   15    7      2.65      0.00
    7   15    7     -3.75      0.00
    8   15    7      1.04      0.00
    9   15    7     -2.29      0.00
   10   15    7      0.27      0.00
   11   15    7     -4.10      0.00
   12   15    7      0.11      0.00
   13   15    7     -3.35      0.00
   14   15    7     -0.66      0.00
   15   15    7     -1.55      0.00
   16   15    7      1.33      0.00
   17   15    7     -1.02      0.00
   18   15    7     -2.10      0.00
   19   15    7      1.06      0.00
   20   15    7     -0.20      0.00
    1   16    7      5.40      0.00
    2   16    7     -2.31      0.00
    3   16    7      4.13      0.00
    4   16    7     -2.03      0.00
    5   16    7      3.60      0.00
    6   16    7     -1.29      0.00
    7   16    7     -1.10      0.00
    8   16    7     -0.65      0.00
    9   16    7      2.29      0.00
   10   16    7     -2.26      0.00
   11   16    7     -2.28      0.00
   12   16    7      0.12      0.00
   13   16    7      0.33      0.00
   14   16    7      1.62      0.00
   15   16    7     -0.67      0.00
   16   16    7      0.61      0.00
   17   16    7     -0.07      0.00
   18   16    7      0.27      0.00
   19   16    7      0.08      0.00
    0   17    7      0.76      0.00
    1   17    7      6.89      0.00
    2   17    7      3.73      0.00
    3   17    7      7.81      0.00
    4   17    7     -1.23      0.00
    5   17    7      0.16      0.00
    6   17    7      3.51      0.00
    7   17    7      2.17      0.00
    8   17    7     -2.00      0.00
    9   17    7      1.88      0.00
   10   17    7     -0.79      0.00
   11   17    7      2.35      0.00
   12   17    7     -0.44      0.00
   13   17    7      2.91      0.00
   14   17    7     -0.35      0.00
   15   17    7      2.57      0.00
   16   17    7      2.22      0.00
   17   17    7      0.13      0.00
   18   17    7     -0.77      0.00
   19   17    7      1.76      0.00
    1   18    7     -3.65      0.00
    2   18    7     -0.68      0.00
    3   18    7     -6.08      0.00
    4   18    7     -0.60      0.00
    5   18    7     -0.36      0.00
    6   18    7      4.10      0.00
    7   18    7     -0.71      0.00
    8   18    7     -1.36      0.00
    9   18    7      0.60      0.00
   10   18    7      0.29      0.00
   11   18    7     -0.49      0.00
   12   18    7     -0.31      0.00
   13   18    7      2.01      0.00
   14   18    7      0.46      0.00
   15   18    7      0.76      0.00
   16   18    7     -1.21      0.00
   17   18    7      0.66      0.00
   18   18    7     -0.01      0.00
   19   18    7      0.54      0.00
    0   19    7     -7.81      0.00
    1   19    7      2.63      0.00
    2   19    7      0.92      0.00
    3   19    7      1.38      0.00
    4   19    7     -4.27      0.00
    5   19    7     -4.07      0.00
    6   19    7      4.34      0.00
    7   19    7     -3.16      0.00
    8   19    7      0.90      0.00
    9   19    7     -2.36      0.00
   10   19    7      1.72      0.00
   11   19    7     -2.62      0.00
   12   19    7      0.18      0.00
   13   19    7     -2.00      0.00
   14   19    7     -1.24      0.00
   15   19    7     -2.08      0.00
   16   19    7     -2.03      0.00
   17   19    7     -2.19      0.00
   18   19    7     -3.00      0.00
    1   20    7      4.66      0.00
    2   20    7      1.05      0.00
    3   20    7      0.42      0.00
    4   20    7     -2.28      0.00
    5   20    7     -0.61      0.00
    6   20    7      3.21      0.00
    7   20    7     -1.25      0.00
    8   20    7     -1.72      0.00
    9   20    7     -3.58      0.00
   10   20    7      0.32      0.00
   11   20    7     -1.07      0.00
   12   20    7      0.08      0.00
   13   20    7      0.37      0.00
   14   20    7      1.50      0.00
   15   20    7     -0.92      0.00
   16   20    7     -0.55      0.00
   17   20    7     -0.21      0.00
   18   20    7     -0.35      0.00
    0   21    7     -2.06      0.00
    1   21    7      0.97      0.00
    2   21    7      2.86      0.00
    3   21    7      1.41      0.00
    4   21    7     -2.11      0.00
    5   21    7      1.02      0.00
    6   21    7      2.19      0.00
    7   21    7     -0.91      0.00
    8   21    7     -1.65      0.00
    9   21    7     -0.19      0.00
   10   21    7      0.30      0.00
   11   21    7      0.26      0.00
   12   21    7     -0.36      0.00
   13   21    7      0.51      0.00
   14   21    7      2.67      0.00
   15   21    7      1.84      0.00
   16   21    7      2.00      0.00
   17   21    7      1.02      0.00
    1   22    7      2.21      0.00
    2   22    7      0.94      0.00
    3   22    7      2.68      0.00
    4   22    7     -1.93      0.00
    5   22    7      0.03      0.00
    6   22    7      1.96      0.00
    7   22    7      1.54      0.00
    8   22    7     -0.85      0.00
    9   22    7      1.21      0.00
   10   22    7     -0.99      0.00
   11   22    7      2.05      0.00
   12   22    7     -1.48      0.00
   13   22    7      2.06      0.00
   14   22    7      0.13      0.00
   15   22    7      0.16      0.00
   16   22    7      0.04      0.00
   17   22    7      0.89      0.00
    0   23    7      0.25      0.00
    1   23    7      2.15      0.00
    2   23    7     -2.43      0.00
    3   23    7      2.45      0.00
    4   23    7     -0.85      0.00
    5   23    7      1.12      0.00
    6   23    7      2.56      0.00
    7   23    7      1.28      0.00
    8   23    7     -0.97      0.00
    9   23    7      1.30      0.00
   10   23    7      0.38      0.00
   11   23    7      2.15      0.00
   12   23    7     -1.43      0.00
   13   23    7      0.08      0.00
   14   23    7     -1.25      0.00
   15   23    7     -0.31      0.00
   16   23    7     -2.18      0.00
    1   24    7     -4.80      0.00
    2   24    7      0.89      0.00
    3   24    7     -1.54      0.00
    4   24    7     -0.28      0.00
    5   24    7     -2.80      0.00
    6   24    7      2.29      0.00
    7   24    7     -3.63      0.00
    8   24    7      0.06      0.00
    9   24    7     -1.89      0.00
   10   24    7      0.31      0.00
   11   24    7     -2.44      0.00
   12   24    7     -1.01      0.00
   13   24    7     -0.66      0.00
   14   24    7      0.10      0.00
   15   24    7     -0.73      0.00
    0   25    7      5.34      0.00
    1   25    7      1.06      0.00
    2   25    7     -1.80      0.00
    3   25    7     -2.50      0.00
    4   25    7      1.00      0.00
    5   25    7     -5.82      0.00
    6   25    7      1.01      0.00
    7   25    7     -2.54      0.00
    8   25    7      0.24      0.00
    9   25    7     -3.05      0.00
   10   25    7     -0.20      0.00
   11   25    7     -1.37      0.00
   12   25    7      0.82      0.00
   13   25    7      0.28      0.00
   14   25    7      1.35      0.00
   15   25    7     -1.50      0.00
    1   26    7      3.87      0.00
    2   26    7      0.47      0.00
    3   26    7      3.81      0.00
    4   26    7      0.16      0.00
    5   26    7      3.64      0.00
    6   26    7      0.89      0.00
    7   26    7     -0.25      0.00
    8   26    7     -0.04      0.00
    9   26    7      0.95      0.00
   10   26    7      0.86      0.00
   11   26    7      1.17      0.00
   12   26    7     -0.16      0.00
   13   26    7      1.55      0.00
   14   26    7      0.91      0.00
    0   27    7     -0.32      0.00
    1   27    7      2.69      0.00
    2   27    7     -1.92      0.00
    3   27    7      1.95      0.00
    4   27    7     -0.76      0.00
    5   27    7      2.02      0.00
    6   27    7     -1.72      0.00
    7   27    7      3.89      0.00
    8   27    7      0.32      0.00
    9   27    7      1.94      0.00
   10   27    7     -1.13      0.00
   11   27    7      1.18      0.00
   12   27    7      0.35      0.00
   13   27    7      2.37      0.00
    1   28    7     -2.08      0.00
    2   28    7     -0.61      0.00
    3   28    7     -3.19      0.00
    4   28    7      0.50      0.00
    5   28    7      0.17      0.00
    6   28    7     -0.35      0.00
    7   28    7     -1.36      0.00
    8   28    7     -0.93      0.00
    9   28    7     -0.32      0.00
   10   28    7     -0.93      0.00
   11   28    7     -0.37      0.00
   12   28    7     -0.94      0.00
    0   29    7     -0.19      0.00
    1   29    7      0.79      0.00
    2   29    7      3.23      0.00
    3   29    7     -0.76      0.00
    4   29    7     -0.14      0.00
    5   29    7     -2.12      0.00
    6   29    7      0.85      0.00
    7   29    7     -3.50      0.00
    8   29    7      1.39      0.00
    9   29    7     -2.54      0.00
   10   29    7     -0.60      0.00
   11   29    7     -0.51      0.00
    1   30    7     -0.41      0.00
    2   30    7     -0.57      0.00
    3   30    7      0.62      0.00
    4   30    7      0.33      0.00
    5   30    7      1.41      0.00
    6   30    7      1.15      0.00
    7   30    7     -0.90      0.00
    8   30    7      1.11      0.00
    9   30    7     -0.22      0.00
   10   30    7      1.34      0.00
    0   31    7     -2.59      0.00
    1   31    7      0.07      0.00
    2   31    7      1.35      0.00
    3   31    7      0.59      0.00
    4   31    7     -2.26      0.00
    5   31    7      0.73      0.00
    6   31    7     -0.72      0.00
    7   31    7      0.27      0.00
    8   31    7     -0.07      0.00
    1   32    7      0.50      0.00
    2   32    7     -0.27      0.00
    3   32    7      1.39      0.00
    4   32    7     -0.64      0.00
    5   32    7      0.07      0.00
    6   32    7      0.37      0.00
    0   33    7     -0.91      0.00
    1   33    7      0.88      0.00
    2   33    7      1.00      0.00
    3   33    7      1.01      0.00
    4   33    7      0.15      0.00
    0    0    0      0.00      0.00
;
_platon_squeeze_void_probe_radius 1.20
_shelx_fab_checksum              1110
loop_
_space_group_symop_operation_xyz
'x, y, z'
'-x+1/2, -y, z+1/2'
'-x, y+1/2, -z'
'x+1/2, -y+1/2, -z+1/2'
'-x, -y, -z'
'x-1/2, y, -z-1/2'
'x, -y-1/2, z'
'-x-1/2, y-1/2, z-1/2'
loop_
_atom_site_label
_atom_site_type_symbol
_atom_site_fract_x
_atom_site_fract_y
_atom_site_fract_z
_atom_site_U_iso_or_equiv
_atom_site_adp_type
_atom_site_occupancy
_atom_site_site_symmetry_order
_atom_site_calc_flag
_atom_site_refinement_flags_posn
_atom_site_refinement_flags_adp
_atom_site_refinement_flags_occupancy
_atom_site_disorder_assembly
_atom_site_disorder_group
Mo1 Mo 0.33908(4) 0.71448(3) 0.03829(14) 0.0267(6) Uani 1 1 d . . . . .
O1 O 0.2844(4) 0.7500 -0.0268(15) 0.036(3) Uani 1 2 d S T P . .
O2 O 0.3972(4) 0.7500 0.0070(14) 0.027(3) Uani 1 2 d S T P . .
O4 O 0.2844(4) 0.6725(2) -0.0394(13) 0.051(3) Uani 1 1 d . . . . .
O5 O 0.3987(3) 0.6717(2) -0.0251(13) 0.036(2) Uani 1 1 d . . . . .
O6 O 0.3365(3) 0.7064(2) 0.2521(11) 0.040(2) Uani 1 1 d . . . . .
O7 O 0.2140(4) 0.6885(3) 0.1339(14) 0.058(3) Uani 1 1 d . . . . .
O3 O 0.3603(4) 0.7007(2) -0.2450(11) 0.034(2) Uani 1 1 d . . . . .
C3 C 0.1995(6) 0.6397(4) -0.0663(18) 0.037(4) Uani 1 1 d . . . . .
C1 C 0.2370(7) 0.6692(4) 0.018(2) 0.038(4) Uani 1 1 d . . . . .
C6 C 0.4630(5) 0.5902(3) -0.3751(19) 0.034(3) Uani 1 1 d . U . . .
H6 H 0.4826 0.5698 -0.3343 0.041 Uiso 1 1 calc R U . . .
C5 C 0.4527(5) 0.5946(4) -0.5525(17) 0.033(3) Uani 1 1 d . . . . .
C4 C 0.1502(7) 0.6304(5) 0.009(2) 0.069(5) Uani 1 1 d . . . . .
H4 H 0.1397 0.6414 0.1134 0.082 Uiso 1 1 calc R U . . .
C7 C 0.4152(5) 0.6475(3) -0.3169(18) 0.033(4) Uani 1 1 d . . . . .
C10 C 0.1162(6) 0.6048(5) -0.070(2) 0.063(5) Uani 1 1 d . . . . .
H10 H 0.0832 0.5983 -0.0165 0.075 Uiso 1 1 calc R U . . .
C8 C 0.4066(6) 0.6516(4) -0.4934(19) 0.043(4) Uani 1 1 d . U . . .
H8 H 0.3869 0.6720 -0.5345 0.052 Uiso 1 1 calc R U . . .
C9 C 0.4265(6) 0.6259(4) -0.6099(19) 0.045(4) Uani 1 1 d . . . . .
H9 H 0.4221 0.6298 -0.7294 0.054 Uiso 1 1 calc R U . . .
C11 C 0.2161(6) 0.6224(4) -0.212(2) 0.058(5) Uani 1 1 d . . . . .
H11 H 0.2513 0.6270 -0.2549 0.070 Uiso 1 1 calc R U . . .
N2 N 0.5260(4) 0.5517(3) -0.9434(14) 0.038(3) Uani 1 1 d . . . . .
N1 N 0.4511(4) 0.5010(3) -0.7809(15) 0.040(3) Uani 1 1 d . . . . .
H1 H 0.4734 0.4998 -0.8682 0.048 Uiso 1 1 calc R U . . .
C15 C 0.0638(5) 0.5727(4) -0.4625(18) 0.034(4) Uani 1 1 d . U . . .
C16 C 0.0713(7) 0.6081(4) -0.546(2) 0.056(4) Uani 1 1 d . . . . .
H16 H 0.0955 0.6266 -0.5090 0.068 Uiso 1 1 calc R U . . .
C24 C 0.5381(6) 0.6102(4) -0.816(2) 0.047(4) Uani 1 1 d . . . . .
H24 H 0.5342 0.6302 -0.7399 0.056 Uiso 1 1 calc R U . . .
C25 C 0.4436(6) 0.6170(4) -0.2597(18) 0.043(4) Uani 1 1 d . . . . .
H25 H 0.4501 0.6141 -0.1405 0.052 Uiso 1 1 calc R U . . .
C14 C 0.0918(6) 0.5611(4) -0.3124(18) 0.043(4) Uani 1 1 d . . . . .
C18 C 0.4701(5) 0.5655(4) -0.6804(18) 0.034(4) Uani 1 1 d . . . . .
C12 C 0.1812(7) 0.5969(4) -0.303(2) 0.066(5) Uani 1 1 d . . . . .
H12 H 0.1919 0.5862 -0.4079 0.079 Uiso 1 1 calc R U . . .
C17 C 0.0853(5) 0.5272(4) -0.2293(18) 0.043(4) Uani 1 1 d . . . . .
C19 C 0.4454(6) 0.5310(4) -0.6686(18) 0.042(4) Uani 1 1 d . . . . .
C20 C 0.5088(6) 0.5747(3) -0.8077(18) 0.035(4) Uani 1 1 d . U . . .
C13 C 0.1302(6) 0.5888(3) -0.2262(19) 0.036(4) Uani 1 1 d . . . . .
C22 C 0.4025(7) 0.5215(4) -0.548(2) 0.061(5) Uani 1 1 d . U . . .
H22 H 0.3887 0.5369 -0.4599 0.074 Uiso 1 1 calc R U . . .
C26 C 0.3908(6) 0.6750(4) -0.193(2) 0.040(4) Uani 1 1 d . . . . .
C27 C 0.1142(6) 0.5126(4) -0.0811(19) 0.056(5) Uani 1 1 d . . . . .
H27 H 0.1408 0.5254 -0.0176 0.067 Uiso 1 1 calc R U . . .
O1W O 0.1892(4) 0.7500 0.0865(12) 0.008(2) Uiso 1 2 d S . P . .
N3 N 0.2761(9) 0.7500 0.552(3) 0.087(6) Uiso 1 2 d S . P . .
C29 C 0.2455(9) 0.7155(5) 0.554(3) 0.115(7) Uiso 1 1 d . . . . .
H29A H 0.2708 0.6949 0.5525 0.172 Uiso 1 1 calc R U . . .
H29B H 0.2234 0.7143 0.6580 0.172 Uiso 1 1 calc R U . . .
H29C H 0.2221 0.7143 0.4529 0.172 Uiso 1 1 calc R U . . .
O2W O 0.1345(10) 0.7500 -0.163(3) 0.154(9) Uiso 1 2 d S . P . .
O3W O 0.1100(10) 0.7500 0.280(3) 0.158(9) Uiso 1 2 d S . P . .
O4W O 0.5207(15) 0.7500 0.293(5) 0.244(15) Uiso 1 2 d S . P . .
loop_
_atom_site_aniso_label
_atom_site_aniso_U_11
_atom_site_aniso_U_22
_atom_site_aniso_U_33
_atom_site_aniso_U_23
_atom_site_aniso_U_13
_atom_site_aniso_U_12
Mo1 0.0337(9) 0.0218(8) 0.0247(9) -0.0014(5) -0.0016(6) -0.0016(5)
O1 0.027(7) 0.041(8) 0.041(8) 0.000 -0.001(6) 0.000
O2 0.016(6) 0.032(7) 0.031(7) 0.000 -0.001(5) 0.000
O4 0.032(6) 0.050(7) 0.071(7) -0.009(5) 0.010(6) -0.017(5)
O5 0.047(6) 0.033(6) 0.030(7) 0.000(5) 0.000(5) 0.006(4)
O6 0.050(6) 0.039(6) 0.031(6) -0.010(4) -0.010(5) 0.000(4)
O7 0.063(7) 0.050(7) 0.062(7) -0.004(6) 0.004(6) -0.019(6)
O3 0.055(6) 0.014(5) 0.035(6) -0.003(4) -0.004(5) 0.019(5)
C3 0.038(10) 0.047(10) 0.028(9) -0.013(8) -0.004(8) -0.010(8)
C1 0.051(12) 0.032(9) 0.032(10) -0.002(8) -0.013(9) 0.012(9)
C6 0.048(7) 0.016(6) 0.039(8) -0.008(6) 0.003(6) 0.007(6)
C5 0.049(9) 0.023(9) 0.027(10) -0.016(8) 0.008(7) -0.005(7)
C4 0.063(12) 0.079(13) 0.064(12) -0.029(10) -0.008(11) -0.043(10)
C7 0.043(9) 0.012(8) 0.044(11) 0.005(8) 0.002(8) -0.004(7)
C10 0.051(11) 0.084(13) 0.054(12) -0.014(11) 0.013(10) -0.030(10)
C8 0.059(8) 0.040(7) 0.031(8) 0.002(7) -0.008(6) 0.001(6)
C9 0.067(10) 0.032(10) 0.036(10) -0.010(9) 0.011(8) 0.013(8)
C11 0.027(9) 0.052(10) 0.096(15) -0.033(11) 0.000(10) -0.015(8)
N2 0.046(7) 0.034(7) 0.036(7) -0.008(6) 0.009(6) -0.007(6)
N1 0.046(7) 0.023(7) 0.050(8) -0.005(7) 0.019(6) 0.000(6)
C15 0.042(7) 0.028(7) 0.033(7) 0.006(7) 0.003(6) -0.003(6)
C16 0.076(12) 0.048(11) 0.046(11) -0.003(9) -0.015(10) -0.019(9)
C24 0.070(11) 0.032(10) 0.039(10) -0.008(7) 0.007(9) -0.004(8)
C25 0.076(11) 0.033(9) 0.020(9) -0.002(8) -0.003(8) -0.007(9)
C14 0.060(10) 0.036(10) 0.032(10) 0.013(9) 0.006(8) -0.003(8)
C18 0.029(8) 0.023(9) 0.050(10) 0.009(8) 0.013(8) -0.002(7)
C12 0.051(11) 0.061(11) 0.085(13) -0.024(11) 0.006(11) 0.001(10)
C17 0.046(9) 0.059(12) 0.024(9) 0.005(9) -0.016(7) -0.015(9)
C19 0.054(10) 0.032(10) 0.039(10) 0.005(9) 0.031(8) -0.004(8)
C20 0.045(7) 0.024(7) 0.038(7) -0.001(6) 0.000(7) -0.001(6)
C13 0.049(11) 0.022(8) 0.037(10) 0.000(8) -0.013(9) -0.015(8)
C22 0.072(8) 0.053(8) 0.059(8) -0.026(7) 0.014(7) -0.010(7)
C26 0.052(10) 0.028(10) 0.041(12) -0.019(9) 0.016(9) -0.002(8)
C27 0.075(11) 0.045(11) 0.048(11) 0.013(9) -0.022(9) -0.033(9)
loop_
_atom_type_symbol
_atom_type_description
_atom_type_scat_dispersion_real
_atom_type_scat_dispersion_imag
_atom_type_scat_source
C C 0.0033 0.0016 'International Tables Vol C Tables 4.2.6.8 and 6.1.1.4'
H H 0.0000 0.0000 'International Tables Vol C Tables 4.2.6.8 and 6.1.1.4'
N N 0.0061 0.0033 'International Tables Vol C Tables 4.2.6.8 and 6.1.1.4'
O O 0.0106 0.0060 'International Tables Vol C Tables 4.2.6.8 and 6.1.1.4'
Mo Mo -1.6832 0.6857 'International Tables Vol C Tables 4.2.6.8 and 6.1.1.4'
loop_
_geom_angle_atom_site_label_1
_geom_angle_atom_site_label_2
_geom_angle_atom_site_label_3
_geom_angle
_geom_angle_site_symmetry_1
_geom_angle_site_symmetry_3
_geom_angle_publ_flag
O6 Mo1 O1 110.3(5) . . ?
O6 Mo1 O2 105.5(4) . . ?
O1 Mo1 O2 91.9(3) . . ?
O6 Mo1 O4 97.4(4) . . ?
O1 Mo1 O4 88.1(4) . . ?
O2 Mo1 O4 155.5(4) . . ?
O6 Mo1 O5 97.0(4) . . ?
O1 Mo1 O5 151.8(4) . . ?
O2 Mo1 O5 87.3(3) . . ?
O4 Mo1 O5 81.3(4) . . ?
O6 Mo1 O3 154.9(4) . . ?
O1 Mo1 O3 93.2(4) . . ?
O2 Mo1 O3 81.9(4) . . ?
O4 Mo1 O3 73.6(4) . . ?
O5 Mo1 O3 58.8(3) . . ?
O6 Mo1 Mo1 100.0(3) . 7_575 ?
O1 Mo1 Mo1 48.0(2) . 7_575 ?
O2 Mo1 Mo1 48.3(2) . 7_575 ?
O4 Mo1 Mo1 136.0(3) . 7_575 ?
O5 Mo1 Mo1 135.2(2) . 7_575 ?
O3 Mo1 Mo1 102.5(2) . 7_575 ?
O6 Mo1 C26 126.5(5) . . ?
O1 Mo1 C26 121.7(5) . . ?
O2 Mo1 C26 85.6(4) . . ?
O4 Mo1 C26 73.7(4) . . ?
O5 Mo1 C26 30.1(4) . . ?
O3 Mo1 C26 28.8(4) . . ?
Mo1 Mo1 C26 123.2(3) 7_575 . ?
Mo1 O1 Mo1 84.0(4) 7_575 . ?
Mo1 O2 Mo1 83.5(4) 7_575 . ?
C1 O4 Mo1 123.9(9) . . ?
C26 O5 Mo1 93.2(8) . . ?
C26 O3 Mo1 89.5(8) . . ?
C11 C3 C4 119.7(13) . . ?
C11 C3 C1 119.5(14) . . ?
C4 C3 C1 120.7(14) . . ?
O4 C1 O7 127.7(14) . . ?
O4 C1 C3 117.8(14) . . ?
O7 C1 C3 114.4(15) . . ?
C25 C6 C5 118.8(12) . . ?
C9 C5 C6 119.5(12) . . ?
C9 C5 C18 119.9(12) . . ?
C6 C5 C18 120.6(12) . . ?
C3 C4 C10 120.5(15) . . ?
C25 C7 C8 118.5(13) . . ?
C25 C7 C26 122.0(13) . . ?
C8 C7 C26 119.5(13) . . ?
C13 C10 C4 121.0(14) . . ?
C9 C8 C7 120.8(13) . . ?
C5 C9 C8 120.7(13) . . ?
C3 C11 C12 121.7(14) . . ?
C15 N2 C20 105.1(10) 6_654 . ?
C19 N1 C17 109.1(10) . 2_564 ?
N2 C15 C14 125.7(12) 6_554 . ?
N2 C15 C16 109.7(12) 6_554 . ?
C14 C15 C16 124.6(13) . . ?
C24 C16 C15 108.9(13) 6_554 . ?
C16 C24 C20 106.2(12) 6_654 . ?
C7 C25 C6 121.6(13) . . ?
C17 C14 C15 125.8(13) . . ?
C17 C14 C13 116.7(12) . . ?
C15 C14 C13 117.3(12) . . ?
C19 C18 C20 123.5(12) . . ?
C19 C18 C5 117.6(12) . . ?
C20 C18 C5 118.9(11) . . ?
C13 C12 C11 117.1(14) . . ?
C14 C17 N1 125.4(12) . 2_565 ?
C14 C17 C27 129.2(13) . . ?
N1 C17 C27 105.4(12) 2_565 . ?
C18 C19 N1 128.0(12) . . ?
C18 C19 C22 124.9(13) . . ?
N1 C19 C22 106.6(12) . . ?
C18 C20 N2 125.7(12) . . ?
C18 C20 C24 124.3(13) . . ?
N2 C20 C24 109.9(11) . . ?
C10 C13 C12 119.7(13) . . ?
C10 C13 C14 120.3(14) . . ?
C12 C13 C14 119.9(14) . . ?
C27 C22 C19 108.6(13) 2_564 . ?
O3 C26 O5 118.0(11) . . ?
O3 C26 C7 121.5(14) . . ?
O5 C26 C7 120.4(14) . . ?
O3 C26 Mo1 61.7(6) . . ?
O5 C26 Mo1 56.7(6) . . ?
C7 C26 Mo1 171.3(9) . . ?
C22 C27 C17 110.3(13) 2_565 . ?
C29 N3 C29 118(2) . 7_575 ?
loop_
_geom_bond_atom_site_label_1
_geom_bond_atom_site_label_2
_geom_bond_distance
_geom_bond_site_symmetry_2
_geom_bond_publ_flag
Mo1 O6 1.660(9) . ?
Mo1 O1 1.908(8) . ?
Mo1 O2 1.919(8) . ?
Mo1 O4 2.094(9) . ?
Mo1 O5 2.167(8) . ?
Mo1 O3 2.280(8) . ?
Mo1 Mo1 2.554(2) 7_575 ?
Mo1 C26 2.590(13) . ?
O1 Mo1 1.908(8) 7_575 ?
O2 Mo1 1.919(8) 7_575 ?
O4 C1 1.238(17) . ?
O5 C26 1.302(16) . ?
O7 C1 1.254(16) . ?
O3 C26 1.248(16) . ?
C3 C11 1.337(19) . ?
C3 C4 1.369(19) . ?
C3 C1 1.54(2) . ?
C6 C25 1.387(17) . ?
C6 C5 1.388(18) . ?
C5 C9 1.363(18) . ?
C5 C18 1.493(18) . ?
C4 C10 1.37(2) . ?
C7 C25 1.368(18) . ?
C7 C8 1.374(18) . ?
C7 C26 1.493(18) . ?
C10 C13 1.367(19) . ?
C8 C9 1.371(18) . ?
C11 C12 1.43(2) . ?
N2 C15 1.390(16) 6_654 ?
N2 C20 1.391(16) . ?
N1 C19 1.388(16) . ?
N1 C17 1.401(16) 2_564 ?
C15 N2 1.390(16) 6_554 ?
C15 C14 1.397(18) . ?
C15 C16 1.435(19) . ?
C16 C24 1.332(19) 6_554 ?
C24 C16 1.332(19) 6_654 ?
C24 C20 1.464(18) . ?
C14 C17 1.381(19) . ?
C14 C13 1.516(19) . ?
C18 C19 1.380(17) . ?
C18 C20 1.391(17) . ?
C12 C13 1.400(19) . ?
C17 N1 1.401(16) 2_565 ?
C17 C27 1.432(19) . ?
C19 C22 1.435(19) . ?
C22 C27 1.316(18) 2_564 ?
C27 C22 1.316(18) 2_565 ?
N3 C29 1.45(2) . ?
N3 C29 1.45(2) 7_575 ?
loop_
_platon_squeeze_void_nr
_platon_squeeze_void_average_x
_platon_squeeze_void_average_y
_platon_squeeze_void_average_z
_platon_squeeze_void_volume
_platon_squeeze_void_count_electrons
_platon_squeeze_void_content
1 0.250 0.000 -0.008 404 111 ' '
2 0.750 0.000 -0.038 404 111 ' '
3 0.966 0.250 0.257 198 35 ' '
4 0.466 0.250 0.242 199 35 ' '
5 0.250 0.500 -0.028 404 111 ' '
6 0.750 0.500 -0.056 404 111 ' '
7 0.034 0.750 -0.258 198 35 ' '
8 0.534 0.750 -0.243 198 35 ' '
loop_
_platon_missing_refln_index_h
_platon_missing_refln_index_k
_platon_missing_refln_index_l
_platon_missing_refln_theta
2 0 0 1.678
0 2 0 1.133
