#------------------------------------------------------------------------------
#$Date: 2020-10-06 11:52:17 +0300 (Tue, 06 Oct 2020) $
#$Revision: 257543 $
#$URL: file:///home/coder/svn-repositories/cod/cif/7/70/52/7705263.cif $
#------------------------------------------------------------------------------
#
# This file is available in the Crystallography Open Database (COD),
# http://www.crystallography.net/
#
# All data on this site have been placed in the public domain by the
# contributors.
#
data_7705263
loop_
_publ_author_name
'Xu, Bo-Wei'
'Niu, Ru-Jie'
'Liu, Quan'
'Yang, Jun-Yi'
'Zhang, Wen-Hua'
'Young, David J.'
_publ_section_title
;
 Similarities and differences between Mn(II) and Zn(II) coordination
 polymers supported by porphyrin-based ligands: synthesis, structures and
 nonlinear optical properties.
;
_journal_issue                   36
_journal_name_full
'Dalton transactions (Cambridge, England : 2003)'
_journal_page_first              12622
_journal_page_last               12631
_journal_paper_doi               10.1039/d0dt02450c
_journal_volume                  49
_journal_year                    2020
_chemical_formula_moiety         'C44 H32 N8 Zn'
_chemical_formula_sum            'C44 H32 N8 Zn'
_chemical_formula_weight         738.14
_space_group_crystal_system      monoclinic
_space_group_IT_number           15
_space_group_name_Hall           '-C 2yc'
_space_group_name_H-M_alt        'C 1 2/c 1'
_atom_sites_solution_hydrogens   geom
_audit_creation_method           SHELXL-2016/6
_audit_update_record
;
2020-06-16 deposited with the CCDC.	2020-08-24 downloaded from the CCDC.
;
_cell_angle_alpha                90
_cell_angle_beta                 96.004(2)
_cell_angle_gamma                90
_cell_formula_units_Z            4
_cell_length_a                   31.6289(18)
_cell_length_b                   9.5751(5)
_cell_length_c                   14.6667(8)
_cell_measurement_reflns_used    9972
_cell_measurement_temperature    173(2)
_cell_measurement_theta_max      54.69
_cell_measurement_theta_min      4.20
_cell_volume                     4417.4(4)
_computing_cell_refinement       'Bruker SAINT'
_computing_data_collection       'Bruker APEX2'
_computing_data_reduction        'Bruker SAINT'
_computing_molecular_graphics    'Bruker SHELXTL'
_computing_publication_material  'Bruker SHELXTL'
_computing_structure_refinement  'SHELXL-2014 (Sheldrick 2014)'
_computing_structure_solution    'SHELXS-97 (Sheldrick 2008)'
_diffrn_ambient_temperature      173(2)
_diffrn_measured_fraction_theta_full 0.999
_diffrn_measured_fraction_theta_max 1.000
_diffrn_measurement_device_type  'Bruker APEX-II CCD'
_diffrn_measurement_method       '\f and \w scans'
_diffrn_radiation_type           GaK\a
_diffrn_radiation_wavelength     1.34138
_diffrn_reflns_av_R_equivalents  0.0638
_diffrn_reflns_av_unetI/netI     0.0375
_diffrn_reflns_Laue_measured_fraction_full 0.999
_diffrn_reflns_Laue_measured_fraction_max 1.000
_diffrn_reflns_limit_h_max       38
_diffrn_reflns_limit_h_min       -38
_diffrn_reflns_limit_k_max       11
_diffrn_reflns_limit_k_min       -11
_diffrn_reflns_limit_l_max       17
_diffrn_reflns_limit_l_min       -17
_diffrn_reflns_number            31511
_diffrn_reflns_point_group_measured_fraction_full 0.999
_diffrn_reflns_point_group_measured_fraction_max 1.000
_diffrn_reflns_theta_full        53.594
_diffrn_reflns_theta_max         54.876
_diffrn_reflns_theta_min         4.199
_diffrn_standards_decay_%        0
_diffrn_standards_interval_count 0
_diffrn_standards_interval_time  0
_diffrn_standards_number         0
_exptl_absorpt_coefficient_mu    0.688
_exptl_absorpt_correction_T_max  0.960
_exptl_absorpt_correction_T_min  0.934
_exptl_absorpt_correction_type   multi-scan
_exptl_absorpt_process_details
;
 Sheldrick, G.M. SADABS (Program for Scaling and Correction of Area Detector
 Data), version 2008/1; University of G\"ottingen: G\"ottingen, Germany, 2008.
;
_exptl_crystal_colour            black
_exptl_crystal_density_diffrn    1.110
_exptl_crystal_description       block
_exptl_crystal_F_000             1528
_exptl_crystal_size_max          0.100
_exptl_crystal_size_mid          0.100
_exptl_crystal_size_min          0.060
_refine_diff_density_max         0.407
_refine_diff_density_min         -0.516
_refine_diff_density_rms         0.073
_refine_ls_extinction_coef       0.0008(2)
_refine_ls_extinction_expression Fc^*^=kFc[1+0.001xFc^2^\l^3^/sin(2\q)]^-1/4^
_refine_ls_extinction_method     'SHELXL-2016/6 (Sheldrick 2016)'
_refine_ls_goodness_of_fit_ref   1.066
_refine_ls_hydrogen_treatment    constr
_refine_ls_matrix_type           full
_refine_ls_number_parameters     288
_refine_ls_number_reflns         4193
_refine_ls_number_restraints     240
_refine_ls_restrained_S_all      1.046
_refine_ls_R_factor_all          0.0933
_refine_ls_R_factor_gt           0.0834
_refine_ls_shift/su_max          0.001
_refine_ls_shift/su_mean         0.000
_refine_ls_structure_factor_coef Fsqd
_refine_ls_weighting_details
'w=1/[\s^2^(Fo^2^)+(0.1442P)^2^+10.8865P] where P=(Fo^2^+2Fc^2^)/3'
_refine_ls_weighting_scheme      calc
_refine_ls_wR_factor_gt          0.2571
_refine_ls_wR_factor_ref         0.2655
_reflns_Friedel_coverage         0.000
_reflns_number_gt                3480
_reflns_number_total             4193
_reflns_threshold_expression     'I > 2\s(I)'
_cod_data_source_file            d0dt02450c2.cif
_cod_data_source_block           ZN-TMPP
_cod_depositor_comments
'Adding full bibliography for 7705260--7705263.cif.'
_cod_original_sg_symbol_H-M      'C 2/c'
_cod_database_code               7705263
_publcif_datablock.id            {e0687b83-f768-48a4-b7bd-e1cc96c9d7ab}
_shelx_shelxl_version_number     2016/6
_shelx_space_group_comment
;
The symmetry employed for this shelxl refinement is uniquely defined
by the following loop, which should always be used as a source of
symmetry information in preference to the above space-group names.
They are only intended as comments.
;
_shelx_estimated_absorpt_t_min   0.934
_shelx_estimated_absorpt_t_max   0.960
_shelx_res_file
;
TITL ga_90617a_a.res in C2/c
    T.res
    created by SHELXL-2016/6 at 20:19:17 on 20-Jul-2019
CELL  1.34138  31.6289   9.5751  14.6667   90.000   96.004   90.000
ZERR   4.000   0.0018   0.0005   0.0008    0.000    0.002    0.000
LATT 7
SYMM -X, Y, 1/2-Z
SFAC C  H  N  Zn
UNIT 176 128 32 4
SIZE 0.10 0.10 0.06

L.S. 50
BOND $H
FMAP 2
PLAN 20
SHEL 9999 0.82
ISOR 0.02 Zn1
TEMP -100.380
ACTA
SIMU C1 > C6A
DELU C1 > C6A
ABIN
WGHT    0.144200   10.886497
EXTI    0.000757
FVAR       0.28892   0.42102
ZN1   4    0.741454    0.192083    0.493089    10.50000    0.05330    0.04563 =
         0.02682    0.00225    0.01045    0.00903
N1    3    0.784574    0.178515    0.616828    11.00000    0.07973    0.09105 =
         0.02880    0.00982    0.01647    0.04293
N2    3    0.699637    0.281610    0.573023    11.00000    0.07039    0.08162 =
         0.02956    0.00794    0.01392    0.03744
N4    3    0.713225    0.013236    0.944021    11.00000    0.20142    0.05457 =
         0.05520    0.01273    0.05660    0.03257
PART   1
C1    1    0.482437    0.613883    0.366253    21.00000    0.11551    0.28254 =
         0.11028    0.02844    0.00055    0.11808
AFIX 137
H1A   2    0.468772    0.629244    0.422375    21.00000   -1.50000
H1B   2    0.462493    0.566776    0.320654    21.00000   -1.50000
H1C   2    0.490729    0.703945    0.341830    21.00000   -1.50000
AFIX  66
N3    3    0.525429    0.381711    0.383688    21.00000    0.06746    0.21581 =
         0.09561   -0.00040   -0.01711    0.05770
C2    1    0.520653    0.525854    0.387234    21.00000    0.09191    0.21430 =
         0.05681    0.00668    0.01649    0.07593
C3    1    0.555891    0.610434    0.410064    21.00000    0.10972    0.16664 =
         0.10594    0.00502    0.01011    0.08254
AFIX  43
H3    2    0.552627    0.708949    0.412488    21.00000   -1.20000
AFIX  65
C4    1    0.595904    0.550869    0.429348    21.00000    0.10179    0.15561 =
         0.08745    0.03538    0.01698    0.06666
AFIX  43
H4    2    0.619988    0.608676    0.444951    21.00000   -1.20000
AFIX  65
C5    1    0.600680    0.406726    0.425802    21.00000    0.07090    0.14955 =
         0.05409    0.02363    0.00855    0.05366
C6    1    0.565443    0.322146    0.402972    21.00000    0.07303    0.18440 =
         0.10060    0.00407   -0.03164    0.05940
AFIX  43
H6    2    0.568707    0.223630    0.400549    21.00000   -1.20000
AFIX   0
PART   2
C1A   1    0.470620    0.493875    0.361628   -21.00000    0.07366    0.36830 =
         0.05653    0.02200    0.01326    0.10907
AFIX 137
H1A1  2    0.452647    0.410384    0.360388   -21.00000   -1.50000
H1A2  2    0.466471    0.540689    0.301943   -21.00000   -1.50000
H1A3  2    0.462849    0.557667    0.409397   -21.00000   -1.50000
AFIX  66
N3A   3    0.544977    0.562279    0.385334   -21.00000    0.09639    0.20543 =
         0.06381   -0.00006    0.00192    0.09834
C2A   1    0.516028    0.452684    0.381611   -21.00000    0.07547    0.24751 =
         0.05016   -0.00548    0.00869    0.08641
C3A   1    0.530266    0.316745    0.397987   -21.00000    0.06250    0.23000 =
         0.10426    0.03217   -0.02313    0.03764
AFIX  43
H3A   2    0.510481    0.241842    0.395443   -21.00000   -1.20000
AFIX  65
C4A   1    0.573453    0.290401    0.418086   -21.00000    0.06526    0.17322 =
         0.09615    0.00071   -0.02714    0.03660
AFIX  43
H4A   2    0.583183    0.197493    0.429279   -21.00000   -1.20000
AFIX  65
C5A   1    0.602402    0.399996    0.421810   -21.00000    0.07541    0.13115 =
         0.02912    0.00048    0.01141    0.04927
C6A   1    0.588164    0.535935    0.405434   -21.00000    0.08423    0.15347 =
         0.05760    0.00905    0.00454    0.07568
AFIX  43
H6A   2    0.607950    0.610838    0.407979   -21.00000   -1.20000
AFIX   0
PART   0
C7    1    0.647192    0.359730    0.446607    11.00000    0.07013    0.08811 =
         0.03758    0.00528    0.01263    0.03638
C8    1    0.659651    0.322177    0.537171    11.00000    0.06891    0.07749 =
         0.03612    0.00122    0.01386    0.03042
C9    1    0.631346    0.317768    0.607873    11.00000    0.06436    0.07168 =
         0.03886   -0.00400    0.01286    0.01719
AFIX  43
H9    2    0.602113    0.342692    0.601518    11.00000   -1.20000
AFIX   0
C10   1    0.654199    0.271481    0.685013    11.00000    0.06890    0.05851 =
         0.03460   -0.00292    0.01546    0.01441
AFIX  43
H10   2    0.643854    0.255578    0.742641    11.00000   -1.20000
AFIX   0
C11   1    0.697074    0.250822    0.663550    11.00000    0.07063    0.05702 =
         0.02870   -0.00068    0.01148    0.01775
C12   1    0.730483    0.199042    0.724660    11.00000    0.07697    0.04923 =
         0.02766    0.00365    0.01135    0.02156
C13   1    0.720561    0.171531    0.820404    11.00000    0.07541    0.05815 =
         0.03136    0.00551    0.01471    0.02125
C14   1    0.708046    0.276864    0.876353    11.00000    0.07473    0.05697 =
         0.03709   -0.00002    0.01610    0.01589
AFIX  43
H14   2    0.708113    0.370693    0.855316    11.00000   -1.20000
AFIX   0
C15   1    0.695663    0.249787    0.960567    11.00000    0.08676    0.04725 =
         0.03128   -0.00126    0.02225    0.01502
AFIX  43
H15   2    0.686293    0.323431    0.996926    11.00000   -1.20000
AFIX   0
C16   1    0.696813    0.117109    0.992049    11.00000    0.13446    0.05638 =
         0.03755    0.00504    0.03661    0.01717
C17   1    0.723517    0.041416    0.858271    11.00000    0.14616    0.06374 =
         0.04281    0.01198    0.03977    0.04294
AFIX  43
H17   2    0.733227   -0.033037    0.823055    11.00000   -1.20000
AFIX   0
C18   1    0.681814    0.085238    1.083537    11.00000    0.20265    0.05809 =
         0.05595    0.00442    0.06836    0.00444
AFIX 137
H18A  2    0.676222   -0.015083    1.087865    11.00000   -1.50000
H18B  2    0.655648    0.137414    1.090097    11.00000   -1.50000
H18C  2    0.703776    0.112571    1.132396    11.00000   -1.50000
AFIX   0
C19   1    0.771065    0.166171    0.702196    11.00000    0.08091    0.05465 =
         0.02628    0.00427    0.01211    0.02490
C20   1    0.806670    0.119742    0.766002    11.00000    0.07699    0.05449 =
         0.03203    0.00461    0.00595    0.02197
AFIX  43
H20   2    0.806025    0.102798    0.829662    11.00000   -1.20000
AFIX   0
C21   1    0.840617    0.105127    0.718772    11.00000    0.06948    0.06327 =
         0.03497    0.00446    0.00595    0.01820
AFIX  43
H21   2    0.868441    0.077134    0.742386    11.00000   -1.20000
AFIX   0
C22   1    0.826312    0.140428    0.625252    11.00000    0.07335    0.07158 =
         0.03047    0.00282    0.00889    0.02618

HKLF 4

REM  ga_90617a_a.res in C2/c
REM R1 =  0.0834 for    3480 Fo > 4sig(Fo)  and  0.0933 for all    4193 data
REM    288 parameters refined using    240 restraints

END

WGHT      0.1175     12.2881

REM Highest difference peak  0.407,  deepest hole -0.516,  1-sigma level  0.073
Q1    1   0.6778  0.0111  0.9250  11.00000  0.05    0.41
Q2    1   0.6898  0.0314  0.8414  11.00000  0.05    0.36
Q3    1   0.6989  0.2004  0.9701  11.00000  0.05    0.35
Q4    1   0.6776  0.1747  1.1200  11.00000  0.05    0.31
Q5    1   0.7761  0.1966  0.5592  11.00000  0.05    0.29
Q6    1   0.7424  0.2301  0.5667  11.00000  0.05    0.27
Q7    1   0.5419  0.8012  0.3804  11.00000  0.05    0.26
Q8    1   0.7192  0.1599  0.7627  11.00000  0.05    0.26
Q9    1   0.8367  0.1457  0.5846  11.00000  0.05    0.25
Q10   1   0.6333  0.0492  1.0805  11.00000  0.05    0.25
Q11   1   0.7832  0.1313  0.7417  11.00000  0.05    0.24
Q12   1   0.6106  0.0219  0.3184  11.00000  0.05    0.24
Q13   1   0.8197  0.0925  0.7347  11.00000  0.05    0.24
Q14   1   0.7706  0.1557  0.6393  11.00000  0.05    0.23
Q15   1   0.7083  0.2341  0.5207  11.00000  0.05    0.22
Q16   1   0.7213  0.0349  0.9447  11.00000  0.05    0.22
Q17   1   0.5402  0.4809  0.3632  11.00000  0.05    0.22
Q18   1   0.6701  0.1243  0.9864  11.00000  0.05    0.21
Q19   1   0.8317  0.0940  0.6667  11.00000  0.05    0.19
Q20   1   0.6492  0.3329  0.5717  11.00000  0.05    0.19
;
_shelx_res_checksum              87472
_shelx_fab_file
;
    4    0    0     24.74      0.00
    6    0    0    -64.17      0.00
    8    0    0    -54.17      0.00
   10    0    0    -15.99      0.00
   12    0    0     -2.39      0.00
   14    0    0     -5.05      0.00
   16    0    0     -3.61      0.00
   18    0    0      0.65      0.00
   20    0    0      0.69      0.00
   22    0    0     -0.33      0.00
   24    0    0      1.54      0.00
   26    0    0      2.63      0.00
   28    0    0      0.60      0.00
   30    0    0     -0.62      0.00
   32    0    0      0.59      0.00
   34    0    0      0.99      0.00
   36    0    0     -0.19      0.00
   38    0    0     -0.57      0.00
    1    1    0   -198.99      0.00
    3    1    0    -83.80      0.00
    5    1    0     28.50      0.00
    7    1    0     55.22      0.00
    9    1    0     26.28      0.00
   11    1    0      4.63      0.00
   13    1    0      3.83      0.00
   15    1    0      4.40      0.00
   17    1    0     -0.09      0.00
   19    1    0     -1.75      0.00
   21    1    0      0.36      0.00
   23    1    0      0.25      0.00
   25    1    0     -1.85      0.00
   27    1    0     -1.37      0.00
   29    1    0      0.62      0.00
   31    1    0      0.40      0.00
   33    1    0     -0.84      0.00
   35    1    0     -0.50      0.00
   37    1    0      0.36      0.00
    0    2    0    119.86      0.00
    2    2    0     80.68      0.00
    4    2    0      7.49      0.00
    6    2    0    -29.05      0.00
    8    2    0    -19.78      0.00
   10    2    0     -4.04      0.00
   12    2    0     -2.50      0.00
   14    2    0     -3.87      0.00
   16    2    0      0.31      0.00
   18    2    0      3.31      0.00
   20    2    0      0.84      0.00
   22    2    0     -1.57      0.00
   24    2    0     -0.36      0.00
   26    2    0      0.87      0.00
   28    2    0     -0.25      0.00
   30    2    0     -1.08      0.00
   32    2    0     -0.18      0.00
   34    2    0      0.56      0.00
   36    2    0      0.24      0.00
    1    3    0    -31.80      0.00
    3    3    0     -8.51      0.00
    5    3    0      9.20      0.00
    7    3    0      6.45      0.00
    9    3    0     -2.02      0.00
   11    3    0     -1.75      0.00
   13    3    0      1.84      0.00
   15    3    0      0.06      0.00
   17    3    0     -3.45      0.00
   19    3    0     -2.37      0.00
   21    3    0      1.01      0.00
   23    3    0      1.68      0.00
   25    3    0      0.25      0.00
   27    3    0     -0.12      0.00
   29    3    0      0.56      0.00
   31    3    0      0.60      0.00
   33    3    0     -0.01      0.00
   35    3    0     -0.29      0.00
   37    3    0     -0.11      0.00
    0    4    0     -0.86      0.00
    2    4    0     -3.22      0.00
    4    4    0     -5.54      0.00
    6    4    0     -1.81      0.00
    8    4    0      4.39      0.00
   10    4    0      5.38      0.00
   12    4    0      1.67      0.00
   14    4    0     -0.07      0.00
   16    4    0      1.50      0.00
   18    4    0      1.94      0.00
   20    4    0     -0.11      0.00
   22    4    0     -1.54      0.00
   24    4    0     -0.87      0.00
   26    4    0      0.18      0.00
   28    4    0      0.28      0.00
   30    4    0     -0.05      0.00
   32    4    0     -0.05      0.00
   34    4    0      0.17      0.00
   36    4    0      0.18      0.00
    1    5    0      3.20      0.00
    3    5    0      2.92      0.00
    5    5    0      1.42      0.00
    7    5    0     -1.57      0.00
    9    5    0     -3.75      0.00
   11    5    0     -2.77      0.00
   13    5    0     -0.27      0.00
   15    5    0      0.56      0.00
   17    5    0      0.06      0.00
   19    5    0      0.41      0.00
   21    5    0      1.30      0.00
   23    5    0      1.08      0.00
   25    5    0      0.00      0.00
   27    5    0     -0.52      0.00
   29    5    0     -0.19      0.00
   31    5    0      0.03      0.00
   33    5    0     -0.27      0.00
    0    6    0      1.67      0.00
    2    6    0      1.54      0.00
    4    6    0      0.81      0.00
    6    6    0      0.05      0.00
    8    6    0      0.42      0.00
   10    6    0      0.86      0.00
   12    6    0     -0.25      0.00
   14    6    0     -1.63      0.00
   16    6    0     -1.55      0.00
   18    6    0     -1.02      0.00
   20    6    0     -1.27      0.00
   22    6    0     -1.32      0.00
   24    6    0     -0.36      0.00
   26    6    0      0.33      0.00
   28    6    0     -0.19      0.00
   30    6    0     -0.77      0.00
   32    6    0     -0.24      0.00
    1    7    0     -1.88      0.00
    3    7    0     -1.63      0.00
    5    7    0     -0.33      0.00
    7    7    0      0.86      0.00
    9    7    0      0.80      0.00
   11    7    0      0.85      0.00
   13    7    0      1.74      0.00
   15    7    0      1.87      0.00
   17    7    0      0.94      0.00
   19    7    0      0.64      0.00
   21    7    0      1.01      0.00
   23    7    0      0.62      0.00
   25    7    0     -0.14      0.00
   27    7    0      0.29      0.00
   29    7    0      1.37      0.00
    0    8    0     -0.49      0.00
    2    8    0      0.01      0.00
    4    8    0      0.23      0.00
    6    8    0     -0.56      0.00
    8    8    0     -0.88      0.00
   10    8    0     -0.55      0.00
   12    8    0     -0.94      0.00
   14    8    0     -1.49      0.00
   16    8    0     -0.80      0.00
   18    8    0      0.10      0.00
   20    8    0     -0.08      0.00
   22    8    0     -0.41      0.00
   24    8    0     -0.03      0.00
   26    8    0     -0.01      0.00
    1    9    0      1.25      0.00
    3    9    0     -0.01      0.00
    5    9    0     -0.38      0.00
    7    9    0      0.04      0.00
    9    9    0     -0.16      0.00
   11    9    0     -0.25      0.00
   13    9    0      0.55      0.00
   15    9    0      0.89      0.00
   17    9    0      0.15      0.00
   19    9    0     -0.24      0.00
   21    9    0      0.14      0.00
   23    9    0      0.25      0.00
    0   10    0     -0.86      0.00
    2   10    0      0.02      0.00
    4   10    0      1.05      0.00
    6   10    0      0.75      0.00
    8   10    0      0.41      0.00
   10   10    0      0.74      0.00
   12   10    0      0.48      0.00
   14   10    0     -0.46      0.00
   16   10    0     -0.74      0.00
   18   10    0     -0.40      0.00
    1   11    0     -0.19      0.00
    3   11    0     -0.88      0.00
    5   11    0     -0.78      0.00
    7   11    0     -0.08      0.00
    9   11    0     -0.12      0.00
   11   11    0     -0.52      0.00
  -37    1    1     -0.03      0.00
  -35    1    1     -0.07      0.00
  -33    1    1      0.48      0.00
  -31    1    1      0.40      0.00
  -29    1    1     -0.30      0.00
  -27    1    1     -0.08      0.00
  -25    1    1      0.88      0.00
  -23    1    1      0.62      0.00
  -21    1    1     -0.99      0.00
  -19    1    1     -2.08      0.00
  -17    1    1     -1.77      0.00
  -15    1    1      0.09      0.00
  -13    1    1      4.62      0.00
  -11    1    1      9.73      0.00
   -9    1    1      5.35      0.00
   -7    1    1    -15.95      0.00
   -5    1    1    -40.03      0.00
   -3    1    1    -38.80      0.00
   -1    1    1     -6.78      0.00
    1    1    1     26.24      0.00
    3    1    1     31.33      0.00
    5    1    1     13.46      0.00
    7    1    1     -2.85      0.00
    9    1    1     -5.29      0.00
   11    1    1      0.14      0.00
   13    1    1      3.67      0.00
   15    1    1      2.32      0.00
   17    1    1     -0.86      0.00
   19    1    1     -2.42      0.00
   21    1    1     -1.89      0.00
   23    1    1     -0.58      0.00
   25    1    1      0.32      0.00
   27    1    1      0.25      0.00
   29    1    1     -0.31      0.00
   31    1    1     -0.34      0.00
   33    1    1      0.13      0.00
   35    1    1      0.23      0.00
   37    1    1      0.01      0.00
  -36    2    1      0.19      0.00
  -34    2    1     -0.32      0.00
  -32    2    1     -0.87      0.00
  -30    2    1     -0.08      0.00
  -28    2    1      0.60      0.00
  -26    2    1     -0.40      0.00
  -24    2    1     -1.04      0.00
  -22    2    1      0.68      0.00
  -20    2    1      2.68      0.00
  -18    2    1      2.63      0.00
  -16    2    1      1.16      0.00
  -14    2    1     -2.34      0.00
  -12    2    1    -10.14      0.00
  -10    2    1    -15.14      0.00
   -8    2    1     -0.23      0.00
   -6    2    1     34.91      0.00
   -4    2    1     56.83      0.00
   -2    2    1     34.51      0.00
    0    2    1    -14.08      0.00
    2    2    1    -41.46      0.00
    4    2    1    -30.98      0.00
    6    2    1     -8.00      0.00
    8    2    1      2.43      0.00
   10    2    1      0.32      0.00
   12    2    1     -3.37      0.00
   14    2    1     -3.23      0.00
   16    2    1     -0.43      0.00
   18    2    1      2.02      0.00
   20    2    1      2.61      0.00
   22    2    1      1.66      0.00
   24    2    1      0.18      0.00
   26    2    1     -0.62      0.00
   28    2    1     -0.13      0.00
   30    2    1      0.56      0.00
   32    2    1      0.31      0.00
   34    2    1     -0.19      0.00
   36    2    1     -0.10      0.00
  -37    3    1     -0.12      0.00
  -35    3    1     -0.17      0.00
  -33    3    1      0.44      0.00
  -31    3    1      0.50      0.00
  -29    3    1     -0.37      0.00
  -27    3    1     -0.41      0.00
  -25    3    1      0.46      0.00
  -23    3    1     -0.18      0.00
  -21    3    1     -2.15      0.00
  -19    3    1     -2.45      0.00
  -17    3    1     -1.15      0.00
  -15    3    1     -0.12      0.00
  -13    3    1      3.70      0.00
  -11    3    1     12.52      0.00
   -9    3    1     14.88      0.00
   -7    3    1     -3.78      0.00
   -5    3    1    -32.06      0.00
   -3    3    1    -36.86      0.00
   -1    3    1     -8.74      0.00
    1    3    1     21.65      0.00
    3    3    1     26.70      0.00
    5    3    1     14.82      0.00
    7    3    1      6.61      0.00
    9    3    1      5.10      0.00
   11    3    1      3.48      0.00
   13    3    1      0.98      0.00
   15    3    1     -0.03      0.00
   17    3    1     -0.22      0.00
   19    3    1     -0.80      0.00
   21    3    1     -1.24      0.00
   23    3    1     -0.74      0.00
   25    3    1      0.29      0.00
   27    3    1      0.63      0.00
   29    3    1      0.03      0.00
   31    3    1     -0.41      0.00
   33    3    1     -0.21      0.00
   35    3    1     -0.07      0.00
  -36    4    1      0.38      0.00
  -34    4    1      0.46      0.00
  -32    4    1      0.02      0.00
  -30    4    1     -0.11      0.00
  -28    4    1      0.23      0.00
  -26    4    1      0.05      0.00
  -24    4    1     -0.09      0.00
  -22    4    1      0.95      0.00
  -20    4    1      1.67      0.00
  -18    4    1      0.85      0.00
  -16    4    1      0.58      0.00
  -14    4    1      0.74      0.00
  -12    4    1     -3.76      0.00
  -10    4    1    -12.17      0.00
   -8    4    1    -12.36      0.00
   -6    4    1      1.53      0.00
   -4    4    1     14.62      0.00
   -2    4    1     10.34      0.00
    0    4    1     -4.13      0.00
    2    4    1    -10.42      0.00
    4    4    1     -7.39      0.00
    6    4    1     -6.36      0.00
    8    4    1     -8.04      0.00
   10    4    1     -5.34      0.00
   12    4    1      0.16      0.00
   14    4    1      1.75      0.00
   16    4    1     -0.17      0.00
   18    4    1     -1.06      0.00
   20    4    1     -0.26      0.00
   22    4    1      0.29      0.00
   24    4    1      0.01      0.00
   26    4    1     -0.43      0.00
   28    4    1     -0.51      0.00
   30    4    1     -0.21      0.00
   32    4    1      0.06      0.00
   34    4    1      0.18      0.00
  -33    5    1     -0.76      0.00
  -31    5    1     -0.14      0.00
  -29    5    1      0.32      0.00
  -27    5    1      0.25      0.00
  -25    5    1      0.28      0.00
  -23    5    1      0.16      0.00
  -21    5    1     -0.29      0.00
  -19    5    1     -0.23      0.00
  -17    5    1     -0.34      0.00
  -15    5    1     -1.83      0.00
  -13    5    1     -1.84      0.00
  -11    5    1      3.14      0.00
   -9    5    1      8.84      0.00
   -7    5    1      7.44      0.00
   -5    5    1      0.63      0.00
   -3    5    1     -1.98      0.00
   -1    5    1      1.42      0.00
    1    5    1      2.85      0.00
    3    5    1     -0.05      0.00
    5    5    1     -0.49      0.00
    7    5    1      3.03      0.00
    9    5    1      3.52      0.00
   11    5    1     -0.48      0.00
   13    5    1     -2.37      0.00
   15    5    1     -0.06      0.00
   17    5    1      1.72      0.00
   19    5    1      1.02      0.00
   21    5    1      0.15      0.00
   23    5    1      0.07      0.00
   25    5    1      0.13      0.00
   27    5    1      0.28      0.00
   29    5    1      0.50      0.00
   31    5    1      0.43      0.00
   33    5    1      0.19      0.00
  -32    6    1      0.48      0.00
  -30    6    1     -0.24      0.00
  -28    6    1     -0.61      0.00
  -26    6    1     -0.50      0.00
  -24    6    1     -0.58      0.00
  -22    6    1     -0.70      0.00
  -20    6    1     -0.70      0.00
  -18    6    1     -0.37      0.00
  -16    6    1      1.13      0.00
  -14    6    1      2.99      0.00
  -12    6    1      2.14      0.00
  -10    6    1     -1.54      0.00
   -8    6    1     -3.55      0.00
   -6    6    1     -1.76      0.00
   -4    6    1     -0.02      0.00
   -2    6    1     -1.11      0.00
    0    6    1     -1.80      0.00
    2    6    1      0.72      0.00
    4    6    1      2.98      0.00
    6    6    1      1.63      0.00
    8    6    1     -0.03      0.00
   10    6    1      1.33      0.00
   12    6    1      2.47      0.00
   14    6    1      0.38      0.00
   16    6    1     -1.85      0.00
   18    6    1     -1.35      0.00
   20    6    1     -0.02      0.00
   22    6    1      0.23      0.00
   24    6    1      0.05      0.00
   26    6    1     -0.09      0.00
   28    6    1     -0.33      0.00
   30    6    1     -0.38      0.00
   32    6    1     -0.30      0.00
  -29    7    1      0.31      0.00
  -27    7    1      0.28      0.00
  -25    7    1      0.35      0.00
  -23    7    1      0.78      0.00
  -21    7    1      1.09      0.00
  -19    7    1      0.96      0.00
  -17    7    1      0.07      0.00
  -15    7    1     -1.58      0.00
  -13    7    1     -2.46      0.00
  -11    7    1     -1.26      0.00
   -9    7    1      0.34      0.00
   -7    7    1     -0.05      0.00
   -5    7    1     -1.38      0.00
   -3    7    1     -1.09      0.00
   -1    7    1      0.22      0.00
    1    7    1     -0.11      0.00
    3    7    1     -1.76      0.00
    5    7    1     -1.88      0.00
    7    7    1     -0.54      0.00
    9    7    1     -0.55      0.00
   11    7    1     -1.63      0.00
   13    7    1     -0.90      0.00
   15    7    1      1.12      0.00
   17    7    1      1.50      0.00
   19    7    1      0.26      0.00
   21    7    1     -0.53      0.00
   23    7    1     -0.37      0.00
   25    7    1      0.14      0.00
   27    7    1      0.49      0.00
   29    7    1      0.23      0.00
  -28    8    1      0.27      0.00
  -26    8    1      0.36      0.00
  -24    8    1     -0.14      0.00
  -22    8    1     -0.75      0.00
  -20    8    1     -0.90      0.00
  -18    8    1     -0.63      0.00
  -16    8    1      0.03      0.00
  -14    8    1      0.78      0.00
  -12    8    1      0.70      0.00
  -10    8    1     -0.17      0.00
   -8    8    1     -0.28      0.00
   -6    8    1      0.87      0.00
   -4    8    1      1.61      0.00
   -2    8    1      0.88      0.00
    0    8    1      0.04      0.00
    2    8    1      0.38      0.00
    4    8    1      0.76      0.00
    6    8    1     -0.13      0.00
    8    8    1     -0.98      0.00
   10    8    1     -0.32      0.00
   12    8    1      0.57      0.00
   14    8    1      0.11      0.00
   16    8    1     -0.65      0.00
   18    8    1     -0.43      0.00
   20    8    1      0.26      0.00
   22    8    1      0.43      0.00
   24    8    1     -0.15      0.00
   26    8    1     -0.85      0.00
  -23    9    1      0.01      0.00
  -21    9    1      0.35      0.00
  -19    9    1      0.41      0.00
  -17    9    1      0.44      0.00
  -15    9    1      0.22      0.00
  -13    9    1     -0.13      0.00
  -11    9    1      0.10      0.00
   -9    9    1      0.66      0.00
   -7    9    1      0.54      0.00
   -5    9    1     -0.17      0.00
   -3    9    1     -0.38      0.00
   -1    9    1      0.12      0.00
    1    9    1      0.42      0.00
    3    9    1      0.23      0.00
    5    9    1      0.36      0.00
    7    9    1      1.02      0.00
    9    9    1      1.11      0.00
   11    9    1      0.24      0.00
   13    9    1     -0.49      0.00
   15    9    1     -0.44      0.00
   17    9    1     -0.18      0.00
   19    9    1     -0.20      0.00
   21    9    1     -0.26      0.00
   23    9    1      0.10      0.00
  -18   10    1     -0.07      0.00
  -16   10    1     -0.13      0.00
  -14   10    1      0.34      0.00
  -12   10    1      0.78      0.00
  -10   10    1      0.38      0.00
   -8   10    1     -0.47      0.00
   -6   10    1     -0.85      0.00
   -4   10    1     -0.66      0.00
   -2   10    1     -0.35      0.00
    0   10    1     -0.24      0.00
    2   10    1     -0.30      0.00
    4   10    1     -0.38      0.00
    6   10    1     -0.41      0.00
    8   10    1     -0.38      0.00
   10   10    1     -0.16      0.00
   12   10    1      0.19      0.00
   14   10    1      0.41      0.00
   16   10    1      0.44      0.00
   18   10    1      0.42      0.00
  -11   11    1     -1.15      0.00
   -9   11    1     -0.47      0.00
   -7   11    1      0.38      0.00
   -5   11    1      0.83      0.00
   -3   11    1      0.61      0.00
   -1   11    1      0.01      0.00
    1   11    1     -0.30      0.00
    3   11    1     -0.08      0.00
    5   11    1      0.05      0.00
    7   11    1     -0.23      0.00
    9   11    1     -0.41      0.00
   11   11    1     -0.13      0.00
  -38    0    2     -0.28      0.00
  -36    0    2      0.21      0.00
  -34    0    2      0.49      0.00
  -32    0    2      0.28      0.00
  -30    0    2      0.12      0.00
  -28    0    2      0.04      0.00
  -26    0    2     -0.69      0.00
  -24    0    2     -2.20      0.00
  -22    0    2     -2.69      0.00
  -20    0    2      0.51      0.00
  -18    0    2      6.80      0.00
  -16    0    2      9.97      0.00
  -14    0    2      3.05      0.00
  -12    0    2    -10.21      0.00
  -10    0    2    -10.64      0.00
   -8    0    2     15.91      0.00
   -6    0    2     48.26      0.00
   -4    0    2     43.49      0.00
   -2    0    2     -3.94      0.00
    0    0    2    -45.03      0.00
    2    0    2    -40.24      0.00
    4    0    2     -9.12      0.00
    6    0    2      8.25      0.00
    8    0    2      5.97      0.00
   10    0    2      1.90      0.00
   12    0    2      1.52      0.00
   14    0    2     -1.08      0.00
   16    0    2     -4.44      0.00
   18    0    2     -2.56      0.00
   20    0    2      2.57      0.00
   22    0    2      4.10      0.00
   24    0    2      1.10      0.00
   26    0    2     -1.57      0.00
   28    0    2     -1.32      0.00
   30    0    2     -0.09      0.00
   32    0    2      0.08      0.00
   34    0    2     -0.45      0.00
   36    0    2     -0.34      0.00
  -37    1    2      0.08      0.00
  -35    1    2     -0.13      0.00
  -33    1    2     -0.24      0.00
  -31    1    2     -0.20      0.00
  -29    1    2      0.07      0.00
  -27    1    2      0.66      0.00
  -25    1    2      1.45      0.00
  -23    1    2      1.87      0.00
  -21    1    2      0.51      0.00
  -19    1    2     -3.52      0.00
  -17    1    2     -7.97      0.00
  -15    1    2     -6.99      0.00
  -13    1    2      2.40      0.00
  -11    1    2     10.26      0.00
   -9    1    2     -1.54      0.00
   -7    1    2    -31.35      0.00
   -5    1    2    -45.11      0.00
   -3    1    2    -16.82      0.00
   -1    1    2     27.60      0.00
    1    1    2     40.05      0.00
    3    1    2     15.96      0.00
    5    1    2     -6.71      0.00
    7    1    2     -6.79      0.00
    9    1    2      0.89      0.00
   11    1    2      1.55      0.00
   13    1    2      0.10      0.00
   15    1    2      2.45      0.00
   17    1    2      3.74      0.00
   19    1    2      0.28      0.00
   21    1    2     -3.09      0.00
   23    1    2     -2.01      0.00
   25    1    2      0.91      0.00
   27    1    2      1.69      0.00
   29    1    2      0.57      0.00
   31    1    2     -0.15      0.00
   33    1    2      0.20      0.00
   35    1    2      0.58      0.00
   37    1    2      0.16      0.00
  -38    2    2      0.12      0.00
  -36    2    2     -0.22      0.00
  -34    2    2     -0.17      0.00
  -32    2    2      0.37      0.00
  -30    2    2      0.21      0.00
  -28    2    2     -0.98      0.00
  -26    2    2     -1.69      0.00
  -24    2    2     -0.94      0.00
  -22    2    2      0.55      0.00
  -20    2    2      2.02      0.00
  -18    2    2      3.84      0.00
  -16    2    2      5.30      0.00
  -14    2    2      2.85      0.00
  -12    2    2     -3.29      0.00
  -10    2    2     -2.09      0.00
   -8    2    2     14.86      0.00
   -6    2    2     31.52      0.00
   -4    2    2     21.34      0.00
   -2    2    2    -10.67      0.00
    0    2    2    -27.40      0.00
    2    2    2    -11.82      0.00
    4    2    2      9.65      0.00
    6    2    2      9.60      0.00
    8    2    2     -3.71      0.00
   10    2    2     -8.43      0.00
   12    2    2     -3.22      0.00
   14    2    2     -0.37      0.00
   16    2    2     -2.14      0.00
   18    2    2     -1.97      0.00
   20    2    2      0.72      0.00
   22    2    2      1.20      0.00
   24    2    2     -0.80      0.00
   26    2    2     -1.75      0.00
   28    2    2     -0.84      0.00
   30    2    2      0.09      0.00
   32    2    2      0.05      0.00
   34    2    2     -0.48      0.00
   36    2    2     -0.66      0.00
  -37    3    2     -0.15      0.00
  -35    3    2      0.22      0.00
  -33    3    2     -0.41      0.00
  -31    3    2     -0.93      0.00
  -29    3    2      0.29      0.00
  -27    3    2      1.86      0.00
  -25    3    2      1.37      0.00
  -23    3    2     -0.55      0.00
  -21    3    2     -1.33      0.00
  -19    3    2     -0.84      0.00
  -17    3    2     -1.37      0.00
  -15    3    2     -2.33      0.00
  -13    3    2     -0.20      0.00
  -11    3    2      1.94      0.00
   -9    3    2     -5.36      0.00
   -7    3    2    -19.25      0.00
   -5    3    2    -20.24      0.00
   -3    3    2     -1.14      0.00
   -1    3    2     16.03      0.00
    1    3    2     10.19      0.00
    3    3    2     -7.31      0.00
    5    3    2    -11.24      0.00
    7    3    2      0.49      0.00
    9    3    2      9.01      0.00
   11    3    2      5.56      0.00
   13    3    2     -0.10      0.00
   15    3    2     -0.08      0.00
   17    3    2      1.36      0.00
   19    3    2      0.00      0.00
   21    3    2     -1.01      0.00
   23    3    2      0.54      0.00
   25    3    2      1.77      0.00
   27    3    2      0.97      0.00
   29    3    2     -0.15      0.00
   31    3    2     -0.28      0.00
   33    3    2      0.19      0.00
   35    3    2      0.58      0.00
  -36    4    2      0.22      0.00
  -34    4    2      0.38      0.00
  -32    4    2      1.22      0.00
  -30    4    2      0.83      0.00
  -28    4    2     -0.94      0.00
  -26    4    2     -1.53      0.00
  -24    4    2     -0.25      0.00
  -22    4    2      0.33      0.00
  -20    4    2     -1.02      0.00
  -18    4    2     -1.74      0.00
  -16    4    2     -0.26      0.00
  -14    4    2      0.07      0.00
  -12    4    2     -2.37      0.00
  -10    4    2     -0.82      0.00
   -8    4    2      9.16      0.00
   -6    4    2     16.90      0.00
   -4    4    2      9.88      0.00
   -2    4    2     -4.81      0.00
    0    4    2     -9.33      0.00
    2    4    2     -1.52      0.00
    4    4    2      4.39      0.00
    6    4    2      0.90      0.00
    8    4    2     -4.10      0.00
   10    4    2     -2.59      0.00
   12    4    2      1.68      0.00
   14    4    2      1.99      0.00
   16    4    2     -0.05      0.00
   18    4    2      0.40      0.00
   20    4    2      2.03      0.00
   22    4    2      1.23      0.00
   24    4    2     -0.72      0.00
   26    4    2     -0.92      0.00
   28    4    2      0.10      0.00
   30    4    2      0.55      0.00
   32    4    2      0.23      0.00
   34    4    2     -0.22      0.00
  -33    5    2     -0.75      0.00
  -31    5    2     -1.13      0.00
  -29    5    2     -0.17      0.00
  -27    5    2      0.87      0.00
  -25    5    2      0.41      0.00
  -23    5    2     -0.10      0.00
  -21    5    2      1.24      0.00
  -19    5    2      2.81      0.00
  -17    5    2      2.02      0.00
  -15    5    2      0.60      0.00
  -13    5    2      1.91      0.00
  -11    5    2      3.23      0.00
   -9    5    2     -1.36      0.00
   -7    5    2     -9.21      0.00
   -5    5    2    -10.36      0.00
   -3    5    2     -2.74      0.00
   -1    5    2      4.65      0.00
    1    5    2      5.47      0.00
    3    5    2      3.02      0.00
    5    5    2      1.94      0.00
    7    5    2      1.55      0.00
    9    5    2     -0.58      0.00
   11    5    2     -3.24      0.00
   13    5    2     -3.30      0.00
   15    5    2     -1.25      0.00
   17    5    2     -0.68      0.00
   19    5    2     -2.18      0.00
   21    5    2     -2.77      0.00
   23    5    2     -1.40      0.00
   25    5    2     -0.06      0.00
   27    5    2      0.02      0.00
   29    5    2     -0.46      0.00
   31    5    2     -0.60      0.00
   33    5    2     -0.26      0.00
  -32    6    2      0.54      0.00
  -30    6    2      0.47      0.00
  -28    6    2     -0.17      0.00
  -26    6    2     -0.10      0.00
  -24    6    2      0.55      0.00
  -22    6    2      0.00      0.00
  -20    6    2     -1.58      0.00
  -18    6    2     -1.72      0.00
  -16    6    2     -0.39      0.00
  -14    6    2     -0.53      0.00
  -12    6    2     -2.24      0.00
  -10    6    2     -1.65      0.00
   -8    6    2      2.19      0.00
   -6    6    2      4.66      0.00
   -4    6    2      2.69      0.00
   -2    6    2     -1.13      0.00
    0    6    2     -3.48      0.00
    2    6    2     -3.85      0.00
    4    6    2     -2.74      0.00
    6    6    2     -0.63      0.00
    8    6    2      1.35      0.00
   10    6    2      2.22      0.00
   12    6    2      1.95      0.00
   14    6    2      1.14      0.00
   16    6    2      0.73      0.00
   18    6    2      1.28      0.00
   20    6    2      2.16      0.00
   22    6    2      2.25      0.00
   24    6    2      1.32      0.00
   26    6    2      0.29      0.00
   28    6    2      0.10      0.00
   30    6    2      0.52      0.00
   32    6    2      0.57      0.00
  -29    7    2      0.01      0.00
  -27    7    2     -0.04      0.00
  -25    7    2     -0.73      0.00
  -23    7    2     -1.01      0.00
  -21    7    2     -0.17      0.00
  -19    7    2      0.34      0.00
  -17    7    2     -0.51      0.00
  -15    7    2     -0.90      0.00
  -13    7    2      0.42      0.00
  -11    7    2      1.40      0.00
   -9    7    2      0.48      0.00
   -7    7    2     -0.57      0.00
   -5    7    2     -0.24      0.00
   -3    7    2      0.52      0.00
   -1    7    2      1.12      0.00
    1    7    2      1.85      0.00
    3    7    2      1.66      0.00
    5    7    2     -0.26      0.00
    7    7    2     -1.84      0.00
    9    7    2     -1.13      0.00
   11    7    2      0.47      0.00
   13    7    2      0.76      0.00
   15    7    2      0.02      0.00
   17    7    2     -0.44      0.00
   19    7    2     -0.71      0.00
   21    7    2     -1.24      0.00
   23    7    2     -1.35      0.00
   25    7    2     -0.58      0.00
   27    7    2      0.06      0.00
   29    7    2     -0.19      0.00
  -28    8    2     -0.09      0.00
  -26    8    2      0.40      0.00
  -24    8    2      1.02      0.00
  -22    8    2      0.90      0.00
  -20    8    2      0.39      0.00
  -18    8    2      0.70      0.00
  -16    8    2      1.30      0.00
  -14    8    2      0.68      0.00
  -12    8    2     -0.45      0.00
  -10    8    2     -0.43      0.00
   -8    8    2      0.07      0.00
   -6    8    2     -0.16      0.00
   -4    8    2     -0.24      0.00
   -2    8    2      0.23      0.00
    0    8    2     -0.08      0.00
    2    8    2     -0.94      0.00
    4    8    2     -0.39      0.00
    6    8    2      1.06      0.00
    8    8    2      0.84      0.00
   10    8    2     -0.95      0.00
   12    8    2     -1.70      0.00
   14    8    2     -0.83      0.00
   16    8    2     -0.10      0.00
   18    8    2     -0.07      0.00
   20    8    2      0.23      0.00
   22    8    2      0.65      0.00
   24    8    2      0.35      0.00
   26    8    2     -0.15      0.00
  -23    9    2     -0.80      0.00
  -21    9    2     -0.46      0.00
  -19    9    2     -0.14      0.00
  -17    9    2     -0.43      0.00
  -15    9    2     -0.52      0.00
  -13    9    2      0.00      0.00
  -11    9    2     -0.01      0.00
   -9    9    2     -0.70      0.00
   -7    9    2     -0.75      0.00
   -5    9    2     -0.33      0.00
   -3    9    2     -0.61      0.00
   -1    9    2     -0.86      0.00
    1    9    2      0.05      0.00
    3    9    2      0.99      0.00
    5    9    2      0.70      0.00
    7    9    2      0.25      0.00
    9    9    2      0.68      0.00
   11    9    2      0.99      0.00
   13    9    2      0.41      0.00
   15    9    2     -0.04      0.00
   17    9    2      0.16      0.00
   19    9    2      0.10      0.00
   21    9    2     -0.32      0.00
   23    9    2     -0.16      0.00
  -18   10    2     -0.45      0.00
  -16   10    2     -0.17      0.00
  -14   10    2     -0.05      0.00
  -12   10    2     -0.03      0.00
  -10   10    2      0.51      0.00
   -8   10    2      0.94      0.00
   -6   10    2      0.63      0.00
   -4   10    2      0.40      0.00
   -2   10    2      0.65      0.00
    0   10    2      0.40      0.00
    2   10    2     -0.52      0.00
    4   10    2     -1.01      0.00
    6   10    2     -0.82      0.00
    8   10    2     -0.65      0.00
   10   10    2     -0.44      0.00
   12   10    2      0.20      0.00
   14   10    2      0.60      0.00
   16   10    2      0.22      0.00
   18   10    2     -0.12      0.00
  -11   11    2      0.13      0.00
   -9   11    2     -0.05      0.00
   -7   11    2     -0.12      0.00
   -5   11    2     -0.06      0.00
   -3   11    2     -0.22      0.00
   -1   11    2     -0.25      0.00
    1   11    2      0.16      0.00
    3   11    2      0.41      0.00
    5   11    2      0.17      0.00
    7   11    2      0.00      0.00
    9   11    2      0.11      0.00
   11   11    2     -0.05      0.00
  -37    1    3     -0.65      0.00
  -35    1    3     -0.26      0.00
  -33    1    3      0.15      0.00
  -31    1    3      0.01      0.00
  -29    1    3     -0.16      0.00
  -27    1    3      0.30      0.00
  -25    1    3      0.98      0.00
  -23    1    3      0.55      0.00
  -21    1    3     -1.07      0.00
  -19    1    3     -1.37      0.00
  -17    1    3      1.56      0.00
  -15    1    3      5.02      0.00
  -13    1    3      3.51      0.00
  -11    1    3     -4.37      0.00
   -9    1    3    -11.23      0.00
   -7    1    3     -7.13      0.00
   -5    1    3      5.69      0.00
   -3    1    3     11.38      0.00
   -1    1    3      1.17      0.00
    1    1    3    -13.70      0.00
    3    1    3    -18.02      0.00
    5    1    3    -11.28      0.00
    7    1    3     -2.92      0.00
    9    1    3      1.04      0.00
   11    1    3      0.93      0.00
   13    1    3     -0.18      0.00
   15    1    3     -0.23      0.00
   17    1    3     -0.09      0.00
   19    1    3     -0.91      0.00
   21    1    3     -1.62      0.00
   23    1    3     -1.19      0.00
   25    1    3     -0.55      0.00
   27    1    3     -0.52      0.00
   29    1    3     -0.62      0.00
   31    1    3     -0.38      0.00
   33    1    3      0.09      0.00
   35    1    3      0.40      0.00
  -36    2    3      0.56      0.00
  -34    2    3      0.07      0.00
  -32    2    3     -0.01      0.00
  -30    2    3      0.08      0.00
  -28    2    3     -0.31      0.00
  -26    2    3     -0.99      0.00
  -24    2    3     -0.94      0.00
  -22    2    3      0.57      0.00
  -20    2    3      1.98      0.00
  -18    2    3      0.26      0.00
  -16    2    3     -4.62      0.00
  -14    2    3     -7.40      0.00
  -12    2    3     -1.97      0.00
  -10    2    3      9.36      0.00
   -8    2    3     13.34      0.00
   -6    2    3      1.80      0.00
   -4    2    3    -11.60      0.00
   -2    2    3     -6.82      0.00
    0    2    3     11.98      0.00
    2    2    3     22.15      0.00
    4    2    3     15.35      0.00
    6    2    3      3.64      0.00
    8    2    3     -2.03      0.00
   10    2    3     -1.77      0.00
   12    2    3     -0.14      0.00
   14    2    3     -0.09      0.00
   16    2    3     -0.90      0.00
   18    2    3     -0.08      0.00
   20    2    3      1.84      0.00
   22    2    3      2.21      0.00
   24    2    3      1.17      0.00
   26    2    3      0.76      0.00
   28    2    3      1.14      0.00
   30    2    3      1.12      0.00
   32    2    3      0.29      0.00
   34    2    3     -0.64      0.00
   36    2    3     -0.77      0.00
  -37    3    3     -0.31      0.00
  -35    3    3     -0.10      0.00
  -33    3    3     -0.07      0.00
  -31    3    3     -0.01      0.00
  -29    3    3      0.61      0.00
  -27    3    3      1.10      0.00
  -25    3    3      0.65      0.00
  -23    3    3     -0.43      0.00
  -21    3    3     -1.36      0.00
  -19    3    3     -1.19      0.00
  -17    3    3      1.14      0.00
  -15    3    3      5.10      0.00
  -13    3    3      6.40      0.00
  -11    3    3      0.50      0.00
   -9    3    3     -7.90      0.00
   -7    3    3     -6.85      0.00
   -5    3    3      3.23      0.00
   -3    3    3      5.63      0.00
   -1    3    3     -5.94      0.00
    1    3    3    -14.99      0.00
    3    3    3     -9.00      0.00
    5    3    3      2.40      0.00
    7    3    3      6.28      0.00
    9    3    3      3.47      0.00
   11    3    3      0.73      0.00
   13    3    3      0.65      0.00
   15    3    3      1.81      0.00
   17    3    3      1.65      0.00
   19    3    3     -0.40      0.00
   21    3    3     -1.90      0.00
   23    3    3     -1.52      0.00
   25    3    3     -0.89      0.00
   27    3    3     -1.19      0.00
   29    3    3     -1.57      0.00
   31    3    3     -1.01      0.00
   33    3    3      0.26      0.00
   35    3    3      0.96      0.00
  -36    4    3     -0.09      0.00
  -34    4    3     -0.20      0.00
  -32    4    3     -0.10      0.00
  -30    4    3     -0.62      0.00
  -28    4    3     -1.36      0.00
  -26    4    3     -0.91      0.00
  -24    4    3      0.38      0.00
  -22    4    3      1.00      0.00
  -20    4    3      0.94      0.00
  -18    4    3      0.82      0.00
  -16    4    3     -0.66      0.00
  -14    4    3     -4.00      0.00
  -12    4    3     -4.73      0.00
  -10    4    3      0.40      0.00
   -8    4    3      4.83      0.00
   -6    4    3      1.34      0.00
   -4    4    3     -3.38      0.00
   -2    4    3      0.47      0.00
    0    4    3      6.39      0.00
    2    4    3      2.40      0.00
    4    4    3     -7.14      0.00
    6    4    3     -9.82      0.00
    8    4    3     -5.25      0.00
   10    4    3     -1.51      0.00
   12    4    3     -1.32      0.00
   14    4    3     -2.03      0.00
   16    4    3     -1.75      0.00
   18    4    3     -0.50      0.00
   20    4    3      0.70      0.00
   22    4    3      1.01      0.00
   24    4    3      0.84      0.00
   26    4    3      0.94      0.00
   28    4    3      1.24      0.00
   30    4    3      1.21      0.00
   32    4    3      0.50      0.00
   34    4    3     -0.38      0.00
  -33    5    3      0.33      0.00
  -31    5    3      0.34      0.00
  -29    5    3      0.87      0.00
  -27    5    3      0.99      0.00
  -25    5    3      0.18      0.00
  -23    5    3     -0.38      0.00
  -21    5    3     -0.26      0.00
  -19    5    3     -0.73      0.00
  -17    5    3     -1.47      0.00
  -15    5    3     -0.03      0.00
  -13    5    3      2.62      0.00
  -11    5    3      1.59      0.00
   -9    5    3     -2.49      0.00
   -7    5    3     -2.36      0.00
   -5    5    3      2.61      0.00
   -3    5    3      4.20      0.00
   -1    5    3      1.05      0.00
    1    5    3      1.40      0.00
    3    5    3      6.49      0.00
    5    5    3      7.92      0.00
    7    5    3      3.54      0.00
    9    5    3      0.18      0.00
   11    5    3      0.83      0.00
   13    5    3      1.75      0.00
   15    5    3      0.83      0.00
   17    5    3     -0.29      0.00
   19    5    3     -0.42      0.00
   21    5    3     -0.21      0.00
   23    5    3     -0.30      0.00
   25    5    3     -0.47      0.00
   27    5    3     -0.47      0.00
   29    5    3     -0.51      0.00
   31    5    3     -0.58      0.00
   33    5    3     -0.36      0.00
  -32    6    3     -0.03      0.00
  -30    6    3     -0.05      0.00
  -28    6    3     -0.26      0.00
  -26    6    3     -0.20      0.00
  -24    6    3     -0.16      0.00
  -22    6    3     -0.52      0.00
  -20    6    3     -0.37      0.00
  -18    6    3      0.88      0.00
  -16    6    3      1.47      0.00
  -14    6    3      0.11      0.00
  -12    6    3     -0.56      0.00
  -10    6    3      1.52      0.00
   -8    6    3      2.57      0.00
   -6    6    3     -0.84      0.00
   -4    6    3     -4.57      0.00
   -2    6    3     -4.19      0.00
    0    6    3     -2.96      0.00
    2    6    3     -4.25      0.00
    4    6    3     -4.35      0.00
    6    6    3     -0.58      0.00
    8    6    3      2.48      0.00
   10    6    3      1.43      0.00
   12    6    3     -0.43      0.00
   14    6    3      0.06      0.00
   16    6    3      1.20      0.00
   18    6    3      0.94      0.00
   20    6    3      0.12      0.00
   22    6    3     -0.10      0.00
   24    6    3     -0.08      0.00
   26    6    3     -0.32      0.00
   28    6    3     -0.44      0.00
   30    6    3     -0.10      0.00
  -29    7    3     -0.40      0.00
  -27    7    3     -0.23      0.00
  -25    7    3      0.05      0.00
  -23    7    3      0.55      0.00
  -21    7    3      0.81      0.00
  -19    7    3      0.26      0.00
  -17    7    3     -0.57      0.00
  -15    7    3     -0.51      0.00
  -13    7    3     -0.03      0.00
  -11    7    3     -0.73      0.00
   -9    7    3     -1.76      0.00
   -7    7    3     -0.62      0.00
   -5    7    3      1.85      0.00
   -3    7    3      2.43      0.00
   -1    7    3      1.45      0.00
    1    7    3      1.55      0.00
    3    7    3      1.84      0.00
    5    7    3     -0.09      0.00
    7    7    3     -2.43      0.00
    9    7    3     -2.15      0.00
   11    7    3     -0.61      0.00
   13    7    3     -0.59      0.00
   15    7    3     -1.28      0.00
   17    7    3     -0.88      0.00
   19    7    3     -0.11      0.00
   21    7    3     -0.07      0.00
   23    7    3     -0.05      0.00
   25    7    3      0.51      0.00
   27    7    3      0.91      0.00
   29    7    3      0.66      0.00
  -26    8    3      0.05      0.00
  -24    8    3     -0.24      0.00
  -22    8    3     -0.28      0.00
  -20    8    3     -0.01      0.00
  -18    8    3      0.22      0.00
  -16    8    3      0.02      0.00
  -14    8    3     -0.35      0.00
  -12    8    3     -0.12      0.00
  -10    8    3      0.64      0.00
   -8    8    3      0.76      0.00
   -6    8    3      0.03      0.00
   -4    8    3     -0.16      0.00
   -2    8    3      0.58      0.00
    0    8    3      0.87      0.00
    2    8    3      0.34      0.00
    4    8    3      0.25      0.00
    6    8    3      0.66      0.00
    8    8    3      0.34      0.00
   10    8    3     -0.35      0.00
   12    8    3     -0.01      0.00
   14    8    3      0.68      0.00
   16    8    3      0.27      0.00
   18    8    3     -0.39      0.00
   20    8    3      0.06      0.00
   22    8    3      0.69      0.00
   24    8    3      0.24      0.00
   26    8    3     -0.53      0.00
  -23    9    3      0.01      0.00
  -21    9    3     -0.54      0.00
  -19    9    3     -0.97      0.00
  -17    9    3     -0.69      0.00
  -15    9    3      0.08      0.00
  -13    9    3      0.48      0.00
  -11    9    3      0.13      0.00
   -9    9    3     -0.34      0.00
   -7    9    3     -0.42      0.00
   -5    9    3     -0.50      0.00
   -3    9    3     -0.97      0.00
   -1    9    3     -1.33      0.00
    1    9    3     -1.14      0.00
    3    9    3     -0.65      0.00
    5    9    3     -0.08      0.00
    7    9    3      0.70      0.00
    9    9    3      1.24      0.00
   11    9    3      0.86      0.00
   13    9    3      0.10      0.00
   15    9    3      0.17      0.00
   17    9    3      0.70      0.00
   19    9    3      0.28      0.00
   21    9    3     -0.82      0.00
  -18   10    3      1.15      0.00
  -16   10    3      0.81      0.00
  -14   10    3      0.07      0.00
  -12   10    3     -0.25      0.00
  -10   10    3     -0.03      0.00
   -8   10    3      0.20      0.00
   -6   10    3      0.31      0.00
   -4   10    3      0.55      0.00
   -2   10    3      0.73      0.00
    0   10    3      0.56      0.00
    2   10    3      0.22      0.00
    4   10    3     -0.09      0.00
    6   10    3     -0.41      0.00
    8   10    3     -0.55      0.00
   10   10    3     -0.31      0.00
   12   10    3      0.03      0.00
   14   10    3     -0.02      0.00
   16   10    3     -0.37      0.00
   18   10    3     -0.33      0.00
  -11   11    3      0.10      0.00
   -9   11    3     -0.05      0.00
   -7   11    3     -0.07      0.00
   -5   11    3     -0.12      0.00
   -3   11    3     -0.21      0.00
   -1   11    3     -0.05      0.00
    1   11    3      0.26      0.00
    3   11    3      0.41      0.00
    5   11    3      0.31      0.00
    7   11    3     -0.03      0.00
    9   11    3     -0.51      0.00
  -38    0    4      0.44      0.00
  -36    0    4      1.20      0.00
  -34    0    4      0.44      0.00
  -32    0    4     -0.45      0.00
  -30    0    4     -0.22      0.00
  -28    0    4      0.58      0.00
  -26    0    4      0.84      0.00
  -24    0    4     -0.08      0.00
  -22    0    4     -1.74      0.00
  -20    0    4     -2.73      0.00
  -18    0    4     -2.06      0.00
  -16    0    4      0.24      0.00
  -14    0    4      3.71      0.00
  -12    0    4      6.88      0.00
  -10    0    4      6.95      0.00
   -8    0    4      0.88      0.00
   -6    0    4    -11.11      0.00
   -4    0    4    -21.94      0.00
   -2    0    4    -22.74      0.00
    0    0    4    -13.72      0.00
    2    0    4     -3.05      0.00
    4    0    4      3.72      0.00
    6    0    4      4.86      0.00
    8    0    4      0.00      0.00
   10    0    4     -5.28      0.00
   12    0    4     -3.78      0.00
   14    0    4      0.88      0.00
   16    0    4      0.34      0.00
   18    0    4     -2.81      0.00
   20    0    4     -1.29      0.00
   22    0    4      2.46      0.00
   24    0    4      2.39      0.00
   26    0    4      0.08      0.00
   28    0    4     -0.23      0.00
   30    0    4      0.78      0.00
   32    0    4      0.62      0.00
   34    0    4     -0.54      0.00
   36    0    4     -0.96      0.00
  -37    1    4     -0.93      0.00
  -35    1    4     -0.72      0.00
  -33    1    4      0.23      0.00
  -31    1    4      0.22      0.00
  -29    1    4     -0.60      0.00
  -27    1    4     -1.06      0.00
  -25    1    4     -0.67      0.00
  -23    1    4      0.58      0.00
  -21    1    4      2.20      0.00
  -19    1    4      3.04      0.00
  -17    1    4      1.94      0.00
  -15    1    4     -1.37      0.00
  -13    1    4     -5.43      0.00
  -11    1    4     -7.07      0.00
   -9    1    4     -3.26      0.00
   -7    1    4      5.88      0.00
   -5    1    4     15.14      0.00
   -3    1    4     17.29      0.00
   -1    1    4     11.25      0.00
    1    1    4      3.57      0.00
    3    1    4     -0.97      0.00
    5    1    4     -2.91      0.00
    7    1    4     -1.89      0.00
    9    1    4      2.04      0.00
   11    1    4      3.62      0.00
   13    1    4      0.57      0.00
   15    1    4     -0.89      0.00
   17    1    4      1.88      0.00
   19    1    4      2.62      0.00
   21    1    4     -0.92      0.00
   23    1    4     -2.87      0.00
   25    1    4     -0.98      0.00
   27    1    4      0.50      0.00
   29    1    4     -0.34      0.00
   31    1    4     -1.02      0.00
   33    1    4     -0.16      0.00
   35    1    4      0.83      0.00
  -36    2    4      0.70      0.00
  -34    2    4     -0.31      0.00
  -32    2    4     -0.51      0.00
  -30    2    4      0.62      0.00
  -28    2    4      1.37      0.00
  -26    2    4      1.11      0.00
  -24    2    4      0.53      0.00
  -22    2    4     -0.60      0.00
  -20    2    4     -2.57      0.00
  -18    2    4     -3.83      0.00
  -16    2    4     -2.22      0.00
  -14    2    4      2.12      0.00
  -12    2    4      5.62      0.00
  -10    2    4      3.87      0.00
   -8    2    4     -3.20      0.00
   -6    2    4     -9.31      0.00
   -4    2    4     -7.85      0.00
   -2    2    4     -0.49      0.00
    0    2    4      4.25      0.00
    2    2    4      2.51      0.00
    4    2    4     -0.45      0.00
    6    2    4     -0.22      0.00
    8    2    4      0.56      0.00
   10    2    4     -0.22      0.00
   12    2    4     -0.36      0.00
   14    2    4     -0.02      0.00
   16    2    4     -1.64      0.00
   18    2    4     -2.98      0.00
   20    2    4     -0.72      0.00
   22    2    4      2.20      0.00
   24    2    4      1.72      0.00
   26    2    4     -0.22      0.00
   28    2    4     -0.21      0.00
   30    2    4      0.83      0.00
   32    2    4      0.63      0.00
   34    2    4     -0.43      0.00
  -35    3    4      0.17      0.00
  -33    3    4      1.25      0.00
  -31    3    4      0.60      0.00
  -29    3    4     -0.78      0.00
  -27    3    4     -1.11      0.00
  -25    3    4     -0.86      0.00
  -23    3    4     -0.65      0.00
  -21    3    4      0.52      0.00
  -19    3    4      2.69      0.00
  -17    3    4      3.85      0.00
  -15    3    4      2.24      0.00
  -13    3    4     -1.31      0.00
  -11    3    4     -3.07      0.00
   -9    3    4      0.00      0.00
   -7    3    4      4.67      0.00
   -5    3    4      3.73      0.00
   -3    3    4     -3.41      0.00
   -1    3    4     -8.42      0.00
    1    3    4     -5.61      0.00
    3    3    4      0.21      0.00
    5    3    4      1.79      0.00
    7    3    4     -0.50      0.00
    9    3    4     -1.69      0.00
   11    3    4     -0.49      0.00
   13    3    4      1.01      0.00
   15    3    4      2.16      0.00
   17    3    4      2.86      0.00
   19    3    4      1.75      0.00
   21    3    4     -0.72      0.00
   23    3    4     -1.62      0.00
   25    3    4     -0.51      0.00
   27    3    4      0.16      0.00
   29    3    4     -0.25      0.00
   31    3    4     -0.16      0.00
   33    3    4      0.61      0.00
   35    3    4      0.85      0.00
  -34    4    4     -1.22      0.00
  -32    4    4     -1.92      0.00
  -30    4    4     -0.98      0.00
  -28    4    4      0.30      0.00
  -26    4    4      0.86      0.00
  -24    4    4      1.05      0.00
  -22    4    4      0.85      0.00
  -20    4    4     -0.25      0.00
  -18    4    4     -1.91      0.00
  -16    4    4     -3.11      0.00
  -14    4    4     -2.62      0.00
  -12    4    4     -0.43      0.00
  -10    4    4      0.84      0.00
   -8    4    4     -0.55      0.00
   -6    4    4     -1.37      0.00
   -4    4    4      1.54      0.00
   -2    4    4      4.73      0.00
    0    4    4      3.45      0.00
    2    4    4     -0.47      0.00
    4    4    4     -1.88      0.00
    6    4    4     -0.09      0.00
    8    4    4      1.42      0.00
   10    4    4      0.58      0.00
   12    4    4     -1.23      0.00
   14    4    4     -2.17      0.00
   16    4    4     -2.12      0.00
   18    4    4     -1.50      0.00
   20    4    4     -0.34      0.00
   22    4    4      0.65      0.00
   24    4    4      0.68      0.00
   26    4    4      0.35      0.00
   28    4    4      0.22      0.00
   30    4    4     -0.37      0.00
   32    4    4     -1.33      0.00
   34    4    4     -1.43      0.00
  -33    5    4      1.71      0.00
  -31    5    4      1.96      0.00
  -29    5    4      0.89      0.00
  -27    5    4     -0.51      0.00
  -25    5    4     -1.21      0.00
  -23    5    4     -1.17      0.00
  -21    5    4     -0.81      0.00
  -19    5    4     -0.24      0.00
  -17    5    4      0.92      0.00
  -15    5    4      2.32      0.00
  -13    5    4      2.33      0.00
  -11    5    4      0.73      0.00
   -9    5    4     -0.19      0.00
   -7    5    4      0.25      0.00
   -5    5    4     -0.04      0.00
   -3    5    4     -1.07      0.00
   -1    5    4     -0.47      0.00
    1    5    4      1.46      0.00
    3    5    4      2.08      0.00
    5    5    4      1.03      0.00
    7    5    4      0.06      0.00
    9    5    4      0.04      0.00
   11    5    4      0.48      0.00
   13    5    4      0.60      0.00
   15    5    4      0.28      0.00
   17    5    4      0.03      0.00
   19    5    4      0.03      0.00
   21    5    4     -0.02      0.00
   23    5    4     -0.19      0.00
   25    5    4     -0.40      0.00
   27    5    4     -0.49      0.00
   29    5    4      0.07      0.00
   31    5    4      1.24      0.00
  -32    6    4     -1.18      0.00
  -30    6    4     -1.00      0.00
  -28    6    4      0.06      0.00
  -26    6    4      0.96      0.00
  -24    6    4      0.93      0.00
  -22    6    4      0.52      0.00
  -20    6    4      0.52      0.00
  -18    6    4      0.47      0.00
  -16    6    4     -0.32      0.00
  -14    6    4     -1.09      0.00
  -12    6    4     -0.74      0.00
  -10    6    4     -0.06      0.00
   -8    6    4     -0.33      0.00
   -6    6    4     -0.74      0.00
   -4    6    4     -0.26      0.00
   -2    6    4      0.18      0.00
    0    6    4     -0.06      0.00
    2    6    4     -0.23      0.00
    4    6    4     -0.33      0.00
    6    6    4     -0.84      0.00
    8    6    4     -0.99      0.00
   10    6    4     -0.01      0.00
   12    6    4      1.33      0.00
   14    6    4      2.00      0.00
   16    6    4      1.81      0.00
   18    6    4      1.02      0.00
   20    6    4      0.19      0.00
   22    6    4     -0.12      0.00
   24    6    4      0.12      0.00
   26    6    4      0.48      0.00
   28    6    4      0.43      0.00
   30    6    4     -0.22      0.00
  -29    7    4     -0.17      0.00
  -27    7    4     -0.55      0.00
  -25    7    4     -0.32      0.00
  -23    7    4      0.33      0.00
  -21    7    4      0.47      0.00
  -19    7    4     -0.02      0.00
  -17    7    4     -0.39      0.00
  -15    7    4     -0.41      0.00
  -13    7    4     -0.53      0.00
  -11    7    4     -0.71      0.00
   -9    7    4     -0.36      0.00
   -7    7    4      0.31      0.00
   -5    7    4      0.43      0.00
   -3    7    4     -0.12      0.00
   -1    7    4     -1.01      0.00
    1    7    4     -2.03      0.00
    3    7    4     -2.27      0.00
    5    7    4     -0.94      0.00
    7    7    4      0.55      0.00
    9    7    4      0.13      0.00
   11    7    4     -1.67      0.00
   13    7    4     -2.75      0.00
   15    7    4     -2.50      0.00
   17    7    4     -1.59      0.00
   19    7    4     -0.48      0.00
   21    7    4      0.25      0.00
   23    7    4      0.15      0.00
   25    7    4     -0.36      0.00
   27    7    4     -0.58      0.00
  -26    8    4      0.00      0.00
  -24    8    4     -0.68      0.00
  -22    8    4     -1.24      0.00
  -20    8    4     -1.16      0.00
  -18    8    4     -0.38      0.00
  -16    8    4      0.68      0.00
  -14    8    4      1.36      0.00
  -12    8    4      1.25      0.00
  -10    8    4      0.70      0.00
   -8    8    4      0.33      0.00
   -6    8    4      0.21      0.00
   -4    8    4      0.12      0.00
   -2    8    4      0.35      0.00
    0    8    4      1.42      0.00
    2    8    4      2.63      0.00
    4    8    4      2.35      0.00
    6    8    4      0.73      0.00
    8    8    4      0.01      0.00
   10    8    4      0.90      0.00
   12    8    4      1.65      0.00
   14    8    4      1.40      0.00
   16    8    4      0.97      0.00
   18    8    4      0.51      0.00
   20    8    4     -0.25      0.00
   22    8    4     -0.52      0.00
   24    8    4      0.08      0.00
  -23    9    4      0.57      0.00
  -21    9    4      1.15      0.00
  -19    9    4      1.21      0.00
  -17    9    4      0.16      0.00
  -15    9    4     -1.17      0.00
  -13    9    4     -1.27      0.00
  -11    9    4     -0.19      0.00
   -9    9    4      0.48      0.00
   -7    9    4      0.14      0.00
   -5    9    4     -0.19      0.00
   -3    9    4      0.00      0.00
   -1    9    4     -0.05      0.00
    1    9    4     -0.72      0.00
    3    9    4     -1.04      0.00
    5    9    4     -0.33      0.00
    7    9    4      0.31      0.00
    9    9    4     -0.05      0.00
   11    9    4     -0.38      0.00
   13    9    4      0.14      0.00
   15    9    4      0.29      0.00
   17    9    4     -0.31      0.00
   19    9    4     -0.24      0.00
   21    9    4      0.49      0.00
  -18   10    4     -0.69      0.00
  -16   10    4      0.15      0.00
  -14   10    4      0.69      0.00
  -12   10    4     -0.11      0.00
  -10   10    4     -1.22      0.00
   -8   10    4     -1.24      0.00
   -6   10    4     -0.52      0.00
   -4   10    4     -0.20      0.00
   -2   10    4     -0.29      0.00
    0   10    4     -0.28      0.00
    2   10    4     -0.34      0.00
    4   10    4     -0.79      0.00
    6   10    4     -1.07      0.00
    8   10    4     -0.60      0.00
   10   10    4     -0.16      0.00
   12   10    4     -0.68      0.00
   14   10    4     -1.04      0.00
   16   10    4     -0.07      0.00
   -9   11    4      1.22      0.00
   -7   11    4      0.93      0.00
   -5   11    4      0.57      0.00
   -3   11    4      0.46      0.00
   -1   11    4      0.34      0.00
    1   11    4      0.30      0.00
    3   11    4      0.60      0.00
    5   11    4      0.84      0.00
    7   11    4      0.43      0.00
  -37    1    5     -0.32      0.00
  -35    1    5     -0.32      0.00
  -33    1    5      0.21      0.00
  -31    1    5      0.51      0.00
  -29    1    5      0.05      0.00
  -27    1    5     -0.56      0.00
  -25    1    5     -0.60      0.00
  -23    1    5     -0.15      0.00
  -21    1    5      0.13      0.00
  -19    1    5     -0.73      0.00
  -17    1    5     -2.90      0.00
  -15    1    5     -4.49      0.00
  -13    1    5     -2.88      0.00
  -11    1    5      2.17      0.00
   -9    1    5      7.28      0.00
   -7    1    5      8.29      0.00
   -5    1    5      5.01      0.00
   -3    1    5      1.53      0.00
   -1    1    5      0.44      0.00
    1    1    5      0.28      0.00
    3    1    5      0.16      0.00
    5    1    5      1.48      0.00
    7    1    5      3.25      0.00
    9    1    5      2.44      0.00
   11    1    5     -0.33      0.00
   13    1    5     -1.55      0.00
   15    1    5     -0.60      0.00
   17    1    5      0.27      0.00
   19    1    5      0.16      0.00
   21    1    5     -0.05      0.00
   23    1    5      0.11      0.00
   25    1    5      0.33      0.00
   27    1    5      0.43      0.00
   29    1    5      0.51      0.00
   31    1    5      0.50      0.00
   33    1    5      0.20      0.00
   35    1    5     -0.19      0.00
  -36    2    5      0.71      0.00
  -34    2    5      0.25      0.00
  -32    2    5     -0.49      0.00
  -30    2    5     -0.46      0.00
  -28    2    5      0.22      0.00
  -26    2    5      0.50      0.00
  -24    2    5     -0.05      0.00
  -22    2    5     -0.79      0.00
  -20    2    5     -0.38      0.00
  -18    2    5      2.17      0.00
  -16    2    5      5.54      0.00
  -14    2    5      5.91      0.00
  -12    2    5      0.72      0.00
  -10    2    5     -7.14      0.00
   -8    2    5    -10.85      0.00
   -6    2    5     -7.53      0.00
   -4    2    5     -2.62      0.00
   -2    2    5     -1.97      0.00
    0    2    5     -3.07      0.00
    2    2    5     -1.26      0.00
    4    2    5      0.93      0.00
    6    2    5     -0.43      0.00
    8    2    5     -2.19      0.00
   10    2    5     -0.54      0.00
   12    2    5      1.77      0.00
   14    2    5      1.28      0.00
   16    2    5     -0.30      0.00
   18    2    5     -0.50      0.00
   20    2    5     -0.01      0.00
   22    2    5     -0.08      0.00
   24    2    5     -0.26      0.00
   26    2    5      0.00      0.00
   28    2    5      0.20      0.00
   30    2    5     -0.07      0.00
   32    2    5     -0.27      0.00
   34    2    5      0.03      0.00
  -35    3    5     -0.50      0.00
  -33    3    5     -0.05      0.00
  -31    3    5      0.29      0.00
  -29    3    5      0.22      0.00
  -27    3    5      0.07      0.00
  -25    3    5      0.39      0.00
  -23    3    5      1.20      0.00
  -21    3    5      1.65      0.00
  -19    3    5      0.52      0.00
  -17    3    5     -2.43      0.00
  -15    3    5     -4.96      0.00
  -13    3    5     -3.40      0.00
  -11    3    5      2.78      0.00
   -9    3    5      7.84      0.00
   -7    3    5      6.02      0.00
   -5    3    5      0.80      0.00
   -3    3    5      0.52      0.00
   -1    3    5      4.44      0.00
    1    3    5      4.03      0.00
    3    3    5     -1.57      0.00
    5    3    5     -4.35      0.00
    7    3    5     -2.00      0.00
    9    3    5     -0.24      0.00
   11    3    5     -1.15      0.00
   13    3    5     -1.28      0.00
   15    3    5      0.21      0.00
   17    3    5      0.78      0.00
   19    3    5      0.07      0.00
   21    3    5     -0.17      0.00
   23    3    5      0.09      0.00
   25    3    5     -0.41      0.00
   27    3    5     -1.36      0.00
   29    3    5     -1.39      0.00
   31    3    5     -0.61      0.00
   33    3    5     -0.15      0.00
  -34    4    5      0.10      0.00
  -32    4    5      0.17      0.00
  -30    4    5     -0.02      0.00
  -28    4    5     -0.27      0.00
  -26    4    5     -0.35      0.00
  -24    4    5     -0.67      0.00
  -22    4    5     -1.39      0.00
  -20    4    5     -1.87      0.00
  -18    4    5     -1.25      0.00
  -16    4    5      0.75      0.00
  -14    4    5      2.37      0.00
  -12    4    5      0.60      0.00
  -10    4    5     -3.49      0.00
   -8    4    5     -3.98      0.00
   -6    4    5      0.34      0.00
   -4    4    5      2.24      0.00
   -2    4    5     -1.59      0.00
    0    4    5     -3.84      0.00
    2    4    5      0.48      0.00
    4    4    5      5.18      0.00
    6    4    5      4.13      0.00
    8    4    5      0.82      0.00
   10    4    5      0.19      0.00
   12    4    5      0.82      0.00
   14    4    5      0.03      0.00
   16    4    5     -0.84      0.00
   18    4    5     -0.19      0.00
   20    4    5      0.58      0.00
   22    4    5      0.34      0.00
   24    4    5      0.43      0.00
   26    4    5      1.55      0.00
   28    4    5      2.20      0.00
   30    4    5      1.57      0.00
   32    4    5      0.73      0.00
  -33    5    5     -0.13      0.00
  -31    5    5     -0.34      0.00
  -29    5    5     -0.12      0.00
  -27    5    5     -0.06      0.00
  -25    5    5     -0.16      0.00
  -23    5    5      0.13      0.00
  -21    5    5      0.86      0.00
  -19    5    5      1.76      0.00
  -17    5    5      2.03      0.00
  -15    5    5      0.80      0.00
  -13    5    5     -0.37      0.00
  -11    5    5      0.90      0.00
   -9    5    5      2.32      0.00
   -7    5    5      0.19      0.00
   -5    5    5     -2.56      0.00
   -3    5    5     -0.98      0.00
   -1    5    5      1.85      0.00
    1    5    5      0.14      0.00
    3    5    5     -3.61      0.00
    5    5    5     -3.25      0.00
    7    5    5      0.26      0.00
    9    5    5      1.69      0.00
   11    5    5      0.56      0.00
   13    5    5      0.08      0.00
   15    5    5      0.70      0.00
   17    5    5      0.42      0.00
   19    5    5     -0.54      0.00
   21    5    5     -0.59      0.00
   23    5    5     -0.29      0.00
   25    5    5     -1.00      0.00
   27    5    5     -1.80      0.00
   29    5    5     -1.45      0.00
   31    5    5     -0.76      0.00
  -32    6    5      0.26      0.00
  -30    6    5      0.46      0.00
  -28    6    5      0.54      0.00
  -26    6    5      0.63      0.00
  -24    6    5      0.52      0.00
  -22    6    5      0.24      0.00
  -20    6    5     -0.24      0.00
  -18    6    5     -1.16      0.00
  -16    6    5     -1.60      0.00
  -14    6    5     -0.82      0.00
  -12    6    5     -0.51      0.00
  -10    6    5     -1.34      0.00
   -8    6    5     -0.68      0.00
   -6    6    5      1.67      0.00
   -4    6    5      1.68      0.00
   -2    6    5     -0.97      0.00
    0    6    5     -1.51      0.00
    2    6    5      0.88      0.00
    4    6    5      1.69      0.00
    6    6    5     -0.55      0.00
    8    6    5     -2.32      0.00
   10    6    5     -1.73      0.00
   12    6    5     -0.83      0.00
   14    6    5     -0.95      0.00
   16    6    5     -0.81      0.00
   18    6    5      0.06      0.00
   20    6    5      0.24      0.00
   22    6    5     -0.27      0.00
   24    6    5      0.13      0.00
   26    6    5      1.06      0.00
   28    6    5      0.87      0.00
  -29    7    5     -0.60      0.00
  -27    7    5     -0.64      0.00
  -25    7    5     -0.41      0.00
  -23    7    5     -0.22      0.00
  -21    7    5     -0.34      0.00
  -19    7    5     -0.29      0.00
  -17    7    5      0.07      0.00
  -15    7    5     -0.07      0.00
  -13    7    5     -0.43      0.00
  -11    7    5      0.25      0.00
   -9    7    5      0.85      0.00
   -7    7    5     -0.36      0.00
   -5    7    5     -1.43      0.00
   -3    7    5      0.05      0.00
   -1    7    5      1.96      0.00
    1    7    5      1.55      0.00
    3    7    5      0.24      0.00
    5    7    5      0.30      0.00
    7    7    5      1.01      0.00
    9    7    5      0.96      0.00
   11    7    5      0.76      0.00
   13    7    5      1.25      0.00
   15    7    5      1.45      0.00
   17    7    5      0.62      0.00
   19    7    5      0.14      0.00
   21    7    5      0.77      0.00
   23    7    5      0.87      0.00
   25    7    5     -0.15      0.00
   27    7    5     -0.52      0.00
  -26    8    5      0.00      0.00
  -24    8    5     -0.14      0.00
  -22    8    5     -0.01      0.00
  -20    8    5      0.30      0.00
  -18    8    5      0.58      0.00
  -16    8    5      1.14      0.00
  -14    8    5      1.94      0.00
  -12    8    5      1.72      0.00
  -10    8    5      0.22      0.00
   -8    8    5     -0.59      0.00
   -6    8    5      0.03      0.00
   -4    8    5      0.26      0.00
   -2    8    5     -0.61      0.00
    0    8    5     -1.12      0.00
    2    8    5     -0.73      0.00
    4    8    5     -0.36      0.00
    6    8    5     -0.25      0.00
    8    8    5      0.05      0.00
   10    8    5      0.07      0.00
   12    8    5     -0.80      0.00
   14    8    5     -1.71      0.00
   16    8    5     -1.36      0.00
   18    8    5     -0.41      0.00
   20    8    5     -0.50      0.00
   22    8    5     -1.06      0.00
   24    8    5     -0.62      0.00
  -23    9    5      0.21      0.00
  -21    9    5      0.10      0.00
  -19    9    5     -0.15      0.00
  -17    9    5     -0.73      0.00
  -15    9    5     -1.68      0.00
  -13    9    5     -2.24      0.00
  -11    9    5     -1.52      0.00
   -9    9    5     -0.11      0.00
   -7    9    5      0.55      0.00
   -5    9    5      0.34      0.00
   -3    9    5      0.10      0.00
   -1    9    5     -0.10      0.00
    1    9    5     -0.37      0.00
    3    9    5     -0.30      0.00
    5    9    5      0.09      0.00
    7    9    5      0.19      0.00
    9    9    5      0.04      0.00
   11    9    5      0.43      0.00
   13    9    5      1.32      0.00
   15    9    5      1.57      0.00
   17    9    5      0.77      0.00
   19    9    5      0.13      0.00
  -16   10    5      0.43      0.00
  -14   10    5      0.76      0.00
  -12   10    5      0.88      0.00
  -10   10    5      0.66      0.00
   -8   10    5      0.31      0.00
   -6   10    5      0.05      0.00
   -4   10    5     -0.14      0.00
   -2   10    5     -0.07      0.00
    0   10    5      0.38      0.00
    2   10    5      0.66      0.00
    4   10    5      0.23      0.00
    6   10    5     -0.44      0.00
    8   10    5     -0.68      0.00
   10   10    5     -0.69      0.00
   12   10    5     -0.87      0.00
   14   10    5     -1.03      0.00
   -7   11    5     -0.69      0.00
   -5   11    5     -0.38      0.00
   -3   11    5      0.09      0.00
   -1   11    5      0.22      0.00
    1   11    5     -0.02      0.00
    3   11    5     -0.04      0.00
    5   11    5      0.36      0.00
  -36    0    6      0.52      0.00
  -34    0    6      0.53      0.00
  -32    0    6     -0.90      0.00
  -30    0    6     -1.47      0.00
  -28    0    6     -0.22      0.00
  -26    0    6      0.81      0.00
  -24    0    6      0.26      0.00
  -22    0    6     -1.28      0.00
  -20    0    6     -2.82      0.00
  -18    0    6     -3.60      0.00
  -16    0    6     -2.61      0.00
  -14    0    6      0.98      0.00
  -12    0    6      5.39      0.00
  -10    0    6      5.96      0.00
   -8    0    6      1.82      0.00
   -6    0    6     -1.05      0.00
   -4    0    6      0.28      0.00
   -2    0    6      0.87      0.00
    0    0    6     -1.71      0.00
    2    0    6     -3.17      0.00
    4    0    6     -1.46      0.00
    6    0    6      0.94      0.00
    8    0    6      2.33      0.00
   10    0    6      2.11      0.00
   12    0    6      0.46      0.00
   14    0    6     -0.25      0.00
   16    0    6      0.40      0.00
   18    0    6     -0.42      0.00
   20    0    6     -2.39      0.00
   22    0    6     -2.04      0.00
   24    0    6     -0.04      0.00
   26    0    6      0.14      0.00
   28    0    6     -1.23      0.00
   30    0    6     -1.60      0.00
   32    0    6     -0.58      0.00
   34    0    6      0.44      0.00
  -37    1    6     -0.30      0.00
  -35    1    6     -0.92      0.00
  -33    1    6     -0.01      0.00
  -31    1    6      1.23      0.00
  -29    1    6      0.72      0.00
  -27    1    6     -0.59      0.00
  -25    1    6     -0.58      0.00
  -23    1    6      0.74      0.00
  -21    1    6      1.95      0.00
  -19    1    6      2.44      0.00
  -17    1    6      2.33      0.00
  -15    1    6      0.95      0.00
  -13    1    6     -2.39      0.00
  -11    1    6     -5.29      0.00
   -9    1    6     -4.37      0.00
   -7    1    6     -1.53      0.00
   -5    1    6     -1.04      0.00
   -3    1    6     -1.39      0.00
   -1    1    6      1.00      0.00
    1    1    6      3.79      0.00
    3    1    6      3.30      0.00
    5    1    6      0.73      0.00
    7    1    6     -1.44      0.00
    9    1    6     -2.30      0.00
   11    1    6     -1.38      0.00
   13    1    6     -0.13      0.00
   15    1    6     -0.48      0.00
   17    1    6     -0.62      0.00
   19    1    6      1.30      0.00
   21    1    6      2.57      0.00
   23    1    6      1.12      0.00
   25    1    6     -0.25      0.00
   27    1    6      0.52      0.00
   29    1    6      1.55      0.00
   31    1    6      1.08      0.00
   33    1    6     -0.14      0.00
  -36    2    6      0.91      0.00
  -34    2    6      0.72      0.00
  -32    2    6     -0.36      0.00
  -30    2    6     -0.59      0.00
  -28    2    6      0.39      0.00
  -26    2    6      0.69      0.00
  -24    2    6     -0.46      0.00
  -22    2    6     -1.42      0.00
  -20    2    6     -0.90      0.00
  -18    2    6     -0.15      0.00
  -16    2    6     -0.41      0.00
  -14    2    6     -0.18      0.00
  -12    2    6      1.97      0.00
  -10    2    6      4.13      0.00
   -8    2    6      4.41      0.00
   -6    2    6      3.78      0.00
   -4    2    6      2.63      0.00
   -2    2    6     -0.23      0.00
    0    2    6     -3.40      0.00
    2    2    6     -4.02      0.00
    4    2    6     -2.44      0.00
    6    2    6     -0.64      0.00
    8    2    6      0.75      0.00
   10    2    6      1.14      0.00
   12    2    6      0.58      0.00
   14    2    6      0.75      0.00
   16    2    6      1.45      0.00
   18    2    6      0.35      0.00
   20    2    6     -1.80      0.00
   22    2    6     -1.90      0.00
   24    2    6     -0.38      0.00
   26    2    6     -0.11      0.00
   28    2    6     -1.21      0.00
   30    2    6     -1.44      0.00
   32    2    6     -0.23      0.00
   34    2    6      0.78      0.00
  -35    3    6     -0.45      0.00
  -33    3    6     -0.15      0.00
  -31    3    6      0.08      0.00
  -29    3    6     -0.25      0.00
  -27    3    6     -0.49      0.00
  -25    3    6      0.19      0.00
  -23    3    6      0.96      0.00
  -21    3    6      0.22      0.00
  -19    3    6     -1.36      0.00
  -17    3    6     -1.42      0.00
  -15    3    6     -0.06      0.00
  -13    3    6      0.05      0.00
  -11    3    6     -1.84      0.00
   -9    3    6     -3.68      0.00
   -7    3    6     -3.93      0.00
   -5    3    6     -2.47      0.00
   -3    3    6     -0.03      0.00
   -1    3    6      1.56      0.00
    1    3    6      1.29      0.00
    3    3    6      0.79      0.00
    5    3    6      1.30      0.00
    7    3    6      1.64      0.00
    9    3    6      1.11      0.00
   11    3    6      0.58      0.00
   13    3    6     -0.05      0.00
   15    3    6     -1.14      0.00
   17    3    6     -1.28      0.00
   19    3    6      0.24      0.00
   21    3    6      1.36      0.00
   23    3    6      0.74      0.00
   25    3    6      0.09      0.00
   27    3    6      0.89      0.00
   29    3    6      1.79      0.00
   31    3    6      0.99      0.00
   33    3    6     -0.61      0.00
  -34    4    6     -0.13      0.00
  -32    4    6      0.16      0.00
  -30    4    6      0.32      0.00
  -28    4    6      0.21      0.00
  -26    4    6     -0.24      0.00
  -24    4    6     -0.69      0.00
  -22    4    6     -0.18      0.00
  -20    4    6      1.43      0.00
  -18    4    6      2.37      0.00
  -16    4    6      1.47      0.00
  -14    4    6      0.19      0.00
  -12    4    6      0.31      0.00
  -10    4    6      1.44      0.00
   -8    4    6      1.94      0.00
   -6    4    6      0.78      0.00
   -4    4    6     -1.14      0.00
   -2    4    6     -1.28      0.00
    0    4    6      0.96      0.00
    2    4    6      2.45      0.00
    4    4    6      0.98      0.00
    6    4    6     -1.40      0.00
    8    4    6     -2.29      0.00
   10    4    6     -2.09      0.00
   12    4    6     -1.63      0.00
   14    4    6     -0.66      0.00
   16    4    6      0.45      0.00
   18    4    6      0.53      0.00
   20    4    6     -0.23      0.00
   22    4    6     -0.48      0.00
   24    4    6     -0.07      0.00
   26    4    6     -0.38      0.00
   28    4    6     -1.53      0.00
   30    4    6     -1.66      0.00
   32    4    6     -0.20      0.00
  -33    5    6     -0.04      0.00
  -31    5    6     -0.30      0.00
  -29    5    6     -0.20      0.00
  -27    5    6      0.17      0.00
  -25    5    6      0.58      0.00
  -23    5    6      0.53      0.00
  -21    5    6     -0.49      0.00
  -19    5    6     -1.86      0.00
  -17    5    6     -2.17      0.00
  -15    5    6     -1.15      0.00
  -13    5    6      0.01      0.00
  -11    5    6      0.19      0.00
   -9    5    6     -0.35      0.00
   -7    5    6     -0.05      0.00
   -5    5    6      1.50      0.00
   -3    5    6      1.98      0.00
   -1    5    6     -0.21      0.00
    1    5    6     -2.55      0.00
    3    5    6     -2.15      0.00
    5    5    6     -0.26      0.00
    7    5    6      0.75      0.00
    9    5    6      1.13      0.00
   11    5    6      1.82      0.00
   13    5    6      2.14      0.00
   15    5    6      1.32      0.00
   17    5    6      0.08      0.00
   19    5    6     -0.33      0.00
   21    5    6      0.06      0.00
   23    5    6      0.16      0.00
   25    5    6      0.01      0.00
   27    5    6      0.57      0.00
   29    5    6      1.32      0.00
  -30    6    6      0.17      0.00
  -28    6    6      0.03      0.00
  -26    6    6     -0.29      0.00
  -24    6    6     -0.61      0.00
  -22    6    6     -0.34      0.00
  -20    6    6      0.66      0.00
  -18    6    6      1.55      0.00
  -16    6    6      1.32      0.00
  -14    6    6      0.09      0.00
  -12    6    6     -0.74      0.00
  -10    6    6     -0.21      0.00
   -8    6    6      0.46      0.00
   -6    6    6     -0.47      0.00
   -4    6    6     -1.79      0.00
   -2    6    6     -1.01      0.00
    0    6    6      0.88      0.00
    2    6    6      1.12      0.00
    4    6    6      0.19      0.00
    6    6    6      0.18      0.00
    8    6    6      0.59      0.00
   10    6    6     -0.12      0.00
   12    6    6     -1.39      0.00
   14    6    6     -1.71      0.00
   16    6    6     -0.85      0.00
   18    6    6      0.11      0.00
   20    6    6      0.17      0.00
   22    6    6     -0.17      0.00
   24    6    6     -0.04      0.00
   26    6    6      0.07      0.00
   28    6    6     -0.43      0.00
  -29    7    6     -0.09      0.00
  -27    7    6      0.19      0.00
  -25    7    6      0.50      0.00
  -23    7    6      0.41      0.00
  -21    7    6     -0.22      0.00
  -19    7    6     -0.84      0.00
  -17    7    6     -0.71      0.00
  -15    7    6      0.27      0.00
  -13    7    6      1.08      0.00
  -11    7    6      0.45      0.00
   -9    7    6     -0.92      0.00
   -7    7    6     -0.75      0.00
   -5    7    6      1.00      0.00
   -3    7    6      1.52      0.00
   -1    7    6      0.09      0.00
    1    7    6     -0.74      0.00
    3    7    6     -0.08      0.00
    5    7    6      0.16      0.00
    7    7    6     -0.45      0.00
    9    7    6     -0.50      0.00
   11    7    6      0.13      0.00
   13    7    6      0.49      0.00
   15    7    6      0.36      0.00
   17    7    6      0.10      0.00
   19    7    6     -0.01      0.00
   21    7    6      0.06      0.00
   23    7    6     -0.01      0.00
   25    7    6     -0.21      0.00
  -26    8    6     -0.66      0.00
  -24    8    6     -0.52      0.00
  -22    8    6      0.26      0.00
  -20    8    6      0.95      0.00
  -18    8    6      0.75      0.00
  -16    8    6     -0.36      0.00
  -14    8    6     -1.46      0.00
  -12    8    6     -1.29      0.00
  -10    8    6      0.22      0.00
   -8    8    6      1.15      0.00
   -6    8    6      0.15      0.00
   -4    8    6     -1.10      0.00
   -2    8    6     -0.56      0.00
    0    8    6      0.70      0.00
    2    8    6      0.82      0.00
    4    8    6      0.30      0.00
    6    8    6      0.13      0.00
    8    8    6     -0.05      0.00
   10    8    6     -0.29      0.00
   12    8    6      0.04      0.00
   14    8    6      0.51      0.00
   16    8    6      0.29      0.00
   18    8    6     -0.21      0.00
   20    8    6     -0.25      0.00
   22    8    6      0.06      0.00
  -21    9    6     -0.74      0.00
  -19    9    6     -1.09      0.00
  -17    9    6     -0.47      0.00
  -15    9    6      0.77      0.00
  -13    9    6      1.60      0.00
  -11    9    6      1.14      0.00
   -9    9    6     -0.15      0.00
   -7    9    6     -0.69      0.00
   -5    9    6     -0.13      0.00
   -3    9    6      0.18      0.00
   -1    9    6     -0.36      0.00
    1    9    6     -0.82      0.00
    3    9    6     -0.71      0.00
    5    9    6     -0.43      0.00
    7    9    6      0.01      0.00
    9    9    6      0.54      0.00
   11    9    6      0.41      0.00
   13    9    6     -0.34      0.00
   15    9    6     -0.52      0.00
   17    9    6      0.10      0.00
   19    9    6      0.43      0.00
  -16   10    6      0.40      0.00
  -14   10    6     -0.51      0.00
  -12   10    6     -1.11      0.00
  -10   10    6     -0.69      0.00
   -8   10    6      0.22      0.00
   -6   10    6      0.55      0.00
   -4   10    6      0.31      0.00
   -2   10    6      0.27      0.00
    0   10    6      0.50      0.00
    2   10    6      0.51      0.00
    4   10    6      0.27      0.00
    6   10    6     -0.04      0.00
    8   10    6     -0.40      0.00
   10   10    6     -0.54      0.00
   12   10    6     -0.19      0.00
  -35    1    7      0.35      0.00
  -33    1    7      0.19      0.00
  -31    1    7     -0.03      0.00
  -29    1    7      0.15      0.00
  -27    1    7      0.40      0.00
  -25    1    7      0.25      0.00
  -23    1    7      0.05      0.00
  -21    1    7      0.11      0.00
  -19    1    7      0.41      0.00
  -17    1    7      0.90      0.00
  -15    1    7      1.11      0.00
  -13    1    7      0.69      0.00
  -11    1    7      0.22      0.00
   -9    1    7      0.11      0.00
   -7    1    7      0.22      0.00
   -5    1    7      0.74      0.00
   -3    1    7      1.70      0.00
   -1    1    7      2.32      0.00
    1    1    7      2.25      0.00
    3    1    7      1.51      0.00
    5    1    7     -0.08      0.00
    7    1    7     -1.49      0.00
    9    1    7     -1.12      0.00
   11    1    7      0.16      0.00
   13    1    7      0.30      0.00
   15    1    7     -0.37      0.00
   17    1    7     -0.51      0.00
   19    1    7     -0.28      0.00
   21    1    7     -0.05      0.00
   23    1    7      0.34      0.00
   25    1    7      0.33      0.00
   27    1    7     -0.30      0.00
   29    1    7     -0.64      0.00
   31    1    7     -0.39      0.00
   33    1    7     -0.21      0.00
  -36    2    7     -0.43      0.00
  -34    2    7     -0.70      0.00
  -32    2    7     -0.22      0.00
  -30    2    7      0.06      0.00
  -28    2    7     -0.45      0.00
  -26    2    7     -0.74      0.00
  -24    2    7     -0.24      0.00
  -22    2    7      0.32      0.00
  -20    2    7      0.11      0.00
  -18    2    7     -1.00      0.00
  -16    2    7     -2.00      0.00
  -14    2    7     -1.27      0.00
  -12    2    7      0.79      0.00
  -10    2    7      1.95      0.00
   -8    2    7      1.20      0.00
   -6    2    7     -0.74      0.00
   -4    2    7     -2.56      0.00
   -2    2    7     -2.97      0.00
    0    2    7     -2.22      0.00
    2    2    7     -1.66      0.00
    4    2    7     -0.81      0.00
    6    2    7      1.07      0.00
    8    2    7      1.82      0.00
   10    2    7      0.33      0.00
   12    2    7     -0.65      0.00
   14    2    7      0.19      0.00
   16    2    7      0.77      0.00
   18    2    7      0.51      0.00
   20    2    7      0.52      0.00
   22    2    7      0.42      0.00
   24    2    7     -0.07      0.00
   26    2    7      0.03      0.00
   28    2    7      0.49      0.00
   30    2    7      0.34      0.00
   32    2    7      0.07      0.00
  -35    3    7      0.65      0.00
  -33    3    7      0.62      0.00
  -31    3    7     -0.06      0.00
  -29    3    7      0.05      0.00
  -27    3    7      0.77      0.00
  -25    3    7      0.61      0.00
  -23    3    7     -0.36      0.00
  -21    3    7     -0.70      0.00
  -19    3    7      0.33      0.00
  -17    3    7      1.80      0.00
  -15    3    7      1.64      0.00
  -13    3    7     -0.99      0.00
  -11    3    7     -3.83      0.00
   -9    3    7     -3.96      0.00
   -7    3    7     -1.20      0.00
   -5    3    7      1.81      0.00
   -3    3    7      2.33      0.00
   -1    3    7      0.70      0.00
    1    3    7      0.04      0.00
    3    3    7      0.93      0.00
    5    3    7      0.56      0.00
    7    3    7     -1.05      0.00
    9    3    7     -0.93      0.00
   11    3    7      0.34      0.00
   13    3    7      0.05      0.00
   15    3    7     -0.80      0.00
   17    3    7     -0.55      0.00
   19    3    7     -0.46      0.00
   21    3    7     -1.02      0.00
   23    3    7     -0.79      0.00
   25    3    7      0.00      0.00
   27    3    7      0.21      0.00
   29    3    7      0.22      0.00
   31    3    7      0.35      0.00
  -34    4    7     -0.30      0.00
  -32    4    7      0.03      0.00
  -30    4    7      0.14      0.00
  -28    4    7     -0.42      0.00
  -26    4    7     -0.51      0.00
  -24    4    7      0.31      0.00
  -22    4    7      0.63      0.00
  -20    4    7     -0.28      0.00
  -18    4    7     -1.33      0.00
  -16    4    7     -1.14      0.00
  -14    4    7      0.66      0.00
  -12    4    7      3.09      0.00
  -10    4    7      4.21      0.00
   -8    4    7      2.82      0.00
   -6    4    7      0.24      0.00
   -4    4    7     -0.58      0.00
   -2    4    7      0.99      0.00
    0    4    7      1.72      0.00
    2    4    7     -0.32      0.00
    4    4    7     -1.95      0.00
    6    4    7     -0.60      0.00
    8    4    7      0.92      0.00
   10    4    7      0.37      0.00
   12    4    7     -0.02      0.00
   14    4    7      0.81      0.00
   16    4    7      0.89      0.00
   18    4    7      0.28      0.00
   20    4    7      0.54      0.00
   22    4    7      0.83      0.00
   24    4    7     -0.03      0.00
   26    4    7     -0.90      0.00
   28    4    7     -0.90      0.00
   30    4    7     -0.58      0.00
  -31    5    7     -0.26      0.00
  -29    5    7      0.30      0.00
  -27    5    7      0.43      0.00
  -25    5    7     -0.43      0.00
  -23    5    7     -0.87      0.00
  -21    5    7      0.30      0.00
  -19    5    7      1.50      0.00
  -17    5    7      0.98      0.00
  -15    5    7     -0.57      0.00
  -13    5    7     -1.74      0.00
  -11    5    7     -2.27      0.00
   -9    5    7     -1.93      0.00
   -7    5    7     -0.71      0.00
   -5    5    7     -0.15      0.00
   -3    5    7     -1.47      0.00
   -1    5    7     -2.60      0.00
    1    5    7     -0.96      0.00
    3    5    7      1.64      0.00
    5    5    7      1.55      0.00
    7    5    7     -0.30      0.00
    9    5    7     -0.54      0.00
   11    5    7      0.23      0.00
   13    5    7     -0.40      0.00
   15    5    7     -1.37      0.00
   17    5    7     -0.87      0.00
   19    5    7     -0.12      0.00
   21    5    7     -0.14      0.00
   23    5    7      0.22      0.00
   25    5    7      1.17      0.00
   27    5    7      1.39      0.00
   29    5    7      0.74      0.00
  -30    6    7     -0.06      0.00
  -28    6    7     -0.53      0.00
  -26    6    7     -0.03      0.00
  -24    6    7      0.88      0.00
  -22    6    7      0.48      0.00
  -20    6    7     -0.86      0.00
  -18    6    7     -1.02      0.00
  -16    6    7      0.11      0.00
  -14    6    7      0.86      0.00
  -12    6    7      0.93      0.00
  -10    6    7      0.79      0.00
   -8    6    7      0.06      0.00
   -6    6    7     -0.78      0.00
   -4    6    7     -0.11      0.00
   -2    6    7      1.60      0.00
    0    6    7      1.78      0.00
    2    6    7      0.14      0.00
    4    6    7     -0.65      0.00
    6    6    7      0.26      0.00
    8    6    7      0.53      0.00
   10    6    7     -0.59      0.00
   12    6    7     -0.65      0.00
   14    6    7      0.96      0.00
   16    6    7      1.62      0.00
   18    6    7      0.60      0.00
   20    6    7     -0.16      0.00
   22    6    7     -0.20      0.00
   24    6    7     -0.61      0.00
   26    6    7     -1.05      0.00
  -27    7    7      0.52      0.00
  -25    7    7      0.03      0.00
  -23    7    7     -0.58      0.00
  -21    7    7     -0.33      0.00
  -19    7    7      0.11      0.00
  -17    7    7     -0.05      0.00
  -15    7    7     -0.28      0.00
  -13    7    7     -0.36      0.00
  -11    7    7     -0.58      0.00
   -9    7    7     -0.25      0.00
   -7    7    7      0.93      0.00
   -5    7    7      1.33      0.00
   -3    7    7      0.00      0.00
   -1    7    7     -1.29      0.00
    1    7    7     -1.03      0.00
    3    7    7     -0.32      0.00
    5    7    7     -0.59      0.00
    7    7    7     -0.93      0.00
    9    7    7     -0.02      0.00
   11    7    7      0.92      0.00
   13    7    7      0.07      0.00
   15    7    7     -1.34      0.00
   17    7    7     -1.14      0.00
   19    7    7     -0.09      0.00
   21    7    7      0.08      0.00
   23    7    7     -0.12      0.00
   25    7    7      0.09      0.00
  -24    8    7     -0.22      0.00
  -22    8    7      0.36      0.00
  -20    8    7      0.49      0.00
  -18    8    7      0.37      0.00
  -16    8    7      0.24      0.00
  -14    8    7      0.22      0.00
  -12    8    7      0.57      0.00
  -10    8    7      0.74      0.00
   -8    8    7     -0.01      0.00
   -6    8    7     -0.72      0.00
   -4    8    7     -0.11      0.00
   -2    8    7      0.92      0.00
    0    8    7      0.81      0.00
    2    8    7      0.00      0.00
    4    8    7     -0.09      0.00
    6    8    7      0.58      0.00
    8    8    7      0.77      0.00
   10    8    7      0.13      0.00
   12    8    7     -0.09      0.00
   14    8    7      0.58      0.00
   16    8    7      0.83      0.00
   18    8    7      0.16      0.00
   20    8    7     -0.20      0.00
  -19    9    7     -0.04      0.00
  -17    9    7      0.00      0.00
  -15    9    7     -0.20      0.00
  -13    9    7     -0.56      0.00
  -11    9    7     -0.81      0.00
   -9    9    7     -0.58      0.00
   -7    9    7     -0.20      0.00
   -5    9    7     -0.43      0.00
   -3    9    7     -0.94      0.00
   -1    9    7     -0.61      0.00
    1    9    7      0.39      0.00
    3    9    7      0.82      0.00
    5    9    7      0.34      0.00
    7    9    7     -0.28      0.00
    9    9    7     -0.48      0.00
   11    9    7     -0.41      0.00
   13    9    7     -0.40      0.00
   15    9    7     -0.26      0.00
   17    9    7      0.22      0.00
  -14   10    7      0.37      0.00
  -12   10    7      0.53      0.00
  -10   10    7      0.44      0.00
   -8   10    7      0.37      0.00
   -6   10    7      0.47      0.00
   -4   10    7      0.58      0.00
   -2   10    7      0.24      0.00
    0   10    7     -0.47      0.00
    2   10    7     -0.72      0.00
    4   10    7     -0.36      0.00
    6   10    7     -0.09      0.00
    8   10    7     -0.16      0.00
   10   10    7     -0.09      0.00
  -36    0    8     -0.50      0.00
  -34    0    8      0.16      0.00
  -32    0    8      1.28      0.00
  -30    0    8      0.92      0.00
  -28    0    8     -0.97      0.00
  -26    0    8     -1.80      0.00
  -24    0    8     -0.47      0.00
  -22    0    8      0.84      0.00
  -20    0    8      0.66      0.00
  -18    0    8      0.17      0.00
  -16    0    8      0.14      0.00
  -14    0    8     -0.28      0.00
  -12    0    8     -0.78      0.00
  -10    0    8      0.53      0.00
   -8    0    8      3.44      0.00
   -6    0    8      4.93      0.00
   -4    0    8      3.50      0.00
   -2    0    8      1.08      0.00
    0    0    8     -0.62      0.00
    2    0    8     -2.06      0.00
    4    0    8     -3.35      0.00
    6    0    8     -3.50      0.00
    8    0    8     -2.61      0.00
   10    0    8     -1.29      0.00
   12    0    8      0.46      0.00
   14    0    8      1.89      0.00
   16    0    8      1.59      0.00
   18    0    8      0.12      0.00
   20    0    8     -0.62      0.00
   22    0    8     -0.60      0.00
   24    0    8     -0.83      0.00
   26    0    8     -0.90      0.00
   28    0    8     -0.24      0.00
   30    0    8      0.21      0.00
   32    0    8     -0.04      0.00
  -35    1    8      0.18      0.00
  -33    1    8     -0.76      0.00
  -31    1    8     -1.25      0.00
  -29    1    8     -0.01      0.00
  -27    1    8      1.52      0.00
  -25    1    8      1.08      0.00
  -23    1    8     -0.62      0.00
  -21    1    8     -1.11      0.00
  -19    1    8     -0.35      0.00
  -17    1    8     -0.01      0.00
  -15    1    8      0.02      0.00
  -13    1    8      0.61      0.00
  -11    1    8      0.51      0.00
   -9    1    8     -1.54      0.00
   -7    1    8     -3.65      0.00
   -5    1    8     -3.30      0.00
   -3    1    8     -1.30      0.00
   -1    1    8      0.10      0.00
    1    1    8      0.83      0.00
    3    1    8      1.80      0.00
    5    1    8      2.52      0.00
    7    1    8      2.39      0.00
    9    1    8      1.72      0.00
   11    1    8      0.55      0.00
   13    1    8     -0.97      0.00
   15    1    8     -1.53      0.00
   17    1    8     -0.45      0.00
   19    1    8      0.78      0.00
   21    1    8      0.88      0.00
   23    1    8      0.56      0.00
   25    1    8      0.54      0.00
   27    1    8      0.38      0.00
   29    1    8      0.10      0.00
   31    1    8      0.23      0.00
  -34    2    8      0.38      0.00
  -32    2    8      1.03      0.00
  -30    2    8      0.61      0.00
  -28    2    8     -0.77      0.00
  -26    2    8     -1.05      0.00
  -24    2    8      0.60      0.00
  -22    2    8      1.82      0.00
  -20    2    8      0.86      0.00
  -18    2    8     -0.36      0.00
  -16    2    8     -0.08      0.00
  -14    2    8      0.18      0.00
  -12    2    8     -0.52      0.00
  -10    2    8     -0.41      0.00
   -8    2    8      0.97      0.00
   -6    2    8      1.53      0.00
   -4    2    8      0.69      0.00
   -2    2    8     -0.01      0.00
    0    2    8     -0.06      0.00
    2    2    8     -0.24      0.00
    4    2    8     -0.56      0.00
    6    2    8     -0.64      0.00
    8    2    8     -0.64      0.00
   10    2    8     -0.55      0.00
   12    2    8      0.03      0.00
   14    2    8      0.71      0.00
   16    2    8      0.44      0.00
   18    2    8     -0.73      0.00
   20    2    8     -1.41      0.00
   22    2    8     -0.86      0.00
   24    2    8     -0.04      0.00
   26    2    8      0.11      0.00
   28    2    8     -0.27      0.00
   30    2    8     -0.70      0.00
  -33    3    8     -0.79      0.00
  -31    3    8     -0.77      0.00
  -29    3    8      0.25      0.00
  -27    3    8      0.86      0.00
  -25    3    8     -0.52      0.00
  -23    3    8     -2.49      0.00
  -21    3    8     -1.92      0.00
  -19    3    8      0.48      0.00
  -17    3    8      0.86      0.00
  -15    3    8     -0.81      0.00
  -13    3    8     -1.03      0.00
  -11    3    8      0.52      0.00
   -9    3    8      1.17      0.00
   -7    3    8      0.37      0.00
   -5    3    8     -0.57      0.00
   -3    3    8     -1.02      0.00
   -1    3    8     -0.70      0.00
    1    3    8      0.22      0.00
    3    3    8      0.55      0.00
    5    3    8     -0.24      0.00
    7    3    8     -1.08      0.00
    9    3    8     -1.03      0.00
   11    3    8     -0.49      0.00
   13    3    8     -0.27      0.00
   15    3    8     -0.41      0.00
   17    3    8     -0.10      0.00
   19    3    8      0.82      0.00
   21    3    8      1.15      0.00
   23    3    8      0.36      0.00
   25    3    8     -0.30      0.00
   27    3    8      0.07      0.00
   29    3    8      0.79      0.00
   31    3    8      0.97      0.00
  -32    4    8      0.63      0.00
  -30    4    8     -0.02      0.00
  -28    4    8     -0.79      0.00
  -26    4    8     -0.03      0.00
  -24    4    8      2.16      0.00
  -22    4    8      2.78      0.00
  -20    4    8      0.42      0.00
  -18    4    8     -1.47      0.00
  -16    4    8     -0.04      0.00
  -14    4    8      1.92      0.00
  -12    4    8      1.17      0.00
  -10    4    8     -0.76      0.00
   -8    4    8     -1.03      0.00
   -6    4    8      0.45      0.00
   -4    4    8      1.95      0.00
   -2    4    8      1.78      0.00
    0    4    8     -0.09      0.00
    2    4    8     -1.42      0.00
    4    4    8     -0.59      0.00
    6    4    8      1.25      0.00
    8    4    8      2.19      0.00
   10    4    8      1.72      0.00
   12    4    8      0.72      0.00
   14    4    8      0.38      0.00
   16    4    8      0.69      0.00
   18    4    8      0.44      0.00
   20    4    8     -0.41      0.00
   22    4    8     -0.57      0.00
   24    4    8      0.01      0.00
   26    4    8      0.08      0.00
   28    4    8     -0.47      0.00
  -31    5    8      0.12      0.00
  -29    5    8      0.59      0.00
  -27    5    8      0.43      0.00
  -25    5    8     -0.85      0.00
  -23    5    8     -1.99      0.00
  -21    5    8     -1.17      0.00
  -19    5    8      0.67      0.00
  -17    5    8      0.74      0.00
  -15    5    8     -0.88      0.00
  -13    5    8     -1.53      0.00
  -11    5    8     -0.62      0.00
   -9    5    8      0.00      0.00
   -7    5    8     -0.66      0.00
   -5    5    8     -1.68      0.00
   -3    5    8     -1.56      0.00
   -1    5    8      0.00      0.00
    1    5    8      1.37      0.00
    3    5    8      1.02      0.00
    5    5    8     -0.40      0.00
    7    5    8     -1.49      0.00
    9    5    8     -1.76      0.00
   11    5    8     -1.24      0.00
   13    5    8     -0.52      0.00
   15    5    8     -0.42      0.00
   17    5    8     -0.59      0.00
   19    5    8     -0.20      0.00
   21    5    8      0.28      0.00
   23    5    8      0.13      0.00
   25    5    8     -0.15      0.00
   27    5    8     -0.04      0.00
  -28    6    8     -0.24      0.00
  -26    6    8      0.20      0.00
  -24    6    8      0.49      0.00
  -22    6    8      0.37      0.00
  -20    6    8     -0.02      0.00
  -18    6    8     -0.09      0.00
  -16    6    8      0.30      0.00
  -14    6    8      0.54      0.00
  -12    6    8      0.38      0.00
  -10    6    8      0.33      0.00
   -8    6    8      0.69      0.00
   -6    6    8      1.02      0.00
   -4    6    8      0.63      0.00
   -2    6    8     -0.46      0.00
    0    6    8     -1.17      0.00
    2    6    8     -0.78      0.00
    4    6    8     -0.10      0.00
    6    6    8      0.09      0.00
    8    6    8      0.33      0.00
   10    6    8      0.78      0.00
   12    6    8      0.75      0.00
   14    6    8      0.25      0.00
   16    6    8     -0.07      0.00
   18    6    8     -0.17      0.00
   20    6    8     -0.25      0.00
   22    6    8     -0.17      0.00
   24    6    8      0.03      0.00
   26    6    8      0.19      0.00
  -27    7    8     -0.38      0.00
  -25    7    8     -0.22      0.00
  -23    7    8      0.31      0.00
  -21    7    8      0.31      0.00
  -19    7    8     -0.27      0.00
  -17    7    8     -0.57      0.00
  -15    7    8     -0.28      0.00
  -13    7    8      0.12      0.00
  -11    7    8      0.30      0.00
   -9    7    8      0.28      0.00
   -7    7    8      0.10      0.00
   -5    7    8      0.08      0.00
   -3    7    8      0.53      0.00
   -1    7    8      0.99      0.00
    1    7    8      0.78      0.00
    3    7    8      0.39      0.00
    5    7    8      0.61      0.00
    7    7    8      0.93      0.00
    9    7    8      0.47      0.00
   11    7    8     -0.34      0.00
   13    7    8     -0.48      0.00
   15    7    8      0.01      0.00
   17    7    8      0.38      0.00
   19    7    8      0.32      0.00
   21    7    8      0.15      0.00
   23    7    8      0.16      0.00
  -22    8    8     -0.14      0.00
  -20    8    8      0.22      0.00
  -18    8    8      0.45      0.00
  -16    8    8      0.22      0.00
  -14    8    8      0.07      0.00
  -12    8    8     -0.02      0.00
  -10    8    8     -0.47      0.00
   -8    8    8     -0.88      0.00
   -6    8    8     -0.71      0.00
   -4    8    8     -0.47      0.00
   -2    8    8     -0.70      0.00
    0    8    8     -0.94      0.00
    2    8    8     -0.73      0.00
    4    8    8     -0.44      0.00
    6    8    8     -0.57      0.00
    8    8    8     -0.83      0.00
   10    8    8     -0.57      0.00
   12    8    8      0.10      0.00
   14    8    8      0.42      0.00
   16    8    8      0.25      0.00
   18    8    8      0.14      0.00
   20    8    8      0.19      0.00
  -19    9    8     -0.36      0.00
  -17    9    8     -0.01      0.00
  -15    9    8      0.01      0.00
  -13    9    8     -0.47      0.00
  -11    9    8     -0.47      0.00
   -9    9    8      0.18      0.00
   -7    9    8      0.51      0.00
   -5    9    8      0.39      0.00
   -3    9    8      0.58      0.00
   -1    9    8      1.07      0.00
    1    9    8      1.06      0.00
    3    9    8      0.22      0.00
    5    9    8     -0.62      0.00
    7    9    8     -0.44      0.00
    9    9    8      0.39      0.00
   11    9    8      0.54      0.00
   13    9    8     -0.12      0.00
   15    9    8     -0.58      0.00
  -10   10    8      0.60      0.00
   -8   10    8      0.24      0.00
   -6   10    8      0.11      0.00
   -4   10    8     -0.20      0.00
   -2   10    8     -0.78      0.00
    0   10    8     -0.97      0.00
    2   10    8     -0.30      0.00
    4   10    8      0.85      0.00
    6   10    8      1.38      0.00
    8   10    8      0.70      0.00
  -35    1    9      0.14      0.00
  -33    1    9      0.33      0.00
  -31    1    9      0.39      0.00
  -29    1    9     -0.05      0.00
  -27    1    9     -0.44      0.00
  -25    1    9     -0.24      0.00
  -23    1    9      0.17      0.00
  -21    1    9      0.44      0.00
  -19    1    9      0.57      0.00
  -17    1    9      0.45      0.00
  -15    1    9      0.24      0.00
  -13    1    9      0.21      0.00
  -11    1    9      0.04      0.00
   -9    1    9     -0.41      0.00
   -7    1    9     -0.60      0.00
   -5    1    9     -0.45      0.00
   -3    1    9     -0.59      0.00
   -1    1    9     -1.32      0.00
    1    1    9     -2.00      0.00
    3    1    9     -1.57      0.00
    5    1    9     -0.04      0.00
    7    1    9      0.74      0.00
    9    1    9     -0.22      0.00
   11    1    9     -1.03      0.00
   13    1    9     -0.09      0.00
   15    1    9      1.07      0.00
   17    1    9      0.87      0.00
   19    1    9      0.20      0.00
   21    1    9      0.06      0.00
   23    1    9      0.00      0.00
   25    1    9     -0.31      0.00
   27    1    9     -0.40      0.00
   29    1    9     -0.04      0.00
  -34    2    9     -0.18      0.00
  -32    2    9     -0.37      0.00
  -30    2    9     -0.18      0.00
  -28    2    9      0.40      0.00
  -26    2    9      0.45      0.00
  -24    2    9     -0.09      0.00
  -22    2    9     -0.57      0.00
  -20    2    9     -0.78      0.00
  -18    2    9     -0.60      0.00
  -16    2    9     -0.16      0.00
  -14    2    9     -0.08      0.00
  -12    2    9     -0.32      0.00
  -10    2    9     -0.15      0.00
   -8    2    9      0.36      0.00
   -6    2    9      0.72      0.00
   -4    2    9      1.09      0.00
   -2    2    9      1.77      0.00
    0    2    9      2.58      0.00
    2    2    9      2.56      0.00
    4    2    9      0.75      0.00
    6    2    9     -1.29      0.00
    8    2    9     -0.71      0.00
   10    2    9      1.36      0.00
   12    2    9      1.14      0.00
   14    2    9     -1.00      0.00
   16    2    9     -1.51      0.00
   18    2    9     -0.21      0.00
   20    2    9      0.48      0.00
   22    2    9      0.22      0.00
   24    2    9      0.12      0.00
   26    2    9      0.27      0.00
   28    2    9      0.16      0.00
   30    2    9     -0.26      0.00
  -33    3    9     -0.10      0.00
  -31    3    9      0.03      0.00
  -29    3    9     -0.20      0.00
  -27    3    9     -0.40      0.00
  -25    3    9     -0.04      0.00
  -23    3    9      0.54      0.00
  -21    3    9      0.73      0.00
  -19    3    9      0.36      0.00
  -17    3    9     -0.25      0.00
  -15    3    9     -0.24      0.00
  -13    3    9      0.53      0.00
  -11    3    9      0.97      0.00
   -9    3    9      0.45      0.00
   -7    3    9     -0.56      0.00
   -5    3    9     -1.33      0.00
   -3    3    9     -1.45      0.00
   -1    3    9     -1.36      0.00
    1    3    9     -1.70      0.00
    3    3    9     -1.35      0.00
    5    3    9      0.53      0.00
    7    3    9      1.43      0.00
    9    3    9     -0.28      0.00
   11    3    9     -1.46      0.00
   13    3    9      0.07      0.00
   15    3    9      1.38      0.00
   17    3    9      0.38      0.00
   19    3    9     -0.93      0.00
   21    3    9     -0.92      0.00
   23    3    9     -0.32      0.00
   25    3    9      0.04      0.00
   27    3    9      0.11      0.00
   29    3    9      0.10      0.00
  -32    4    9      0.29      0.00
  -30    4    9      0.21      0.00
  -28    4    9      0.40      0.00
  -26    4    9      0.32      0.00
  -24    4    9     -0.28      0.00
  -22    4    9     -0.75      0.00
  -20    4    9     -0.29      0.00
  -18    4    9      0.73      0.00
  -16    4    9      0.81      0.00
  -14    4    9     -0.53      0.00
  -12    4    9     -1.75      0.00
  -10    4    9     -1.43      0.00
   -8    4    9      0.09      0.00
   -6    4    9      1.42      0.00
   -4    4    9      1.14      0.00
   -2    4    9     -0.42      0.00
    0    4    9     -0.78      0.00
    2    4    9      0.65      0.00
    4    4    9      1.03      0.00
    6    4    9     -0.39      0.00
    8    4    9     -0.74      0.00
   10    4    9      0.36      0.00
   12    4    9      0.34      0.00
   14    4    9     -0.63      0.00
   16    4    9     -0.50      0.00
   18    4    9      0.46      0.00
   20    4    9      0.88      0.00
   22    4    9      0.71      0.00
   24    4    9      0.27      0.00
   26    4    9     -0.15      0.00
   28    4    9     -0.15      0.00
  -29    5    9     -0.38      0.00
  -27    5    9     -0.66      0.00
  -25    5    9     -0.31      0.00
  -23    5    9      0.51      0.00
  -21    5    9      0.57      0.00
  -19    5    9     -0.59      0.00
  -17    5    9     -1.33      0.00
  -15    5    9     -0.20      0.00
  -13    5    9      1.67      0.00
  -11    5    9      2.21      0.00
   -9    5    9      1.05      0.00
   -7    5    9     -0.66      0.00
   -5    5    9     -1.12      0.00
   -3    5    9      0.51      0.00
   -1    5    9      2.06      0.00
    1    5    9      0.96      0.00
    3    5    9     -1.17      0.00
    5    5    9     -1.07      0.00
    7    5    9      0.40      0.00
    9    5    9      0.72      0.00
   11    5    9      0.26      0.00
   13    5    9      0.26      0.00
   15    5    9      0.34      0.00
   17    5    9      0.16      0.00
   19    5    9     -0.07      0.00
   21    5    9     -0.38      0.00
   23    5    9     -0.54      0.00
   25    5    9     -0.18      0.00
  -28    6    9      0.57      0.00
  -26    6    9      0.65      0.00
  -24    6    9      0.01      0.00
  -22    6    9     -0.49      0.00
  -20    6    9      0.17      0.00
  -18    6    9      1.22      0.00
  -16    6    9      0.94      0.00
  -14    6    9     -0.59      0.00
  -12    6    9     -1.75      0.00
  -10    6    9     -1.74      0.00
   -8    6    9     -0.85      0.00
   -6    6    9      0.16      0.00
   -4    6    9      0.17      0.00
   -2    6    9     -0.78      0.00
    0    6    9     -0.90      0.00
    2    6    9      0.29      0.00
    4    6    9      0.91      0.00
    6    6    9      0.11      0.00
    8    6    9     -0.71      0.00
   10    6    9     -0.77      0.00
   12    6    9     -0.61      0.00
   14    6    9     -0.53      0.00
   16    6    9     -0.44      0.00
   18    6    9     -0.35      0.00
   20    6    9     -0.05      0.00
   22    6    9      0.36      0.00
   24    6    9      0.34      0.00
  -25    7    9     -0.15      0.00
  -23    7    9      0.21      0.00
  -21    7    9     -0.15      0.00
  -19    7    9     -0.98      0.00
  -17    7    9     -1.07      0.00
  -15    7    9     -0.15      0.00
  -13    7    9      0.77      0.00
  -11    7    9      1.14      0.00
   -9    7    9      1.18      0.00
   -7    7    9      0.85      0.00
   -5    7    9      0.18      0.00
   -3    7    9     -0.28      0.00
   -1    7    9     -0.32      0.00
    1    7    9     -0.20      0.00
    3    7    9     -0.05      0.00
    5    7    9      0.12      0.00
    7    7    9      0.21      0.00
    9    7    9      0.38      0.00
   11    7    9      0.76      0.00
   13    7    9      0.99      0.00
   15    7    9      0.81      0.00
   17    7    9      0.39      0.00
   19    7    9     -0.02      0.00
   21    7    9     -0.30      0.00
  -22    8    9      0.06      0.00
  -20    8    9      0.72      0.00
  -18    8    9      0.93      0.00
  -16    8    9      0.36      0.00
  -14    8    9     -0.30      0.00
  -12    8    9     -0.52      0.00
  -10    8    9     -0.58      0.00
   -8    8    9     -0.68      0.00
   -6    8    9     -0.52      0.00
   -4    8    9     -0.01      0.00
   -2    8    9      0.39      0.00
    0    8    9      0.21      0.00
    2    8    9     -0.39      0.00
    4    8    9     -0.55      0.00
    6    8    9     -0.03      0.00
    8    8    9      0.32      0.00
   10    8    9     -0.11      0.00
   12    8    9     -0.74      0.00
   14    8    9     -0.85      0.00
   16    8    9     -0.45      0.00
   18    8    9      0.06      0.00
  -17    9    9     -0.27      0.00
  -15    9    9     -0.01      0.00
  -13    9    9      0.17      0.00
  -11    9    9      0.28      0.00
   -9    9    9      0.40      0.00
   -7    9    9      0.45      0.00
   -5    9    9      0.30      0.00
   -3    9    9      0.11      0.00
   -1    9    9      0.19      0.00
    1    9    9      0.59      0.00
    3    9    9      0.77      0.00
    5    9    9      0.31      0.00
    7    9    9     -0.32      0.00
    9    9    9     -0.39      0.00
   11    9    9     -0.06      0.00
   -6   10    9     -0.38      0.00
   -4   10    9     -0.23      0.00
   -2   10    9     -0.24      0.00
    0   10    9     -0.42      0.00
    2   10    9     -0.56      0.00
  -34    0   10      1.03      0.00
  -32    0   10      0.12      0.00
  -30    0   10     -1.21      0.00
  -26    0   10     -0.34      0.00
  -24    0   10      0.46      0.00
  -22    0   10      0.49      0.00
  -20    0   10     -0.69      0.00
  -18    0   10     -1.64      0.00
  -16    0   10     -0.21      0.00
  -14    0   10      1.84      0.00
  -12    0   10      0.94      0.00
  -10    0   10     -1.61      0.00
   -8    0   10     -1.58      0.00
   -6    0   10      0.87      0.00
   -4    0   10      1.59      0.00
   -2    0   10     -0.52      0.00
    0    0   10     -1.38      0.00
    2    0   10      1.40      0.00
    4    0   10      3.40      0.00
    6    0   10      0.95      0.00
    8    0   10     -1.38      0.00
   10    0   10      0.90      0.00
   12    0   10      3.48      0.00
   14    0   10      2.02      0.00
   16    0   10     -0.14      0.00
   18    0   10      0.15      0.00
   20    0   10      0.59      0.00
   22    0   10     -0.25      0.00
   24    0   10     -0.70      0.00
   26    0   10     -0.16      0.00
   28    0   10      0.36      0.00
  -33    1   10     -0.56      0.00
  -31    1   10      0.43      0.00
  -29    1   10      1.03      0.00
  -27    1   10      0.60      0.00
  -25    1   10     -0.09      0.00
  -23    1   10     -0.47      0.00
  -21    1   10     -0.02      0.00
  -19    1   10      1.16      0.00
  -17    1   10      1.10      0.00
  -15    1   10     -0.84      0.00
  -13    1   10     -1.59      0.00
  -11    1   10      0.49      0.00
   -9    1   10      2.20      0.00
   -7    1   10      0.83      0.00
   -5    1   10     -1.35      0.00
   -3    1   10     -0.92      0.00
   -1    1   10      0.92      0.00
    1    1   10      0.31      0.00
    3    1   10     -2.09      0.00
    5    1   10     -1.71      0.00
    7    1   10      0.98      0.00
    9    1   10      0.69      0.00
   11    1   10     -2.26      0.00
   13    1   10     -2.53      0.00
   15    1   10     -0.22      0.00
   17    1   10      0.36      0.00
   19    1   10     -0.68      0.00
   21    1   10     -0.58      0.00
   23    1   10      0.32      0.00
   25    1   10      0.45      0.00
   27    1   10      0.03      0.00
   29    1   10     -0.22      0.00
  -32    2   10      0.07      0.00
  -30    2   10     -0.22      0.00
  -28    2   10     -0.22      0.00
  -26    2   10     -0.07      0.00
  -24    2   10      0.06      0.00
  -22    2   10      0.21      0.00
  -20    2   10     -0.06      0.00
  -18    2   10     -0.55      0.00
  -16    2   10     -0.08      0.00
  -14    2   10      0.95      0.00
  -12    2   10      0.45      0.00
  -10    2   10     -1.45      0.00
   -8    2   10     -1.98      0.00
   -6    2   10     -0.23      0.00
   -4    2   10      1.20      0.00
   -2    2   10      0.42      0.00
    0    2   10     -0.66      0.00
    2    2   10     -0.03      0.00
    4    2   10      0.54      0.00
    6    2   10     -0.66      0.00
    8    2   10     -1.23      0.00
   10    2   10      0.51      0.00
   12    2   10      1.58      0.00
   14    2   10      0.21      0.00
   16    2   10     -0.79      0.00
   18    2   10      0.21      0.00
   20    2   10      1.06      0.00
   22    2   10      0.52      0.00
   24    2   10     -0.18      0.00
   26    2   10     -0.28      0.00
   28    2   10     -0.11      0.00
  -31    3   10     -0.05      0.00
  -29    3   10     -0.23      0.00
  -27    3   10     -0.18      0.00
  -25    3   10      0.14      0.00
  -23    3   10      0.10      0.00
  -21    3   10     -0.53      0.00
  -19    3   10     -0.89      0.00
  -17    3   10     -0.52      0.00
  -15    3   10     -0.30      0.00
  -13    3   10     -0.47      0.00
  -11    3   10     -0.06      0.00
   -9    3   10      0.88      0.00
   -7    3   10      0.90      0.00
   -5    3   10     -0.06      0.00
   -3    3   10     -0.37      0.00
   -1    3   10      0.32      0.00
    1    3   10      0.68      0.00
    3    3   10      0.43      0.00
    5    3   10      0.54      0.00
    7    3   10      0.81      0.00
    9    3   10      0.27      0.00
   11    3   10     -0.39      0.00
   13    3   10      0.02      0.00
   15    3   10      0.64      0.00
   17    3   10      0.17      0.00
   19    3   10     -0.63      0.00
   21    3   10     -0.54      0.00
   23    3   10     -0.02      0.00
   25    3   10      0.08      0.00
   27    3   10     -0.10      0.00
  -30    4   10      0.10      0.00
  -28    4   10      0.24      0.00
  -26    4   10     -0.02      0.00
  -24    4   10     -0.33      0.00
  -22    4   10      0.20      0.00
  -20    4   10      1.31      0.00
  -18    4   10      1.49      0.00
  -16    4   10      0.61      0.00
  -14    4   10      0.34      0.00
  -12    4   10      1.00      0.00
  -10    4   10      1.09      0.00
   -8    4   10      0.16      0.00
   -6    4   10     -0.74      0.00
   -4    4   10     -0.99      0.00
   -2    4   10     -0.73      0.00
    0    4   10     -0.24      0.00
    2    4   10      0.00      0.00
    4    4   10     -0.15      0.00
    6    4   10     -0.26      0.00
    8    4   10     -0.14      0.00
   10    4   10     -0.09      0.00
   12    4   10     -0.20      0.00
   14    4   10     -0.16      0.00
   16    4   10      0.15      0.00
   18    4   10      0.44      0.00
   20    4   10      0.25      0.00
   22    4   10     -0.23      0.00
   24    4   10     -0.25      0.00
   26    4   10      0.24      0.00
  -29    5   10      0.06      0.00
  -27    5   10      0.11      0.00
  -25    5   10      0.35      0.00
  -23    5   10      0.27      0.00
  -21    5   10     -0.53      0.00
  -19    5   10     -1.15      0.00
  -17    5   10     -0.69      0.00
  -15    5   10     -0.24      0.00
  -13    5   10     -1.04      0.00
  -11    5   10     -2.01      0.00
   -9    5   10     -1.48      0.00
   -7    5   10      0.37      0.00
   -5    5   10      1.96      0.00
   -3    5   10      1.89      0.00
   -1    5   10      0.30      0.00
    1    5   10     -0.95      0.00
    3    5   10     -0.69      0.00
    5    5   10     -0.01      0.00
    7    5   10      0.06      0.00
    9    5   10      0.04      0.00
   11    5   10      0.16      0.00
   13    5   10     -0.06      0.00
   15    5   10     -0.45      0.00
   17    5   10     -0.61      0.00
   19    5   10     -0.50      0.00
   21    5   10     -0.08      0.00
   23    5   10      0.36      0.00
  -26    6   10     -0.43      0.00
  -24    6   10     -0.48      0.00
  -22    6   10     -0.21      0.00
  -20    6   10      0.16      0.00
  -18    6   10      0.03      0.00
  -16    6   10     -0.28      0.00
  -14    6   10      0.22      0.00
  -12    6   10      1.31      0.00
  -10    6   10      1.60      0.00
   -8    6   10      0.49      0.00
   -6    6   10     -1.30      0.00
   -4    6   10     -2.24      0.00
   -2    6   10     -1.22      0.00
    0    6   10      0.60      0.00
    2    6   10      1.04      0.00
    4    6   10      0.20      0.00
    6    6   10     -0.18      0.00
    8    6   10      0.01      0.00
   10    6   10      0.01      0.00
   12    6   10      0.07      0.00
   14    6   10      0.35      0.00
   16    6   10      0.47      0.00
   18    6   10      0.57      0.00
   20    6   10      0.64      0.00
   22    6   10      0.23      0.00
  -23    7   10      0.39      0.00
  -21    7   10      0.31      0.00
  -19    7   10      0.44      0.00
  -17    7   10      0.68      0.00
  -15    7   10      0.53      0.00
  -13    7   10     -0.10      0.00
  -11    7   10     -0.65      0.00
   -9    7   10     -0.64      0.00
   -7    7   10      0.02      0.00
   -5    7   10      0.95      0.00
   -3    7   10      1.25      0.00
   -1    7   10      0.49      0.00
    1    7   10     -0.19      0.00
    3    7   10      0.08      0.00
    5    7   10      0.41      0.00
    7    7   10      0.09      0.00
    9    7   10     -0.20      0.00
   11    7   10     -0.19      0.00
   13    7   10     -0.28      0.00
   15    7   10     -0.34      0.00
   17    7   10     -0.26      0.00
   19    7   10     -0.39      0.00
  -20    8   10     -0.33      0.00
  -18    8   10     -0.58      0.00
  -16    8   10     -0.57      0.00
  -14    8   10     -0.24      0.00
  -12    8   10      0.16      0.00
  -10    8   10      0.41      0.00
   -8    8   10      0.42      0.00
   -6    8   10      0.20      0.00
   -4    8   10     -0.18      0.00
   -2    8   10     -0.39      0.00
    0    8   10     -0.39      0.00
    2    8   10     -0.56      0.00
    4    8   10     -0.83      0.00
    6    8   10     -0.57      0.00
    8    8   10      0.07      0.00
   10    8   10      0.40      0.00
   12    8   10      0.43      0.00
   14    8   10      0.44      0.00
  -13    9   10     -0.37      0.00
  -11    9   10     -0.59      0.00
   -9    9   10     -0.52      0.00
   -7    9   10     -0.35      0.00
   -5    9   10     -0.30      0.00
   -3    9   10     -0.23      0.00
   -1    9   10      0.01      0.00
    1    9   10      0.38      0.00
    3    9   10      0.83      0.00
    5    9   10      1.00      0.00
    7    9   10      0.46      0.00
    9    9   10     -0.31      0.00
  -31    1   11      0.28      0.00
  -29    1   11      0.04      0.00
  -27    1   11     -0.19      0.00
  -25    1   11      0.18      0.00
  -23    1   11      1.00      0.00
  -21    1   11      1.06      0.00
  -19    1   11     -0.29      0.00
  -17    1   11     -1.46      0.00
  -15    1   11     -0.83      0.00
  -13    1   11      0.35      0.00
  -11    1   11      0.08      0.00
   -9    1   11     -1.04      0.00
   -7    1   11     -1.07      0.00
   -5    1   11     -0.03      0.00
   -3    1   11      0.35      0.00
   -1    1   11     -0.47      0.00
    1    1   11     -1.04      0.00
    3    1   11     -0.33      0.00
    5    1   11      0.49      0.00
    7    1   11      0.14      0.00
    9    1   11     -0.63      0.00
   11    1   11     -0.68      0.00
   13    1   11     -0.37      0.00
   15    1   11     -0.24      0.00
   17    1   11     -0.06      0.00
   19    1   11      0.14      0.00
   21    1   11      0.07      0.00
   23    1   11      0.02      0.00
   25    1   11      0.25      0.00
   27    1   11      0.35      0.00
  -32    2   11     -0.40      0.00
  -30    2   11     -0.36      0.00
  -28    2   11      0.20      0.00
  -26    2   11      0.29      0.00
  -24    2   11     -0.70      0.00
  -22    2   11     -1.63      0.00
  -20    2   11     -0.57      0.00
  -18    2   11      1.68      0.00
  -16    2   11      1.81      0.00
  -14    2   11     -0.57      0.00
  -12    2   11     -1.71      0.00
  -10    2   11      0.14      0.00
   -8    2   11      2.06      0.00
   -6    2   11      1.38      0.00
   -4    2   11     -0.32      0.00
   -2    2   11     -0.32      0.00
    0    2   11      0.93      0.00
    2    2   11      0.96      0.00
    4    2   11     -0.24      0.00
    6    2   11     -0.44      0.00
    8    2   11      0.56      0.00
   10    2   11      0.95      0.00
   12    2   11      0.55      0.00
   14    2   11      0.50      0.00
   16    2   11      0.60      0.00
   18    2   11      0.20      0.00
   20    2   11     -0.19      0.00
   22    2   11     -0.29      0.00
   24    2   11     -0.50      0.00
   26    2   11     -0.65      0.00
  -31    3   11      0.45      0.00
  -29    3   11      0.05      0.00
  -27    3   11     -0.50      0.00
  -25    3   11     -0.23      0.00
  -23    3   11      0.78      0.00
  -21    3   11      0.90      0.00
  -19    3   11     -0.69      0.00
  -17    3   11     -1.70      0.00
  -15    3   11      0.11      0.00
  -13    3   11      2.57      0.00
  -11    3   11      1.92      0.00
   -9    3   11     -1.08      0.00
   -7    3   11     -2.31      0.00
   -5    3   11     -0.75      0.00
   -3    3   11      0.52      0.00
   -1    3   11     -0.26      0.00
    1    3   11     -1.08      0.00
    3    3   11     -0.33      0.00
    5    3   11      0.39      0.00
    7    3   11     -0.21      0.00
    9    3   11     -0.77      0.00
   11    3   11     -0.40      0.00
   13    3   11     -0.29      0.00
   15    3   11     -0.78      0.00
   17    3   11     -0.77      0.00
   19    3   11     -0.16      0.00
   21    3   11      0.24      0.00
   23    3   11      0.49      0.00
   25    3   11      0.78      0.00
  -28    4   11      0.33      0.00
  -26    4   11      0.55      0.00
  -24    4   11      0.28      0.00
  -22    4   11     -0.10      0.00
  -20    4   11      0.09      0.00
  -18    4   11      0.62      0.00
  -16    4   11      0.11      0.00
  -14    4   11     -1.55      0.00
  -12    4   11     -2.09      0.00
  -10    4   11     -0.27      0.00
   -8    4   11      1.61      0.00
   -6    4   11      1.24      0.00
   -4    4   11      0.05      0.00
   -2    4   11      0.34      0.00
    0    4   11      1.25      0.00
    2    4   11      0.80      0.00
    4    4   11     -0.27      0.00
    6    4   11     -0.18      0.00
    8    4   11      0.54      0.00
   10    4   11      0.46      0.00
   12    4   11      0.06      0.00
   14    4   11      0.29      0.00
   16    4   11      0.60      0.00
   18    4   11      0.36      0.00
   20    4   11      0.11      0.00
   22    4   11      0.10      0.00
   24    4   11     -0.16      0.00
  -27    5   11     -0.36      0.00
  -25    5   11     -0.44      0.00
  -23    5   11     -0.49      0.00
  -21    5   11     -0.29      0.00
  -19    5   11      0.07      0.00
  -17    5   11      0.22      0.00
  -15    5   11      0.38      0.00
  -13    5   11      0.58      0.00
  -11    5   11      0.08      0.00
   -9    5   11     -0.88      0.00
   -7    5   11     -0.94      0.00
   -5    5   11     -0.30      0.00
   -3    5   11     -0.53      0.00
   -1    5   11     -1.34      0.00
    1    5   11     -1.03      0.00
    3    5   11      0.17      0.00
    5    5   11      0.50      0.00
    7    5   11     -0.30      0.00
    9    5   11     -0.82      0.00
   11    5   11     -0.47      0.00
   13    5   11     -0.06      0.00
   15    5   11     -0.06      0.00
   17    5   11     -0.09      0.00
   19    5   11     -0.05      0.00
   21    5   11     -0.34      0.00
  -24    6   11      0.33      0.00
  -22    6   11      0.29      0.00
  -20    6   11     -0.21      0.00
  -18    6   11     -0.52      0.00
  -16    6   11     -0.10      0.00
  -14    6   11      0.37      0.00
  -12    6   11      0.54      0.00
  -10    6   11      0.79      0.00
   -8    6   11      0.79      0.00
   -6    6   11      0.27      0.00
   -4    6   11      0.15      0.00
   -2    6   11      0.66      0.00
    0    6   11      0.62      0.00
    2    6   11     -0.21      0.00
    4    6   11     -0.67      0.00
    6    6   11     -0.15      0.00
    8    6   11      0.72      0.00
   10    6   11      1.01      0.00
   12    6   11      0.55      0.00
   14    6   11      0.08      0.00
   16    6   11      0.04      0.00
   18    6   11      0.01      0.00
   20    6   11     -0.02      0.00
  -21    7   11      0.27      0.00
  -19    7   11      0.66      0.00
  -17    7   11      0.39      0.00
  -15    7   11     -0.17      0.00
  -13    7   11     -0.33      0.00
  -11    7   11     -0.47      0.00
   -9    7   11     -0.68      0.00
   -7    7   11     -0.28      0.00
   -5    7   11      0.41      0.00
   -3    7   11      0.50      0.00
   -1    7   11      0.27      0.00
    1    7   11      0.32      0.00
    3    7   11      0.52      0.00
    5    7   11      0.56      0.00
    7    7   11      0.18      0.00
    9    7   11     -0.58      0.00
   11    7   11     -0.90      0.00
   13    7   11     -0.55      0.00
   15    7   11     -0.34      0.00
   17    7   11     -0.36      0.00
  -16    8   11     -0.30      0.00
  -14    8   11     -0.26      0.00
  -12    8   11     -0.20      0.00
  -10    8   11      0.23      0.00
   -8    8   11      0.29      0.00
   -6    8   11     -0.48      0.00
   -4    8   11     -1.12      0.00
   -2    8   11     -0.93      0.00
    0    8   11     -0.41      0.00
    2    8   11     -0.15      0.00
    4    8   11     -0.42      0.00
    6    8   11     -0.83      0.00
    8    8   11     -0.50      0.00
   10    8   11      0.37      0.00
   12    8   11      0.66      0.00
   -7    9   11      0.10      0.00
   -5    9   11      0.67      0.00
   -3    9   11      0.75      0.00
   -1    9   11      0.31      0.00
    1    9   11     -0.01      0.00
    3    9   11      0.15      0.00
  -30    0   12     -0.01      0.00
  -28    0   12      0.22      0.00
  -26    0   12      0.70      0.00
  -24    0   12      0.37      0.00
  -22    0   12     -1.05      0.00
  -20    0   12     -1.72      0.00
  -18    0   12     -0.92      0.00
  -16    0   12     -0.50      0.00
  -14    0   12     -1.25      0.00
  -12    0   12     -1.33      0.00
  -10    0   12     -0.05      0.00
   -8    0   12      0.56      0.00
   -6    0   12     -0.75      0.00
   -4    0   12     -1.91      0.00
   -2    0   12     -0.93      0.00
    0    0   12      0.32      0.00
    2    0   12     -0.44      0.00
    4    0   12     -1.32      0.00
    6    0   12     -0.06      0.00
    8    0   12      1.22      0.00
   10    0   12      0.40      0.00
   12    0   12     -0.53      0.00
   14    0   12      0.18      0.00
   16    0   12      1.01      0.00
   18    0   12      0.72      0.00
   20    0   12      0.30      0.00
   22    0   12      0.52      0.00
   24    0   12      0.77      0.00
  -29    1   12      0.06      0.00
  -27    1   12     -0.22      0.00
  -25    1   12     -0.37      0.00
  -23    1   12      0.40      0.00
  -21    1   12      1.26      0.00
  -19    1   12      0.88      0.00
  -17    1   12      0.11      0.00
  -15    1   12      0.47      0.00
  -13    1   12      1.19      0.00
  -11    1   12      0.69      0.00
   -9    1   12     -0.41      0.00
   -7    1   12     -0.14      0.00
   -5    1   12      1.22      0.00
   -3    1   12      1.33      0.00
   -1    1   12      0.06      0.00
    1    1   12     -0.08      0.00
    3    1   12      0.99      0.00
    5    1   12      0.61      0.00
    7    1   12     -0.98      0.00
    9    1   12     -0.92      0.00
   11    1   12      0.47      0.00
   13    1   12      0.54      0.00
   15    1   12     -0.60      0.00
   17    1   12     -0.96      0.00
   19    1   12     -0.40      0.00
   21    1   12     -0.11      0.00
   23    1   12     -0.34      0.00
   25    1   12     -0.43      0.00
  -30    2   12     -0.10      0.00
  -28    2   12     -0.19      0.00
  -26    2   12     -0.22      0.00
  -24    2   12     -0.41      0.00
  -22    2   12     -0.56      0.00
  -20    2   12     -0.15      0.00
  -18    2   12      0.42      0.00
  -16    2   12      0.26      0.00
  -14    2   12     -0.44      0.00
  -12    2   12     -0.55      0.00
  -10    2   12      0.14      0.00
   -8    2   12      0.47      0.00
   -6    2   12     -0.33      0.00
   -4    2   12     -0.98      0.00
   -2    2   12     -0.29      0.00
    0    2   12      0.37      0.00
    2    2   12     -0.23      0.00
    4    2   12     -0.48      0.00
    6    2   12      0.69      0.00
    8    2   12      1.19      0.00
   10    2   12     -0.06      0.00
   12    2   12     -0.94      0.00
   14    2   12     -0.21      0.00
   16    2   12      0.69      0.00
   18    2   12      0.52      0.00
   20    2   12     -0.15      0.00
   22    2   12     -0.36      0.00
   24    2   12     -0.06      0.00
  -29    3   12      0.02      0.00
  -27    3   12      0.32      0.00
  -25    3   12      0.67      0.00
  -23    3   12      0.44      0.00
  -21    3   12     -0.39      0.00
  -19    3   12     -0.81      0.00
  -17    3   12     -0.23      0.00
  -15    3   12      0.47      0.00
  -13    3   12      0.35      0.00
  -11    3   12     -0.35      0.00
   -9    3   12     -0.63      0.00
   -7    3   12      0.07      0.00
   -5    3   12      0.88      0.00
   -3    3   12      0.53      0.00
   -1    3   12     -0.45      0.00
    1    3   12     -0.47      0.00
    3    3   12      0.08      0.00
    5    3   12     -0.27      0.00
    7    3   12     -0.94      0.00
    9    3   12     -0.56      0.00
   11    3   12      0.29      0.00
   13    3   12      0.39      0.00
   15    3   12     -0.07      0.00
   17    3   12     -0.21      0.00
   19    3   12      0.21      0.00
   21    3   12      0.60      0.00
   23    3   12      0.40      0.00
  -26    4   12     -0.40      0.00
  -24    4   12     -0.47      0.00
  -22    4   12      0.34      0.00
  -20    4   12      0.93      0.00
  -18    4   12      0.18      0.00
  -16    4   12     -0.96      0.00
  -14    4   12     -0.94      0.00
  -12    4   12      0.03      0.00
  -10    4   12      0.57      0.00
   -8    4   12      0.03      0.00
   -6    4   12     -0.77      0.00
   -4    4   12     -0.65      0.00
   -2    4   12      0.15      0.00
    0    4   12      0.33      0.00
    2    4   12     -0.18      0.00
    4    4   12     -0.26      0.00
    6    4   12      0.25      0.00
    8    4   12      0.61      0.00
   10    4   12      0.59      0.00
   12    4   12      0.36      0.00
   14    4   12      0.03      0.00
   16    4   12     -0.17      0.00
   18    4   12     -0.30      0.00
   20    4   12     -0.49      0.00
   22    4   12     -0.44      0.00
  -25    5   12      0.21      0.00
  -23    5   12     -0.16      0.00
  -21    5   12     -0.67      0.00
  -19    5   12     -0.30      0.00
  -17    5   12      0.73      0.00
  -15    5   12      1.14      0.00
  -13    5   12      0.62      0.00
  -11    5   12      0.11      0.00
   -9    5   12      0.29      0.00
   -7    5   12      0.59      0.00
   -5    5   12      0.20      0.00
   -3    5   12     -0.32      0.00
   -1    5   12      0.14      0.00
    1    5   12      1.06      0.00
    3    5   12      1.08      0.00
    5    5   12      0.37      0.00
    7    5   12     -0.21      0.00
    9    5   12     -0.61      0.00
   11    5   12     -0.77      0.00
   13    5   12     -0.36      0.00
   15    5   12      0.14      0.00
   17    5   12      0.21      0.00
   19    5   12      0.18      0.00
  -22    6   12      0.34      0.00
  -20    6   12      0.24      0.00
  -18    6   12     -0.21      0.00
  -16    6   12     -0.50      0.00
  -14    6   12     -0.41      0.00
  -12    6   12     -0.34      0.00
  -10    6   12     -0.63      0.00
   -8    6   12     -0.78      0.00
   -6    6   12     -0.11      0.00
   -4    6   12      0.71      0.00
   -2    6   12      0.17      0.00
    0    6   12     -1.31      0.00
    2    6   12     -1.66      0.00
    4    6   12     -0.70      0.00
    6    6   12      0.02      0.00
    8    6   12      0.16      0.00
   10    6   12      0.27      0.00
   12    6   12      0.18      0.00
   14    6   12     -0.12      0.00
   16    6   12     -0.11      0.00
  -19    7   12      0.05      0.00
  -17    7   12     -0.02      0.00
  -15    7   12     -0.16      0.00
  -13    7   12     -0.17      0.00
  -11    7   12      0.16      0.00
   -9    7   12      0.65      0.00
   -7    7   12      0.53      0.00
   -5    7   12     -0.27      0.00
   -3    7   12     -0.49      0.00
   -1    7   12      0.42      0.00
    1    7   12      1.07      0.00
    3    7   12      0.51      0.00
    5    7   12     -0.18      0.00
    7    7   12     -0.15      0.00
    9    7   12      0.12      0.00
   11    7   12      0.24      0.00
   13    7   12      0.31      0.00
  -12    8   12      0.42      0.00
  -10    8   12      0.02      0.00
   -8    8   12     -0.47      0.00
   -6    8   12     -0.39      0.00
   -4    8   12      0.10      0.00
   -2    8   12      0.22      0.00
    0    8   12      0.02      0.00
    2    8   12      0.08      0.00
    4    8   12      0.35      0.00
    6    8   12      0.41      0.00
    8    8   12      0.23      0.00
  -29    1   13     -0.10      0.00
  -27    1   13     -0.11      0.00
  -25    1   13      0.26      0.00
  -23    1   13      0.39      0.00
  -21    1   13      0.01      0.00
  -19    1   13     -0.13      0.00
  -17    1   13      0.12      0.00
  -15    1   13      0.03      0.00
  -13    1   13     -0.30      0.00
  -11    1   13     -0.09      0.00
   -9    1   13      0.42      0.00
   -7    1   13      0.30      0.00
   -5    1   13     -0.51      0.00
   -3    1   13     -0.96      0.00
   -1    1   13     -0.36      0.00
    1    1   13      0.39      0.00
    3    1   13      0.14      0.00
    5    1   13     -0.52      0.00
    7    1   13     -0.39      0.00
    9    1   13      0.16      0.00
   11    1   13      0.28      0.00
   13    1   13      0.19      0.00
   15    1   13      0.11      0.00
   17    1   13     -0.20      0.00
   19    1   13     -0.46      0.00
   21    1   13     -0.26      0.00
   23    1   13      0.05      0.00
  -28    2   13      0.26      0.00
  -26    2   13     -0.03      0.00
  -24    2   13     -0.46      0.00
  -22    2   13     -0.11      0.00
  -20    2   13      0.34      0.00
  -18    2   13     -0.05      0.00
  -16    2   13     -0.39      0.00
  -14    2   13      0.17      0.00
  -12    2   13      0.52      0.00
  -10    2   13     -0.12      0.00
   -8    2   13     -0.69      0.00
   -6    2   13     -0.12      0.00
   -4    2   13      0.91      0.00
   -2    2   13      0.83      0.00
    0    2   13     -0.28      0.00
    2    2   13     -0.51      0.00
    4    2   13      0.43      0.00
    6    2   13      0.58      0.00
    8    2   13     -0.38      0.00
   10    2   13     -0.68      0.00
   12    2   13     -0.12      0.00
   14    2   13      0.09      0.00
   16    2   13      0.02      0.00
   18    2   13      0.13      0.00
   20    2   13      0.06      0.00
   22    2   13     -0.12      0.00
  -27    3   13     -0.16      0.00
  -25    3   13      0.17      0.00
  -23    3   13      0.04      0.00
  -21    3   13     -0.51      0.00
  -19    3   13     -0.31      0.00
  -17    3   13      0.39      0.00
  -15    3   13      0.17      0.00
  -13    3   13     -0.60      0.00
  -11    3   13     -0.44      0.00
   -9    3   13      0.55      0.00
   -7    3   13      0.91      0.00
   -5    3   13      0.08      0.00
   -3    3   13     -0.65      0.00
   -1    3   13     -0.06      0.00
    1    3   13      0.67      0.00
    3    3   13      0.08      0.00
    5    3   13     -0.49      0.00
    7    3   13      0.39      0.00
    9    3   13      1.08      0.00
   11    3   13      0.28      0.00
   13    3   13     -0.55      0.00
   15    3   13     -0.37      0.00
   17    3   13      0.11      0.00
   19    3   13      0.47      0.00
   21    3   13      0.59      0.00
  -24    4   13      0.08      0.00
  -22    4   13      0.58      0.00
  -20    4   13      0.64      0.00
  -18    4   13      0.00      0.00
  -16    4   13     -0.20      0.00
  -14    4   13      0.44      0.00
  -12    4   13      0.68      0.00
  -10    4   13     -0.15      0.00
   -8    4   13     -1.11      0.00
   -6    4   13     -0.97      0.00
   -4    4   13      0.02      0.00
   -2    4   13      0.36      0.00
    0    4   13     -0.29      0.00
    2    4   13     -0.44      0.00
    4    4   13      0.17      0.00
    6    4   13      0.01      0.00
    8    4   13     -0.77      0.00
   10    4   13     -0.50      0.00
   12    4   13      0.47      0.00
   14    4   13      0.76      0.00
   16    4   13      0.38      0.00
   18    4   13     -0.19      0.00
  -23    5   13     -0.51      0.00
  -21    5   13     -0.72      0.00
  -19    5   13     -0.29      0.00
  -17    5   13      0.15      0.00
  -15    5   13     -0.11      0.00
  -13    5   13     -0.50      0.00
  -11    5   13     -0.15      0.00
   -9    5   13      0.67      0.00
   -7    5   13      1.06      0.00
   -5    5   13      0.61      0.00
   -3    5   13     -0.09      0.00
   -1    5   13     -0.20      0.00
    1    5   13     -0.01      0.00
    3    5   13     -0.19      0.00
    5    5   13     -0.36      0.00
    7    5   13      0.00      0.00
    9    5   13      0.24      0.00
   11    5   13     -0.11      0.00
   13    5   13     -0.53      0.00
   15    5   13     -0.67      0.00
   17    5   13     -0.53      0.00
  -20    6   13      0.29      0.00
  -18    6   13     -0.18      0.00
  -16    6   13     -0.28      0.00
  -14    6   13      0.00      0.00
  -12    6   13      0.07      0.00
  -10    6   13     -0.21      0.00
   -8    6   13     -0.41      0.00
   -6    6   13     -0.47      0.00
   -4    6   13     -0.44      0.00
   -2    6   13     -0.17      0.00
    0    6   13      0.34      0.00
    2    6   13      0.70      0.00
    4    6   13      0.70      0.00
    6    6   13      0.41      0.00
    8    6   13      0.08      0.00
   10    6   13     -0.05      0.00
   12    6   13      0.10      0.00
   14    6   13      0.39      0.00
  -15    7   13      0.26      0.00
  -13    7   13      0.09      0.00
  -11    7   13      0.16      0.00
   -9    7   13      0.06      0.00
   -7    7   13     -0.17      0.00
   -5    7   13      0.11      0.00
   -3    7   13      0.58      0.00
   -1    7   13      0.23      0.00
    1    7   13     -0.59      0.00
    3    7   13     -0.79      0.00
    5    7   13     -0.42      0.00
    7    7   13     -0.09      0.00
    9    7   13      0.11      0.00
   -4    8   13     -0.06      0.00
   -2    8   13     -0.54      0.00
  -26    0   14      0.64      0.00
  -24    0   14     -0.26      0.00
  -22    0   14     -0.95      0.00
  -20    0   14     -0.69      0.00
  -18    0   14     -0.34      0.00
  -16    0   14     -0.08      0.00
  -14    0   14      0.64      0.00
  -12    0   14      1.02      0.00
  -10    0   14      0.18      0.00
   -8    0   14     -0.83      0.00
   -6    0   14     -0.72      0.00
   -4    0   14     -0.02      0.00
   -2    0   14      0.07      0.00
    0    0   14     -0.43      0.00
    2    0   14     -0.40      0.00
    4    0   14      0.65      0.00
    6    0   14      1.66      0.00
    8    0   14      1.65      0.00
   10    0   14      1.10      0.00
   12    0   14      0.51      0.00
   14    0   14     -0.24      0.00
   16    0   14     -0.62      0.00
   18    0   14     -0.12      0.00
   20    0   14      0.28      0.00
  -25    1   14     -0.33      0.00
  -23    1   14      0.45      0.00
  -21    1   14      0.59      0.00
  -19    1   14      0.32      0.00
  -17    1   14      0.26      0.00
  -15    1   14     -0.09      0.00
  -13    1   14     -0.78      0.00
  -11    1   14     -0.73      0.00
   -9    1   14      0.10      0.00
   -7    1   14      0.46      0.00
   -5    1   14      0.05      0.00
   -3    1   14     -0.19      0.00
   -1    1   14      0.23      0.00
    1    1   14      0.56      0.00
    3    1   14     -0.01      0.00
    5    1   14     -1.06      0.00
    7    1   14     -1.44      0.00
    9    1   14     -1.05      0.00
   11    1   14     -0.57      0.00
   13    1   14     -0.14      0.00
   15    1   14      0.23      0.00
   17    1   14      0.08      0.00
   19    1   14     -0.30      0.00
  -26    2   14      0.49      0.00
  -24    2   14      0.18      0.00
  -22    2   14     -0.08      0.00
  -20    2   14     -0.08      0.00
  -18    2   14     -0.15      0.00
  -16    2   14     -0.21      0.00
  -14    2   14      0.12      0.00
  -12    2   14      0.50      0.00
  -10    2   14      0.43      0.00
   -8    2   14      0.31      0.00
   -6    2   14      0.50      0.00
   -4    2   14      0.49      0.00
   -2    2   14     -0.08      0.00
    0    2   14     -0.61      0.00
    2    2   14     -0.49      0.00
    4    2   14      0.14      0.00
    6    2   14      0.59      0.00
    8    2   14      0.52      0.00
   10    2   14      0.22      0.00
   12    2   14      0.03      0.00
   14    2   14      0.07      0.00
   16    2   14      0.36      0.00
   18    2   14      0.62      0.00
  -23    3   14     -0.18      0.00
  -21    3   14     -0.02      0.00
  -19    3   14      0.07      0.00
  -17    3   14      0.07      0.00
  -15    3   14      0.07      0.00
  -13    3   14      0.10      0.00
  -11    3   14      0.07      0.00
   -9    3   14     -0.28      0.00
   -7    3   14     -0.91      0.00
   -5    3   14     -1.01      0.00
   -3    3   14     -0.20      0.00
   -1    3   14      0.62      0.00
    1    3   14      0.69      0.00
    3    3   14      0.44      0.00
    5    3   14      0.34      0.00
    7    3   14      0.23      0.00
    9    3   14      0.13      0.00
   11    3   14      0.25      0.00
   13    3   14      0.32      0.00
   15    3   14     -0.04      0.00
   17    3   14     -0.57      0.00
  -22    4   14     -0.06      0.00
  -20    4   14     -0.22      0.00
  -18    4   14     -0.08      0.00
  -16    4   14      0.07      0.00
  -14    4   14     -0.19      0.00
  -12    4   14     -0.60      0.00
  -10    4   14     -0.44      0.00
   -8    4   14      0.52      0.00
   -6    4   14      1.20      0.00
   -4    4   14      0.52      0.00
   -2    4   14     -0.67      0.00
    0    4   14     -0.82      0.00
    2    4   14     -0.34      0.00
    4    4   14     -0.40      0.00
    6    4   14     -0.65      0.00
    8    4   14     -0.45      0.00
   10    4   14     -0.31      0.00
   12    4   14     -0.54      0.00
   14    4   14     -0.60      0.00
   16    4   14     -0.20      0.00
  -19    5   14      0.22      0.00
  -17    5   14      0.03      0.00
  -15    5   14      0.07      0.00
  -13    5   14      0.42      0.00
  -11    5   14      0.59      0.00
   -9    5   14      0.04      0.00
   -7    5   14     -0.85      0.00
   -5    5   14     -0.76      0.00
   -3    5   14      0.44      0.00
   -1    5   14      0.98      0.00
    1    5   14      0.27      0.00
    3    5   14     -0.17      0.00
    5    5   14      0.22      0.00
    7    5   14      0.43      0.00
    9    5   14      0.29      0.00
   11    5   14      0.37      0.00
   13    5   14      0.54      0.00
  -16    6   14     -0.13      0.00
  -14    6   14     -0.05      0.00
  -12    6   14     -0.01      0.00
  -10    6   14      0.06      0.00
   -8    6   14      0.41      0.00
   -6    6   14      0.64      0.00
   -4    6   14      0.10      0.00
   -2    6   14     -0.61      0.00
    0    6   14     -0.42      0.00
    2    6   14      0.19      0.00
    4    6   14      0.20      0.00
    6    6   14     -0.08      0.00
    8    6   14     -0.10      0.00
   10    6   14     -0.09      0.00
   -9    7   14     -0.38      0.00
   -7    7   14     -0.33      0.00
   -5    7   14     -0.26      0.00
   -3    7   14      0.00      0.00
   -1    7   14      0.24      0.00
    1    7   14      0.18      0.00
    3    7   14      0.05      0.00
  -23    1   15      0.11      0.00
  -21    1   15      0.14      0.00
  -19    1   15      0.22      0.00
  -17    1   15      0.10      0.00
  -15    1   15     -0.04      0.00
  -13    1   15      0.06      0.00
  -11    1   15      0.27      0.00
   -9    1   15      0.24      0.00
   -7    1   15      0.02      0.00
   -5    1   15     -0.05      0.00
   -3    1   15      0.04      0.00
   -1    1   15     -0.06      0.00
    1    1   15     -0.38      0.00
    3    1   15     -0.42      0.00
    5    1   15     -0.13      0.00
    7    1   15     -0.02      0.00
    9    1   15     -0.14      0.00
   11    1   15     -0.04      0.00
   13    1   15      0.26      0.00
   15    1   15      0.28      0.00
   17    1   15     -0.02      0.00
  -22    2   15     -0.18      0.00
  -20    2   15     -0.54      0.00
  -18    2   15     -0.58      0.00
  -16    2   15     -0.10      0.00
  -14    2   15      0.23      0.00
  -12    2   15     -0.05      0.00
  -10    2   15     -0.46      0.00
   -8    2   15     -0.34      0.00
   -6    2   15      0.10      0.00
   -4    2   15      0.18      0.00
   -2    2   15      0.05      0.00
    0    2   15      0.28      0.00
    2    2   15      0.54      0.00
    4    2   15      0.30      0.00
    6    2   15      0.00      0.00
    8    2   15      0.11      0.00
   10    2   15      0.18      0.00
   12    2   15     -0.13      0.00
   14    2   15     -0.41      0.00
   16    2   15     -0.24      0.00
  -21    3   15      0.45      0.00
  -19    3   15      0.93      0.00
  -17    3   15      0.71      0.00
  -15    3   15      0.01      0.00
  -13    3   15     -0.29      0.00
  -11    3   15      0.11      0.00
   -9    3   15      0.43      0.00
   -7    3   15      0.05      0.00
   -5    3   15     -0.36      0.00
   -3    3   15     -0.18      0.00
   -1    3   15      0.02      0.00
    1    3   15     -0.17      0.00
    3    3   15     -0.22      0.00
    5    3   15     -0.02      0.00
    7    3   15      0.02      0.00
    9    3   15     -0.04      0.00
   11    3   15      0.09      0.00
   13    3   15      0.26      0.00
   15    3   15      0.26      0.00
  -18    4   15     -0.93      0.00
  -16    4   15     -0.75      0.00
  -14    4   15     -0.21      0.00
  -12    4   15      0.09      0.00
  -10    4   15      0.01      0.00
   -8    4   15      0.05      0.00
   -6    4   15      0.28      0.00
   -4    4   15      0.15      0.00
   -2    4   15     -0.19      0.00
    0    4   15     -0.21      0.00
    2    4   15     -0.09      0.00
    4    4   15     -0.09      0.00
    6    4   15     -0.10      0.00
    8    4   15     -0.16      0.00
   10    4   15     -0.32      0.00
   12    4   15     -0.31      0.00
  -15    5   15      0.83      0.00
  -13    5   15      0.30      0.00
  -11    5   15     -0.25      0.00
   -9    5   15     -0.42      0.00
   -7    5   15     -0.27      0.00
   -5    5   15      0.01      0.00
   -3    5   15      0.20      0.00
   -1    5   15      0.17      0.00
    1    5   15      0.16      0.00
    3    5   15      0.30      0.00
    5    5   15      0.32      0.00
    7    5   15      0.28      0.00
    9    5   15      0.39      0.00
  -10    6   15      0.53      0.00
   -8    6   15      0.39      0.00
   -6    6   15     -0.02      0.00
   -4    6   15     -0.11      0.00
   -2    6   15      0.15      0.00
    0    6   15      0.16      0.00
    2    6   15     -0.21      0.00
  -20    0   16      0.38      0.00
  -18    0   16      0.00      0.00
  -16    0   16     -0.25      0.00
  -14    0   16     -0.21      0.00
  -12    0   16      0.16      0.00
  -10    0   16      0.44      0.00
   -8    0   16      0.45      0.00
   -6    0   16      0.49      0.00
   -4    0   16      0.36      0.00
   -2    0   16      0.03      0.00
    0    0   16      0.31      0.00
    2    0   16      0.97      0.00
    4    0   16      0.62      0.00
    6    0   16     -0.58      0.00
    8    0   16     -1.10      0.00
   10    0   16     -0.57      0.00
   12    0   16      0.10      0.00
  -19    1   16     -0.18      0.00
  -17    1   16      0.14      0.00
  -15    1   16      0.29      0.00
  -13    1   16      0.03      0.00
  -11    1   16     -0.42      0.00
   -9    1   16     -0.52      0.00
   -7    1   16     -0.40      0.00
   -5    1   16     -0.31      0.00
   -3    1   16     -0.02      0.00
   -1    1   16      0.07      0.00
    1    1   16     -0.48      0.00
    3    1   16     -0.73      0.00
    5    1   16      0.03      0.00
    7    1   16      0.81      0.00
    9    1   16      0.69      0.00
   11    1   16      0.09      0.00
   13    1   16     -0.25      0.00
  -18    2   16      0.09      0.00
  -16    2   16     -0.20      0.00
  -14    2   16     -0.26      0.00
  -12    2   16      0.23      0.00
  -10    2   16      0.70      0.00
   -8    2   16      0.62      0.00
   -6    2   16      0.27      0.00
   -4    2   16     -0.14      0.00
   -2    2   16     -0.48      0.00
    0    2   16     -0.31      0.00
    2    2   16      0.14      0.00
    4    2   16      0.08      0.00
    6    2   16     -0.35      0.00
    8    2   16     -0.44      0.00
   10    2   16     -0.18      0.00
   12    2   16      0.10      0.00
  -17    3   16     -0.10      0.00
  -15    3   16      0.28      0.00
  -13    3   16      0.24      0.00
  -11    3   16     -0.45      0.00
   -9    3   16     -0.99      0.00
   -7    3   16     -0.78      0.00
   -5    3   16     -0.04      0.00
   -3    3   16      0.69      0.00
   -1    3   16      0.93      0.00
    1    3   16      0.63      0.00
    3    3   16      0.26      0.00
    5    3   16      0.21      0.00
    7    3   16      0.28      0.00
    9    3   16      0.26      0.00
  -14    4   16     -0.40      0.00
  -12    4   16     -0.09      0.00
  -10    4   16      0.78      0.00
   -8    4   16      1.18      0.00
   -6    4   16      0.61      0.00
   -4    4   16     -0.32      0.00
   -2    4   16     -0.86      0.00
    0    4   16     -0.90      0.00
    2    4   16     -0.62      0.00
    4    4   16     -0.35      0.00
    6    4   16     -0.32      0.00
   -7    5   16     -0.77      0.00
   -5    5   16     -0.16      0.00
   -3    5   16      0.22      0.00
   -1    5   16      0.37      0.00
    1    5   16      0.50      0.00
  -15    1   17     -0.21      0.00
  -13    1   17     -0.15      0.00
  -11    1   17     -0.05      0.00
   -9    1   17     -0.30      0.00
   -7    1   17     -0.78      0.00
   -5    1   17     -0.86      0.00
   -3    1   17     -0.46      0.00
   -1    1   17     -0.06      0.00
    1    1   17      0.16      0.00
    3    1   17      0.34      0.00
    5    1   17      0.44      0.00
    7    1   17      0.39      0.00
  -12    2   17      0.04      0.00
  -10    2   17      0.12      0.00
   -8    2   17      0.78      0.00
   -6    2   17      1.25      0.00
   -4    2   17      0.91      0.00
   -2    2   17      0.28      0.00
    0    2   17     -0.08      0.00
    2    2   17     -0.25      0.00
    4    2   17     -0.35      0.00
    6    2   17     -0.34      0.00
   -9    3   17     -0.29      0.00
   -7    3   17     -0.80      0.00
   -5    3   17     -0.75      0.00
   -3    3   17     -0.32      0.00
   -1    3   17     -0.09      0.00
    1    3   17     -0.06      0.00
    2    0    0    180.83      0.00
   38    2    0     -0.14      0.00
   35    5    0     -0.44      0.00
   31    7    0      1.23      0.00
   28    8    0     -0.88      0.00
   20   10    0     -0.40      0.00
   13   11    0     -0.16      0.00
  -38    2    1     -0.22      0.00
   37    3    1     -0.16      0.00
   36    4    1      0.30      0.00
  -35    5    1     -0.59      0.00
  -31    7    1      0.03      0.00
   28    8    1     -0.63      0.00
  -25    9    1     -0.58      0.00
  -20   10    1      0.10      0.00
   20   10    1      0.34      0.00
  -13   11    1     -1.14      0.00
   13   11    1      0.22      0.00
  -35    5    2     -0.25      0.00
  -31    7    2     -0.17      0.00
  -25    9    2     -0.51      0.00
  -20   10    2     -0.17      0.00
  -13   11    2      0.00      0.00
   37    1    3      0.36      0.00
  -38    2    3      0.53      0.00
  -35    5    3      0.37      0.00
  -31    7    3     -0.45      0.00
  -28    8    3      0.32      0.00
   23    9    3     -1.05      0.00
  -20   10    3      0.78      0.00
   11   11    3     -0.74      0.00
  -38    2    4      0.66      0.00
   36    2    4     -0.74      0.00
  -37    3    4     -0.86      0.00
  -36    4    4      0.20      0.00
   33    5    4      1.73      0.00
   26    8    4      0.53      0.00
  -11   11    4      0.84      0.00
    9   11    4     -0.11      0.00
   30    6    5      0.12      0.00
   21    9    5      0.37      0.00
  -18   10    5      0.02      0.00
   16   10    5     -0.71      0.00
   -9   11    5     -0.52      0.00
    7   11    5      0.73      0.00
   31    5    6      0.83      0.00
  -32    6    6      0.20      0.00
   14   10    6      0.12      0.00
   -5   11    6     -0.05      0.00
   -3   11    6      0.15      0.00
   -1   11    6     -0.15      0.00
    1   11    6     -0.42      0.00
    3   11    6     -0.17      0.00
  -37    1    7      0.27      0.00
  -33    5    7     -0.37      0.00
   28    6    7     -0.74      0.00
   22    8    7      0.14      0.00
  -21    9    7     -0.10      0.00
   12   10    7      0.10      0.00
   32    2    8     -0.83      0.00
  -35    3    8     -0.17      0.00
   30    4    8     -0.72      0.00
  -30    6    8     -0.53      0.00
  -24    8    8      0.08      0.00
  -12   10    8      0.73      0.00
   31    1    9      0.39      0.00
  -31    5    9     -0.19      0.00
   27    5    9      0.15      0.00
   13    9    9      0.09      0.00
   -8   10    9     -0.47      0.00
    4   10    9     -0.46      0.00
  -28    0   10     -1.26      0.00
   25    5   10      0.20      0.00
   16    8   10      0.26      0.00
  -30    4   11     -0.09      0.00
   23    5   11     -0.57      0.00
  -18    8   11     -0.51      0.00
   -9    9   11     -0.14      0.00
    5    9   11      0.62      0.00
   26    0   12      0.43      0.00
  -31    1   12      0.04      0.00
  -28    4   12      0.09      0.00
   21    5   12      0.27      0.00
   18    6   12      0.09      0.00
  -14    8   12      0.40      0.00
  -26    4   13     -0.06      0.00
   20    4   13     -0.68      0.00
   -8    8   13      0.26      0.00
   -6    8   13      0.49      0.00
    0    8   13     -0.15      0.00
    2    8   13      0.31      0.00
  -27    1   14     -0.69      0.00
   20    2   14      0.33      0.00
  -25    3   14     -0.24      0.00
   19    3   14     -0.64      0.00
  -21    5   14      0.23      0.00
  -11    7   14     -0.46      0.00
  -20    4   15     -0.62      0.00
  -17    5   15      0.83      0.00
    4    6   15     -0.41      0.00
   14    0   16      0.23      0.00
  -21    1   16     -0.45      0.00
  -20    2   16      0.22      0.00
   11    3   16      0.13      0.00
    8    4   16     -0.42      0.00
   -9    5   16     -0.86      0.00
    3    5   16      0.42      0.00
  -14    2   17      0.28      0.00
  -11    3   17      0.05      0.00
    3    3   17     -0.04      0.00
    0    0    0      0.00      0.00
# SQUEEZE RESULTS (Version = 230916)
# Note: Data are Listed for all Voids in the P1 Unit Cell
# i.e. Centre of Gravity, Solvent Accessible Volume,
# Recovered number of Electrons in the Void and
# Details about the Squeezed Material
loop_
  _platon_squeeze_void_nr
  _platon_squeeze_void_average_x
  _platon_squeeze_void_average_y
  _platon_squeeze_void_average_z
  _platon_squeeze_void_volume
  _platon_squeeze_void_count_electrons
  _platon_squeeze_void_content
   1  0.500 -0.001  0.221       557       112 ' '
   2  0.000  0.499  0.541       557       112 ' '
# Missing Reflections Below sin(th)/lambda = 0.25
loop_
  _platon_missing_refln_index_h
  _platon_missing_refln_index_k
  _platon_missing_refln_index_l
  _platon_missing_refln_theta
    2    0    0     2.444
_platon_squeeze_void_probe_radius                  1.20
_platon_squeeze_details
)
TITL T         C 2/c        R = 0.12
CELL   31.6289    9.5751   14.6667     90.00     96.00     90.00
SPGR C2/c
# Solvent Accessible Volume =      1119
# Electrons Found in S.A.V. =       223
# Note: Atoms in Void as Cxxx and Qxxx all others
C101 0.421 0.036 0.279 !       1.19 eA-3
Q102 0.049 0.401 0.409 !       1.08 eA-3
Q103 0.816 0.494 0.076 !       0.73 eA-3
Q104 0.278 0.309 0.026 !       0.72 eA-3
Q105 0.251 0.255 0.932 !       0.68 eA-3
Q106 0.298 0.201 0.517 !       0.68 eA-3
Q107 0.227 0.315 0.267 !       0.62 eA-3
Q108 0.659 0.356 0.419 !       0.59 eA-3
Q109 0.217 0.134 0.755 !       0.58 eA-3
Q110 0.539 0.469 0.399 !       0.55 eA-3
Q111 0.727 0.341 0.342 !       0.53 eA-3
Q112 0.796 0.250 0.069 !       0.51 eA-3
Q113 0.377 0.383 0.061 !       0.50 eA-3
)
;
_shelx_fab_checksum              27816
loop_
_space_group_symop_operation_xyz
'x, y, z'
'-x, y, -z+1/2'
'x+1/2, y+1/2, z'
'-x+1/2, y+1/2, -z+1/2'
'-x, -y, -z'
'x, -y, z-1/2'
'-x+1/2, -y+1/2, -z'
'x+1/2, -y+1/2, z-1/2'
loop_
_atom_site_label
_atom_site_type_symbol
_atom_site_fract_x
_atom_site_fract_y
_atom_site_fract_z
_atom_site_U_iso_or_equiv
_atom_site_adp_type
_atom_site_occupancy
_atom_site_site_symmetry_order
_atom_site_calc_flag
_atom_site_refinement_flags_posn
_atom_site_refinement_flags_adp
_atom_site_refinement_flags_occupancy
_atom_site_disorder_assembly
_atom_site_disorder_group
Zn1 Zn 0.74145(3) 0.19208(10) 0.49309(6) 0.0415(4) Uani 0.5 1 d . U P . .
N1 N 0.78457(12) 0.1785(4) 0.6168(2) 0.0658(11) Uani 1 1 d . . . . .
N2 N 0.69964(11) 0.2816(4) 0.5730(2) 0.0599(9) Uani 1 1 d . . . . .
N4 N 0.7132(2) 0.0132(4) 0.9440(3) 0.1007(18) Uani 1 1 d . . . . .
C1 C 0.4824(9) 0.614(5) 0.366(2) 0.170(11) Uani 0.42(2) 1 d . U P A 1
H1A H 0.468772 0.629244 0.422375 0.255 Uiso 0.42(2) 1 calc R U P A 1
H1B H 0.462493 0.566776 0.320654 0.255 Uiso 0.42(2) 1 calc R U P A 1
H1C H 0.490729 0.703945 0.341830 0.255 Uiso 0.42(2) 1 calc R U P A 1
N3 N 0.5254(5) 0.382(3) 0.3837(14) 0.128(5) Uani 0.42(2) 1 d G U P A 1
C2 C 0.5207(6) 0.526(3) 0.3872(15) 0.120(6) Uani 0.42(2) 1 d G U P A 1
C3 C 0.5559(8) 0.610(2) 0.4101(19) 0.128(6) Uani 0.42(2) 1 d G U P A 1
H3 H 0.552627 0.708949 0.412488 0.153 Uiso 0.42(2) 1 calc R U P A 1
C4 C 0.5959(6) 0.551(3) 0.4293(19) 0.114(5) Uani 0.42(2) 1 d G U P A 1
H4 H 0.619988 0.608676 0.444951 0.137 Uiso 0.42(2) 1 calc R U P A 1
C5 C 0.6007(5) 0.407(3) 0.4258(18) 0.091(6) Uani 0.42(2) 1 d G U P A 1
C6 C 0.5654(7) 0.322(2) 0.4030(18) 0.122(5) Uani 0.42(2) 1 d G U P A 1
H6 H 0.568707 0.223630 0.400549 0.147 Uiso 0.42(2) 1 calc R U P A 1
C1A C 0.4706(5) 0.494(4) 0.3616(10) 0.166(9) Uani 0.58(2) 1 d . U P A 2
H1A1 H 0.452647 0.410384 0.360388 0.249 Uiso 0.58(2) 1 calc R U P A 2
H1A2 H 0.466471 0.540689 0.301943 0.249 Uiso 0.58(2) 1 calc R U P A 2
H1A3 H 0.462849 0.557667 0.409397 0.249 Uiso 0.58(2) 1 calc R U P A 2
N3A N 0.5450(4) 0.5623(18) 0.3853(9) 0.122(4) Uani 0.58(2) 1 d G U P A 2
C2A C 0.5160(3) 0.453(2) 0.3816(10) 0.124(5) Uani 0.58(2) 1 d G U P A 2
C3A C 0.5303(4) 0.317(2) 0.3980(11) 0.134(5) Uani 0.58(2) 1 d G U P A 2
H3A H 0.510481 0.241842 0.395443 0.161 Uiso 0.58(2) 1 calc R U P A 2
C4A C 0.5735(5) 0.2904(16) 0.4181(12) 0.114(4) Uani 0.58(2) 1 d G U P A 2
H4A H 0.583183 0.197493 0.429279 0.137 Uiso 0.58(2) 1 calc R U P A 2
C5A C 0.6024(3) 0.4000(18) 0.4218(11) 0.078(3) Uani 0.58(2) 1 d G U P A 2
C6A C 0.5882(4) 0.5359(17) 0.4054(10) 0.099(4) Uani 0.58(2) 1 d G U P A 2
H6A H 0.607950 0.610838 0.407979 0.118 Uiso 0.58(2) 1 calc R U P A 2
C7 C 0.64719(14) 0.3597(5) 0.4466(3) 0.0648(12) Uani 1 1 d . . . . .
C8 C 0.65965(14) 0.3222(5) 0.5372(3) 0.0602(11) Uani 1 1 d . . . . .
C9 C 0.63135(13) 0.3178(4) 0.6079(3) 0.0578(10) Uani 1 1 d . . . . .
H9 H 0.602113 0.342692 0.601518 0.069 Uiso 1 1 calc R U . . .
C10 C 0.65420(13) 0.2715(4) 0.6850(2) 0.0533(9) Uani 1 1 d . . . . .
H10 H 0.643854 0.255578 0.742641 0.064 Uiso 1 1 calc R U . . .
C11 C 0.69707(13) 0.2508(4) 0.6636(2) 0.0517(9) Uani 1 1 d . . . . .
C12 C 0.73048(13) 0.1990(4) 0.7247(2) 0.0509(9) Uani 1 1 d . . . . .
C13 C 0.72056(13) 0.1715(4) 0.8204(2) 0.0543(10) Uani 1 1 d . . . . .
C14 C 0.70805(13) 0.2769(4) 0.8764(3) 0.0555(10) Uani 1 1 d . . . . .
H14 H 0.708113 0.370693 0.855316 0.067 Uiso 1 1 calc R U . . .
C15 C 0.69566(14) 0.2498(4) 0.9606(2) 0.0540(10) Uani 1 1 d . . . . .
H15 H 0.686293 0.323431 0.996926 0.065 Uiso 1 1 calc R U . . .
C16 C 0.69681(18) 0.1171(5) 0.9920(3) 0.0742(14) Uani 1 1 d . . . . .
C17 C 0.72352(19) 0.0414(5) 0.8583(3) 0.0821(17) Uani 1 1 d . . . . .
H17 H 0.733227 -0.033037 0.823055 0.099 Uiso 1 1 calc R U . . .
C18 C 0.6818(2) 0.0852(5) 1.0835(3) 0.102(2) Uani 1 1 d . . . . .
H18A H 0.676222 -0.015083 1.087865 0.153 Uiso 1 1 calc R U . . .
H18B H 0.655648 0.137414 1.090097 0.153 Uiso 1 1 calc R U . . .
H18C H 0.703776 0.112571 1.132396 0.153 Uiso 1 1 calc R U . . .
C19 C 0.77107(14) 0.1662(4) 0.7022(2) 0.0535(10) Uani 1 1 d . . . . .
C20 C 0.80667(13) 0.1197(4) 0.7660(2) 0.0545(10) Uani 1 1 d . . . . .
H20 H 0.806025 0.102798 0.829662 0.065 Uiso 1 1 calc R U . . .
C21 C 0.84062(13) 0.1051(4) 0.7188(2) 0.0559(10) Uani 1 1 d . . . . .
H21 H 0.868441 0.077134 0.742386 0.067 Uiso 1 1 calc R U . . .
C22 C 0.82631(14) 0.1404(5) 0.6253(2) 0.0582(10) Uani 1 1 d . . . . .
loop_
_atom_site_aniso_label
_atom_site_aniso_U_11
_atom_site_aniso_U_22
_atom_site_aniso_U_33
_atom_site_aniso_U_23
_atom_site_aniso_U_13
_atom_site_aniso_U_12
Zn1 0.0533(6) 0.0456(6) 0.0268(5) 0.0023(4) 0.0104(4) 0.0090(4)
N1 0.080(2) 0.091(3) 0.0288(15) 0.0098(15) 0.0165(14) 0.043(2)
N2 0.070(2) 0.082(2) 0.0296(14) 0.0079(14) 0.0139(13) 0.0374(17)
N4 0.201(5) 0.055(2) 0.055(2) 0.0127(17) 0.057(3) 0.033(3)
C1 0.116(13) 0.28(3) 0.110(15) 0.03(2) 0.001(12) 0.118(17)
N3 0.067(6) 0.216(12) 0.096(10) 0.000(11) -0.017(7) 0.058(9)
C2 0.092(8) 0.214(14) 0.057(9) 0.007(11) 0.016(8) 0.076(10)
C3 0.110(10) 0.167(12) 0.106(16) 0.005(12) 0.010(10) 0.083(8)
C4 0.102(9) 0.156(9) 0.087(14) 0.035(10) 0.017(9) 0.067(8)
C5 0.071(8) 0.150(10) 0.054(13) 0.024(12) 0.009(9) 0.054(8)
C6 0.073(9) 0.184(12) 0.101(11) 0.004(10) -0.032(9) 0.059(7)
C1A 0.074(6) 0.37(3) 0.057(6) 0.022(13) 0.013(5) 0.109(11)
N3A 0.096(7) 0.205(11) 0.064(6) 0.000(7) 0.002(6) 0.098(7)
C2A 0.075(6) 0.248(14) 0.050(6) -0.005(9) 0.009(5) 0.086(7)
C3A 0.063(6) 0.230(12) 0.104(9) 0.032(11) -0.023(6) 0.038(8)
C4A 0.065(7) 0.173(9) 0.096(9) 0.001(8) -0.027(6) 0.037(6)
C5A 0.075(6) 0.131(7) 0.029(6) 0.000(7) 0.011(6) 0.049(5)
C6A 0.084(6) 0.153(8) 0.058(7) 0.009(6) 0.005(5) 0.076(6)
C7 0.070(3) 0.088(3) 0.0376(19) 0.0053(19) 0.0126(17) 0.036(2)
C8 0.069(2) 0.077(3) 0.0361(18) 0.0012(17) 0.0139(17) 0.030(2)
C9 0.064(2) 0.072(3) 0.0389(19) -0.0040(17) 0.0129(16) 0.0172(19)
C10 0.069(2) 0.059(2) 0.0346(18) -0.0029(15) 0.0155(16) 0.0144(18)
C11 0.071(2) 0.057(2) 0.0287(16) -0.0007(14) 0.0115(15) 0.0178(18)
C12 0.077(2) 0.0492(19) 0.0277(16) 0.0036(14) 0.0113(15) 0.0216(17)
C13 0.075(2) 0.058(2) 0.0314(17) 0.0055(15) 0.0147(16) 0.0212(18)
C14 0.075(2) 0.057(2) 0.0371(18) 0.0000(16) 0.0161(17) 0.0159(19)
C15 0.087(3) 0.047(2) 0.0313(17) -0.0013(14) 0.0222(17) 0.0150(18)
C16 0.134(4) 0.056(2) 0.038(2) 0.0050(17) 0.037(2) 0.017(2)
C17 0.146(5) 0.064(3) 0.043(2) 0.0120(19) 0.040(3) 0.043(3)
C18 0.203(7) 0.058(3) 0.056(3) 0.004(2) 0.068(4) 0.004(3)
C19 0.081(3) 0.055(2) 0.0263(16) 0.0043(14) 0.0121(16) 0.0249(18)
C20 0.077(2) 0.054(2) 0.0320(16) 0.0046(15) 0.0059(16) 0.0220(18)
C21 0.069(2) 0.063(2) 0.0350(18) 0.0045(16) 0.0059(16) 0.0182(19)
C22 0.073(2) 0.072(3) 0.0305(17) 0.0028(16) 0.0089(16) 0.026(2)
loop_
_atom_type_symbol
_atom_type_description
_atom_type_scat_dispersion_real
_atom_type_scat_dispersion_imag
_atom_type_scat_source
C C 0.0137 0.0067 'International Tables Vol C Tables 4.2.6.8 and 6.1.1.4'
H H 0.0000 0.0000 'International Tables Vol C Tables 4.2.6.8 and 6.1.1.4'
N N 0.0241 0.0134 'International Tables Vol C Tables 4.2.6.8 and 6.1.1.4'
Zn Zn -2.7473 0.5279 'International Tables Vol C Tables 4.2.6.8 and 6.1.1.4'
loop_
_geom_angle_atom_site_label_1
_geom_angle_atom_site_label_2
_geom_angle_atom_site_label_3
_geom_angle
_geom_angle_site_symmetry_1
_geom_angle_site_symmetry_3
_geom_angle_publ_flag
Zn1 Zn1 N2 80.13(14) 7_656 . ?
Zn1 Zn1 N1 74.40(14) 7_656 7_656 ?
N2 Zn1 N1 88.17(12) . 7_656 ?
Zn1 Zn1 N1 71.95(14) 7_656 . ?
N2 Zn1 N1 86.15(13) . . ?
N1 Zn1 N1 146.35(7) 7_656 . ?
Zn1 Zn1 N2 66.15(13) 7_656 7_656 ?
N2 Zn1 N2 146.28(7) . 7_656 ?
N1 Zn1 N2 83.00(13) 7_656 7_656 ?
N1 Zn1 N2 83.56(13) . 7_656 ?
Zn1 Zn1 N4 170.45(14) 7_656 6 ?
N2 Zn1 N4 106.94(18) . 6 ?
N1 Zn1 N4 99.06(18) 7_656 6 ?
N1 Zn1 N4 114.33(18) . 6 ?
N2 Zn1 N4 106.57(16) 7_656 6 ?
C22 N1 C19 106.6(3) . . ?
C22 N1 Zn1 121.2(3) . 7_656 ?
C19 N1 Zn1 127.5(2) . 7_656 ?
C22 N1 Zn1 127.9(2) . . ?
C19 N1 Zn1 123.0(3) . . ?
Zn1 N1 Zn1 33.66(7) 7_656 . ?
C11 N2 C8 106.6(3) . . ?
C11 N2 Zn1 124.9(2) . . ?
C8 N2 Zn1 121.6(2) . . ?
C11 N2 Zn1 126.1(3) . 7_656 ?
C8 N2 Zn1 125.9(2) . 7_656 ?
Zn1 N2 Zn1 33.72(7) . 7_656 ?
C16 N4 C17 118.6(4) . . ?
C16 N4 Zn1 129.6(3) . 6_556 ?
C17 N4 Zn1 110.2(3) . 6_556 ?
C2 C1 H1A 109.5 . . ?
C2 C1 H1B 109.5 . . ?
H1A C1 H1B 109.5 . . ?
C2 C1 H1C 109.5 . . ?
H1A C1 H1C 109.5 . . ?
H1B C1 H1C 109.5 . . ?
C2 N3 C6 120.0 . . ?
C3 C2 N3 120.0 . . ?
C3 C2 C1 109.6(18) . . ?
N3 C2 C1 130.4(18) . . ?
C2 C3 C4 120.0 . . ?
C2 C3 H3 120.0 . . ?
C4 C3 H3 120.0 . . ?
C3 C4 C5 120.0 . . ?
C3 C4 H4 120.0 . . ?
C5 C4 H4 120.0 . . ?
C6 C5 C4 120.0 . . ?
C6 C5 C7 127.1(16) . . ?
C4 C5 C7 112.9(16) . . ?
C5 C6 N3 120.0 . . ?
C5 C6 H6 120.0 . . ?
N3 C6 H6 120.0 . . ?
C2A C1A H1A1 109.5 . . ?
C2A C1A H1A2 109.5 . . ?
H1A1 C1A H1A2 109.5 . . ?
C2A C1A H1A3 109.5 . . ?
H1A1 C1A H1A3 109.5 . . ?
H1A2 C1A H1A3 109.5 . . ?
C2A N3A C6A 120.0 . . ?
C3A C2A N3A 120.0 . . ?
C3A C2A C1A 124.8(12) . . ?
N3A C2A C1A 115.2(12) . . ?
C2A C3A C4A 120.0 . . ?
C2A C3A H3A 120.0 . . ?
C4A C3A H3A 120.0 . . ?
C5A C4A C3A 120.0 . . ?
C5A C4A H4A 120.0 . . ?
C3A C4A H4A 120.0 . . ?
C4A C5A C6A 120.0 . . ?
C4A C5A C7 115.1(10) . . ?
C6A C5A C7 124.9(10) . . ?
C5A C6A N3A 120.0 . . ?
C5A C6A H6A 120.0 . . ?
N3A C6A H6A 120.0 . . ?
C8 C7 C22 125.5(4) . 7_656 ?
C8 C7 C5A 118.1(8) . . ?
C22 C7 C5A 116.4(7) 7_656 . ?
C8 C7 C5 115.7(11) . . ?
C22 C7 C5 118.8(11) 7_656 . ?
N2 C8 C7 126.5(4) . . ?
N2 C8 C9 109.4(3) . . ?
C7 C8 C9 124.0(4) . . ?
C10 C9 C8 107.1(4) . . ?
C10 C9 H9 126.4 . . ?
C8 C9 H9 126.4 . . ?
C9 C10 C11 107.2(3) . . ?
C9 C10 H10 126.4 . . ?
C11 C10 H10 126.4 . . ?
N2 C11 C12 125.3(3) . . ?
N2 C11 C10 109.6(3) . . ?
C12 C11 C10 125.0(3) . . ?
C19 C12 C11 125.4(3) . . ?
C19 C12 C13 118.1(3) . . ?
C11 C12 C13 116.4(3) . . ?
C17 C13 C14 115.9(3) . . ?
C17 C13 C12 122.1(3) . . ?
C14 C13 C12 122.0(3) . . ?
C15 C14 C13 121.8(4) . . ?
C15 C14 H14 119.1 . . ?
C13 C14 H14 119.1 . . ?
C16 C15 C14 119.3(3) . . ?
C16 C15 H15 120.3 . . ?
C14 C15 H15 120.3 . . ?
C15 C16 N4 120.8(4) . . ?
C15 C16 C18 119.8(4) . . ?
N4 C16 C18 119.4(4) . . ?
N4 C17 C13 123.1(4) . . ?
N4 C17 H17 118.5 . . ?
C13 C17 H17 118.5 . . ?
C16 C18 H18A 109.5 . . ?
C16 C18 H18B 109.5 . . ?
H18A C18 H18B 109.5 . . ?
C16 C18 H18C 109.5 . . ?
H18A C18 H18C 109.5 . . ?
H18B C18 H18C 109.5 . . ?
N1 C19 C12 125.4(3) . . ?
N1 C19 C20 108.6(3) . . ?
C12 C19 C20 125.9(3) . . ?
C21 C20 C19 107.8(3) . . ?
C21 C20 H20 126.1 . . ?
C19 C20 H20 126.1 . . ?
C20 C21 C22 106.2(3) . . ?
C20 C21 H21 126.9 . . ?
C22 C21 H21 126.9 . . ?
N1 C22 C7 125.2(3) . 7_656 ?
N1 C22 C21 110.8(3) . . ?
C7 C22 C21 124.0(4) 7_656 . ?
loop_
_geom_bond_atom_site_label_1
_geom_bond_atom_site_label_2
_geom_bond_distance
_geom_bond_site_symmetry_2
_geom_bond_publ_flag
Zn1 Zn1 1.241(2) 7_656 ?
Zn1 N2 2.045(3) . ?
Zn1 N1 2.129(3) 7_656 ?
Zn1 N1 2.157(3) . ?
Zn1 N2 2.203(3) 7_656 ?
Zn1 N4 2.246(4) 6 ?
N1 C22 1.363(5) . ?
N1 C19 1.370(4) . ?
N2 C11 1.371(4) . ?
N2 C8 1.374(5) . ?
N4 C16 1.353(6) . ?
N4 C17 1.359(5) . ?
C1 C2 1.479(19) . ?
C1 H1A 0.9800 . ?
C1 H1B 0.9800 . ?
C1 H1C 0.9800 . ?
N3 C2 1.3900 . ?
N3 C6 1.3900 . ?
C2 C3 1.3900 . ?
C3 C4 1.3900 . ?
C3 H3 0.9500 . ?
C4 C5 1.3900 . ?
C4 H4 0.9500 . ?
C5 C6 1.3900 . ?
C5 C7 1.538(13) . ?
C6 H6 0.9500 . ?
C1A C2A 1.489(12) . ?
C1A H1A1 0.9800 . ?
C1A H1A2 0.9800 . ?
C1A H1A3 0.9800 . ?
N3A C2A 1.3900 . ?
N3A C6A 1.3900 . ?
C2A C3A 1.3900 . ?
C3A C4A 1.3900 . ?
C3A H3A 0.9500 . ?
C4A C5A 1.3900 . ?
C4A H4A 0.9500 . ?
C5A C6A 1.3900 . ?
C5A C7 1.477(9) . ?
C6A H6A 0.9500 . ?
C7 C8 1.393(5) . ?
C7 C22 1.413(5) 7_656 ?
C8 C9 1.440(5) . ?
C9 C10 1.352(6) . ?
C9 H9 0.9500 . ?
C10 C11 1.438(5) . ?
C10 H10 0.9500 . ?
C11 C12 1.403(5) . ?
C12 C19 1.394(6) . ?
C12 C13 1.494(5) . ?
C13 C17 1.363(6) . ?
C13 C14 1.384(5) . ?
C14 C15 1.359(5) . ?
C14 H14 0.9500 . ?
C15 C16 1.351(6) . ?
C15 H15 0.9500 . ?
C16 C18 1.501(5) . ?
C17 H17 0.9500 . ?
C18 H18A 0.9800 . ?
C18 H18B 0.9800 . ?
C18 H18C 0.9800 . ?
C19 C20 1.456(5) . ?
C20 C21 1.345(6) . ?
C20 H20 0.9500 . ?
C21 C22 1.439(5) . ?
C21 H21 0.9500 . ?
