#------------------------------------------------------------------------------
#$Date: 2020-10-06 11:52:17 +0300 (Tue, 06 Oct 2020) $
#$Revision: 257543 $
#$URL: file:///home/coder/svn-repositories/cod/cif/7/70/52/7705260.cif $
#------------------------------------------------------------------------------
#
# This file is available in the Crystallography Open Database (COD),
# http://www.crystallography.net/
#
# All data on this site have been placed in the public domain by the
# contributors.
#
data_7705260
loop_
_publ_author_name
'Xu, Bo-Wei'
'Niu, Ru-Jie'
'Liu, Quan'
'Yang, Jun-Yi'
'Zhang, Wen-Hua'
'Young, David J.'
_publ_section_title
;
 Similarities and differences between Mn(II) and Zn(II) coordination
 polymers supported by porphyrin-based ligands: synthesis, structures and
 nonlinear optical properties.
;
_journal_issue                   36
_journal_name_full
'Dalton transactions (Cambridge, England : 2003)'
_journal_page_first              12622
_journal_page_last               12631
_journal_paper_doi               10.1039/d0dt02450c
_journal_volume                  49
_journal_year                    2020
_chemical_formula_moiety         'C44 H32 Mn N8 [+ solvent]'
_chemical_formula_sum            'C44 H32 Mn N8'
_chemical_formula_weight         727.71
_space_group_crystal_system      monoclinic
_space_group_IT_number           5
_space_group_name_Hall           'C 2y'
_space_group_name_H-M_alt        'C 1 2 1'
_atom_sites_solution_hydrogens   geom
_audit_creation_method           SHELXL-2016/6
_audit_update_record
;
2020-06-16 deposited with the CCDC.	2020-08-24 downloaded from the CCDC.
;
_cell_angle_alpha                90
_cell_angle_beta                 95.861(2)
_cell_angle_gamma                90
_cell_formula_units_Z            4
_cell_length_a                   31.541(2)
_cell_length_b                   9.6191(8)
_cell_length_c                   14.6584(10)
_cell_measurement_reflns_used    7257
_cell_measurement_temperature    180(2)
_cell_measurement_theta_max      25.09
_cell_measurement_theta_min      3.11
_cell_volume                     4424.1(6)
_computing_cell_refinement       'Bruker ApexII'
_computing_data_collection       'Bruker ApexII'
_computing_data_reduction        'Bruker ApexII'
_computing_molecular_graphics    'SHELXL-2016/6 (Sheldrick, 2016)'
_computing_publication_material  'publCIF (Westrip, 2010)'
_computing_structure_refinement  'SHELXL-2016/6 (Sheldrick, 2016)'
_computing_structure_solution    'SHELXL-2016/6 (Sheldrick, 2016)'
_diffrn_ambient_temperature      180(2)
_diffrn_measured_fraction_theta_full 0.997
_diffrn_measured_fraction_theta_max 0.993
_diffrn_measurement_device_type  'Bruker APEX II'
_diffrn_measurement_method       'phi and omega scans'
_diffrn_radiation_type           MoK\a
_diffrn_radiation_wavelength     0.71073
_diffrn_reflns_av_R_equivalents  0.1054
_diffrn_reflns_av_unetI/netI     0.1820
_diffrn_reflns_Laue_measured_fraction_full 0.997
_diffrn_reflns_Laue_measured_fraction_max 0.993
_diffrn_reflns_limit_h_max       40
_diffrn_reflns_limit_h_min       -42
_diffrn_reflns_limit_k_max       12
_diffrn_reflns_limit_k_min       -12
_diffrn_reflns_limit_l_max       19
_diffrn_reflns_limit_l_min       -19
_diffrn_reflns_number            32935
_diffrn_reflns_point_group_measured_fraction_full 0.998
_diffrn_reflns_point_group_measured_fraction_max 0.994
_diffrn_reflns_theta_full        25.242
_diffrn_reflns_theta_max         28.520
_diffrn_reflns_theta_min         3.072
_diffrn_standards_decay_%        0
_diffrn_standards_interval_count 0
_diffrn_standards_interval_time  0
_diffrn_standards_number         0
_exptl_absorpt_coefficient_mu    0.335
_exptl_absorpt_correction_T_max  0.983
_exptl_absorpt_correction_T_min  0.967
_exptl_absorpt_correction_type   multi-scan
_exptl_absorpt_process_details
;
 Sheldrick, G.M. SADABS (Program for Scaling and Correction of Area Detector
 Data), version 2008/1; University of G\"ottingen: G\"ottingen, Germany, 2008.
;
_exptl_crystal_colour            black
_exptl_crystal_density_diffrn    1.093
_exptl_crystal_description       block
_exptl_crystal_F_000             1508
_exptl_crystal_size_max          0.100
_exptl_crystal_size_mid          0.100
_exptl_crystal_size_min          0.050
_refine_diff_density_max         1.489
_refine_diff_density_min         -0.405
_refine_diff_density_rms         0.082
_refine_ls_abs_structure_details
;
 Refined as an inversion twin.
;
_refine_ls_abs_structure_Flack   0.38(3)
_refine_ls_extinction_method     none
_refine_ls_goodness_of_fit_ref   0.965
_refine_ls_hydrogen_treatment    constr
_refine_ls_matrix_type           full
_refine_ls_number_parameters     483
_refine_ls_number_reflns         11137
_refine_ls_number_restraints     25
_refine_ls_restrained_S_all      0.977
_refine_ls_R_factor_all          0.1672
_refine_ls_R_factor_gt           0.0793
_refine_ls_shift/su_max          0.004
_refine_ls_shift/su_mean         0.000
_refine_ls_structure_factor_coef Fsqd
_refine_ls_weighting_details
'w=1/[\s^2^(Fo^2^)+(0.0978P)^2^] where P=(Fo^2^+2Fc^2^)/3'
_refine_ls_weighting_scheme      calc
_refine_ls_wR_factor_gt          0.1559
_refine_ls_wR_factor_ref         0.1896
_reflns_Friedel_coverage         0.891
_reflns_Friedel_fraction_full    0.999
_reflns_Friedel_fraction_max     0.995
_reflns_number_gt                6078
_reflns_number_total             11137
_reflns_threshold_expression     'I > 2\s(I)'
_cod_data_source_file            d0dt02450c2.cif
_cod_data_source_block           MN-TMPP
_cod_depositor_comments
'Adding full bibliography for 7705260--7705263.cif.'
_cod_original_sg_symbol_H-M      'C 2'
_cod_database_code               7705260
_publcif_datablock.id            {ac8c9d45-bf97-42c8-83e8-833743456a5b}
_shelx_shelxl_version_number     2016/6
_shelx_space_group_comment
;
The symmetry employed for this shelxl refinement is uniquely defined
by the following loop, which should always be used as a source of
symmetry information in preference to the above space-group names.
They are only intended as comments.
;
_shelx_estimated_absorpt_t_min   0.967
_shelx_estimated_absorpt_t_max   0.983
_shelx_res_file
;
TITL T in C2
    MN.res
    created by SHELXL-2016/6 at 19:02:16 on 20-Jul-2019
CELL 0.71073 31.5411 9.6191 14.6584 90 95.8609 90
ZERR 4 0.0024 0.0008 0.001 0 0.0024 0
LATT -7
SYMM -X,+Y,-Z
SFAC C H N Mn
UNIT 176 128 32 4

L.S. 50
PLAN  20
SIZE 0.05 0.1 0.1
TEMP -93
ACTA
BOND $H
FMAP 2
ISOR 0.01 C16 C17 C38 C39
TWIN
ABIN
WGHT    0.097800
BASF   0.38488
FVAR       0.25471
MN1   4    0.261916    1.000496   -0.241782    11.00000    0.02799    0.02529 =
         0.01746    0.00243    0.00522    0.00525
N1    3    0.290620    0.877041   -0.132000    11.00000    0.02324    0.02410 =
         0.01446    0.00231    0.00476    0.00741
N2    3    0.205092    0.985245   -0.175760    11.00000    0.01827    0.02301 =
         0.01782    0.00207   -0.00091    0.00716
N3    3    0.222019    1.023046   -0.366229    11.00000    0.02444    0.02604 =
         0.01474    0.00129    0.00345    0.00842
N4    3    0.307210    0.917185   -0.323208    11.00000    0.02415    0.02812 =
         0.01905   -0.00144    0.00767    0.00669
N5    3    0.309052    0.943043   -0.712623    11.00000    0.05739    0.02760 =
         0.03101   -0.00099    0.01761   -0.00318
N6    3    0.479090    0.840387   -0.145790    11.00000    0.04704    0.29143 =
         0.07007   -0.03423    0.00506   -0.01906
N7    3    0.218084    0.713888    0.194286    11.00000    0.02986    0.02305 =
         0.01966    0.00124    0.00634    0.00286
N8    3    0.051799    1.264288   -0.354092    11.00000    0.11633    0.16278 =
         0.08599    0.03043    0.03132    0.09004
C1    1    0.188358    0.780496    0.334795    11.00000    0.06015    0.03562 =
         0.02863    0.00162    0.01715    0.00455
AFIX 137
H1A   2    0.167680    0.704267    0.327373    11.00000   -1.50000
H1B   2    0.175056    0.861775    0.360406    11.00000   -1.50000
H1C   2    0.213057    0.751422    0.376426    11.00000   -1.50000
AFIX   0
C2    1    0.202516    0.817138    0.243554    11.00000    0.03359    0.03156 =
         0.02098    0.00480    0.00944    0.00223
C3    1    0.200332    0.949310    0.210741    11.00000    0.04658    0.02640 =
         0.02305   -0.00362    0.00627    0.01352
AFIX  43
H3    2    0.190412    1.021179    0.247615    11.00000   -1.20000
AFIX   0
C4    1    0.212365    0.982388    0.123713    11.00000    0.03839    0.03479 =
         0.01524    0.00669    0.00090    0.00293
AFIX  43
H4    2    0.211369    1.075338    0.101694    11.00000   -1.20000
AFIX   0
C5    1    0.225756    0.874163    0.071159    11.00000    0.03006    0.02614 =
         0.01240    0.00335    0.00396    0.00787
C6    1    0.228590    0.742254    0.109966    11.00000    0.02618    0.02462 =
         0.01558   -0.00325    0.00623    0.00172
AFIX  43
H6    2    0.238504    0.668246    0.074844    11.00000   -1.20000
AFIX   0
C7    1    0.235846    0.898229   -0.025034    11.00000    0.02921    0.01521 =
         0.02275   -0.00340    0.00613   -0.00020
C8    1    0.276959    0.863294   -0.046073    11.00000    0.02120    0.01680 =
         0.01540    0.00282    0.00398    0.00409
C9    1    0.311735    0.813702    0.015659    11.00000    0.03304    0.02508 =
         0.01065   -0.00073   -0.00275    0.00471
AFIX  43
H9    2    0.311151    0.797578    0.079458    11.00000   -1.20000
AFIX   0
C10   1    0.344846    0.794179   -0.031457    11.00000    0.02013    0.03360 =
         0.02050   -0.00097    0.00099    0.00703
AFIX  43
H10   2    0.371980    0.759669   -0.007775    11.00000   -1.20000
AFIX   0
C11   1    0.332467    0.834513   -0.125014    11.00000    0.02252    0.03114 =
         0.01679    0.00262    0.00130    0.00170
C12   1    0.358267    0.830567   -0.196781    11.00000    0.01653    0.03732 =
         0.02624    0.00354    0.00273    0.00059
C13   1    0.403851    0.787451   -0.172713    11.00000    0.02848    0.07465 =
         0.02221    0.00707    0.00156    0.01514
C14   1    0.435734    0.883962   -0.169268    11.00000    0.03217    0.21851 =
         0.07455   -0.03062   -0.01063   -0.02491
AFIX  43
H14   2    0.429338    0.978872   -0.182244    11.00000   -1.20000
AFIX   0
C15   1    0.454723    0.607392   -0.139173    11.00000    0.08737    0.16406 =
         0.06786    0.00404   -0.00058    0.09191
AFIX  43
H15   2    0.460591    0.511182   -0.130368    11.00000   -1.20000
AFIX   0
C16   1    0.482460    0.692317   -0.133207    11.00000    0.08961    0.14506 =
         0.05345    0.00177    0.00865    0.03081
C17   1    0.532509    0.658444   -0.111536    11.00000    0.05919    0.30612 =
         0.09263    0.00704    0.00426    0.09909
AFIX 137
H17A  2    0.538212    0.625592   -0.048186    11.00000   -1.50000
H17B  2    0.549109    0.742867   -0.119634    11.00000   -1.50000
H17C  2    0.540643    0.586273   -0.153607    11.00000   -1.50000
AFIX   0
C18   1    0.414670    0.654951   -0.159030    11.00000    0.05933    0.13380 =
         0.08616    0.02669    0.00154    0.07204
AFIX  43
H18   2    0.392321    0.588324   -0.163633    11.00000   -1.20000
AFIX   0
C19   1    0.346739    0.870019   -0.288435    11.00000    0.02350    0.03522 =
         0.02456   -0.00267    0.00160    0.00298
C20   1    0.373679    0.867974   -0.360143    11.00000    0.02460    0.05436 =
         0.03407    0.00481    0.00751    0.01140
AFIX  43
H20   2    0.402599    0.838756   -0.354579    11.00000   -1.20000
AFIX   0
C21   1    0.351772    0.913657   -0.436293    11.00000    0.02494    0.04125 =
         0.01886   -0.00529    0.01007    0.00323
AFIX  43
H21   2    0.362112    0.924277   -0.494534    11.00000   -1.20000
AFIX   0
C22   1    0.309490    0.944000   -0.414033    11.00000    0.03711    0.02385 =
         0.01630   -0.00382    0.00543    0.00512
C23   1    0.276265    1.000478   -0.474390    11.00000    0.04063    0.01609 =
         0.01270    0.00591    0.00644    0.00381
C24   1    0.286207    1.025470   -0.570463    11.00000    0.02889    0.03379 =
         0.01751    0.00023    0.00711    0.00469
C25   1    0.286763    1.158627   -0.602777    11.00000    0.07938    0.02720 =
         0.02711    0.00288    0.02408    0.01690
AFIX  43
H25   2    0.278009    1.233957   -0.567212    11.00000   -1.20000
AFIX   0
C26   1    0.300396    1.181656   -0.688743    11.00000    0.10069    0.03117 =
         0.02471    0.01206    0.02718    0.00587
AFIX  43
H26   2    0.302353    1.273634   -0.711545    11.00000   -1.20000
AFIX   0
C27   1    0.310706    1.073422   -0.738929    11.00000    0.05154    0.02915 =
         0.02271   -0.00331    0.00517    0.00088
C28   1    0.327704    1.098654   -0.831564    11.00000    0.09592    0.03381 =
         0.03796    0.00214    0.03130   -0.00749
AFIX 137
H28A  2    0.349473    1.028964   -0.841174    11.00000   -1.50000
H28B  2    0.340281    1.191761   -0.832266    11.00000   -1.50000
H28C  2    0.304251    1.091407   -0.880614    11.00000   -1.50000
AFIX   0
C29   1    0.296358    0.921032   -0.628140    11.00000    0.03592    0.02532 =
         0.02651    0.00066    0.01203    0.00645
AFIX  43
H29   2    0.294379    0.827755   -0.607703    11.00000   -1.20000
AFIX   0
C30   1    0.235332    1.030597   -0.451609    11.00000    0.03036    0.02298 =
         0.01444    0.00102    0.00112    0.00489
C31   1    0.200017    1.075250   -0.515653    11.00000    0.03352    0.03155 =
         0.01585    0.00305   -0.00026    0.00319
AFIX  43
H31   2    0.200763    1.092501   -0.579282    11.00000   -1.20000
AFIX   0
C32   1    0.166456    1.087537   -0.468847    11.00000    0.03590    0.03248 =
         0.02183    0.00546   -0.00166    0.00603
AFIX  43
H32   2    0.138478    1.112838   -0.493378    11.00000   -1.20000
AFIX   0
C33   1    0.179729    1.055998   -0.374749    11.00000    0.03053    0.02655 =
         0.01821   -0.00148    0.00003    0.00912
C34   1    0.153284    1.055558   -0.303590    11.00000    0.02940    0.03116 =
         0.02218    0.00093    0.00057    0.01112
C35   1    0.107886    1.095199   -0.326568    11.00000    0.02546    0.07859 =
         0.02387    0.00890    0.00413    0.01194
C36   1    0.076190    1.001034   -0.344068    11.00000    0.03240    0.16019 =
         0.10752   -0.02761   -0.01291   -0.03134
AFIX  43
H36   2    0.083470    0.905171   -0.342027    11.00000   -1.20000
AFIX   0
C37   1    0.034800    1.035753   -0.364265    11.00000    0.03406    0.20088 =
         0.11210   -0.04132   -0.01745   -0.01585
AFIX  43
H37   2    0.013866    0.965457   -0.376898    11.00000   -1.20000
AFIX   0
C38   1    0.024325    1.160102   -0.366196    11.00000    0.06623    0.13273 =
         0.05178   -0.00032    0.00540    0.02860
C39   1   -0.020146    1.219482   -0.385053    11.00000    0.05164    0.29058 =
         0.07634   -0.00004    0.00318    0.07761
AFIX 137
H39A  2   -0.039970    1.145337   -0.406782    11.00000   -1.50000
H39B  2   -0.020247    1.291987   -0.432042    11.00000   -1.50000
H39C  2   -0.029016    1.259569   -0.328544    11.00000   -1.50000
AFIX   0
C40   1    0.095196    1.226429   -0.330320    11.00000    0.03945    0.09468 =
         0.09295    0.01718    0.00820    0.03657
AFIX  43
H40   2    0.115706    1.297744   -0.316711    11.00000   -1.20000
AFIX   0
C41   1    0.165082    1.017865   -0.211299    11.00000    0.02688    0.01926 =
         0.01934   -0.00001    0.00276    0.01050
C42   1    0.136026    1.001836   -0.142556    11.00000    0.01508    0.03723 =
         0.02537   -0.00967    0.00723    0.00503
AFIX  43
H42   2    0.106160    1.017965   -0.150400    11.00000   -1.20000
AFIX   0
C43   1    0.158504    0.960630   -0.066670    11.00000    0.02676    0.04209 =
         0.01926    0.00182    0.00989    0.00328
AFIX  43
H43   2    0.147777    0.943564   -0.009465    11.00000   -1.20000
AFIX   0
C44   1    0.202493    0.945900   -0.085793    11.00000    0.02905    0.02378 =
         0.01444   -0.00034    0.00592    0.00292

HKLF 4




REM  T in C2
REM R1 =  0.0793 for    6078 Fo > 4sig(Fo)  and  0.1672 for all   11137 data
REM    483 parameters refined using     25 restraints

END

WGHT      0.0954      0.0000

REM Highest difference peak  1.489,  deepest hole -0.405,  1-sigma level  0.082
Q1    1   0.2446  0.8735 -0.2546  11.00000  0.05    1.49
Q2    1   0.2457  1.1296 -0.2544  11.00000  0.05    0.83
Q3    1   0.2923  1.0607 -0.4269  11.00000  0.05    0.41
Q4    1   0.2269  0.6205  0.2188  11.00000  0.05    0.36
Q5    1   0.1541  0.8079  0.3207  11.00000  0.05    0.35
Q6    1   0.1969  1.0541 -0.5357  11.00000  0.05    0.34
Q7    1   0.1897  1.1476 -0.5205  11.00000  0.05    0.33
Q8    1   0.2210  0.8223  0.0820  11.00000  0.05    0.33
Q9    1   0.2409  0.9935 -0.3205  11.00000  0.05    0.32
Q10   1   0.2755  0.9793 -0.5846  11.00000  0.05    0.31
Q11   1   0.2136  0.6454  0.1182  11.00000  0.05    0.31
Q12   1   0.3049  1.1412 -0.7447  11.00000  0.05    0.30
Q13   1   0.2981  1.0779 -0.7010  11.00000  0.05    0.30
Q14   1   0.0167  0.9207 -0.3590  11.00000  0.05    0.30
Q15   1   0.1946  0.9775 -0.3760  11.00000  0.05    0.30
Q16   1   0.2267  1.0017 -0.1950  11.00000  0.05    0.30
Q17   1   0.2042  0.9115  0.0783  11.00000  0.05    0.30
Q18   1   0.5168  0.5181 -0.1037  11.00000  0.05    0.29
Q19   1   0.4945  0.7767 -0.1349  11.00000  0.05    0.29
Q20   1   0.4202  0.8687 -0.1828  11.00000  0.05    0.29
;
_shelx_res_checksum              71013
_shelx_fab_file
;
    0   12    0     -5.46     -3.04
    2   12    0     -6.51     -1.74
    4   12    0     -5.18      0.69
    6   12    0      2.36      0.72
    8   12    0      9.36     -2.59
   10   12    0      8.36     -4.59
   12   12    0      1.93     -2.93
   14   12    0     -3.14     -1.80
    1   11    0      7.70     -4.18
    3   11    0      4.35     -6.04
    5   11    0     -2.06     -2.41
    7   11    0     -4.57      6.86
    9   11    0     -0.49     11.35
   11   11    0      2.82      5.94
   13   11    0      3.03     -1.47
   15   11    0      4.45     -3.00
   17   11    0      5.11      0.18
   19   11    0      1.49      3.51
   21   11    0     -2.03      3.61
    0   10    0     -0.93      4.46
    2   10    0     -0.90      5.57
    4   10    0     -0.20      4.40
    6   10    0     -0.12     -0.67
    8   10    0     -1.98     -2.63
   10   10    0     -2.53     -0.47
   12   10    0     -0.48      1.64
   14   10    0      0.63      3.42
   16   10    0     -0.18      3.46
   18   10    0     -1.60     -0.62
   20   10    0     -3.34     -4.26
   22   10    0     -3.56     -2.51
   24   10    0     -1.25      0.91
   26   10    0      0.98      1.24
    1    9    0      1.06      0.08
    3    9    0     -2.05     -3.83
    5    9    0     -2.56     -3.79
    7    9    0     -0.46     -0.72
    9    9    0      0.35      0.12
   11    9    0     -0.25     -0.65
   13    9    0     -1.15     -0.46
   15    9    0     -1.36      1.05
   17    9    0      0.91      1.82
   19    9    0      4.01      0.33
   21    9    0      3.40     -1.05
   23    9    0     -0.60     -1.22
   25    9    0     -2.92     -1.55
   27    9    0     -1.83     -0.18
   29    9    0      0.00      3.14
    0    8    0     -1.41      1.26
    2    8    0      0.72      1.06
    4    8    0      2.78      0.73
    6    8    0      1.98      1.20
    8    8    0      1.72      1.40
   10    8    0      2.25      0.31
   12    8    0      1.70     -0.52
   14    8    0      0.06     -0.28
   16    8    0     -1.45      0.45
   18    8    0     -0.97      2.39
   20    8    0     -0.28      4.11
   22    8    0     -1.55      2.01
   24    8    0     -0.69     -2.58
   26    8    0      2.38     -4.41
   28    8    0      0.62     -1.54
   30    8    0     -4.01      2.64
   32    8    0     -3.43      3.30
    1    7    0     -0.57      1.67
    3    7    0     -2.13      2.83
    5    7    0     -3.04      1.46
    7    7    0     -2.83      0.54
    9    7    0     -1.21      2.73
   11    7    0      0.86      4.11
   13    7    0      0.34      2.29
   15    7    0     -2.03     -0.27
   17    7    0     -3.80     -1.16
   19    7    0     -4.55     -1.15
   21    7    0     -2.99     -2.48
   23    7    0      0.18     -3.16
   25    7    0      1.68     -0.12
   27    7    0      1.39      1.20
   29    7    0      0.10     -3.98
   31    7    0     -2.32     -7.55
   33    7    0     -3.70     -3.37
   35    7    0     -2.82      1.07
    0    6    0      0.14      1.19
    2    6    0     -2.09     -1.55
    4    6    0     -2.79     -4.35
    6    6    0      1.30     -2.26
    8    6    0      3.18     -0.53
   10    6    0     -0.23     -0.23
   12    6    0     -2.41      0.85
   14    6    0     -0.48      0.05
   16    6    0      1.72     -3.33
   18    6    0      2.37     -5.11
   20    6    0      2.64     -3.03
   22    6    0      2.66      0.23
   24    6    0      1.20      1.09
   26    6    0     -0.45      0.63
   28    6    0      2.37      2.09
   30    6    0      7.96      3.45
   32    6    0      7.47      1.16
   34    6    0      1.27     -2.12
   36    6    0     -1.80     -1.77
    1    5    0    -10.05      3.72
    3    5    0      0.21     -1.87
    5    5    0      2.32     -1.66
    7    5    0     -3.96      4.50
    9    5    0     -4.84      6.09
   11    5    0     -1.24      1.79
   13    5    0     -0.75     -1.53
   15    5    0     -0.99     -1.37
   17    5    0      1.14      0.27
   19    5    0      2.96      0.97
   21    5    0      2.53      0.35
   23    5    0      0.61      0.62
   25    5    0     -1.23      1.50
   27    5    0     -2.53      0.76
   29    5    0     -4.38     -0.20
   31    5    0     -5.44     -0.12
   33    5    0     -3.22     -0.49
   35    5    0     -0.16     -1.28
   37    5    0      0.01     -2.48
    0    4    0      6.79    -24.25
    2    4    0      6.19    -11.89
    4    4    0      3.99      6.12
    6    4    0     -0.11      6.38
    8    4    0     -2.56     -2.65
   10    4    0     -1.40     -5.08
   12    4    0      1.77     -2.42
   14    4    0      3.52     -0.81
   16    4    0      2.28     -0.47
   18    4    0      1.35      0.54
   20    4    0      2.37      2.51
   22    4    0      1.52      2.46
   24    4    0     -1.82     -0.28
   26    4    0     -2.86     -1.45
   28    4    0      0.94     -0.89
   30    4    0      6.58     -1.46
   32    4    0      8.03     -1.01
   34    4    0      3.31      1.60
   36    4    0     -0.76      2.80
   38    4    0      1.51      1.96
    1    3    0     23.27     21.64
    3    3    0     -7.09      4.54
    5    3    0    -19.56     -7.27
    7    3    0     -6.47     -4.65
    9    3    0      3.34      0.87
   11    3    0      2.81      3.01
   13    3    0      0.28      4.66
   15    3    0     -0.60      4.25
   17    3    0      0.88      1.75
   19    3    0      0.37      1.55
   21    3    0     -3.02      2.52
   23    3    0     -2.51      1.77
   25    3    0      0.54      0.09
   27    3    0     -0.11     -1.16
   29    3    0     -1.95      0.19
   31    3    0     -2.61      3.15
   33    3    0     -4.17      1.75
   35    3    0     -4.18     -3.08
   37    3    0     -0.72     -3.63
   39    3    0      1.48     -0.14
    0    2    0    -87.57     76.80
    2    2    0    -48.12     42.59
    4    2    0     13.55     -7.83
    6    2    0     26.91    -14.80
    8    2    0      8.44     -2.70
   10    2    0     -1.21     -2.40
   12    2    0     -3.24     -6.46
   14    2    0     -7.02     -5.65
   16    2    0     -6.72      0.05
   18    2    0     -1.32      3.79
   20    2    0      2.08     -0.98
   22    2    0      0.74     -5.36
   24    2    0     -0.83     -1.32
   26    2    0      1.14      2.60
   28    2    0      2.90      0.57
   30    2    0      1.51     -2.24
   32    2    0      1.44     -2.63
   34    2    0      3.67     -1.47
   36    2    0      3.16      1.10
   38    2    0      0.20      4.13
   40    2    0     -0.58      4.65
    5    1    0      7.74     69.25
    7    1    0     18.21     59.99
    9    1    0     12.17     14.44
   11    1    0      9.14      3.34
   13    1    0      8.89      1.39
   15    1    0      5.06     -5.37
   17    1    0     -1.69     -6.52
   19    1    0     -2.12     -0.31
   21    1    0      2.18      4.63
   23    1    0      0.69      3.09
   25    1    0     -4.46      0.58
   27    1    0     -4.50      1.18
   29    1    0      0.03      1.31
   31    1    0      2.93      1.01
   33    1    0      1.46      2.21
   35    1    0     -1.22      1.19
   37    1    0     -2.19     -3.10
   39    1    0     -3.17     -4.97
   41    1    0     -4.03     -2.09
    6    0    0   -118.02      5.61
    8    0    0    -55.74      4.73
   10    0    0    -10.73      0.26
   12    0    0     -7.69     -1.53
   14    0    0     -3.45     -0.45
   16    0    0      5.16     -0.12
   18    0    0      6.04     -0.58
   20    0    0     -0.98     -0.12
   22    0    0     -5.26      0.46
   24    0    0     -1.57      0.02
   26    0    0      2.01     -0.57
   28    0    0      0.65     -0.24
   30    0    0     -1.69      0.37
   32    0    0     -2.71      0.24
   34    0    0     -1.65     -0.20
   36    0    0      2.73     -0.06
   38    0    0      7.14      0.28
   40    0    0      6.08      0.07
   42    0    0      1.06     -0.26
   40    4    0      5.09      0.94
  -14   12    1     -1.34      5.58
  -12   12    1     -3.04      5.97
  -10   12    1     -2.20      1.94
   -8   12    1      0.23     -0.76
   -6   12    1      0.72     -0.70
   -4   12    1     -0.76     -0.70
   -2   12    1     -1.24     -1.89
    0   12    1     -0.61     -2.44
    2   12    1     -0.46      0.28
    4   12    1      0.50      4.64
    6   12    1      2.29      4.59
    8   12    1      1.07      0.18
   10   12    1     -2.53     -1.10
   12   12    1     -2.59      1.46
   14   12    1      1.01      1.48
  -21   11    1      1.59     -2.87
  -19   11    1      0.29     -0.83
  -17   11    1     -1.17      0.15
  -15   11    1     -2.75     -3.73
  -13   11    1     -3.95     -6.24
  -11   11    1     -3.64     -1.92
   -9   11    1     -2.38      3.50
   -7   11    1     -0.62      2.88
   -5   11    1      1.55     -1.15
   -3   11    1      2.40     -1.67
   -1   11    1      1.86      1.47
    1   11    1      1.63      2.73
    3   11    1      0.75      1.12
    5   11    1     -0.71      1.00
    7   11    1     -0.13      2.36
    9   11    1     -0.07      0.85
   11   11    1     -3.74     -2.52
   13   11    1     -5.89     -2.59
   15   11    1     -3.08      0.51
   17   11    1     -0.67      2.67
   19   11    1     -0.86      2.71
   21   11    1     -0.41      1.39
  -26   10    1      1.18     -0.20
  -24   10    1     -0.31      1.47
  -22   10    1      2.10      3.06
  -20   10    1      3.38      1.59
  -18   10    1      1.40     -1.85
  -16   10    1      2.00     -3.24
  -14   10    1      5.34     -2.54
  -12   10    1      3.32     -2.42
  -10   10    1     -3.91     -2.41
   -8   10    1     -6.36     -0.27
   -6   10    1     -1.75      2.83
   -4   10    1      1.80      2.75
   -2   10    1      0.49     -0.84
    0   10    1     -1.76     -2.56
    2   10    1     -1.99     -0.09
    4   10    1     -1.43      2.29
    6   10    1     -1.55      1.64
    8   10    1     -0.97     -0.75
   10   10    1      1.61     -2.82
   12   10    1      3.41     -3.39
   14   10    1      1.75     -3.34
   16   10    1     -1.10     -3.21
   18   10    1     -2.04     -0.72
   20   10    1     -1.09      3.17
   22   10    1      0.24      3.25
   24   10    1      0.10     -0.58
   26   10    1     -1.88     -2.84
  -29    9    1     -4.94      5.45
  -27    9    1     -4.35      7.76
  -25    9    1      0.42      3.78
  -23    9    1      2.31     -0.97
  -21    9    1      0.34     -0.90
  -19    9    1     -0.24      1.45
  -17    9    1      1.24      1.96
  -15    9    1      1.85      2.48
  -13    9    1      2.09      3.67
  -11    9    1      2.44      0.97
   -9    9    1      0.71     -4.37
   -7    9    1     -1.97     -5.73
   -5    9    1     -1.71     -3.05
   -3    9    1      0.51      0.23
   -1    9    1      0.52      3.16
    1    9    1     -1.26      3.71
    3    9    1     -1.81      1.07
    5    9    1     -0.83     -1.42
    7    9    1      0.86     -1.31
    9    9    1      2.11      0.37
   11    9    1      1.37      0.97
   13    9    1      0.95     -0.56
   15    9    1      2.97     -1.89
   17    9    1      1.95     -1.62
   19    9    1     -4.21     -1.67
   21    9    1     -5.88     -3.06
   23    9    1      1.86     -4.05
   25    9    1      9.51     -2.67
   27    9    1      8.64      0.12
   29    9    1      2.87      0.97
  -32    8    1      3.68      0.73
  -30    8    1      0.53     -4.87
  -28    8    1     -5.54     -8.05
  -26    8    1     -6.90     -2.78
  -24    8    1     -2.77      3.72
  -22    8    1      0.99      3.78
  -20    8    1      0.75      0.06
  -18    8    1     -0.80     -1.50
  -16    8    1     -0.58     -0.65
  -14    8    1     -0.39     -0.41
  -12    8    1     -1.55     -0.54
  -10    8    1     -1.86     -0.05
   -8    8    1     -0.36     -0.46
   -6    8    1      1.92     -0.86
   -4    8    1      2.57      0.62
   -2    8    1     -0.36      1.01
    0    8    1     -3.05     -1.01
    2    8    1     -0.95     -1.77
    4    8    1      2.68     -0.22
    6    8    1      2.68      1.69
    8    8    1      0.22      2.82
   10    8    1     -0.11      2.22
   12    8    1      2.25      1.01
   14    8    1      2.64      1.73
   16    8    1      0.20      2.72
   18    8    1     -0.21      0.45
   20    8    1      1.63     -2.56
   22    8    1      1.70      0.28
   24    8    1     -0.35      8.40
   26    8    1     -2.73     12.20
   28    8    1     -3.22      6.72
   30    8    1     -0.59     -1.24
   32    8    1      1.59     -4.19
  -35    7    1      1.74      3.87
  -33    7    1     -1.67      7.39
  -31    7    1     -2.54      5.60
  -29    7    1      0.46     -0.42
  -27    7    1      1.75     -3.67
  -25    7    1      0.33     -2.28
  -23    7    1     -0.03     -0.75
  -21    7    1      1.91     -0.59
  -19    7    1      3.26     -0.02
  -17    7    1      1.67      0.88
  -15    7    1      0.77      1.71
  -13    7    1      2.86      2.21
  -11    7    1      2.68      0.31
   -9    7    1      0.01     -2.81
   -7    7    1      0.87     -1.83
   -5    7    1      2.78      1.87
   -3    7    1      0.41      0.96
   -1    7    1     -2.96     -3.39
    1    7    1     -3.01     -3.16
    3    7    1     -0.97      1.57
    5    7    1     -0.17      3.65
    7    7    1     -1.28      1.43
    9    7    1     -1.79      0.09
   11    7    1     -1.52      1.96
   13    7    1     -2.35      2.83
   15    7    1     -2.91      0.39
   17    7    1     -1.95     -1.45
   19    7    1     -0.18     -1.16
   21    7    1      2.01     -2.14
   23    7    1      1.83     -4.90
   25    7    1     -2.12     -6.67
   27    7    1     -4.89     -5.27
   29    7    1     -3.52      0.34
   31    7    1     -0.89      6.60
   33    7    1      0.93      6.93
   35    7    1      1.49      2.09
  -36    6    1     -5.10     -2.12
  -34    6    1     -7.18     -5.05
  -32    6    1     -6.02     -6.74
  -30    6    1     -2.46     -3.91
  -28    6    1      0.83      0.29
  -26    6    1      1.07      1.40
  -24    6    1     -0.24      0.85
  -22    6    1     -0.55      2.03
  -20    6    1     -0.87      3.86
  -18    6    1     -0.90      2.84
  -16    6    1     -0.29      0.69
  -14    6    1     -2.38      2.07
  -12    6    1     -4.25      3.79
  -10    6    1      0.16      0.17
   -8    6    1      4.13     -3.87
   -6    6    1      0.42     -1.58
   -4    6    1     -2.68      2.91
   -2    6    1      0.94      3.31
    0    6    1      3.12      1.51
    2    6    1     -1.37      1.74
    4    6    1     -5.44      2.46
    6    6    1     -3.00      1.17
    8    6    1      1.08      0.35
   10    6    1      0.67      0.27
   12    6    1     -1.44     -2.63
   14    6    1     -0.89     -5.40
   16    6    1      0.78     -3.34
   18    6    1      1.37     -0.10
   20    6    1      0.84      1.68
   22    6    1     -0.14      4.58
   24    6    1      0.84      6.40
   26    6    1      4.15      3.34
   28    6    1      3.95     -2.29
   30    6    1     -2.66     -6.37
   32    6    1     -7.46     -6.94
   34    6    1     -3.09     -4.53
   36    6    1      3.95     -1.83
  -37    5    1      4.15     -1.69
  -35    5    1      8.18     -2.82
  -33    5    1      8.05     -1.70
  -31    5    1      3.63     -1.26
  -29    5    1     -2.20     -2.31
  -27    5    1     -3.73     -2.29
  -25    5    1      0.73     -0.93
  -23    5    1      3.95     -0.43
  -21    5    1      0.86     -1.18
  -19    5    1     -2.78     -0.73
  -17    5    1     -1.59      0.86
  -15    5    1      0.25     -0.81
  -13    5    1     -1.69     -3.58
  -11    5    1     -3.45      0.83
   -9    5    1     -0.48      7.52
   -7    5    1      2.75      4.08
   -5    5    1      0.53     -4.08
   -3    5    1     -2.92     -3.98
   -1    5    1     -2.29      0.35
    1    5    1     -1.01     -1.02
    3    5    1     -1.33     -5.25
    5    5    1     -0.43     -4.95
    7    5    1      0.13     -0.91
    9    5    1     -1.60      1.53
   11    5    1     -1.15      1.00
   13    5    1      2.31      0.03
   15    5    1      2.88      0.22
   17    5    1      0.32      0.92
   19    5    1     -0.17      0.73
   21    5    1      0.65     -1.06
   23    5    1     -0.74     -3.08
   25    5    1     -1.93     -2.52
   27    5    1      0.33      1.02
   29    5    1      3.38      3.66
   31    5    1      3.27      3.22
   33    5    1      0.82      3.99
   35    5    1     -0.52      7.51
   37    5    1     -0.27      7.25
  -40    4    1     -0.59     -1.79
  -38    4    1     -2.09      0.14
  -36    4    1     -0.82      2.60
  -34    4    1     -0.52      2.59
  -32    4    1     -1.68      1.69
  -30    4    1      0.65      0.31
  -28    4    1      4.17     -2.18
  -26    4    1      2.28     -1.37
  -24    4    1     -1.59      3.78
  -22    4    1     -1.00      5.22
  -20    4    1      1.26      0.65
  -18    4    1      1.56     -1.27
  -16    4    1      1.59      2.24
  -14    4    1      0.68      3.18
  -12    4    1     -3.81     -2.09
  -10    4    1     -8.65     -6.29
   -8    4    1     -6.16     -3.81
   -6    4    1      4.34      0.10
   -4    4    1     10.31     -0.14
   -2    4    1      3.00     -1.95
    0    4    1     -6.32     -2.68
    2    4    1     -5.68     -2.67
    4    4    1     -1.13     -0.69
    6    4    1     -0.48      2.16
    8    4    1     -1.65      2.07
   10    4    1     -2.11      0.42
   12    4    1     -1.64      0.52
   14    4    1     -0.17      0.50
   16    4    1      0.91     -0.95
   18    4    1      0.71     -0.29
   20    4    1     -0.51      2.87
   22    4    1     -1.51      3.67
   24    4    1     -0.17      1.05
   26    4    1      1.44     -0.85
   28    4    1     -0.87     -0.65
   30    4    1     -4.39     -1.49
   32    4    1     -4.57     -5.06
   34    4    1     -3.55     -7.97
   36    4    1     -3.35     -6.58
   38    4    1     -1.90     -3.34
  -41    3    1     -0.12     -2.20
  -39    3    1     -0.05     -3.56
  -37    3    1      0.31     -0.71
  -35    3    1      1.64      2.35
  -33    3    1      1.21      0.65
  -31    3    1     -0.77     -1.10
  -29    3    1     -0.50      1.44
  -27    3    1      1.42      1.87
  -25    3    1      0.83     -2.26
  -23    3    1     -1.77     -2.82
  -21    3    1     -2.46      1.79
  -19    3    1     -2.09      4.54
  -17    3    1     -3.81      2.75
  -15    3    1     -4.65     -1.86
  -13    3    1     -0.34     -5.68
  -11    3    1      5.29     -6.60
   -9    3    1      4.72     -7.12
   -7    3    1     -2.38     -2.21
   -5    3    1     -6.51     14.26
   -3    3    1     -0.74     25.18
   -1    3    1      7.37     14.31
    1    3    1      8.70     -2.05
    3    3    1      6.88     -6.76
    5    3    1      5.59     -6.75
    7    3    1      2.51     -8.70
    9    3    1     -0.47     -9.13
   11    3    1     -1.36     -6.15
   13    3    1     -1.21     -1.53
   15    3    1      1.27      1.44
   17    3    1      2.47      1.40
   19    3    1     -2.49      0.41
   21    3    1     -5.75     -0.43
   23    3    1     -1.21     -0.45
   25    3    1      3.06      0.98
   27    3    1      2.49      1.18
   29    3    1      1.20     -0.63
   31    3    1      1.12     -0.28
   33    3    1      2.77      2.63
   35    3    1      5.59      3.51
   37    3    1      6.56      1.47
   39    3    1      5.40     -0.43
  -40    2    1      7.19      1.11
  -38    2    1      3.57     -0.03
  -36    2    1     -1.84     -0.91
  -34    2    1     -3.76     -1.18
  -32    2    1     -1.51     -1.28
  -30    2    1      0.14     -0.33
  -28    2    1     -0.74      0.96
  -26    2    1     -0.02      1.12
  -24    2    1      2.55      0.19
  -22    2    1      1.44     -0.90
  -20    2    1     -3.42     -1.81
  -18    2    1     -4.48     -3.08
  -16    2    1      1.36     -2.83
  -14    2    1      6.99      0.97
  -12    2    1      6.49      5.87
  -10    2    1      5.06      8.87
   -8    2    1      4.25      1.60
   -6    2    1     -9.12    -23.29
   -4    2    1    -35.24    -41.96
   -2    2    1    -45.15    -24.51
    0    2    1    -22.22      8.20
    2    2    1      8.25     19.63
    4    2    1     16.87     14.02
    6    2    1      8.18      8.52
    8    2    1      2.11      5.50
   10    2    1      2.70      4.08
   12    2    1      2.14      1.82
   14    2    1     -0.78     -0.38
   16    2    1     -1.72      1.15
   18    2    1     -1.19      0.33
   20    2    1     -1.57     -4.35
   22    2    1     -1.38     -3.33
   24    2    1     -0.06      1.29
   26    2    1      0.31      1.41
   28    2    1      0.44      0.04
   30    2    1      1.36     -0.59
   32    2    1      0.01     -2.10
   34    2    1     -4.04     -1.18
   36    2    1     -5.89      3.53
   38    2    1     -3.62      7.28
   40    2    1      0.07      6.59
  -41    1    1     -2.09      4.84
  -39    1    1     -3.31      3.66
  -37    1    1     -0.90      1.06
  -35    1    1      2.25     -1.70
  -33    1    1      2.98     -1.21
  -31    1    1      1.86      1.77
  -29    1    1      0.67      1.55
  -27    1    1     -0.13     -1.45
  -25    1    1     -0.09     -0.56
  -23    1    1      0.77      3.72
  -21    1    1      0.60      2.56
  -19    1    1     -0.16     -3.90
  -17    1    1     -0.26     -4.35
  -15    1    1     -1.69      2.04
  -13    1    1     -4.35      4.03
  -11    1    1     -8.46      0.76
   -9    1    1    -10.88      2.36
   -7    1    1     10.19      6.05
   -5    1    1     55.05     -6.81
   -3    1    1     67.21    -32.35
    3    1    1    -28.16     28.15
    5    1    1     -7.17      6.09
    7    1    1      0.67    -16.85
    9    1    1     -2.86    -13.69
   11    1    1     -4.34     -2.69
   13    1    1     -0.11      1.66
   15    1    1      2.98      0.85
   17    1    1      1.54     -1.77
   19    1    1      0.46     -2.59
   21    1    1      0.61     -1.41
   23    1    1     -0.23     -0.17
   25    1    1     -1.03      0.18
   27    1    1     -1.84     -0.93
   29    1    1     -2.30     -0.32
   31    1    1     -0.33      2.34
   33    1    1      2.03     -0.22
   35    1    1      1.01     -7.25
   37    1    1     -2.78     -8.34
   39    1    1     -5.20     -2.07
   41    1    1     -3.71      3.04
  -42    0    1     -2.46      0.23
  -40    0    1     -0.69      0.03
  -38    0    1     -0.21     -0.46
  -36    0    1      0.68     -0.31
  -34    0    1      0.45      0.35
  -32    0    1     -3.27      0.52
  -30    0    1     -4.63      0.17
  -28    0    1     -0.48      0.02
  -26    0    1      2.14     -0.03
  -24    0    1     -1.66     -0.22
  -22    0    1     -4.99     -0.21
  -20    0    1     -0.23      0.07
  -18    0    1      5.63      0.27
  -16    0    1      3.17      0.08
  -14    0    1     -0.79     -0.09
  -12    0    1      2.02      0.40
  -10    0    1      2.42      0.70
   -8    0    1     -9.93     -0.17
   -6    0    1    -18.41     -0.66
    4    0    1    -15.33     -0.71
    6    0    1     20.68      0.33
    8    0    1     25.16      0.30
   10    0    1      8.81     -0.08
   12    0    1     -1.32     -0.01
   14    0    1     -4.18      0.24
   16    0    1     -1.26      0.15
   18    0    1      2.95     -0.25
   20    0    1      2.16     -0.30
   22    0    1      0.55      0.13
   24    0    1      1.49      0.20
   26    0    1      3.41     -0.20
   28    0    1      4.17     -0.19
   30    0    1      0.69      0.17
   32    0    1     -1.70      0.24
   34    0    1      4.27      0.16
   36    0    1      9.88      0.18
   38    0    1      5.09      0.25
   40    0    1     -2.86      0.20
  -14   12    2     -5.00      0.69
  -12   12    2     -2.76     -0.66
  -10   12    2      3.11     -2.33
   -8   12    2      5.17     -0.46
   -6   12    2      1.26      2.91
   -4   12    2     -1.60      3.08
   -2   12    2      0.25      0.48
    0   12    2      1.20     -1.22
    2   12    2     -1.57     -0.87
    4   12    2     -2.71      0.17
    6   12    2     -0.61      0.57
    8   12    2      0.10      0.29
   10   12    2     -0.87      0.48
   12   12    2     -0.91      1.02
   14   12    2     -1.42      0.51
  -21   11    2     -4.83      0.57
  -19   11    2     -3.38      1.65
  -17   11    2     -0.28     -0.81
  -15   11    2     -0.81     -3.39
  -13   11    2     -1.49     -1.81
  -11   11    2      1.32      2.84
   -9   11    2      2.13      3.86
   -7   11    2     -2.57     -0.97
   -5   11    2     -6.41     -4.39
   -3   11    2     -4.29     -1.12
   -1   11    2      0.81      3.30
    1   11    2      3.93      2.65
    3   11    2      2.81     -0.62
    5   11    2     -0.61     -2.02
    7   11    2     -2.09     -1.71
    9   11    2     -1.41     -1.55
   11   11    2     -0.51     -2.18
   13   11    2      1.98     -3.01
   15   11    2      5.56     -2.27
   17   11    2      6.11      1.36
   19   11    2      3.61      5.83
  -26   10    2      3.86      1.74
  -24   10    2      4.72      0.61
  -22   10    2      1.14     -1.94
  -20   10    2     -1.83     -2.43
  -18   10    2     -0.35     -0.27
  -16   10    2      2.07      0.37
  -14   10    2      1.01     -1.97
  -12   10    2     -2.54     -2.48
  -10   10    2     -2.57      0.26
   -8   10    2      3.36      0.82
   -6   10    2      7.54     -2.11
   -4   10    2      3.95     -3.57
   -2   10    2     -1.27     -1.34
    0   10    2     -2.55      2.02
    2   10    2     -1.98      2.74
    4   10    2     -0.09      0.11
    6   10    2      2.73     -1.42
    8   10    2      2.74      0.15
   10   10    2      0.96      1.13
   12   10    2      0.72      1.61
   14   10    2     -0.52      4.93
   16   10    2     -3.84      7.54
   18   10    2     -4.77      3.34
   20   10    2     -2.58     -4.70
   22   10    2     -1.06     -7.90
   24   10    2     -0.96     -3.98
  -29    9    2     -1.69      4.53
  -27    9    2     -2.38      3.42
  -25    9    2     -2.22      1.49
  -23    9    2     -0.92     -1.90
  -21    9    2      0.90     -4.77
  -19    9    2      0.94     -3.42
  -17    9    2     -0.31     -0.51
  -15    9    2     -0.18      0.43
  -13    9    2      0.28      0.38
  -11    9    2     -1.22      0.70
   -9    9    2     -2.75      2.50
   -7    9    2     -2.07      4.35
   -5    9    2     -0.51      2.75
   -3    9    2      0.22      0.72
   -1    9    2     -0.20      1.71
    1    9    2     -1.05      1.45
    3    9    2     -1.00     -0.29
    5    9    2     -0.32      0.91
    7    9    2      0.07      1.86
    9    9    2      0.36     -0.33
   11    9    2      0.02     -1.49
   13    9    2     -1.42     -1.04
   15    9    2     -2.41     -2.07
   17    9    2     -1.42     -2.56
   19    9    2      1.72      0.83
   21    9    2      4.89      5.17
   23    9    2      4.00      4.98
   25    9    2     -0.86      0.61
   27    9    2     -3.89     -2.90
   29    9    2     -2.34     -3.91
  -32    8    2     -6.46     -0.73
  -30    8    2     -8.65     -3.26
  -28    8    2     -2.71     -2.29
  -26    8    2      3.61     -2.16
  -24    8    2      5.90     -3.11
  -22    8    2      5.57     -0.52
  -20    8    2      2.33      2.70
  -18    8    2     -0.48      1.90
  -16    8    2      0.74     -0.16
  -14    8    2      1.21     -1.50
  -12    8    2     -1.10     -2.82
  -10    8    2     -0.92     -2.98
   -8    8    2      1.54     -2.33
   -6    8    2      1.61     -2.03
   -4    8    2     -1.64     -1.37
   -2    8    2     -5.06     -1.05
    0    8    2     -4.00     -1.48
    2    8    2      0.09     -1.09
    4    8    2      0.75     -0.13
    6    8    2     -0.96      1.13
    8    8    2     -0.30      3.05
   10    8    2      0.52      2.80
   12    8    2     -1.09     -0.23
   14    8    2     -2.43     -1.28
   16    8    2     -1.14      0.07
   18    8    2      0.72     -0.71
   20    8    2     -0.72     -2.71
   22    8    2     -4.07     -1.94
   24    8    2     -3.89     -0.18
   26    8    2     -0.19     -0.30
   28    8    2      4.21     -0.15
   30    8    2      9.10      1.35
   32    8    2     10.68      1.40
  -35    7    2     -3.58      2.14
  -33    7    2     -1.36     -2.22
  -31    7    2      4.04     -6.12
  -29    7    2      4.78     -2.83
  -27    7    2      1.38      3.33
  -25    7    2      0.82      6.62
  -23    7    2      1.22      6.54
  -21    7    2     -0.25      2.86
  -19    7    2      0.07     -1.42
  -17    7    2      1.62     -0.98
  -15    7    2      1.11      1.40
  -13    7    2     -0.42     -0.21
  -11    7    2     -1.62     -2.65
   -9    7    2     -1.29     -0.34
   -7    7    2      0.28      3.80
   -5    7    2     -0.07      3.03
   -3    7    2     -0.44     -2.20
   -1    7    2      2.11     -4.54
    1    7    2      3.17     -1.83
    3    7    2      0.77     -0.13
    5    7    2     -1.68     -1.28
    7    7    2     -3.67     -1.18
    9    7    2     -4.17     -0.23
   11    7    2     -1.48     -1.21
   13    7    2      0.85     -2.35
   15    7    2      0.20     -1.20
   17    7    2     -0.26      1.36
   19    7    2      1.37      2.63
   21    7    2      3.01      1.20
   23    7    2      3.04     -1.11
   25    7    2      1.63     -2.74
   27    7    2     -1.63     -2.92
   29    7    2     -6.07      1.96
   31    7    2     -7.10     10.42
   33    7    2     -2.77     11.70
  -36    6    2      1.53      2.97
  -34    6    2      0.03     -2.97
  -32    6    2     -0.11     -1.89
  -30    6    2     -0.07      2.96
  -28    6    2      0.48      2.55
  -26    6    2     -0.42     -1.58
  -24    6    2     -3.88     -2.82
  -22    6    2     -5.01     -0.45
  -20    6    2     -2.08      2.23
  -18    6    2     -0.37      2.27
  -16    6    2     -1.93      0.51
  -14    6    2     -2.44      0.01
  -12    6    2      1.34     -0.14
  -10    6    2      4.99     -1.50
   -8    6    2      2.32     -3.00
   -6    6    2     -2.22     -5.16
   -4    6    2     -0.34     -6.06
   -2    6    2      3.58     -1.78
    0    6    2      1.79      3.08
    2    6    2     -1.22      3.20
    4    6    2      0.72      2.44
    6    6    2      3.66      1.86
    8    6    2      2.76     -1.81
   10    6    2      0.45     -4.83
   12    6    2     -0.06     -3.22
   14    6    2      0.28     -1.00
   16    6    2      0.29     -1.75
   18    6    2      0.38     -3.21
   20    6    2      0.31     -2.26
   22    6    2     -0.14      1.09
   24    6    2      0.34      4.48
   26    6    2      2.17      5.22
   28    6    2      2.17      1.44
   30    6    2     -2.26     -4.82
   32    6    2     -6.05     -7.32
   34    6    2     -3.25     -3.98
   36    6    2      1.26     -0.06
  -37    5    2    -14.38     -2.47
  -35    5    2     -4.10      0.07
  -33    5    2      2.68      1.58
  -31    5    2      1.58      0.71
  -29    5    2     -1.15      1.80
  -27    5    2      0.18      5.11
  -25    5    2      3.44      4.17
  -23    5    2      2.50     -0.79
  -21    5    2     -1.62     -2.79
  -19    5    2     -1.50     -1.19
  -17    5    2      1.88     -1.57
  -15    5    2      0.87     -5.26
  -13    5    2     -2.87     -6.47
  -11    5    2     -1.81     -1.88
   -9    5    2      4.56      2.28
   -7    5    2     10.93      1.72
   -5    5    2     10.73      2.11
   -3    5    2      1.82      4.97
   -1    5    2     -5.97      3.70
    1    5    2     -3.70     -1.32
    3    5    2     -0.20     -2.55
    5    5    2     -4.66      1.71
    7    5    2     -7.55      5.81
    9    5    2     -1.02      4.78
   11    5    2      5.11      0.01
   13    5    2      3.65     -2.53
   15    5    2      0.93     -0.13
   17    5    2      1.57      3.52
   19    5    2      2.49      4.28
   21    5    2      0.91      2.25
   23    5    2     -2.60      0.12
   25    5    2     -5.69     -0.39
   27    5    2     -5.48     -0.38
   29    5    2     -0.87     -2.38
   31    5    2      4.82     -4.63
   33    5    2      5.89     -1.95
   35    5    2      1.75      3.52
   37    5    2     -2.02      4.17
  -40    4    2      7.58    -11.29
  -38    4    2     11.81    -13.49
  -36    4    2      6.84     -6.42
  -34    4    2     -0.55      0.05
  -32    4    2     -1.62      0.96
  -30    4    2     -0.44     -0.99
  -28    4    2     -3.41     -2.63
  -26    4    2     -6.19     -1.60
  -24    4    2     -3.22      0.48
  -22    4    2      1.63     -0.17
  -20    4    2      2.04     -0.79
  -18    4    2     -0.60      1.75
  -16    4    2      0.12      2.19
  -14    4    2      4.90     -1.80
  -12    4    2      6.86     -3.65
  -10    4    2      2.56      1.58
   -8    4    2     -2.51     12.12
   -6    4    2     -3.64     18.57
   -4    4    2     -2.83      9.87
   -2    4    2     -1.13     -7.03
    0    4    2      2.52    -11.10
    2    4    2      4.71     -2.03
    4    4    2      2.07     -0.36
    6    4    2     -2.97     -8.55
    8    4    2     -6.75     -9.47
   10    4    2     -5.82     -0.68
   12    4    2      0.65      4.85
   14    4    2      4.98      3.00
   16    4    2      1.19     -0.15
   18    4    2     -4.01     -0.44
   20    4    2     -3.53      0.37
   22    4    2      0.07     -1.99
   24    4    2      1.71     -6.25
   26    4    2     -0.18     -5.69
   28    4    2     -1.98      0.64
   30    4    2      0.96      6.05
   32    4    2      4.82      5.43
   34    4    2      2.39      0.60
   36    4    2     -3.02     -2.46
   38    4    2     -3.57     -1.31
  -41    3    2      5.05      2.12
  -39    3    2      5.92      9.98
  -37    3    2      0.13      8.41
  -35    3    2     -5.23      1.04
  -33    3    2     -4.10     -0.18
  -31    3    2     -0.67      2.25
  -29    3    2      0.61      0.20
  -27    3    2      1.03     -2.39
  -25    3    2      0.83      0.19
  -23    3    2     -0.84      3.90
  -21    3    2     -1.85      3.03
  -19    3    2     -1.17     -1.34
  -17    3    2      0.49     -3.84
  -15    3    2      3.28     -1.50
  -13    3    2      4.63      3.13
  -11    3    2      1.83      4.08
   -9    3    2     -3.87     -1.91
   -7    3    2    -11.40     -9.46
   -5    3    2    -14.71     -9.27
   -3    3    2     -4.88     -0.20
   -1    3    2      7.03      9.17
    1    3    2      2.42     10.17
    3    3    2     -8.04      3.97
    5    3    2     -4.17     -0.71
    7    3    2      6.65     -2.43
    9    3    2      8.54     -5.68
   11    3    2      2.89     -5.91
   13    3    2     -1.35      0.45
   15    3    2     -1.01      4.39
   17    3    2      0.25      1.17
   19    3    2     -0.42     -2.72
   21    3    2      0.81     -2.52
   23    3    2      4.79      1.05
   25    3    2      5.44      3.39
   27    3    2      1.28      0.42
   29    3    2     -3.11     -2.85
   31    3    2     -4.14      0.21
   33    3    2     -1.35      4.50
   35    3    2      1.31      1.87
   37    3    2      0.08     -4.36
   39    3    2     -2.12     -5.50
  -40    2    2     -8.43      3.59
  -38    2    2     -6.16     -1.87
  -36    2    2      1.65     -7.73
  -34    2    2      3.83     -7.96
  -32    2    2      0.94     -4.06
  -30    2    2      0.91     -1.59
  -28    2    2      2.42     -1.46
  -26    2    2     -0.05     -1.33
  -24    2    2     -4.04     -1.78
  -22    2    2     -3.61     -3.00
  -20    2    2      1.19     -2.26
  -18    2    2      4.38      0.75
  -16    2    2      2.31      3.96
  -14    2    2     -2.29      4.66
  -12    2    2     -6.19      1.65
  -10    2    2     -4.41     -1.05
   -8    2    2     11.15     -4.67
   -6    2    2     28.74    -12.48
   -4    2    2     17.67     -8.98
   -2    2    2    -15.22      9.49
    0    2    2    -22.67      9.59
    2    2    2      1.37    -15.12
    4    2    2     13.06    -24.04
    6    2    2      2.05     -6.26
    8    2    2     -2.63      9.51
   10    2    2      3.20     11.17
   12    2    2      3.13      6.14
   14    2    2     -2.34      1.02
   16    2    2     -5.28     -0.58
   18    2    2     -3.53     -0.31
   20    2    2      2.48      0.54
   22    2    2      5.56      2.70
   24    2    2      0.27      2.60
   26    2    2     -4.70     -0.10
   28    2    2     -2.41     -1.10
   30    2    2     -0.05     -1.13
   32    2    2     -2.89     -0.68
   34    2    2     -4.11      2.26
   36    2    2      1.65      4.13
   38    2    2      7.60      1.56
   40    2    2      5.50     -1.67
  -41    1    2     -0.49     -6.96
  -39    1    2      1.68     -6.79
  -37    1    2      4.46     -0.79
  -35    1    2      4.21      4.37
  -33    1    2      2.70      4.84
  -31    1    2      1.36      2.51
  -29    1    2     -0.58      0.28
  -27    1    2     -1.38     -0.98
  -25    1    2      0.19     -1.60
  -23    1    2      1.38     -1.39
  -21    1    2      0.55      0.64
  -19    1    2     -0.14      4.32
  -17    1    2     -0.03      5.45
  -15    1    2     -0.17      0.68
  -13    1    2     -0.10     -7.09
  -11    1    2     -0.96    -12.34
   -9    1    2      1.17     -0.37
   -7    1    2     14.50     39.10
   -5    1    2     21.53     62.69
   -3    1    2     -1.56     18.50
   -1    1    2    -23.85    -42.21
    1    1    2     -6.23    -35.55
    3    1    2     19.32      6.55
    5    1    2     13.13     13.24
    7    1    2     -3.95      0.39
    9    1    2     -7.53      1.39
   11    1    2     -4.82      2.89
   13    1    2     -1.88     -3.06
   15    1    2      0.91     -6.58
   17    1    2      1.06     -6.17
   19    1    2      0.10     -1.89
   21    1    2     -0.79      4.45
   23    1    2     -1.99      4.61
   25    1    2     -1.67     -1.10
   27    1    2     -0.13     -3.82
   29    1    2      1.14     -2.56
   31    1    2      1.32     -3.89
   33    1    2     -1.65     -7.41
   35    1    2     -6.01     -4.74
   37    1    2     -5.58      3.76
   39    1    2      0.01      6.85
   41    1    2      3.84      1.90
  -42    0    2      2.49      0.18
  -40    0    2      4.21      0.20
  -38    0    2      3.47      0.03
  -36    0    2     -0.07     -0.05
  -34    0    2     -3.97     -0.02
  -32    0    2     -3.77      0.10
  -30    0    2      0.70      0.13
  -28    0    2      3.97      0.11
  -26    0    2      3.42      0.34
  -24    0    2      1.44      0.28
  -22    0    2      0.05     -0.75
  -20    0    2     -2.36     -1.59
  -18    0    2     -6.37     -1.16
  -16    0    2     -6.02     -0.25
  -14    0    2      1.86      0.54
  -12    0    2     11.98      0.64
  -10    0    2     12.31     -0.56
   -8    0    2    -20.37      0.02
   -6    0    2    -75.28      4.86
   -4    0    2    -73.18      8.18
    2    0    2     36.08     -3.27
    4    0    2     -5.61     -1.47
    6    0    2     -8.70      0.35
    8    0    2     -5.30      0.98
   10    0    2     -6.15      0.59
   12    0    2      0.80      0.09
   14    0    2      6.90      0.12
   16    0    2      6.11      0.13
   18    0    2      2.88     -0.22
   20    0    2     -1.34     -0.41
   22    0    2     -3.33     -0.11
   24    0    2     -0.51      0.30
   26    0    2      3.16      0.22
   28    0    2      3.82     -0.23
   30    0    2      4.06     -0.33
   32    0    2      7.74     -0.02
   34    0    2      9.35     -0.01
   36    0    2      2.05     -0.28
   38    0    2     -6.04     -0.16
   40    0    2     -5.01      0.15
  -39    5    2    -15.88     -3.00
   21   11    2      1.02      6.88
  -14   12    3     -4.59     -3.26
  -12   12    3     -0.37     -7.44
  -10   12    3      4.54     -3.73
   -8   12    3      4.81      3.15
   -6   12    3      3.19      4.53
   -4   12    3      2.92      1.44
   -2   12    3      2.23     -0.01
    0   12    3     -0.36      1.33
    2   12    3     -2.55      1.96
    4   12    3     -2.58     -0.64
    6   12    3     -1.93     -4.41
    8   12    3     -0.47     -4.46
   10   12    3      3.63     -0.33
   12   12    3      6.65      2.04
  -21   11    3      3.66      1.83
  -19   11    3      0.49      0.78
  -17   11    3     -4.89     -3.78
  -15   11    3     -3.13     -7.40
  -13   11    3      4.02     -3.32
  -11   11    3      4.88      3.71
   -9   11    3     -2.44      4.27
   -7   11    3     -7.63      1.14
   -5   11    3     -4.95      1.74
   -3   11    3     -0.18      2.64
   -1   11    3      0.55     -2.22
    1   11    3     -0.81     -7.58
    3   11    3      0.08     -5.58
    5   11    3      3.23      0.59
    7   11    3      5.12      3.62
    9   11    3      2.53      4.15
   11   11    3     -2.51      5.56
   13   11    3     -4.13      5.12
   15   11    3     -1.91      0.31
   17   11    3     -0.96     -3.72
   19   11    3     -2.33     -2.44
  -26   10    3     -2.26     -3.75
  -24   10    3     -5.37      0.10
  -22   10    3     -4.05      4.36
  -20   10    3     -1.16      2.88
  -18   10    3      2.25     -2.49
  -16   10    3      6.22     -3.58
  -14   10    3      6.55      0.36
  -12   10    3      2.08      2.21
  -10   10    3     -0.78     -0.64
   -8   10    3      0.16     -3.81
   -6   10    3     -0.63     -3.19
   -4   10    3     -2.65      0.21
   -2   10    3      0.15      2.36
    0   10    3      4.91      1.80
    2   10    3      4.43      0.53
    4   10    3      0.35      0.14
    6   10    3     -2.44      0.26
    8   10    3     -3.48     -0.18
   10   10    3     -2.98     -1.10
   12   10    3     -0.60     -1.33
   14   10    3      2.81     -0.93
   16   10    3      5.45     -0.65
   18   10    3      4.52     -0.45
   20   10    3      0.28     -0.58
   22   10    3     -2.16     -1.20
   24   10    3     -0.97     -1.51
  -29    9    3     -0.90      4.46
  -27    9    3      3.00      2.21
  -25    9    3      2.58     -2.20
  -23    9    3     -1.58     -2.01
  -21    9    3     -2.06      0.24
  -19    9    3      1.95      0.30
  -17    9    3      2.44     -0.26
  -15    9    3     -2.12      1.30
  -13    9    3     -3.64      3.40
  -11    9    3     -0.13      3.10
   -9    9    3      1.73      0.76
   -7    9    3      0.52     -2.25
   -5    9    3      0.50     -4.08
   -3    9    3      1.14     -1.29
   -1    9    3     -0.03      3.32
    1    9    3     -1.01      2.53
    3    9    3     -0.41     -0.85
    5    9    3      0.45      0.09
    7    9    3      1.72      2.12
    9    9    3      2.25      0.74
   11    9    3     -0.15     -0.04
   13    9    3     -2.15      3.00
   15    9    3     -1.06      5.84
   17    9    3     -1.43      4.33
   19    9    3     -4.31      0.67
   21    9    3     -3.95     -1.34
   23    9    3      0.74     -1.95
   25    9    3      4.99     -2.17
   27    9    3      5.75     -1.68
  -32    8    3      3.47     -1.93
  -30    8    3      0.61     -4.10
  -28    8    3     -1.63     -1.76
  -26    8    3     -0.70      1.40
  -24    8    3     -0.76      0.50
  -22    8    3     -2.36     -0.88
  -20    8    3     -1.38      0.83
  -18    8    3      1.69      1.74
  -16    8    3      2.01     -1.66
  -14    8    3     -0.71     -4.66
  -12    8    3     -1.78     -1.83
  -10    8    3     -0.52      2.20
   -8    8    3      0.34      1.70
   -6    8    3      1.38      0.86
   -4    8    3      1.76      2.00
   -2    8    3     -1.47      0.59
    0    8    3     -4.45     -1.57
    2    8    3     -2.31     -0.49
    4    8    3      0.95      0.51
    6    8    3      0.30      0.27
    8    8    3     -2.20      0.96
   10    8    3     -2.43      0.37
   12    8    3     -1.04     -1.46
   14    8    3     -1.13     -1.38
   16    8    3     -1.36     -1.68
   18    8    3      0.29     -3.98
   20    8    3      1.20     -3.71
   22    8    3      0.54      0.44
   24    8    3      0.07      4.38
   26    8    3     -0.62      6.35
   28    8    3      0.04      7.27
   30    8    3      3.30      6.93
  -35    7    3     -4.16     -3.41
  -33    7    3     -1.64      0.51
  -31    7    3      3.44      4.05
  -29    7    3      2.95      0.83
  -27    7    3     -2.14     -3.24
  -25    7    3     -3.65     -2.37
  -23    7    3     -1.32     -0.74
  -21    7    3      0.41     -0.58
  -19    7    3      1.04      0.74
  -17    7    3      1.60      1.72
  -15    7    3      2.53      0.67
  -13    7    3      2.25     -0.20
  -11    7    3     -0.36     -1.33
   -9    7    3     -1.65     -3.69
   -7    7    3     -0.38     -3.41
   -5    7    3      0.07      0.37
   -3    7    3      0.43      2.23
   -1    7    3      1.23      0.41
    1    7    3     -0.41     -1.13
    3    7    3     -2.36     -0.01
    5    7    3     -1.67      1.46
    7    7    3     -0.23      0.26
    9    7    3      0.79     -1.66
   11    7    3      0.28     -0.56
   13    7    3     -2.09      1.15
   15    7    3     -2.07      0.37
   17    7    3      0.38      0.00
   19    7    3     -0.13      1.13
   21    7    3     -2.88      0.82
   23    7    3     -3.32     -1.32
   25    7    3     -1.10     -4.32
   27    7    3      0.69     -6.20
   29    7    3     -1.70     -3.23
   31    7    3     -7.46      1.78
   33    7    3     -9.62      2.22
  -36    6    3      8.42     -2.34
  -34    6    3      7.17     -1.05
  -32    6    3     -0.92      2.03
  -30    6    3     -3.53      2.94
  -28    6    3      2.13      0.69
  -26    6    3      3.95     -1.61
  -24    6    3     -0.23     -1.83
  -22    6    3     -1.47     -0.49
  -20    6    3      0.86      0.55
  -18    6    3      1.97     -0.31
  -16    6    3      0.73     -1.07
  -14    6    3     -1.11      0.43
  -12    6    3      0.86      1.60
  -10    6    3      5.80      1.13
   -8    6    3      5.39      1.37
   -6    6    3     -0.01      1.66
   -4    6    3     -1.66      0.05
   -2    6    3      0.34     -2.98
    0    6    3      0.33     -5.64
    2    6    3     -1.78     -4.92
    4    6    3     -2.98     -1.11
    6    6    3     -1.68      1.24
    8    6    3      0.14      1.50
   10    6    3     -0.41      0.69
   12    6    3     -0.66     -2.37
   14    6    3      2.12     -4.32
   16    6    3      3.57     -2.44
   18    6    3      1.21     -1.55
   20    6    3     -0.68     -2.96
   22    6    3      0.09     -2.61
   24    6    3      1.80      0.22
   26    6    3      3.53      4.69
   28    6    3      3.92      7.66
   30    6    3      2.65      3.17
   32    6    3      2.79     -5.62
   34    6    3      4.07     -8.18
   36    6    3      2.70     -3.51
  -37    5    3     -1.22      7.42
  -35    5    3     -4.52      9.15
  -33    5    3     -3.58      3.46
  -31    5    3      0.17     -3.85
  -29    5    3     -0.78     -3.51
  -27    5    3     -3.54      0.61
  -25    5    3     -0.95      0.37
  -23    5    3      2.36     -1.29
  -21    5    3      0.18      0.90
  -19    5    3     -2.59      4.44
  -17    5    3     -1.04      4.01
  -15    5    3      1.54     -0.83
  -13    5    3      1.46     -2.53
  -11    5    3     -0.32      3.16
   -9    5    3     -1.12      6.61
   -7    5    3     -1.04      1.49
   -5    5    3     -1.88     -2.68
   -3    5    3     -1.27      0.39
   -1    5    3      2.99      4.34
    1    5    3      5.12      3.42
    3    5    3      0.91     -1.22
    5    5    3     -3.79     -4.86
    7    5    3     -4.05     -4.64
    9    5    3     -1.56     -2.93
   11    5    3      1.40     -1.50
   13    5    3      2.16      0.87
   15    5    3     -0.35      2.58
   17    5    3     -1.45      1.61
   19    5    3      0.70      0.10
   21    5    3      1.19     -0.15
   23    5    3     -0.78      0.38
   25    5    3     -2.09      0.96
   27    5    3     -2.95     -0.23
   29    5    3     -2.85     -2.44
   31    5    3     -1.05      0.16
   33    5    3     -0.47      7.67
   35    5    3     -0.75     10.09
   37    5    3      0.85      4.29
  -40    4    3     -4.12      1.79
  -38    4    3     -5.92      2.07
  -36    4    3     -4.29     -2.72
  -34    4    3     -0.07     -5.08
  -32    4    3      3.16     -0.21
  -30    4    3      3.21      2.22
  -28    4    3      1.70     -2.28
  -26    4    3      0.15     -3.62
  -24    4    3     -1.67      0.61
  -22    4    3     -3.18      0.71
  -20    4    3     -3.38     -4.48
  -18    4    3     -1.09     -5.95
  -16    4    3      3.67     -0.50
  -14    4    3      5.73      5.11
  -12    4    3      0.77      4.67
  -10    4    3     -5.13      1.52
   -8    4    3     -3.52      0.91
   -6    4    3      3.71     -0.18
   -4    4    3      7.97     -3.11
   -2    4    3      4.94     -2.56
    0    4    3     -1.55     -0.22
    2    4    3     -3.57     -1.86
    4    4    3      1.63     -4.14
    6    4    3      7.41     -2.99
    8    4    3      7.32     -1.07
   10    4    3      3.91      0.61
   12    4    3      2.02      1.87
   14    4    3      1.56      0.00
   16    4    3      1.54     -2.47
   18    4    3      1.96     -1.01
   20    4    3      1.67      0.74
   22    4    3      0.25     -0.71
   24    4    3     -1.05     -1.33
   26    4    3     -0.72      0.75
   28    4    3      2.13      2.52
   30    4    3      3.41      1.70
   32    4    3     -3.04     -2.62
   34    4    3    -12.30     -5.85
   36    4    3    -12.32     -1.42
   38    4    3     -4.01      4.98
  -41    3    3      1.18     -9.09
  -39    3    3     -1.82    -12.54
  -37    3    3     -3.00     -7.35
  -35    3    3      1.36      2.85
  -33    3    3      2.69      7.16
  -31    3    3     -1.50      2.94
  -29    3    3     -2.89     -0.68
  -27    3    3     -0.29      0.28
  -25    3    3      1.35     -0.02
  -23    3    3      2.73     -3.12
  -21    3    3      5.02     -3.98
  -19    3    3      4.50     -0.39
  -17    3    3      0.13      4.57
  -15    3    3     -3.76      5.98
  -13    3    3     -3.99      2.52
  -11    3    3     -1.95     -2.91
   -9    3    3     -1.88     -5.98
   -7    3    3     -5.88     -0.48
   -5    3    3     -8.81     12.30
   -3    3    3     -4.91     15.99
   -1    3    3      1.40      3.16
    1    3    3      2.45     -8.75
    3    3    3     -0.77     -5.59
    5    3    3     -2.93      3.68
    7    3    3     -2.23      6.19
    9    3    3     -0.49      2.94
   11    3    3     -0.07      1.29
   13    3    3     -0.09      2.11
   15    3    3      0.73      2.33
   17    3    3      0.19      2.32
   19    3    3     -1.11      2.41
   21    3    3     -0.46      1.12
   23    3    3     -0.33     -0.06
   25    3    3     -1.83      0.27
   27    3    3     -1.95      0.80
   29    3    3     -1.24      1.48
   31    3    3      0.20      0.92
   33    3    3      3.75     -5.11
   35    3    3      3.96    -13.77
   37    3    3     -1.85    -14.68
   39    3    3     -5.44     -6.69
  -40    2    3     10.90      7.33
  -38    2    3     10.23      1.45
  -36    2    3      1.06      0.93
  -34    2    3     -6.84      3.72
  -32    2    3     -5.84      0.49
  -30    2    3     -0.53     -4.44
  -28    2    3      2.15     -4.41
  -26    2    3      1.58     -1.81
  -24    2    3      0.70      0.83
  -22    2    3      1.21      3.40
  -20    2    3      1.04      3.27
  -18    2    3     -1.83     -0.45
  -16    2    3     -5.12     -2.84
  -14    2    3     -6.22     -0.94
  -12    2    3     -1.71      2.60
  -10    2    3     11.51      5.02
   -8    2    3     19.02      0.89
   -6    2    3      1.21    -12.12
   -4    2    3    -22.59    -17.98
   -2    2    3    -14.99     -5.28
    0    2    3     12.63      7.25
    2    2    3     20.34      4.13
    4    2    3      8.26     -2.75
    6    2    3      1.82     -2.88
    8    2    3      3.09     -0.89
   10    2    3      1.61     -1.12
   12    2    3     -2.13     -1.23
   14    2    3     -4.44      1.53
   16    2    3     -4.21      2.98
   18    2    3     -1.38     -0.41
   20    2    3      0.08     -2.44
   22    2    3     -1.99     -1.17
   24    2    3     -2.77     -1.93
   26    2    3      0.08     -2.41
   28    2    3      1.98     -0.23
   30    2    3      0.20      0.26
   32    2    3     -0.46      0.53
   34    2    3      6.21      3.02
   36    2    3     14.92      2.86
   38    2    3     13.01     -0.80
   40    2    3      2.68     -2.77
  -41    1    3     -8.87     -4.99
  -39    1    3     -5.11     -2.28
  -37    1    3     -3.15     -0.66
  -35    1    3     -4.37     -3.88
  -33    1    3     -1.26     -4.73
  -31    1    3      3.40     -1.58
  -29    1    3      3.02      0.54
  -27    1    3      0.57      1.02
  -25    1    3      0.09      1.28
  -23    1    3      0.32      1.66
  -21    1    3      0.28      2.03
  -19    1    3      0.99      0.81
  -17    1    3      2.21     -2.89
  -15    1    3      1.88     -7.82
  -13    1    3     -1.07     -8.99
  -11    1    3     -6.53      2.11
   -9    1    3    -10.63     21.60
   -7    1    3     -4.47     24.57
   -5    1    3      9.08     -2.15
   -3    1    3     11.49    -28.79
   -1    1    3     -0.86    -20.37
    1    1    3    -11.00      7.89
    3    1    3    -10.72     19.15
    5    1    3     -5.55     13.01
    7    1    3     -0.54      7.83
    9    1    3      2.83      5.04
   11    1    3      4.44      1.28
   13    1    3      2.13     -3.00
   15    1    3     -2.93     -6.94
   17    1    3     -2.43     -4.99
   19    1    3      2.73      0.85
   21    1    3      3.00      0.11
   23    1    3      0.64     -3.65
   25    1    3      1.11     -1.40
   27    1    3      0.44      2.16
   29    1    3     -1.64      1.90
   31    1    3     -1.56      1.02
   33    1    3     -1.49      3.10
   35    1    3     -2.18      7.86
   37    1    3     -0.96      8.84
   39    1    3      1.29      2.60
  -42    0    3     10.12     -0.43
  -40    0    3     14.31     -0.57
  -38    0    3      7.90     -0.15
  -36    0    3      3.65      0.09
  -34    0    3      4.00      0.05
  -32    0    3      1.54      0.23
  -30    0    3     -0.73      0.43
  -28    0    3      0.94      0.23
  -26    0    3      1.50     -0.09
  -24    0    3     -1.52     -0.11
  -22    0    3     -4.13      0.10
  -20    0    3     -3.33      0.23
  -18    0    3      0.16      0.10
  -16    0    3      5.14     -0.09
  -14    0    3      9.30      0.04
  -12    0    3      6.46      0.18
  -10    0    3     -6.85     -0.12
   -8    0    3    -21.99     -0.33
   -6    0    3    -18.55     -0.24
   -4    0    3     12.00     -0.66
   -2    0    3     38.65     -1.01
    0    0    3     25.83     -0.17
    2    0    3     -7.05      0.65
    4    0    3    -19.37      0.39
    6    0    3    -12.17      0.14
    8    0    3     -5.84      0.29
   10    0    3     -4.13      0.07
   12    0    3     -2.00     -0.24
   14    0    3      3.81     -0.04
   16    0    3      7.57      0.21
   18    0    3      2.50      0.02
   20    0    3     -2.08     -0.16
   22    0    3      0.78      0.05
   24    0    3      2.19      0.17
   26    0    3      0.12     -0.09
   28    0    3     -0.20     -0.33
   30    0    3     -0.79     -0.25
   32    0    3     -3.28     -0.04
   34    0    3     -5.68      0.00
   36    0    3     -5.98     -0.17
   38    0    3     -2.23     -0.22
   40    0    3      1.71     -0.05
  -12   12    4     -4.80     -0.27
  -10   12    4     -5.13     -2.11
   -8   12    4     -2.97     -0.42
   -6   12    4      0.67      1.03
   -4   12    4      2.86     -2.81
   -2   12    4      1.20     -6.26
    0   12    4     -2.35     -2.16
    2   12    4     -3.20      3.00
    4   12    4      0.01      1.68
    6   12    4      4.29     -1.59
    8   12    4      6.89     -1.79
   10   12    4      6.62     -0.74
  -21   11    4      0.83     -0.69
  -19   11    4     -0.17     -0.56
  -17   11    4     -0.93     -2.60
  -15   11    4      0.15     -4.67
  -13   11    4      2.44     -4.55
  -11   11    4      4.43     -3.61
   -9   11    4      3.45     -2.83
   -7   11    4      0.25     -0.36
   -5   11    4      1.13      3.16
   -3   11    4      5.49      3.17
   -1   11    4      4.70     -0.48
    1   11    4     -0.92     -2.00
    3   11    4     -3.33      0.15
    5   11    4     -1.91      2.21
    7   11    4     -1.21      4.07
    9   11    4     -2.50      6.24
   11   11    4     -3.64      4.21
   13   11    4     -1.74     -2.12
   15   11    4      1.92     -4.95
   17   11    4      1.58     -1.84
   19   11    4     -3.03      0.98
  -24   10    4      1.14      0.62
  -22   10    4      1.16      0.22
  -20   10    4     -1.82     -0.39
  -18   10    4     -1.72      0.74
  -16   10    4      1.01      3.33
  -14   10    4      2.49      3.89
  -12   10    4      1.86      2.40
  -10   10    4      0.62      1.65
   -8   10    4     -0.31      1.13
   -6   10    4     -1.73      0.76
   -4   10    4     -2.89      1.63
   -2   10    4     -1.42      1.23
    0   10    4      0.32     -1.21
    2   10    4     -0.26     -1.81
    4   10    4      0.60     -0.59
    6   10    4      3.24     -1.47
    8   10    4      2.17     -4.16
   10   10    4     -0.88     -4.58
   12   10    4     -1.04     -0.84
   14   10    4     -1.38      4.73
   16   10    4     -3.59      6.78
   18   10    4     -1.76      1.38
   20   10    4      4.62     -7.19
   22   10    4      7.19     -9.27
   24   10    4      2.80     -3.37
  -29    9    4     -1.18     -0.65
  -27    9    4     -4.12     -3.03
  -25    9    4     -5.74      1.32
  -23    9    4     -1.89      2.74
  -21    9    4      3.99     -2.33
  -19    9    4      4.42     -5.69
  -17    9    4      0.39     -4.32
  -15    9    4     -0.33     -0.75
  -13    9    4      2.38      2.47
  -11    9    4      2.02      2.00
   -9    9    4     -0.64     -0.59
   -7    9    4     -0.52     -1.22
   -5    9    4      0.23     -1.11
   -3    9    4     -1.79     -1.02
   -1    9    4     -3.02     -0.09
    1    9    4     -1.14      0.02
    3    9    4     -0.23      0.77
    5    9    4     -1.25      4.07
    7    9    4      0.25      5.39
    9    9    4      3.58      2.90
   11    9    4      3.54      0.05
   13    9    4      0.32     -4.07
   15    9    4     -2.64     -8.95
   17    9    4     -3.61     -6.61
   19    9    4     -0.62      3.51
   21    9    4      4.38      8.91
   23    9    4      4.79      3.98
   25    9    4      0.76     -1.32
   27    9    4     -1.38     -0.14
  -32    8    4     -5.74     -3.10
  -30    8    4     -4.02     -2.67
  -28    8    4      3.12     -2.65
  -26    8    4      3.48     -6.26
  -24    8    4     -0.17     -6.78
  -22    8    4      1.05      1.27
  -20    8    4      2.88      7.44
  -18    8    4      0.84      4.36
  -16    8    4     -1.73      1.06
  -14    8    4     -3.66      2.71
  -12    8    4     -4.01      2.83
  -10    8    4     -1.19     -0.09
   -8    8    4      1.57     -0.41
   -6    8    4      2.13      1.84
   -4    8    4      1.85      0.70
   -2    8    4      0.95     -3.78
    0    8    4      0.40     -4.88
    2    8    4      0.70     -1.77
    4    8    4     -0.17     -0.11
    6    8    4     -2.06     -0.25
    8    8    4     -3.51      1.11
   10    8    4     -4.10      2.92
   12    8    4     -2.15      3.40
   14    8    4      1.77      2.83
   16    8    4      2.79      0.57
   18    8    4     -0.23     -2.55
   20    8    4     -1.19     -2.93
   22    8    4      3.36     -0.09
   24    8    4      6.18      2.24
   26    8    4      0.55      2.05
   28    8    4     -6.16      0.39
   30    8    4     -4.88     -1.54
  -35    7    4     -1.26      4.92
  -33    7    4      2.45      0.97
  -31    7    4      3.83     -2.31
  -29    7    4      0.02      0.72
  -27    7    4     -0.63      3.74
  -25    7    4      4.38      1.99
  -23    7    4      4.15     -0.09
  -21    7    4     -1.91     -0.35
  -19    7    4     -2.89     -0.85
  -17    7    4      0.81     -1.17
  -15    7    4      1.96     -1.20
  -13    7    4      0.36     -1.92
  -11    7    4     -1.66     -1.34
   -9    7    4     -2.42      1.25
   -7    7    4     -1.45      2.25
   -5    7    4     -0.87     -0.03
   -3    7    4     -1.08     -2.34
   -1    7    4     -0.49     -1.89
    1    7    4      0.56     -0.11
    3    7    4      1.05      0.61
    5    7    4      0.19      0.30
    7    7    4     -1.15     -0.97
    9    7    4     -0.65     -3.18
   11    7    4      0.56     -4.06
   13    7    4      0.13     -2.94
   15    7    4     -0.18     -1.95
   17    7    4      1.39     -0.73
   19    7    4      2.77      2.32
   21    7    4      1.03      6.04
   23    7    4     -2.90      7.47
   25    7    4     -3.88      3.76
   27    7    4     -0.41     -3.00
   29    7    4      2.78     -4.99
   31    7    4      3.42     -0.80
   33    7    4      3.08      2.18
  -36    6    4     -2.43     -3.08
  -34    6    4     -1.76     -3.58
  -32    6    4     -1.79     -2.04
  -30    6    4     -2.78     -2.33
  -28    6    4     -2.08     -2.59
  -26    6    4     -0.29      0.84
  -24    6    4      0.59      3.80
  -22    6    4      0.88      2.28
  -20    6    4      0.42      0.38
  -18    6    4     -1.22      0.72
  -16    6    4     -2.05      0.87
  -14    6    4     -0.10     -0.76
  -12    6    4      2.69     -4.00
  -10    6    4      2.03     -5.77
   -8    6    4     -1.36     -2.70
   -6    6    4     -1.24      1.65
   -4    6    4      2.99      2.23
   -2    6    4      4.58      0.35
    0    6    4      1.54     -1.03
    2    6    4     -1.30     -1.38
    4    6    4     -1.16     -1.40
    6    6    4      0.10     -1.39
    8    6    4      0.16     -0.08
   10    6    4     -0.47      1.66
   12    6    4     -0.02      1.06
   14    6    4      0.79      0.01
   16    6    4     -0.29      1.33
   18    6    4     -3.17      2.57
   20    6    4     -4.97      0.72
   22    6    4     -3.47     -3.37
   24    6    4      0.14     -5.65
   26    6    4      2.60     -2.45
   28    6    4      1.41      3.22
   30    6    4     -2.14      5.50
   32    6    4     -2.75      4.04
   34    6    4      0.81      1.11
  -37    5    4      2.39      0.23
  -35    5    4      3.19      1.16
  -33    5    4      2.94     -1.10
  -31    5    4      2.18     -3.15
  -29    5    4      0.70     -0.74
  -27    5    4     -0.43      2.28
  -25    5    4      0.15      1.80
  -23    5    4      1.05      0.24
  -21    5    4      0.77     -0.08
  -19    5    4      0.65      0.11
  -17    5    4      1.07      0.28
  -15    5    4      0.72      1.24
  -13    5    4      0.77      4.24
  -11    5    4      2.27      6.54
   -9    5    4      3.08      2.95
   -7    5    4      2.15     -3.49
   -5    5    4      0.32     -4.77
   -3    5    4     -2.10     -1.40
   -1    5    4     -2.56      0.77
    1    5    4      1.69      0.38
    3    5    4      6.46     -0.29
    5    5    4      5.63      0.35
    7    5    4      1.27      0.79
    9    5    4     -0.70     -0.99
   11    5    4      0.36     -2.93
   13    5    4      1.10     -2.52
   15    5    4      0.09     -1.64
   17    5    4     -0.89     -2.70
   19    5    4     -0.02     -4.61
   21    5    4      2.10     -3.48
   23    5    4      3.70      2.43
   25    5    4      3.27      7.60
   27    5    4      0.23      5.22
   29    5    4     -4.30     -1.87
   31    5    4     -7.91     -4.26
   33    5    4     -7.14      1.00
   35    5    4     -0.98      6.36
  -38    4    4     -5.83      5.60
  -36    4    4     -5.32      3.94
  -34    4    4     -0.07      0.98
  -32    4    4      3.45     -0.35
  -30    4    4      0.91     -1.57
  -28    4    4     -1.90     -2.63
  -26    4    4     -1.59     -1.01
  -24    4    4     -1.78      1.65
  -22    4    4     -2.70      1.96
  -20    4    4     -1.92      1.60
  -18    4    4     -0.58      2.81
  -16    4    4     -0.57      2.42
  -14    4    4     -2.25     -1.72
  -12    4    4     -4.29     -5.13
  -10    4    4     -3.40     -3.04
   -8    4    4      1.03      3.24
   -6    4    4      5.20      7.85
   -4    4    4      5.68      5.19
   -2    4    4      1.74     -2.75
    0    4    4     -3.67     -5.20
    2    4    4     -5.16      1.62
    4    4    4     -2.37      6.33
    6    4    4     -0.61      2.71
    8    4    4     -0.92     -0.32
   10    4    4      0.49      1.51
   12    4    4      3.23      2.29
   14    4    4      4.00      1.03
   16    4    4      3.52      1.24
   18    4    4      3.87      2.34
   20    4    4      3.50      2.43
   22    4    4      0.00      1.36
   24    4    4     -5.12     -0.23
   26    4    4     -6.83     -0.63
   28    4    4     -2.79     -0.10
   30    4    4      2.66     -3.25
   32    4    4      3.73    -10.66
   34    4    4      0.11    -12.74
   36    4    4     -3.74     -4.31
   38    4    4     -3.92      4.24
  -39    3    4     -1.89     -7.98
  -37    3    4      0.72     -9.19
  -35    3    4      2.31     -4.91
  -33    3    4     -1.11     -0.77
  -31    3    4     -2.15     -0.95
  -29    3    4      1.25     -0.68
  -27    3    4      1.60      2.54
  -25    3    4     -1.80      2.46
  -23    3    4     -2.90     -1.77
  -21    3    4     -1.23     -2.89
  -19    3    4     -1.27     -0.07
  -17    3    4     -3.09      1.17
  -15    3    4     -1.05     -0.09
  -13    3    4      5.49     -0.55
  -11    3    4      7.82      0.48
   -9    3    4      0.84      0.93
   -7    3    4     -8.23      0.85
   -5    3    4     -8.55      1.92
   -3    3    4      1.09      2.16
   -1    3    4      8.81     -1.11
    1    3    4      5.26     -4.21
    3    3    4     -1.73     -1.93
    5    3    4     -1.69      2.03
    7    3    4      1.33      0.48
    9    3    4      0.53     -2.88
   11    3    4     -1.79     -0.08
   13    3    4     -2.21      4.95
   15    3    4     -2.08      5.01
   17    3    4     -3.38      2.94
   19    3    4     -4.81      2.36
   21    3    4     -3.08      1.48
   23    3    4      1.53     -0.36
   25    3    4      3.34     -2.04
   27    3    4     -1.16     -2.34
   29    3    4     -5.47      0.39
   31    3    4     -0.03      4.99
   33    3    4     10.82      6.70
   35    3    4     11.94      2.73
   37    3    4      1.49     -3.24
   39    3    4     -6.36     -5.18
  -40    2    4      0.25      0.59
  -38    2    4      1.91      5.93
  -36    2    4      2.52      8.43
  -34    2    4      2.79      1.59
  -32    2    4      3.00     -4.93
  -30    2    4      2.17     -2.39
  -28    2    4     -0.39      0.11
  -26    2    4     -1.46     -3.58
  -24    2    4      1.46     -5.95
  -22    2    4      2.96     -3.20
  -20    2    4     -0.62     -0.77
  -18    2    4     -3.16     -1.91
  -16    2    4     -2.13     -1.47
  -14    2    4     -2.82      4.45
  -12    2    4     -5.04      8.97
  -10    2    4     -4.12      5.20
   -8    2    4     -0.15     -3.46
   -6    2    4      3.77     -9.39
   -4    2    4      3.66     -6.03
   -2    2    4     -1.13      3.95
    0    2    4     -3.04      7.08
    2    2    4      0.23      0.53
    4    2    4      0.02     -3.75
    6    2    4     -3.00     -1.73
    8    2    4     -0.51      0.68
   10    2    4      1.65      0.58
   12    2    4     -3.51     -0.93
   14    2    4     -6.62     -1.80
   16    2    4     -2.25     -2.67
   18    2    4      0.92     -5.21
   20    2    4     -0.73     -5.29
   22    2    4     -1.68      0.00
   24    2    4     -0.05      4.09
   26    2    4      1.01      0.58
   28    2    4     -0.13     -6.80
   30    2    4     -2.14     -8.46
   32    2    4     -2.61     -1.42
   34    2    4     -0.39      5.69
   36    2    4      2.34      5.11
   38    2    4      2.70      0.45
  -41    1    4      3.64     -2.39
  -39    1    4     -1.60     -0.25
  -37    1    4     -5.17     -0.77
  -35    1    4     -2.11     -1.21
  -33    1    4      2.94      0.98
  -31    1    4      2.94      1.48
  -29    1    4      0.61      0.01
  -27    1    4      1.13      0.70
  -25    1    4      2.17      3.00
  -23    1    4      0.90      2.84
  -21    1    4     -0.19     -0.95
  -19    1    4      1.53     -3.30
  -17    1    4      3.12     -1.62
  -15    1    4      0.00     -2.74
  -13    1    4     -4.53     -8.02
  -11    1    4     -5.15     -8.75
   -9    1    4     -2.96     -2.22
   -7    1    4      2.80      7.29
   -5    1    4     10.52     12.25
   -3    1    4      8.42      5.37
   -1    1    4     -3.00     -3.40
    1    1    4     -6.43      0.24
    3    1    4      0.88      5.20
    5    1    4      5.65     -0.42
    7    1    4      3.64     -4.01
    9    1    4      0.80      0.64
   11    1    4      0.65      1.82
   13    1    4      1.39     -2.41
   15    1    4      1.67     -3.19
   17    1    4      2.86      0.18
   19    1    4      3.32      1.34
   21    1    4      0.33     -1.00
   23    1    4     -2.67     -2.29
   25    1    4     -1.69     -0.94
   27    1    4      1.88      0.43
   29    1    4      4.69      0.91
   31    1    4      4.32      1.78
   33    1    4      1.02      3.25
   35    1    4     -2.40      3.24
   37    1    4     -3.96     -0.37
   39    1    4     -3.25     -4.48
  -42    0    4      3.60      0.72
  -40    0    4     -1.76      0.71
  -38    0    4     -4.33      0.30
  -36    0    4      0.49     -0.11
  -34    0    4      1.66     -0.09
  -32    0    4     -1.29      0.17
  -30    0    4     -0.29      0.18
  -28    0    4      1.04      0.11
  -26    0    4     -1.18      0.23
  -24    0    4     -1.53      0.26
  -22    0    4      2.15      0.05
  -20    0    4      3.91     -0.13
  -18    0    4      0.31     -0.28
  -16    0    4     -1.10     -0.42
  -14    0    4      5.47     -0.18
  -12    0    4     10.89     -0.02
  -10    0    4      6.39     -0.60
   -8    0    4     -5.20     -0.67
   -6    0    4    -15.42      0.45
   -4    0    4    -12.82      0.85
   -2    0    4     -0.76     -0.18
    0    0    4      0.32     -0.89
    2    0    4     -7.18     -0.64
    4    0    4     -3.40     -0.03
    6    0    4      4.43      0.59
    8    0    4      0.91      0.61
   10    0    4     -5.09      0.10
   12    0    4     -3.52     -0.15
   14    0    4      0.85     -0.15
   16    0    4      2.07     -0.33
   18    0    4      0.16     -0.37
   20    0    4     -0.43     -0.15
   22    0    4      2.20     -0.03
   24    0    4      3.66     -0.03
   26    0    4      1.49     -0.03
   28    0    4     -1.68     -0.01
   30    0    4     -3.36      0.13
   32    0    4     -3.51      0.29
   34    0    4     -2.73      0.25
   36    0    4      0.38      0.07
   38    0    4      5.71     -0.07
   40    0    4      7.85     -0.07
   37    5    4      4.12      5.08
  -26   10    4     -2.60      0.13
  -12   12    5     -3.00     -0.78
  -10   12    5      0.72      1.99
   -8   12    5      5.05      1.01
   -6   12    5      7.88     -4.03
   -4   12    5      5.51     -4.66
   -2   12    5     -0.36      3.91
    0   12    5     -1.67     11.63
    2   12    5      2.02      7.57
    4   12    5      1.77     -2.30
    6   12    5     -4.84     -6.38
    8   12    5     -8.91     -4.21
  -19   11    5     -1.04      2.92
  -17   11    5     -3.44      0.33
  -15   11    5     -1.17     -2.99
  -13   11    5      0.40     -3.71
  -11   11    5     -3.43     -0.97
   -9   11    5     -6.67      3.40
   -7   11    5     -3.30      7.56
   -5   11    5      2.24      8.47
   -3   11    5      1.47      4.13
   -1   11    5     -4.83     -0.72
    1   11    5     -6.96     -0.25
    3   11    5     -1.12      1.83
    5   11    5      5.69     -1.22
    7   11    5      6.48     -5.72
    9   11    5      1.44     -4.03
   11   11    5     -3.20      0.83
   13   11    5     -2.16      0.35
   15   11    5      1.33     -4.37
   17   11    5      1.28     -5.20
  -24   10    5     -1.46     -0.87
  -22   10    5     -2.16     -1.07
  -20   10    5     -1.67     -2.04
  -18   10    5      1.88     -3.82
  -16   10    5      4.85     -2.33
  -14   10    5      3.83     -0.41
  -12   10    5      1.12     -2.83
  -10   10    5      0.24     -5.83
   -8   10    5     -0.56     -5.23
   -6   10    5     -4.24     -3.20
   -4   10    5     -6.98     -2.00
   -2   10    5     -4.90     -0.97
    0   10    5     -3.02      0.27
    2   10    5     -4.04      0.80
    4   10    5     -1.83      0.67
    6   10    5      3.20      1.12
    8   10    5      2.82      0.88
   10   10    5     -1.50     -1.51
   12   10    5     -1.31     -1.88
   14   10    5      2.99      2.78
   16   10    5      4.87      5.51
   18   10    5      2.92      0.76
   20   10    5      1.05     -3.48
   22   10    5      1.44     -0.14
  -29    9    5     -2.20     -2.99
  -27    9    5     -2.07     -2.87
  -25    9    5     -0.90      1.85
  -23    9    5      0.08      4.80
  -21    9    5      0.77      2.90
  -19    9    5      1.34      2.01
  -17    9    5      0.48      3.86
  -15    9    5     -0.85      3.65
  -13    9    5      0.04      1.15
  -11    9    5      1.71      0.57
   -9    9    5      1.75      1.08
   -7    9    5      2.01     -2.19
   -5    9    5      3.64     -6.65
   -3    9    5      3.97     -4.88
   -1    9    5      1.99     -0.44
    1    9    5      0.10     -1.54
    3    9    5     -0.42     -3.61
    5    9    5     -0.57     -0.46
    7    9    5     -0.84      2.18
    9    9    5     -0.97     -0.06
   11    9    5     -1.30     -2.29
   13    9    5     -2.28     -1.32
   15    9    5     -2.04      0.08
   17    9    5      2.08      0.06
   19    9    5      5.65      0.34
   21    9    5      0.40      1.89
   23    9    5     -8.50      2.90
   25    9    5     -7.80      2.20
   27    9    5     -0.29      0.88
  -32    8    5     -0.88     -1.85
  -30    8    5      0.69     -1.73
  -28    8    5      2.09     -1.80
  -26    8    5      0.67     -4.34
  -24    8    5     -2.26     -4.81
  -22    8    5     -2.94     -1.04
  -20    8    5     -1.65      1.26
  -18    8    5     -0.47     -0.12
  -16    8    5      0.41     -1.62
  -14    8    5      0.38     -1.74
  -12    8    5     -0.81     -0.77
  -10    8    5     -0.81      0.85
   -8    8    5      2.30      2.08
   -6    8    5      5.29      2.74
   -4    8    5      2.71      2.61
   -2    8    5     -2.73      1.57
    0    8    5     -2.94      1.14
    2    8    5      0.93      0.68
    4    8    5      1.93     -1.38
    6    8    5      0.51     -2.32
    8    8    5      0.55     -0.98
   10    8    5      1.76     -1.25
   12    8    5      1.77     -3.16
   14    8    5      0.03     -1.84
   16    8    5     -0.81      3.04
   18    8    5      0.44      5.23
   20    8    5      1.03      0.20
   22    8    5      0.14     -7.23
   24    8    5     -0.36     -8.29
   26    8    5      0.52     -3.62
   28    8    5      2.97     -1.53
   30    8    5      4.39     -3.24
  -33    7    5      2.38     -3.80
  -31    7    5      2.50      0.48
  -29    7    5      1.99      2.32
  -27    7    5      4.06      2.04
  -25    7    5      4.44      1.74
  -23    7    5     -1.60      0.24
  -21    7    5     -6.14     -2.12
  -19    7    5     -2.54     -2.06
  -17    7    5      1.91      0.62
  -15    7    5      0.86      2.31
  -13    7    5     -2.69      1.16
  -11    7    5     -4.22     -0.73
   -9    7    5     -2.09     -0.30
   -7    7    5      0.71      1.85
   -5    7    5      0.40      1.65
   -3    7    5     -1.50     -1.35
   -1    7    5     -2.61     -2.48
    1    7    5     -2.48     -0.58
    3    7    5     -0.65      0.73
    5    7    5      0.72      0.33
    7    7    5      0.44     -0.20
    9    7    5      1.49      0.00
   11    7    5      3.46      0.69
   13    7    5      2.74      0.49
   15    7    5     -0.07     -0.30
   17    7    5     -1.23      0.39
   19    7    5      1.48      1.80
   21    7    5      4.83      2.25
   23    7    5      3.41      2.06
   25    7    5      0.02      1.16
   27    7    5      1.28      1.63
   29    7    5      4.59      5.85
   31    7    5      3.93      8.39
  -36    6    5      6.92      3.72
  -34    6    5      6.93      6.82
  -32    6    5      0.32      4.36
  -30    6    5     -2.95      0.29
  -28    6    5     -0.85     -0.25
  -26    6    5      0.29     -0.11
  -24    6    5      1.15     -3.25
  -22    6    5      4.19     -4.96
  -20    6    5      4.90     -1.32
  -18    6    5      1.68      1.85
  -16    6    5     -0.97     -0.05
  -14    6    5     -0.55     -4.11
  -12    6    5      2.10     -6.53
  -10    6    5      3.55     -4.86
   -8    6    5      0.63     -0.18
   -6    6    5     -2.77      2.26
   -4    6    5     -0.82      0.28
   -2    6    5      3.52     -3.92
    0    6    5      3.77     -6.82
    2    6    5      0.38     -4.81
    4    6    5     -1.27     -0.11
    6    6    5      0.54      1.84
    8    6    5      2.28      2.13
   10    6    5      1.72      2.71
   12    6    5      0.65      1.79
   14    6    5      0.22      0.23
   16    6    5     -0.51     -0.62
   18    6    5     -1.41     -0.34
   20    6    5     -1.61      2.47
   22    6    5     -1.35      3.79
   24    6    5     -0.82      0.30
   26    6    5     -1.17     -0.63
   28    6    5     -4.95      3.11
   30    6    5     -9.36      2.23
   32    6    5     -7.37     -3.56
   34    6    5     -1.28     -5.36
  -37    5    5     -1.44      1.11
  -35    5    5     -7.34      2.70
  -33    5    5     -7.13      1.20
  -31    5    5     -1.45      0.49
  -29    5    5      1.33      2.13
  -27    5    5      0.94      2.44
  -25    5    5      2.30      2.17
  -23    5    5      2.51      4.48
  -21    5    5     -1.28      6.19
  -19    5    5     -3.16      3.34
  -17    5    5     -0.19     -1.86
  -15    5    5      2.91     -4.22
  -13    5    5      3.71     -0.26
  -11    5    5      3.09      5.97
   -9    5    5      1.72      5.35
   -7    5    5      0.59     -1.56
   -5    5    5     -0.62     -3.95
   -3    5    5     -1.05      1.80
   -1    5    5      2.56      6.97
    1    5    5      6.77      4.02
    3    5    5      4.07     -2.14
    5    5    5     -2.55     -1.97
    7    5    5     -4.71      2.48
    9    5    5     -2.47      2.90
   11    5    5     -0.73      0.51
   13    5    5     -1.00      0.34
   15    5    5     -0.91      1.11
   17    5    5      0.97      0.65
   19    5    5      0.63     -0.21
   21    5    5     -3.10     -0.62
   23    5    5     -3.20     -0.13
   25    5    5      0.37      0.01
   27    5    5      0.59     -3.31
   29    5    5      1.37     -8.64
   31    5    5      7.18     -8.35
   33    5    5      9.22     -0.34
   35    5    5      3.68      5.81
  -38    4    5     -0.85      3.56
  -36    4    5     -0.81     -1.30
  -34    4    5     -1.57     -4.16
  -32    4    5     -2.96     -0.83
  -30    4    5     -2.48      1.64
  -28    4    5      0.64     -0.36
  -26    4    5      1.63     -1.61
  -24    4    5     -1.81     -0.84
  -22    4    5     -5.01     -1.83
  -20    4    5     -4.66     -2.95
  -18    4    5     -0.83     -0.43
  -16    4    5      4.83      3.67
  -14    4    5      5.81      5.20
  -12    4    5     -1.20      2.85
  -10    4    5     -7.10     -1.00
   -8    4    5     -3.51     -1.87
   -6    4    5      3.87     -0.39
   -4    4    5      4.53     -1.84
   -2    4    5     -2.04     -3.84
    0    4    5     -5.66      0.30
    2    4    5     -0.44      5.26
    4    4    5      5.33      1.90
    6    4    5      3.52     -4.20
    8    4    5     -0.45     -3.62
   10    4    5     -0.07      0.08
   12    4    5      1.64      0.38
   14    4    5      1.14     -0.72
   16    4    5     -0.25      0.08
   18    4    5     -0.74      0.50
   20    4    5      0.17     -1.81
   22    4    5      0.93     -3.36
   24    4    5     -0.48     -0.97
   26    4    5     -1.33      1.88
   28    4    5      2.16      3.49
   30    4    5      5.98      6.49
   32    4    5      2.87      7.58
   34    4    5     -5.14      3.01
   36    4    5     -8.13     -1.81
  -39    3    5     -5.53     -6.41
  -37    3    5     -2.48     -6.37
  -35    3    5      1.05     -4.13
  -33    3    5      0.27     -2.98
  -31    3    5     -1.54     -2.59
  -29    3    5     -2.25      0.22
  -27    3    5     -2.18      3.52
  -25    3    5      0.32      2.47
  -23    3    5      4.34     -1.02
  -21    3    5      5.28     -2.42
  -19    3    5      1.30     -1.46
  -17    3    5     -4.25      1.10
  -15    3    5     -6.10      3.02
  -13    3    5     -2.35      0.42
  -11    3    5      3.87     -5.03
   -9    3    5      7.33     -6.62
   -7    3    5      4.83     -1.53
   -5    3    5      0.58      4.96
   -3    3    5      1.50      4.59
   -1    3    5      3.15     -1.96
    1    3    5     -2.61     -4.09
    3    3    5     -8.67      1.84
    5    3    5     -5.53      6.42
    7    3    5      0.00      3.85
    9    3    5      0.11      0.14
   11    3    5     -0.46      0.19
   13    3    5      1.45      0.75
   15    3    5      1.06     -0.42
   17    3    5     -1.89     -0.71
   19    3    5     -1.52      0.96
   21    3    5      1.74      2.16
   23    3    5      1.54      0.74
   25    3    5     -1.81     -1.76
   27    3    5     -3.07     -1.43
   29    3    5     -2.06      1.73
   31    3    5     -1.19      3.03
   33    3    5     -0.90     -0.05
   35    3    5     -1.15     -3.95
   37    3    5     -0.73     -3.51
  -40    2    5      9.55     -2.89
  -38    2    5     12.01     -2.15
  -36    2    5      5.16      0.50
  -34    2    5     -1.71      0.24
  -32    2    5     -1.59     -0.52
  -30    2    5      0.86     -0.30
  -28    2    5      0.43     -2.54
  -26    2    5     -0.68     -3.15
  -24    2    5      0.21      2.59
  -22    2    5      1.67      7.60
  -20    2    5      2.02      4.81
  -18    2    5      0.70     -2.10
  -16    2    5     -2.42     -5.50
  -14    2    5     -4.96     -2.42
  -12    2    5     -2.97      4.45
  -10    2    5      3.66     10.84
   -8    2    5      8.21     11.34
   -6    2    5      3.76      4.07
   -4    2    5     -4.82     -0.73
   -2    2    5     -4.25      3.24
    0    2    5      5.73      3.14
    2    2    5     10.07     -6.84
    4    2    5      4.40    -11.68
    6    2    5      0.69     -5.04
    8    2    5      2.47      1.68
   10    2    5      1.62      2.71
   12    2    5     -1.54      2.61
   14    2    5     -0.82      2.16
   16    2    5      1.18     -1.10
   18    2    5     -0.16     -3.22
   20    2    5     -1.68     -0.63
   22    2    5     -0.05      0.73
   24    2    5      1.51     -2.34
   26    2    5      0.15     -3.67
   28    2    5     -1.44     -1.35
   30    2    5     -1.43      0.25
   32    2    5     -1.69     -0.02
   34    2    5     -1.69     -1.00
   36    2    5     -0.14     -1.80
   38    2    5      0.63     -1.40
  -41    1    5     -2.66      7.80
  -39    1    5     -0.50      9.81
  -37    1    5     -0.27      1.43
  -35    1    5     -1.04     -5.92
  -33    1    5      0.73     -4.51
  -31    1    5      1.57     -1.84
  -29    1    5      0.37     -2.05
  -27    1    5      0.01     -1.16
  -25    1    5     -1.79      0.75
  -23    1    5     -6.12      1.11
  -21    1    5     -7.36      0.80
  -19    1    5     -2.72      1.27
  -17    1    5      3.16      0.38
  -15    1    5      5.15     -4.66
  -13    1    5      2.23     -9.02
  -11    1    5     -4.41     -4.61
   -9    1    5     -9.78      4.97
   -7    1    5     -6.89      8.00
   -5    1    5     -0.61      1.60
   -3    1    5     -2.60     -4.68
   -1    1    5     -7.19     -1.22
    1    1    5     -2.55      7.18
    3    1    5      3.87      8.64
    5    1    5      1.48      5.08
    7    1    5     -3.95      4.98
    9    1    5     -4.61      5.17
   11    1    5     -1.76      0.95
   13    1    5      1.17     -2.16
   15    1    5      2.93      0.00
   17    1    5      2.45      2.19
   19    1    5     -0.32      0.08
   21    1    5     -1.41     -1.32
   23    1    5      1.24      1.34
   25    1    5      2.64      1.90
   27    1    5      0.95     -0.95
   29    1    5      1.03     -1.00
   31    1    5      2.72     -0.10
   33    1    5      1.51     -2.54
   35    1    5     -1.08     -3.47
   37    1    5     -0.57     -0.33
   39    1    5      2.11      2.04
  -40    0    5     -9.11     -1.26
  -38    0    5      0.26     -0.28
  -36    0    5      9.91      0.32
  -34    0    5      6.47     -0.01
  -32    0    5      0.92     -0.12
  -30    0    5      3.42      0.24
  -28    0    5      4.99      0.09
  -26    0    5      1.50     -0.45
  -24    0    5     -0.03     -0.27
  -22    0    5      1.59      0.38
  -20    0    5      1.64      0.36
  -18    0    5     -0.72     -0.02
  -16    0    5     -0.18      0.09
  -14    0    5      5.09      0.22
  -12    0    5      6.41     -0.19
  -10    0    5     -0.01     -0.45
   -8    0    5     -5.03     -0.15
   -6    0    5     -3.47      0.08
   -4    0    5      0.67     -0.11
   -2    0    5      2.74     -0.31
    0    0    5      0.85     -0.30
    2    0    5     -1.56     -0.22
    4    0    5     -1.61     -0.22
    6    0    5     -2.92     -0.37
    8    0    5     -5.82     -0.29
   10    0    5     -5.00      0.19
   12    0    5     -0.80      0.29
   14    0    5      0.26     -0.13
   16    0    5     -3.03     -0.03
   18    0    5     -2.95      0.42
   20    0    5      2.10      0.23
   22    0    5      2.27     -0.23
   24    0    5     -2.42     -0.24
   26    0    5     -1.89     -0.19
   28    0    5      1.12     -0.43
   30    0    5      0.29     -0.50
   32    0    5      0.74     -0.12
   34    0    5      3.54      0.23
   36    0    5      2.51      0.06
   38    0    5     -1.57     -0.25
   -8   12    6     -0.49      0.73
   -6   12    6      3.65      2.94
   -4   12    6      4.75      1.64
   -2   12    6      0.36     -0.23
    0   12    6     -4.95     -0.29
    2   12    6     -5.92     -1.60
    4   12    6     -2.97     -2.90
    6   12    6     -0.56     -1.06
  -19   11    6     -3.07     -5.85
  -17   11    6     -2.18     -4.90
  -15   11    6     -0.36     -1.44
  -13   11    6      1.75      0.39
  -11   11    6      5.60     -1.06
   -9   11    6      5.66     -3.27
   -7   11    6     -2.23     -1.85
   -5   11    6     -7.96      3.29
   -3   11    6     -4.66      5.42
   -1   11    6      0.33      0.24
    1   11    6      2.70     -6.00
    3   11    6      3.42     -5.97
    5   11    6      0.80     -1.84
    7   11    6     -2.04      1.02
    9   11    6     -0.08      1.51
   11   11    6      1.88      0.56
   13   11    6     -1.02     -0.61
   15   11    6     -4.33     -0.87
  -24   10    6     -2.67     -2.45
  -22   10    6     -2.23     -5.75
  -20   10    6      0.88     -6.15
  -18   10    6      3.17     -2.08
  -16   10    6      1.96      3.10
  -14   10    6     -0.35      4.43
  -12   10    6     -1.41      4.63
  -10   10    6     -0.81      5.50
   -8   10    6      1.98      2.17
   -6   10    6      4.34     -2.77
   -4   10    6      2.96     -2.66
   -2   10    6      0.47     -1.37
    0   10    6      0.33     -2.70
    2   10    6      1.26     -2.48
    4   10    6      0.96     -0.79
    6   10    6     -1.01     -1.32
    8   10    6     -1.99     -2.31
   10   10    6      1.28     -1.86
   12   10    6      5.10     -1.62
   14   10    6      3.49     -1.82
   16   10    6     -0.12     -2.42
   18   10    6     -0.02     -4.74
   20   10    6      1.18     -6.76
  -27    9    6     -2.47     -4.21
  -25    9    6     -0.74     -3.68
  -23    9    6      2.25     -3.25
  -21    9    6      6.05     -1.22
  -19    9    6      6.49      2.21
  -17    9    6      1.13      0.83
  -15    9    6     -3.79     -2.80
  -13    9    6     -2.66     -1.58
  -11    9    6      1.42      0.38
   -9    9    6      3.26     -0.69
   -7    9    6      0.93      0.24
   -5    9    6     -3.42      3.78
   -3    9    6     -4.13      4.95
   -1    9    6      0.33      2.64
    1    9    6      4.59     -0.08
    3    9    6      5.01      0.00
    5    9    6      3.34      1.62
    7    9    6      1.91      1.05
    9    9    6      0.93      0.39
   11    9    6     -0.05      2.70
   13    9    6     -0.03      2.99
   15    9    6      1.91     -1.47
   17    9    6      3.22     -2.65
   19    9    6      1.16      2.45
   21    9    6     -1.27      4.28
   23    9    6      0.62     -0.53
   25    9    6      4.66     -3.20
  -30    8    6      2.59      0.07
  -28    8    6      5.55      3.15
  -26    8    6      3.40      3.61
  -24    8    6      1.84     -0.10
  -22    8    6      3.05     -1.61
  -20    8    6      0.76      1.53
  -18    8    6     -2.56      3.78
  -16    8    6     -1.58      1.79
  -14    8    6     -1.29     -0.64
  -12    8    6     -2.92      1.17
  -10    8    6     -1.49      4.98
   -8    8    6     -0.26      4.61
   -6    8    6     -3.02      0.31
   -4    8    6     -4.81     -2.40
   -2    8    6     -2.27     -2.31
    0    8    6      0.98     -1.46
    2    8    6      1.00      0.28
    4    8    6     -1.37      2.50
    6    8    6     -2.31      2.79
    8    8    6     -0.91      0.66
   10    8    6      0.30     -1.79
   12    8    6      0.70     -1.86
   14    8    6      1.84      1.40
   16    8    6      2.47      3.68
   18    8    6      0.09     -0.04
   20    8    6     -1.67     -5.18
   22    8    6      2.32     -3.54
   24    8    6      6.29      2.99
   26    8    6      2.75      7.36
   28    8    6     -2.44      7.77
  -33    7    6      0.00     -1.95
  -31    7    6      0.91      1.16
  -29    7    6     -2.38      2.31
  -27    7    6     -6.06     -1.11
  -25    7    6     -3.61     -2.85
  -23    7    6      1.25      0.59
  -21    7    6      2.60      2.18
  -19    7    6      0.86     -0.95
  -17    7    6     -1.49     -3.01
  -15    7    6     -1.76     -3.13
  -13    7    6     -0.08     -3.41
  -11    7    6     -0.19     -1.50
   -9    7    6     -1.26      1.13
   -7    7    6      0.39     -0.98
   -5    7    6      2.48     -5.37
   -3    7    6      1.88     -4.83
   -1    7    6      0.40      0.16
    1    7    6     -0.48      2.91
    3    7    6     -1.42      1.62
    5    7    6     -1.48      0.12
    7    7    6      0.31     -0.77
    9    7    6      1.56     -2.09
   11    7    6      0.59     -1.35
   13    7    6     -0.62      1.41
   15    7    6     -0.53      1.95
   17    7    6      0.72      0.63
   19    7    6      1.56      1.03
   21    7    6     -1.08      3.17
   23    7    6     -4.74      4.35
   25    7    6     -3.93      1.59
   27    7    6     -2.63     -4.21
   29    7    6     -5.20     -6.37
   31    7    6     -5.48     -2.45
  -36    6    6      6.38      1.67
  -34    6    6      5.63     -0.22
  -32    6    6      1.81     -0.66
  -30    6    6     -0.46     -0.56
  -28    6    6      1.29     -2.62
  -26    6    6      3.21     -3.32
  -24    6    6      1.95     -0.51
  -22    6    6      0.72      1.99
  -20    6    6      1.80      1.80
  -18    6    6      1.92     -0.18
  -16    6    6      0.52     -1.52
  -14    6    6      1.23     -0.31
  -12    6    6      2.70      0.94
  -10    6    6      0.15      0.10
   -8    6    6     -3.94      0.54
   -6    6    6     -2.87      3.37
   -4    6    6      1.95      3.67
   -2    6    6      3.30     -0.13
    0    6    6      0.20     -2.90
    2    6    6     -2.16     -1.83
    4    6    6     -1.77     -0.19
    6    6    6     -0.27      0.26
    8    6    6      1.80      0.92
   10    6    6      2.92      1.23
   12    6    6      1.04      0.84
   14    6    6     -0.74      0.88
   16    6    6      0.17      0.51
   18    6    6      0.16     -0.63
   20    6    6     -1.31     -2.19
   22    6    6     -0.96     -4.50
   24    6    6      0.05     -3.41
   26    6    6      1.25      2.62
   28    6    6      4.24      5.01
   30    6    6      4.98      1.25
   32    6    6      1.51     -0.58
  -37    5    6     -5.73      8.12
  -35    5    6     -6.19      8.73
  -33    5    6     -1.04      5.69
  -31    5    6      2.45      2.36
  -29    5    6      1.82      0.48
  -27    5    6      1.14      0.63
  -25    5    6      1.02      1.86
  -23    5    6     -0.32      1.98
  -21    5    6     -0.96      0.88
  -19    5    6      1.20      0.19
  -17    5    6      3.00      0.02
  -15    5    6      0.71      0.35
  -13    5    6     -3.04      1.81
  -11    5    6     -3.32      2.21
   -9    5    6     -0.75     -0.60
   -7    5    6      0.33     -3.18
   -5    5    6     -1.08     -1.63
   -3    5    6     -1.56      1.57
   -1    5    6      0.75      1.71
    1    5    6      2.81     -0.91
    3    5    6      2.60     -1.99
    5    5    6      2.27     -0.46
    7    5    6      2.00      0.52
    9    5    6     -0.30      0.09
   11    5    6     -2.98     -0.54
   13    5    6     -3.05     -1.17
   15    5    6     -0.98     -0.58
   17    5    6      0.93      0.93
   19    5    6      1.46      0.52
   21    5    6      1.75     -0.62
   23    5    6      2.28     -0.45
   25    5    6      0.04     -1.08
   27    5    6     -3.94     -2.08
   29    5    6     -4.28     -1.18
   31    5    6     -3.33      0.37
   33    5    6     -5.29      1.86
   35    5    6     -5.09      3.05
  -38    4    6     -5.29     -5.52
  -36    4    6     -4.70    -10.24
  -34    4    6     -2.28     -7.04
  -32    4    6     -2.67     -0.99
  -30    4    6     -3.03      0.45
  -28    4    6     -0.22     -0.66
  -26    4    6      1.05     -0.45
  -24    4    6     -1.27      0.30
  -22    4    6     -2.37      0.46
  -20    4    6     -1.13      0.98
  -18    4    6     -0.01      2.03
  -16    4    6      0.74      1.71
  -14    4    6      0.37     -1.02
  -12    4    6     -1.15     -4.00
  -10    4    6     -1.04     -3.93
   -8    4    6      0.67     -0.58
   -6    4    6      1.15      1.59
   -4    4    6     -0.05     -1.36
   -2    4    6     -1.80     -5.06
    0    4    6     -2.56     -2.31
    2    4    6     -1.62      3.93
    4    4    6     -1.08      5.61
    6    4    6     -1.50      3.00
    8    4    6     -0.03      0.20
   10    4    6      3.11     -1.98
   12    4    6      4.21     -2.14
   14    4    6      2.23      0.34
   16    4    6     -0.30      2.20
   18    4    6     -0.43      2.02
   20    4    6      1.21      1.49
   22    4    6      0.80      1.24
   24    4    6     -1.21      0.88
   26    4    6     -0.29      0.66
   28    4    6      2.54      1.85
   30    4    6      2.26      2.54
   32    4    6     -0.79     -2.78
   34    4    6     -2.19    -10.97
   36    4    6     -0.49    -11.18
  -39    3    6      2.34     -3.60
  -37    3    6      5.43      0.08
  -35    3    6      5.96      5.75
  -33    3    6      4.65      4.78
  -31    3    6      4.03     -1.58
  -29    3    6      2.55     -2.57
  -27    3    6      0.93      2.48
  -25    3    6      1.42      3.45
  -23    3    6      1.79     -0.78
  -21    3    6      0.63     -2.90
  -19    3    6     -0.63     -1.46
  -17    3    6     -1.80      0.51
  -15    3    6     -1.48      0.89
  -13    3    6      1.53     -0.88
  -11    3    6      3.58     -2.21
   -9    3    6      0.97     -1.04
   -7    3    6     -3.79      0.78
   -5    3    6     -3.28      1.73
   -3    3    6      4.93      1.15
   -1    3    6     10.60     -1.92
    1    3    6      5.84     -4.42
    3    3    6     -0.50     -2.75
    5    3    6     -0.59     -0.29
    7    3    6      0.50     -0.20
    9    3    6      0.19      1.01
   11    3    6      0.93      3.41
   13    3    6      0.59      1.89
   15    3    6     -1.84     -1.86
   17    3    6     -2.77     -2.06
   19    3    6     -1.36     -0.06
   21    3    6     -0.02     -0.13
   23    3    6      0.20     -1.75
   25    3    6     -0.20     -2.31
   27    3    6     -1.78     -1.93
   29    3    6     -5.18     -2.20
   31    3    6     -5.27     -1.75
   33    3    6      3.73      1.41
   35    3    6     14.18      4.51
   37    3    6     12.92      4.42
  -40    2    6      3.23     -0.41
  -38    2    6     -0.82     -0.40
  -36    2    6     -6.40      0.11
  -34    2    6     -6.35      0.51
  -32    2    6     -2.12      2.00
  -30    2    6      0.45      2.44
  -28    2    6     -0.82      0.62
  -26    2    6     -2.58      0.83
  -24    2    6     -1.21      2.94
  -22    2    6      0.84      2.75
  -20    2    6      0.55      0.62
  -18    2    6      0.33     -2.29
  -16    2    6      1.24     -3.82
  -14    2    6      1.42     -0.24
  -12    2    6      1.93      4.11
  -10    2    6      3.48      2.24
   -8    2    6      3.48     -3.13
   -6    2    6      1.02     -5.38
   -4    2    6     -1.91     -1.36
   -2    2    6     -2.60      6.24
    0    2    6     -0.19      9.64
    2    2    6      1.25      7.26
    4    2    6     -0.55      4.90
    6    2    6     -0.90      3.08
    8    2    6      1.02     -0.13
   10    2    6      0.39     -1.25
   12    2    6     -1.43      1.42
   14    2    6     -0.96      3.38
   16    2    6     -0.19      1.69
   18    2    6      0.36     -0.48
   20    2    6      1.87      0.00
   22    2    6      1.87      0.73
   24    2    6      0.41     -0.20
   26    2    6      1.93     -0.49
   28    2    6      5.76     -0.86
   30    2    6      5.12     -3.40
   32    2    6     -1.54     -2.73
   34    2    6     -6.29      5.53
   36    2    6     -4.17     12.01
   38    2    6     -0.65      7.37
  -41    1    6      2.90      0.22
  -39    1    6      4.65      1.42
  -37    1    6      1.95     -0.50
  -35    1    6      0.37     -1.63
  -33    1    6      1.56     -0.61
  -31    1    6      1.58      0.62
  -29    1    6      0.95      2.48
  -27    1    6      0.58      3.64
  -25    1    6     -1.11      2.52
  -23    1    6     -2.38      0.59
  -21    1    6     -1.63     -1.35
  -19    1    6      0.17     -1.32
  -17    1    6      2.22      1.24
  -15    1    6      1.78      1.26
  -13    1    6     -1.12     -0.12
  -11    1    6     -1.37      3.35
   -9    1    6      0.69      7.19
   -7    1    6      1.01      5.54
   -5    1    6      0.80      1.80
   -3    1    6      0.84     -1.74
   -1    1    6     -1.47     -3.90
    1    1    6     -5.28     -2.64
    3    1    6     -6.97     -1.27
    5    1    6     -5.35     -1.03
    7    1    6     -1.93      1.19
    9    1    6      1.10      2.18
   11    1    6      1.46     -1.06
   13    1    6     -1.35     -3.42
   15    1    6     -3.13     -2.17
   17    1    6     -0.74     -0.28
   19    1    6      1.30      0.48
   21    1    6     -0.10      0.30
   23    1    6     -0.74      0.15
   25    1    6      0.48      1.31
   27    1    6      0.11      3.28
   29    1    6     -0.82      3.62
   31    1    6      0.04      1.10
   33    1    6     -0.44     -1.95
   35    1    6     -3.94     -2.28
   37    1    6     -5.13     -0.26
  -40    0    6     -0.21      1.60
  -38    0    6     -4.10      1.97
  -36    0    6     -3.29      0.67
  -34    0    6     -0.35     -0.38
  -32    0    6     -0.05     -0.26
  -30    0    6     -4.14      0.07
  -28    0    6     -8.27      0.07
  -26    0    6     -6.90      0.05
  -24    0    6     -2.25      0.06
  -22    0    6      1.72     -0.10
  -20    0    6      3.48     -0.31
  -18    0    6      0.90     -0.20
  -16    0    6     -1.57      0.01
  -14    0    6      0.44      0.08
  -12    0    6     -1.01      0.25
  -10    0    6     -7.22      0.39
   -8    0    6     -8.17      0.20
   -6    0    6     -4.55      0.02
   -4    0    6     -1.20     -0.05
   -2    0    6      3.07     -0.36
    0    0    6      4.87     -0.50
    2    0    6      2.74      0.02
    4    0    6      1.56      0.39
    6    0    6      0.07      0.15
    8    0    6     -2.51      0.24
   10    0    6     -0.62      0.82
   12    0    6      3.50      0.64
   14    0    6      2.58     -0.31
   16    0    6     -1.21     -0.71
   18    0    6     -1.35     -0.32
   20    0    6      1.44      0.07
   22    0    6      1.54      0.08
   24    0    6     -1.53     -0.02
   26    0    6     -2.67      0.07
   28    0    6     -0.77      0.17
   30    0    6     -0.13      0.05
   32    0    6     -1.59     -0.05
   34    0    6     -1.31      0.07
   36    0    6      0.65      0.14
   38    0    6      0.33     -0.01
   -4   12    7     -2.29     -7.72
   -2   12    7     -6.84     -3.26
    0   12    7     -6.29      5.29
  -17   11    7      2.76      2.51
  -15   11    7      6.27     -1.96
  -13   11    7      6.29     -5.63
  -11   11    7      2.47     -4.97
   -9   11    7     -0.39     -2.43
   -7   11    7      1.29      0.01
   -5   11    7      5.16     -0.54
   -3   11    7      4.41     -7.50
   -1   11    7     -2.06    -13.89
    1   11    7     -7.59     -8.37
    3   11    7     -8.11      3.33
    5   11    7     -3.40      5.35
    7   11    7      3.84     -1.37
    9   11    7      4.83     -3.29
   11   11    7     -2.67      0.65
   13   11    7     -6.66      0.64
  -22   10    7     -0.08      3.43
  -20   10    7     -0.64      0.79
  -18   10    7     -1.46     -1.95
  -16   10    7     -0.72      2.22
  -14   10    7      2.22      8.33
  -12   10    7      3.46      7.94
  -10   10    7      1.48      3.31
   -8   10    7      0.36      1.11
   -6   10    7      2.28      1.95
   -4   10    7      6.88      2.24
   -2   10    7     12.86      0.98
    0   10    7     13.06     -0.76
    2   10    7      3.30     -3.85
    4   10    7     -5.62     -5.89
    6   10    7     -4.15     -1.56
    8   10    7     -0.12      3.84
   10   10    7     -1.77      0.58
   12   10    7     -3.08     -4.66
   14   10    7      1.43     -0.08
   16   10    7      5.11      7.34
   18   10    7      2.42      5.38
   20   10    7     -1.03     -1.07
  -27    9    7     -3.79     -2.87
  -25    9    7     -4.51     -2.52
  -23    9    7     -3.37     -2.19
  -21    9    7     -0.35     -0.95
  -19    9    7      2.47      1.14
  -17    9    7      1.37      1.18
  -15    9    7     -2.79      0.98
  -13    9    7     -4.31      2.01
  -11    9    7     -2.40      1.25
   -9    9    7     -1.73      0.44
   -7    9    7     -2.63      2.22
   -5    9    7     -1.72      3.41
   -3    9    7     -0.52      3.99
   -1    9    7     -1.86      6.40
    1    9    7     -1.90      7.00
    3    9    7      2.03      3.05
    5    9    7      4.34     -1.74
    7    9    7      2.50     -4.35
    9    9    7      1.50     -4.69
   11    9    7      1.95     -3.05
   13    9    7     -0.85     -1.15
   15    9    7     -5.18     -1.04
   17    9    7     -4.34     -1.85
   19    9    7      0.91     -1.38
   21    9    7      3.09      0.75
   23    9    7      0.96      3.00
  -30    8    7      0.91     -4.08
  -28    8    7      0.91     -4.98
  -26    8    7     -1.10     -7.31
  -24    8    7     -0.61     -5.28
  -22    8    7      1.98      1.58
  -20    8    7      0.48      4.36
  -18    8    7     -2.98      0.67
  -16    8    7     -2.98     -2.71
  -14    8    7     -1.66     -2.31
  -12    8    7     -1.37     -0.84
  -10    8    7     -0.97     -1.65
   -8    8    7     -0.03     -3.51
   -6    8    7      1.39     -1.60
   -4    8    7      1.28      2.64
   -2    8    7     -2.19      2.28
    0    8    7     -5.33     -1.48
    2    8    7     -4.45     -1.85
    4    8    7     -1.30      0.39
    6    8    7      1.11      1.11
    8    8    7      1.70      1.03
   10    8    7      1.57      0.82
   12    8    7      2.26     -0.73
   14    8    7      2.05     -1.44
   16    8    7     -1.35      1.00
   18    8    7     -4.85      3.56
   20    8    7     -3.37      2.50
   22    8    7      0.50     -0.58
   24    8    7     -0.08     -1.41
   26    8    7     -2.65      0.77
  -33    7    7      4.83      2.07
  -31    7    7      5.66      3.79
  -29    7    7      4.20      1.97
  -27    7    7      7.54     -2.05
  -25    7    7     10.89     -3.47
  -23    7    7      4.58     -0.76
  -21    7    7     -3.64      1.09
  -19    7    7     -2.73     -1.16
  -17    7    7      2.48     -3.32
  -15    7    7      4.22     -1.45
  -13    7    7      2.04      1.96
  -11    7    7     -0.90      3.04
   -9    7    7     -0.47      2.63
   -7    7    7      1.92      2.70
   -5    7    7      1.18      0.87
   -3    7    7     -0.74     -3.68
   -1    7    7     -0.06     -5.43
    1    7    7      0.72     -2.40
    3    7    7      0.18      0.02
    5    7    7      0.64     -0.94
    7    7    7      1.96     -2.47
    9    7    7      2.18     -1.27
   11    7    7      1.55      2.30
   13    7    7      0.90      2.96
   15    7    7     -0.23     -1.82
   17    7    7     -1.00     -6.48
   19    7    7     -0.14     -5.76
   21    7    7      0.65     -0.78
   23    7    7     -0.02      3.34
   25    7    7     -0.84      1.99
   27    7    7     -1.48     -1.68
   29    7    7     -1.91     -0.96
  -34    6    7      0.75      4.63
  -32    6    7     -2.89      7.21
  -30    6    7     -5.46      3.52
  -28    6    7     -3.15      1.89
  -26    6    7      0.18      5.96
  -24    6    7      1.02      5.49
  -22    6    7      0.63     -0.38
  -20    6    7     -0.01     -1.20
  -18    6    7     -0.45      2.57
  -16    6    7     -0.41      3.81
  -14    6    7     -1.21      1.78
  -12    6    7     -2.62     -1.47
  -10    6    7     -3.01     -2.60
   -8    6    7     -2.72      0.32
   -6    6    7     -1.16      3.06
   -4    6    7      2.43      2.98
   -2    6    7      3.97      2.28
    0    6    7      1.22      1.41
    2    6    7     -0.23      0.40
    4    6    7      2.25      0.65
    6    6    7      3.22      1.54
    8    6    7      0.38      1.67
   10    6    7     -1.72      0.95
   12    6    7     -0.39      0.17
   14    6    7      1.51     -0.09
   16    6    7      0.46     -0.48
   18    6    7     -1.29     -0.93
   20    6    7     -0.03     -0.89
   22    6    7      0.66     -1.65
   24    6    7     -1.69     -2.75
   26    6    7     -1.65     -1.66
   28    6    7     -0.29      0.65
   30    6    7     -3.40      2.11
   32    6    7     -5.32      2.50
  -37    5    7      3.39     -2.26
  -35    5    7      1.84     -1.03
  -33    5    7     -3.76     -0.84
  -31    5    7     -5.34     -4.04
  -29    5    7     -2.03     -4.92
  -27    5    7     -0.67     -1.27
  -25    5    7     -0.54      1.80
  -23    5    7      1.50      1.97
  -21    5    7      1.86      0.57
  -19    5    7     -0.59     -1.57
  -17    5    7     -2.12     -2.90
  -15    5    7     -1.57     -2.29
  -13    5    7     -0.19     -0.83
  -11    5    7     -0.27      0.04
   -9    5    7     -2.25     -0.46
   -7    5    7     -2.51     -1.68
   -5    5    7     -1.14     -1.01
   -3    5    7     -1.48      1.90
   -1    5    7     -1.18      3.02
    1    5    7      0.72      0.79
    3    5    7     -0.44     -0.70
    5    5    7     -2.75      0.20
    7    5    7     -0.90      0.61
    9    5    7      1.77      0.80
   11    5    7      0.71      2.61
   13    5    7     -1.22      2.85
   15    5    7      0.55     -0.89
   17    5    7      4.71     -3.81
   19    5    7      4.77     -1.40
   21    5    7      0.25      2.17
   23    5    7     -0.85      1.33
   25    5    7      2.34     -0.39
   27    5    7      3.12     -0.10
   29    5    7      1.53     -4.42
   31    5    7      0.42    -12.29
   33    5    7     -0.81    -11.45
  -38    4    7      1.53      4.05
  -36    4    7      1.82      8.81
  -34    4    7     -0.42      6.06
  -32    4    7     -0.83     -1.07
  -30    4    7      1.96     -3.82
  -28    4    7      3.19     -2.85
  -26    4    7      0.77     -1.97
  -24    4    7     -1.55     -0.45
  -22    4    7     -1.09      1.25
  -20    4    7      0.68      1.85
  -18    4    7      2.11      1.93
  -16    4    7      2.50      1.48
  -14    4    7      0.70      0.65
  -12    4    7     -1.96     -0.85
  -10    4    7     -2.03     -3.46
   -8    4    7      0.58     -3.38
   -6    4    7      2.57     -0.04
   -4    4    7      1.36     -0.06
   -2    4    7     -2.30     -1.67
    0    4    7     -3.83      1.98
    2    4    7     -1.14      3.95
    4    4    7      1.19     -1.66
    6    4    7      0.27     -4.40
    8    4    7     -1.03     -0.51
   10    4    7     -1.46      0.24
   12    4    7     -1.53     -2.54
   14    4    7      0.37     -0.74
   16    4    7      2.86      4.67
   18    4    7      1.60      5.56
   20    4    7     -1.64      0.03
   22    4    7     -1.06     -3.92
   24    4    7      1.77     -1.49
   26    4    7      0.91      1.55
   28    4    7     -0.82      3.45
   30    4    7      4.00      7.22
   32    4    7     11.25      7.13
   34    4    7     10.51      0.76
  -39    3    7      1.48     -1.60
  -37    3    7     -1.39     -1.05
  -35    3    7     -5.11     -2.35
  -33    3    7     -4.38     -4.32
  -31    3    7     -0.79     -2.32
  -29    3    7      1.35      2.85
  -27    3    7      1.98      4.88
  -25    3    7      1.37      1.83
  -23    3    7     -0.79     -0.93
  -21    3    7     -2.52     -0.50
  -19    3    7     -3.09      1.01
  -17    3    7     -3.52      2.42
  -15    3    7     -3.00      1.58
  -13    3    7     -0.29     -2.93
  -11    3    7      3.47     -5.39
   -9    3    7      4.17     -1.96
   -7    3    7     -0.11      1.98
   -5    3    7     -2.57      2.57
   -3    3    7      0.90      1.37
   -1    3    7      1.57     -0.87
    1    3    7     -2.79     -2.64
    3    3    7     -1.80     -1.88
    5    3    7      3.10     -0.45
    7    3    7      2.36      0.50
    9    3    7     -0.10      2.41
   11    3    7      1.08      3.09
   13    3    7      0.67      0.71
   15    3    7     -2.43     -0.66
   17    3    7     -2.48      0.11
   19    3    7      0.44     -0.44
   21    3    7      1.17     -0.64
   23    3    7     -0.36      2.79
   25    3    7      0.30      5.65
   27    3    7      0.88      2.55
   29    3    7     -4.18     -2.49
   31    3    7     -7.92     -1.48
   33    3    7     -1.95      3.62
   35    3    7      4.22      4.42
  -40    2    7      0.52      3.34
  -38    2    7     -0.65      6.83
  -36    2    7      1.43      4.61
  -34    2    7      4.52     -1.17
  -32    2    7      3.83     -3.47
  -30    2    7      0.24     -2.34
  -28    2    7     -2.30     -1.53
  -26    2    7     -1.39     -0.85
  -24    2    7      1.66     -0.63
  -22    2    7      3.14     -2.15
  -20    2    7      2.17     -3.68
  -18    2    7      0.08     -4.07
  -16    2    7     -2.09     -3.17
  -14    2    7     -1.73      0.04
  -12    2    7      1.05      3.73
  -10    2    7      1.66      4.00
   -8    2    7      0.47      0.00
   -6    2    7      0.54     -3.95
   -4    2    7     -0.75     -2.29
   -2    2    7     -3.04      1.75
    0    2    7     -1.27      0.87
    2    2    7      1.49     -1.38
    4    2    7      0.65      0.18
    6    2    7      0.14      0.62
    8    2    7      0.87     -1.49
   10    2    7     -0.98     -0.76
   12    2    7     -2.43      1.35
   14    2    7     -0.29      0.66
   16    2    7      1.56     -0.09
   18    2    7      1.28      1.59
   20    2    7      0.66      1.90
   22    2    7     -0.97     -1.01
   24    2    7     -3.95     -2.17
   26    2    7     -4.46      0.02
   28    2    7      0.00      0.06
   30    2    7      4.89     -1.65
   32    2    7      4.70      1.22
   34    2    7      1.67      5.72
   36    2    7      0.23      4.21
  -39    1    7     -5.32     -1.83
  -37    1    7     -4.61     -2.58
  -35    1    7     -0.57      2.08
  -33    1    7      1.01      5.19
  -31    1    7      0.16      3.33
  -29    1    7      1.22      1.17
  -27    1    7      2.40      0.76
  -25    1    7      0.64      1.03
  -23    1    7     -0.73      2.44
  -21    1    7      0.42      3.85
  -19    1    7      1.86      3.08
  -17    1    7      2.32      0.16
  -15    1    7      1.07     -3.13
  -13    1    7     -1.35     -3.91
  -11    1    7     -2.01     -1.69
   -9    1    7      0.02      0.94
   -7    1    7      2.62      2.53
   -5    1    7      2.99      1.58
   -3    1    7      0.64     -1.74
   -1    1    7     -0.61     -1.87
    1    1    7      0.58      0.85
    3    1    7      0.35     -0.44
    5    1    7     -0.96     -2.54
    7    1    7     -0.30      0.42
    9    1    7     -0.19      2.52
   11    1    7     -2.37     -0.33
   13    1    7     -2.73     -2.18
   15    1    7      0.00     -0.29
   17    1    7      0.96      1.41
   19    1    7     -1.52      0.55
   21    1    7     -2.60     -1.31
   23    1    7     -0.29     -2.36
   25    1    7      1.20     -2.11
   27    1    7     -0.24      0.23
   29    1    7     -2.34      3.51
   31    1    7     -3.57      3.89
   33    1    7     -3.88      1.77
   35    1    7     -3.27      0.91
   37    1    7     -2.09      0.80
  -40    0    7     -0.98     -0.40
  -38    0    7      1.75     -0.13
  -36    0    7      0.90      0.67
  -34    0    7     -3.83      0.73
  -32    0    7     -5.28     -0.30
  -30    0    7     -3.09     -0.94
  -28    0    7     -1.80     -0.41
  -26    0    7     -0.71      0.07
  -24    0    7      0.23     -0.13
  -22    0    7     -1.40     -0.35
  -20    0    7     -3.27     -0.24
  -18    0    7     -1.88     -0.09
  -16    0    7      1.97     -0.13
  -14    0    7      4.44     -0.11
  -12    0    7      2.48      0.19
  -10    0    7     -1.45      0.21
   -8    0    7     -3.02     -0.29
   -6    0    7     -1.77     -0.37
   -4    0    7      0.79      0.19
   -2    0    7      1.10      0.31
    0    0    7     -1.80     -0.15
    2    0    7     -1.16     -0.29
    4    0    7      3.65     -0.08
    6    0    7      3.78     -0.08
    8    0    7     -0.18     -0.27
   10    0    7     -0.44     -0.32
   12    0    7      1.65     -0.17
   14    0    7      1.02     -0.06
   16    0    7     -1.23     -0.17
   18    0    7     -1.27     -0.25
   20    0    7      1.25     -0.08
   22    0    7      3.13     -0.13
   24    0    7      2.74     -0.41
   26    0    7      0.49     -0.27
   28    0    7     -2.79      0.12
   30    0    7     -3.46      0.18
   32    0    7     -0.20      0.11
   34    0    7      1.46      0.19
   36    0    7     -0.43      0.18
    2   12    7      0.45      8.04
  -15   11    8     -2.53      0.83
  -13   11    8     -2.48      1.72
  -11   11    8      0.61      0.92
   -9   11    8      3.04     -2.33
   -7   11    8      2.40     -3.87
   -5   11    8      2.26      0.08
   -3   11    8      1.85      5.18
   -1   11    8     -1.14      4.40
    1   11    8     -1.72     -0.30
    3   11    8      0.95     -2.19
    5   11    8     -0.78     -1.31
    7   11    8     -6.86     -1.00
    9   11    8     -8.59     -0.23
   11   11    8     -3.56      1.92
  -20   10    8      2.06     -0.50
  -18   10    8      0.71     -1.58
  -16   10    8      1.54     -0.77
  -14   10    8      2.37     -1.39
  -12   10    8     -0.58     -1.94
  -10   10    8     -3.75     -0.35
   -8   10    8     -2.11      0.60
   -6   10    8     -0.62      0.28
   -4   10    8     -3.40     -0.34
   -2   10    8     -4.21     -1.46
    0   10    8     -0.79     -0.62
    2   10    8      1.63      2.07
    4   10    8      3.03      0.84
    6   10    8      4.56     -4.48
    8   10    8      2.44     -7.34
   10   10    8     -1.93     -5.60
   12   10    8     -2.56     -1.68
   14   10    8     -0.10      2.58
   16   10    8      1.62      5.14
   18   10    8      2.42      4.72
  -25    9    8     -5.52      4.06
  -23    9    8     -7.00      2.29
  -21    9    8     -5.74     -0.31
  -19    9    8     -2.08     -0.23
  -17    9    8     -1.36      1.49
  -15    9    8     -2.75      3.06
  -13    9    8     -0.50      1.91
  -11    9    8      5.40     -2.08
   -9    9    8      9.28     -3.24
   -7    9    8      7.01     -1.12
   -5    9    8      1.23     -1.05
   -3    9    8     -2.10     -1.37
   -1    9    8     -2.37      0.40
    1    9    8     -2.09      0.60
    3    9    8     -0.65      0.40
    5    9    8      1.55      2.95
    7    9    8      2.03      3.15
    9    9    8      1.27     -0.88
   11    9    8      0.64     -1.98
   13    9    8     -0.46      0.78
   15    9    8     -1.64      0.99
   17    9    8     -1.91     -0.98
   19    9    8     -2.78     -0.50
   21    9    8     -5.59      1.19
  -28    8    8     -1.19     -5.01
  -26    8    8     -2.45     -3.55
  -24    8    8      0.94     -4.61
  -22    8    8      5.44     -7.36
  -20    8    8      4.57     -7.37
  -18    8    8      1.72     -3.85
  -16    8    8      0.64     -1.56
  -14    8    8     -1.03     -2.22
  -12    8    8     -1.89     -0.22
  -10    8    8     -0.41      6.16
   -8    8    8     -0.13      9.06
   -6    8    8     -1.40      4.47
   -4    8    8     -1.90     -1.58
   -2    8    8     -1.24     -3.57
    0    8    8      0.89     -2.17
    2    8    8      2.34     -0.69
    4    8    8      0.25     -1.21
    6    8    8     -1.80     -1.41
    8    8    8      0.36      0.97
   10    8    8      3.06      1.64
   12    8    8      1.44     -1.66
   14    8    8     -2.10     -2.56
   16    8    8     -2.39      0.55
   18    8    8      0.06      1.08
   20    8    8      1.42     -2.36
   22    8    8      1.38     -7.01
   24    8    8      2.16    -11.38
   26    8    8      3.83    -10.26
  -31    7    8      2.13      2.52
  -29    7    8      4.58      2.10
  -27    7    8      4.09     -0.95
  -25    7    8      1.94     -1.26
  -23    7    8     -0.11      3.29
  -21    7    8      0.44      5.55
  -19    7    8      2.41      3.47
  -17    7    8      1.95      2.06
  -15    7    8      0.81      0.62
  -13    7    8      1.25     -1.60
  -11    7    8      0.48      0.09
   -9    7    8     -1.69      3.75
   -7    7    8     -2.25      2.24
   -5    7    8     -0.84     -2.67
   -3    7    8      1.48     -3.43
   -1    7    8      3.04      0.52
    1    7    8      2.35      3.06
    3    7    8      1.18      1.66
    5    7    8      0.77     -0.12
    7    7    8     -0.88      0.11
    9    7    8     -2.29      1.62
   11    7    8     -0.23      2.62
   13    7    8      1.48      0.60
   15    7    8     -0.20     -2.72
   17    7    8      0.20     -2.22
   19    7    8      3.14      0.28
   21    7    8      3.20      0.38
   23    7    8      4.44      1.32
   25    7    8      8.87      5.32
   27    7    8      6.33      7.50
   29    7    8     -1.83      5.38
  -34    6    8     -1.00     -1.24
  -32    6    8     -3.97     -3.19
  -30    6    8     -5.09     -0.61
  -28    6    8     -2.53      3.35
  -26    6    8      0.65      4.15
  -24    6    8      1.38      0.73
  -22    6    8      0.61     -2.79
  -20    6    8     -0.26     -2.23
  -18    6    8     -0.66      0.09
  -16    6    8      0.70      0.89
  -14    6    8      2.48      0.82
  -12    6    8      0.54      0.44
  -10    6    8     -4.14     -0.40
   -8    6    8     -4.95     -0.90
   -6    6    8     -0.54     -0.51
   -4    6    8      2.10      0.87
   -2    6    8     -0.94      1.89
    0    6    8     -4.15      1.05
    2    6    8     -2.74      0.03
    4    6    8     -0.13      0.28
    6    6    8      0.26      0.45
    8    6    8     -0.36      0.00
   10    6    8     -1.48     -0.32
   12    6    8     -1.57     -0.53
   14    6    8      1.70     -0.72
   16    6    8      3.35     -0.10
   18    6    8     -0.16      1.43
   20    6    8     -1.44      2.25
   22    6    8      1.15      3.08
   24    6    8     -0.53      5.96
   26    6    8     -5.22      6.10
   28    6    8     -6.34     -0.11
   30    6    8     -5.10     -3.83
  -35    5    8     -2.55      1.23
  -33    5    8      0.33     -3.03
  -31    5    8      2.66     -6.43
  -29    5    8      1.70     -5.16
  -27    5    8     -0.72     -2.29
  -25    5    8     -1.79     -0.70
  -23    5    8     -1.33      0.89
  -21    5    8     -0.89      1.48
  -19    5    8     -0.68      0.05
  -17    5    8     -0.46      0.18
  -15    5    8     -0.59      2.55
  -13    5    8     -0.69      2.48
  -11    5    8     -0.08     -1.01
   -9    5    8      0.72     -3.17
   -7    5    8     -0.02     -1.00
   -5    5    8     -2.63      2.51
   -3    5    8     -2.91      2.05
   -1    5    8      1.41     -2.47
    1    5    8      4.11     -5.06
    3    5    8      1.35     -2.81
    5    5    8     -1.31     -0.20
    7    5    8     -0.78     -0.48
    9    5    8      0.24     -1.27
   11    5    8      0.48     -0.59
   13    5    8     -0.58      1.25
   15    5    8     -2.18      2.78
   17    5    8     -1.38      1.48
   19    5    8     -0.03     -1.26
   21    5    8     -1.63     -1.68
   23    5    8     -4.05     -1.79
   25    5    8     -4.70     -3.09
   27    5    8     -2.83     -2.45
   29    5    8      1.24     -1.74
   31    5    8      2.65     -3.68
   33    5    8     -0.39     -4.03
  -36    4    8     -2.53     -1.21
  -34    4    8     -0.05     -2.08
  -32    4    8      4.55      0.48
  -30    4    8      6.00      2.65
  -28    4    8      3.74      1.87
  -26    4    8      2.09     -0.14
  -24    4    8      2.15     -1.20
  -22    4    8      2.17     -1.15
  -20    4    8      1.57     -0.45
  -18    4    8      0.96     -0.13
  -16    4    8      0.47     -0.76
  -14    4    8     -0.37     -0.85
  -12    4    8     -0.56      0.43
  -10    4    8      1.29      1.66
   -8    4    8      2.58      1.13
   -6    4    8      0.55     -1.91
   -4    4    8     -1.65     -4.61
   -2    4    8     -0.22     -2.38
    0    4    8      2.42      2.01
    2    4    8      2.06      2.35
    4    4    8      0.14      1.17
    6    4    8      0.56      2.25
    8    4    8      1.46      1.78
   10    4    8     -0.79     -1.02
   12    4    8     -2.38     -2.26
   14    4    8      0.72     -2.40
   16    4    8      3.23     -2.27
   18    4    8      1.26     -1.31
   20    4    8      0.58     -1.13
   22    4    8      4.11     -0.59
   24    4    8      4.99      0.99
   26    4    8     -0.07     -0.86
   28    4    8     -3.48     -4.12
   30    4    8      0.12     -3.25
   32    4    8      4.32     -2.12
   34    4    8      2.88     -2.96
  -37    3    8     -1.52     -1.83
  -35    3    8     -2.78     -3.67
  -33    3    8     -3.95     -2.04
  -31    3    8     -3.66      0.62
  -29    3    8     -1.87      1.24
  -27    3    8     -0.32      1.51
  -25    3    8      0.23      2.83
  -23    3    8      0.26      3.87
  -21    3    8      0.01      3.07
  -19    3    8     -0.70      1.53
  -17    3    8     -1.31      1.91
  -15    3    8     -0.83      2.08
  -13    3    8      0.12     -0.73
  -11    3    8     -0.49     -1.81
   -9    3    8     -3.02      1.38
   -7    3    8     -4.93      3.12
   -5    3    8     -3.69      2.11
   -3    3    8     -0.75      2.35
   -1    3    8      0.60      2.69
    1    3    8      0.58      0.70
    3    3    8      0.43     -1.24
    5    3    8     -0.64     -0.90
    7    3    8     -1.26      0.39
    9    3    8      0.12     -0.35
   11    3    8      1.26     -2.56
   13    3    8      1.40     -0.59
   15    3    8      1.62      4.92
   17    3    8      1.01      5.02
   19    3    8      0.26      0.80
   21    3    8      0.01      1.46
   23    3    8     -1.60      3.40
   25    3    8     -1.74     -0.79
   27    3    8      2.91     -4.50
   29    3    8      7.28     -0.87
   31    3    8      7.55      4.01
   33    3    8      6.16      3.40
   35    3    8      3.83     -0.09
  -38    2    8     -0.51      3.51
  -36    2    8      1.70     -0.32
  -34    2    8      4.67     -5.24
  -32    2    8      7.36     -6.23
  -30    2    8      8.42     -2.98
  -28    2    8      5.77     -0.52
  -26    2    8      0.48     -0.15
  -24    2    8     -3.61      0.18
  -22    2    8     -4.58      0.75
  -20    2    8     -3.14      0.83
  -18    2    8     -1.80     -0.72
  -16    2    8     -1.73     -2.77
  -14    2    8     -0.49     -1.67
  -12    2    8      1.61      1.17
  -10    2    8      0.95      0.43
   -8    2    8     -0.69     -3.94
   -6    2    8     -0.03     -7.59
   -4    2    8      0.27     -7.81
   -2    2    8     -1.12     -4.84
    0    2    8     -1.73     -1.06
    2    2    8     -1.53      1.10
    4    2    8     -1.03      1.53
    6    2    8     -0.09      1.92
    8    2    8      0.26      2.02
   10    2    8      1.20      0.39
   12    2    8      2.57     -0.61
   14    2    8      0.02      1.15
   16    2    8     -4.07      1.86
   18    2    8     -3.57      0.09
   20    2    8     -1.45     -0.38
   22    2    8     -0.82     -0.10
   24    2    8      1.31     -0.88
   26    2    8      2.63      0.56
   28    2    8     -0.09      4.69
   30    2    8     -2.23      7.19
   32    2    8     -1.16      6.92
   34    2    8      0.04      5.37
   36    2    8      0.07      2.86
  -39    1    8     -3.89     -3.42
  -37    1    8     -3.54     -3.74
  -35    1    8     -1.26     -1.23
  -33    1    8      1.88      4.86
  -31    1    8      2.07     10.74
  -29    1    8      0.34     11.69
  -27    1    8     -0.18      6.81
  -25    1    8     -0.31      0.45
  -23    1    8     -0.60     -2.82
  -21    1    8     -0.27     -3.22
  -19    1    8      0.51     -2.36
  -17    1    8      1.37     -0.73
  -15    1    8      1.09      0.37
  -13    1    8     -0.26      0.41
  -11    1    8     -0.08     -0.31
   -9    1    8      1.09     -1.56
   -7    1    8      1.15     -1.23
   -5    1    8      2.07      1.18
   -3    1    8      4.35      2.10
   -1    1    8      4.00      0.08
    1    1    8      0.87     -2.54
    3    1    8     -0.54     -3.16
    5    1    8     -0.27     -1.24
    7    1    8     -1.53      0.28
    9    1    8     -2.44      0.03
   11    1    8     -0.95      0.57
   13    1    8     -0.29      1.17
   15    1    8     -0.94     -0.03
   17    1    8     -0.18     -1.00
   19    1    8      0.47     -1.64
   21    1    8     -0.11     -2.14
   23    1    8      0.57      0.50
   25    1    8      1.19      3.36
   27    1    8     -1.11      0.78
   29    1    8     -3.90     -2.98
   31    1    8     -4.68     -1.88
   33    1    8     -4.80      1.17
   35    1    8     -3.85      1.90
  -40    0    8      4.37     -0.20
  -38    0    8      6.68     -0.23
  -36    0    8      5.93      0.04
  -34    0    8      0.42     -0.21
  -32    0    8     -6.10     -1.05
  -30    0    8     -9.64     -0.72
  -28    0    8     -9.10      1.01
  -26    0    8     -4.80      1.56
  -24    0    8     -0.50      0.13
  -22    0    8      1.13     -0.94
  -20    0    8      1.85     -0.35
  -18    0    8      1.61      0.40
  -16    0    8     -0.25     -0.15
  -14    0    8     -1.26     -1.07
  -12    0    8     -0.33     -0.66
  -10    0    8      2.01      0.48
   -8    0    8      4.17      0.53
   -6    0    8      2.78     -0.16
   -4    0    8     -0.89     -0.17
   -2    0    8     -1.54      0.26
    0    0    8      1.16      0.20
    2    0    8      3.14     -0.13
    4    0    8      2.01     -0.07
    6    0    8     -0.39      0.19
    8    0    8     -0.61      0.17
   10    0    8      0.74      0.03
   12    0    8      1.05      0.20
   14    0    8     -0.03      0.31
   16    0    8     -1.79     -0.08
   18    0    8     -1.52     -0.25
   20    0    8      1.92      0.17
   22    0    8      2.25      0.37
   24    0    8     -2.78      0.15
   26    0    8     -4.34     -0.01
   28    0    8      1.07     -0.16
   30    0    8      5.04     -0.10
   32    0    8      2.48      0.27
   34    0    8     -1.96      0.23
   36    0    8     -3.23     -0.13
   23    9    8     -7.74      1.22
  -22   10    8      3.51      1.80
  -11   11    9     -4.70     -2.16
   -9   11    9     -3.53      0.37
   -7   11    9     -2.61      2.00
   -5   11    9     -2.12      2.48
   -3   11    9     -1.80      1.15
   -1   11    9     -1.21      0.17
    1   11    9     -0.42      2.98
    3   11    9     -1.44      5.90
    5   11    9     -2.92      3.95
    7   11    9     -1.13      1.33
  -20   10    9     -0.99      4.35
  -18   10    9     -2.11     -0.02
  -16   10    9     -0.08     -2.08
  -14   10    9      4.50     -1.25
  -12   10    9      3.87      0.28
  -10   10    9     -1.59      1.03
   -8   10    9     -4.02      0.71
   -6   10    9     -2.36     -0.15
   -4   10    9      0.57     -1.55
   -2   10    9      3.58     -2.35
    0   10    9      2.31     -1.98
    2   10    9     -4.26     -3.67
    4   10    9     -8.25     -6.78
    6   10    9     -6.74     -4.88
    8   10    9     -4.73      0.74
   10   10    9     -2.18      2.14
   12   10    9      3.11     -0.14
   14   10    9      6.28     -0.20
   16   10    9      3.39      1.11
  -25    9    9     -0.35     -1.60
  -23    9    9     -5.84     -5.63
  -21    9    9     -8.10     -5.03
  -19    9    9     -3.97     -1.04
  -17    9    9      0.12      0.52
  -15    9    9     -0.69      1.10
  -13    9    9     -2.08      1.22
  -11    9    9     -0.36     -1.88
   -9    9    9      0.77     -5.03
   -7    9    9     -0.51     -5.14
   -5    9    9     -0.03     -3.26
   -3    9    9      1.88      0.84
   -1    9    9      0.36      3.71
    1    9    9     -1.49      0.34
    3    9    9      1.41     -3.96
    5    9    9      4.24     -3.41
    7    9    9      2.48     -2.91
    9    9    9      0.15     -4.01
   11    9    9     -0.29     -0.26
   13    9    9     -0.81      6.53
   15    9    9     -1.24      7.33
   17    9    9     -1.14      2.32
   19    9    9     -2.74     -1.04
  -28    8    9      2.15      2.27
  -26    8    9     -2.67     -2.87
  -24    8    9     -0.15     -5.29
  -22    8    9      6.57     -4.44
  -20    8    9      6.15     -3.05
  -18    8    9      1.17     -2.25
  -16    8    9     -0.38     -3.49
  -14    8    9      0.66     -3.85
  -12    8    9      1.16      1.10
  -10    8    9      0.33      4.95
   -8    8    9      0.05      1.58
   -6    8    9      2.49     -0.58
   -4    8    9      3.88      3.39
   -2    8    9      2.00      4.35
    0    8    9      2.49     -0.58
    2    8    9      5.16     -3.49
    4    8    9      3.59     -2.00
    6    8    9      0.38      0.03
    8    8    9      1.10      0.54
   10    8    9      1.54     -0.87
   12    8    9     -2.27     -2.77
   14    8    9     -4.79     -2.99
   16    8    9     -2.48     -2.70
   18    8    9     -0.44     -3.70
   20    8    9     -0.89     -5.66
   22    8    9     -0.45     -7.55
   24    8    9      0.35     -6.42
  -31    7    9     -4.87      6.98
  -29    7    9     -8.65      8.49
  -27    7    9     -0.98      0.52
  -25    7    9      6.53     -5.51
  -23    7    9      3.98     -1.41
  -21    7    9      0.70      4.05
  -19    7    9      2.05      3.16
  -17    7    9      3.17      0.11
  -15    7    9      3.13     -0.10
  -13    7    9      1.12      1.56
  -11    7    9     -2.80      1.14
   -9    7    9     -2.57     -1.68
   -7    7    9      0.59     -1.99
   -5    7    9     -0.21      0.67
   -3    7    9     -2.42      1.57
   -1    7    9     -2.48      1.75
    1    7    9     -2.96      4.14
    3    7    9     -3.04      5.63
    5    7    9     -0.79      4.05
    7    7    9      1.43      1.61
    9    7    9      2.83     -0.59
   11    7    9      3.76     -2.30
   13    7    9      3.01     -1.96
   15    7    9      2.17      0.77
   17    7    9      3.02      2.14
   19    7    9      3.64     -0.71
   21    7    9      4.75     -2.89
   23    7    9      7.46      0.08
   25    7    9      6.09      2.78
   27    7    9     -0.42      0.91
  -32    6    9     -5.68      1.32
  -30    6    9     -8.41     -6.69
  -28    6    9     -3.49     -8.28
  -26    6    9      2.83     -0.47
  -24    6    9      3.59      2.97
  -22    6    9      1.02      1.22
  -20    6    9     -0.14      2.60
  -18    6    9      0.78      3.28
  -16    6    9      1.21      0.56
  -14    6    9     -0.66     -0.52
  -12    6    9     -2.13     -0.52
  -10    6    9     -0.87     -1.18
   -8    6    9     -0.10     -0.71
   -6    6    9     -1.37      0.04
   -4    6    9     -1.46      0.34
   -2    6    9     -0.61      0.13
    0    6    9     -1.46     -2.15
    2    6    9     -2.48     -4.14
    4    6    9     -2.01     -2.68
    6    6    9     -1.06      0.10
    8    6    9      0.33      2.16
   10    6    9      2.22      3.24
   12    6    9      2.86      2.29
   14    6    9      0.90      0.44
   16    6    9     -2.09     -0.13
   18    6    9     -1.40      0.30
   20    6    9      2.76      1.97
   22    6    9      2.06      5.03
   24    6    9     -3.20      5.84
   26    6    9     -2.36      2.07
   28    6    9      3.03     -1.97
  -35    5    9     -0.32      0.55
  -33    5    9     -2.66     -4.24
  -31    5    9      0.22     -7.77
  -29    5    9      4.92     -3.59
  -27    5    9      3.99      1.90
  -25    5    9      1.54      2.68
  -23    5    9      0.83      1.71
  -21    5    9     -1.59      0.88
  -19    5    9     -2.45      0.43
  -17    5    9      0.62      1.63
  -15    5    9      1.34      2.25
  -13    5    9     -0.71      0.72
  -11    5    9     -0.57     -0.38
   -9    5    9      1.12     -0.99
   -7    5    9      2.90     -2.49
   -5    5    9      4.35     -3.02
   -3    5    9      3.50     -2.15
   -1    5    9      1.34     -1.85
    1    5    9      0.02     -1.61
    3    5    9     -0.83     -0.65
    5    5    9     -1.11     -0.34
    7    5    9     -1.27     -0.46
    9    5    9     -1.73      0.95
   11    5    9     -0.49      3.31
   13    5    9      1.30      3.34
   15    5    9      0.60     -0.21
   17    5    9     -0.51     -2.68
   19    5    9     -0.70      0.44
   21    5    9     -2.34      3.33
   23    5    9     -4.75     -0.22
   25    5    9     -5.44     -2.29
   27    5    9     -3.10      2.58
   29    5    9      1.93      4.61
   31    5    9      4.74      0.28
  -36    4    9     -6.36     -2.61
  -34    4    9     -2.54     -2.54
  -32    4    9      4.61     -1.35
  -30    4    9      4.07      0.89
  -28    4    9     -1.52      1.29
  -26    4    9     -2.34      1.19
  -24    4    9     -0.23      1.88
  -22    4    9      0.10      0.33
  -20    4    9      0.24     -1.37
  -18    4    9      0.46      0.22
  -16    4    9     -0.87      0.98
  -14    4    9     -2.50     -0.61
  -12    4    9     -2.53     -0.77
  -10    4    9     -1.35      0.39
   -8    4    9     -0.66      2.55
   -6    4    9     -0.41      5.95
   -4    4    9      0.76      5.84
   -2    4    9      1.71      1.58
    0    4    9      0.91     -0.55
    2    4    9      0.18     -0.15
    4    4    9      0.56     -0.72
    6    4    9      0.43     -1.19
    8    4    9     -0.39     -0.58
   10    4    9     -1.22      0.31
   12    4    9     -1.88      1.20
   14    4    9     -0.75      0.86
   16    4    9      2.00     -0.19
   18    4    9      2.50     -0.01
   20    4    9      0.44      0.00
   22    4    9      0.26     -1.99
   24    4    9      2.03     -5.57
   26    4    9      1.42     -7.87
   28    4    9     -1.57     -3.80
   30    4    9     -3.32      3.68
   32    4    9     -2.68      4.63
  -37    3    9      7.56     -7.21
  -35    3    9      8.27     -8.20
  -33    3    9      6.97     -1.68
  -31    3    9      4.56      2.81
  -29    3    9      1.89      0.52
  -27    3    9     -0.23     -0.93
  -25    3    9     -1.50      1.20
  -23    3    9     -1.23      2.25
  -21    3    9      0.32      1.27
  -19    3    9      0.97      0.85
  -17    3    9      0.09      1.21
  -15    3    9     -0.68     -0.16
  -13    3    9     -0.11     -3.03
  -11    3    9      1.32     -3.66
   -9    3    9      0.72     -2.82
   -7    3    9     -2.79     -3.55
   -5    3    9     -3.67     -2.62
   -3    3    9      0.00      1.42
   -1    3    9      1.18      2.79
    1    3    9     -1.11      0.89
    3    3    9     -0.24      0.32
    5    3    9      2.09     -0.08
    7    3    9      0.51     -1.74
    9    3    9     -1.58     -1.22
   11    3    9     -0.09      1.10
   13    3    9      1.80      1.54
   15    3    9      0.44      0.60
   17    3    9     -2.24      0.20
   19    3    9     -2.57      0.16
   21    3    9     -1.36      0.37
   23    3    9     -0.38      1.83
   25    3    9      2.35      4.65
   27    3    9      5.10      4.77
   29    3    9      3.25     -0.92
   31    3    9      0.36     -6.20
   33    3    9      0.79     -4.54
  -38    2    9     -2.43      4.00
  -36    2    9      3.21      5.90
  -34    2    9      4.39      7.45
  -32    2    9     -0.96      7.67
  -30    2    9     -4.45      4.60
  -28    2    9     -3.56      0.19
  -26    2    9     -2.21     -0.79
  -24    2    9     -1.05      0.37
  -22    2    9      0.19      0.20
  -20    2    9     -0.13      0.30
  -18    2    9     -1.72      0.44
  -16    2    9     -1.37     -1.36
  -14    2    9      1.64     -1.17
  -12    2    9      2.58      2.70
  -10    2    9     -0.07      3.67
   -8    2    9      0.17     -0.43
   -6    2    9      3.84     -2.71
   -4    2    9      2.38     -0.29
   -2    2    9     -3.52      0.88
    0    2    9     -4.70     -1.47
    2    2    9     -1.82     -1.72
    4    2    9     -0.72      1.31
    6    2    9     -0.22      1.73
    8    2    9      1.06     -1.05
   10    2    9      0.24     -1.11
   12    2    9     -2.24      2.45
   14    2    9     -2.58      3.47
   16    2    9     -0.22     -0.05
   18    2    9      2.13     -2.30
   20    2    9      3.12     -1.38
   22    2    9      2.49     -2.00
   24    2    9     -0.87     -3.73
   26    2    9     -4.03     -2.22
   28    2    9     -1.63      1.14
   30    2    9      2.86      3.51
   32    2    9      2.91      4.91
   34    2    9      1.44      4.21
  -39    1    9      0.09     -6.70
  -37    1    9      0.24     -3.29
  -35    1    9     -0.10      3.54
  -33    1    9     -1.29      3.70
  -31    1    9     -1.40     -1.41
  -29    1    9      1.08     -3.62
  -27    1    9      1.55     -3.04
  -25    1    9     -1.79     -2.41
  -23    1    9     -2.64     -0.32
  -21    1    9     -0.32      1.26
  -19    1    9      0.17     -0.51
  -17    1    9      0.26     -1.64
  -15    1    9      1.27      0.57
  -13    1    9      0.00      1.66
  -11    1    9     -1.68     -0.61
   -9    1    9     -0.20     -1.72
   -7    1    9      1.66      1.10
   -5    1    9      0.98      2.96
   -3    1    9     -0.06     -0.35
   -1    1    9      0.67     -4.44
    1    1    9      1.68     -4.24
    3    1    9      1.00     -1.70
    5    1    9     -0.24      0.04
    7    1    9      0.23      0.93
    9    1    9      1.27      0.97
   11    1    9     -0.32     -0.80
   13    1    9     -2.96     -3.17
   15    1    9     -2.15     -2.59
   17    1    9      0.51      0.89
   19    1    9      0.53      3.03
   21    1    9     -0.35      2.72
   23    1    9      1.07      1.98
   25    1    9      3.13      2.07
   27    1    9      3.47      3.60
   29    1    9      1.30      3.93
   31    1    9     -2.91      0.30
   33    1    9     -5.79     -2.41
   35    1    9     -4.65     -0.51
  -38    0    9      4.71     -0.51
  -36    0    9     -2.22     -0.26
  -34    0    9     -6.01      0.72
  -32    0    9     -2.80      1.02
  -30    0    9     -0.35      0.56
  -28    0    9     -1.22      0.66
  -26    0    9      0.50      1.11
  -24    0    9      2.89      0.82
  -22    0    9      1.34      0.08
  -20    0    9      0.14     -0.04
  -18    0    9      0.82      0.30
  -16    0    9     -0.44      0.17
  -14    0    9     -1.35     -0.27
  -12    0    9      0.31     -0.16
  -10    0    9      0.52      0.24
   -8    0    9     -1.48      0.12
   -6    0    9     -1.79     -0.39
   -4    0    9      0.39     -0.43
   -2    0    9      2.72      0.11
    0    0    9      3.98      0.36
    2    0    9      3.44     -0.08
    4    0    9      0.48     -0.34
    6    0    9     -2.39     -0.01
    8    0    9     -2.13      0.05
   10    0    9      0.19     -0.20
   12    0    9      2.62     -0.03
   14    0    9      3.58      0.17
   16    0    9      1.10      0.05
   18    0    9     -2.25      0.10
   20    0    9     -2.03      0.14
   22    0    9     -0.51     -0.02
   24    0    9     -2.28      0.17
   26    0    9     -6.35      0.24
   28    0    9     -7.60     -0.08
   30    0    9     -3.34      0.34
   32    0    9      2.34      0.87
   34    0    9      3.95     -0.06
   21    9    9     -5.68     -0.81
   -5   11   10      4.63     -4.51
   -3   11   10      1.15      2.24
   -1   11   10     -4.84      4.99
    1   11   10     -4.96      1.42
  -16   10   10     -0.69     -1.58
  -14   10   10      0.40      0.34
  -12   10   10      0.38     -0.10
  -10   10   10      1.58     -0.73
   -8   10   10      4.24      1.45
   -6   10   10      3.10      4.39
   -4   10   10     -2.74      2.20
   -2   10   10     -6.25     -4.00
    0   10   10     -3.37     -5.06
    2   10   10      2.02      1.55
    4   10   10      4.33      8.56
    6   10   10      2.08      9.99
    8   10   10     -0.09      5.69
   10   10   10      2.90     -0.37
   12   10   10      7.25     -3.20
  -23    9   10      1.41     -2.43
  -21    9   10     -0.78     -2.20
  -19    9   10      1.82     -2.23
  -17    9   10      3.21     -0.95
  -15    9   10     -0.57      2.54
  -13    9   10     -2.98      4.31
  -11    9   10     -0.09      3.66
   -9    9   10      2.78      4.34
   -7    9   10      1.69      4.35
   -5    9   10      0.83      0.31
   -3    9   10      3.01     -4.44
   -1    9   10      3.07     -5.85
    1    9   10     -1.99     -2.57
    3    9   10     -7.08      3.16
    5    9   10     -7.64      3.23
    7    9   10     -4.90     -3.44
    9    9   10     -2.83     -4.08
   11    9   10     -3.39      4.95
   13    9   10     -3.74      8.61
   15    9   10     -1.00      0.04
   17    9   10      2.14     -7.81
  -26    8   10     -2.79      3.95
  -24    8   10      1.55      4.32
  -22    8   10      4.72     -1.97
  -20    8   10      2.99     -4.42
  -18    8   10      0.66     -1.10
  -16    8   10     -0.10     -0.37
  -14    8   10     -1.21     -2.64
  -12    8   10     -2.58     -2.86
  -10    8   10     -3.95     -1.61
   -8    8   10     -4.40     -0.42
   -6    8   10     -2.68      1.73
   -4    8   10     -1.43      3.44
   -2    8   10     -1.12      2.65
    0    8   10      0.51      0.33
    2    8   10      0.63     -1.94
    4    8   10     -0.62     -3.18
    6    8   10      2.46     -2.73
    8    8   10      5.98     -2.22
   10    8   10      2.19     -3.46
   12    8   10     -3.08     -3.76
   14    8   10     -1.09     -0.82
   16    8   10      3.81      1.34
   18    8   10      4.57      0.45
   20    8   10      3.01      1.12
   22    8   10      2.01      4.08
  -29    7   10      6.49     -6.20
  -27    7   10      2.57     -8.68
  -25    7   10     -3.30     -2.36
  -23    7   10     -1.63      6.11
  -21    7   10      3.14      6.71
  -19    7   10      2.57      1.76
  -17    7   10      0.18      0.42
  -15    7   10      0.88      2.47
  -13    7   10      1.43      2.03
  -11    7   10      1.05     -0.80
   -9    7   10      1.53     -1.47
   -7    7   10      0.20      0.32
   -5    7   10     -2.06     -0.88
   -3    7   10     -0.60     -5.81
   -1    7   10      2.33     -6.99
    1    7   10      2.77     -2.49
    3    7   10      1.82      1.24
    5    7   10      0.64      1.79
    7    7   10      0.09      1.62
    9    7   10      1.00      1.48
   11    7   10      0.21      0.67
   13    7   10     -3.45     -0.89
   15    7   10     -3.82     -0.75
   17    7   10      0.83      2.83
   19    7   10      1.44      5.12
   21    7   10     -5.01      2.03
   23    7   10     -7.83     -2.33
   25    7   10     -2.43     -3.71
  -32    6   10     -7.47      1.88
  -30    6   10     -1.26      7.88
  -28    6   10      6.55      8.46
  -26    6   10      5.91      2.17
  -24    6   10     -0.52     -2.96
  -22    6   10     -3.46     -2.14
  -20    6   10     -1.42     -0.35
  -18    6   10     -0.44     -0.85
  -16    6   10     -2.34     -0.03
  -14    6   10     -2.48      1.44
  -12    6   10      0.34      0.01
  -10    6   10      1.71     -1.82
   -8    6   10      0.78     -2.09
   -6    6   10      1.39     -2.04
   -4    6   10      3.24      0.11
   -2    6   10      2.35      4.16
    0    6   10     -0.74      6.02
    2    6   10     -2.05      4.91
    4    6   10     -0.36      2.35
    6    6   10      2.49      0.05
    8    6   10      3.23     -0.14
   10    6   10      0.79     -0.51
   12    6   10     -0.03     -3.34
   14    6   10      2.56     -4.54
   16    6   10      1.53     -2.16
   18    6   10     -3.28     -2.08
   20    6   10     -2.63     -6.92
   22    6   10      2.25     -8.94
   24    6   10      3.46     -1.96
   26    6   10      2.79      6.69
   28    6   10      2.74      7.21
  -33    5   10      1.68     -5.08
  -31    5   10     -3.77     -5.78
  -29    5   10     -7.84      0.70
  -27    5   10     -4.80      4.76
  -25    5   10      0.61      3.90
  -23    5   10      1.57      2.36
  -21    5   10     -0.11      1.00
  -19    5   10     -0.55     -0.84
  -17    5   10     -1.29     -2.06
  -15    5   10     -2.13     -1.55
  -13    5   10     -0.37      0.17
  -11    5   10      1.31      0.84
   -9    5   10      0.72      0.51
   -7    5   10      0.49      1.99
   -5    5   10     -0.05      3.46
   -3    5   10     -2.19      0.73
   -1    5   10     -2.56     -3.57
    1    5   10     -0.87     -4.45
    3    5   10     -0.36     -2.05
    5    5   10     -1.03      1.15
    7    5   10     -1.47      2.84
    9    5   10     -0.42      1.55
   11    5   10      1.86     -0.35
   13    5   10      1.99      0.61
   15    5   10      0.95      2.91
   17    5   10      3.73      3.77
   19    5   10      8.20      4.20
   21    5   10      8.96      3.66
   23    5   10      5.17      0.11
   25    5   10     -2.70     -2.81
   27    5   10    -10.13     -1.73
   29    5   10     -9.77     -0.28
  -36    4   10     -8.45     -1.30
  -34    4   10     -4.52      0.18
  -32    4   10      0.84     -1.20
  -30    4   10     -0.32     -5.39
  -28    4   10     -2.11     -5.76
  -26    4   10     -1.22     -1.92
  -24    4   10     -1.13     -0.83
  -22    4   10     -0.31     -2.52
  -20    4   10      2.04     -1.99
  -18    4   10      2.24     -0.96
  -16    4   10      0.88     -1.33
  -14    4   10      0.42      0.11
  -12    4   10      0.65      2.05
  -10    4   10      1.45      1.24
   -8    4   10      1.66      0.33
   -6    4   10     -0.08      0.21
   -4    4   10     -1.40     -1.41
   -2    4   10     -0.23     -1.92
    0    4   10      1.38      0.41
    2    4   10      0.78      2.02
    4    4   10     -1.36      1.77
    6    4   10     -1.11      1.10
    8    4   10      1.96      0.63
   10    4   10      2.33      1.16
   12    4   10     -1.17      1.05
   14    4   10     -3.28     -0.64
   16    4   10     -3.72      0.43
   18    4   10     -5.58      3.76
   20    4   10     -6.43      4.14
   22    4   10     -3.36      3.85
   24    4   10      1.49      3.46
   26    4   10      5.23     -2.76
   28    4   10      6.05     -9.60
   30    4   10      3.44     -7.56
  -37    3   10      7.02     -9.00
  -35    3   10      6.11    -10.19
  -33    3   10      1.44     -5.08
  -31    3   10      0.56     -2.09
  -29    3   10      2.15     -0.79
  -27    3   10      1.04      2.16
  -25    3   10      0.00      3.25
  -23    3   10      1.54      2.43
  -21    3   10      2.13      2.10
  -19    3   10      0.66      0.70
  -17    3   10     -0.73     -0.49
  -15    3   10     -1.41     -0.01
  -13    3   10     -1.44     -1.03
  -11    3   10     -1.34     -2.23
   -9    3   10     -2.02      0.01
   -7    3   10     -2.27      2.32
   -5    3   10     -1.01      1.58
   -3    3   10      0.23      0.67
   -1    3   10      0.83      1.29
    1    3   10      1.05      0.97
    3    3   10     -0.16     -1.78
    5    3   10     -1.74     -3.15
    7    3   10     -1.52      0.32
    9    3   10     -1.06      2.96
   11    3   10     -0.94     -0.69
   13    3   10      0.77     -4.14
   15    3   10      1.49     -2.63
   17    3   10     -0.57     -1.95
   19    3   10     -1.02     -3.72
   21    3   10     -0.05     -3.84
   23    3   10     -0.97     -2.18
   25    3   10      0.05      1.18
   27    3   10      3.77      5.80
   29    3   10      3.84      6.64
   31    3   10      1.09      3.04
  -36    2   10     11.36     12.52
  -34    2   10     10.45      6.55
  -32    2   10      5.98     -0.74
  -30    2   10      2.22     -2.38
  -28    2   10     -0.27     -2.43
  -26    2   10     -1.06     -2.14
  -24    2   10     -0.98     -0.42
  -22    2   10     -1.45      0.59
  -20    2   10     -0.69      0.85
  -18    2   10      1.25      0.57
  -16    2   10      1.97     -0.60
  -14    2   10      2.62      0.23
  -12    2   10      3.38      1.96
  -10    2   10      1.47     -0.06
   -8    2   10     -1.26     -2.85
   -6    2   10     -1.94     -2.47
   -4    2   10     -2.25     -2.04
   -2    2   10     -2.59     -2.21
    0    2   10     -1.51     -0.30
    2    2   10      0.08      1.27
    4    2   10      1.08      0.46
    6    2   10      0.89      0.14
    8    2   10     -0.15      0.46
   10    2   10      0.67      0.19
   12    2   10      2.37      1.32
   14    2   10      1.30      2.33
   16    2   10      0.41     -0.01
   18    2   10      2.33     -1.68
   20    2   10      2.69      0.41
   22    2   10      0.98      2.06
   24    2   10      0.24      1.80
   26    2   10     -1.57      1.70
   28    2   10     -4.30      0.90
   30    2   10     -3.35     -0.77
   32    2   10      0.26     -1.41
  -37    1   10     -8.48      6.60
  -35    1   10     -9.10     10.57
  -33    1   10     -6.18      8.69
  -31    1   10     -4.20      3.46
  -29    1   10     -1.51      1.72
  -27    1   10      1.44      2.42
  -25    1   10      1.19      0.73
  -23    1   10      0.03     -0.98
  -21    1   10     -0.28      0.05
  -19    1   10     -1.04      1.04
  -17    1   10     -0.62      1.18
  -15    1   10     -0.24      2.19
  -13    1   10     -2.49      2.64
  -11    1   10     -2.41      0.68
   -9    1   10      1.94     -1.64
   -7    1   10      3.61     -2.05
   -5    1   10      1.56     -1.64
   -3    1   10      1.22     -1.48
   -1    1   10      1.87     -0.71
    1    1   10      0.40      0.31
    3    1   10     -1.07      0.36
    5    1   10     -0.66     -0.07
    7    1   10     -0.02      0.14
    9    1   10     -0.30      1.13
   11    1   10     -1.34      1.37
   13    1   10     -1.91      0.27
   15    1   10     -0.30      0.92
   17    1   10      1.69      2.88
   19    1   10      0.68      0.85
   21    1   10     -1.90     -2.60
   23    1   10     -2.25     -0.90
   25    1   10     -0.71      1.65
   27    1   10     -0.29     -0.48
   29    1   10     -0.76     -1.47
   31    1   10      0.98      3.25
   33    1   10      3.72      7.33
  -38    0   10     -2.56      1.24
  -36    0   10     -6.32      1.57
  -34    0   10     -6.64     -1.97
  -32    0   10     -0.78     -7.83
  -30    0   10      2.67     -8.75
  -28    0   10     -0.72     -3.18
  -26    0   10     -1.35      1.61
  -24    0   10      1.89      1.68
  -22    0   10      0.43      0.29
  -20    0   10     -2.71     -0.08
  -18    0   10     -1.61      0.11
  -16    0   10     -0.35      0.35
  -14    0   10     -1.37      0.09
  -12    0   10     -1.59     -0.55
  -10    0   10     -0.01     -0.38
   -8    0   10      1.98      0.28
   -6    0   10      2.61      0.09
   -4    0   10      1.28     -0.34
   -2    0   10     -0.11      0.02
    0    0   10     -0.42      0.34
    2    0   10     -0.69      0.06
    4    0   10     -0.78     -0.11
    6    0   10     -0.21     -0.01
    8    0   10     -0.70     -0.03
   10    0   10     -1.67      0.01
   12    0   10     -0.47      0.14
   14    0   10     -0.46      0.03
   16    0   10     -3.75     -0.05
   18    0   10     -2.43      0.08
   20    0   10      4.27     -0.03
   22    0   10      4.45     -0.05
   24    0   10     -1.71      0.47
   26    0   10     -2.45      0.20
   28    0   10      0.15     -1.27
   30    0   10     -3.62     -1.56
   32    0   10     -9.93     -0.06
   34    0   10     -9.17      0.76
   -7   11   10      3.47     -6.81
  -14   10   11      1.26     -0.25
  -12   10   11      2.71      1.72
  -10   10   11      2.42      3.74
   -8   10   11      0.43      4.94
   -6   10   11     -2.04      4.31
   -4   10   11     -2.45      1.81
   -2   10   11      0.58      1.42
    0   10   11      3.94      4.56
    2   10   11      4.36      4.08
    4   10   11      2.07     -2.23
    6   10   11     -2.49     -4.51
    8   10   11     -7.78      1.45
  -21    9   11      1.15      0.04
  -19    9   11      3.03      3.87
  -17    9   11      2.45      2.84
  -15    9   11      0.63      0.16
  -13    9   11      0.24     -0.23
  -11    9   11     -0.25      1.55
   -9    9   11     -2.21      2.07
   -7    9   11     -3.41     -2.09
   -5    9   11     -1.89     -6.59
   -3    9   11     -0.57     -4.25
   -1    9   11     -3.06      2.25
    1    9   11     -5.13      6.47
    3    9   11     -1.18      7.18
    5    9   11      3.71      2.96
    7    9   11      2.64     -6.15
    9    9   11      0.18    -12.63
   11    9   11      2.97    -10.90
   13    9   11      6.60     -5.81
   15    9   11      4.40     -3.16
  -24    8   11      0.00      4.49
  -22    8   11     -0.90      2.23
  -20    8   11     -4.72      0.81
  -18    8   11     -4.62      0.61
  -16    8   11     -0.63     -0.23
  -14    8   11      1.38     -0.43
  -12    8   11     -1.26      0.67
  -10    8   11     -6.25      0.79
   -8    8   11     -6.30     -0.19
   -6    8   11      0.86     -0.57
   -4    8   11      5.65     -0.42
   -2    8   11      3.19      0.16
    0    8   11     -0.81      1.16
    2    8   11     -4.01      0.80
    4    8   11     -5.61     -1.28
    6    8   11     -1.89     -2.06
   10    8   11      2.43      5.91
   12    8   11     -1.15      9.62
   14    8   11     -0.04      8.20
   16    8   11      4.01      3.45
   18    8   11      4.85      1.58
   20    8   11      2.75      3.16
  -27    7   11     -0.66     -1.64
  -25    7   11     -1.91     -6.88
  -23    7   11     -2.73     -7.48
  -21    7   11     -1.02     -6.38
  -19    7   11      1.58     -4.51
  -17    7   11      2.78     -0.38
  -15    7   11      2.48      2.69
  -13    7   11      1.10      1.60
  -11    7   11      1.08     -2.52
   -9    7   11      2.81     -6.16
   -7    7   11      2.21     -5.11
   -5    7   11     -0.09     -0.41
   -3    7   11     -0.51      2.53
   -1    7   11     -1.33      2.28
    1    7   11     -2.71     -0.24
    3    7   11     -0.34     -3.82
    5    7   11      3.21     -3.90
    7    7   11      2.61      0.04
    9    7   11     -0.27      0.49
   11    7   11     -1.90     -4.95
   13    7   11     -2.09     -8.16
   15    7   11     -1.85     -3.82
   17    7   11     -3.77      2.12
   19    7   11     -8.72      2.86
   21    7   11    -11.09      1.29
   23    7   11     -6.70      1.91
  -30    6   11     -5.16      0.54
  -28    6   11     -5.09      2.45
  -26    6   11      0.94      5.93
  -24    6   11      6.48      3.17
  -22    6   11      6.75     -1.53
  -20    6   11      3.92     -0.82
  -18    6   11      1.45      2.55
  -16    6   11     -0.16      3.55
  -14    6   11     -2.05      0.70
  -12    6   11     -3.48     -2.21
  -10    6   11     -1.78      0.52
   -8    6   11      2.00      4.26
   -6    6   11      3.12      1.69
   -4    6   11      0.98     -1.48
   -2    6   11     -0.83      0.09
    0    6   11     -1.20      1.42
    2    6   11     -0.88      0.92
    4    6   11     -0.01      1.25
    6    6   11     -0.11      1.43
    8    6   11     -1.90      0.77
   10    6   11     -1.67      0.47
   12    6   11      3.05      1.51
   14    6   11      6.67      3.71
   16    6   11      4.15      2.36
   18    6   11      1.32     -6.05
   20    6   11      3.54    -13.95
   22    6   11      4.80    -12.28
   24    6   11      1.45     -4.47
   26    6   11     -0.86      0.78
  -33    5   11     -4.78      0.32
  -31    5   11     -1.84     -2.40
  -29    5   11      1.08     -5.64
  -27    5   11     -3.00     -6.86
  -25    5   11     -5.42     -3.34
  -23    5   11     -0.64      1.90
  -21    5   11      2.92      2.82
  -19    5   11      1.21      1.05
  -17    5   11     -1.57      1.56
  -15    5   11     -1.94      2.09
  -13    5   11      0.64     -0.36
  -11    5   11      1.89     -1.82
   -9    5   11     -0.86      0.54
   -7    5   11     -2.07      2.64
   -5    5   11      0.36      1.24
   -3    5   11      0.90     -0.74
   -1    5   11     -0.92     -0.92
    1    5   11     -1.05     -1.32
    3    5   11      0.42     -2.35
    5    5   11      0.99     -2.20
    7    5   11     -0.27     -1.99
    9    5   11     -1.11     -2.66
   11    5   11      0.39     -1.32
   13    5   11      0.48      2.32
   15    5   11     -2.00      3.48
   17    5   11     -0.61      2.03
   19    5   11      5.11      4.12
   21    5   11      7.23      8.97
   23    5   11      3.67      8.42
   25    5   11     -0.69      2.40
   27    5   11     -2.10     -1.49
  -34    4   11      0.30     -3.08
  -32    4   11     -0.67     -3.85
  -30    4   11     -2.36      0.63
  -28    4   11      0.17      3.72
  -26    4   11      3.99      1.45
  -24    4   11      2.64     -0.84
  -22    4   11     -0.93     -0.21
  -20    4   11     -1.67      1.53
  -18    4   11     -0.65      1.89
  -16    4   11      0.25     -1.04
  -14    4   11      0.12     -4.27
  -12    4   11     -1.45     -3.43
  -10    4   11     -2.76     -1.02
   -8    4   11     -2.62     -0.36
   -6    4   11     -1.10      0.32
   -4    4   11      1.35      1.27
   -2    4   11      2.23      0.59
    0    4   11      0.15     -0.38
    2    4   11     -1.67      0.22
    4    4   11     -0.84      1.05
    6    4   11      0.91      0.26
    8    4   11      1.57     -1.10
   10    4   11      0.75     -0.30
   12    4   11     -0.81      1.76
   14    4   11     -1.55      1.50
   16    4   11     -1.35     -0.40
   18    4   11     -2.46     -0.97
   20    4   11     -5.47     -0.40
   22    4   11     -6.77     -0.12
   24    4   11     -3.76     -0.76
   26    4   11      0.13     -0.98
   28    4   11      0.89      1.51
   30    4   11      0.20      3.44
  -35    3   11     -3.49     -0.87
  -33    3   11     -0.30     -0.61
  -31    3   11      3.79     -4.40
  -29    3   11      2.86     -7.44
  -27    3   11     -0.43     -4.11
  -25    3   11     -1.20      0.45
  -23    3   11      0.42      1.24
  -21    3   11      1.45     -0.08
  -19    3   11      0.16     -0.44
  -17    3   11     -0.91      1.65
  -15    3   11      1.10      3.05
  -13    3   11      3.16      0.45
  -11    3   11      2.26     -2.28
   -9    3   11      0.75     -1.94
   -7    3   11     -0.26     -1.10
   -5    3   11     -1.30     -0.12
   -3    3   11     -0.73      1.40
   -1    3   11      0.28      0.32
    1    3   11     -0.48     -2.29
    3    3   11      0.08     -1.93
    5    3   11      2.67     -0.17
    7    3   11      2.21     -0.46
    9    3   11     -1.16     -1.13
   11    3   11     -2.04     -0.63
   13    3   11     -0.04     -0.53
   15    3   11      1.85     -1.12
   17    3   11      3.02     -1.36
   19    3   11      2.99     -1.81
   21    3   11      1.16     -3.13
   23    3   11     -0.10     -3.27
   25    3   11     -0.07     -1.13
   27    3   11     -1.99     -0.12
   29    3   11     -4.52     -1.60
   31    3   11     -2.98     -1.88
  -36    2   11      5.47     -5.26
  -34    2   11      5.05     -5.09
  -32    2   11      2.43      1.82
  -30    2   11      2.90      6.41
  -28    2   11      3.09      3.78
  -26    2   11      0.32      0.27
  -24    2   11     -1.51     -0.36
  -22    2   11     -0.94      0.65
  -20    2   11     -0.26      2.11
  -18    2   11     -0.28      1.16
  -16    2   11     -0.62     -1.57
  -14    2   11     -0.70     -1.18
  -12    2   11      0.01      1.18
  -10    2   11      0.97      1.55
   -8    2   11      1.21      0.65
   -6    2   11      0.40     -0.13
   -4    2   11     -0.48      0.22
   -2    2   11      0.47      1.56
    0    2   11      2.59      0.45
    2    2   11      2.41     -1.76
    4    2   11     -0.04      0.44
    6    2   11     -0.65      3.37
    8    2   11      1.18      0.84
   10    2   11      1.74     -1.99
   12    2   11      0.21     -0.01
   14    2   11     -0.48      1.70
   16    2   11      0.03      0.47
   18    2   11     -0.12      0.63
   20    2   11      0.51      2.69
   22    2   11      2.87      3.53
   24    2   11      3.12      2.51
   26    2   11      1.30     -0.01
   28    2   11      2.28     -2.84
   30    2   11      4.09     -3.58
  -37    1   11      2.99      7.38
  -35    1   11      3.14      8.82
  -33    1   11     -0.76      3.14
  -31    1   11     -3.59     -0.28
  -29    1   11     -0.12      1.26
  -27    1   11      3.14     -0.02
  -25    1   11      0.81     -2.82
  -23    1   11     -1.78     -1.19
  -21    1   11     -1.89      0.09
  -19    1   11     -1.16     -1.13
  -17    1   11      0.67      0.54
  -15    1   11      0.87      1.92
  -13    1   11     -1.75     -1.20
  -11    1   11     -2.12     -2.35
   -9    1   11     -0.17      0.52
   -7    1   11     -0.26      1.13
   -5    1   11     -1.33     -1.00
   -3    1   11     -1.65     -1.57
   -1    1   11     -1.82      0.26
    1    1   11     -0.58      2.47
    3    1   11      1.01      2.27
    5    1   11     -0.17     -0.16
    7    1   11     -1.50     -0.59
    9    1   11     -0.07      1.09
   11    1   11      0.39      0.34
   13    1   11     -0.71     -1.46
   15    1   11      1.66      0.34
   17    1   11      4.97      3.18
   19    1   11      1.81      2.93
   21    1   11     -5.05      0.97
   23    1   11     -7.32     -1.22
   25    1   11     -4.76     -1.92
   27    1   11     -1.40      1.60
   29    1   11      2.50      5.04
   31    1   11      6.01      2.58
  -36    0   11    -11.68      1.07
  -34    0   11     -7.61      0.55
  -32    0   11     -0.23      0.08
  -30    0   11     -0.50      0.57
  -28    0   11     -2.54      0.73
  -26    0   11      1.14     -0.19
  -24    0   11      2.30     -0.55
  -22    0   11     -0.40      0.02
  -20    0   11      1.24      0.16
  -18    0   11      1.99      0.02
  -16    0   11     -2.06      0.08
  -14    0   11     -0.93     -0.41
  -12    0   11      4.12     -1.03
  -10    0   11      2.86     -0.55
   -8    0   11     -1.00      0.28
   -6    0   11     -0.50      0.18
   -4    0   11      1.81     -0.23
   -2    0   11      2.43     -0.01
    0    0   11      0.52      0.28
    2    0   11     -1.97      0.03
    4    0   11     -1.28     -0.18
    6    0   11      0.63      0.05
    8    0   11     -0.28      0.35
   10    0   11     -0.71      0.43
   12    0   11      1.38      0.20
   14    0   11      0.30     -0.15
   16    0   11     -4.72     -0.17
   18    0   11     -7.14      0.01
   20    0   11     -4.15      0.10
   22    0   11      2.43      0.37
   24    0   11      7.36     -0.23
   26    0   11      3.69     -2.31
   28    0   11     -4.60     -1.72
   30    0   11     -5.81      3.88
   32    0   11     -0.73      7.59
    8    8   11      3.27      0.73
   -8   10   12     -2.59      2.24
   -6   10   12     -2.10      1.02
   -4   10   12     -2.82     -1.13
   -2   10   12     -2.72     -1.54
    0   10   12      1.61     -0.76
    2   10   12      7.02     -1.36
  -17    9   12      1.57     -1.15
  -15    9   12      0.85     -0.76
  -13    9   12     -1.27      0.34
  -11    9   12     -3.35      0.83
   -9    9   12     -2.83     -0.34
   -7    9   12      0.65     -1.96
   -5    9   12      4.48     -1.25
   -3    9   12      5.36      0.63
   -1    9   12      1.52      1.17
    1    9   12     -3.55      2.68
    3    9   12     -5.02      5.63
    5    9   12     -3.55      6.37
    7    9   12     -0.62      5.86
    9    9   12      3.93      6.45
   11    9   12      6.60      5.17
  -22    8   12      1.77     -1.52
  -20    8   12      1.67     -2.18
  -18    8   12      0.53     -2.04
  -16    8   12      0.42     -1.92
  -14    8   12      1.03     -0.78
  -12    8   12      0.35     -1.50
  -10    8   12     -1.15     -3.99
   -8    8   12     -0.55     -2.38
   -6    8   12      0.16      3.43
   -4    8   12     -2.40      6.85
   -2    8   12     -3.51      4.40
    0    8   12     -0.49     -1.43
    2    8   12      0.35     -4.88
    4    8   12     -2.21     -3.66
    6    8   12     -3.38     -2.02
    8    8   12     -3.40     -1.82
   10    8   12     -3.46      0.10
   12    8   12     -2.26      3.28
   14    8   12     -1.26      4.17
   16    8   12     -1.82      2.73
  -25    7   12     -4.98     -3.68
  -23    7   12     -4.90     -0.43
  -21    7   12     -2.45      4.28
  -19    7   12      1.55      5.37
  -17    7   12      5.13      2.53
  -15    7   12      3.20     -0.93
  -13    7   12     -1.23     -0.98
  -11    7   12      0.46      1.19
   -9    7   12      4.22      1.27
   -7    7   12      0.93     -0.38
   -5    7   12     -4.84     -1.64
   -3    7   12     -5.43     -2.09
   -1    7   12     -2.55     -1.16
    1    7   12      0.31     -0.81
    3    7   12      1.15     -2.81
    5    7   12     -0.39     -3.41
    7    7   12     -0.85     -0.51
    9    7   12      0.22      2.45
   11    7   12     -0.83      2.90
   13    7   12     -2.68      0.67
   15    7   12     -1.47     -2.45
   17    7   12      1.49     -2.56
   19    7   12      2.70      0.57
   21    7   12      1.86      2.61
  -28    6   12     -1.00     -1.34
  -26    6   12      4.83     -5.50
  -24    6   12      6.79     -6.98
  -22    6   12      1.88     -6.35
  -20    6   12     -4.54     -2.94
  -18    6   12     -6.25      3.75
  -16    6   12     -2.22      7.25
  -14    6   12      2.34      3.18
  -12    6   12      1.85     -0.42
  -10    6   12     -1.46      1.38
   -8    6   12     -1.75      0.86
   -6    6   12      0.65     -3.52
   -4    6   12      1.61     -4.42
   -2    6   12      0.33     -2.60
    0    6   12     -0.70     -1.66
    2    6   12      0.59      0.29
    4    6   12      2.50      2.03
    6    6   12      1.86      0.85
    8    6   12     -0.36     -1.42
   10    6   12     -1.10     -3.21
   12    6   12     -0.16     -3.38
   14    6   12      0.83     -0.68
   16    6   12      0.47      2.19
   18    6   12     -1.28      2.72
   20    6   12     -2.87      1.84
   22    6   12     -3.23      0.28
   24    6   12     -1.87     -1.01
  -31    5   12     -3.30     -3.14
  -29    5   12     -0.19     -0.07
  -27    5   12      3.92      3.09
  -25    5   12      4.96      5.47
  -23    5   12      3.67      4.89
  -21    5   12      2.59      0.25
  -19    5   12     -0.01     -4.80
  -17    5   12     -5.28     -6.36
  -15    5   12     -7.33     -3.49
  -13    5   12     -3.32      1.30
  -11    5   12      0.32      2.69
   -9    5   12      1.02      0.10
   -7    5   12      2.48     -1.00
   -5    5   12      3.48      0.72
   -3    5   12      1.86      1.25
   -1    5   12      0.61     -0.55
    1    5   12      0.93     -2.30
    3    5   12      0.77     -2.60
    5    5   12     -0.56     -2.24
    7    5   12     -1.64     -1.81
    9    5   12      0.06     -0.10
   11    5   12      2.77      2.57
   13    5   12      0.89      3.08
   15    5   12     -3.58      0.69
   17    5   12     -3.77     -0.98
   19    5   12     -0.68     -0.02
   21    5   12      1.96      0.69
   23    5   12      3.58     -0.12
   25    5   12      2.74      0.64
  -32    4   12      5.57     -5.46
  -30    4   12     -0.09     -4.61
  -28    4   12     -4.13     -1.39
  -26    4   12     -3.66      1.12
  -24    4   12     -1.64      1.10
  -22    4   12      1.16      0.62
  -20    4   12      3.45      1.44
  -18    4   12      4.18      0.11
  -16    4   12      3.74     -3.53
  -14    4   12      1.29     -3.22
  -12    4   12     -1.34      0.72
  -10    4   12     -1.07      1.65
   -8    4   12     -0.62      0.17
   -6    4   12     -2.43      0.34
   -4    4   12     -3.42      0.52
   -2    4   12     -1.92     -0.51
    0    4   12      0.51     -0.05
    2    4   12      2.12      1.94
    4    4   12      1.89      2.33
    6    4   12      1.74      0.59
    8    4   12      2.86     -0.17
   10    4   12      1.72      1.27
   12    4   12     -1.81      1.29
   14    4   12     -2.23     -1.46
   16    4   12      0.27     -2.44
   18    4   12      0.27     -0.32
   20    4   12     -2.37      1.58
   22    4   12     -3.80      2.54
   24    4   12     -3.06      2.29
   26    4   12     -1.41      0.10
   28    4   12      0.25     -1.42
  -33    3   12      2.64      7.42
  -31    3   12      3.19      4.49
  -29    3   12      3.65      0.23
  -27    3   12      2.50     -1.01
  -25    3   12      0.76     -0.53
  -23    3   12     -0.46      2.26
  -21    3   12     -1.19      4.46
  -19    3   12     -0.76      2.01
  -17    3   12      0.45     -0.95
  -15    3   12      0.28     -0.82
  -13    3   12     -0.82     -0.09
  -11    3   12     -0.19     -0.05
   -9    3   12      1.62     -1.39
   -7    3   12      2.39     -4.30
   -5    3   12      3.07     -5.26
   -3    3   12      4.15     -3.06
   -1    3   12      3.01     -0.59
    1    3   12      0.01      0.76
    3    3   12     -1.08      0.40
    5    3   12     -0.18     -0.71
    7    3   12     -0.41      0.67
    9    3   12     -2.12      2.28
   11    3   12     -2.59     -0.33
   13    3   12     -1.15     -2.89
   15    3   12     -1.16     -0.97
   17    3   12     -3.79      0.84
   19    3   12     -4.80     -0.78
   21    3   12     -2.48     -3.16
   23    3   12     -0.44     -3.55
   25    3   12     -0.27     -1.10
   27    3   12     -0.37      1.72
   29    3   12     -0.03      1.44
  -34    2   12     -3.52      0.53
  -32    2   12     -2.32     -1.43
  -30    2   12     -1.64     -2.07
  -28    2   12     -3.71     -1.64
  -26    2   12     -3.39     -0.08
  -24    2   12     -1.13     -0.38
  -22    2   12     -1.71     -2.18
  -20    2   12     -2.04     -0.87
  -18    2   12      0.26      1.31
  -16    2   12      1.09      0.25
  -14    2   12      0.37     -0.14
  -12    2   12      0.83      2.47
  -10    2   12      1.55      3.96
   -8    2   12      2.10      2.96
   -6    2   12      2.40      2.46
   -4    2   12      0.81      3.65
   -2    2   12     -0.98      4.18
    0    2   12     -0.38      2.04
    2    2   12      0.58     -0.56
    4    2   12     -0.10     -0.69
    6    2   12     -1.08      0.08
    8    2   12     -0.75     -0.98
   10    2   12      1.25     -2.53
   12    2   12      3.08     -1.97
   14    2   12      2.32     -0.66
   16    2   12      0.47     -1.75
   18    2   12      0.38     -4.64
   20    2   12      1.47     -5.69
   22    2   12      1.66     -3.49
   24    2   12      0.41     -0.59
   26    2   12     -0.06      0.02
   28    2   12      1.98     -1.05
   30    2   12      3.12     -1.22
  -35    1   12      0.71      2.65
  -33    1   12      0.03      1.61
  -31    1   12      1.02     -1.08
  -29    1   12      3.85     -3.49
  -27    1   12      3.23     -3.09
  -25    1   12      0.91     -0.02
  -23    1   12      2.50      1.56
  -21    1   12      3.40      0.11
  -19    1   12      0.16     -0.30
  -17    1   12     -1.16      1.14
  -15    1   12     -0.16      1.03
  -13    1   12     -1.61      0.00
  -11    1   12     -3.76     -0.11
   -9    1   12     -3.53     -0.50
   -7    1   12     -1.56     -0.89
   -5    1   12      0.86     -0.52
   -3    1   12      1.66     -0.15
   -1    1   12      0.56      0.87
    1    1   12      0.17      2.12
    3    1   12      0.65      1.29
    5    1   12      0.50     -0.64
    7    1   12      0.70     -1.17
    9    1   12      1.39     -0.28
   11    1   12      1.03      0.90
   13    1   12      0.26      1.12
   15    1   12      0.02      0.65
   17    1   12      0.10      1.27
   19    1   12      1.91      1.92
   21    1   12      4.58     -0.41
   23    1   12      3.23     -4.19
   25    1   12     -1.45     -4.09
   27    1   12     -3.00      0.92
   29    1   12     -1.03      5.00
  -36    0   12     -7.32      0.69
  -34    0   12     -5.28      0.47
  -32    0   12      2.10     -0.61
  -30    0   12      5.96     -0.94
  -28    0   12      2.32     -0.39
  -26    0   12     -2.41     -0.27
  -24    0   12     -3.19     -0.20
  -22    0   12     -1.06      0.23
  -20    0   12      0.17      0.22
  -18    0   12     -2.08      0.00
  -16    0   12     -3.84      0.20
  -14    0   12     -1.09      0.17
  -12    0   12      2.08     -0.22
  -10    0   12      2.29     -0.47
   -8    0   12      1.67     -0.73
   -6    0   12      0.86     -0.23
   -4    0   12     -1.02      1.93
   -2    0   12     -3.08      3.64
    0    0   12     -3.70      2.41
    2    0   12     -2.29     -0.16
    4    0   12     -0.54     -1.20
    6    0   12      0.50     -0.78
    8    0   12      1.53     -0.37
   10    0   12      1.32     -0.23
   12    0   12     -0.18      0.04
   14    0   12     -0.29      0.38
   16    0   12     -0.45      0.39
   18    0   12     -2.64      0.23
   20    0   12     -1.85      0.31
   22    0   12      4.23      0.33
   24    0   12      8.36     -0.29
   26    0   12      5.70     -0.70
   28    0   12      0.30      0.07
   30    0   12     -2.76      0.83
   18    8   12     -1.65      0.89
   13    9   12      4.76      1.07
    4   10   12      7.14     -2.27
  -13    9   13      0.02     -0.54
  -11    9   13     -1.47      0.76
   -9    9   13      2.20     -0.41
   -7    9   13      4.82     -2.48
   -5    9   13      2.23     -2.26
   -3    9   13     -0.47     -0.49
   -1    9   13     -0.88      1.33
    1    9   13     -0.77      3.90
    3    9   13      0.14      5.17
    5    9   13      1.47      2.36
    7    9   13      1.70     -1.02
  -20    8   13     -2.75     -0.30
  -18    8   13     -1.39     -3.46
  -16    8   13      0.59     -1.70
  -14    8   13      1.38      1.28
  -12    8   13      1.40     -0.24
  -10    8   13      0.17     -0.89
   -8    8   13     -1.24      3.36
   -6    8   13     -1.38      4.97
   -4    8   13     -1.18      0.47
   -2    8   13     -0.67     -3.65
    0    8   13     -1.11     -3.72
    2    8   13     -4.49     -1.31
    4    8   13     -5.77      2.01
    6    8   13     -1.02      4.28
    8    8   13      2.44      4.20
   10    8   13     -0.65      2.33
   12    8   13     -3.73     -0.68
   14    8   13     -1.60     -3.19
  -23    7   13     -1.38     -0.25
  -21    7   13     -2.41     -1.07
  -19    7   13      2.24     -0.95
  -17    7   13      4.78      0.86
  -15    7   13      0.23      1.92
  -13    7   13     -3.78      2.34
  -11    7   13     -1.17      1.48
   -9    7   13      1.62     -1.38
   -7    7   13     -0.43     -3.01
   -5    7   13     -1.44     -2.73
   -3    7   13      1.78     -2.05
   -1    7   13      4.37     -0.05
    1    7   13      3.83      0.11
    3    7   13      1.31     -4.37
    5    7   13     -2.03     -6.01
    7    7   13     -4.02     -0.68
    9    7   13     -3.03      2.93
   11    7   13      0.73      0.30
   15    7   13      8.14     -0.85
   17    7   13      5.60      0.35
  -26    6   13     -0.38      7.54
  -24    6   13     -3.25      5.40
  -22    6   13     -2.99     -1.03
  -20    6   13     -0.36     -3.06
  -18    6   13      0.27     -1.30
  -16    6   13      0.57     -0.40
  -14    6   13      2.47     -1.61
  -12    6   13      2.88     -2.92
  -10    6   13      0.80     -1.67
   -8    6   13     -0.91      0.45
   -6    6   13     -0.44      0.83
   -4    6   13      1.55      1.40
   -2    6   13      2.05      2.91
    0    6   13      0.10      3.13
    2    6   13     -0.11      2.61
    4    6   13      2.31      2.42
    6    6   13      2.30      1.32
    8    6   13     -0.82     -0.66
   10    6   13     -2.85     -0.91
   12    6   13     -2.84      2.56
   14    6   13     -2.35      7.48
   16    6   13     -1.64      8.54
   18    6   13     -0.01      4.45
   20    6   13      2.11      0.01
  -29    5   13     -0.14     -1.25
  -27    5   13     -5.18     -4.56
  -25    5   13     -6.44     -6.19
  -23    5   13     -1.44     -4.06
  -21    5   13      3.32      0.24
  -19    5   13      4.90      2.52
  -15    5   13     -1.57      4.94
  -13    5   13     -3.10      6.57
  -11    5   13     -0.99      3.58
   -9    5   13      0.07     -0.97
   -7    5   13     -0.04     -1.52
   -5    5   13     -0.41      0.44
   -3    5   13     -2.26      0.61
   -1    5   13     -3.01     -1.01
    1    5   13     -1.31     -1.90
    3    5   13     -1.14     -1.28
    5    5   13     -2.33     -0.48
    7    5   13     -1.21     -0.24
    9    5   13      0.48     -0.15
   11    5   13     -0.49     -0.92
   13    5   13     -2.42     -2.67
   15    5   13     -2.68     -3.40
   17    5   13     -2.03     -2.18
   19    5   13     -2.25     -0.12
   21    5   13     -2.58      1.23
   23    5   13     -1.44      1.00
  -30    4   13     -0.57     -0.48
  -28    4   13      4.41     -1.61
  -26    4   13      6.94     -0.99
  -24    4   13      3.28      0.98
  -22    4   13     -2.40      0.31
  -18    4   13     -4.42      0.71
  -16    4   13     -1.87     -0.86
  -14    4   13      0.10     -4.82
  -12    4   13      0.24     -6.02
  -10    4   13     -0.42     -4.62
   -8    4   13     -0.65     -2.66
   -6    4   13     -0.29     -0.69
   -4    4   13      0.71     -0.62
   -2    4   13      2.24     -1.50
    0    4   13      3.22     -0.61
    2    4   13      2.53     -0.27
    4    4   13      0.92     -1.56
    6    4   13     -0.42     -0.72
    8    4   13     -1.86      1.38
   10    4   13     -2.99      1.08
   12    4   13     -2.49      0.27
   14    4   13     -1.33      0.94
   16    4   13     -0.45      0.47
   18    4   13      1.20     -2.50
   20    4   13      2.86     -4.82
   22    4   13      2.41     -3.08
   24    4   13      0.54      1.05
  -31    3   13     -3.61     -3.18
  -29    3   13      0.38     -1.02
  -27    3   13      1.04      2.88
  -25    3   13     -1.45      2.34
  -23    3   13      0.23     -0.98
  -21    3   13      4.90     -3.08
  -19    3   13      3.96     -3.54
  -17    3   13     -0.10     -0.78
  -15    3   13      1.40      4.64
  -13    3   13      5.26      6.18
  -11    3   13      4.36      1.53
   -9    3   13      1.10     -2.25
   -7    3   13      0.30     -0.30
   -5    3   13      2.09      3.14
   -3    3   13      3.28      3.35
   -1    3   13      0.78      1.60
    1    3   13     -2.28      0.85
    3    3   13     -0.58      1.33
    5    3   13      2.41      0.85
    7    3   13      1.18     -2.10
    9    3   13     -1.50     -4.91
   11    3   13     -1.98     -4.17
   13    3   13     -0.89     -2.17
   15    3   13      1.73     -2.25
   17    3   13      5.13     -1.72
   19    3   13      5.50      2.11
   21    3   13      1.74      5.80
   23    3   13     -1.77      5.67
   25    3   13     -1.50      2.27
   27    3   13      0.38     -1.48
  -32    2   13      9.97     -9.81
  -30    2   13      8.46     -1.13
  -28    2   13      1.45      5.94
  -26    2   13     -1.94      4.56
  -24    2   13     -1.21      1.22
  -22    2   13     -1.88      3.05
  -20    2   13     -1.98      4.44
  -18    2   13      0.26     -0.06
  -16    2   13     -0.36     -2.43
  -14    2   13     -3.78      1.54
  -12    2   13     -3.13      2.95
  -10    2   13      1.64     -0.87
   -8    2   13      3.72     -2.70
   -6    2   13      0.61     -0.11
   -4    2   13     -3.52      3.22
   -2    2   13     -3.76      2.68
    0    2   13     -0.31     -1.91
    2    2   13      1.79     -3.40
    4    2   13      0.52      0.69
    6    2   13     -0.32      2.74
    8    2   13      1.10      0.21
   10    2   13      1.82     -1.19
   12    2   13      0.25      0.10
   14    2   13     -1.57      1.76
   16    2   13     -1.74      3.25
   18    2   13     -1.04      2.83
   20    2   13     -2.49     -0.96
   22    2   13     -6.56     -3.98
   24    2   13     -7.76     -2.20
   26    2   13     -2.71      1.32
   28    2   13      2.28      2.03
  -33    1   13      7.53     10.89
  -31    1   13      0.65     11.04
  -29    1   13     -7.75      3.54
  -27    1   13     -7.74     -3.94
  -25    1   13     -1.86     -4.85
  -23    1   13      0.31     -3.20
  -21    1   13     -2.03     -3.39
  -19    1   13     -1.09     -1.17
  -17    1   13      2.96      3.44
  -15    1   13      2.66      3.06
  -13    1   13     -0.57     -0.75
  -11    1   13     -0.81     -0.34
   -9    1   13      0.65      3.37
   -7    1   13      0.81      5.32
   -5    1   13     -0.04      3.70
   -3    1   13     -0.41     -0.48
   -1    1   13      1.04     -2.64
    1    1   13      1.93     -0.24
    3    1   13     -0.23      1.98
    5    1   13     -1.51      0.68
    7    1   13      0.39     -1.09
    9    1   13      1.04     -1.38
   11    1   13     -0.55     -1.60
   13    1   13     -0.96     -2.05
   15    1   13     -0.15     -1.74
   17    1   13      1.26     -0.83
   19    1   13      3.99     -1.01
   21    1   13      5.57     -3.33
   23    1   13      3.51     -4.75
   25    1   13      0.21     -1.06
   27    1   13     -1.51      4.14
  -34    0   13     -7.60     -0.09
  -32    0   13     -8.94     -0.47
  -30    0   13     -4.21      0.17
  -28    0   13      3.50      0.84
  -26    0   13      7.67      0.63
  -24    0   13      4.98      0.24
  -22    0   13      1.65      0.02
  -20    0   13      0.66     -0.26
  -18    0   13     -3.00     -0.29
  -16    0   13     -5.99      0.01
  -14    0   13     -2.64      0.20
  -12    0   13      0.44      0.14
  -10    0   13     -1.41     -0.08
   -8    0   13     -3.87     -0.05
   -6    0   13     -5.23      0.29
   -4    0   13     -4.57      0.25
   -2    0   13     -0.69     -0.14
    0    0   13      1.62     -0.04
    2    0   13     -0.01      0.40
    4    0   13     -0.74      0.38
    6    0   13      0.55      0.01
    8    0   13      0.93     -0.19
   10    0   13      1.44     -0.17
   12    0   13      2.67     -0.07
   14    0   13      1.16     -0.09
   16    0   13     -2.17     -0.29
   18    0   13     -1.70     -0.38
   20    0   13      2.28     -0.14
   22    0   13      3.44      0.34
   24    0   13     -0.93      0.35
   26    0   13     -6.38     -0.60
   28    0   13     -6.28     -1.26
  -20    4   13     -5.17     -0.44
   26    4   13     -0.82      2.78
  -17    5   13      2.89      2.96
   22    6   13      2.40     -0.82
   13    7   13      5.69     -2.15
   19    7   13      1.09     -0.87
   -5    9   14     -0.91      2.39
   -3    9   14      2.43      2.13
  -16    8   14     -0.73      1.18
  -14    8   14      0.60     -0.97
  -12    8   14      5.49     -4.99
  -10    8   14      7.48     -5.85
   -8    8   14      2.93     -4.13
   -6    8   14     -3.65     -3.29
   -2    8   14     -1.80     -1.88
    0    8   14      1.39     -3.16
    2    8   14      0.22     -2.62
    4    8   14     -0.49      1.45
    6    8   14      0.52      3.62
    8    8   14     -0.77      2.38
   10    8   14     -2.65      1.03
  -21    7   14     -0.28      1.52
  -19    7   14      0.09      1.38
  -17    7   14      0.44      0.43
  -15    7   14      1.80     -0.29
  -13    7   14      2.77      3.01
  -11    7   14      1.65      7.85
   -9    7   14      0.25      6.45
   -7    7   14      2.56     -1.14
   -5    7   14      7.33     -6.16
   -3    7   14      7.89     -2.47
   -1    7   14      3.40      4.60
    1    7   14     -0.29      4.36
    3    7   14     -1.20     -1.93
    5    7   14     -1.21     -4.20
    7    7   14     -1.39     -3.07
    9    7   14     -1.61     -4.39
   11    7   14      0.00     -4.64
   13    7   14      2.39     -0.79
   15    7   14      0.91      2.08
  -24    6   14      0.22     -3.89
  -22    6   14      1.99     -6.56
  -20    6   14      2.41     -5.21
  -18    6   14      0.44      0.00
  -16    6   14     -0.50      4.91
  -14    6   14     -0.15      3.57
  -12    6   14     -2.07     -1.86
  -10    6   14     -4.16     -2.93
   -8    6   14     -1.58      1.49
   -6    6   14      2.98      6.08
   -4    6   14      2.85      6.93
   -2    6   14     -2.27      2.86
    0    6   14     -5.36     -1.87
    2    6   14     -1.88     -1.19
    4    6   14      3.17      2.85
    6    6   14      4.46      3.88
    8    6   14      4.96      1.63
   10    6   14      6.05      0.52
   12    6   14      3.35      1.72
   14    6   14     -2.13      0.88
   16    6   14     -4.44     -3.61
   18    6   14     -2.79     -5.83
  -27    5   14     -1.21      1.18
  -25    5   14      1.62      0.15
  -23    5   14      5.66      1.36
  -21    5   14      6.42      3.09
  -19    5   14      2.39      2.69
  -17    5   14     -3.62      1.32
  -15    5   14     -5.01      0.81
  -13    5   14     -0.35      0.16
  -11    5   14      2.61     -1.37
   -9    5   14     -0.03     -1.49
   -7    5   14     -3.42      0.72
   -5    5   14     -4.06      1.97
   -3    5   14     -1.97      0.00
   -1    5   14      1.13     -2.93
    1    5   14      1.19     -3.32
    3    5   14     -1.84     -0.76
    5    5   14     -3.42      1.80
    7    5   14     -3.65      3.04
    9    5   14     -4.59      3.96
   11    5   14     -3.49      3.04
   13    5   14      1.00     -1.09
   15    5   14      5.44     -4.59
   17    5   14      6.92     -3.22
   19    5   14      5.35      1.67
   21    5   14      2.90      4.94
  -28    4   14     -3.38     -3.26
  -26    4   14     -1.00      0.77
  -24    4   14      0.62      3.49
  -22    4   14      1.24      4.28
  -20    4   14      0.81      4.62
  -18    4   14     -0.32      2.37
  -16    4   14     -0.92     -1.95
  -14    4   14     -1.47     -3.07
  -12    4   14     -1.55     -0.37
  -10    4   14      0.58      1.67
   -8    4   14      2.61      0.60
   -6    4   14      1.57     -2.52
   -4    4   14     -0.14     -4.02
   -2    4   14      0.52     -1.31
    0    4   14      2.16      1.82
    2    4   14      2.08      1.11
    4    4   14     -0.05     -0.98
    6    4   14     -2.19     -2.42
    8    4   14     -2.02     -4.47
   10    4   14      0.52     -4.53
   12    4   14      3.07     -0.11
   14    4   14      3.34      4.64
   16    4   14      0.46      6.06
   18    4   14     -4.80      5.26
   20    4   14     -9.00      4.04
   22    4   14     -8.26      3.18
  -29    3   14      8.80      4.17
  -27    3   14      2.55      3.28
  -25    3   14     -3.74     -0.17
  -23    3   14     -5.52     -0.99
  -21    3   14     -6.41      0.40
  -19    3   14     -6.43      0.31
  -17    3   14     -2.15     -0.11
  -15    3   14      2.25     -0.69
  -13    3   14      1.30     -2.39
  -11    3   14     -1.52     -1.73
   -9    3   14     -1.39      2.09
   -7    3   14      0.72      3.93
   -5    3   14      2.25      1.95
   -3    3   14      1.72     -0.59
   -1    3   14     -0.14     -0.83
    1    3   14     -0.41      1.30
    3    3   14      0.86      2.35
    5    3   14      1.54      0.05
    7    3   14      2.47     -1.00
    9    3   14      2.77      2.55
   11    3   14     -0.21      4.69
   13    3   14     -2.82      0.80
   15    3   14     -1.28     -4.41
   17    3   14      0.15     -6.45
   19    3   14     -1.76     -6.55
   21    3   14     -3.54     -6.51
   23    3   14     -2.54     -6.03
  -30    2   14     -9.25      6.43
  -28    2   14     -9.68      3.29
  -26    2   14     -3.48     -1.65
  -24    2   14      2.13     -4.10
  -22    2   14      2.77     -5.36
  -20    2   14      2.14     -5.78
  -18    2   14      1.59     -2.79
  -16    2   14      0.06      1.29
  -14    2   14     -0.55      1.00
  -12    2   14     -0.03     -1.45
  -10    2   14      0.04     -0.15
   -8    2   14      0.12      2.44
   -6    2   14      0.21      1.16
   -4    2   14      0.12     -1.60
   -2    2   14      0.66     -1.27
    0    2   14      0.05      1.82
    2    2   14     -2.16      3.44
    4    2   14     -2.00      1.42
    6    2   14     -0.68      0.09
    8    2   14     -3.05      1.57
   10    2   14     -4.74      0.41
   12    2   14      0.39     -2.67
   14    2   14      7.21     -0.21
   16    2   14      7.71      4.38
   18    2   14      1.82      2.51
   20    2   14     -3.29     -1.67
   22    2   14     -0.49     -0.32
   24    2   14      6.73      3.01
  -31    1   14     -2.86     -1.68
  -29    1   14     -1.39     -7.13
  -27    1   14      0.75     -8.04
  -25    1   14      0.21     -3.35
  -23    1   14      0.74      0.51
  -21    1   14      3.28      1.04
  -19    1   14      3.27      1.17
  -17    1   14      0.20      0.98
  -15    1   14     -1.31     -0.53
  -13    1   14      0.09     -1.41
  -11    1   14      0.38     -0.54
   -9    1   14     -2.05      1.13
   -7    1   14     -3.00      2.00
   -5    1   14     -0.12      0.93
   -3    1   14      2.54      0.18
   -1    1   14      0.93      0.89
    1    1   14     -2.47     -0.26
    3    1   14     -2.49     -2.01
    5    1   14     -0.49     -1.04
    7    1   14     -0.72     -1.38
    9    1   14     -0.68     -3.38
   11    1   14      1.40     -0.23
   13    1   14      0.29      5.85
   15    1   14     -3.13      6.33
   17    1   14     -1.30      0.74
   19    1   14      3.03     -5.91
   21    1   14      0.92     -7.84
   23    1   14     -5.23     -2.06
   25    1   14     -6.30      4.63
  -32    0   14     -5.00     -0.16
  -30    0   14      0.83      0.04
  -28    0   14      8.19     -0.09
  -26    0   14      8.10     -0.55
  -24    0   14      2.61     -0.49
  -22    0   14      0.31      0.07
  -20    0   14      0.82      0.29
  -18    0   14     -0.26      0.13
  -16    0   14     -0.94      0.05
  -14    0   14      0.17      0.06
  -12    0   14      0.55      0.00
  -10    0   14     -0.11     -0.09
   -8    0   14     -0.82     -0.31
   -6    0   14     -0.84     -0.62
   -4    0   14     -0.42     -0.51
   -2    0   14     -1.52      0.12
    0    0   14     -1.93      0.53
    2    0   14      0.93      0.32
    4    0   14      2.08     -0.11
    6    0   14      0.55     -0.43
    8    0   14      1.64     -0.49
   10    0   14      1.59     -0.30
   12    0   14     -3.66     -0.24
   14    0   14     -6.12     -0.37
   16    0   14     -1.55      0.11
   18    0   14      3.91      1.57
   20    0   14      6.43      2.51
   22    0   14      5.49      1.36
   24    0   14      1.40     -0.70
   26    0   14     -1.38     -1.30
   -4    8   14     -5.62     -2.49
   -1    9   14      1.02      0.88
  -10    8   15     -2.51     -2.33
   -8    8   15      2.13      0.77
   -6    8   15      6.22      2.82
   -4    8   15      4.01      2.30
   -2    8   15     -0.95      0.03
    0    8   15     -2.07     -2.58
    2    8   15      1.18     -3.01
  -17    7   15      4.30      3.40
  -15    7   15      5.43      0.13
  -13    7   15      4.11     -0.74
  -11    7   15      4.12      1.41
   -9    7   15      4.29      2.20
   -7    7   15      1.22      1.94
   -5    7   15     -1.82      1.76
   -3    7   15     -1.14      1.42
   -1    7   15      0.67      2.28
    1    7   15      0.99      3.58
    3    7   15      0.30      3.38
    5    7   15     -1.03      2.48
    7    7   15     -2.93      1.09
    9    7   15     -3.91     -0.33
   11    7   15     -2.42      0.71
  -22    6   15     -1.47     -1.68
  -20    6   15     -3.05     -2.20
  -18    6   15     -4.04      0.49
  -16    6   15     -1.53      3.53
  -14    6   15      0.41      2.07
  -12    6   15     -2.58      0.55
  -10    6   15     -5.54      4.32
   -8    6   15     -3.76      6.11
   -6    6   15     -1.41      1.64
   -2    6   15     -5.72     -0.85
    2    6   15     -0.93     -3.17
    4    6   15      2.19     -0.20
    6    6   15      2.16      1.09
    8    6   15      3.66     -1.25
   10    6   15      4.89     -2.52
   12    6   15      0.01     -1.28
   14    6   15     -5.54      0.10
  -25    5   15      2.68     -3.60
  -23    5   15      4.34     -2.94
  -21    5   15      4.91     -0.25
  -19    5   15      2.81      0.61
  -17    5   15     -2.21     -0.47
  -15    5   15     -3.99      0.14
  -13    5   15      0.03      1.98
   -9    5   15     -3.26     -5.01
   -7    5   15     -2.34     -6.64
   -5    5   15      3.24     -4.53
   -3    5   15      4.44     -3.26
   -1    5   15      3.60     -2.27
    1    5   15      4.83      0.95
    3    5   15      2.77      2.87
    5    5   15     -3.00      0.91
    7    5   15     -5.64      0.82
    9    5   15     -4.22      4.73
   11    5   15     -2.32      4.42
   13    5   15     -1.51     -2.57
   15    5   15     -2.37     -6.83
   17    5   15     -3.81     -3.58
  -26    4   15      3.26      2.75
  -24    4   15      2.73      5.29
  -22    4   15     -0.58      5.51
  -20    4   15     -3.17      3.99
  -18    4   15     -1.52     -0.86
  -16    4   15      1.22     -6.13
  -14    4   15     -0.79     -4.23
  -12    4   15     -3.50      1.65
  -10    4   15      0.37      1.44
   -8    4   15      5.38     -1.76
   -6    4   15      3.19      0.62
   -4    4   15     -1.75      4.65
   -2    4   15     -2.60      4.91
    0    4   15     -1.73      4.32
    2    4   15     -1.57      2.85
    4    4   15     -0.05     -1.80
    6    4   15      1.82     -5.54
    8    4   15      1.38     -5.48
   10    4   15      0.47     -4.41
   12    4   15      1.49     -3.91
   14    4   15      3.38     -3.66
   16    4   15      4.07     -3.69
   18    4   15      2.59     -3.28
   20    4   15      0.44     -2.07
  -27    3   15     -1.63      2.64
  -25    3   15     -3.62      2.62
  -23    3   15     -1.91      2.63
  -21    3   15     -0.92      1.32
  -19    3   15     -0.84     -0.85
  -17    3   15      1.31     -0.78
  -15    3   15      2.51      0.21
  -13    3   15      0.65     -0.62
  -11    3   15      0.18     -0.84
   -9    3   15      1.80      1.03
   -7    3   15      1.25      0.68
   -5    3   15     -0.36     -2.66
   -3    3   15     -0.44     -3.35
   -1    3   15     -1.32     -0.51
    1    3   15     -2.54      1.23
    3    3   15     -0.29      1.90
    5    3   15      3.53      3.51
    7    3   15      4.27      3.66
    9    3   15      2.45      1.44
   11    3   15      1.73      0.37
   13    3   15      2.93      1.97
   15    3   15      2.59      3.97
   17    3   15     -0.66      4.05
   19    3   15     -1.89      2.26
   21    3   15      1.21      0.59
  -28    2   15     -2.82     -4.02
  -26    2   15     -4.36     -5.93
  -24    2   15     -5.03     -2.56
  -22    2   15     -5.60      0.78
  -20    2   15     -2.91     -0.15
  -18    2   15      1.49     -2.35
  -16    2   15      2.03     -2.77
  -14    2   15     -0.22     -1.50
  -12    2   15     -0.48      1.38
  -10    2   15      0.23      3.83
   -8    2   15     -0.18      2.57
   -6    2   15      0.49      0.23
   -4    2   15      1.46      0.91
   -2    2   15     -0.62      1.27
    0    2   15     -3.08     -1.51
    2    2   15     -2.82     -3.16
    4    2   15     -3.07     -1.05
    6    2   15     -4.59      2.02
    8    2   15     -3.25      2.65
   10    2   15     -0.02      0.84
   12    2   15      0.26      0.35
   14    2   15     -2.12      1.36
   16    2   15     -3.51     -1.00
   18    2   15     -2.69     -5.02
   20    2   15     -0.57     -3.61
   22    2   15      1.08      1.45
  -29    1   15      3.50     -1.10
  -27    1   15      5.57     -3.86
  -25    1   15      4.53     -5.07
  -23    1   15      2.25     -5.37
  -21    1   15      1.14     -2.71
  -19    1   15      1.87      2.94
  -17    1   15      3.42      5.81
  -15    1   15      3.84      3.45
  -13    1   15      1.99      0.83
  -11    1   15     -1.46     -0.66
   -9    1   15     -3.64     -3.58
   -7    1   15     -2.59     -4.17
   -5    1   15     -0.54      0.72
   -3    1   15      0.75      4.12
   -1    1   15      2.20      1.20
    1    1   15      2.99     -1.82
    3    1   15      1.91     -0.60
    5    1   15      0.30     -0.27
    7    1   15     -0.49     -3.44
    9    1   15     -0.21     -4.69
   11    1   15      0.55     -1.99
   13    1   15      0.50     -0.21
   15    1   15      0.15     -1.34
   17    1   15      1.00     -2.43
   19    1   15      2.24     -1.26
   21    1   15      2.12      1.23
   23    1   15      0.66      2.23
  -30    0   15      0.73      0.18
  -28    0   15      2.41      1.10
  -26    0   15      3.40      1.69
  -24    0   15      4.97      1.43
  -22    0   15      3.36      0.66
  -20    0   15     -3.13      0.10
  -18    0   15     -8.67     -0.03
  -16    0   15     -8.01     -0.03
  -14    0   15     -4.37      0.06
  -12    0   15     -1.13      0.12
  -10    0   15      4.06      0.02
   -8    0   15      8.30     -0.05
   -6    0   15      3.98      0.02
   -4    0   15     -5.25      0.06
   -2    0   15     -7.56      0.01
    0    0   15     -2.24     -0.13
    2    0   15      0.52     -0.24
    4    0   15     -1.42     -0.16
    6    0   15      0.10     -0.06
    8    0   15      5.02     -0.13
   10    0   15      4.85     -0.14
   12    0   15      0.86      0.02
   14    0   15      0.65      0.16
   16    0   15      2.93      0.27
   18    0   15      2.42      0.27
   20    0   15     -0.49     -0.11
   22    0   15     -2.44     -0.42
  -11    5   15      0.92      0.01
   -4    6   15     -2.80     -1.21
    0    6   15     -5.34     -2.45
    4    8   15      5.18     -1.29
  -11    7   16      4.53      7.63
   -9    7   16      2.37      3.03
   -7    7   16     -2.54     -3.36
   -5    7   16     -3.99     -5.25
   -3    7   16     -1.20     -2.56
   -1    7   16      2.24      1.65
    1    7   16      4.73      3.91
    3    7   16      5.46      3.70
  -18    6   16      0.05      0.33
  -16    6   16     -1.05      1.18
  -14    6   16     -4.57      2.31
  -12    6   16     -8.46      2.70
  -10    6   16     -6.05      0.86
   -8    6   16      2.12     -3.22
   -6    6   16      7.04     -4.15
   -4    6   16      4.93     -0.43
   -2    6   16      0.33      1.00
    0    6   16     -3.14     -0.85
    2    6   16     -6.38      0.11
    6    6   16     -9.24      5.25
    8    6   16     -1.25      4.61
  -21    5   16      0.11      0.00
  -19    5   16     -1.12     -0.82
  -17    5   16     -2.45     -1.11
  -15    5   16     -2.05     -1.08
  -13    5   16     -0.66     -2.98
  -11    5   16     -0.07     -5.77
   -9    5   16      1.22     -3.11
   -5    5   16      2.00      8.55
   -3    5   16      1.71      4.73
   -1    5   16      4.92     -0.29
    1    5   16      4.69     -3.61
    3    5   16     -0.88     -7.74
    5    5   16     -3.06    -11.06
    7    5   16     -1.70     -7.54
    9    5   16     -4.07      2.15
   11    5   16     -7.28      7.98
   13    5   16     -5.35      4.67
  -24    4   16     -1.48     -0.44
  -22    4   16     -1.40     -0.53
  -20    4   16     -0.05     -2.26
  -18    4   16      2.22     -3.24
  -16    4   16      3.24      0.21
  -14    4   16      1.88      3.85
  -10    4   16      1.11     -2.27
   -8    4   16     -1.20     -0.71
   -6    4   16     -5.17      2.51
   -4    4   16     -5.94      3.80
   -2    4   16     -3.22      5.88
    0    4   16      0.34      6.14
    2    4   16      3.95      0.17
    4    4   16      6.40     -4.70
    6    4   16      5.72     -2.37
    8    4   16      2.24     -1.08
   10    4   16     -1.30     -5.97
   12    4   16     -1.53     -9.16
   14    4   16      1.90     -5.69
   16    4   16      4.14     -0.24
  -25    3   16      3.20     -0.58
  -23    3   16      3.59     -2.00
  -21    3   16      3.46     -2.30
  -19    3   16      3.05     -0.13
  -17    3   16     -1.90      3.43
  -13    3   16     -4.99      0.65
  -11    3   16      3.29     -3.23
   -9    3   16      4.47     -3.25
   -7    3   16     -0.84     -0.22
   -5    3   16     -3.62      1.91
   -3    3   16     -3.61      0.55
   -1    3   16     -3.88     -1.98
    1    3   16     -2.10     -0.83
    3    3   16      1.80      3.30
    5    3   16      3.33      4.80
    7    3   16      2.02      3.48
    9    3   16      1.50      3.70
   11    3   16      3.34      5.01
   13    3   16      4.88      4.53
   15    3   16      2.51      2.55
   17    3   16     -1.66      0.37
   19    3   16     -2.45     -0.69
  -26    2   16     -0.81      3.76
  -24    2   16      0.68      6.44
  -22    2   16      0.37      4.59
  -20    2   16     -0.34      1.61
  -18    2   16     -0.82     -1.73
  -16    2   16     -1.28     -5.79
  -14    2   16     -0.95     -5.70
  -12    2   16     -0.14      0.26
  -10    2   16     -0.10      4.51
   -8    2   16     -1.22      1.84
   -6    2   16     -3.40     -2.86
   -4    2   16     -4.90     -4.10
   -2    2   16     -3.30     -2.34
    0    2   16     -0.44      0.07
    2    2   16      0.15      0.77
    4    2   16     -0.73     -1.04
    6    2   16     -2.20     -2.80
    8    2   16     -5.45     -2.98
   10    2   16     -7.82     -1.56
   12    2   16     -5.95      2.05
   14    2   16     -1.96      4.15
   16    2   16      0.99      0.97
   18    2   16      1.74     -2.37
   20    2   16      0.04     -1.56
  -27    1   16     -0.78     -1.02
  -25    1   16     -4.34     -0.70
  -23    1   16     -5.19     -1.90
  -21    1   16     -1.84     -3.12
  -19    1   16      1.94     -1.51
  -17    1   16      3.22      1.26
  -15    1   16      2.82      1.30
  -13    1   16      1.77     -1.73
  -11    1   16     -0.15     -4.66
   -9    1   16     -1.46     -4.49
   -7    1   16     -0.18     -2.37
   -5    1   16      2.43     -2.15
   -3    1   16      3.35     -3.74
   -1    1   16      1.28     -4.23
    1    1   16     -1.44     -2.87
    3    1   16     -0.67     -0.09
    5    1   16      2.92      1.04
    7    1   16      5.02     -2.49
    9    1   16      4.51     -5.61
   11    1   16      1.72     -3.22
   13    1   16     -2.49      0.05
   15    1   16     -3.54      0.34
   17    1   16      0.02     -0.26
   19    1   16      2.68     -1.26
  -26    0   16      1.72      0.35
  -24    0   16      2.97      0.14
  -22    0   16      3.84      0.01
  -20    0   16      3.03      0.09
  -18    0   16     -0.41     -0.06
  -16    0   16     -2.55     -0.20
  -14    0   16     -0.14     -0.04
  -12    0   16      3.92      0.02
  -10    0   16      5.26     -0.10
   -8    0   16      3.49     -0.05
   -6    0   16      1.78      0.11
   -4    0   16      1.90      0.21
   -2    0   16      2.82      0.23
    0    0   16      3.71      0.21
    2    0   16      3.00      0.16
    4    0   16      0.58      0.02
    6    0   16      0.93     -0.14
    8    0   16      3.29     -0.09
   10    0   16      1.42     -0.04
   12    0   16     -2.18     -0.11
   14    0   16     -1.62     -0.07
   16    0   16      0.84     -0.03
   18    0   16      2.50     -0.13
   20    0   16      3.26      0.01
  -15    3   16     -7.87      4.23
  -12    4   16      0.95      1.47
   -7    5   16      2.91      4.83
    4    6   16     -9.92      3.56
   10    6   16      6.38      2.37
    5    7   16      4.57      2.81
  -10    6   17     -1.81      0.69
   -8    6   17     -0.58      3.50
   -6    6   17      1.77      2.21
   -4    6   17      4.21      0.59
   -2    6   17      3.91     -1.35
    0    6   17      0.77     -3.31
    2    6   17     -0.31     -2.11
  -17    5   17     -4.24      3.07
  -15    5   17     -4.18      1.90
  -13    5   17      0.35     -0.57
  -11    5   17      1.63     -2.25
   -9    5   17     -0.16     -1.26
   -7    5   17     -0.58      1.49
   -5    5   17     -1.75      2.91
   -3    5   17     -2.88      1.57
   -1    5   17      0.57     -1.20
    1    5   17      3.96     -1.72
    3    5   17      2.57      1.26
    5    5   17      2.40      2.92
    7    5   17      5.19      0.56
    9    5   17      4.80     -1.72
  -20    4   17     -2.28      2.58
  -18    4   17     -2.70     -0.85
  -16    4   17      0.93     -4.67
  -14    4   17      3.77     -5.28
  -12    4   17      2.58     -2.89
  -10    4   17     -0.31      1.89
   -8    4   17     -2.31      6.17
   -6    4   17     -2.03      3.41
   -4    4   17      0.69     -4.43
   -2    4   17      2.85     -4.47
    0    4   17      1.36      4.41
    2    4   17     -2.14      7.95
    4    4   17     -3.86      4.93
    6    4   17     -2.82      7.20
    8    4   17     -0.31     12.29
   10    4   17      1.89      9.47
   12    4   17      1.64      1.66
  -21    3   17     -2.56     -0.66
  -19    3   17     -0.49     -1.07
  -17    3   17      1.34      1.58
  -15    3   17      2.10      3.91
  -13    3   17      2.77      2.28
  -11    3   17      1.48     -0.47
   -9    3   17     -3.15     -1.39
   -7    3   17     -5.82     -1.24
   -5    3   17     -1.48      0.10
   -3    3   17      2.99      1.54
   -1    3   17     -0.87     -1.54
    1    3   17     -6.13     -7.33
    3    3   17     -4.62     -7.37
    5    3   17     -4.59     -2.25
    7    3   17    -11.48      0.19
    9    3   17    -12.96     -0.50
   11    3   17     -2.24     -0.90
   13    3   17      7.98     -1.63
   15    3   17      7.31     -2.63
  -22    2   17     -0.82     -2.49
  -20    2   17     -0.22      0.38
  -18    2   17     -1.73      2.27
  -16    2   17     -2.58      0.94
  -14    2   17     -0.64     -0.19
  -12    2   17      0.16      1.28
  -10    2   17     -2.28      2.17
   -8    2   17     -2.88     -0.38
   -6    2   17      0.37     -2.76
   -4    2   17      2.27     -1.77
   -2    2   17      2.73     -0.56
    0    2   17      6.41     -0.54
    2    2   17      8.80      0.35
    4    2   17      3.66     -0.49
    6    2   17     -2.20     -5.32
    8    2   17     -1.36     -7.58
   10    2   17      1.06     -1.33
   12    2   17      0.15      7.32
   14    2   17     -0.48      8.34
   16    2   17      0.81      2.75
  -23    1   17      0.47     -5.66
  -21    1   17     -0.53     -3.55
  -19    1   17     -2.51     -2.23
  -17    1   17     -2.19     -2.58
  -15    1   17     -0.03     -1.61
  -13    1   17      0.46      0.37
  -11    1   17     -0.87     -1.77
   -9    1   17     -1.11     -6.55
   -7    1   17     -0.26     -5.45
   -5    1   17     -0.30      0.68
   -3    1   17     -0.39      3.27
   -1    1   17     -0.08      2.56
    1    1   17     -0.93      3.16
    3    1   17     -1.48      2.13
    5    1   17      0.06     -2.24
    7    1   17      1.12     -3.40
    9    1   17     -0.34      0.55
   11    1   17     -2.30      2.46
   13    1   17     -2.01      0.37
   15    1   17      0.24     -0.57
   17    1   17      1.32      0.10
  -24    0   17      8.05     -0.14
  -22    0   17      8.12     -0.13
  -20    0   17      5.13     -0.09
  -18    0   17      2.65      0.00
  -16    0   17      2.13      0.09
  -14    0   17      0.43     -0.02
  -12    0   17     -0.86     -0.08
  -10    0   17      3.72      0.15
   -8    0   17      8.73      0.17
   -6    0   17      5.50     -0.21
   -4    0   17     -0.62     -0.24
   -2    0   17     -1.72      0.16
    0    0   17     -0.71      0.26
    2    0   17     -0.46     -0.02
    4    0   17      2.07     -0.22
    6    0   17      4.87     -0.22
    8    0   17      1.88     -0.16
   10    0   17     -4.15     -0.12
   12    0   17     -5.48     -0.06
   14    0   17     -2.50      0.05
   16    0   17      0.10      0.05
    4    6   17      1.02      0.29
   -7    5   18      6.68     -8.18
   -5    5   18     10.93     -6.57
   -3    5   18     14.69      0.77
   -1    5   18     15.32      5.79
  -14    4   18      4.36     -3.29
  -12    4   18      3.07     -4.30
  -10    4   18      4.94      0.29
   -8    4   18      6.76      6.96
   -6    4   18      2.96     10.20
   -4    4   18     -5.34     13.09
   -2    4   18    -10.56     17.36
    0    4   18     -8.51     14.58
    2    4   18     -3.68      2.77
    4    4   18     -1.53     -4.62
    6    4   18     -1.50     -1.74
  -17    3   18      1.56      6.96
  -15    3   18      0.59      8.13
  -13    3   18      0.26      6.51
  -11    3   18     -3.03      5.07
   -7    3   18     -8.20     -0.04
   -5    3   18     -4.99     -4.53
   -3    3   18     -5.54     -7.42
   -1    3   18     -8.42     -6.26
    1    3   18     -5.52     -1.38
    3    3   18      0.68      2.67
    5    3   18      1.97      1.65
    7    3   18      0.97     -1.92
    9    3   18      3.00     -3.05
  -18    2   18     -5.92     -2.03
  -16    2   18     -6.12     -3.17
  -14    2   18     -4.61     -1.61
  -10    2   18     -0.94     -5.82
   -8    2   18     -0.07     -9.27
   -6    2   18     -0.66     -7.00
   -4    2   18     -0.75     -2.14
   -2    2   18      0.54     -0.14
    0    2   18     -0.38     -0.15
    2    2   18     -4.90     -0.71
    4    2   18     -6.43     -2.87
    6    2   18     -1.05     -3.16
    8    2   18      4.93      1.68
   10    2   18      5.57      6.43
  -19    1   18      2.24     -2.96
  -17    1   18      4.36     -1.15
  -15    1   18      2.24     -0.12
  -13    1   18     -0.75     -0.83
  -11    1   18      0.96     -1.60
   -9    1   18      5.91     -1.43
   -7    1   18      8.20     -1.62
   -5    1   18      5.46     -2.90
   -3    1   18      0.80     -2.41
   -1    1   18     -2.20     -0.77
    1    1   18     -1.69     -2.81
    3    1   18      2.33     -5.13
    5    1   18      5.09     -1.11
    7    1   18      1.68      4.28
    9    1   18     -4.47      3.73
   11    1   18     -6.32      0.16
  -20    0   18      1.67     -0.09
  -18    0   18     -0.63      0.00
  -16    0   18     -2.10      0.17
  -14    0   18     -0.91      0.07
  -12    0   18      1.53     -0.14
  -10    0   18      2.62     -0.12
   -8    0   18      1.45      0.04
   -6    0   18      1.35      0.19
   -4    0   18      2.58      0.17
   -2    0   18      1.35     -0.07
    0    0   18      0.76     -0.15
    2    0   18      3.09     -0.04
    4    0   18      1.42     -0.18
    6    0   18     -3.97     -0.20
    8    0   18     -3.58      0.19
   10    0   18      1.89      0.20
   12    0   18      3.75     -0.19
  -12    2   18     -2.78     -1.66
   -9    3   18     -7.90      3.42
   -7    3   19    -10.01      2.27
   -5    3   19     -5.89      7.77
   -3    3   19     -0.61      6.06
   -1    3   19     -1.24     -2.81
  -12    2   19      2.84     -0.19
  -10    2   19      4.27     -4.05
   -8    2   19      1.46    -10.52
   -6    2   19     -3.72    -12.21
   -4    2   19     -6.04     -6.69
   -2    2   19     -0.62     -1.53
    0    2   19      8.48     -0.36
    2    2   19     10.25     -0.15
    4    2   19      3.82     -0.49
  -13    1   19      0.75      1.09
  -11    1   19      2.14      1.71
   -9    1   19      5.11      0.79
   -7    1   19      8.67      2.17
   -5    1   19      8.22      4.62
   -3    1   19      3.74      5.53
   -1    1   19     -0.26      5.44
    1    1   19     -1.83      3.84
    3    1   19     -0.97      0.77
    5    1   19      1.10     -1.05
  -14    0   19     -0.58      0.03
  -12    0   19     -1.50      0.25
  -10    0   19     -0.05      0.38
   -8    0   19     -1.60      0.28
   -6    0   19     -7.78      0.14
   -4    0   19    -11.68     -0.03
   -2    0   19     -8.83     -0.13
    0    0   19     -1.86      0.06
    2    0   19      3.31      0.18
    4    0   19      3.40     -0.19
    6    0   19      1.33     -0.48
   -9    3   19     -6.83     -3.21
    1    3   19     -2.87     -9.21
    2    0    0    281.98     -1.98
    4    0    0    -19.77      1.18
    1    1    0   -102.16   -271.09
    3    1    0    -43.11    -73.60
   41    3    0      0.31      1.15
   39    5    0     -1.30     -4.51
   16   12    0     -3.66     -2.70
   -4    0    1      1.57      0.32
   -2    0    1     24.65      0.68
    0    0    1      4.46     -0.70
    2    0    1    -29.03     -1.60
   42    0    1     -3.52     -0.04
   -1    1    1     19.48    -30.49
    1    1    1    -28.23      7.44
  -42    2    1      5.33      0.56
   41    3    1      3.47     -0.87
   40    4    1      0.00     -1.83
  -39    5    1     -0.49      0.34
  -16   12    1     -0.01      0.84
   16   12    1      2.86     -0.78
   -2    0    2      9.87      4.40
    0    0    2     66.62     -1.61
  -42    2    2     -2.61      3.93
   35    7    2      1.53      3.53
   26   10    2     -0.51      1.11
  -16   12    2     -2.39      0.00
   41    1    3      2.11     -2.46
  -42    2    3      5.14      6.65
  -39    5    3      0.21      2.65
   32    8    3      4.26      4.63
   29    9    3      3.61     -1.59
   21   11    3     -2.79      0.30
   14   12    3      3.83      0.53
   40    2    4      1.69     -1.45
  -41    3    4      0.10     -3.06
  -40    4    4     -3.71      3.28
  -39    5    4      0.69     -0.41
  -14   12    4     -2.54      2.33
   12   12    4      2.86     -0.04
  -42    0    5     -5.88     -1.02
   40    0    5     -3.51     -0.17
  -41    3    5     -2.91     -2.80
  -40    4    5     -1.04      2.60
  -35    7    5      0.39     -5.33
   33    7    5      0.68      4.61
  -26   10    5     -1.83      1.07
  -21   11    5      1.70      3.64
   10   12    5     -4.87     -1.12
   39    1    6     -1.63      1.01
   34    6    6     -0.79      0.38
  -32    8    6     -1.00     -0.73
  -29    9    6     -2.25     -2.40
   22   10    6      0.14     -5.29
   17   11    6     -4.78     -0.33
  -10   12    6     -1.95     -1.24
    8   12    6     -0.23      0.27
   38    0    7     -1.08     -0.01
  -41    1    7     -1.64      1.41
  -36    6    7      1.10      0.22
   28    8    7     -0.45      2.54
   25    9    7     -0.26      2.93
  -24   10    7      0.20      2.05
   15   11    7     -2.01     -4.24
   -8   12    7     -0.83      2.66
   -6   12    7     -0.29     -3.18
    4   12    7      4.15      4.72
  -40    2    8     -0.97      3.75
  -39    3    8     -0.19      0.02
  -38    4    8     -1.86      1.70
  -37    5    8     -1.70      2.16
  -33    7    8     -0.99      1.27
  -30    8    8      0.41     -4.89
  -27    9    8     -4.44      2.34
   13   11    8      2.19      2.34
  -34    6    9     -0.58      2.65
   30    6    9      3.14     -2.08
  -13   11    9     -3.70     -3.29
    9   11    9      1.57      2.08
  -38    2   10      6.21      8.43
   33    3   10      0.61      0.28
   32    4   10      0.26     -1.48
  -35    5   10      1.82      1.67
   19    9   10      2.28     -5.92
  -18   10   10     -1.22     -3.11
   14   10   10      4.91     -2.19
   -9   11   10      1.48     -2.98
    3   11   10      1.17     -2.56
    5   11   10      5.23     -2.94
   32    2   11      2.15     -2.41
  -29    7   11      0.03      3.16
  -26    8   11     -2.08      3.75
   17    9   11     -0.07     -1.98
  -16   10   11      0.19     -1.62
   10   10   11     -9.38      6.06
   31    1   12     -0.19      3.54
  -35    3   12      2.60      3.22
  -30    6   12     -3.33      2.04
  -27    7   12     -1.53     -1.73
  -24    8   12      0.15      1.08
  -19    9   12     -0.21     -0.06
  -10   10   12     -2.32      1.50
    6   10   12      3.12     -2.05
   29    1   13     -1.34      3.45
  -34    2   13      4.97     -9.37
  -33    3   13     -4.97     -1.15
  -32    4   13     -1.80     -0.83
  -28    6   13      0.50      2.30
  -25    7   13      2.31     -1.24
  -15    9   13      2.21     -1.52
    9    9   13      1.38     -0.81
  -32    2   14     -4.25      4.23
   26    2   14      7.61      1.93
  -31    3   14      7.97      2.49
   25    3   14     -0.55     -3.91
  -30    4   14     -3.41     -4.31
   24    4   14     -3.46      1.98
  -18    8   14      0.86     -0.32
   -9    9   14     -4.24     -2.09
   -7    9   14     -3.87     -0.15
    1    9   14     -2.38      1.11
    3    9   14     -1.80      0.34
   24    0   15     -1.95     -0.12
  -30    2   15      0.61     -0.63
  -29    3   15      1.58      1.57
   19    5   15     -3.08      1.01
   16    6   15     -3.99      1.14
  -19    7   15      0.78      2.96
  -12    8   15     -3.07     -2.97
    6    8   15      5.57     -0.22
  -28    0   16      0.15      0.10
   21    1   16      1.57     -2.19
   15    5   16     -1.56     -1.08
   12    6   16      5.52     -0.01
  -13    7   16      2.57      5.20
   18    0   17      1.00      0.00
  -25    1   17      0.08     -4.82
  -24    2   17     -1.40     -2.26
  -23    3   17     -2.14      0.02
  -12    6   17     -0.95     -3.21
    6    6   17      0.74      0.17
  -21    1   18      0.00     -2.27
   13    1   18     -3.01     -1.23
  -20    2   18     -3.01      0.28
   12    2   18      2.57      5.56
  -16    4   18      4.94     -1.76
    8    4   18     -1.02      0.83
  -11    5   18     -4.54     -0.02
   -9    5   18      0.11     -3.79
    1    5   18      7.65      5.34
    3    5   18     -1.32      2.85
  -16    0   19      0.94      0.04
    8    0   19      0.17     -0.27
  -15    1   19     -0.26     -1.09
    7    1   19      1.66     -0.76
  -14    2   19     -0.34      0.50
    6    2   19     -1.02     -1.47
  -11    3   19     -1.53     -3.67
    3    3   19     -0.80     -6.29
    0    0    0      0.00      0.00
# SQUEEZE RESULTS (Version = 230916)
# Note: Data are Listed for all Voids in the P1 Unit Cell
# i.e. Centre of Gravity, Solvent Accessible Volume,
# Recovered number of Electrons in the Void and
# Details about the Squeezed Material
loop_
  _platon_squeeze_void_nr
  _platon_squeeze_void_average_x
  _platon_squeeze_void_average_y
  _platon_squeeze_void_average_z
  _platon_squeeze_void_volume
  _platon_squeeze_void_count_electrons
  _platon_squeeze_void_content
   1  0.000 -0.299  0.302       670       209 ' '
   2  0.500  0.201  0.101       670       209 ' '
# Missing Reflections Below sin(th)/lambda = 0.25
loop_
  _platon_missing_refln_index_h
  _platon_missing_refln_index_k
  _platon_missing_refln_index_l
  _platon_missing_refln_theta
    2    0    0     1.298
    4    0    0     2.597
    1    1    0     2.215
    3    1    0     2.877
   -4    0    1     2.820
   -2    0    1     1.807
    0    0    1     1.396
    2    0    1     2.001
   -1    1    1     2.583
    1    1    1     2.654
   -2    0    2     2.958
    0    0    2     2.794
_platon_squeeze_void_probe_radius                  1.20
_platon_squeeze_details
)
TITL T         C 2          R = 0.11
CELL   31.5410    9.6191   14.6584     90.00     95.86     90.00
SPGR C2
# Solvent Accessible Volume =      1340
# Electrons Found in S.A.V. =       405
# Note: Atoms in Void as Cxxx and Qxxx all others
C101 0.421 0.180 0.003 !       2.62 eA-3
C102 0.424 0.217 0.551 !       2.60 eA-3
C103 0.415 0.129 0.003 !       2.54 eA-3
C104 0.389 0.154 0.972 !       2.54 eA-3
C105 0.572 0.250 0.373 !       2.26 eA-3
C106 0.552 0.095 0.691 !       2.24 eA-3
C107 0.436 0.348 0.607 !       2.14 eA-3
C108 0.429 0.306 0.666 !       2.10 eA-3
C109 0.431 0.119 0.051 !       2.05 eA-3
C110 0.424 0.190 0.908 !       2.01 eA-3
C111 0.482 0.213 0.701 !       2.00 eA-3
C112 0.523 0.091 0.671 !       1.99 eA-3
C113 0.436 0.280 0.966 !       1.97 eA-3
Q114 0.256 0.379 0.250 !       1.94 eA-3
Q115 0.557 0.022 0.578 !       1.92 eA-3
C116 0.435 0.273 0.033 !       1.89 eA-3
C117 0.547 0.224 0.873 !       1.88 eA-3
C118 0.539 0.131 0.829 !       1.84 eA-3
C119 0.570 0.215 0.923 !       1.82 eA-3
C120 0.407 0.317 0.918 !       1.82 eA-3
C121 0.477 0.225 0.077 !       1.81 eA-3
C122 0.517 0.161 0.250 !       1.79 eA-3
C123 0.549 0.220 0.313 !       1.76 eA-3
C124 0.556 0.153 0.035 !       1.76 eA-3
C125 0.408 0.258 0.904 !       1.76 eA-3
C126 0.401 0.258 0.496 !       1.75 eA-3
C127 0.553 0.311 0.135 !       1.73 eA-3
C128 0.443 0.160 0.974 !       1.72 eA-3
C129 0.422 0.325 0.543 !       1.71 eA-3
C130 0.440 0.114 0.369 !       1.70 eA-3
C131 0.394 0.260 0.873 !       1.69 eA-3
C132 0.489 0.159 0.169 !       1.68 eA-3
C133 0.446 0.252 0.905 !       1.67 eA-3
C134 0.405 0.250 0.584 !       1.67 eA-3
C135 0.564 0.189 0.703 !       1.66 eA-3
C136 0.502 0.233 0.130 !       1.65 eA-3
C137 0.517 0.146 0.863 !       1.62 eA-3
C138 0.456 0.219 0.622 !       1.61 eA-3
C139 0.541 0.274 0.341 !       1.61 eA-3
C140 0.538 0.194 0.698 !       1.60 eA-3
C141 0.447 0.243 0.508 !       1.59 eA-3
C142 0.462 0.094 0.551 !       1.58 eA-3
C143 0.453 0.296-0.001 !       1.58 eA-3
C144 0.446 0.225 0.452 !       1.57 eA-3
C145 0.540 0.195 0.416 !       1.55 eA-3
C146 0.546 0.036 0.946 !       1.54 eA-3
C147 0.426 0.125 0.431 !       1.54 eA-3
C148 0.465 0.315 0.937 !       1.54 eA-3
C149 0.440 0.181 0.167 !       1.53 eA-3
C150 0.583 0.169 0.949 !       1.52 eA-3
C151 0.429 0.165 0.488 !       1.51 eA-3
C152 0.558 0.118 0.783 !       1.51 eA-3
C153 0.445 0.159 0.604 !       1.49 eA-3
C154 0.526 0.150 0.772 !       1.47 eA-3
C155 0.408 0.187 0.568 !       1.47 eA-3
C156 0.571 0.163 0.500 !       1.47 eA-3
C157 0.414 0.201 0.454 !       1.46 eA-3
Q158 0.531 0.036 0.616 !       1.46 eA-3
Q159 0.031 0.536 0.616 !       1.46 eA-3
C160 0.526 0.278 0.123 !       1.46 eA-3
C161 0.523 0.226 0.192 !       1.45 eA-3
C162 0.406 0.122 0.381 !       1.43 eA-3
C163 0.462 0.126 0.069 !       1.43 eA-3
Q164 0.531 0.349 0.392 !       1.42 eA-3
C165 0.420 0.119 0.263 !       1.42 eA-3
C166 0.446 0.070 0.204 !       1.40 eA-3
C167 0.428 0.123 0.157 !       1.40 eA-3
C168 0.471 0.199 0.501 !       1.40 eA-3
C169 0.576 0.083 0.690 !       1.40 eA-3
C170 0.422 0.035 0.070 !       1.38 eA-3
C171 0.559 0.190 0.655 !       1.38 eA-3
C172 0.540 0.248 0.979 !       1.38 eA-3
C173 0.422 0.392 0.544 !       1.37 eA-3
C174 0.469 0.120 0.682 !       1.37 eA-3
C175 0.560 0.061 0.861 !       1.37 eA-3
C176 0.421 0.407 0.643 !       1.36 eA-3
C177 0.533 0.168 0.650 !       1.35 eA-3
Q178 0.517 0.375 0.125 !       1.35 eA-3
C179 0.554 0.213 0.155 !       1.34 eA-3
C180 0.493 0.226 0.254 !       1.34 eA-3
C181 0.400 0.149 0.464 !       1.33 eA-3
C182 0.424 0.123 0.539 !       1.33 eA-3
C183 0.420 0.256 0.134 !       1.32 eA-3
C184 0.425 0.193 0.403 !       1.32 eA-3
C185 0.418 0.214 0.837 !       1.32 eA-3
C186 0.577 0.219 0.316 !       1.31 eA-3
Q187 0.540 0.154 0.202 !       1.30 eA-3
C188 0.532 0.218 0.799 !       1.30 eA-3
C189 0.544 0.099 0.500 !       1.30 eA-3
Q190 0.615 0.107 0.933 !       1.29 eA-3
C191 0.447 0.059 0.511 !       1.29 eA-3
Q192 0.392 0.128 0.142 !       1.29 eA-3
C193 0.436 0.122 0.661 !       1.28 eA-3
C194 0.549 0.310 0.275 !       1.28 eA-3
C195 0.425 0.036 0.021 !       1.27 eA-3
Q196 0.033 0.495 0.467 !       1.27 eA-3
C197 0.548 0.229 0.240 !       1.27 eA-3
Q198 0.547 0.279 0.685 !       1.27 eA-3
C199 0.623 0.224 0.466 !       1.27 eA-3
)
;
_shelx_fab_checksum              86481
loop_
_space_group_symop_operation_xyz
'x, y, z'
'-x, y, -z'
'x+1/2, y+1/2, z'
'-x+1/2, y+1/2, -z'
loop_
_atom_site_label
_atom_site_type_symbol
_atom_site_fract_x
_atom_site_fract_y
_atom_site_fract_z
_atom_site_U_iso_or_equiv
_atom_site_adp_type
_atom_site_occupancy
_atom_site_site_symmetry_order
_atom_site_calc_flag
_atom_site_refinement_flags_posn
_atom_site_refinement_flags_adp
_atom_site_refinement_flags_occupancy
_atom_site_disorder_assembly
_atom_site_disorder_group
Mn1 Mn 0.26192(3) 1.00050(12) -0.24178(5) 0.0234(3) Uani 1 1 d . . . . .
N1 N 0.29062(15) 0.8770(5) -0.1320(3) 0.0204(12) Uani 1 1 d . . . . .
N2 N 0.20509(13) 0.9852(7) -0.1758(3) 0.0199(11) Uani 1 1 d . . . . .
N3 N 0.22202(14) 1.0230(6) -0.3662(3) 0.0216(13) Uani 1 1 d . . . . .
N4 N 0.30721(15) 0.9172(6) -0.3232(3) 0.0234(12) Uani 1 1 d . . . . .
N5 N 0.3091(2) 0.9430(6) -0.7126(4) 0.0378(17) Uani 1 1 d . . . . .
N6 N 0.4791(3) 0.840(2) -0.1458(7) 0.136(6) Uani 1 1 d . . . . .
N7 N 0.21808(16) 0.7139(5) 0.1943(3) 0.0239(12) Uani 1 1 d . . . . .
N8 N 0.0518(4) 1.2643(15) -0.3541(7) 0.120(5) Uani 1 1 d . . . . .
C1 C 0.1884(2) 0.7805(8) 0.3348(4) 0.0406(19) Uani 1 1 d . . . . .
H1A H 0.167680 0.704267 0.327373 0.061 Uiso 1 1 calc R U . . .
H1B H 0.175056 0.861775 0.360406 0.061 Uiso 1 1 calc R U . . .
H1C H 0.213057 0.751422 0.376426 0.061 Uiso 1 1 calc R U . . .
C2 C 0.2025(2) 0.8171(7) 0.2436(4) 0.0283(15) Uani 1 1 d . . . . .
C3 C 0.2003(2) 0.9493(6) 0.2107(4) 0.0318(17) Uani 1 1 d . . . . .
H3 H 0.190412 1.021179 0.247615 0.038 Uiso 1 1 calc R U . . .
C4 C 0.2124(2) 0.9824(9) 0.1237(4) 0.0296(16) Uani 1 1 d . . . . .
H4 H 0.211369 1.075338 0.101694 0.036 Uiso 1 1 calc R U . . .
C5 C 0.22576(19) 0.8742(7) 0.0712(4) 0.0227(14) Uani 1 1 d . . . . .
C6 C 0.22859(19) 0.7423(7) 0.1100(4) 0.0218(14) Uani 1 1 d . . . . .
H6 H 0.238504 0.668246 0.074844 0.026 Uiso 1 1 calc R U . . .
C7 C 0.23585(19) 0.8982(6) -0.0250(4) 0.0222(14) Uani 1 1 d . . . . .
C8 C 0.27696(18) 0.8633(6) -0.0461(4) 0.0177(13) Uani 1 1 d . . . . .
C9 C 0.31173(19) 0.8137(7) 0.0157(4) 0.0233(15) Uani 1 1 d . . . . .
H9 H 0.311151 0.797578 0.079458 0.028 Uiso 1 1 calc R U . . .
C10 C 0.34485(19) 0.7942(7) -0.0315(4) 0.0248(15) Uani 1 1 d . . . . .
H10 H 0.371980 0.759669 -0.007775 0.030 Uiso 1 1 calc R U . . .
C11 C 0.33247(19) 0.8345(7) -0.1250(4) 0.0235(14) Uani 1 1 d . . . . .
C12 C 0.35827(19) 0.8306(7) -0.1968(4) 0.0267(15) Uani 1 1 d . . . . .
C13 C 0.4039(2) 0.7875(10) -0.1727(5) 0.042(2) Uani 1 1 d . . . . .
C14 C 0.4357(3) 0.8840(18) -0.1693(7) 0.110(5) Uani 1 1 d . . . . .
H14 H 0.429338 0.978872 -0.182244 0.131 Uiso 1 1 calc R U . . .
C15 C 0.4547(4) 0.6074(18) -0.1392(8) 0.107(5) Uani 1 1 d . . . . .
H15 H 0.460591 0.511182 -0.130368 0.128 Uiso 1 1 calc R U . . .
C16 C 0.4825(5) 0.692(2) -0.1332(9) 0.096(4) Uani 1 1 d . U . . .
C17 C 0.5325(4) 0.658(2) -0.1115(9) 0.153(7) Uani 1 1 d . U . . .
H17A H 0.538212 0.625592 -0.048186 0.229 Uiso 1 1 calc R U . . .
H17B H 0.549109 0.742867 -0.119634 0.229 Uiso 1 1 calc R U . . .
H17C H 0.540643 0.586273 -0.153607 0.229 Uiso 1 1 calc R U . . .
C18 C 0.4147(3) 0.6550(14) -0.1590(7) 0.094(4) Uani 1 1 d . . . . .
H18 H 0.392321 0.588324 -0.163633 0.112 Uiso 1 1 calc R U . . .
C19 C 0.34674(19) 0.8700(7) -0.2884(4) 0.0278(15) Uani 1 1 d . . . . .
C20 C 0.3737(2) 0.8680(8) -0.3601(4) 0.0374(18) Uani 1 1 d . . . . .
H20 H 0.402599 0.838756 -0.354579 0.045 Uiso 1 1 calc R U . . .
C21 C 0.35177(19) 0.9137(8) -0.4363(4) 0.0278(15) Uani 1 1 d . . . . .
H21 H 0.362112 0.924277 -0.494534 0.033 Uiso 1 1 calc R U . . .
C22 C 0.3095(2) 0.9440(6) -0.4140(4) 0.0256(15) Uani 1 1 d . . . . .
C23 C 0.27626(18) 1.0005(9) -0.4744(3) 0.0229(12) Uani 1 1 d . . . . .
C24 C 0.28621(19) 1.0255(8) -0.5705(4) 0.0264(17) Uani 1 1 d . . . . .
C25 C 0.2868(3) 1.1586(8) -0.6028(5) 0.043(2) Uani 1 1 d . . . . .
H25 H 0.278009 1.233957 -0.567212 0.052 Uiso 1 1 calc R U . . .
C26 C 0.3004(3) 1.1817(8) -0.6887(5) 0.051(2) Uani 1 1 d . . . . .
H26 H 0.302353 1.273634 -0.711545 0.061 Uiso 1 1 calc R U . . .
C27 C 0.3107(3) 1.0734(9) -0.7389(5) 0.0344(18) Uani 1 1 d . . . . .
C28 C 0.3277(3) 1.0987(9) -0.8316(5) 0.054(2) Uani 1 1 d . . . . .
H28A H 0.349473 1.028964 -0.841174 0.081 Uiso 1 1 calc R U . . .
H28B H 0.340281 1.191761 -0.832266 0.081 Uiso 1 1 calc R U . . .
H28C H 0.304251 1.091407 -0.880614 0.081 Uiso 1 1 calc R U . . .
C29 C 0.2964(2) 0.9210(8) -0.6281(4) 0.0286(15) Uani 1 1 d . . . . .
H29 H 0.294379 0.827755 -0.607703 0.034 Uiso 1 1 calc R U . . .
C30 C 0.23533(19) 1.0306(6) -0.4516(4) 0.0227(16) Uani 1 1 d . . . . .
C31 C 0.2000(2) 1.0752(7) -0.5157(4) 0.0272(15) Uani 1 1 d . . . . .
H31 H 0.200763 1.092501 -0.579282 0.033 Uiso 1 1 calc R U . . .
C32 C 0.1665(2) 1.0875(7) -0.4688(4) 0.0304(16) Uani 1 1 d . . . . .
H32 H 0.138478 1.112838 -0.493378 0.036 Uiso 1 1 calc R U . . .
C33 C 0.1797(2) 1.0560(7) -0.3747(4) 0.0253(15) Uani 1 1 d . . . . .
C34 C 0.1533(2) 1.0556(7) -0.3036(4) 0.0277(16) Uani 1 1 d . . . . .
C35 C 0.1079(2) 1.0952(10) -0.3266(5) 0.043(2) Uani 1 1 d . . . . .
C36 C 0.0762(3) 1.0010(19) -0.3441(7) 0.101(4) Uani 1 1 d . . . . .
H36 H 0.083470 0.905171 -0.342027 0.122 Uiso 1 1 calc R U . . .
C37 C 0.0348(3) 1.036(2) -0.3643(9) 0.117(6) Uani 1 1 d . . . . .
H37 H 0.013866 0.965457 -0.376898 0.141 Uiso 1 1 calc R U . . .
C38 C 0.0243(4) 1.1601(19) -0.3662(8) 0.084(4) Uani 1 1 d . U . . .
C39 C -0.0201(3) 1.219(2) -0.3851(7) 0.140(6) Uani 1 1 d . U . . .
H39A H -0.039970 1.145337 -0.406782 0.210 Uiso 1 1 calc R U . . .
H39B H -0.020247 1.291987 -0.432042 0.210 Uiso 1 1 calc R U . . .
H39C H -0.029016 1.259569 -0.328544 0.210 Uiso 1 1 calc R U . . .
C40 C 0.0952(3) 1.2264(12) -0.3303(7) 0.076(3) Uani 1 1 d . . . . .
H40 H 0.115706 1.297744 -0.316711 0.091 Uiso 1 1 calc R U . . .
C41 C 0.16508(18) 1.0179(8) -0.2113(4) 0.0218(14) Uani 1 1 d . . . . .
C42 C 0.13603(16) 1.0018(10) -0.1426(3) 0.0255(13) Uani 1 1 d . . . . .
H42 H 0.106160 1.017965 -0.150400 0.031 Uiso 1 1 calc R U . . .
C43 C 0.1585(2) 0.9606(6) -0.0667(4) 0.0288(18) Uani 1 1 d . . . . .
H43 H 0.147777 0.943564 -0.009465 0.035 Uiso 1 1 calc R U . . .
C44 C 0.2025(2) 0.9459(6) -0.0858(4) 0.0222(15) Uani 1 1 d . . . . .
loop_
_atom_site_aniso_label
_atom_site_aniso_U_11
_atom_site_aniso_U_22
_atom_site_aniso_U_33
_atom_site_aniso_U_23
_atom_site_aniso_U_13
_atom_site_aniso_U_12
Mn1 0.0280(5) 0.0253(5) 0.0175(4) 0.0024(6) 0.0052(3) 0.0052(5)
N1 0.023(3) 0.024(3) 0.014(2) 0.002(2) 0.005(2) 0.007(2)
N2 0.018(2) 0.023(3) 0.018(2) 0.002(3) -0.0009(19) 0.007(2)
N3 0.024(3) 0.026(4) 0.015(2) 0.001(2) 0.0034(19) 0.008(2)
N4 0.024(3) 0.028(3) 0.019(3) -0.001(2) 0.008(2) 0.007(2)
N5 0.057(4) 0.028(4) 0.031(4) -0.001(3) 0.018(3) -0.003(3)
N6 0.047(6) 0.291(19) 0.070(6) -0.034(10) 0.005(5) -0.019(9)
N7 0.030(3) 0.023(3) 0.020(3) 0.001(2) 0.006(2) 0.003(2)
N8 0.116(10) 0.163(12) 0.086(7) 0.030(8) 0.031(7) 0.090(9)
C1 0.060(5) 0.036(5) 0.029(4) 0.002(3) 0.017(4) 0.005(4)
C2 0.034(4) 0.032(4) 0.021(3) 0.005(3) 0.009(3) 0.002(3)
C3 0.047(4) 0.026(4) 0.023(3) -0.004(3) 0.006(3) 0.014(3)
C4 0.038(4) 0.035(5) 0.015(3) 0.007(3) 0.001(2) 0.003(3)
C5 0.030(4) 0.026(4) 0.012(3) 0.003(3) 0.004(3) 0.008(3)
C6 0.026(3) 0.025(4) 0.016(3) -0.003(3) 0.006(3) 0.002(3)
C7 0.029(4) 0.015(3) 0.023(3) -0.003(3) 0.006(3) 0.000(3)
C8 0.021(3) 0.017(3) 0.015(3) 0.003(2) 0.004(2) 0.004(2)
C9 0.033(4) 0.025(4) 0.011(3) -0.001(3) -0.003(3) 0.005(3)
C10 0.020(3) 0.034(4) 0.020(3) -0.001(3) 0.001(3) 0.007(3)
C11 0.023(3) 0.031(4) 0.017(3) 0.003(3) 0.001(3) 0.002(3)
C12 0.017(3) 0.037(4) 0.026(3) 0.004(3) 0.003(3) 0.001(3)
C13 0.028(4) 0.075(6) 0.022(4) 0.007(4) 0.002(3) 0.015(4)
C14 0.032(6) 0.219(16) 0.075(7) -0.031(9) -0.011(5) -0.025(8)
C15 0.087(9) 0.164(14) 0.068(8) 0.004(9) -0.001(7) 0.092(10)
C16 0.090(9) 0.145(11) 0.053(6) 0.002(7) 0.009(6) 0.031(9)
C17 0.059(7) 0.306(19) 0.093(8) 0.007(10) 0.004(6) 0.099(10)
C18 0.059(6) 0.134(12) 0.086(8) 0.027(7) 0.002(6) 0.072(7)
C19 0.024(4) 0.035(4) 0.025(3) -0.003(3) 0.002(3) 0.003(3)
C20 0.025(4) 0.054(5) 0.034(4) 0.005(4) 0.008(3) 0.011(3)
C21 0.025(3) 0.041(4) 0.019(3) -0.005(3) 0.010(3) 0.003(3)
C22 0.037(4) 0.024(4) 0.016(3) -0.004(3) 0.005(3) 0.005(3)
C23 0.041(3) 0.016(3) 0.013(2) 0.006(4) 0.006(2) 0.004(4)
C24 0.029(3) 0.034(5) 0.018(3) 0.000(3) 0.007(2) 0.005(3)
C25 0.079(6) 0.027(4) 0.027(4) 0.003(3) 0.024(4) 0.017(4)
C26 0.101(7) 0.031(5) 0.025(4) 0.012(3) 0.027(4) 0.006(4)
C27 0.052(5) 0.029(5) 0.023(4) -0.003(3) 0.005(3) 0.001(4)
C28 0.096(7) 0.034(5) 0.038(4) 0.002(4) 0.031(5) -0.007(5)
C29 0.036(4) 0.025(4) 0.027(4) 0.001(3) 0.012(3) 0.006(3)
C30 0.030(3) 0.023(5) 0.014(3) 0.001(3) 0.001(2) 0.005(3)
C31 0.034(4) 0.032(4) 0.016(3) 0.003(3) 0.000(3) 0.003(3)
C32 0.036(4) 0.032(4) 0.022(3) 0.005(3) -0.002(3) 0.006(3)
C33 0.031(4) 0.027(4) 0.018(3) -0.001(3) 0.000(3) 0.009(3)
C34 0.029(4) 0.031(4) 0.022(3) 0.001(3) 0.001(3) 0.011(3)
C35 0.025(4) 0.079(6) 0.024(4) 0.009(4) 0.004(3) 0.012(4)
C36 0.032(5) 0.160(11) 0.108(8) -0.028(11) -0.013(5) -0.031(8)
C37 0.034(6) 0.201(19) 0.112(9) -0.041(12) -0.017(6) -0.016(9)
C38 0.066(7) 0.133(10) 0.052(6) 0.000(7) 0.005(5) 0.029(8)
C39 0.052(7) 0.291(19) 0.076(8) 0.000(10) 0.003(6) 0.078(9)
C40 0.039(5) 0.095(9) 0.093(8) 0.017(6) 0.008(5) 0.037(5)
C41 0.027(3) 0.019(4) 0.019(3) 0.000(3) 0.003(2) 0.011(3)
C42 0.015(3) 0.037(3) 0.025(3) -0.010(4) 0.007(2) 0.005(4)
C43 0.027(4) 0.042(5) 0.019(3) 0.002(3) 0.010(3) 0.003(3)
C44 0.029(4) 0.024(4) 0.014(3) 0.000(2) 0.006(3) 0.003(3)
loop_
_atom_type_symbol
_atom_type_description
_atom_type_scat_dispersion_real
_atom_type_scat_dispersion_imag
_atom_type_scat_source
C C 0.0033 0.0016 'International Tables Vol C Tables 4.2.6.8 and 6.1.1.4'
H H 0.0000 0.0000 'International Tables Vol C Tables 4.2.6.8 and 6.1.1.4'
N N 0.0061 0.0033 'International Tables Vol C Tables 4.2.6.8 and 6.1.1.4'
Mn Mn 0.3368 0.7283 'International Tables Vol C Tables 4.2.6.8 and 6.1.1.4'
loop_
_geom_angle_atom_site_label_1
_geom_angle_atom_site_label_2
_geom_angle_atom_site_label_3
_geom_angle
_geom_angle_site_symmetry_1
_geom_angle_site_symmetry_3
_geom_angle_publ_flag
N4 Mn1 N3 85.92(18) . . ?
N4 Mn1 N1 87.45(18) . . ?
N3 Mn1 N1 151.4(2) . . ?
N4 Mn1 N2 151.8(2) . . ?
N3 Mn1 N2 86.84(17) . . ?
N1 Mn1 N2 86.02(18) . . ?
N4 Mn1 N7 109.8(2) . 4 ?
N3 Mn1 N7 107.3(2) . 4 ?
N1 Mn1 N7 101.08(19) . 4 ?
N2 Mn1 N7 98.4(2) . 4 ?
C11 N1 C8 106.9(5) . . ?
C11 N1 Mn1 123.6(4) . . ?
C8 N1 Mn1 126.6(4) . . ?
C41 N2 C44 106.7(4) . . ?
C41 N2 Mn1 127.3(4) . . ?
C44 N2 Mn1 126.0(4) . . ?
C30 N3 C33 107.1(5) . . ?
C30 N3 Mn1 125.8(4) . . ?
C33 N3 Mn1 126.3(4) . . ?
C22 N4 C19 106.7(5) . . ?
C22 N4 Mn1 125.9(4) . . ?
C19 N4 Mn1 123.8(4) . . ?
C27 N5 C29 116.2(6) . . ?
C14 N6 C16 112.0(13) . . ?
C6 N7 C2 118.8(5) . . ?
C6 N7 Mn1 112.7(4) . 4_545 ?
C2 N7 Mn1 128.0(4) . 4_545 ?
C38 N8 C40 116.0(12) . . ?
C2 C1 H1A 109.5 . . ?
C2 C1 H1B 109.5 . . ?
H1A C1 H1B 109.5 . . ?
C2 C1 H1C 109.5 . . ?
H1A C1 H1C 109.5 . . ?
H1B C1 H1C 109.5 . . ?
N7 C2 C3 120.5(6) . . ?
N7 C2 C1 117.6(6) . . ?
C3 C2 C1 121.9(6) . . ?
C2 C3 C4 121.7(6) . . ?
C2 C3 H3 119.2 . . ?
C4 C3 H3 119.2 . . ?
C5 C4 C3 117.4(7) . . ?
C5 C4 H4 121.3 . . ?
C3 C4 H4 121.3 . . ?
C4 C5 C6 117.9(5) . . ?
C4 C5 C7 120.9(6) . . ?
C6 C5 C7 121.1(5) . . ?
N7 C6 C5 123.5(6) . . ?
N7 C6 H6 118.3 . . ?
C5 C6 H6 118.3 . . ?
C44 C7 C8 126.6(6) . . ?
C44 C7 C5 115.9(5) . . ?
C8 C7 C5 117.4(5) . . ?
N1 C8 C7 124.0(5) . . ?
N1 C8 C9 108.6(5) . . ?
C7 C8 C9 127.3(5) . . ?
C10 C9 C8 108.2(5) . . ?
C10 C9 H9 125.9 . . ?
C8 C9 H9 125.9 . . ?
C9 C10 C11 107.9(5) . . ?
C9 C10 H10 126.1 . . ?
C11 C10 H10 126.1 . . ?
N1 C11 C12 125.5(5) . . ?
N1 C11 C10 108.4(5) . . ?
C12 C11 C10 126.1(6) . . ?
C11 C12 C19 126.8(6) . . ?
C11 C12 C13 116.6(5) . . ?
C19 C12 C13 116.5(5) . . ?
C18 C13 C14 118.0(10) . . ?
C18 C13 C12 121.6(9) . . ?
C14 C13 C12 120.3(9) . . ?
C13 C14 N6 119.3(14) . . ?
C13 C14 H14 120.4 . . ?
N6 C14 H14 120.4 . . ?
C16 C15 C18 116.6(17) . . ?
C16 C15 H15 121.7 . . ?
C18 C15 H15 121.7 . . ?
C15 C16 N6 128.6(15) . . ?
C15 C16 C17 124.9(17) . . ?
N6 C16 C17 106.5(14) . . ?
C16 C17 H17A 109.5 . . ?
C16 C17 H17B 109.5 . . ?
H17A C17 H17B 109.5 . . ?
C16 C17 H17C 109.5 . . ?
H17A C17 H17C 109.5 . . ?
H17B C17 H17C 109.5 . . ?
C13 C18 C15 125.4(14) . . ?
C13 C18 H18 117.3 . . ?
C15 C18 H18 117.3 . . ?
N4 C19 C12 125.4(5) . . ?
N4 C19 C20 108.6(5) . . ?
C12 C19 C20 126.0(6) . . ?
C21 C20 C19 108.6(6) . . ?
C21 C20 H20 125.7 . . ?
C19 C20 H20 125.7 . . ?
C20 C21 C22 107.0(6) . . ?
C20 C21 H21 126.5 . . ?
C22 C21 H21 126.5 . . ?
N4 C22 C23 125.1(6) . . ?
N4 C22 C21 109.0(5) . . ?
C23 C22 C21 125.8(6) . . ?
C30 C23 C22 125.2(5) . . ?
C30 C23 C24 118.7(5) . . ?
C22 C23 C24 116.1(5) . . ?
C25 C24 C29 117.4(6) . . ?
C25 C24 C23 119.3(6) . . ?
C29 C24 C23 123.2(7) . . ?
C24 C25 C26 118.7(7) . . ?
C24 C25 H25 120.7 . . ?
C26 C25 H25 120.7 . . ?
C27 C26 C25 119.4(7) . . ?
C27 C26 H26 120.3 . . ?
C25 C26 H26 120.3 . . ?
N5 C27 C26 124.3(7) . . ?
N5 C27 C28 116.1(7) . . ?
C26 C27 C28 119.5(7) . . ?
C27 C28 H28A 109.5 . . ?
C27 C28 H28B 109.5 . . ?
H28A C28 H28B 109.5 . . ?
C27 C28 H28C 109.5 . . ?
H28A C28 H28C 109.5 . . ?
H28B C28 H28C 109.5 . . ?
N5 C29 C24 123.9(7) . . ?
N5 C29 H29 118.1 . . ?
C24 C29 H29 118.1 . . ?
N3 C30 C23 126.0(5) . . ?
N3 C30 C31 108.8(5) . . ?
C23 C30 C31 125.2(5) . . ?
C32 C31 C30 107.1(5) . . ?
C32 C31 H31 126.5 . . ?
C30 C31 H31 126.5 . . ?
C31 C32 C33 108.0(6) . . ?
C31 C32 H32 126.0 . . ?
C33 C32 H32 126.0 . . ?
N3 C33 C34 125.6(5) . . ?
N3 C33 C32 108.9(5) . . ?
C34 C33 C32 125.5(6) . . ?
C33 C34 C41 126.5(6) . . ?
C33 C34 C35 117.6(5) . . ?
C41 C34 C35 115.8(5) . . ?
C40 C35 C36 114.6(10) . . ?
C40 C35 C34 122.3(8) . . ?
C36 C35 C34 123.1(10) . . ?
C37 C36 C35 123.7(17) . . ?
C37 C36 H36 118.2 . . ?
C35 C36 H36 118.2 . . ?
C38 C37 C36 119.5(16) . . ?
C38 C37 H37 120.2 . . ?
C36 C37 H37 120.2 . . ?
C37 C38 N8 123.9(13) . . ?
C37 C38 C39 127.4(16) . . ?
N8 C38 C39 108.7(15) . . ?
C38 C39 H39A 109.5 . . ?
C38 C39 H39B 109.5 . . ?
H39A C39 H39B 109.5 . . ?
C38 C39 H39C 109.5 . . ?
H39A C39 H39C 109.5 . . ?
H39B C39 H39C 109.5 . . ?
C35 C40 N8 122.2(11) . . ?
C35 C40 H40 118.9 . . ?
N8 C40 H40 118.9 . . ?
N2 C41 C34 124.9(5) . . ?
N2 C41 C42 110.0(5) . . ?
C34 C41 C42 125.0(5) . . ?
C43 C42 C41 107.3(5) . . ?
C43 C42 H42 126.4 . . ?
C41 C42 H42 126.4 . . ?
C42 C43 C44 108.0(5) . . ?
C42 C43 H43 126.0 . . ?
C44 C43 H43 126.0 . . ?
N2 C44 C7 126.1(5) . . ?
N2 C44 C43 108.0(5) . . ?
C7 C44 C43 125.9(6) . . ?
loop_
_geom_bond_atom_site_label_1
_geom_bond_atom_site_label_2
_geom_bond_distance
_geom_bond_site_symmetry_2
_geom_bond_publ_flag
Mn1 N4 2.111(5) . ?
Mn1 N3 2.119(4) . ?
Mn1 N1 2.127(5) . ?
Mn1 N2 2.127(4) . ?
Mn1 N7 2.237(5) 4 ?
N1 C11 1.376(7) . ?
N1 C8 1.379(7) . ?
N2 C41 1.352(7) . ?
N2 C44 1.382(7) . ?
N3 C30 1.362(7) . ?
N3 C33 1.364(8) . ?
N4 C22 1.365(8) . ?
N4 C19 1.375(8) . ?
N5 C27 1.315(8) . ?
N5 C29 1.356(9) . ?
N6 C14 1.438(15) . ?
N6 C16 1.44(2) . ?
N7 C6 1.340(7) . ?
N7 C2 1.350(8) . ?
N8 C38 1.325(18) . ?
N8 C40 1.425(13) . ?
C1 C2 1.495(9) . ?
C1 H1A 0.9800 . ?
C1 H1B 0.9800 . ?
C1 H1C 0.9800 . ?
C2 C3 1.359(9) . ?
C3 C4 1.404(9) . ?
C3 H3 0.9500 . ?
C4 C5 1.386(9) . ?
C4 H4 0.9500 . ?
C5 C6 1.390(9) . ?
C5 C7 1.495(8) . ?
C6 H6 0.9500 . ?
C7 C44 1.385(9) . ?
C7 C8 1.404(8) . ?
C8 C9 1.431(8) . ?
C9 C10 1.323(8) . ?
C9 H9 0.9500 . ?
C10 C11 1.440(8) . ?
C10 H10 0.9500 . ?
C11 C12 1.395(8) . ?
C12 C19 1.408(9) . ?
C12 C13 1.503(9) . ?
C13 C18 1.329(14) . ?
C13 C14 1.366(14) . ?
C14 H14 0.9500 . ?
C15 C16 1.19(2) . ?
C15 C18 1.347(13) . ?
C15 H15 0.9500 . ?
C16 C17 1.611(17) . ?
C17 H17A 0.9800 . ?
C17 H17B 0.9800 . ?
C17 H17C 0.9800 . ?
C18 H18 0.9500 . ?
C19 C20 1.418(9) . ?
C20 C21 1.326(9) . ?
C20 H20 0.9500 . ?
C21 C22 1.435(9) . ?
C21 H21 0.9500 . ?
C22 C23 1.410(9) . ?
C23 C30 1.397(8) . ?
C23 C24 1.493(7) . ?
C24 C25 1.366(10) . ?
C24 C29 1.372(9) . ?
C25 C26 1.390(9) . ?
C25 H25 0.9500 . ?
C26 C27 1.334(11) . ?
C26 H26 0.9500 . ?
C27 C28 1.529(10) . ?
C28 H28A 0.9800 . ?
C28 H28B 0.9800 . ?
C28 H28C 0.9800 . ?
C29 H29 0.9500 . ?
C30 C31 1.447(8) . ?
C31 C32 1.324(9) . ?
C31 H31 0.9500 . ?
C32 C33 1.432(8) . ?
C32 H32 0.9500 . ?
C33 C34 1.401(8) . ?
C34 C41 1.413(8) . ?
C34 C35 1.487(9) . ?
C35 C40 1.324(13) . ?
C35 C36 1.354(14) . ?
C36 C37 1.351(16) . ?
C36 H36 0.9500 . ?
C37 C38 1.24(2) . ?
C37 H37 0.9500 . ?
C38 C39 1.514(15) . ?
C39 H39A 0.9800 . ?
C39 H39B 0.9800 . ?
C39 H39C 0.9800 . ?
C40 H40 0.9500 . ?
C41 C42 1.438(7) . ?
C42 C43 1.318(8) . ?
C42 H42 0.9500 . ?
C43 C44 1.450(9) . ?
C43 H43 0.9500 . ?
