#------------------------------------------------------------------------------
#$Date: 2021-01-07 08:23:49 +0200 (Thu, 07 Jan 2021) $
#$Revision: 260766 $
#$URL: file:///home/coder/svn-repositories/cod/cif/7/70/58/7705803.cif $
#------------------------------------------------------------------------------
#
# This file is available in the Crystallography Open Database (COD),
# http://www.crystallography.net/
#
# All data on this site have been placed in the public domain by the
# contributors.
#
data_7705803
loop_
_publ_author_name
'Qin, Jian-Hua'
'Zhang, Hua'
'Sun, Pengfei'
'Huang, Ya-Dan'
'Shen, Qingming'
'Yang, Xiao-Gang'
'Ma, Lu-Fang'
_publ_section_title
;
 Ionic liquid induced highly dense assembly of porphyrin in MOF nanosheets
 for photodynamic therapy.
;
_journal_issue                   48
_journal_name_full
'Dalton transactions (Cambridge, England : 2003)'
_journal_page_first              17772
_journal_page_last               17778
_journal_paper_doi               10.1039/d0dt03031g
_journal_volume                  49
_journal_year                    2020
_chemical_formula_moiety         'C96 H60 Ca3 N8 O20'
_chemical_formula_sum            'C96 H60 Ca3 N8 O20'
_chemical_formula_weight         1765.76
_space_group_crystal_system      triclinic
_space_group_IT_number           2
_space_group_name_Hall           '-P 1'
_space_group_name_H-M_alt        'P -1'
_atom_sites_solution_hydrogens   mixed
_atom_sites_solution_primary     dual
_audit_creation_date             2020-03-08
_audit_creation_method
;
Olex2 1.2-alpha
(compiled 2018.07.26 svn.r3523 for OlexSys, GUI svn.r5532)
;
_audit_update_record
;
2020-06-08 deposited with the CCDC.	2020-11-16 downloaded from the CCDC.
;
_cell_angle_alpha                74.789(6)
_cell_angle_beta                 70.647(7)
_cell_angle_gamma                76.008(6)
_cell_formula_units_Z            1
_cell_length_a                   11.9690(9)
_cell_length_b                   15.4198(10)
_cell_length_c                   17.4200(14)
_cell_measurement_reflns_used    6509
_cell_measurement_temperature    293(2)
_cell_measurement_theta_max      25.7370
_cell_measurement_theta_min      3.5670
_cell_volume                     2884.4(4)
_computing_cell_refinement       'CrysAlisPro 1.171.39.46 (Rigaku OD, 2018)'
_computing_data_collection       'CrysAlisPro 1.171.39.46 (Rigaku OD, 2018)'
_computing_data_reduction        'CrysAlisPro 1.171.39.46 (Rigaku OD, 2018)'
_computing_molecular_graphics    'Olex2 (Dolomanov et al., 2009)'
_computing_publication_material  'Olex2 (Dolomanov et al., 2009)'
_computing_structure_refinement  'ShelXL (Sheldrick, 2015)'
_computing_structure_solution    'ShelXT (Sheldrick, 2015)'
_diffrn_ambient_temperature      293(2)
_diffrn_detector                 'CCD plate'
_diffrn_detector_area_resol_mean 8.0584
_diffrn_detector_type            EosS2
_diffrn_measured_fraction_theta_full 0.996
_diffrn_measured_fraction_theta_max 0.856
_diffrn_measurement_details
;
List of Runs (angles in degrees, time in seconds):

  # Type    Start    End  Width  t~exp~   \w     \q     \k     \f   Frames
#--------------------------------------------------------------------------
  1  \w    -66.00   1.00   1.00   30.00    --  -13.80 122.00 103.72   67
  2  \w    -20.00  17.00   1.00   30.00    --  -13.80  19.00   0.00   37
  3  \w    -70.00  -5.00   1.00   30.00    --  -13.80 129.00-166.49   65
  4  \w    -82.00  -7.00   1.00   30.00    --  -13.80 -38.00 120.00   75
  5  \w    -81.00  -6.00   1.00   30.00    --  -13.80 -57.00 -30.00   75
  6  \w    -53.00  41.00   1.00   30.00    --   14.74 -77.00 120.00   94
  7  \w     -1.00  80.00   1.00   30.00    --   14.74  77.00-120.00   81
  8  \w     -3.00  72.00   1.00   30.00    --   14.74  38.00 120.00   75
;
_diffrn_measurement_device       'four-circle diffractometer'
_diffrn_measurement_device_type
'SuperNova, Single source at offset/far, EosS2'
_diffrn_measurement_method       '\w scans'
_diffrn_orient_matrix_type
'CrysAlisPro convention (1999,Acta A55,543-557)'
_diffrn_orient_matrix_UB_11      0.0238092000
_diffrn_orient_matrix_UB_12      -0.0443112000
_diffrn_orient_matrix_UB_13      0.0185029000
_diffrn_orient_matrix_UB_21      -0.0542914000
_diffrn_orient_matrix_UB_22      -0.0014268000
_diffrn_orient_matrix_UB_23      0.0327723000
_diffrn_orient_matrix_UB_31      -0.0234155000
_diffrn_orient_matrix_UB_32      -0.0193529000
_diffrn_orient_matrix_UB_33      -0.0228678000
_diffrn_radiation_monochromator  mirror
_diffrn_radiation_probe          x-ray
_diffrn_radiation_type           MoK\a
_diffrn_radiation_wavelength     0.71073
_diffrn_reflns_av_R_equivalents  0.0771
_diffrn_reflns_av_unetI/netI     0.1302
_diffrn_reflns_Laue_measured_fraction_full 0.996
_diffrn_reflns_Laue_measured_fraction_max 0.856
_diffrn_reflns_limit_h_max       15
_diffrn_reflns_limit_h_min       -15
_diffrn_reflns_limit_k_max       19
_diffrn_reflns_limit_k_min       -19
_diffrn_reflns_limit_l_max       22
_diffrn_reflns_limit_l_min       -22
_diffrn_reflns_number            35615
_diffrn_reflns_point_group_measured_fraction_full 0.996
_diffrn_reflns_point_group_measured_fraction_max 0.856
_diffrn_reflns_theta_full        25.242
_diffrn_reflns_theta_max         28.364
_diffrn_reflns_theta_min         3.274
_diffrn_source                   'micro-focus sealed X-ray tube'
_diffrn_source_type              'SuperNova (Mo) X-ray Source'
_exptl_absorpt_coefficient_mu    0.202
_exptl_absorpt_correction_T_max  1.00000
_exptl_absorpt_correction_T_min  0.23991
_exptl_absorpt_correction_type   multi-scan
_exptl_absorpt_process_details
;
CrysAlisPro 1.171.39.46 (Rigaku Oxford Diffraction, 2018)
Empirical absorption correction using spherical harmonics,
 implemented in SCALE3 ABSPACK scaling algorithm.
;
_exptl_crystal_colour            violet
_exptl_crystal_colour_primary    violet
_exptl_crystal_density_diffrn    1.017
_exptl_crystal_description       block
_exptl_crystal_F_000             912
_exptl_crystal_size_max          0.34
_exptl_crystal_size_mid          0.23
_exptl_crystal_size_min          0.17
_refine_diff_density_max         1.232
_refine_diff_density_min         -0.504
_refine_diff_density_rms         0.073
_refine_ls_extinction_method     none
_refine_ls_goodness_of_fit_ref   1.031
_refine_ls_hydrogen_treatment    mixed
_refine_ls_matrix_type           full
_refine_ls_number_parameters     582
_refine_ls_number_reflns         12349
_refine_ls_number_restraints     4
_refine_ls_restrained_S_all      1.030
_refine_ls_R_factor_all          0.1423
_refine_ls_R_factor_gt           0.0893
_refine_ls_shift/su_max          0.001
_refine_ls_shift/su_mean         0.000
_refine_ls_structure_factor_coef Fsqd
_refine_ls_weighting_details
'w=1/[\s^2^(Fo^2^)+(0.1058P)^2^+1.7956P] where P=(Fo^2^+2Fc^2^)/3'
_refine_ls_weighting_scheme      calc
_refine_ls_wR_factor_gt          0.2197
_refine_ls_wR_factor_ref         0.2478
_reflns_Friedel_coverage         0.000
_reflns_number_gt                7123
_reflns_number_total             12349
_reflns_threshold_expression     'I > 2\s(I)'
_cod_data_source_file            d0dt03031g2.cif
_cod_data_source_block           20190416-55_sq
_cod_depositor_comments          'Adding full bibliography for 7705803.cif.'
_cod_original_cell_volume        2884.5(4)
_cod_database_code               7705803
_shelx_shelxl_version_number     2018/3
_chemical_oxdiff_formula         C1H1O1N1Ca1
_shelx_space_group_comment
;
The symmetry employed for this shelxl refinement is uniquely defined
by the following loop, which should always be used as a source of
symmetry information in preference to the above space-group names.
They are only intended as comments.
;
_reflns_odcompleteness_completeness 99.57
_reflns_odcompleteness_iscentric 1
_reflns_odcompleteness_theta     25.30
_olex2_refinement_description
;
1. Fixed Uiso
 At 1.2 times of:
  All C(H) groups, All N(H) groups
 At 1.5 times of:
  All O(H,H) groups
2. Restrained distances
 O10-H10A = O10-H10B
 0.85 with sigma of 0.02
 H10A-H10B
 1.42 with sigma of 0.02
 Ca2-H10A \\sim Ca2-H10B
 with sigma of 0.01
3.a Riding coordinates:
 O9(H9A,H9B)
3.b Aromatic/amide H refined with riding coordinates:
 N1(H1), N3(H3), C3(H3A), C4(H4), C6(H6), C7(H7), C10(H10), C11(H11), C13(H13),
  C14(H14), C17(H17), C18(H18), C20(H20), C21(H21), C24(H24), C25(H25),
 C27(H27), C28(H28), C31(H31), C32(H32), C36(H36), C37(H37), C41(H41), C42(H42),
  C46(H46), C47(H47)
;
_shelx_res_file
;
TITL 20190416-55_a.res in P-1
    20190416-55_sq.res
    created by SHELXL-2018/3 at 12:57:22 on 08-Mar-2020
REM Old TITL 20190416-55_a.res in P-1
REM SHELXT solution in P-1: R1 0.238, Rweak 0.055, Alpha 0.103
REM <I/s> 0.000 for 0 systematic absences, Orientation as input
REM Formula found by SHELXT: C94 Ca3 N10 O20
CELL 0.71073 11.969 15.4198 17.42 74.789 70.647 76.008
ZERR 1 0.0009 0.001 0.0014 0.006 0.007 0.006
LATT 1
SFAC C H Ca N O
UNIT 96 60 3 8 20
DFIX 0.85 O10 H10a O10 H10b
DFIX 1.42 H10a H10b
SADI 0.01 Ca2 H10a Ca2 H10b

L.S. 20 0 141
PLAN  5
ABIN
fmap 2 53
acta
REM <olex2.extras>
REM <HklSrc "%.\\20190416-55_sq.hkl">
REM </olex2.extras>

WGHT    0.105800    1.795600
FVAR       0.33307
CA1   3    0.500000    1.000000    0.000000    10.50000    0.01966    0.02815 =
         0.02658   -0.00712   -0.01018    0.00064
CA2   3    0.178769    1.027436    0.054665    11.00000    0.02346    0.02945 =
         0.02385   -0.00719   -0.01133    0.00067
O1    5    0.354846    0.960550    0.119365    11.00000    0.03989    0.06398 =
         0.03248    0.01381   -0.01369   -0.00423
O2    5    0.184766    0.911190    0.181303    11.00000    0.04106    0.06473 =
         0.05667    0.01633   -0.03252   -0.01338
O3    5    1.101566    0.138402    0.136802    11.00000    0.05071    0.05921 =
         0.06444   -0.04075   -0.00407   -0.00813
O4    5    1.240878    0.222815    0.108201    11.00000    0.04761    0.09443 =
         0.08947   -0.07112    0.01438   -0.01626
O5    5    1.249792    0.218575    0.876441    11.00000    0.04261    0.06980 =
         0.06793    0.02591   -0.03466   -0.02168
O6    5    1.115842    0.126655    0.939567    11.00000    0.04322    0.03848 =
         0.04326    0.01135   -0.02834   -0.00905
O7    5    0.381721    0.949310    0.947528    11.00000    0.03980    0.06638 =
         0.06878   -0.04070   -0.02316   -0.00097
O8    5    0.206985    0.908364    0.975223    11.00000    0.03321    0.04673 =
         0.04263   -0.02458   -0.01465    0.00645
O9    5   -0.024033    1.003565    0.098229    11.00000    0.02582    0.04820 =
         0.04108   -0.01265   -0.01289   -0.00092
AFIX   3
H9A   2   -0.089373    1.039266    0.096909    11.00000   -1.50000
H9B   2   -0.028723    0.959386    0.078889    11.00000   -1.50000
AFIX   0
O10   5    0.345665    1.126362   -0.006004    11.00000    0.03149    0.03247 =
         0.03406   -0.00865   -0.01360    0.00631
N1    4    0.544075    0.647093    0.558303    11.00000    0.04461    0.02543 =
         0.02989   -0.00758   -0.01900    0.01256
AFIX  43
H1    2    0.592047    0.595590    0.558876    11.00000   -1.20000
AFIX   0
N2    4    0.692020    0.537948    0.662369    11.00000    0.03679    0.03714 =
         0.02739   -0.01048   -0.01557    0.01354
N3    4    0.835824    0.437269    0.533332    11.00000    0.03930    0.03361 =
         0.03089   -0.00731   -0.01478    0.01013
AFIX  43
H3    2    0.774255    0.480115    0.538699    11.00000   -1.20000
AFIX   0
N4    4    0.672555    0.531739    0.435608    11.00000    0.03406    0.03005 =
         0.02760   -0.00600   -0.01183    0.00755
C1    1    0.290460    0.909427    0.177541    11.00000    0.03629    0.03499 =
         0.02580   -0.00266   -0.01203    0.00006
C2    1    0.345987    0.846479    0.242057    11.00000    0.03487    0.04015 =
         0.02514   -0.00083   -0.01199   -0.00068
C3    1    0.277102    0.795622    0.311084    11.00000    0.03394    0.06120 =
         0.04331    0.01418   -0.02182   -0.01574
AFIX  43
H3A   2    0.195616    0.800225    0.317848    11.00000   -1.20000
AFIX   0
C4    1    0.329398    0.736944    0.371182    11.00000    0.04529    0.06871 =
         0.03655    0.01869   -0.01989   -0.01957
AFIX  43
H4    2    0.282007    0.704389    0.418559    11.00000   -1.20000
AFIX   0
C5    1    0.450464    0.727548    0.360107    11.00000    0.03322    0.03814 =
         0.02516   -0.00138   -0.01301    0.00459
C6    1    0.517927    0.778388    0.291046    11.00000    0.03183    0.07527 =
         0.03947    0.01680   -0.01455   -0.00266
AFIX  43
H6    2    0.599915    0.772574    0.283237    11.00000   -1.20000
AFIX   0
C7    1    0.465909    0.838369    0.232612    11.00000    0.03289    0.07422 =
         0.03499    0.02115   -0.00635   -0.00077
AFIX  43
H7    2    0.512843    0.873218    0.186808    11.00000   -1.20000
AFIX   0
C8    1    1.140811    0.202111    0.145840    11.00000    0.04198    0.04630 =
         0.05438   -0.03142   -0.01728    0.00505
C9    1    1.059570    0.257494    0.210240    11.00000    0.04052    0.03407 =
         0.04961   -0.02507   -0.01561   -0.00108
C10   1    0.948154    0.237549    0.259037    11.00000    0.03913    0.05176 =
         0.05960   -0.03378   -0.00092   -0.01132
AFIX  43
H10   2    0.920504    0.189756    0.251664    11.00000   -1.20000
AFIX   0
C11   1    0.877867    0.286724    0.317904    11.00000    0.03748    0.05299 =
         0.06499   -0.03054   -0.00238   -0.01109
AFIX  43
H11   2    0.802686    0.272420    0.349438    11.00000   -1.20000
AFIX   0
C12   1    0.916334    0.357043    0.331368    11.00000    0.03898    0.03927 =
         0.03407   -0.01708   -0.00796    0.00375
C13   1    1.027369    0.377082    0.283567    11.00000    0.05370    0.05434 =
         0.06091   -0.02918    0.00132   -0.01747
AFIX  43
H13   2    1.055199    0.424081    0.292135    11.00000   -1.20000
AFIX   0
C14   1    1.099557    0.327850    0.222012    11.00000    0.04545    0.06620 =
         0.05339   -0.03722    0.00095   -0.00946
AFIX  43
H14   2    1.174000    0.342820    0.189423    11.00000   -1.20000
AFIX   0
C15   1    1.153937    0.194200    0.886781    11.00000    0.03159    0.03996 =
         0.03996   -0.00154   -0.01921   -0.00034
C16   1    1.076986    0.250195    0.831207    11.00000    0.03417    0.03301 =
         0.03647    0.00104   -0.02024    0.00023
C17   1    1.122707    0.316873    0.764726    11.00000    0.03299    0.03915 =
         0.05240    0.01289   -0.02055   -0.00597
AFIX  43
H17   2    1.199914    0.327465    0.755139    11.00000   -1.20000
AFIX   0
C18   1    1.054779    0.367613    0.712705    11.00000    0.04822    0.03765 =
         0.03880    0.01018   -0.01727   -0.00291
AFIX  43
H18   2    1.087673    0.410583    0.667269    11.00000   -1.20000
AFIX   0
C19   1    0.938279    0.355248    0.727414    11.00000    0.03211    0.02462 =
         0.03688   -0.00440   -0.01713    0.00665
C20   1    0.891586    0.289363    0.794791    11.00000    0.03334    0.03690 =
         0.04523    0.00684   -0.02098   -0.00791
AFIX  43
H20   2    0.813399    0.280219    0.805470    11.00000   -1.20000
AFIX   0
C21   1    0.960286    0.237575    0.845799    11.00000    0.03863    0.03398 =
         0.04169    0.00605   -0.02215   -0.00598
AFIX  43
H21   2    0.928047    0.193652    0.890527    11.00000   -1.20000
AFIX   0
C22   1    0.316093    0.905162    0.935949    11.00000    0.03049    0.04284 =
         0.03173   -0.01665   -0.01704    0.00609
C23   1    0.370926    0.843966    0.873141    11.00000    0.03046    0.04287 =
         0.03481   -0.02082   -0.01715    0.00509
C24   1    0.301726    0.800407    0.851345    11.00000    0.03107    0.06450 =
         0.05855   -0.03754   -0.01695    0.00389
AFIX  43
H24   2    0.219059    0.808674    0.875809    11.00000   -1.20000
AFIX   0
C25   1    0.352697    0.744510    0.793720    11.00000    0.03669    0.06287 =
         0.04830   -0.03472   -0.01167   -0.00050
AFIX  43
H25   2    0.303874    0.716548    0.779380    11.00000   -1.20000
AFIX   0
C26   1    0.475718    0.729864    0.757245    11.00000    0.03502    0.04260 =
         0.03569   -0.01931   -0.01605    0.00807
C27   1    0.545287    0.774354    0.779487    11.00000    0.02379    0.06916 =
         0.05008   -0.02935   -0.00294    0.00205
AFIX  43
H27   2    0.628096    0.765417    0.755672    11.00000   -1.20000
AFIX   0
C28   1    0.495072    0.830752    0.835350    11.00000    0.02772    0.06422 =
         0.05372   -0.03727   -0.00769    0.00016
AFIX  43
H28   2    0.543517    0.860412    0.848275    11.00000   -1.20000
AFIX   0
C29   1    0.511637    0.665054    0.421960    11.00000    0.03254    0.03500 =
         0.02490   -0.00271   -0.01196    0.00385
C30   1    0.494925    0.693587    0.494750    11.00000    0.03267    0.04031 =
         0.02366   -0.00635   -0.01002    0.00629
C31   1    0.421896    0.775437    0.518165    11.00000    0.04715    0.03578 =
         0.04216   -0.00462   -0.01972    0.01383
AFIX  43
H31   2    0.378118    0.820090    0.486808    11.00000   -1.20000
AFIX   0
C32   1    0.427484    0.776790    0.594752    11.00000    0.05148    0.04213 =
         0.03445   -0.01325   -0.01560    0.01234
AFIX  43
H32   2    0.388157    0.822343    0.625120    11.00000   -1.20000
AFIX   0
C33   1    0.504898    0.695329    0.619806    11.00000    0.03460    0.03866 =
         0.02891   -0.01046   -0.01282    0.00647
C34   1    0.533703    0.669487    0.695036    11.00000    0.03284    0.03965 =
         0.03845   -0.01736   -0.01540    0.00403
C35   1    0.616640    0.593204    0.715215    11.00000    0.03932    0.04104 =
         0.03068   -0.01482   -0.01477    0.01093
C36   1    0.641070    0.563667    0.794446    11.00000    0.04690    0.04797 =
         0.02989   -0.01704   -0.01478    0.00455
AFIX  43
H36   2    0.600936    0.588714    0.841412    11.00000   -1.20000
AFIX   0
C37   1    0.733141    0.492808    0.787809    11.00000    0.04986    0.04544 =
         0.02428   -0.00384   -0.01818    0.00361
AFIX  43
H37   2    0.769004    0.460709    0.829225    11.00000   -1.20000
AFIX   0
C38   1    0.765642    0.475952    0.705646    11.00000    0.03641    0.03094 =
         0.02894   -0.00684   -0.01748    0.00324
C39   1    0.862936    0.413191    0.671482    11.00000    0.03580    0.02581 =
         0.03265   -0.00523   -0.01716    0.00149
C40   1    0.897279    0.398297    0.590923    11.00000    0.03735    0.03237 =
         0.04157   -0.00837   -0.01944    0.00883
C41   1    0.995152    0.332223    0.557407    11.00000    0.05090    0.06781 =
         0.04662   -0.02581   -0.02431    0.02917
AFIX  43
H41   2    1.052107    0.296262    0.583274    11.00000   -1.20000
AFIX   0
C42   1    0.990107    0.331296    0.480151    11.00000    0.05325    0.05391 =
         0.05562   -0.03054   -0.02501    0.02960
AFIX  43
H42   2    1.042942    0.294830    0.443883    11.00000   -1.20000
AFIX   0
C43   1    0.888195    0.397029    0.465833    11.00000    0.03553    0.03303 =
         0.02962   -0.00927   -0.00786    0.00273
C44   1    0.843015    0.410211    0.397756    11.00000    0.03587    0.02871 =
         0.03316   -0.01062   -0.01014   -0.00117
C45   1    0.739275    0.470396    0.386876    11.00000    0.04077    0.03312 =
         0.02359   -0.00488   -0.01099   -0.00259
C46   1    0.692868    0.483574    0.316824    11.00000    0.05074    0.04680 =
         0.03131   -0.01694   -0.01658    0.00448
AFIX  43
H46   2    0.720587    0.449295    0.275475    11.00000   -1.20000
AFIX   0
C47   1    0.601514    0.555305    0.323177    11.00000    0.05918    0.04808 =
         0.02800   -0.00905   -0.02603    0.00629
AFIX  43
H47   2    0.555176    0.580101    0.286548    11.00000   -1.20000
AFIX   0
C48   1    0.589247    0.586442    0.397978    11.00000    0.03625    0.03633 =
         0.02385   -0.00444   -0.01004   -0.00099
H10A  2    0.312005    1.154740    0.034301    11.00000    0.15771
H10B  2    0.316328    1.151210   -0.046967    11.00000    0.26149
HKLF 4




REM  20190416-55_a.res in P-1
REM wR2 = 0.2478, GooF = S = 1.031, Restrained GooF = 1.030 for all data
REM R1 = 0.0893 for 7123 Fo > 4sig(Fo) and 0.1423 for all 12349 data
REM 582 parameters refined using 4 restraints

END

WGHT      0.1046      1.8485

REM Highest difference peak  1.232,  deepest hole -0.504,  1-sigma level  0.073
Q1    1   0.5210  0.5871  0.2480  11.00000  0.05    1.23
Q2    1   0.3625  0.8840  0.6283  11.00000  0.05    0.83
Q3    1   0.3456  0.8817  0.4649  11.00000  0.05    0.75
Q4    1   0.7506  0.4446  0.2198  11.00000  0.05    0.74
Q5    1   1.1192  0.2619  0.4132  11.00000  0.05    0.72
;
_shelx_res_checksum              9803
_shelx_fab_file
;
    2    0    0     -5.46      0.00
    3    0    0     -1.49      0.00
    4    0    0     12.18      0.00
    5    0    0      2.92      0.00
    6    0    0     -3.57      0.00
    7    0    0     -1.97      0.00
    8    0    0     -0.35      0.00
    9    0    0      0.19      0.00
   10    0    0      0.48      0.00
   11    0    0      2.66      0.00
   12    0    0     -0.18      0.00
   13    0    0     -0.01      0.00
   14    0    0     -1.12      0.00
  -14    1    0     -3.61      0.00
  -13    1    0      0.44      0.00
  -12    1    0      0.79      0.00
  -11    1    0      0.49      0.00
  -10    1    0      1.03      0.00
   -9    1    0      0.32      0.00
   -8    1    0     -1.18      0.00
   -7    1    0      0.40      0.00
   -6    1    0     -2.62      0.00
   -5    1    0     -1.53      0.00
   -4    1    0     10.64      0.00
   -3    1    0    -13.37      0.00
   -2    1    0    -36.79      0.00
    2    1    0    -28.29      0.00
    3    1    0     17.46      0.00
    4    1    0     14.78      0.00
    5    1    0     -1.72      0.00
    6    1    0     -4.60      0.00
    7    1    0      3.32      0.00
    8    1    0      1.33      0.00
    9    1    0      1.56      0.00
   10    1    0      1.08      0.00
   11    1    0     -0.42      0.00
   12    1    0      0.43      0.00
   13    1    0     -0.37      0.00
   14    1    0     -2.06      0.00
  -14    2    0      1.39      0.00
  -13    2    0      1.12      0.00
  -12    2    0      1.20      0.00
  -11    2    0     -0.53      0.00
  -10    2    0      1.47      0.00
   -9    2    0     -0.82      0.00
   -8    2    0     -1.78      0.00
   -7    2    0      2.12      0.00
   -6    2    0     -3.06      0.00
   -5    2    0      9.50      0.00
   -4    2    0      3.23      0.00
   -3    2    0     -5.09      0.00
   -2    2    0     -2.76      0.00
   -1    2    0     56.78      0.00
    2    2    0    -21.43      0.00
    3    2    0     15.75      0.00
    4    2    0     -4.04      0.00
    5    2    0     -5.37      0.00
    6    2    0     -5.91      0.00
    7    2    0      1.99      0.00
    8    2    0      0.90      0.00
    9    2    0      2.04      0.00
   10    2    0      0.61      0.00
   11    2    0      0.11      0.00
   12    2    0      1.43      0.00
   13    2    0      0.27      0.00
   14    2    0     -0.15      0.00
  -14    3    0     -2.27      0.00
  -13    3    0     -0.20      0.00
  -12    3    0      0.03      0.00
  -11    3    0      0.88      0.00
  -10    3    0     -0.61      0.00
   -9    3    0     -0.46      0.00
   -8    3    0     -0.14      0.00
   -7    3    0     -1.20      0.00
   -6    3    0     -0.55      0.00
   -5    3    0     -0.78      0.00
   -4    3    0      2.53      0.00
   -3    3    0     -3.33      0.00
   -2    3    0      2.86      0.00
   -1    3    0     23.97      0.00
    0    3    0     46.05      0.00
    1    3    0    -49.79      0.00
    2    3    0     25.29      0.00
    3    3    0     -4.90      0.00
    4    3    0      0.05      0.00
    5    3    0     -9.82      0.00
    6    3    0      1.09      0.00
    7    3    0      1.48      0.00
    8    3    0      0.37      0.00
    9    3    0      0.58      0.00
   10    3    0     -0.82      0.00
   11    3    0     -1.41      0.00
   12    3    0     -0.62      0.00
   13    3    0      0.59      0.00
  -13    4    0      2.21      0.00
  -12    4    0      0.47      0.00
  -11    4    0     -0.45      0.00
  -10    4    0     -0.86      0.00
   -9    4    0     -1.48      0.00
   -8    4    0     -2.87      0.00
   -7    4    0      0.09      0.00
   -6    4    0     -3.01      0.00
   -5    4    0      2.48      0.00
   -4    4    0      1.13      0.00
   -3    4    0    -12.61      0.00
   -2    4    0     -1.10      0.00
   -1    4    0     18.87      0.00
    0    4    0      4.83      0.00
    1    4    0     -1.59      0.00
    2    4    0     -5.15      0.00
    3    4    0      7.81      0.00
    4    4    0     -6.17      0.00
    5    4    0     -0.96      0.00
    6    4    0     -4.22      0.00
    7    4    0     -0.13      0.00
    8    4    0      1.02      0.00
    9    4    0      0.60      0.00
   10    4    0     -2.06      0.00
   11    4    0     -0.96      0.00
   12    4    0      0.83      0.00
   13    4    0      1.22      0.00
  -13    5    0      0.64      0.00
  -12    5    0      1.10      0.00
  -11    5    0     -0.81      0.00
  -10    5    0     -0.05      0.00
   -9    5    0     -0.67      0.00
   -8    5    0      0.69      0.00
   -7    5    0      0.44      0.00
   -6    5    0     -2.66      0.00
   -5    5    0      1.21      0.00
   -4    5    0     -4.01      0.00
   -3    5    0     -4.53      0.00
   -2    5    0     -2.70      0.00
   -1    5    0     10.20      0.00
    0    5    0      6.01      0.00
    1    5    0    -15.41      0.00
    2    5    0      2.01      0.00
    3    5    0      0.41      0.00
    4    5    0     -2.80      0.00
    5    5    0     -0.02      0.00
    6    5    0     -2.19      0.00
    7    5    0      2.51      0.00
    8    5    0     -2.28      0.00
    9    5    0     -1.95      0.00
   10    5    0     -1.43      0.00
   11    5    0      1.42      0.00
   12    5    0      0.22      0.00
   13    5    0     -2.02      0.00
  -12    6    0      1.76      0.00
  -11    6    0     -0.30      0.00
  -10    6    0     -1.43      0.00
   -9    6    0     -1.41      0.00
   -8    6    0     -1.08      0.00
   -7    6    0     -0.62      0.00
   -6    6    0     -1.71      0.00
   -5    6    0      1.30      0.00
   -4    6    0      0.01      0.00
   -3    6    0     -3.97      0.00
   -2    6    0      0.54      0.00
   -1    6    0      4.45      0.00
    0    6    0     -0.43      0.00
    1    6    0     -9.40      0.00
    2    6    0      8.54      0.00
    3    6    0     -7.18      0.00
    4    6    0     -0.89      0.00
    5    6    0     -6.87      0.00
    6    6    0      0.11      0.00
    7    6    0     -0.85      0.00
    8    6    0     -0.36      0.00
    9    6    0     -2.16      0.00
   10    6    0      0.59      0.00
   11    6    0     -0.91      0.00
   12    6    0     -0.77      0.00
   13    6    0     -0.57      0.00
  -12    7    0      0.87      0.00
  -11    7    0      0.66      0.00
  -10    7    0     -0.70      0.00
   -9    7    0     -2.21      0.00
   -8    7    0     -0.67      0.00
   -7    7    0      0.34      0.00
   -6    7    0      0.20      0.00
   -5    7    0      0.50      0.00
   -4    7    0     -2.08      0.00
   -3    7    0     -6.73      0.00
   -2    7    0     -0.79      0.00
   -1    7    0      0.95      0.00
    0    7    0     -2.67      0.00
    1    7    0     -3.09      0.00
    2    7    0     -1.48      0.00
    3    7    0     -0.24      0.00
    4    7    0     -0.42      0.00
    5    7    0     -1.35      0.00
    6    7    0     -1.93      0.00
    7    7    0     -0.01      0.00
    8    7    0     -3.52      0.00
    9    7    0     -1.50      0.00
   10    7    0     -1.88      0.00
   11    7    0      1.33      0.00
   12    7    0     -1.54      0.00
   13    7    0      0.57      0.00
  -12    8    0     -0.91      0.00
  -11    8    0     -0.82      0.00
  -10    8    0     -1.17      0.00
   -9    8    0     -0.72      0.00
   -8    8    0      0.15      0.00
   -7    8    0      1.15      0.00
   -6    8    0      0.22      0.00
   -5    8    0     -1.66      0.00
   -4    8    0     -2.05      0.00
   -3    8    0     -1.40      0.00
   -2    8    0     -1.44      0.00
   -1    8    0     -0.24      0.00
    0    8    0     -0.16      0.00
    1    8    0     -2.95      0.00
    2    8    0      6.23      0.00
    3    8    0     -0.33      0.00
    4    8    0     -6.29      0.00
    5    8    0     -2.95      0.00
    6    8    0      1.14      0.00
    7    8    0     -0.56      0.00
    8    8    0     -3.15      0.00
    9    8    0     -1.12      0.00
   10    8    0     -0.56      0.00
   11    8    0     -1.40      0.00
   12    8    0     -1.54      0.00
   13    8    0      1.02      0.00
  -12    9    0     -0.50      0.00
  -11    9    0     -0.44      0.00
  -10    9    0      0.31      0.00
   -9    9    0     -0.72      0.00
   -8    9    0     -0.03      0.00
   -7    9    0      0.23      0.00
   -6    9    0     -0.72      0.00
   -5    9    0     -2.05      0.00
   -4    9    0     -2.05      0.00
   -3    9    0      0.12      0.00
   -2    9    0     -0.83      0.00
   -1    9    0      2.93      0.00
    0    9    0     -2.24      0.00
    1    9    0      1.26      0.00
    2    9    0      3.09      0.00
    3    9    0     -5.18      0.00
    4    9    0     -0.16      0.00
    5    9    0     -1.06      0.00
    6    9    0      0.47      0.00
    7    9    0     -1.46      0.00
    8    9    0     -1.31      0.00
    9    9    0     -0.20      0.00
   10    9    0      0.39      0.00
   11    9    0     -0.24      0.00
   12    9    0     -0.78      0.00
   13    9    0      0.36      0.00
  -10   10    0     -2.01      0.00
   -9   10    0     -1.81      0.00
   -8   10    0     -0.29      0.00
   -7   10    0     -1.40      0.00
   -6   10    0     -0.59      0.00
   -5   10    0     -1.08      0.00
   -4   10    0     -1.08      0.00
   -3   10    0      0.92      0.00
   -2   10    0      2.91      0.00
   -1   10    0     -3.15      0.00
    0   10    0      3.01      0.00
    1   10    0      0.10      0.00
    2   10    0      4.01      0.00
    3   10    0     -0.21      0.00
    4   10    0     -2.54      0.00
    5   10    0      0.02      0.00
    6   10    0      1.00      0.00
    7   10    0     -1.23      0.00
    8   10    0     -2.75      0.00
    9   10    0      0.32      0.00
   10   10    0     -1.13      0.00
   11   10    0      1.05      0.00
   12   10    0     -0.20      0.00
   13   10    0     -0.03      0.00
   -9   11    0      1.06      0.00
   -8   11    0     -1.21      0.00
   -7   11    0     -1.05      0.00
   -6   11    0      0.14      0.00
   -5   11    0     -0.84      0.00
   -4   11    0     -0.85      0.00
   -3   11    0      1.02      0.00
   -2   11    0      0.64      0.00
   -1   11    0      1.09      0.00
    0   11    0      1.83      0.00
    1   11    0      1.53      0.00
    2   11    0      1.63      0.00
    3   11    0     -1.61      0.00
    4   11    0     -1.34      0.00
    5   11    0      0.75      0.00
    6   11    0     -0.11      0.00
    7   11    0     -0.34      0.00
    8   11    0     -0.29      0.00
    9   11    0      0.61      0.00
   10   11    0     -0.29      0.00
   11   11    0      2.81      0.00
   12   11    0      2.47      0.00
   13   11    0      2.97      0.00
   -9   12    0     -3.03      0.00
   -8   12    0      0.64      0.00
   -7   12    0      0.38      0.00
   -6   12    0     -1.44      0.00
   -5   12    0      0.44      0.00
   -4   12    0     -2.14      0.00
   -3   12    0      0.25      0.00
   -2   12    0      1.06      0.00
   -1   12    0      0.40      0.00
    0   12    0      2.59      0.00
    1   12    0      0.62      0.00
    2   12    0     -0.92      0.00
    3   12    0     -0.74      0.00
    4   12    0     -0.59      0.00
    5   12    0     -0.33      0.00
    6   12    0     -1.32      0.00
    7   12    0     -2.93      0.00
    8   12    0     -0.38      0.00
    9   12    0      0.47      0.00
   10   12    0     -0.66      0.00
   11   12    0      2.29      0.00
   12   12    0     -2.76      0.00
   13   12    0     -0.20      0.00
   -8   13    0      1.93      0.00
   -7   13    0      1.44      0.00
   -6   13    0      1.19      0.00
   -5   13    0      0.23      0.00
   -4   13    0     -0.97      0.00
   -3   13    0      1.44      0.00
   -2   13    0      0.71      0.00
   -1   13    0      1.31      0.00
    0   13    0      3.60      0.00
    1   13    0     -0.10      0.00
    2   13    0     -0.71      0.00
    3   13    0      0.02      0.00
    4   13    0      1.73      0.00
    5   13    0     -1.70      0.00
    6   13    0     -1.27      0.00
    7   13    0      1.41      0.00
    8   13    0     -0.61      0.00
    9   13    0     -0.57      0.00
   10   13    0     -2.60      0.00
   11   13    0      1.51      0.00
   -7   14    0      1.67      0.00
   -6   14    0      1.27      0.00
   -5   14    0     -2.12      0.00
   -4   14    0     -2.35      0.00
   -3   14    0      0.31      0.00
   -2   14    0      0.12      0.00
   -1   14    0     -0.19      0.00
    0   14    0      0.15      0.00
    1   14    0     -0.04      0.00
    2   14    0      1.59      0.00
    3   14    0      2.42      0.00
    4   14    0     -2.11      0.00
    5   14    0      0.80      0.00
    6   14    0     -0.14      0.00
    7   14    0      4.09      0.00
    8   14    0      2.03      0.00
    9   14    0      1.98      0.00
   10   14    0     -3.50      0.00
   -7   15    0      0.07      0.00
   -6   15    0      1.41      0.00
   -5   15    0     -0.67      0.00
   -4   15    0      2.37      0.00
   -3   15    0     -1.01      0.00
   -2   15    0      1.35      0.00
   -1   15    0      0.71      0.00
    0   15    0     -0.27      0.00
    1   15    0     -0.16      0.00
    2   15    0     -0.63      0.00
    3   15    0     -1.63      0.00
    4   15    0     -0.42      0.00
    5   15    0      1.47      0.00
    6   15    0      1.60      0.00
    7   15    0      5.27      0.00
    8   15    0      2.19      0.00
    9   15    0     -1.84      0.00
   -6   16    0      0.05      0.00
   -5   16    0     -1.09      0.00
   -4   16    0     -0.81      0.00
   -3   16    0      1.61      0.00
   -2   16    0      1.46      0.00
   -1   16    0      1.65      0.00
    0   16    0      0.35      0.00
    1   16    0      1.16      0.00
    2   16    0     -1.65      0.00
    3   16    0     -0.45      0.00
    4   16    0     -0.38      0.00
    5   16    0     -0.77      0.00
    6   16    0     -1.05      0.00
    7   16    0      2.95      0.00
    8   16    0      0.45      0.00
   -2   17    0     -3.65      0.00
   -1   17    0      1.50      0.00
    0   17    0     -1.21      0.00
    1   17    0      0.75      0.00
    2   17    0      1.83      0.00
    3   17    0     -1.12      0.00
    4   17    0     -1.66      0.00
    5   17    0     -2.26      0.00
    6   17    0      0.33      0.00
    1   18    0      0.21      0.00
    2   18    0      2.15      0.00
    3   18    0     -1.72      0.00
   -2  -18    1     -0.22      0.00
   -6  -17    1      2.38      0.00
   -5  -17    1      1.38      0.00
   -4  -17    1     -1.64      0.00
   -3  -17    1     -0.22      0.00
   -2  -17    1      2.00      0.00
   -1  -17    1      1.98      0.00
    0  -17    1      2.00      0.00
    1  -17    1     -0.37      0.00
    2  -17    1     -0.15      0.00
   -7  -16    1     -5.94      0.00
   -6  -16    1      1.60      0.00
   -5  -16    1      1.02      0.00
   -4  -16    1      1.01      0.00
   -3  -16    1      0.95      0.00
   -2  -16    1     -0.96      0.00
   -1  -16    1      1.31      0.00
    0  -16    1     -2.34      0.00
    1  -16    1      1.64      0.00
    2  -16    1      0.00      0.00
    3  -16    1      1.05      0.00
    4  -16    1     -4.91      0.00
    5  -16    1      0.48      0.00
    6  -16    1     -0.04      0.00
   -8  -15    1     -2.49      0.00
   -7  -15    1     -1.09      0.00
   -6  -15    1      1.81      0.00
   -5  -15    1      0.17      0.00
   -4  -15    1      1.18      0.00
   -3  -15    1     -0.72      0.00
   -2  -15    1     -1.04      0.00
   -1  -15    1      0.97      0.00
    0  -15    1     -0.31      0.00
    1  -15    1      2.27      0.00
    2  -15    1      1.39      0.00
    3  -15    1     -3.80      0.00
    4  -15    1      1.40      0.00
    5  -15    1      1.61      0.00
    6  -15    1     -0.26      0.00
    7  -15    1     -0.91      0.00
   -9  -14    1     -0.58      0.00
   -8  -14    1     -3.70      0.00
   -7  -14    1     -1.23      0.00
   -6  -14    1     -0.50      0.00
   -5  -14    1      2.06      0.00
   -4  -14    1     -2.29      0.00
   -3  -14    1     -0.34      0.00
   -2  -14    1      0.56      0.00
   -1  -14    1      1.13      0.00
    0  -14    1     -0.08      0.00
    1  -14    1      0.20      0.00
    2  -14    1     -2.54      0.00
    3  -14    1     -0.60      0.00
    4  -14    1     -0.19      0.00
    5  -14    1      0.32      0.00
    6  -14    1     -0.96      0.00
    7  -14    1      0.15      0.00
  -10  -13    1     -0.01      0.00
   -9  -13    1     -0.96      0.00
   -8  -13    1     -3.40      0.00
   -7  -13    1      1.21      0.00
   -6  -13    1      0.02      0.00
   -5  -13    1     -1.15      0.00
   -4  -13    1      0.70      0.00
   -3  -13    1     -1.99      0.00
   -2  -13    1      0.63      0.00
   -1  -13    1      1.72      0.00
    0  -13    1     -0.17      0.00
    1  -13    1      1.52      0.00
    2  -13    1     -0.03      0.00
    3  -13    1      1.00      0.00
    4  -13    1      0.89      0.00
    5  -13    1      0.47      0.00
    6  -13    1     -0.05      0.00
    7  -13    1     -0.28      0.00
    8  -13    1     -1.35      0.00
  -13  -12    1     -2.46      0.00
  -12  -12    1     -4.92      0.00
  -11  -12    1     -2.85      0.00
  -10  -12    1     -1.07      0.00
   -9  -12    1      0.34      0.00
   -8  -12    1      2.31      0.00
   -7  -12    1      0.15      0.00
   -6  -12    1      0.86      0.00
   -5  -12    1     -0.80      0.00
   -4  -12    1     -0.82      0.00
   -3  -12    1     -1.70      0.00
   -2  -12    1      1.76      0.00
   -1  -12    1      1.66      0.00
    0  -12    1     -2.84      0.00
    1  -12    1      0.34      0.00
    2  -12    1      0.99      0.00
    3  -12    1      0.11      0.00
    4  -12    1      1.40      0.00
    5  -12    1      0.54      0.00
    6  -12    1     -1.49      0.00
    7  -12    1      1.26      0.00
    8  -12    1      0.02      0.00
    9  -12    1     -1.07      0.00
  -13  -11    1      0.26      0.00
  -12  -11    1      1.21      0.00
  -11  -11    1     -1.66      0.00
  -10  -11    1     -0.18      0.00
   -9  -11    1      1.30      0.00
   -8  -11    1      4.56      0.00
   -7  -11    1      2.47      0.00
   -6  -11    1      0.03      0.00
   -5  -11    1      0.59      0.00
   -4  -11    1     -0.19      0.00
   -3  -11    1      1.19      0.00
   -2  -11    1      1.34      0.00
   -1  -11    1      0.43      0.00
    0  -11    1     -3.88      0.00
    1  -11    1      1.90      0.00
    2  -11    1     -2.01      0.00
    3  -11    1     -1.49      0.00
    4  -11    1     -0.30      0.00
    5  -11    1     -1.59      0.00
    6  -11    1      0.61      0.00
    7  -11    1      1.53      0.00
    8  -11    1      0.01      0.00
    9  -11    1      3.47      0.00
  -13  -10    1     -0.13      0.00
  -12  -10    1      0.88      0.00
  -11  -10    1     -1.48      0.00
  -10  -10    1     -1.27      0.00
   -9  -10    1      1.89      0.00
   -8  -10    1      0.59      0.00
   -7  -10    1      0.76      0.00
   -6  -10    1      0.14      0.00
   -5  -10    1      0.22      0.00
   -4  -10    1      0.03      0.00
   -3  -10    1      3.14      0.00
   -2  -10    1      1.71      0.00
   -1  -10    1      0.42      0.00
    0  -10    1      0.44      0.00
    1  -10    1     -0.47      0.00
    2  -10    1      1.31      0.00
    3  -10    1     -1.63      0.00
    4  -10    1     -0.79      0.00
    5  -10    1     -1.16      0.00
    6  -10    1      1.27      0.00
    7  -10    1      0.69      0.00
    8  -10    1      1.29      0.00
    9  -10    1     -1.23      0.00
   10  -10    1      0.45      0.00
  -13   -9    1     -0.33      0.00
  -12   -9    1      0.30      0.00
  -11   -9    1      1.09      0.00
  -10   -9    1      1.63      0.00
   -9   -9    1      1.96      0.00
   -8   -9    1      2.83      0.00
   -7   -9    1      0.29      0.00
   -6   -9    1     -2.07      0.00
   -5   -9    1      0.08      0.00
   -4   -9    1      4.49      0.00
   -3   -9    1      1.18      0.00
   -2   -9    1      0.05      0.00
   -1   -9    1      2.54      0.00
    0   -9    1     -1.74      0.00
    1   -9    1      4.01      0.00
    2   -9    1     -0.35      0.00
    3   -9    1     -2.35      0.00
    4   -9    1      0.14      0.00
    5   -9    1     -0.06      0.00
    6   -9    1      0.33      0.00
    7   -9    1     -0.82      0.00
    8   -9    1     -0.13      0.00
    9   -9    1     -0.29      0.00
   10   -9    1      0.98      0.00
   11   -9    1      1.78      0.00
   12   -9    1      0.45      0.00
  -13   -8    1     -0.90      0.00
  -12   -8    1      2.43      0.00
  -11   -8    1      0.65      0.00
  -10   -8    1      0.63      0.00
   -9   -8    1      1.19      0.00
   -8   -8    1      1.69      0.00
   -7   -8    1      0.19      0.00
   -6   -8    1     -1.27      0.00
   -5   -8    1      0.90      0.00
   -4   -8    1     -1.20      0.00
   -3   -8    1      2.64      0.00
   -2   -8    1      4.21      0.00
   -1   -8    1      1.90      0.00
    0   -8    1      2.57      0.00
    1   -8    1      3.01      0.00
    2   -8    1     -0.50      0.00
    3   -8    1     -0.04      0.00
    4   -8    1      0.42      0.00
    5   -8    1     -0.72      0.00
    6   -8    1     -0.54      0.00
    7   -8    1     -1.42      0.00
    8   -8    1     -0.58      0.00
    9   -8    1      0.71      0.00
   10   -8    1      0.09      0.00
   11   -8    1      0.70      0.00
   12   -8    1      0.48      0.00
  -13   -7    1     -1.20      0.00
  -12   -7    1      2.83      0.00
  -11   -7    1      2.00      0.00
  -10   -7    1     -1.38      0.00
   -9   -7    1      3.63      0.00
   -8   -7    1     -0.05      0.00
   -7   -7    1     -1.84      0.00
   -6   -7    1     -1.83      0.00
   -5   -7    1      4.58      0.00
   -4   -7    1      2.50      0.00
   -3   -7    1      9.23      0.00
   -2   -7    1     -3.57      0.00
   -1   -7    1      0.79      0.00
    0   -7    1     -1.11      0.00
    1   -7    1      0.04      0.00
    2   -7    1      0.30      0.00
    3   -7    1     -3.88      0.00
    4   -7    1     -2.54      0.00
    5   -7    1     -2.37      0.00
    6   -7    1      0.47      0.00
    7   -7    1     -1.70      0.00
    8   -7    1      1.17      0.00
    9   -7    1      1.13      0.00
   10   -7    1      0.92      0.00
   11   -7    1     -0.34      0.00
   12   -7    1     -0.78      0.00
  -13   -6    1      0.26      0.00
  -12   -6    1      3.22      0.00
  -11   -6    1     -0.86      0.00
  -10   -6    1      0.91      0.00
   -9   -6    1      2.55      0.00
   -8   -6    1      2.14      0.00
   -7   -6    1     -2.97      0.00
   -6   -6    1      2.70      0.00
   -5   -6    1     -0.95      0.00
   -4   -6    1      1.21      0.00
   -3   -6    1      0.08      0.00
   -2   -6    1      4.87      0.00
   -1   -6    1      2.61      0.00
    0   -6    1     -0.62      0.00
    1   -6    1     -3.15      0.00
    2   -6    1     -0.75      0.00
    3   -6    1     -3.15      0.00
    4   -6    1     -1.68      0.00
    5   -6    1     -1.41      0.00
    6   -6    1      0.82      0.00
    7   -6    1     -0.89      0.00
    8   -6    1     -0.63      0.00
    9   -6    1      1.24      0.00
   10   -6    1     -0.07      0.00
   11   -6    1      0.50      0.00
   12   -6    1     -0.18      0.00
  -13   -5    1      0.42      0.00
  -12   -5    1      0.66      0.00
  -11   -5    1      0.38      0.00
  -10   -5    1     -0.28      0.00
   -9   -5    1     -0.14      0.00
   -8   -5    1     -2.20      0.00
   -7   -5    1     -0.16      0.00
   -6   -5    1      2.98      0.00
   -5   -5    1      0.61      0.00
   -4   -5    1      4.69      0.00
   -3   -5    1      4.81      0.00
   -2   -5    1      5.30      0.00
   -1   -5    1     -5.12      0.00
    0   -5    1     -4.87      0.00
    1   -5    1     -9.95      0.00
    2   -5    1     -8.55      0.00
    3   -5    1      0.89      0.00
    4   -5    1     -4.89      0.00
    5   -5    1     -2.25      0.00
    6   -5    1      2.29      0.00
    7   -5    1     -0.08      0.00
    8   -5    1      2.36      0.00
    9   -5    1      2.41      0.00
   10   -5    1      0.93      0.00
   11   -5    1     -0.58      0.00
   12   -5    1     -0.41      0.00
   13   -5    1     -1.41      0.00
  -13   -4    1      0.26      0.00
  -12   -4    1      1.40      0.00
  -11   -4    1     -0.30      0.00
  -10   -4    1     -0.37      0.00
   -9   -4    1      0.43      0.00
   -8   -4    1      0.42      0.00
   -7   -4    1     -1.43      0.00
   -6   -4    1     -2.03      0.00
   -5   -4    1      2.46      0.00
   -4   -4    1     -0.16      0.00
   -3   -4    1     12.76      0.00
   -2   -4    1    -12.09      0.00
   -1   -4    1     18.54      0.00
    0   -4    1    -20.62      0.00
    1   -4    1     -7.15      0.00
    2   -4    1     -4.89      0.00
    3   -4    1     -5.16      0.00
    4   -4    1     -3.27      0.00
    5   -4    1     -0.71      0.00
    6   -4    1      1.00      0.00
    7   -4    1     -0.42      0.00
    8   -4    1     -2.66      0.00
    9   -4    1     -1.16      0.00
   10   -4    1     -0.19      0.00
   11   -4    1     -0.85      0.00
   12   -4    1     -1.30      0.00
   13   -4    1      0.18      0.00
  -13   -3    1     -0.59      0.00
  -12   -3    1     -0.85      0.00
  -11   -3    1     -0.77      0.00
  -10   -3    1     -0.27      0.00
   -9   -3    1      0.18      0.00
   -8   -3    1     -0.77      0.00
   -7   -3    1     -2.02      0.00
   -6   -3    1      1.44      0.00
   -5   -3    1     -2.50      0.00
   -4   -3    1      7.08      0.00
   -3   -3    1    -11.29      0.00
   -2   -3    1     10.87      0.00
   -1   -3    1    -17.80      0.00
    0   -3    1    -22.05      0.00
    1   -3    1    -23.20      0.00
    2   -3    1     -3.51      0.00
    3   -3    1     -3.52      0.00
    4   -3    1     -3.60      0.00
    5   -3    1     -2.86      0.00
    6   -3    1      4.36      0.00
    7   -3    1     -1.62      0.00
    8   -3    1      2.03      0.00
    9   -3    1      0.02      0.00
   10   -3    1     -2.20      0.00
   11   -3    1      0.26      0.00
   12   -3    1     -0.30      0.00
   13   -3    1      0.08      0.00
   14   -3    1     -1.24      0.00
  -13   -2    1      0.56      0.00
  -12   -2    1      0.84      0.00
  -11   -2    1     -0.02      0.00
  -10   -2    1      0.73      0.00
   -9   -2    1     -0.22      0.00
   -8   -2    1     -2.15      0.00
   -7   -2    1     -2.31      0.00
   -6   -2    1      1.61      0.00
   -5   -2    1      4.16      0.00
   -4   -2    1     -2.27      0.00
   -3   -2    1     -9.36      0.00
   -2   -2    1    -12.20      0.00
   -1   -2    1     -2.32      0.00
    0   -2    1    -21.02      0.00
    1   -2    1    -23.67      0.00
    2   -2    1     -1.89      0.00
    3   -2    1     -0.08      0.00
    4   -2    1     -9.43      0.00
    5   -2    1      5.71      0.00
    6   -2    1      1.49      0.00
    7   -2    1     -0.98      0.00
    8   -2    1      0.30      0.00
    9   -2    1     -1.17      0.00
   10   -2    1     -1.30      0.00
   11   -2    1     -2.15      0.00
   12   -2    1      0.04      0.00
   13   -2    1      0.68      0.00
   14   -2    1      2.55      0.00
  -13   -1    1      2.58      0.00
  -12   -1    1     -0.71      0.00
  -11   -1    1     -1.83      0.00
  -10   -1    1      0.06      0.00
   -9   -1    1     -1.60      0.00
   -8   -1    1     -1.24      0.00
   -7   -1    1      1.06      0.00
   -6   -1    1      2.30      0.00
   -5   -1    1      2.61      0.00
   -4   -1    1     -4.74      0.00
   -3   -1    1      0.04      0.00
   -2   -1    1      2.95      0.00
    2   -1    1    -15.27      0.00
    3   -1    1     -7.32      0.00
    4   -1    1     -7.06      0.00
    5   -1    1     -5.42      0.00
    6   -1    1      0.98      0.00
    7   -1    1     -1.16      0.00
    8   -1    1     -0.12      0.00
    9   -1    1      0.46      0.00
   10   -1    1     -1.62      0.00
   11   -1    1     -1.57      0.00
   12   -1    1      0.68      0.00
   13   -1    1     -0.18      0.00
   14   -1    1     -2.46      0.00
  -14    0    1      3.63      0.00
  -13    0    1      0.13      0.00
  -12    0    1     -2.24      0.00
  -11    0    1      1.04      0.00
  -10    0    1     -0.97      0.00
   -9    0    1     -0.07      0.00
   -8    0    1     -1.17      0.00
   -7    0    1     -0.69      0.00
   -6    0    1      1.24      0.00
   -5    0    1     -2.38      0.00
   -4    0    1     -9.66      0.00
   -3    0    1      0.91      0.00
   -2    0    1     39.70      0.00
    2    0    1     41.28      0.00
    3    0    1     -3.33      0.00
    4    0    1    -11.03      0.00
    5    0    1      2.24      0.00
    6    0    1      2.73      0.00
    7    0    1     -4.09      0.00
    8    0    1      0.90      0.00
    9    0    1     -2.29      0.00
   10    0    1     -1.92      0.00
   11    0    1     -0.22      0.00
   12    0    1     -0.67      0.00
   13    0    1      0.74      0.00
   14    0    1      0.18      0.00
  -14    1    1      0.53      0.00
  -13    1    1      0.73      0.00
  -12    1    1     -1.73      0.00
  -11    1    1      0.28      0.00
  -10    1    1      0.41      0.00
   -9    1    1      2.00      0.00
   -8    1    1      0.75      0.00
   -7    1    1     -0.71      0.00
   -6    1    1      0.32      0.00
   -5    1    1    -10.57      0.00
   -4    1    1     -2.58      0.00
   -3    1    1      9.95      0.00
   -2    1    1      4.74      0.00
    2    1    1      8.54      0.00
    3    1    1    -10.30      0.00
    4    1    1     -1.39      0.00
    5    1    1      4.80      0.00
    6    1    1      4.40      0.00
    7    1    1      0.74      0.00
    8    1    1     -0.33      0.00
    9    1    1     -1.69      0.00
   10    1    1     -0.90      0.00
   11    1    1     -0.45      0.00
   12    1    1      0.14      0.00
   13    1    1      0.53      0.00
   14    1    1     -1.28      0.00
   15    1    1     -0.61      0.00
  -14    2    1      3.49      0.00
  -13    2    1      0.29      0.00
  -12    2    1      1.31      0.00
  -11    2    1      0.04      0.00
  -10    2    1      1.69      0.00
   -9    2    1      0.46      0.00
   -8    2    1      1.10      0.00
   -7    2    1      1.41      0.00
   -6    2    1     -2.19      0.00
   -5    2    1      5.12      0.00
   -4    2    1      2.33      0.00
   -3    2    1     15.32      0.00
   -2    2    1      9.71      0.00
   -1    2    1    -19.50      0.00
    2    2    1    -24.05      0.00
    3    2    1     -2.02      0.00
    4    2    1    -10.06      0.00
    5    2    1      5.98      0.00
    6    2    1     -2.27      0.00
    7    2    1     -0.81      0.00
    8    2    1     -1.43      0.00
    9    2    1     -0.64      0.00
   10    2    1      0.41      0.00
   11    2    1      1.08      0.00
   12    2    1      2.22      0.00
   13    2    1     -0.60      0.00
   14    2    1      2.39      0.00
  -13    3    1     -1.92      0.00
  -12    3    1      0.54      0.00
  -11    3    1      1.19      0.00
  -10    3    1     -0.12      0.00
   -9    3    1      0.69      0.00
   -8    3    1      1.28      0.00
   -7    3    1     -1.60      0.00
   -6    3    1      1.58      0.00
   -5    3    1     -2.57      0.00
   -4    3    1      3.16      0.00
   -3    3    1     15.82      0.00
   -2    3    1     12.30      0.00
   -1    3    1     -7.44      0.00
    0    3    1     14.11      0.00
    2    3    1     15.38      0.00
    3    3    1    -13.35      0.00
    4    3    1      4.17      0.00
    5    3    1     -1.66      0.00
    6    3    1      3.81      0.00
    7    3    1     -0.15      0.00
    8    3    1     -0.73      0.00
    9    3    1     -1.32      0.00
   10    3    1      1.42      0.00
   11    3    1      1.29      0.00
   12    3    1     -0.38      0.00
   13    3    1     -1.73      0.00
   14    3    1     -1.42      0.00
  -13    4    1     -0.02      0.00
  -12    4    1      0.32      0.00
  -11    4    1      0.69      0.00
  -10    4    1      0.07      0.00
   -9    4    1      0.87      0.00
   -8    4    1     -0.73      0.00
   -7    4    1     -1.43      0.00
   -6    4    1      1.99      0.00
   -5    4    1      0.73      0.00
   -4    4    1      7.84      0.00
   -3    4    1      7.43      0.00
   -2    4    1      8.00      0.00
   -1    4    1     -2.15      0.00
    0    4    1     -9.51      0.00
    1    4    1     20.27      0.00
    2    4    1     -7.84      0.00
    3    4    1      2.44      0.00
    4    4    1      2.20      0.00
    5    4    1      2.54      0.00
    6    4    1      0.58      0.00
    7    4    1     -0.50      0.00
    8    4    1      0.81      0.00
    9    4    1      1.38      0.00
   10    4    1      0.96      0.00
   11    4    1      1.37      0.00
   12    4    1     -2.13      0.00
   13    4    1      0.92      0.00
   14    4    1      2.33      0.00
  -13    5    1     -1.00      0.00
  -12    5    1     -0.82      0.00
  -11    5    1      1.42      0.00
  -10    5    1      2.73      0.00
   -9    5    1      0.57      0.00
   -8    5    1     -0.16      0.00
   -7    5    1      1.86      0.00
   -6    5    1      3.19      0.00
   -5    5    1      2.69      0.00
   -4    5    1      2.58      0.00
   -3    5    1     13.07      0.00
   -2    5    1      8.30      0.00
   -1    5    1      3.07      0.00
    0    5    1      4.56      0.00
    1    5    1      9.05      0.00
    2    5    1     -7.88      0.00
    3    5    1      2.28      0.00
    4    5    1     -2.48      0.00
    5    5    1      4.28      0.00
    6    5    1      1.65      0.00
    7    5    1      3.83      0.00
    8    5    1     -0.93      0.00
    9    5    1      1.02      0.00
   10    5    1      1.92      0.00
   11    5    1      2.11      0.00
   12    5    1     -0.33      0.00
   13    5    1      0.73      0.00
   14    5    1      2.57      0.00
  -12    6    1     -0.39      0.00
  -11    6    1     -0.87      0.00
  -10    6    1      0.44      0.00
   -9    6    1     -0.15      0.00
   -8    6    1      0.09      0.00
   -7    6    1      2.03      0.00
   -6    6    1      2.63      0.00
   -5    6    1      0.19      0.00
   -4    6    1      4.88      0.00
   -3    6    1     11.83      0.00
   -2    6    1      8.20      0.00
   -1    6    1     -0.35      0.00
    0    6    1      1.36      0.00
    1    6    1     -1.55      0.00
    2    6    1      2.52      0.00
    3    6    1     -5.15      0.00
    4    6    1     -0.62      0.00
    5    6    1     -3.00      0.00
    6    6    1      6.74      0.00
    7    6    1      0.08      0.00
    8    6    1      3.25      0.00
    9    6    1      2.36      0.00
   10    6    1      2.58      0.00
   11    6    1     -2.38      0.00
   12    6    1     -0.30      0.00
   13    6    1      0.89      0.00
  -12    7    1      0.31      0.00
  -11    7    1      2.47      0.00
  -10    7    1      0.27      0.00
   -9    7    1      1.10      0.00
   -8    7    1     -0.24      0.00
   -7    7    1      1.16      0.00
   -6    7    1      0.44      0.00
   -5    7    1      1.71      0.00
   -4    7    1      2.55      0.00
   -3    7    1      4.38      0.00
   -2    7    1      6.25      0.00
   -1    7    1      0.52      0.00
    0    7    1      1.45      0.00
    1    7    1      6.18      0.00
    2    7    1     -5.55      0.00
    3    7    1     -2.79      0.00
    4    7    1     -0.37      0.00
    5    7    1      3.65      0.00
    6    7    1      1.76      0.00
    7    7    1      1.04      0.00
    8    7    1      2.36      0.00
    9    7    1      2.32      0.00
   10    7    1     -0.77      0.00
   11    7    1      0.57      0.00
   12    7    1      0.44      0.00
   13    7    1      0.90      0.00
  -12    8    1     -1.10      0.00
  -11    8    1      1.30      0.00
  -10    8    1     -1.20      0.00
   -9    8    1      1.74      0.00
   -8    8    1      0.15      0.00
   -7    8    1     -1.11      0.00
   -6    8    1     -1.71      0.00
   -5    8    1      2.81      0.00
   -4    8    1      3.32      0.00
   -3    8    1      4.81      0.00
   -2    8    1      3.11      0.00
   -1    8    1     -2.48      0.00
    0    8    1      2.79      0.00
    1    8    1      0.70      0.00
    2    8    1     -3.08      0.00
    3    8    1      1.16      0.00
    4    8    1     -3.63      0.00
    5    8    1      3.59      0.00
    6    8    1      1.13      0.00
    7    8    1      2.24      0.00
    8    8    1      0.51      0.00
    9    8    1      0.05      0.00
   10    8    1      0.06      0.00
   11    8    1      0.23      0.00
   12    8    1     -1.04      0.00
   13    8    1      0.25      0.00
  -11    9    1      1.49      0.00
  -10    9    1      1.60      0.00
   -9    9    1     -0.11      0.00
   -8    9    1      0.22      0.00
   -7    9    1      0.27      0.00
   -6    9    1      0.06      0.00
   -5    9    1      3.39      0.00
   -4    9    1      1.09      0.00
   -3    9    1      1.46      0.00
   -2    9    1     -1.32      0.00
   -1    9    1      1.53      0.00
    0    9    1     -0.91      0.00
    1    9    1      0.95      0.00
    2    9    1     -5.69      0.00
    3    9    1     -3.71      0.00
    4    9    1      3.13      0.00
    5    9    1      1.86      0.00
    6    9    1     -0.19      0.00
    7    9    1     -0.35      0.00
    8    9    1     -0.31      0.00
    9    9    1     -1.35      0.00
   10    9    1      0.49      0.00
   11    9    1     -0.84      0.00
   12    9    1      0.59      0.00
   13    9    1      0.39      0.00
  -10   10    1     -1.23      0.00
   -9   10    1     -0.20      0.00
   -8   10    1      1.52      0.00
   -7   10    1      0.45      0.00
   -6   10    1     -0.14      0.00
   -5   10    1      1.95      0.00
   -4   10    1      0.35      0.00
   -3   10    1      0.07      0.00
   -2   10    1     -0.06      0.00
   -1   10    1     -4.50      0.00
    0   10    1      0.57      0.00
    1   10    1     -1.97      0.00
    2   10    1     -4.70      0.00
    3   10    1      2.01      0.00
    4   10    1      1.43      0.00
    5   10    1      0.63      0.00
    6   10    1     -0.29      0.00
    7   10    1      0.32      0.00
    8   10    1     -0.60      0.00
    9   10    1     -1.06      0.00
   10   10    1     -0.10      0.00
   11   10    1     -0.67      0.00
   12   10    1     -0.90      0.00
   13   10    1     -0.50      0.00
   -9   11    1      2.17      0.00
   -8   11    1      0.56      0.00
   -7   11    1     -0.77      0.00
   -6   11    1     -0.09      0.00
   -5   11    1     -0.85      0.00
   -4   11    1      0.09      0.00
   -3   11    1     -1.00      0.00
   -2   11    1     -1.05      0.00
   -1   11    1     -0.40      0.00
    0   11    1     -0.90      0.00
    1   11    1     -2.37      0.00
    2   11    1     -2.26      0.00
    3   11    1     -0.97      0.00
    4   11    1      0.35      0.00
    5   11    1     -0.60      0.00
    6   11    1     -0.55      0.00
    7   11    1      0.71      0.00
    8   11    1      1.92      0.00
    9   11    1     -1.25      0.00
   10   11    1     -0.55      0.00
   11   11    1     -1.71      0.00
   12   11    1      0.62      0.00
   13   11    1      2.73      0.00
   -9   12    1     -2.19      0.00
   -8   12    1     -1.93      0.00
   -7   12    1     -2.10      0.00
   -6   12    1     -1.62      0.00
   -5   12    1      0.19      0.00
   -4   12    1     -0.29      0.00
   -3   12    1     -1.76      0.00
   -2   12    1      0.32      0.00
   -1   12    1      0.03      0.00
    0   12    1     -1.80      0.00
    1   12    1     -1.25      0.00
    2   12    1     -2.69      0.00
    3   12    1     -0.21      0.00
    4   12    1     -1.55      0.00
    5   12    1     -0.43      0.00
    6   12    1     -0.18      0.00
    7   12    1     -1.99      0.00
    8   12    1      0.29      0.00
    9   12    1     -1.55      0.00
   10   12    1      0.58      0.00
   11   12    1     -1.04      0.00
   12   12    1     -5.15      0.00
   13   12    1     -3.03      0.00
   -8   13    1     -2.14      0.00
   -7   13    1     -0.89      0.00
   -6   13    1      0.08      0.00
   -5   13    1      0.07      0.00
   -4   13    1      1.48      0.00
   -3   13    1      1.35      0.00
   -2   13    1     -0.26      0.00
   -1   13    1     -1.58      0.00
    0   13    1     -0.58      0.00
    1   13    1      0.08      0.00
    2   13    1     -0.36      0.00
    3   13    1     -1.98      0.00
    4   13    1      1.06      0.00
    5   13    1     -1.13      0.00
    6   13    1     -0.63      0.00
    7   13    1     -2.01      0.00
    8   13    1     -0.73      0.00
    9   13    1     -1.78      0.00
   10   13    1      0.27      0.00
   11   13    1     -2.98      0.00
   -7   14    1     -0.93      0.00
   -6   14    1     -0.79      0.00
   -5   14    1     -1.06      0.00
   -4   14    1     -0.02      0.00
   -3   14    1     -0.56      0.00
   -2   14    1     -0.69      0.00
   -1   14    1     -3.44      0.00
    0   14    1     -0.39      0.00
    1   14    1      0.15      0.00
    2   14    1      1.21      0.00
    3   14    1      1.94      0.00
    4   14    1      0.18      0.00
    5   14    1      0.11      0.00
    6   14    1     -2.48      0.00
    7   14    1     -2.67      0.00
    8   14    1      1.58      0.00
    9   14    1      2.94      0.00
   10   14    1     -2.33      0.00
   -7   15    1     -2.57      0.00
   -6   15    1     -1.46      0.00
   -5   15    1     -0.56      0.00
   -4   15    1      2.20      0.00
   -3   15    1     -0.89      0.00
   -2   15    1     -2.64      0.00
   -1   15    1     -4.05      0.00
    0   15    1     -0.95      0.00
    1   15    1     -3.70      0.00
    2   15    1     -1.41      0.00
    3   15    1      0.66      0.00
    4   15    1      0.44      0.00
    5   15    1      0.07      0.00
    6   15    1     -2.58      0.00
    7   15    1     -1.05      0.00
    8   15    1      1.93      0.00
    9   15    1     -3.64      0.00
   10   15    1      1.71      0.00
   -6   16    1     -0.71      0.00
   -5   16    1      0.72      0.00
   -4   16    1      0.09      0.00
   -3   16    1      0.54      0.00
   -2   16    1      0.38      0.00
   -1   16    1     -2.55      0.00
    0   16    1      1.47      0.00
    1   16    1     -1.24      0.00
    2   16    1     -0.14      0.00
    3   16    1      2.88      0.00
    4   16    1     -1.13      0.00
    5   16    1     -1.96      0.00
    6   16    1     -3.81      0.00
    7   16    1     -0.21      0.00
    8   16    1      3.22      0.00
   -2   17    1     -4.71      0.00
   -1   17    1     -2.14      0.00
    0   17    1     -3.69      0.00
    1   17    1     -3.51      0.00
    2   17    1      0.74      0.00
    3   17    1      1.73      0.00
    4   17    1     -3.05      0.00
    5   17    1     -1.39      0.00
    6   17    1      0.79      0.00
    7   17    1     -2.97      0.00
    1   18    1     -1.74      0.00
    2   18    1      2.12      0.00
    3   18    1     -0.73      0.00
    4   18    1      1.11      0.00
   -5  -17    2     -3.07      0.00
   -4  -17    2     -3.34      0.00
   -3  -17    2     -2.48      0.00
   -2  -17    2     -0.52      0.00
   -1  -17    2     -2.04      0.00
    0  -17    2      6.55      0.00
    1  -17    2     -0.65      0.00
    2  -17    2      0.81      0.00
   -7  -16    2     -2.08      0.00
   -6  -16    2     -1.56      0.00
   -5  -16    2     -0.24      0.00
   -4  -16    2      2.48      0.00
   -3  -16    2     -0.10      0.00
   -2  -16    2     -1.73      0.00
   -1  -16    2     -1.40      0.00
    0  -16    2      0.33      0.00
    1  -16    2      0.64      0.00
    2  -16    2     -1.05      0.00
    3  -16    2      3.46      0.00
    4  -16    2     -0.96      0.00
    5  -16    2      0.46      0.00
    6  -16    2     -1.27      0.00
   -8  -15    2      6.96      0.00
   -7  -15    2      2.81      0.00
   -6  -15    2      1.20      0.00
   -5  -15    2     -0.35      0.00
   -4  -15    2      3.35      0.00
   -3  -15    2      0.97      0.00
   -2  -15    2     -1.07      0.00
   -1  -15    2      0.70      0.00
    0  -15    2      0.03      0.00
    1  -15    2     -0.86      0.00
    2  -15    2      2.37      0.00
    3  -15    2     -1.32      0.00
    4  -15    2      2.14      0.00
    5  -15    2     -1.23      0.00
    6  -15    2     -1.22      0.00
    7  -15    2     -0.24      0.00
   -9  -14    2      1.72      0.00
   -8  -14    2      1.73      0.00
   -7  -14    2     -1.49      0.00
   -6  -14    2     -0.73      0.00
   -5  -14    2      3.70      0.00
   -4  -14    2     -0.31      0.00
   -3  -14    2      3.29      0.00
   -2  -14    2      1.58      0.00
   -1  -14    2     -0.86      0.00
    0  -14    2     -0.11      0.00
    1  -14    2     -3.32      0.00
    2  -14    2     -1.11      0.00
    3  -14    2     -0.87      0.00
    4  -14    2     -0.44      0.00
    5  -14    2     -0.66      0.00
    6  -14    2      0.61      0.00
    7  -14    2      1.16      0.00
  -10  -13    2      3.81      0.00
   -9  -13    2      1.62      0.00
   -8  -13    2     -2.01      0.00
   -7  -13    2     -0.70      0.00
   -6  -13    2      1.31      0.00
   -5  -13    2     -0.82      0.00
   -4  -13    2      2.89      0.00
   -3  -13    2      2.82      0.00
   -2  -13    2     -0.50      0.00
   -1  -13    2     -3.02      0.00
    0  -13    2     -0.52      0.00
    1  -13    2     -0.81      0.00
    2  -13    2     -0.35      0.00
    3  -13    2     -0.56      0.00
    4  -13    2     -1.45      0.00
    5  -13    2      0.23      0.00
    6  -13    2      1.69      0.00
    7  -13    2     -1.58      0.00
    8  -13    2     -1.11      0.00
  -12  -12    2     -3.04      0.00
  -11  -12    2      1.03      0.00
  -10  -12    2      2.64      0.00
   -9  -12    2     -0.37      0.00
   -8  -12    2     -0.69      0.00
   -7  -12    2     -1.00      0.00
   -6  -12    2      2.53      0.00
   -5  -12    2      0.13      0.00
   -4  -12    2      2.20      0.00
   -3  -12    2     -0.79      0.00
   -2  -12    2     -2.29      0.00
   -1  -12    2     -1.46      0.00
    0  -12    2      0.98      0.00
    1  -12    2     -0.81      0.00
    2  -12    2      1.33      0.00
    3  -12    2     -0.38      0.00
    4  -12    2      2.88      0.00
    5  -12    2      2.97      0.00
    6  -12    2      0.66      0.00
    7  -12    2     -0.60      0.00
    8  -12    2      0.30      0.00
    9  -12    2     -1.89      0.00
  -12  -11    2      1.03      0.00
  -11  -11    2      2.79      0.00
  -10  -11    2      2.08      0.00
   -9  -11    2     -2.68      0.00
   -8  -11    2      0.26      0.00
   -7  -11    2     -0.50      0.00
   -6  -11    2      1.76      0.00
   -5  -11    2      0.81      0.00
   -4  -11    2      1.03      0.00
   -3  -11    2      0.84      0.00
   -2  -11    2     -2.99      0.00
   -1  -11    2     -3.77      0.00
    0  -11    2     -0.60      0.00
    1  -11    2     -0.31      0.00
    2  -11    2     -3.00      0.00
    3  -11    2     -1.07      0.00
    4  -11    2      1.70      0.00
    5  -11    2      1.58      0.00
    6  -11    2      0.01      0.00
    7  -11    2     -0.14      0.00
    8  -11    2     -0.08      0.00
    9  -11    2      2.73      0.00
  -12  -10    2      0.33      0.00
  -11  -10    2      0.84      0.00
  -10  -10    2     -0.07      0.00
   -9  -10    2     -1.17      0.00
   -8  -10    2     -2.97      0.00
   -7  -10    2     -1.00      0.00
   -6  -10    2      1.13      0.00
   -5  -10    2      1.63      0.00
   -4  -10    2      0.32      0.00
   -3  -10    2      1.11      0.00
   -2  -10    2     -3.09      0.00
   -1  -10    2     -2.27      0.00
    0  -10    2      1.87      0.00
    1  -10    2     -2.32      0.00
    2  -10    2     -0.94      0.00
    3  -10    2      2.53      0.00
    4  -10    2      2.45      0.00
    5  -10    2      1.68      0.00
    6  -10    2      0.08      0.00
    7  -10    2     -0.40      0.00
    8  -10    2      0.08      0.00
    9  -10    2     -0.11      0.00
   10  -10    2      1.52      0.00
  -12   -9    2     -2.61      0.00
  -11   -9    2      0.29      0.00
  -10   -9    2      1.08      0.00
   -9   -9    2     -0.19      0.00
   -8   -9    2      1.16      0.00
   -7   -9    2     -1.49      0.00
   -6   -9    2     -0.12      0.00
   -5   -9    2      0.23      0.00
   -4   -9    2      2.41      0.00
   -3   -9    2      0.16      0.00
   -2   -9    2     -4.19      0.00
   -1   -9    2     -1.19      0.00
    0   -9    2     -2.66      0.00
    1   -9    2     -2.55      0.00
    2   -9    2     -1.72      0.00
    3   -9    2      1.98      0.00
    4   -9    2      2.70      0.00
    5   -9    2      0.79      0.00
    6   -9    2      0.28      0.00
    7   -9    2      0.11      0.00
    8   -9    2      0.18      0.00
    9   -9    2      2.25      0.00
   10   -9    2      2.39      0.00
   11   -9    2      0.07      0.00
   12   -9    2     -1.26      0.00
  -13   -8    2      0.38      0.00
  -12   -8    2     -0.96      0.00
  -11   -8    2     -0.61      0.00
  -10   -8    2      0.55      0.00
   -9   -8    2     -2.87      0.00
   -8   -8    2      0.78      0.00
   -7   -8    2      0.41      0.00
   -6   -8    2      2.44      0.00
   -5   -8    2     -0.37      0.00
   -4   -8    2     -2.20      0.00
   -3   -8    2     -4.50      0.00
   -2   -8    2     -2.23      0.00
   -1   -8    2     -0.73      0.00
    0   -8    2      1.38      0.00
    1   -8    2     -1.99      0.00
    2   -8    2     -2.38      0.00
    3   -8    2      4.68      0.00
    4   -8    2      3.46      0.00
    5   -8    2      0.96      0.00
    6   -8    2     -0.77      0.00
    7   -8    2      1.97      0.00
    8   -8    2     -0.83      0.00
    9   -8    2      1.19      0.00
   10   -8    2     -1.20      0.00
   11   -8    2     -1.57      0.00
   12   -8    2      0.00      0.00
  -13   -7    2      0.77      0.00
  -12   -7    2     -2.00      0.00
  -11   -7    2     -0.92      0.00
  -10   -7    2     -1.01      0.00
   -9   -7    2     -0.29      0.00
   -8   -7    2     -1.19      0.00
   -7   -7    2      1.21      0.00
   -6   -7    2     -1.05      0.00
   -5   -7    2      0.45      0.00
   -4   -7    2      1.13      0.00
   -3   -7    2      4.25      0.00
   -2   -7    2     -8.89      0.00
   -1   -7    2      0.79      0.00
    0   -7    2     -1.24      0.00
    1   -7    2     -2.88      0.00
    2   -7    2     -0.51      0.00
    3   -7    2      4.49      0.00
    4   -7    2      1.43      0.00
    5   -7    2     -0.63      0.00
    6   -7    2      0.42      0.00
    7   -7    2      2.11      0.00
    8   -7    2      0.99      0.00
    9   -7    2      0.55      0.00
   10   -7    2     -0.33      0.00
   11   -7    2     -1.92      0.00
   12   -7    2     -0.77      0.00
  -13   -6    2     -1.26      0.00
  -12   -6    2     -1.98      0.00
  -11   -6    2     -0.80      0.00
  -10   -6    2      0.58      0.00
   -9   -6    2     -0.31      0.00
   -8   -6    2      3.46      0.00
   -7   -6    2      0.92      0.00
   -6   -6    2     -0.60      0.00
   -5   -6    2     -0.91      0.00
   -4   -6    2      0.01      0.00
   -3   -6    2     -6.79      0.00
   -2   -6    2     -4.33      0.00
   -1   -6    2      7.77      0.00
    0   -6    2      3.73      0.00
    1   -6    2     -2.44      0.00
    2   -6    2      4.15      0.00
    3   -6    2      4.42      0.00
    4   -6    2      5.05      0.00
    5   -6    2      1.04      0.00
    6   -6    2     -0.94      0.00
    7   -6    2      0.56      0.00
    8   -6    2     -1.66      0.00
    9   -6    2     -0.90      0.00
   10   -6    2     -0.91      0.00
   11   -6    2      0.72      0.00
   12   -6    2     -0.58      0.00
   13   -6    2     -0.40      0.00
  -13   -5    2      0.43      0.00
  -12   -5    2     -3.70      0.00
  -11   -5    2      0.83      0.00
  -10   -5    2      0.32      0.00
   -9   -5    2     -2.51      0.00
   -8   -5    2      0.61      0.00
   -7   -5    2     -0.50      0.00
   -6   -5    2      0.18      0.00
   -5   -5    2      2.60      0.00
   -4   -5    2      6.48      0.00
   -3   -5    2     -6.78      0.00
   -2   -5    2      3.64      0.00
   -1   -5    2      1.83      0.00
    0   -5    2      6.01      0.00
    1   -5    2     -3.20      0.00
    2   -5    2     -0.40      0.00
    3   -5    2      7.89      0.00
    4   -5    2      2.09      0.00
    5   -5    2     -0.30      0.00
    6   -5    2     -0.35      0.00
    7   -5    2      0.98      0.00
    8   -5    2      4.02      0.00
    9   -5    2      4.62      0.00
   10   -5    2      0.51      0.00
   11   -5    2     -0.84      0.00
   12   -5    2      0.39      0.00
   13   -5    2     -0.41      0.00
  -13   -4    2     -1.02      0.00
  -12   -4    2     -1.05      0.00
  -11   -4    2      0.65      0.00
  -10   -4    2      1.05      0.00
   -9   -4    2     -0.74      0.00
   -8   -4    2      0.91      0.00
   -7   -4    2     -0.44      0.00
   -6   -4    2     -0.47      0.00
   -5   -4    2      8.97      0.00
   -4   -4    2     -2.97      0.00
   -3   -4    2      4.27      0.00
   -2   -4    2    -12.24      0.00
   -1   -4    2     31.93      0.00
    0   -4    2      1.55      0.00
    1   -4    2      0.69      0.00
    2   -4    2      3.46      0.00
    3   -4    2      7.05      0.00
    4   -4    2      4.61      0.00
    5   -4    2     -0.69      0.00
    6   -4    2     -3.89      0.00
    7   -4    2     -0.20      0.00
    8   -4    2      0.09      0.00
    9   -4    2      0.20      0.00
   10   -4    2      0.84      0.00
   11   -4    2     -0.96      0.00
   12   -4    2     -0.13      0.00
   13   -4    2      0.35      0.00
   14   -4    2      0.79      0.00
  -13   -3    2     -1.04      0.00
  -12   -3    2     -1.71      0.00
  -11   -3    2      0.97      0.00
  -10   -3    2     -0.60      0.00
   -9   -3    2     -1.12      0.00
   -8   -3    2      1.23      0.00
   -7   -3    2      1.10      0.00
   -6   -3    2      3.66      0.00
   -5   -3    2      1.66      0.00
   -4   -3    2     -0.47      0.00
   -3   -3    2    -10.68      0.00
   -2   -3    2     16.96      0.00
   -1   -3    2     14.00      0.00
    0   -3    2     -4.43      0.00
    1   -3    2     -8.39      0.00
    2   -3    2     10.31      0.00
    3   -3    2      9.85      0.00
    4   -3    2      6.94      0.00
    5   -3    2     -6.63      0.00
    6   -3    2     -1.27      0.00
    7   -3    2      2.65      0.00
    8   -3    2      4.43      0.00
    9   -3    2      2.75      0.00
   10   -3    2     -0.09      0.00
   11   -3    2      1.93      0.00
   12   -3    2      0.90      0.00
   13   -3    2     -0.34      0.00
   14   -3    2     -2.05      0.00
  -13   -2    2     -4.01      0.00
  -12   -2    2      1.19      0.00
  -11   -2    2      1.27      0.00
  -10   -2    2     -0.63      0.00
   -9   -2    2     -0.57      0.00
   -8   -2    2      1.78      0.00
   -7   -2    2      1.36      0.00
   -6   -2    2      3.57      0.00
   -5   -2    2      3.37      0.00
   -4   -2    2     -0.90      0.00
   -3   -2    2      1.47      0.00
   -2   -2    2      9.88      0.00
   -1   -2    2      0.89      0.00
    0   -2    2     22.07      0.00
    1   -2    2     -4.54      0.00
    2   -2    2     13.55      0.00
    3   -2    2     14.20      0.00
    4   -2    2     -0.95      0.00
    5   -2    2     -0.96      0.00
    6   -2    2     -1.51      0.00
    7   -2    2      3.30      0.00
    8   -2    2      2.08      0.00
    9   -2    2     -0.20      0.00
   10   -2    2      1.80      0.00
   11   -2    2      0.36      0.00
   12   -2    2     -0.74      0.00
   13   -2    2     -1.36      0.00
   14   -2    2      2.05      0.00
  -13   -1    2     -1.34      0.00
  -12   -1    2      1.51      0.00
  -11   -1    2     -1.10      0.00
  -10   -1    2     -1.03      0.00
   -9   -1    2     -0.09      0.00
   -8   -1    2      3.02      0.00
   -7   -1    2     -0.11      0.00
   -6   -1    2      1.07      0.00
   -5   -1    2      2.87      0.00
   -4   -1    2      0.63      0.00
   -3   -1    2     10.36      0.00
   -2   -1    2     -4.72      0.00
   -1   -1    2     41.11      0.00
    1   -1    2     -0.61      0.00
    2   -1    2     -9.69      0.00
    3   -1    2      2.74      0.00
    4   -1    2      2.21      0.00
    5   -1    2     -9.05      0.00
    6   -1    2     -0.05      0.00
    7   -1    2      3.89      0.00
    8   -1    2     -1.29      0.00
    9   -1    2      2.01      0.00
   10   -1    2      1.04      0.00
   11   -1    2      1.34      0.00
   12   -1    2      0.03      0.00
   13   -1    2     -0.99      0.00
   14   -1    2     -1.86      0.00
  -13    0    2     -5.21      0.00
  -12    0    2      1.04      0.00
  -11    0    2     -0.17      0.00
  -10    0    2     -1.69      0.00
   -9    0    2      0.42      0.00
   -8    0    2      0.25      0.00
   -7    0    2     -0.77      0.00
   -6    0    2      1.39      0.00
   -5    0    2      5.17      0.00
   -4    0    2     -0.45      0.00
   -3    0    2     -6.29      0.00
   -2    0    2      5.70      0.00
   -1    0    2    -12.25      0.00
    2    0    2     26.99      0.00
    3    0    2     12.09      0.00
    4    0    2      2.20      0.00
    5    0    2     -2.29      0.00
    6    0    2      1.50      0.00
    7    0    2     -0.12      0.00
    8    0    2      0.93      0.00
    9    0    2      0.57      0.00
   10    0    2      0.41      0.00
   11    0    2     -0.07      0.00
   12    0    2     -0.75      0.00
   13    0    2     -0.80      0.00
   14    0    2      0.99      0.00
  -13    1    2     -0.47      0.00
  -12    1    2      0.83      0.00
  -11    1    2     -0.77      0.00
  -10    1    2     -0.60      0.00
   -9    1    2      1.04      0.00
   -8    1    2      0.36      0.00
   -7    1    2     -0.48      0.00
   -6    1    2      6.36      0.00
   -5    1    2     -4.42      0.00
   -4    1    2     -2.64      0.00
   -3    1    2    -11.68      0.00
   -2    1    2    -16.91      0.00
   -1    1    2     -6.36      0.00
    2    1    2     11.34      0.00
    3    1    2     -2.25      0.00
    4    1    2      7.00      0.00
    5    1    2     -3.08      0.00
    6    1    2      3.01      0.00
    7    1    2      2.92      0.00
    8    1    2      0.26      0.00
    9    1    2      0.75      0.00
   10    1    2     -0.23      0.00
   11    1    2     -0.11      0.00
   12    1    2     -1.05      0.00
   13    1    2     -0.44      0.00
   14    1    2     -0.61      0.00
   15    1    2      1.27      0.00
  -13    2    2     -0.12      0.00
  -12    2    2      0.66      0.00
  -11    2    2     -1.24      0.00
  -10    2    2      0.70      0.00
   -9    2    2     -1.55      0.00
   -8    2    2      0.39      0.00
   -7    2    2      1.83      0.00
   -6    2    2      2.32      0.00
   -5    2    2      4.95      0.00
   -4    2    2     -4.17      0.00
   -3    2    2     -6.51      0.00
   -2    2    2     -9.13      0.00
   -1    2    2    -13.68      0.00
    0    2    2    -40.76      0.00
    2    2    2    -13.11      0.00
    3    2    2      9.84      0.00
    4    2    2     -7.04      0.00
    5    2    2      0.43      0.00
    6    2    2     -2.60      0.00
    7    2    2     -0.75      0.00
    8    2    2     -0.53      0.00
    9    2    2      1.44      0.00
   10    2    2     -0.86      0.00
   11    2    2     -0.33      0.00
   12    2    2      0.50      0.00
   13    2    2     -0.62      0.00
   14    2    2      4.22      0.00
   15    2    2     -0.33      0.00
  -13    3    2     -2.07      0.00
  -12    3    2     -1.09      0.00
  -11    3    2      0.53      0.00
  -10    3    2      0.56      0.00
   -9    3    2     -1.97      0.00
   -8    3    2     -0.99      0.00
   -7    3    2      0.91      0.00
   -6    3    2      2.03      0.00
   -5    3    2     -4.83      0.00
   -4    3    2     -8.76      0.00
   -3    3    2     -4.77      0.00
   -2    3    2     -8.98      0.00
   -1    3    2    -19.17      0.00
    0    3    2     -4.91      0.00
    1    3    2     -9.66      0.00
    2    3    2     18.87      0.00
    3    3    2     -4.52      0.00
    4    3    2      4.24      0.00
    5    3    2     -3.67      0.00
    6    3    2      0.81      0.00
    7    3    2     -1.99      0.00
    8    3    2     -0.44      0.00
    9    3    2     -1.30      0.00
   10    3    2     -0.32      0.00
   11    3    2     -2.00      0.00
   12    3    2      0.83      0.00
   13    3    2     -0.87      0.00
   14    3    2     -0.90      0.00
   15    3    2     -0.55      0.00
  -13    4    2     -1.41      0.00
  -12    4    2     -0.06      0.00
  -11    4    2      0.31      0.00
  -10    4    2     -2.27      0.00
   -9    4    2     -1.03      0.00
   -8    4    2      0.42      0.00
   -7    4    2      0.21      0.00
   -6    4    2     -0.76      0.00
   -5    4    2     -7.13      0.00
   -4    4    2     -2.45      0.00
   -3    4    2    -10.35      0.00
   -2    4    2    -18.62      0.00
   -1    4    2    -30.44      0.00
    0    4    2    -30.47      0.00
    1    4    2      3.16      0.00
    2    4    2      2.02      0.00
    3    4    2     -1.00      0.00
    4    4    2      7.15      0.00
    5    4    2      0.29      0.00
    6    4    2     -0.29      0.00
    7    4    2     -4.32      0.00
    8    4    2      1.15      0.00
    9    4    2      0.46      0.00
   10    4    2     -1.73      0.00
   11    4    2     -1.94      0.00
   12    4    2     -1.13      0.00
   13    4    2      1.03      0.00
   14    4    2     -0.06      0.00
   15    4    2     -1.85      0.00
  -13    5    2     -0.63      0.00
  -12    5    2     -0.81      0.00
  -11    5    2      2.03      0.00
  -10    5    2     -0.37      0.00
   -9    5    2      0.58      0.00
   -8    5    2      2.17      0.00
   -7    5    2     -0.44      0.00
   -6    5    2     -2.50      0.00
   -5    5    2     -0.68      0.00
   -4    5    2     -4.61      0.00
   -3    5    2     -6.06      0.00
   -2    5    2    -15.43      0.00
   -1    5    2    -14.90      0.00
    0    5    2     -3.72      0.00
    1    5    2     13.97      0.00
    2    5    2     -7.56      0.00
    3    5    2      2.10      0.00
    4    5    2     -2.36      0.00
    5    5    2      4.55      0.00
    6    5    2     -5.91      0.00
    7    5    2     -0.75      0.00
    8    5    2     -2.04      0.00
    9    5    2     -1.14      0.00
   10    5    2     -1.34      0.00
   11    5    2      0.37      0.00
   12    5    2      1.70      0.00
   13    5    2     -0.21      0.00
   14    5    2      2.75      0.00
  -12    6    2      0.68      0.00
  -11    6    2     -3.25      0.00
  -10    6    2     -1.20      0.00
   -9    6    2     -0.94      0.00
   -8    6    2      0.64      0.00
   -7    6    2     -2.72      0.00
   -6    6    2     -2.00      0.00
   -5    6    2     -1.50      0.00
   -4    6    2      0.38      0.00
   -3    6    2     -2.85      0.00
   -2    6    2    -12.02      0.00
   -1    6    2    -12.03      0.00
    0    6    2     -1.19      0.00
    1    6    2     -1.76      0.00
    2    6    2     -1.76      0.00
    3    6    2     -2.51      0.00
    4    6    2      5.59      0.00
    5    6    2     -2.52      0.00
    6    6    2     -1.60      0.00
    7    6    2     -3.25      0.00
    8    6    2      0.91      0.00
    9    6    2     -1.51      0.00
   10    6    2      0.04      0.00
   11    6    2     -2.06      0.00
   12    6    2      0.49      0.00
   13    6    2     -2.85      0.00
   14    6    2      0.17      0.00
  -12    7    2      2.08      0.00
  -11    7    2      0.45      0.00
  -10    7    2     -0.17      0.00
   -9    7    2     -0.48      0.00
   -8    7    2     -2.06      0.00
   -7    7    2     -0.95      0.00
   -6    7    2      1.36      0.00
   -5    7    2      0.01      0.00
   -4    7    2     -0.17      0.00
   -3    7    2     -6.05      0.00
   -2    7    2     -7.71      0.00
   -1    7    2     -2.20      0.00
    0    7    2      0.22      0.00
    1    7    2      4.42      0.00
    2    7    2     -5.17      0.00
    3    7    2      2.12      0.00
    4    7    2      8.61      0.00
    5    7    2     -1.81      0.00
    6    7    2     -4.36      0.00
    7    7    2     -2.98      0.00
    8    7    2     -0.16      0.00
    9    7    2      0.03      0.00
   10    7    2     -1.67      0.00
   11    7    2      1.09      0.00
   12    7    2      0.76      0.00
   13    7    2     -0.74      0.00
   14    7    2      2.01      0.00
  -11    8    2     -2.36      0.00
  -10    8    2     -2.42      0.00
   -9    8    2     -0.34      0.00
   -8    8    2      0.31      0.00
   -7    8    2     -0.31      0.00
   -6    8    2      0.35      0.00
   -5    8    2     -2.17      0.00
   -4    8    2      0.68      0.00
   -3    8    2      0.13      0.00
   -2    8    2     -2.69      0.00
   -1    8    2     -1.81      0.00
    0    8    2      0.64      0.00
    1    8    2     -1.27      0.00
    2    8    2     -1.66      0.00
    3    8    2      8.18      0.00
    4    8    2      1.61      0.00
    5    8    2     -1.34      0.00
    6    8    2     -2.78      0.00
    7    8    2      2.59      0.00
    8    8    2      0.17      0.00
    9    8    2     -0.22      0.00
   10    8    2     -0.18      0.00
   11    8    2      1.07      0.00
   12    8    2     -1.40      0.00
   13    8    2     -0.35      0.00
   14    8    2     -0.17      0.00
  -11    9    2     -1.89      0.00
  -10    9    2      4.61      0.00
   -9    9    2     -0.94      0.00
   -8    9    2     -0.21      0.00
   -7    9    2      0.94      0.00
   -6    9    2      2.12      0.00
   -5    9    2     -1.12      0.00
   -4    9    2      1.68      0.00
   -3    9    2     -0.15      0.00
   -2    9    2     -3.47      0.00
   -1    9    2      2.98      0.00
    0    9    2     -0.31      0.00
    1    9    2      0.76      0.00
    2    9    2      0.90      0.00
    3    9    2      1.37      0.00
    4    9    2      2.85      0.00
    5    9    2     -1.95      0.00
    6    9    2     -0.38      0.00
    7    9    2      0.54      0.00
    8    9    2      1.54      0.00
    9    9    2      0.40      0.00
   10    9    2      0.27      0.00
   11    9    2     -1.82      0.00
   12    9    2      1.86      0.00
   13    9    2     -1.15      0.00
   14    9    2      1.01      0.00
  -10   10    2      2.46      0.00
   -9   10    2     -0.74      0.00
   -8   10    2     -0.94      0.00
   -7   10    2      1.63      0.00
   -6   10    2      2.19      0.00
   -5   10    2     -0.32      0.00
   -4   10    2      2.25      0.00
   -3   10    2      1.14      0.00
   -2   10    2     -0.69      0.00
   -1   10    2      0.63      0.00
    0   10    2      0.16      0.00
    1   10    2      1.91      0.00
    2   10    2     -0.09      0.00
    3   10    2      5.12      0.00
    4   10    2      1.53      0.00
    5   10    2     -1.35      0.00
    6   10    2      2.36      0.00
    7   10    2      2.51      0.00
    8   10    2      1.70      0.00
    9   10    2      1.61      0.00
   10   10    2      0.79      0.00
   11   10    2      0.78      0.00
   12   10    2      1.32      0.00
   13   10    2     -4.81      0.00
   -9   11    2     -0.55      0.00
   -8   11    2      0.34      0.00
   -7   11    2      1.53      0.00
   -6   11    2      2.32      0.00
   -5   11    2     -0.47      0.00
   -4   11    2      0.45      0.00
   -3   11    2      0.39      0.00
   -2   11    2     -0.86      0.00
   -1   11    2      0.80      0.00
    0   11    2     -0.57      0.00
    1   11    2     -0.68      0.00
    2   11    2      2.77      0.00
    3   11    2      1.59      0.00
    4   11    2      1.62      0.00
    5   11    2      0.48      0.00
    6   11    2      1.52      0.00
    7   11    2      1.59      0.00
    8   11    2      1.22      0.00
    9   11    2      0.69      0.00
   10   11    2      1.39      0.00
   11   11    2      0.01      0.00
   12   11    2      2.27      0.00
   13   11    2      0.01      0.00
   -8   12    2      1.96      0.00
   -7   12    2      1.01      0.00
   -6   12    2     -0.13      0.00
   -5   12    2      2.64      0.00
   -4   12    2      1.16      0.00
   -3   12    2     -0.61      0.00
   -2   12    2     -0.59      0.00
   -1   12    2      1.00      0.00
    0   12    2     -0.42      0.00
    1   12    2      0.09      0.00
    2   12    2     -0.57      0.00
    3   12    2      2.63      0.00
    4   12    2      0.03      0.00
    5   12    2      2.03      0.00
    6   12    2      1.50      0.00
    7   12    2     -0.70      0.00
    8   12    2      0.45      0.00
    9   12    2     -0.22      0.00
   10   12    2      1.00      0.00
   11   12    2      1.20      0.00
   12   12    2     -0.69      0.00
   13   12    2     -4.94      0.00
   -8   13    2      3.46      0.00
   -7   13    2      1.07      0.00
   -6   13    2      1.48      0.00
   -5   13    2      1.55      0.00
   -4   13    2      0.65      0.00
   -3   13    2      1.48      0.00
   -2   13    2     -2.74      0.00
   -1   13    2      1.38      0.00
    0   13    2     -0.39      0.00
    1   13    2      0.18      0.00
    2   13    2      0.28      0.00
    3   13    2      0.73      0.00
    4   13    2      1.72      0.00
    5   13    2     -0.34      0.00
    6   13    2      0.87      0.00
    7   13    2      1.92      0.00
    8   13    2     -1.05      0.00
    9   13    2     -1.61      0.00
   10   13    2      2.96      0.00
   11   13    2     -0.71      0.00
   12   13    2      5.78      0.00
   -7   14    2     -0.15      0.00
   -6   14    2      0.07      0.00
   -5   14    2      1.51      0.00
   -4   14    2     -0.40      0.00
   -3   14    2     -1.29      0.00
   -2   14    2     -0.15      0.00
   -1   14    2      2.13      0.00
    0   14    2     -0.93      0.00
    1   14    2      0.78      0.00
    2   14    2      2.77      0.00
    3   14    2      0.42      0.00
    4   14    2      0.37      0.00
    5   14    2      0.39      0.00
    6   14    2      3.21      0.00
    7   14    2      1.15      0.00
    8   14    2     -2.33      0.00
    9   14    2      2.60      0.00
   10   14    2     -0.55      0.00
   11   14    2      2.35      0.00
   -7   15    2     -2.58      0.00
   -6   15    2     -0.42      0.00
   -5   15    2     -0.58      0.00
   -4   15    2     -0.60      0.00
   -3   15    2     -2.44      0.00
   -2   15    2      0.48      0.00
   -1   15    2      0.45      0.00
    0   15    2     -1.73      0.00
    1   15    2     -1.15      0.00
    2   15    2     -1.16      0.00
    3   15    2     -2.71      0.00
    4   15    2     -0.45      0.00
    5   15    2      2.33      0.00
    6   15    2      3.62      0.00
    7   15    2      0.37      0.00
    8   15    2     -4.15      0.00
    9   15    2      1.19      0.00
   10   15    2      3.45      0.00
   -6   16    2      2.87      0.00
   -5   16    2      2.83      0.00
   -4   16    2      0.77      0.00
   -3   16    2      0.23      0.00
   -2   16    2      4.27      0.00
   -1   16    2      1.98      0.00
    0   16    2      4.04      0.00
    1   16    2      5.08      0.00
    2   16    2      0.30      0.00
    3   16    2     -1.11      0.00
    4   16    2      0.53      0.00
    5   16    2      0.99      0.00
    6   16    2     -0.22      0.00
    7   16    2     -1.50      0.00
    8   16    2      0.60      0.00
    9   16    2     -1.27      0.00
   -2   17    2      0.63      0.00
   -1   17    2      2.15      0.00
    0   17    2      2.28      0.00
    1   17    2      2.08      0.00
    2   17    2     -1.20      0.00
    3   17    2     -0.58      0.00
    4   17    2      0.33      0.00
    5   17    2      1.95      0.00
    6   17    2      1.18      0.00
    7   17    2     -4.63      0.00
    8   17    2     -1.84      0.00
    0   18    2      4.12      0.00
    1   18    2      4.07      0.00
    2   18    2     -0.34      0.00
    3   18    2     -1.07      0.00
    4   18    2      5.28      0.00
    5   18    2      1.52      0.00
    6   18    2      2.00      0.00
   -4  -17    3     -3.58      0.00
   -3  -17    3     -0.88      0.00
   -2  -17    3      1.98      0.00
   -1  -17    3     -1.13      0.00
    0  -17    3      2.62      0.00
    1  -17    3     -2.29      0.00
    2  -17    3     -0.57      0.00
   -6  -16    3     -0.54      0.00
   -5  -16    3     -1.02      0.00
   -4  -16    3      0.49      0.00
   -3  -16    3     -0.55      0.00
   -2  -16    3      3.24      0.00
   -1  -16    3     -1.23      0.00
    0  -16    3     -2.91      0.00
    1  -16    3      0.04      0.00
    2  -16    3     -0.89      0.00
    3  -16    3      2.78      0.00
    4  -16    3     -2.10      0.00
    5  -16    3      0.28      0.00
    6  -16    3      2.69      0.00
   -7  -15    3      3.85      0.00
   -6  -15    3      1.84      0.00
   -5  -15    3     -3.42      0.00
   -4  -15    3     -0.47      0.00
   -3  -15    3     -1.54      0.00
   -2  -15    3     -0.25      0.00
   -1  -15    3      0.53      0.00
    0  -15    3     -1.39      0.00
    1  -15    3      2.33      0.00
    2  -15    3      0.94      0.00
    3  -15    3      0.52      0.00
    4  -15    3      1.26      0.00
    5  -15    3     -0.51      0.00
    6  -15    3      1.33      0.00
   -8  -14    3     -0.69      0.00
   -7  -14    3      0.07      0.00
   -6  -14    3     -4.31      0.00
   -5  -14    3      0.56      0.00
   -4  -14    3     -4.80      0.00
   -3  -14    3     -2.80      0.00
   -2  -14    3      0.48      0.00
   -1  -14    3      0.73      0.00
    0  -14    3      2.63      0.00
    1  -14    3      0.51      0.00
    2  -14    3      0.43      0.00
    3  -14    3      0.92      0.00
    4  -14    3      0.66      0.00
    5  -14    3      0.03      0.00
    6  -14    3      0.19      0.00
    7  -14    3      0.77      0.00
   -9  -13    3     -0.89      0.00
   -8  -13    3     -0.66      0.00
   -7  -13    3     -0.84      0.00
   -6  -13    3     -1.36      0.00
   -5  -13    3     -2.55      0.00
   -4  -13    3     -3.17      0.00
   -3  -13    3     -1.41      0.00
   -2  -13    3     -0.03      0.00
   -1  -13    3     -1.31      0.00
    0  -13    3      0.14      0.00
    1  -13    3      1.03      0.00
    2  -13    3      0.78      0.00
    3  -13    3      2.00      0.00
    4  -13    3     -2.79      0.00
    5  -13    3     -1.91      0.00
    6  -13    3     -1.57      0.00
    7  -13    3     -0.76      0.00
    8  -13    3     -0.54      0.00
  -11  -12    3     -1.75      0.00
  -10  -12    3     -2.21      0.00
   -9  -12    3      1.30      0.00
   -8  -12    3      1.27      0.00
   -7  -12    3      0.16      0.00
   -6  -12    3     -1.80      0.00
   -5  -12    3     -1.00      0.00
   -4  -12    3     -1.41      0.00
   -3  -12    3     -2.72      0.00
   -2  -12    3      0.17      0.00
   -1  -12    3      1.42      0.00
    0  -12    3      1.74      0.00
    1  -12    3      0.50      0.00
    2  -12    3      2.68      0.00
    3  -12    3      1.00      0.00
    4  -12    3     -0.84      0.00
    5  -12    3     -2.06      0.00
    6  -12    3     -0.23      0.00
    7  -12    3      0.99      0.00
    8  -12    3     -2.01      0.00
  -12  -11    3      1.36      0.00
  -11  -11    3     -0.03      0.00
  -10  -11    3     -1.32      0.00
   -9  -11    3     -1.24      0.00
   -8  -11    3      1.26      0.00
   -7  -11    3     -0.97      0.00
   -6  -11    3     -0.92      0.00
   -5  -11    3     -1.76      0.00
   -4  -11    3     -1.93      0.00
   -3  -11    3      0.13      0.00
   -2  -11    3      1.52      0.00
   -1  -11    3     -0.51      0.00
    0  -11    3     -0.37      0.00
    1  -11    3     -0.99      0.00
    2  -11    3     -0.96      0.00
    3  -11    3     -1.28      0.00
    4  -11    3     -3.31      0.00
    5  -11    3     -2.32      0.00
    6  -11    3     -0.48      0.00
    7  -11    3      0.38      0.00
    8  -11    3     -1.92      0.00
    9  -11    3     -0.14      0.00
  -12  -10    3      2.60      0.00
  -11  -10    3     -0.80      0.00
  -10  -10    3     -1.37      0.00
   -9  -10    3      0.39      0.00
   -8  -10    3     -2.11      0.00
   -7  -10    3      0.65      0.00
   -6  -10    3     -0.83      0.00
   -5  -10    3     -0.94      0.00
   -4  -10    3     -1.78      0.00
   -3  -10    3     -0.12      0.00
   -2  -10    3      1.93      0.00
   -1  -10    3      0.87      0.00
    0  -10    3      2.84      0.00
    1  -10    3      0.50      0.00
    2  -10    3      2.56      0.00
    3  -10    3      1.99      0.00
    4  -10    3     -3.93      0.00
    5  -10    3     -0.06      0.00
    6  -10    3     -0.45      0.00
    7  -10    3     -0.53      0.00
    8  -10    3     -1.17      0.00
    9  -10    3     -2.54      0.00
   10  -10    3     -2.31      0.00
  -12   -9    3     -1.27      0.00
  -11   -9    3     -1.65      0.00
  -10   -9    3     -1.02      0.00
   -9   -9    3     -0.16      0.00
   -8   -9    3      0.28      0.00
   -7   -9    3      1.89      0.00
   -6   -9    3     -2.28      0.00
   -5   -9    3     -2.54      0.00
   -4   -9    3     -0.32      0.00
   -3   -9    3     -0.18      0.00
   -2   -9    3      1.97      0.00
   -1   -9    3      1.44      0.00
    0   -9    3     -0.42      0.00
    1   -9    3      2.14      0.00
    2   -9    3      4.10      0.00
    3   -9    3     -0.74      0.00
    4   -9    3     -3.24      0.00
    5   -9    3     -0.08      0.00
    6   -9    3      1.25      0.00
    7   -9    3     -0.64      0.00
    8   -9    3      1.24      0.00
    9   -9    3     -1.14      0.00
   10   -9    3      0.73      0.00
   11   -9    3      2.73      0.00
   12   -9    3     -0.08      0.00
  -12   -8    3     -0.28      0.00
  -11   -8    3      0.46      0.00
  -10   -8    3      0.52      0.00
   -9   -8    3     -3.53      0.00
   -8   -8    3      0.22      0.00
   -7   -8    3      0.97      0.00
   -6   -8    3      0.68      0.00
   -5   -8    3     -0.66      0.00
   -4   -8    3     -1.08      0.00
   -3   -8    3     -7.60      0.00
   -2   -8    3      3.60      0.00
   -1   -8    3     -1.52      0.00
    0   -8    3      3.01      0.00
    1   -8    3      3.20      0.00
    2   -8    3      1.38      0.00
    3   -8    3     -3.01      0.00
    4   -8    3     -0.35      0.00
    5   -8    3      2.32      0.00
    6   -8    3     -0.17      0.00
    7   -8    3     -0.71      0.00
    8   -8    3     -0.60      0.00
    9   -8    3     -1.51      0.00
   10   -8    3     -0.57      0.00
   11   -8    3      1.36      0.00
   12   -8    3      0.37      0.00
  -12   -7    3      0.02      0.00
  -11   -7    3     -0.60      0.00
  -10   -7    3      0.21      0.00
   -9   -7    3     -0.09      0.00
   -8   -7    3     -2.30      0.00
   -7   -7    3      1.11      0.00
   -6   -7    3     -2.22      0.00
   -5   -7    3      0.52      0.00
   -4   -7    3     -0.54      0.00
   -3   -7    3      2.47      0.00
   -2   -7    3      0.96      0.00
   -1   -7    3     -3.51      0.00
    0   -7    3     -2.19      0.00
    1   -7    3      3.76      0.00
    2   -7    3      0.24      0.00
    3   -7    3     -2.44      0.00
    4   -7    3     -2.23      0.00
    5   -7    3      0.95      0.00
    6   -7    3     -0.08      0.00
    7   -7    3     -0.71      0.00
    8   -7    3      0.67      0.00
    9   -7    3     -0.03      0.00
   10   -7    3      1.57      0.00
   11   -7    3     -0.84      0.00
   12   -7    3     -0.44      0.00
  -12   -6    3      1.06      0.00
  -11   -6    3      0.36      0.00
  -10   -6    3      0.80      0.00
   -9   -6    3      1.46      0.00
   -8   -6    3      0.63      0.00
   -7   -6    3      1.86      0.00
   -6   -6    3      1.25      0.00
   -5   -6    3     -0.46      0.00
   -4   -6    3     -6.84      0.00
   -3   -6    3     -4.64      0.00
   -2   -6    3     -0.10      0.00
   -1   -6    3     -4.21      0.00
    0   -6    3     -1.03      0.00
    1   -6    3      3.44      0.00
    2   -6    3      4.27      0.00
    3   -6    3     -4.14      0.00
    4   -6    3      2.09      0.00
    5   -6    3      2.58      0.00
    6   -6    3     -1.34      0.00
    7   -6    3     -1.72      0.00
    8   -6    3     -1.83      0.00
    9   -6    3     -4.92      0.00
   10   -6    3     -0.58      0.00
   11   -6    3      1.17      0.00
   12   -6    3     -0.31      0.00
   13   -6    3      0.70      0.00
  -12   -5    3      0.87      0.00
  -11   -5    3      2.06      0.00
  -10   -5    3     -0.19      0.00
   -9   -5    3     -1.61      0.00
   -8   -5    3     -0.04      0.00
   -7   -5    3      0.61      0.00
   -6   -5    3      1.86      0.00
   -5   -5    3     -5.06      0.00
   -4   -5    3     -2.00      0.00
   -3   -5    3     -6.35      0.00
   -2   -5    3     11.27      0.00
   -1   -5    3    -19.25      0.00
    0   -5    3     -0.78      0.00
    1   -5    3      6.48      0.00
    2   -5    3      1.59      0.00
    3   -5    3     -2.39      0.00
    4   -5    3     -2.60      0.00
    5   -5    3      0.40      0.00
    6   -5    3      1.14      0.00
    7   -5    3      2.45      0.00
    8   -5    3      0.39      0.00
    9   -5    3     -0.73      0.00
   10   -5    3      0.32      0.00
   11   -5    3      0.44      0.00
   12   -5    3      0.26      0.00
   13   -5    3      0.38      0.00
  -12   -4    3      1.59      0.00
  -11   -4    3     -0.69      0.00
  -10   -4    3      0.41      0.00
   -9   -4    3      1.45      0.00
   -8   -4    3      0.42      0.00
   -7   -4    3      1.58      0.00
   -6   -4    3     -3.28      0.00
   -5   -4    3     -4.09      0.00
   -4   -4    3     -8.06      0.00
   -3   -4    3      9.73      0.00
   -2   -4    3    -10.86      0.00
   -1   -4    3     -8.65      0.00
    0   -4    3      2.69      0.00
    1   -4    3     14.75      0.00
    2   -4    3      1.23      0.00
    3   -4    3     -5.40      0.00
    4   -4    3     -3.04      0.00
    5   -4    3      3.71      0.00
    6   -4    3      1.60      0.00
    7   -4    3     -0.51      0.00
    8   -4    3     -6.58      0.00
    9   -4    3     -6.32      0.00
   10   -4    3      1.70      0.00
   11   -4    3     -0.82      0.00
   12   -4    3     -0.93      0.00
   13   -4    3      0.49      0.00
   14   -4    3      0.79      0.00
  -12   -3    3     -0.12      0.00
  -11   -3    3     -1.61      0.00
  -10   -3    3      0.36      0.00
   -9   -3    3      2.24      0.00
   -8   -3    3      0.10      0.00
   -7   -3    3     -0.35      0.00
   -6   -3    3     -3.21      0.00
   -5   -3    3     -8.55      0.00
   -4   -3    3     -2.32      0.00
   -3   -3    3     -3.10      0.00
   -2   -3    3     -3.38      0.00
   -1   -3    3    -19.46      0.00
    0   -3    3      7.63      0.00
    1   -3    3     15.94      0.00
    2   -3    3      1.01      0.00
    3   -3    3    -10.73      0.00
    4   -3    3      0.49      0.00
    5   -3    3      3.23      0.00
    6   -3    3      3.17      0.00
    7   -3    3     -0.42      0.00
    8   -3    3     -3.93      0.00
    9   -3    3     -0.29      0.00
   10   -3    3      0.06      0.00
   11   -3    3     -0.48      0.00
   12   -3    3      0.10      0.00
   13   -3    3      1.16      0.00
   14   -3    3     -1.19      0.00
  -12   -2    3     -0.64      0.00
  -11   -2    3     -0.13      0.00
  -10   -2    3      2.19      0.00
   -9   -2    3      0.60      0.00
   -8   -2    3     -1.86      0.00
   -7   -2    3      0.34      0.00
   -6   -2    3     -2.18      0.00
   -5   -2    3     -3.10      0.00
   -4   -2    3      4.83      0.00
   -3   -2    3      0.35      0.00
   -2   -2    3     -2.13      0.00
   -1   -2    3    -32.92      0.00
    0   -2    3     52.42      0.00
    1   -2    3     11.61      0.00
    2   -2    3     -5.32      0.00
    3   -2    3     -8.12      0.00
    4   -2    3     -2.86      0.00
    5   -2    3     10.40      0.00
    6   -2    3     -0.11      0.00
    7   -2    3     -2.81      0.00
    8   -2    3     -1.54      0.00
    9   -2    3     -0.80      0.00
   10   -2    3      0.52      0.00
   11   -2    3     -2.64      0.00
   12   -2    3     -0.32      0.00
   13   -2    3      0.00      0.00
   14   -2    3      2.50      0.00
  -12   -1    3     -1.44      0.00
  -11   -1    3      0.56      0.00
  -10   -1    3      2.02      0.00
   -9   -1    3     -1.12      0.00
   -8   -1    3     -0.75      0.00
   -7   -1    3     -0.60      0.00
   -6   -1    3     -2.19      0.00
   -5   -1    3     -3.28      0.00
   -4   -1    3      1.52      0.00
   -3   -1    3      5.06      0.00
   -2   -1    3    -14.15      0.00
   -1   -1    3     26.60      0.00
    0   -1    3      6.78      0.00
    1   -1    3      9.94      0.00
    2   -1    3    -22.76      0.00
    3   -1    3    -13.76      0.00
    4   -1    3     -0.01      0.00
    5   -1    3      2.15      0.00
    6   -1    3     -2.11      0.00
    7   -1    3     -1.88      0.00
    8   -1    3     -2.09      0.00
    9   -1    3      0.35      0.00
   10   -1    3     -1.14      0.00
   11   -1    3     -0.80      0.00
   12   -1    3      0.51      0.00
   13   -1    3      1.42      0.00
   14   -1    3     -0.64      0.00
  -12    0    3     -2.92      0.00
  -11    0    3      1.90      0.00
  -10    0    3     -0.16      0.00
   -9    0    3     -0.62      0.00
   -8    0    3     -1.31      0.00
   -7    0    3      1.08      0.00
   -6    0    3     -5.13      0.00
   -5    0    3      1.67      0.00
   -4    0    3      1.21      0.00
   -3    0    3     -1.04      0.00
   -2    0    3      9.06      0.00
   -1    0    3      3.01      0.00
    0    0    3     83.79      0.00
    1    0    3     18.78      0.00
    2    0    3     -1.88      0.00
    3    0    3      1.36      0.00
    4    0    3      1.84      0.00
    5    0    3      6.82      0.00
    6    0    3      0.80      0.00
    7    0    3     -3.12      0.00
    8    0    3      1.28      0.00
    9    0    3      0.46      0.00
   10    0    3     -0.36      0.00
   11    0    3     -0.77      0.00
   12    0    3      0.47      0.00
   13    0    3      1.12      0.00
   14    0    3      1.76      0.00
  -12    1    3     -0.90      0.00
  -11    1    3      1.94      0.00
  -10    1    3      0.69      0.00
   -9    1    3      0.86      0.00
   -8    1    3     -0.26      0.00
   -7    1    3      0.58      0.00
   -6    1    3     -0.62      0.00
   -5    1    3     -5.05      0.00
   -4    1    3      2.20      0.00
   -3    1    3     -2.31      0.00
   -2    1    3      1.78      0.00
   -1    1    3     24.40      0.00
    0    1    3     43.55      0.00
    1    1    3    -44.16      0.00
    2    1    3     -9.77      0.00
    3    1    3    -14.35      0.00
    4    1    3      4.76      0.00
    5    1    3      3.63      0.00
    6    1    3      1.18      0.00
    7    1    3      1.54      0.00
    8    1    3      0.45      0.00
    9    1    3     -0.68      0.00
   10    1    3      1.04      0.00
   11    1    3      0.32      0.00
   12    1    3      0.42      0.00
   13    1    3      1.61      0.00
   14    1    3     -1.10      0.00
   15    1    3      0.56      0.00
  -13    2    3      0.73      0.00
  -12    2    3     -0.84      0.00
  -11    2    3     -0.48      0.00
  -10    2    3     -1.02      0.00
   -9    2    3     -0.30      0.00
   -8    2    3      1.33      0.00
   -7    2    3      0.52      0.00
   -6    2    3     -3.85      0.00
   -5    2    3      5.04      0.00
   -4    2    3      4.60      0.00
   -3    2    3      4.66      0.00
   -2    2    3     12.83      0.00
   -1    2    3     31.20      0.00
    0    2    3     22.99      0.00
    1    2    3      4.60      0.00
    2    2    3    -22.06      0.00
    3    2    3      2.87      0.00
    4    2    3     -7.51      0.00
    5    2    3      6.77      0.00
    6    2    3     -1.00      0.00
    7    2    3     -0.18      0.00
    8    2    3      0.31      0.00
    9    2    3      2.23      0.00
   10    2    3      0.92      0.00
   11    2    3      1.05      0.00
   12    2    3     -0.57      0.00
   13    2    3      1.16      0.00
   14    2    3      1.63      0.00
   15    2    3     -1.01      0.00
  -13    3    3      1.39      0.00
  -12    3    3     -0.78      0.00
  -11    3    3     -1.06      0.00
  -10    3    3      0.37      0.00
   -9    3    3      0.82      0.00
   -8    3    3      0.52      0.00
   -7    3    3     -1.52      0.00
   -6    3    3     -3.12      0.00
   -5    3    3      4.56      0.00
   -4    3    3     -0.71      0.00
   -3    3    3      0.06      0.00
   -2    3    3     13.61      0.00
   -1    3    3     37.62      0.00
    0    3    3     51.88      0.00
    1    3    3    -13.13      0.00
    2    3    3      3.19      0.00
    3    3    3      0.12      0.00
    4    3    3     -1.85      0.00
    5    3    3      3.93      0.00
    6    3    3      0.02      0.00
    7    3    3      1.32      0.00
    8    3    3      0.53      0.00
    9    3    3      0.60      0.00
   10    3    3      1.05      0.00
   11    3    3     -1.50      0.00
   12    3    3      0.81      0.00
   13    3    3     -0.71      0.00
   14    3    3     -1.85      0.00
   15    3    3      0.22      0.00
  -13    4    3      1.15      0.00
  -12    4    3      0.95      0.00
  -11    4    3     -2.39      0.00
  -10    4    3     -0.53      0.00
   -9    4    3      1.96      0.00
   -8    4    3     -1.08      0.00
   -7    4    3     -0.91      0.00
   -6    4    3     -0.95      0.00
   -5    4    3      1.13      0.00
   -4    4    3      2.38      0.00
   -3    4    3     -4.72      0.00
   -2    4    3      8.25      0.00
   -1    4    3     21.01      0.00
    0    4    3      6.74      0.00
    1    4    3    -21.29      0.00
    2    4    3      3.19      0.00
    3    4    3     -3.98      0.00
    4    4    3      7.80      0.00
    5    4    3      3.61      0.00
    6    4    3      4.18      0.00
    7    4    3      1.24      0.00
    8    4    3      2.58      0.00
    9    4    3      1.45      0.00
   10    4    3     -0.33      0.00
   11    4    3     -0.25      0.00
   12    4    3     -1.51      0.00
   13    4    3      0.61      0.00
   14    4    3     -2.65      0.00
   15    4    3      0.41      0.00
  -13    5    3      3.05      0.00
  -12    5    3     -1.48      0.00
  -11    5    3      2.30      0.00
  -10    5    3      2.43      0.00
   -9    5    3      1.54      0.00
   -8    5    3     -0.58      0.00
   -7    5    3      0.38      0.00
   -6    5    3      1.25      0.00
   -5    5    3      4.06      0.00
   -4    5    3     -4.39      0.00
   -3    5    3     -2.61      0.00
   -2    5    3     12.16      0.00
   -1    5    3     23.63      0.00
    0    5    3     12.74      0.00
    1    5    3     -2.71      0.00
    2    5    3      0.16      0.00
    3    5    3      5.55      0.00
    4    5    3     -5.40      0.00
    5    5    3      4.56      0.00
    6    5    3     -3.03      0.00
    7    5    3      4.12      0.00
    8    5    3     -1.54      0.00
    9    5    3     -0.84      0.00
   10    5    3     -0.11      0.00
   11    5    3      1.74      0.00
   12    5    3      1.00      0.00
   13    5    3      1.73      0.00
   14    5    3      0.99      0.00
   15    5    3      1.52      0.00
  -12    6    3     -0.78      0.00
  -11    6    3     -2.34      0.00
  -10    6    3      0.68      0.00
   -9    6    3     -1.05      0.00
   -8    6    3      1.27      0.00
   -7    6    3      0.71      0.00
   -6    6    3     -0.85      0.00
   -5    6    3     -2.21      0.00
   -4    6    3     -6.31      0.00
   -3    6    3      0.92      0.00
   -2    6    3     12.09      0.00
   -1    6    3      8.42      0.00
    0    6    3      0.17      0.00
    1    6    3    -14.46      0.00
    2    6    3      8.53      0.00
    3    6    3      1.47      0.00
    4    6    3     -3.29      0.00
    5    6    3     -1.56      0.00
    6    6    3      2.05      0.00
    7    6    3      2.78      0.00
    8    6    3      0.55      0.00
    9    6    3     -1.90      0.00
   10    6    3      1.53      0.00
   11    6    3     -2.17      0.00
   12    6    3      0.48      0.00
   13    6    3     -0.64      0.00
   14    6    3     -1.37      0.00
   15    6    3      2.19      0.00
  -11    7    3      1.65      0.00
  -10    7    3      2.06      0.00
   -9    7    3      2.14      0.00
   -8    7    3     -0.58      0.00
   -7    7    3      0.34      0.00
   -6    7    3     -0.95      0.00
   -5    7    3     -1.78      0.00
   -4    7    3     -6.16      0.00
   -3    7    3     -5.41      0.00
   -2    7    3      5.06      0.00
   -1    7    3      4.44      0.00
    0    7    3     -3.69      0.00
    1    7    3     -0.58      0.00
    2    7    3      9.64      0.00
    3    7    3     -2.59      0.00
    4    7    3     -2.67      0.00
    5    7    3     -2.14      0.00
    6    7    3      1.12      0.00
    7    7    3     -1.78      0.00
    8    7    3     -1.80      0.00
    9    7    3      0.25      0.00
   10    7    3     -1.33      0.00
   11    7    3     -0.84      0.00
   12    7    3      1.58      0.00
   13    7    3      0.86      0.00
   14    7    3      0.31      0.00
  -11    8    3      1.04      0.00
  -10    8    3     -2.60      0.00
   -9    8    3      1.61      0.00
   -8    8    3      1.52      0.00
   -7    8    3     -0.99      0.00
   -6    8    3     -0.78      0.00
   -5    8    3     -2.71      0.00
   -4    8    3     -6.56      0.00
   -3    8    3     -3.05      0.00
   -2    8    3      3.73      0.00
   -1    8    3     -0.07      0.00
    0    8    3     -0.82      0.00
    1    8    3     -0.09      0.00
    2    8    3      5.63      0.00
    3    8    3     -2.02      0.00
    4    8    3     -6.50      0.00
    5    8    3      0.96      0.00
    6    8    3     -0.71      0.00
    7    8    3      1.78      0.00
    8    8    3     -2.65      0.00
    9    8    3     -1.33      0.00
   10    8    3     -1.16      0.00
   11    8    3      1.32      0.00
   12    8    3     -0.62      0.00
   13    8    3      1.06      0.00
   14    8    3     -1.95      0.00
  -11    9    3      1.10      0.00
  -10    9    3      0.75      0.00
   -9    9    3     -0.41      0.00
   -8    9    3      1.13      0.00
   -7    9    3     -1.55      0.00
   -6    9    3     -1.51      0.00
   -5    9    3     -0.86      0.00
   -4    9    3     -2.96      0.00
   -3    9    3     -2.88      0.00
   -2    9    3      1.18      0.00
   -1    9    3     -0.79      0.00
    0    9    3     -0.54      0.00
    1    9    3     -0.82      0.00
    2    9    3      5.51      0.00
    3    9    3     -6.77      0.00
    4    9    3     -2.45      0.00
    5    9    3      2.23      0.00
    6    9    3     -2.65      0.00
    7    9    3     -2.26      0.00
    8    9    3     -3.16      0.00
    9    9    3     -1.39      0.00
   10    9    3      0.79      0.00
   11    9    3     -1.10      0.00
   12    9    3     -0.11      0.00
   13    9    3      1.02      0.00
   14    9    3      1.35      0.00
  -10   10    3     -3.98      0.00
   -9   10    3      1.26      0.00
   -8   10    3      0.15      0.00
   -7   10    3     -0.98      0.00
   -6   10    3     -2.16      0.00
   -5   10    3     -1.55      0.00
   -4   10    3     -1.11      0.00
   -3   10    3     -0.65      0.00
   -2   10    3      1.61      0.00
   -1   10    3     -1.17      0.00
    0   10    3     -0.58      0.00
    1   10    3      1.71      0.00
    2   10    3      0.55      0.00
    3   10    3     -2.16      0.00
    4   10    3     -1.33      0.00
    5   10    3     -0.65      0.00
    6   10    3     -0.84      0.00
    7   10    3     -1.96      0.00
    8   10    3     -1.38      0.00
    9   10    3      1.66      0.00
   10   10    3      0.01      0.00
   11   10    3      0.87      0.00
   12   10    3      0.03      0.00
   13   10    3      0.12      0.00
   14   10    3      1.31      0.00
   -9   11    3      1.80      0.00
   -8   11    3     -1.52      0.00
   -7   11    3     -3.10      0.00
   -6   11    3     -0.47      0.00
   -5   11    3     -2.35      0.00
   -4   11    3     -3.56      0.00
   -3   11    3     -0.80      0.00
   -2   11    3      0.33      0.00
   -1   11    3     -2.05      0.00
    0   11    3      0.67      0.00
    1   11    3     -0.76      0.00
    2   11    3      2.33      0.00
    3   11    3     -4.64      0.00
    4   11    3     -1.06      0.00
    5   11    3     -1.32      0.00
    6   11    3     -2.71      0.00
    7   11    3      0.05      0.00
    8   11    3     -2.07      0.00
    9   11    3      0.75      0.00
   10   11    3     -0.74      0.00
   11   11    3     -0.40      0.00
   12   11    3      0.44      0.00
   13   11    3      7.54      0.00
   14   11    3      0.60      0.00
   -8   12    3     -2.12      0.00
   -7   12    3      0.36      0.00
   -6   12    3     -2.05      0.00
   -5   12    3     -0.06      0.00
   -4   12    3     -1.18      0.00
   -3   12    3     -0.31      0.00
   -2   12    3      3.02      0.00
   -1   12    3     -0.33      0.00
    0   12    3      2.12      0.00
    1   12    3      0.10      0.00
    2   12    3      0.19      0.00
    3   12    3     -2.74      0.00
    4   12    3     -3.11      0.00
    5   12    3     -0.83      0.00
    6   12    3      0.19      0.00
    7   12    3     -1.67      0.00
    8   12    3     -0.69      0.00
    9   12    3      1.03      0.00
   10   12    3     -3.00      0.00
   11   12    3      1.36      0.00
   12   12    3     -2.98      0.00
   13   12    3      0.60      0.00
   14   12    3     -0.23      0.00
   -8   13    3     -1.06      0.00
   -7   13    3      2.34      0.00
   -6   13    3      1.14      0.00
   -5   13    3     -1.13      0.00
   -4   13    3     -0.02      0.00
   -3   13    3      3.35      0.00
   -2   13    3      1.31      0.00
   -1   13    3      0.78      0.00
    0   13    3      1.89      0.00
    1   13    3      2.89      0.00
    2   13    3     -0.25      0.00
    3   13    3      0.10      0.00
    4   13    3     -0.45      0.00
    5   13    3     -1.27      0.00
    6   13    3     -0.87      0.00
    7   13    3     -0.67      0.00
    8   13    3      0.10      0.00
    9   13    3      1.55      0.00
   10   13    3      1.92      0.00
   11   13    3     -1.22      0.00
   12   13    3     -0.87      0.00
   -7   14    3      2.49      0.00
   -6   14    3     -0.41      0.00
   -5   14    3      1.00      0.00
   -4   14    3      0.08      0.00
   -3   14    3      3.17      0.00
   -2   14    3      1.43      0.00
   -1   14    3      1.27      0.00
    0   14    3      1.64      0.00
    1   14    3      1.99      0.00
    2   14    3      1.85      0.00
    3   14    3      0.37      0.00
    4   14    3      2.15      0.00
    5   14    3      0.24      0.00
    6   14    3      0.28      0.00
    7   14    3      0.11      0.00
    8   14    3      2.22      0.00
    9   14    3      3.65      0.00
   10   14    3     -4.66      0.00
   11   14    3      0.13      0.00
   -7   15    3      0.48      0.00
   -6   15    3     -0.70      0.00
   -5   15    3     -3.02      0.00
   -4   15    3     -2.23      0.00
   -3   15    3      0.57      0.00
   -2   15    3      1.06      0.00
   -1   15    3     -0.22      0.00
    0   15    3      1.08      0.00
    1   15    3     -2.53      0.00
    2   15    3     -3.08      0.00
    3   15    3     -0.03      0.00
    4   15    3      0.55      0.00
    5   15    3     -0.19      0.00
    6   15    3     -0.15      0.00
    7   15    3      2.81      0.00
    8   15    3     -0.12      0.00
    9   15    3      4.83      0.00
   10   15    3      1.06      0.00
   11   15    3      0.96      0.00
   -6   16    3      2.52      0.00
   -5   16    3      0.09      0.00
   -4   16    3      1.32      0.00
   -3   16    3      5.71      0.00
   -2   16    3      2.25      0.00
   -1   16    3      0.97      0.00
    0   16    3      0.71      0.00
    1   16    3     -0.18      0.00
    2   16    3     -0.37      0.00
    3   16    3      0.64      0.00
    4   16    3     -0.01      0.00
    5   16    3     -2.34      0.00
    6   16    3     -1.74      0.00
    7   16    3      1.86      0.00
    8   16    3      1.52      0.00
    9   16    3      0.36      0.00
   10   16    3      1.60      0.00
   -2   17    3      2.74      0.00
   -1   17    3     -0.72      0.00
    0   17    3     -4.79      0.00
    1   17    3     -1.94      0.00
    2   17    3     -0.75      0.00
    3   17    3      0.22      0.00
    4   17    3     -1.89      0.00
    5   17    3     -1.03      0.00
    6   17    3      0.10      0.00
    7   17    3     -1.51      0.00
    8   17    3     -0.97      0.00
    0   18    3     -6.00      0.00
    1   18    3      4.38      0.00
    2   18    3      0.49      0.00
    3   18    3     -0.40      0.00
    4   18    3      2.11      0.00
    5   18    3     -0.47      0.00
    6   18    3      3.90      0.00
   -4  -17    4     -4.03      0.00
   -3  -17    4     -0.24      0.00
   -2  -17    4     -4.40      0.00
   -1  -17    4     -1.29      0.00
    0  -17    4      3.20      0.00
    1  -17    4     -1.13      0.00
   -6  -16    4      1.42      0.00
   -5  -16    4      3.88      0.00
   -4  -16    4      0.22      0.00
   -3  -16    4      0.41      0.00
   -2  -16    4     -0.50      0.00
   -1  -16    4      0.55      0.00
    0  -16    4     -2.06      0.00
    1  -16    4     -3.11      0.00
    2  -16    4      0.66      0.00
    3  -16    4      0.20      0.00
    4  -16    4     -1.38      0.00
    5  -16    4      1.03      0.00
   -6  -15    4      5.76      0.00
   -5  -15    4      0.99      0.00
   -4  -15    4      0.36      0.00
   -3  -15    4      2.83      0.00
   -2  -15    4     -1.65      0.00
   -1  -15    4      1.78      0.00
    0  -15    4     -4.06      0.00
    1  -15    4      0.73      0.00
    2  -15    4     -1.10      0.00
    3  -15    4     -0.14      0.00
    4  -15    4      1.73      0.00
    5  -15    4     -1.22      0.00
    6  -15    4     -2.16      0.00
   -8  -14    4     -1.87      0.00
   -7  -14    4      0.99      0.00
   -6  -14    4     -2.57      0.00
   -5  -14    4      0.42      0.00
   -4  -14    4     -0.43      0.00
   -3  -14    4      1.32      0.00
   -2  -14    4      0.32      0.00
   -1  -14    4      1.70      0.00
    0  -14    4     -0.11      0.00
    1  -14    4     -0.40      0.00
    2  -14    4     -1.31      0.00
    3  -14    4     -0.55      0.00
    4  -14    4      1.23      0.00
    5  -14    4     -0.91      0.00
    6  -14    4      0.00      0.00
    7  -14    4      1.65      0.00
   -8  -13    4     -1.29      0.00
   -7  -13    4      0.16      0.00
   -6  -13    4      0.63      0.00
   -5  -13    4     -0.11      0.00
   -4  -13    4      1.67      0.00
   -3  -13    4      2.29      0.00
   -2  -13    4      1.01      0.00
   -1  -13    4      0.97      0.00
    0  -13    4     -1.11      0.00
    1  -13    4     -0.59      0.00
    2  -13    4     -1.52      0.00
    3  -13    4      0.93      0.00
    4  -13    4     -0.09      0.00
    5  -13    4      2.34      0.00
    6  -13    4     -0.04      0.00
    7  -13    4     -1.92      0.00
    8  -13    4      1.51      0.00
  -10  -12    4     -0.27      0.00
   -9  -12    4      2.55      0.00
   -8  -12    4      0.96      0.00
   -7  -12    4      1.88      0.00
   -6  -12    4     -0.56      0.00
   -5  -12    4      1.17      0.00
   -4  -12    4      2.16      0.00
   -3  -12    4     -0.68      0.00
   -2  -12    4      1.76      0.00
   -1  -12    4      3.52      0.00
    0  -12    4      0.20      0.00
    1  -12    4      0.24      0.00
    2  -12    4      2.22      0.00
    3  -12    4      0.44      0.00
    4  -12    4      1.93      0.00
    5  -12    4      1.19      0.00
    6  -12    4     -0.20      0.00
    7  -12    4     -0.66      0.00
    8  -12    4      2.69      0.00
  -12  -11    4     -1.81      0.00
  -11  -11    4     -0.18      0.00
  -10  -11    4      1.01      0.00
   -9  -11    4     -1.42      0.00
   -8  -11    4     -0.54      0.00
   -7  -11    4     -0.61      0.00
   -6  -11    4      0.71      0.00
   -5  -11    4     -0.04      0.00
   -4  -11    4      0.55      0.00
   -3  -11    4      0.70      0.00
   -2  -11    4      2.10      0.00
   -1  -11    4      1.21      0.00
    0  -11    4     -2.18      0.00
    1  -11    4      0.25      0.00
    2  -11    4     -0.81      0.00
    3  -11    4     -3.30      0.00
    4  -11    4      2.13      0.00
    5  -11    4      0.23      0.00
    6  -11    4     -0.92      0.00
    7  -11    4      0.66      0.00
    8  -11    4      4.22      0.00
    9  -11    4      3.84      0.00
  -12  -10    4      0.53      0.00
  -11  -10    4      0.40      0.00
  -10  -10    4      1.47      0.00
   -9  -10    4      1.04      0.00
   -8  -10    4     -1.08      0.00
   -7  -10    4     -0.03      0.00
   -6  -10    4     -0.35      0.00
   -5  -10    4      1.17      0.00
   -4  -10    4      0.63      0.00
   -3  -10    4      0.33      0.00
   -2  -10    4      1.84      0.00
   -1  -10    4      0.65      0.00
    0  -10    4      0.54      0.00
    1  -10    4      0.67      0.00
    2  -10    4     -1.69      0.00
    3  -10    4     -1.23      0.00
    4  -10    4      0.77      0.00
    5  -10    4      0.51      0.00
    6  -10    4     -1.84      0.00
    7  -10    4      1.22      0.00
    8  -10    4      0.35      0.00
    9  -10    4      0.04      0.00
   10  -10    4     -0.16      0.00
  -12   -9    4     -0.71      0.00
  -11   -9    4      0.16      0.00
  -10   -9    4     -0.07      0.00
   -9   -9    4      0.98      0.00
   -8   -9    4      0.79      0.00
   -7   -9    4      1.18      0.00
   -6   -9    4     -1.71      0.00
   -5   -9    4      0.97      0.00
   -4   -9    4     -1.02      0.00
   -3   -9    4      2.46      0.00
   -2   -9    4      1.99      0.00
   -1   -9    4      3.35      0.00
    0   -9    4     -2.45      0.00
    1   -9    4     -0.70      0.00
    2   -9    4     -1.51      0.00
    3   -9    4      0.22      0.00
    4   -9    4      1.36      0.00
    5   -9    4     -0.85      0.00
    6   -9    4      0.83      0.00
    7   -9    4     -0.15      0.00
    8   -9    4      0.47      0.00
    9   -9    4     -0.86      0.00
   10   -9    4      0.49      0.00
   11   -9    4      1.58      0.00
   12   -9    4      0.64      0.00
  -12   -8    4      1.49      0.00
  -11   -8    4      1.80      0.00
  -10   -8    4     -0.13      0.00
   -9   -8    4     -1.17      0.00
   -8   -8    4      1.22      0.00
   -7   -8    4     -1.91      0.00
   -6   -8    4      1.80      0.00
   -5   -8    4      1.26      0.00
   -4   -8    4     -0.98      0.00
   -3   -8    4     -1.16      0.00
   -2   -8    4      2.75      0.00
   -1   -8    4      0.64      0.00
    0   -8    4     -0.75      0.00
    1   -8    4     -2.06      0.00
    2   -8    4     -2.70      0.00
    3   -8    4     -1.71      0.00
    4   -8    4      0.99      0.00
    5   -8    4     -1.40      0.00
    6   -8    4     -0.99      0.00
    7   -8    4     -0.73      0.00
    8   -8    4     -0.56      0.00
    9   -8    4     -1.35      0.00
   10   -8    4     -2.58      0.00
   11   -8    4      0.64      0.00
   12   -8    4      1.01      0.00
  -12   -7    4      2.25      0.00
  -11   -7    4     -1.65      0.00
  -10   -7    4     -1.96      0.00
   -9   -7    4      0.86      0.00
   -8   -7    4     -1.67      0.00
   -7   -7    4     -0.22      0.00
   -6   -7    4     -1.28      0.00
   -5   -7    4     -1.75      0.00
   -4   -7    4      1.53      0.00
   -3   -7    4      9.89      0.00
   -2   -7    4      1.69      0.00
   -1   -7    4      1.76      0.00
    0   -7    4     -2.65      0.00
    1   -7    4     -0.29      0.00
    2   -7    4     -2.27      0.00
    3   -7    4     -0.06      0.00
    4   -7    4     -3.90      0.00
    5   -7    4     -4.59      0.00
    6   -7    4     -0.05      0.00
    7   -7    4      1.59      0.00
    8   -7    4      0.28      0.00
    9   -7    4      1.14      0.00
   10   -7    4     -0.32      0.00
   11   -7    4      0.17      0.00
   12   -7    4     -0.29      0.00
  -12   -6    4      0.61      0.00
  -11   -6    4     -3.00      0.00
  -10   -6    4     -1.63      0.00
   -9   -6    4      1.40      0.00
   -8   -6    4     -1.21      0.00
   -7   -6    4      0.42      0.00
   -6   -6    4     -0.14      0.00
   -5   -6    4      0.25      0.00
   -4   -6    4      0.62      0.00
   -3   -6    4      7.94      0.00
   -2   -6    4     -4.23      0.00
   -1   -6    4      5.73      0.00
    0   -6    4     -0.79      0.00
    1   -6    4     -4.31      0.00
    2   -6    4     -1.72      0.00
    3   -6    4     -3.56      0.00
    4   -6    4     -1.29      0.00
    5   -6    4     -0.78      0.00
    6   -6    4      0.71      0.00
    7   -6    4     -1.03      0.00
    8   -6    4     -0.62      0.00
    9   -6    4     -0.80      0.00
   10   -6    4     -0.42      0.00
   11   -6    4      1.77      0.00
   12   -6    4      0.59      0.00
   13   -6    4     -1.47      0.00
  -12   -5    4      0.54      0.00
  -11   -5    4      0.96      0.00
  -10   -5    4     -0.70      0.00
   -9   -5    4     -1.49      0.00
   -8   -5    4     -1.23      0.00
   -7   -5    4     -2.72      0.00
   -6   -5    4      0.52      0.00
   -5   -5    4     -0.56      0.00
   -4   -5    4      8.85      0.00
   -3   -5    4     -0.34      0.00
   -2   -5    4      9.08      0.00
   -1   -5    4      0.67      0.00
    0   -5    4      1.35      0.00
    1   -5    4     -6.83      0.00
    2   -5    4     -6.03      0.00
    3   -5    4     -0.66      0.00
    4   -5    4     -1.16      0.00
    5   -5    4     -0.99      0.00
    6   -5    4      0.43      0.00
    7   -5    4     -0.76      0.00
    8   -5    4      2.86      0.00
    9   -5    4      5.35      0.00
   10   -5    4     -0.57      0.00
   11   -5    4      1.62      0.00
   12   -5    4      0.97      0.00
   13   -5    4     -0.96      0.00
  -12   -4    4     -1.06      0.00
  -11   -4    4      0.10      0.00
  -10   -4    4     -0.09      0.00
   -9   -4    4     -0.30      0.00
   -8   -4    4     -0.56      0.00
   -7   -4    4     -0.12      0.00
   -6   -4    4     -1.49      0.00
   -5   -4    4      2.35      0.00
   -4   -4    4      4.06      0.00
   -3   -4    4      8.37      0.00
   -2   -4    4     -4.92      0.00
   -1   -4    4     10.93      0.00
    0   -4    4      0.19      0.00
    1   -4    4     -7.56      0.00
    2   -4    4     -5.60      0.00
    3   -4    4      3.22      0.00
    4   -4    4      1.02      0.00
    5   -4    4     -0.46      0.00
    6   -4    4     -1.46      0.00
    7   -4    4     -3.74      0.00
    8   -4    4      0.42      0.00
    9   -4    4     -0.51      0.00
   10   -4    4     -0.95      0.00
   11   -4    4      0.78      0.00
   12   -4    4      0.25      0.00
   13   -4    4     -0.75      0.00
   14   -4    4      1.36      0.00
  -12   -3    4      1.06      0.00
  -11   -3    4      0.45      0.00
  -10   -3    4     -0.26      0.00
   -9   -3    4     -0.08      0.00
   -8   -3    4     -0.29      0.00
   -7   -3    4     -0.77      0.00
   -6   -3    4      0.44      0.00
   -5   -3    4      0.46      0.00
   -4   -3    4     -0.56      0.00
   -3   -3    4     -4.75      0.00
   -2   -3    4     -4.09      0.00
   -1   -3    4     12.57      0.00
    0   -3    4    -14.85      0.00
    1   -3    4    -10.71      0.00
    2   -3    4      0.68      0.00
    3   -3    4      4.41      0.00
    4   -3    4      3.72      0.00
    5   -3    4     -5.73      0.00
    6   -3    4     -1.77      0.00
    7   -3    4     -0.46      0.00
    8   -3    4      1.98      0.00
    9   -3    4      0.87      0.00
   10   -3    4     -1.45      0.00
   11   -3    4      1.71      0.00
   12   -3    4     -0.12      0.00
   13   -3    4      0.08      0.00
   14   -3    4     -0.05      0.00
  -12   -2    4      1.73      0.00
  -11   -2    4      1.16      0.00
  -10   -2    4     -0.90      0.00
   -9   -2    4     -0.99      0.00
   -8   -2    4     -0.34      0.00
   -7   -2    4      0.91      0.00
   -6   -2    4     -0.03      0.00
   -5   -2    4      1.43      0.00
   -4   -2    4      2.52      0.00
   -3   -2    4     -5.04      0.00
   -2   -2    4     12.05      0.00
   -1   -2    4    -10.85      0.00
    0   -2    4     -1.56      0.00
    1   -2    4    -15.53      0.00
    2   -2    4      2.40      0.00
    3   -2    4      8.47      0.00
    4   -2    4     -1.30      0.00
    5   -2    4     -1.56      0.00
    6   -2    4     -0.94      0.00
    7   -2    4      0.89      0.00
    8   -2    4      2.23      0.00
    9   -2    4     -0.81      0.00
   10   -2    4      0.65      0.00
   11   -2    4      2.32      0.00
   12   -2    4      0.40      0.00
   13   -2    4     -1.32      0.00
   14   -2    4      1.86      0.00
  -12   -1    4      2.27      0.00
  -11   -1    4     -0.37      0.00
  -10   -1    4     -0.41      0.00
   -9   -1    4     -1.16      0.00
   -8   -1    4      0.42      0.00
   -7   -1    4     -2.30      0.00
   -6   -1    4     -0.17      0.00
   -5   -1    4     -2.47      0.00
   -4   -1    4     -3.83      0.00
   -3   -1    4     -0.25      0.00
   -2   -1    4     -8.03      0.00
   -1   -1    4     14.67      0.00
    0   -1    4    -42.94      0.00
    1   -1    4     -6.43      0.00
    2   -1    4      0.66      0.00
    3   -1    4      3.19      0.00
    4   -1    4      0.04      0.00
    5   -1    4     -7.06      0.00
    6   -1    4     -2.24      0.00
    7   -1    4     -0.17      0.00
    8   -1    4     -1.42      0.00
    9   -1    4     -2.51      0.00
   10   -1    4      0.83      0.00
   11   -1    4      2.27      0.00
   12   -1    4     -0.31      0.00
   13   -1    4     -0.74      0.00
   14   -1    4     -1.32      0.00
  -12    0    4     -0.13      0.00
  -11    0    4     -1.13      0.00
  -10    0    4     -2.33      0.00
   -9    0    4      0.48      0.00
   -8    0    4      0.18      0.00
   -7    0    4     -1.22      0.00
   -6    0    4     -3.79      0.00
   -5    0    4      1.88      0.00
   -4    0    4     -1.82      0.00
   -3    0    4      0.10      0.00
   -2    0    4      3.40      0.00
   -1    0    4    -16.27      0.00
    0    0    4    -18.02      0.00
    1    0    4     20.68      0.00
    2    0    4     14.39      0.00
    3    0    4     12.85      0.00
    4    0    4      2.47      0.00
    5    0    4     -1.38      0.00
    6    0    4      0.93      0.00
    7    0    4     -2.31      0.00
    8    0    4     -0.08      0.00
    9    0    4     -0.13      0.00
   10    0    4      1.20      0.00
   11    0    4      1.00      0.00
   12    0    4     -2.16      0.00
   13    0    4     -0.75      0.00
   14    0    4      1.16      0.00
  -12    1    4      2.22      0.00
  -11    1    4      0.32      0.00
  -10    1    4      0.68      0.00
   -9    1    4      0.77      0.00
   -8    1    4     -0.13      0.00
   -7    1    4     -1.79      0.00
   -6    1    4      0.75      0.00
   -5    1    4     -2.83      0.00
   -4    1    4      1.51      0.00
   -3    1    4     -3.91      0.00
   -2    1    4    -11.10      0.00
   -1    1    4    -18.16      0.00
    0    1    4    -16.18      0.00
    1    1    4     -9.64      0.00
    2    1    4      5.73      0.00
    3    1    4     -4.08      0.00
    4    1    4      4.95      0.00
    5    1    4     -8.30      0.00
    6    1    4     -2.90      0.00
    7    1    4      0.84      0.00
    8    1    4     -0.84      0.00
    9    1    4     -2.80      0.00
   10    1    4      0.46      0.00
   11    1    4     -1.43      0.00
   12    1    4     -0.98      0.00
   13    1    4      0.01      0.00
   14    1    4     -0.18      0.00
  -12    2    4      0.09      0.00
  -11    2    4     -0.98      0.00
  -10    2    4     -0.72      0.00
   -9    2    4     -1.00      0.00
   -8    2    4     -1.05      0.00
   -7    2    4     -2.08      0.00
   -6    2    4     -0.69      0.00
   -5    2    4      0.51      0.00
   -4    2    4      4.18      0.00
   -3    2    4      4.13      0.00
   -2    2    4     -1.80      0.00
   -1    2    4    -13.19      0.00
    0    2    4    -32.08      0.00
    1    2    4     18.50      0.00
    2    2    4     -3.19      0.00
    3    2    4      6.53      0.00
    4    2    4     -3.27      0.00
    5    2    4     -8.03      0.00
    6    2    4     -3.55      0.00
    7    2    4     -0.13      0.00
    8    2    4     -2.17      0.00
    9    2    4     -1.90      0.00
   10    2    4     -0.63      0.00
   11    2    4      1.30      0.00
   12    2    4     -1.16      0.00
   13    2    4      0.59      0.00
   14    2    4      0.13      0.00
   15    2    4     -2.12      0.00
  -12    3    4     -0.85      0.00
  -11    3    4      0.52      0.00
  -10    3    4      1.30      0.00
   -9    3    4     -1.57      0.00
   -8    3    4     -0.80      0.00
   -7    3    4     -2.41      0.00
   -6    3    4      0.18      0.00
   -5    3    4     -0.11      0.00
   -4    3    4     -1.26      0.00
   -3    3    4      2.88      0.00
   -2    3    4      0.32      0.00
   -1    3    4     -7.38      0.00
    0    3    4      3.62      0.00
    1    3    4     14.05      0.00
    2    3    4      2.08      0.00
    3    3    4     12.28      0.00
    4    3    4     -4.91      0.00
    5    3    4     -9.29      0.00
    6    3    4     -2.96      0.00
    7    3    4      0.69      0.00
    8    3    4     -2.41      0.00
    9    3    4     -3.57      0.00
   10    3    4      0.25      0.00
   11    3    4      0.21      0.00
   12    3    4      0.74      0.00
   13    3    4     -0.48      0.00
   14    3    4      0.08      0.00
   15    3    4     -0.86      0.00
  -12    4    4      1.11      0.00
  -11    4    4     -1.50      0.00
  -10    4    4     -1.06      0.00
   -9    4    4     -0.72      0.00
   -8    4    4     -0.49      0.00
   -7    4    4      1.40      0.00
   -6    4    4      0.45      0.00
   -5    4    4     -3.28      0.00
   -4    4    4      4.88      0.00
   -3    4    4      5.18      0.00
   -2    4    4     -1.90      0.00
   -1    4    4    -13.85      0.00
    0    4    4    -23.54      0.00
    1    4    4     -7.91      0.00
    2    4    4      2.00      0.00
    3    4    4     -2.12      0.00
    4    4    4      2.58      0.00
    5    4    4     -8.87      0.00
    6    4    4      6.61      0.00
    7    4    4      0.70      0.00
    8    4    4     -0.96      0.00
    9    4    4     -0.86      0.00
   10    4    4      1.22      0.00
   11    4    4      1.48      0.00
   12    4    4     -1.33      0.00
   13    4    4      0.93      0.00
   14    4    4     -0.98      0.00
   15    4    4     -0.26      0.00
  -12    5    4     -1.79      0.00
  -11    5    4      0.78      0.00
  -10    5    4      0.96      0.00
   -9    5    4      0.62      0.00
   -8    5    4      0.32      0.00
   -7    5    4      1.28      0.00
   -6    5    4      1.81      0.00
   -5    5    4      3.02      0.00
   -4    5    4      8.56      0.00
   -3    5    4      7.28      0.00
   -2    5    4     -2.52      0.00
   -1    5    4     -5.09      0.00
    0    5    4     -3.14      0.00
    1    5    4     13.52      0.00
    2    5    4     -0.72      0.00
    3    5    4      0.99      0.00
    4    5    4     -8.52      0.00
    5    5    4     -1.74      0.00
    6    5    4      1.36      0.00
    7    5    4     -0.37      0.00
    8    5    4     -1.67      0.00
    9    5    4     -0.16      0.00
   10    5    4      1.39      0.00
   11    5    4      1.89      0.00
   12    5    4      0.06      0.00
   13    5    4      2.51      0.00
   14    5    4      0.76      0.00
   15    5    4     -0.27      0.00
  -11    6    4     -1.81      0.00
  -10    6    4     -0.67      0.00
   -9    6    4     -2.73      0.00
   -8    6    4      1.05      0.00
   -7    6    4      1.08      0.00
   -6    6    4      1.19      0.00
   -5    6    4      2.07      0.00
   -4    6    4      7.87      0.00
   -3    6    4      9.71      0.00
   -2    6    4      0.43      0.00
   -1    6    4     -4.54      0.00
    0    6    4      3.02      0.00
    1    6    4      0.84      0.00
    2    6    4     -3.78      0.00
    3    6    4     -2.01      0.00
    4    6    4     -2.17      0.00
    5    6    4      2.51      0.00
    6    6    4      4.48      0.00
    7    6    4     -0.58      0.00
    8    6    4      2.78      0.00
    9    6    4      0.08      0.00
   10    6    4      3.11      0.00
   11    6    4      0.01      0.00
   12    6    4     -0.43      0.00
   13    6    4     -0.58      0.00
   14    6    4     -1.93      0.00
   15    6    4      0.01      0.00
  -11    7    4      1.09      0.00
  -10    7    4      0.84      0.00
   -9    7    4     -0.74      0.00
   -8    7    4     -2.18      0.00
   -7    7    4      1.73      0.00
   -6    7    4     -2.43      0.00
   -5    7    4      3.88      0.00
   -4    7    4      8.37      0.00
   -3    7    4      5.01      0.00
   -2    7    4     -1.38      0.00
   -1    7    4      1.63      0.00
    0    7    4      0.75      0.00
    1    7    4      3.00      0.00
    2    7    4     -4.93      0.00
    3    7    4     -1.23      0.00
    4    7    4      3.68      0.00
    5    7    4      2.64      0.00
    6    7    4      3.64      0.00
    7    7    4     -3.79      0.00
    8    7    4      1.61      0.00
    9    7    4      2.36      0.00
   10    7    4      1.91      0.00
   11    7    4      1.00      0.00
   12    7    4     -0.57      0.00
   13    7    4     -0.86      0.00
   14    7    4      0.24      0.00
   15    7    4     -2.23      0.00
  -11    8    4      1.52      0.00
  -10    8    4     -2.30      0.00
   -9    8    4     -0.74      0.00
   -8    8    4      0.06      0.00
   -7    8    4      0.81      0.00
   -6    8    4     -0.11      0.00
   -5    8    4      3.88      0.00
   -4    8    4      4.83      0.00
   -3    8    4      4.84      0.00
   -2    8    4      2.35      0.00
   -1    8    4      3.05      0.00
    0    8    4      2.31      0.00
    1    8    4     -0.17      0.00
    2    8    4     -7.40      0.00
    3    8    4      2.81      0.00
    4    8    4      0.69      0.00
    5    8    4      2.65      0.00
    6    8    4      2.35      0.00
    7    8    4      1.02      0.00
    8    8    4      2.14      0.00
    9    8    4      1.18      0.00
   10    8    4      0.40      0.00
   11    8    4      1.48      0.00
   12    8    4     -1.21      0.00
   13    8    4      2.75      0.00
   14    8    4     -1.11      0.00
  -11    9    4      1.27      0.00
  -10    9    4      2.71      0.00
   -9    9    4     -0.82      0.00
   -8    9    4     -0.11      0.00
   -7    9    4     -0.85      0.00
   -6    9    4     -0.68      0.00
   -5    9    4      4.53      0.00
   -4    9    4      3.88      0.00
   -3    9    4      4.07      0.00
   -2    9    4      1.42      0.00
   -1    9    4     -0.08      0.00
    0    9    4     -0.16      0.00
    1    9    4     -2.55      0.00
    2    9    4     -1.02      0.00
    3    9    4      0.22      0.00
    4    9    4      0.62      0.00
    5    9    4      3.80      0.00
    6    9    4     -0.05      0.00
    7    9    4      1.06      0.00
    8    9    4      0.68      0.00
    9    9    4     -0.55      0.00
   10    9    4      1.25      0.00
   11    9    4     -1.74      0.00
   12    9    4     -0.35      0.00
   13    9    4      1.37      0.00
   14    9    4     -0.22      0.00
  -10   10    4      1.02      0.00
   -9   10    4      0.29      0.00
   -8   10    4     -0.63      0.00
   -7   10    4      3.59      0.00
   -6   10    4     -0.16      0.00
   -5   10    4      1.50      0.00
   -4   10    4      1.98      0.00
   -3   10    4      2.22      0.00
   -2   10    4      0.69      0.00
   -1   10    4      1.88      0.00
    0   10    4     -0.85      0.00
    1   10    4      1.00      0.00
    2   10    4     -2.83      0.00
    3   10    4      3.50      0.00
    4   10    4      0.68      0.00
    5   10    4      0.46      0.00
    6   10    4      2.97      0.00
    7   10    4     -0.57      0.00
    8   10    4      1.85      0.00
    9   10    4      0.27      0.00
   10   10    4      0.19      0.00
   11   10    4      0.91      0.00
   12   10    4      0.19      0.00
   13   10    4     -3.15      0.00
   14   10    4     -0.24      0.00
   -8   11    4      0.88      0.00
   -7   11    4     -1.25      0.00
   -6   11    4      0.11      0.00
   -5   11    4     -0.61      0.00
   -4   11    4      0.91      0.00
   -3   11    4      1.17      0.00
   -2   11    4     -1.16      0.00
   -1   11    4     -0.29      0.00
    0   11    4     -0.84      0.00
    1   11    4     -0.52      0.00
    2   11    4     -0.15      0.00
    3   11    4      0.34      0.00
    4   11    4      0.67      0.00
    5   11    4      0.95      0.00
    6   11    4     -0.26      0.00
    7   11    4      0.62      0.00
    8   11    4     -0.63      0.00
    9   11    4     -2.67      0.00
   10   11    4      0.96      0.00
   11   11    4     -0.73      0.00
   12   11    4     -1.73      0.00
   13   11    4      2.13      0.00
   14   11    4     -0.41      0.00
   -8   12    4      1.51      0.00
   -7   12    4     -0.80      0.00
   -6   12    4     -2.76      0.00
   -5   12    4      2.22      0.00
   -4   12    4      1.60      0.00
   -3   12    4     -1.98      0.00
   -2   12    4      0.73      0.00
   -1   12    4     -0.45      0.00
    0   12    4     -0.39      0.00
    1   12    4     -3.10      0.00
    2   12    4     -1.07      0.00
    3   12    4     -1.43      0.00
    4   12    4     -0.03      0.00
    5   12    4      0.85      0.00
    6   12    4     -0.29      0.00
    7   12    4     -0.33      0.00
    8   12    4     -0.02      0.00
    9   12    4     -1.96      0.00
   10   12    4     -1.51      0.00
   11   12    4     -0.63      0.00
   12   12    4     -1.81      0.00
   13   12    4     -1.88      0.00
   14   12    4     -1.30      0.00
   -8   13    4      0.50      0.00
   -7   13    4     -1.86      0.00
   -6   13    4      0.84      0.00
   -5   13    4     -0.21      0.00
   -4   13    4      1.38      0.00
   -3   13    4     -2.78      0.00
   -2   13    4     -1.08      0.00
   -1   13    4      0.30      0.00
    0   13    4     -1.28      0.00
    1   13    4      0.22      0.00
    2   13    4     -2.39      0.00
    3   13    4      1.07      0.00
    4   13    4     -0.19      0.00
    5   13    4     -1.91      0.00
    6   13    4     -2.52      0.00
    7   13    4     -1.08      0.00
    8   13    4     -0.61      0.00
    9   13    4     -3.21      0.00
   10   13    4      4.00      0.00
   11   13    4     -0.52      0.00
   12   13    4      1.51      0.00
   13   13    4      0.83      0.00
   -7   14    4     -1.58      0.00
   -6   14    4     -2.53      0.00
   -5   14    4     -1.74      0.00
   -4   14    4     -0.08      0.00
   -3   14    4     -3.98      0.00
   -2   14    4     -2.29      0.00
   -1   14    4      0.09      0.00
    0   14    4     -3.81      0.00
    1   14    4     -1.94      0.00
    2   14    4      2.31      0.00
    3   14    4     -0.78      0.00
    4   14    4      0.01      0.00
    5   14    4      0.42      0.00
    6   14    4     -0.01      0.00
    7   14    4     -0.25      0.00
    8   14    4     -0.04      0.00
    9   14    4     -3.02      0.00
   10   14    4     -2.83      0.00
   11   14    4      0.08      0.00
   12   14    4      3.49      0.00
   -7   15    4     -2.36      0.00
   -6   15    4     -3.10      0.00
   -5   15    4     -2.22      0.00
   -4   15    4     -1.05      0.00
   -3   15    4     -7.39      0.00
   -2   15    4     -0.86      0.00
   -1   15    4     -1.77      0.00
    0   15    4     -2.51      0.00
    1   15    4     -0.90      0.00
    2   15    4      1.11      0.00
    3   15    4     -2.01      0.00
    4   15    4     -2.30      0.00
    5   15    4      0.00      0.00
    6   15    4     -0.19      0.00
    7   15    4     -0.56      0.00
    8   15    4     -1.21      0.00
    9   15    4     -0.85      0.00
   10   15    4      1.00      0.00
   11   15    4      4.54      0.00
   -4   16    4      2.77      0.00
   -3   16    4     -0.98      0.00
   -2   16    4      0.62      0.00
   -1   16    4     -0.70      0.00
    0   16    4      0.50      0.00
    1   16    4      1.37      0.00
    2   16    4      2.72      0.00
    3   16    4     -1.31      0.00
    4   16    4     -0.66      0.00
    5   16    4      0.38      0.00
    6   16    4     -2.41      0.00
    7   16    4     -0.65      0.00
    8   16    4      1.36      0.00
    9   16    4     -6.90      0.00
   10   16    4      1.36      0.00
   -2   17    4      2.16      0.00
   -1   17    4      2.68      0.00
    0   17    4      0.04      0.00
    1   17    4     -1.98      0.00
    2   17    4     -0.46      0.00
    3   17    4      1.18      0.00
    4   17    4     -0.89      0.00
    5   17    4      0.51      0.00
    6   17    4     -3.85      0.00
    7   17    4     -1.22      0.00
    8   17    4      0.73      0.00
    9   17    4     -3.33      0.00
    0   18    4     -3.59      0.00
    1   18    4     -0.82      0.00
    2   18    4      0.40      0.00
    3   18    4      1.23      0.00
    4   18    4      0.63      0.00
    5   18    4      0.79      0.00
    6   18    4      0.14      0.00
    7   18    4      2.19      0.00
   -3  -17    5     -0.96      0.00
   -2  -17    5      1.28      0.00
   -1  -17    5     -2.22      0.00
    0  -17    5      3.86      0.00
    1  -17    5      3.39      0.00
   -5  -16    5     -1.49      0.00
   -4  -16    5      3.97      0.00
   -3  -16    5     -0.20      0.00
   -2  -16    5      3.60      0.00
   -1  -16    5     -2.10      0.00
    0  -16    5      1.66      0.00
    1  -16    5     -1.49      0.00
    2  -16    5      0.49      0.00
    3  -16    5     -1.46      0.00
    4  -16    5     -2.57      0.00
    5  -16    5      1.69      0.00
   -6  -15    5     -0.16      0.00
   -5  -15    5      2.55      0.00
   -4  -15    5      3.51      0.00
   -3  -15    5      1.27      0.00
   -2  -15    5     -0.37      0.00
   -1  -15    5     -0.26      0.00
    0  -15    5      0.95      0.00
    1  -15    5      2.70      0.00
    2  -15    5     -1.32      0.00
    3  -15    5     -2.18      0.00
    4  -15    5      0.55      0.00
    5  -15    5      2.21      0.00
    6  -15    5      0.33      0.00
   -7  -14    5     -1.33      0.00
   -6  -14    5     -2.47      0.00
   -5  -14    5      1.84      0.00
   -4  -14    5     -0.56      0.00
   -3  -14    5     -2.79      0.00
   -2  -14    5     -1.53      0.00
   -1  -14    5     -1.28      0.00
    0  -14    5      1.04      0.00
    1  -14    5     -0.56      0.00
    2  -14    5     -1.29      0.00
    3  -14    5     -2.98      0.00
    4  -14    5     -0.29      0.00
    5  -14    5      0.12      0.00
    6  -14    5      0.61      0.00
    7  -14    5      2.06      0.00
   -8  -13    5     -3.45      0.00
   -7  -13    5     -0.95      0.00
   -6  -13    5      2.34      0.00
   -5  -13    5      2.63      0.00
   -4  -13    5      0.60      0.00
   -3  -13    5     -0.17      0.00
   -2  -13    5     -1.57      0.00
   -1  -13    5     -3.15      0.00
    0  -13    5     -1.24      0.00
    1  -13    5      0.01      0.00
    2  -13    5     -1.97      0.00
    3  -13    5     -1.96      0.00
    4  -13    5     -0.05      0.00
    5  -13    5      2.50      0.00
    6  -13    5      1.22      0.00
    7  -13    5      0.38      0.00
    8  -13    5     -1.39      0.00
   -9  -12    5     -0.82      0.00
   -8  -12    5     -0.20      0.00
   -7  -12    5      3.03      0.00
   -6  -12    5      1.26      0.00
   -5  -12    5      1.07      0.00
   -4  -12    5      1.49      0.00
   -3  -12    5     -0.34      0.00
   -2  -12    5     -2.87      0.00
   -1  -12    5     -1.61      0.00
    0  -12    5     -0.52      0.00
    1  -12    5     -0.31      0.00
    2  -12    5      0.83      0.00
    3  -12    5      0.46      0.00
    4  -12    5      0.27      0.00
    5  -12    5     -1.06      0.00
    6  -12    5      0.50      0.00
    7  -12    5      0.90      0.00
    8  -12    5     -2.83      0.00
  -11  -11    5      1.12      0.00
  -10  -11    5     -0.35      0.00
   -9  -11    5     -2.15      0.00
   -8  -11    5     -0.07      0.00
   -7  -11    5     -0.15      0.00
   -6  -11    5      1.72      0.00
   -5  -11    5     -0.14      0.00
   -4  -11    5      0.64      0.00
   -3  -11    5      0.63      0.00
   -2  -11    5     -3.46      0.00
   -1  -11    5     -1.13      0.00
    0  -11    5     -0.15      0.00
    1  -11    5     -0.17      0.00
    2  -11    5     -1.23      0.00
    3  -11    5      0.04      0.00
    4  -11    5      1.30      0.00
    5  -11    5     -0.48      0.00
    6  -11    5      2.94      0.00
    7  -11    5     -0.44      0.00
    8  -11    5     -0.62      0.00
    9  -11    5     -0.61      0.00
  -11  -10    5     -1.06      0.00
  -10  -10    5     -0.57      0.00
   -9  -10    5      1.89      0.00
   -8  -10    5      0.66      0.00
   -7  -10    5      0.22      0.00
   -6  -10    5      1.64      0.00
   -5  -10    5      1.25      0.00
   -4  -10    5      0.39      0.00
   -3  -10    5     -0.32      0.00
   -2  -10    5     -2.20      0.00
   -1  -10    5     -2.26      0.00
    0  -10    5      0.91      0.00
    1  -10    5     -0.84      0.00
    2  -10    5      0.19      0.00
    3  -10    5      1.68      0.00
    4  -10    5     -1.63      0.00
    5  -10    5      0.43      0.00
    6  -10    5     -0.84      0.00
    7  -10    5     -0.44      0.00
    8  -10    5     -1.55      0.00
    9  -10    5      1.02      0.00
  -11   -9    5     -1.01      0.00
  -10   -9    5      1.03      0.00
   -9   -9    5      1.76      0.00
   -8   -9    5     -1.20      0.00
   -7   -9    5      1.50      0.00
   -6   -9    5      1.64      0.00
   -5   -9    5      0.67      0.00
   -4   -9    5      0.35      0.00
   -3   -9    5      1.59      0.00
   -2   -9    5     -4.02      0.00
   -1   -9    5     -1.34      0.00
    0   -9    5     -0.52      0.00
    1   -9    5     -0.13      0.00
    2   -9    5      2.78      0.00
    3   -9    5      2.98      0.00
    4   -9    5     -0.41      0.00
    5   -9    5      1.23      0.00
    6   -9    5      1.65      0.00
    7   -9    5      0.08      0.00
    8   -9    5      1.38      0.00
    9   -9    5      1.25      0.00
   10   -9    5      3.18      0.00
   11   -9    5      1.19      0.00
  -11   -8    5      2.23      0.00
  -10   -8    5      3.22      0.00
   -9   -8    5     -0.82      0.00
   -8   -8    5     -0.01      0.00
   -7   -8    5     -1.27      0.00
   -6   -8    5      1.72      0.00
   -5   -8    5      1.69      0.00
   -4   -8    5      3.06      0.00
   -3   -8    5     -4.21      0.00
   -2   -8    5     -5.46      0.00
   -1   -8    5     -3.03      0.00
    0   -8    5      0.42      0.00
    1   -8    5     -0.71      0.00
    2   -8    5     -0.25      0.00
    3   -8    5     -0.11      0.00
    4   -8    5      0.86      0.00
    5   -8    5      1.66      0.00
    6   -8    5     -0.01      0.00
    7   -8    5     -0.60      0.00
    8   -8    5      0.44      0.00
    9   -8    5      1.22      0.00
   10   -8    5      0.95      0.00
   11   -8    5     -1.91      0.00
   12   -8    5     -0.38      0.00
  -11   -7    5      2.32      0.00
  -10   -7    5      1.77      0.00
   -9   -7    5      1.17      0.00
   -8   -7    5     -0.10      0.00
   -7   -7    5     -0.24      0.00
   -6   -7    5     -0.62      0.00
   -5   -7    5     -0.81      0.00
   -4   -7    5      3.75      0.00
   -3   -7    5     -3.09      0.00
   -2   -7    5     -3.16      0.00
   -1   -7    5      0.41      0.00
    0   -7    5      0.85      0.00
    1   -7    5      0.83      0.00
    2   -7    5      0.91      0.00
    3   -7    5      3.23      0.00
    4   -7    5      2.81      0.00
    5   -7    5      0.97      0.00
    6   -7    5      1.18      0.00
    7   -7    5      0.30      0.00
    8   -7    5     -0.34      0.00
    9   -7    5      1.89      0.00
   10   -7    5      0.33      0.00
   11   -7    5     -1.64      0.00
   12   -7    5     -1.23      0.00
  -11   -6    5      0.26      0.00
  -10   -6    5      1.25      0.00
   -9   -6    5      1.61      0.00
   -8   -6    5      0.27      0.00
   -7   -6    5      0.24      0.00
   -6   -6    5      0.30      0.00
   -5   -6    5      4.11      0.00
   -4   -6    5     -1.63      0.00
   -3   -6    5     -3.69      0.00
   -2   -6    5     -6.36      0.00
   -1   -6    5      4.82      0.00
    0   -6    5     -1.60      0.00
    1   -6    5     -2.93      0.00
    2   -6    5      4.32      0.00
    3   -6    5      1.41      0.00
    4   -6    5      3.27      0.00
    5   -6    5      2.42      0.00
    6   -6    5      0.13      0.00
    7   -6    5     -0.71      0.00
    8   -6    5     -0.48      0.00
    9   -6    5     -0.17      0.00
   10   -6    5      0.99      0.00
   11   -6    5     -0.96      0.00
   12   -6    5      0.09      0.00
   13   -6    5     -0.01      0.00
  -12   -5    5      0.87      0.00
  -11   -5    5      3.01      0.00
  -10   -5    5      1.81      0.00
   -9   -5    5      0.52      0.00
   -8   -5    5     -0.32      0.00
   -7   -5    5     -2.13      0.00
   -6   -5    5      2.14      0.00
   -5   -5    5      3.80      0.00
   -4   -5    5      0.31      0.00
   -3   -5    5    -10.51      0.00
   -2   -5    5      6.40      0.00
   -1   -5    5     -0.31      0.00
    0   -5    5     -1.01      0.00
    1   -5    5     -0.35      0.00
    2   -5    5      3.25      0.00
    3   -5    5      1.63      0.00
    4   -5    5      1.18      0.00
    5   -5    5      1.36      0.00
    6   -5    5     -0.82      0.00
    7   -5    5      1.34      0.00
    8   -5    5      2.50      0.00
    9   -5    5      3.17      0.00
   10   -5    5      1.11      0.00
   11   -5    5     -0.74      0.00
   12   -5    5     -0.48      0.00
   13   -5    5      0.86      0.00
   14   -5    5      0.53      0.00
  -12   -4    5     -3.09      0.00
  -11   -4    5     -0.57      0.00
  -10   -4    5     -1.13      0.00
   -9   -4    5     -1.02      0.00
   -8   -4    5      0.05      0.00
   -7   -4    5      1.26      0.00
   -6   -4    5      2.07      0.00
   -5   -4    5      4.06      0.00
   -4   -4    5     -1.04      0.00
   -3   -4    5      0.95      0.00
   -2   -4    5      2.43      0.00
   -1   -4    5     -0.11      0.00
    0   -4    5     -2.17      0.00
    1   -4    5      1.58      0.00
    2   -4    5      2.67      0.00
    3   -4    5     -1.10      0.00
    4   -4    5     -1.59      0.00
    5   -4    5      0.18      0.00
    6   -4    5      0.27      0.00
    7   -4    5      0.65      0.00
    8   -4    5      1.28      0.00
    9   -4    5      0.20      0.00
   10   -4    5     -0.09      0.00
   11   -4    5     -1.90      0.00
   12   -4    5      0.23      0.00
   13   -4    5      1.20      0.00
   14   -4    5     -0.10      0.00
  -12   -3    5     -0.69      0.00
  -11   -3    5     -2.06      0.00
  -10   -3    5     -0.37      0.00
   -9   -3    5     -0.67      0.00
   -8   -3    5     -0.12      0.00
   -7   -3    5     -0.39      0.00
   -6   -3    5      3.02      0.00
   -5   -3    5      5.00      0.00
   -4   -3    5     -4.37      0.00
   -3   -3    5      0.91      0.00
   -2   -3    5     -5.92      0.00
   -1   -3    5      6.61      0.00
    0   -3    5    -12.53      0.00
    1   -3    5      2.10      0.00
    2   -3    5      1.58      0.00
    3   -3    5     -4.41      0.00
    4   -3    5      1.83      0.00
    5   -3    5     -0.64      0.00
    6   -3    5      0.46      0.00
    7   -3    5      1.54      0.00
    8   -3    5      1.09      0.00
    9   -3    5      1.72      0.00
   10   -3    5      0.35      0.00
   11   -3    5     -1.61      0.00
   12   -3    5     -0.58      0.00
   13   -3    5     -0.12      0.00
  -12   -2    5     -1.19      0.00
  -11   -2    5     -0.97      0.00
  -10   -2    5     -0.73      0.00
   -9   -2    5     -0.35      0.00
   -8   -2    5     -0.17      0.00
   -7   -2    5      1.58      0.00
   -6   -2    5      2.89      0.00
   -5   -2    5      4.75      0.00
   -4   -2    5      3.83      0.00
   -3   -2    5      2.60      0.00
   -2   -2    5     14.16      0.00
   -1   -2    5    -10.99      0.00
    0   -2    5      6.29      0.00
    1   -2    5     -0.71      0.00
    2   -2    5     -2.89      0.00
    3   -2    5     -3.27      0.00
    4   -2    5     -2.48      0.00
    5   -2    5      4.21      0.00
    6   -2    5      0.64      0.00
    7   -2    5      2.59      0.00
    8   -2    5      2.85      0.00
    9   -2    5      3.03      0.00
   10   -2    5      0.51      0.00
   11   -2    5     -0.11      0.00
   12   -2    5      0.00      0.00
   13   -2    5     -0.35      0.00
  -12   -1    5     -0.55      0.00
  -11   -1    5     -0.58      0.00
  -10   -1    5      1.41      0.00
   -9   -1    5     -0.11      0.00
   -8   -1    5     -0.92      0.00
   -7   -1    5     -0.23      0.00
   -6   -1    5      5.06      0.00
   -5   -1    5      1.66      0.00
   -4   -1    5     -0.24      0.00
   -3   -1    5      3.86      0.00
   -2   -1    5     -6.46      0.00
   -1   -1    5      8.13      0.00
    0   -1    5     -7.03      0.00
    1   -1    5     -3.13      0.00
    2   -1    5     -6.64      0.00
    3   -1    5     -3.90      0.00
    4   -1    5      0.91      0.00
    5   -1    5     -1.82      0.00
    6   -1    5     -2.37      0.00
    7   -1    5      0.61      0.00
    8   -1    5      1.18      0.00
    9   -1    5      1.00      0.00
   10   -1    5     -0.63      0.00
   11   -1    5     -2.04      0.00
   12   -1    5      0.33      0.00
   13   -1    5      0.63      0.00
   14   -1    5     -2.80      0.00
  -12    0    5     -1.32      0.00
  -11    0    5     -0.26      0.00
  -10    0    5     -0.48      0.00
   -9    0    5      0.76      0.00
   -8    0    5     -0.19      0.00
   -7    0    5      3.71      0.00
   -6    0    5      3.00      0.00
   -5    0    5      3.62      0.00
   -4    0    5     -1.89      0.00
   -3    0    5      4.15      0.00
   -2    0    5      5.78      0.00
   -1    0    5      2.42      0.00
    0    0    5     -4.49      0.00
    1    0    5      6.38      0.00
    2    0    5      4.60      0.00
    3    0    5      5.80      0.00
    4    0    5     -1.35      0.00
    5    0    5      3.00      0.00
    6    0    5      3.67      0.00
    7    0    5      1.44      0.00
    8    0    5      2.82      0.00
    9    0    5      2.95      0.00
   10    0    5     -0.68      0.00
   11    0    5      0.26      0.00
   12    0    5      1.18      0.00
   13    0    5      0.77      0.00
   14    0    5     -2.13      0.00
  -11    1    5      1.71      0.00
  -10    1    5      1.78      0.00
   -9    1    5      0.72      0.00
   -8    1    5      0.29      0.00
   -7    1    5      4.75      0.00
   -6    1    5      5.89      0.00
   -5    1    5     -0.81      0.00
   -4    1    5     -2.89      0.00
   -3    1    5     -0.75      0.00
   -2    1    5     -2.42      0.00
   -1    1    5     -5.07      0.00
    0    1    5      1.37      0.00
    1    1    5    -15.61      0.00
    2    1    5      2.48      0.00
    3    1    5     -6.13      0.00
    4    1    5     -0.41      0.00
    5    1    5     -0.82      0.00
    6    1    5      2.62      0.00
    7    1    5      2.22      0.00
    8    1    5      2.86      0.00
    9    1    5      0.91      0.00
   10    1    5     -0.80      0.00
   11    1    5     -0.42      0.00
   12    1    5      2.12      0.00
   13    1    5     -1.12      0.00
   14    1    5     -1.07      0.00
  -11    2    5     -1.09      0.00
  -10    2    5     -1.08      0.00
   -9    2    5     -0.26      0.00
   -8    2    5      0.05      0.00
   -7    2    5      3.60      0.00
   -6    2    5      1.40      0.00
   -5    2    5     -1.85      0.00
   -4    2    5     -0.83      0.00
   -3    2    5      4.23      0.00
   -2    2    5      0.81      0.00
   -1    2    5     -2.21      0.00
    0    2    5    -16.74      0.00
    1    2    5      1.97      0.00
    2    2    5      5.49      0.00
    3    2    5     -5.79      0.00
    4    2    5     -3.43      0.00
    5    2    5      4.91      0.00
    6    2    5      2.67      0.00
    7    2    5     -0.10      0.00
    8    2    5      0.66      0.00
    9    2    5      2.00      0.00
   10    2    5     -0.42      0.00
   11    2    5      1.80      0.00
   12    2    5      0.93      0.00
   13    2    5     -1.65      0.00
   14    2    5     -0.94      0.00
   15    2    5      0.16      0.00
  -12    3    5      0.39      0.00
  -11    3    5      0.61      0.00
  -10    3    5      0.17      0.00
   -9    3    5     -0.42      0.00
   -8    3    5      1.29      0.00
   -7    3    5      0.99      0.00
   -6    3    5      1.33      0.00
   -5    3    5     -1.78      0.00
   -4    3    5     -4.72      0.00
   -3    3    5     -2.23      0.00
   -2    3    5     -5.15      0.00
   -1    3    5     -5.48      0.00
    0    3    5     12.49      0.00
    1    3    5     16.30      0.00
    2    3    5      4.62      0.00
    3    3    5      1.21      0.00
    4    3    5     -1.17      0.00
    5    3    5      6.97      0.00
    6    3    5     -2.57      0.00
    7    3    5     -2.39      0.00
    8    3    5      2.60      0.00
    9    3    5      1.84      0.00
   10    3    5     -0.97      0.00
   11    3    5     -1.43      0.00
   12    3    5      0.31      0.00
   13    3    5     -1.39      0.00
   14    3    5      0.92      0.00
   15    3    5     -0.11      0.00
  -11    4    5      0.81      0.00
  -10    4    5     -2.58      0.00
   -9    4    5      0.28      0.00
   -8    4    5      0.67      0.00
   -7    4    5      1.64      0.00
   -6    4    5     -0.22      0.00
   -5    4    5     -3.68      0.00
   -4    4    5     -4.74      0.00
   -3    4    5     -5.90      0.00
   -2    4    5     -9.76      0.00
   -1    4    5     -5.45      0.00
    0    4    5     -4.33      0.00
    1    4    5     -4.53      0.00
    2    4    5     -2.86      0.00
    3    4    5    -11.31      0.00
    4    4    5      7.56      0.00
    5    4    5      1.23      0.00
    6    4    5     -0.46      0.00
    7    4    5     -1.47      0.00
    8    4    5      1.63      0.00
    9    4    5      2.65      0.00
   10    4    5     -1.65      0.00
   11    4    5     -0.04      0.00
   12    4    5     -0.40      0.00
   13    4    5     -2.10      0.00
   14    4    5     -0.90      0.00
   15    4    5     -0.13      0.00
  -12    5    5      1.53      0.00
  -11    5    5      0.84      0.00
  -10    5    5     -0.66      0.00
   -9    5    5      2.38      0.00
   -8    5    5     -0.03      0.00
   -7    5    5     -0.75      0.00
   -6    5    5     -0.99      0.00
   -5    5    5     -0.69      0.00
   -4    5    5     -2.32      0.00
   -3    5    5     -7.20      0.00
   -2    5    5     -8.22      0.00
   -1    5    5     -2.15      0.00
    0    5    5      1.55      0.00
    1    5    5      9.65      0.00
    2    5    5     -2.04      0.00
    3    5    5     -2.38      0.00
    4    5    5      1.20      0.00
    5    5    5     -3.08      0.00
    6    5    5     -8.62      0.00
    7    5    5     -1.99      0.00
    8    5    5      0.26      0.00
    9    5    5      0.21      0.00
   10    5    5     -1.50      0.00
   11    5    5      0.01      0.00
   12    5    5     -0.27      0.00
   13    5    5     -1.14      0.00
   14    5    5      1.04      0.00
   15    5    5     -0.01      0.00
  -12    6    5      1.50      0.00
  -11    6    5      0.28      0.00
  -10    6    5     -1.01      0.00
   -9    6    5      0.04      0.00
   -8    6    5      0.41      0.00
   -7    6    5     -3.01      0.00
   -6    6    5      2.16      0.00
   -5    6    5     -3.24      0.00
   -4    6    5     -4.83      0.00
   -3    6    5     -5.76      0.00
   -2    6    5     -3.69      0.00
   -1    6    5     -4.94      0.00
    0    6    5      2.95      0.00
    1    6    5     -2.99      0.00
    2    6    5     -2.47      0.00
    3    6    5      0.12      0.00
    4    6    5      1.40      0.00
    5    6    5     -4.69      0.00
    6    6    5     -5.54      0.00
    7    6    5      0.86      0.00
    8    6    5      1.27      0.00
    9    6    5     -0.77      0.00
   10    6    5     -0.72      0.00
   11    6    5     -1.21      0.00
   12    6    5     -1.29      0.00
   13    6    5     -0.55      0.00
   14    6    5      1.14      0.00
   15    6    5     -0.16      0.00
  -11    7    5     -1.16      0.00
  -10    7    5     -0.17      0.00
   -9    7    5      2.36      0.00
   -8    7    5     -2.26      0.00
   -7    7    5     -0.64      0.00
   -6    7    5      0.57      0.00
   -5    7    5     -2.25      0.00
   -4    7    5     -4.56      0.00
   -3    7    5     -6.00      0.00
   -2    7    5     -7.88      0.00
   -1    7    5     -5.62      0.00
    0    7    5     -5.42      0.00
    1    7    5     -0.31      0.00
    2    7    5      1.67      0.00
    3    7    5      0.94      0.00
    4    7    5      0.83      0.00
    5    7    5     -7.32      0.00
    6    7    5     -1.79      0.00
    7    7    5     -0.50      0.00
    8    7    5     -1.74      0.00
    9    7    5      0.84      0.00
   10    7    5     -1.63      0.00
   11    7    5     -0.49      0.00
   12    7    5     -1.03      0.00
   13    7    5     -2.22      0.00
   14    7    5      1.53      0.00
   15    7    5     -3.71      0.00
  -11    8    5     -1.54      0.00
  -10    8    5     -1.07      0.00
   -9    8    5      0.55      0.00
   -8    8    5     -0.19      0.00
   -7    8    5      1.80      0.00
   -6    8    5      5.04      0.00
   -5    8    5     -2.19      0.00
   -4    8    5     -2.54      0.00
   -3    8    5     -5.34      0.00
   -2    8    5     -4.54      0.00
   -1    8    5     -2.04      0.00
    0    8    5      1.13      0.00
    1    8    5      3.32      0.00
    2    8    5     -0.91      0.00
    3    8    5      1.24      0.00
    4    8    5     -1.53      0.00
    5    8    5     -6.01      0.00
    6    8    5      0.34      0.00
    7    8    5      0.70      0.00
    8    8    5      0.32      0.00
    9    8    5      0.22      0.00
   10    8    5     -2.44      0.00
   11    8    5      1.19      0.00
   12    8    5     -1.53      0.00
   13    8    5      0.80      0.00
   14    8    5      0.64      0.00
   15    8    5      1.08      0.00
  -10    9    5      1.24      0.00
   -9    9    5     -1.47      0.00
   -8    9    5      1.83      0.00
   -7    9    5     -1.34      0.00
   -6    9    5      1.42      0.00
   -5    9    5     -2.61      0.00
   -4    9    5      1.76      0.00
   -3    9    5     -1.94      0.00
   -2    9    5     -2.78      0.00
   -1    9    5     -2.75      0.00
    0    9    5     -0.26      0.00
    1    9    5      0.03      0.00
    2    9    5      3.08      0.00
    3    9    5     -0.58      0.00
    4    9    5     -1.38      0.00
    5    9    5     -1.95      0.00
    6    9    5     -1.63      0.00
    7    9    5      1.46      0.00
    8    9    5      0.16      0.00
    9    9    5      0.00      0.00
   10    9    5      0.80      0.00
   11    9    5     -1.15      0.00
   12    9    5     -1.21      0.00
   13    9    5     -0.64      0.00
   14    9    5     -0.14      0.00
   15    9    5     -2.61      0.00
  -10   10    5     -0.63      0.00
   -9   10    5     -1.10      0.00
   -8   10    5     -0.76      0.00
   -7   10    5      1.86      0.00
   -6   10    5      0.63      0.00
   -5   10    5     -0.10      0.00
   -4   10    5      1.01      0.00
   -3   10    5     -3.46      0.00
   -2   10    5     -1.91      0.00
   -1   10    5      2.85      0.00
    0   10    5     -1.32      0.00
    1   10    5      1.51      0.00
    2   10    5     -1.61      0.00
    3   10    5      1.87      0.00
    4   10    5      0.63      0.00
    5   10    5     -1.91      0.00
    6   10    5      1.14      0.00
    7   10    5      0.55      0.00
    8   10    5      2.28      0.00
    9   10    5      2.67      0.00
   10   10    5      0.71      0.00
   11   10    5      0.25      0.00
   12   10    5      2.13      0.00
   13   10    5     -1.99      0.00
   14   10    5      0.05      0.00
   -8   11    5     -0.16      0.00
   -7   11    5     -1.43      0.00
   -6   11    5      3.55      0.00
   -5   11    5     -1.31      0.00
   -4   11    5     -0.57      0.00
   -3   11    5     -0.59      0.00
   -2   11    5     -0.98      0.00
   -1   11    5      1.06      0.00
    0   11    5     -1.36      0.00
    1   11    5      1.14      0.00
    2   11    5      0.62      0.00
    3   11    5      1.25      0.00
    4   11    5     -0.98      0.00
    5   11    5     -0.01      0.00
    6   11    5      0.91      0.00
    7   11    5      0.86      0.00
    8   11    5      2.45      0.00
    9   11    5      0.19      0.00
   10   11    5     -0.34      0.00
   11   11    5      0.15      0.00
   12   11    5      1.91      0.00
   13   11    5      0.34      0.00
   14   11    5     -0.43      0.00
   -7   12    5      2.21      0.00
   -6   12    5      1.92      0.00
   -5   12    5      0.32      0.00
   -4   12    5     -2.88      0.00
   -3   12    5      0.71      0.00
   -2   12    5      0.61      0.00
   -1   12    5      0.02      0.00
    0   12    5     -0.16      0.00
    1   12    5     -1.56      0.00
    2   12    5      1.50      0.00
    3   12    5      0.28      0.00
    4   12    5     -0.55      0.00
    5   12    5      1.82      0.00
    6   12    5      2.13      0.00
    7   12    5      1.78      0.00
    8   12    5      2.00      0.00
    9   12    5      1.79      0.00
   10   12    5     -2.08      0.00
   11   12    5      0.45      0.00
   12   12    5      0.14      0.00
   13   12    5     -4.08      0.00
   14   12    5     -1.53      0.00
   -6   13    5      2.98      0.00
   -5   13    5      1.00      0.00
   -4   13    5     -0.35      0.00
   -3   13    5      4.47      0.00
   -2   13    5      0.06      0.00
   -1   13    5      0.22      0.00
    0   13    5      0.03      0.00
    1   13    5      4.90      0.00
    2   13    5      0.04      0.00
    3   13    5      2.46      0.00
    4   13    5     -0.50      0.00
    5   13    5      0.10      0.00
    6   13    5      0.77      0.00
    7   13    5     -1.69      0.00
    8   13    5      1.07      0.00
    9   13    5     -0.86      0.00
   10   13    5      3.08      0.00
   11   13    5      0.61      0.00
   12   13    5     -2.26      0.00
   13   13    5     -4.26      0.00
   -6   14    5      0.96      0.00
   -5   14    5      0.04      0.00
   -4   14    5     -1.94      0.00
   -3   14    5      3.41      0.00
   -2   14    5     -3.01      0.00
   -1   14    5     -0.35      0.00
    0   14    5     -0.06      0.00
    1   14    5      0.40      0.00
    2   14    5     -1.42      0.00
    3   14    5      0.58      0.00
    4   14    5      1.51      0.00
    5   14    5      4.70      0.00
    6   14    5      2.42      0.00
    7   14    5      1.29      0.00
    8   14    5     -0.02      0.00
    9   14    5     -0.37      0.00
   10   14    5     -1.13      0.00
   11   14    5     -4.04      0.00
   12   14    5     -0.33      0.00
   -5   15    5      0.69      0.00
   -4   15    5     -2.50      0.00
   -3   15    5      3.46      0.00
   -2   15    5     -3.90      0.00
   -1   15    5     -1.96      0.00
    0   15    5      2.50      0.00
    1   15    5     -1.06      0.00
    2   15    5     -4.35      0.00
    3   15    5      0.93      0.00
    4   15    5      1.18      0.00
    5   15    5     -0.03      0.00
    6   15    5      1.14      0.00
    7   15    5      0.17      0.00
    8   15    5     -1.98      0.00
    9   15    5      2.01      0.00
   10   15    5     -0.22      0.00
   11   15    5      0.33      0.00
   -3   16    5      8.63      0.00
   -2   16    5     -1.82      0.00
   -1   16    5     -1.95      0.00
    0   16    5      5.46      0.00
    1   16    5     -1.41      0.00
    2   16    5      0.58      0.00
    3   16    5      2.58      0.00
    4   16    5      0.40      0.00
    5   16    5     -0.27      0.00
    6   16    5      2.02      0.00
    7   16    5     -0.73      0.00
    8   16    5     -2.18      0.00
    9   16    5      0.38      0.00
   10   16    5     -1.48      0.00
   11   16    5     -5.82      0.00
   -2   17    5     -4.03      0.00
   -1   17    5      1.24      0.00
    0   17    5      4.97      0.00
    1   17    5      0.09      0.00
    2   17    5      2.12      0.00
    3   17    5      2.10      0.00
    4   17    5     -0.32      0.00
    5   17    5      2.05      0.00
    6   17    5      1.00      0.00
    7   17    5     -1.13      0.00
    8   17    5     -3.50      0.00
    9   17    5     -0.35      0.00
    0   18    5      4.84      0.00
    1   18    5      4.01      0.00
    2   18    5      2.19      0.00
    3   18    5     -1.46      0.00
    4   18    5      0.07      0.00
    5   18    5      5.71      0.00
    6   18    5      3.56      0.00
    7   18    5      0.61      0.00
    8   18    5     -1.05      0.00
   -1  -17    6     -0.77      0.00
    0  -17    6      3.12      0.00
   -5  -16    6     -1.28      0.00
   -4  -16    6      1.08      0.00
   -3  -16    6     -1.16      0.00
   -2  -16    6      0.07      0.00
   -1  -16    6      1.23      0.00
    0  -16    6      1.49      0.00
    1  -16    6     -4.34      0.00
    2  -16    6      1.06      0.00
    3  -16    6      1.79      0.00
    4  -16    6     -2.35      0.00
   -6  -15    6      2.26      0.00
   -5  -15    6     -2.51      0.00
   -4  -15    6     -0.48      0.00
   -3  -15    6      1.72      0.00
   -2  -15    6      0.63      0.00
   -1  -15    6      3.95      0.00
    0  -15    6      0.83      0.00
    1  -15    6      2.91      0.00
    2  -15    6      2.00      0.00
    3  -15    6      2.27      0.00
    4  -15    6      0.90      0.00
    5  -15    6      0.09      0.00
   -6  -14    6     -0.34      0.00
   -5  -14    6     -5.82      0.00
   -4  -14    6     -2.36      0.00
   -3  -14    6     -0.37      0.00
   -2  -14    6     -0.44      0.00
   -1  -14    6      0.77      0.00
    0  -14    6      1.52      0.00
    1  -14    6     -1.16      0.00
    2  -14    6      1.41      0.00
    3  -14    6      2.95      0.00
    4  -14    6     -0.66      0.00
    5  -14    6     -2.24      0.00
    6  -14    6     -1.34      0.00
    7  -14    6      0.09      0.00
   -7  -13    6     -1.36      0.00
   -6  -13    6     -2.44      0.00
   -5  -13    6     -1.07      0.00
   -4  -13    6      0.58      0.00
   -3  -13    6     -0.53      0.00
   -2  -13    6      2.02      0.00
   -1  -13    6     -0.10      0.00
    0  -13    6      2.05      0.00
    1  -13    6      0.52      0.00
    2  -13    6     -0.54      0.00
    3  -13    6      1.83      0.00
    4  -13    6     -1.41      0.00
    5  -13    6     -0.38      0.00
    6  -13    6      0.24      0.00
    7  -13    6     -1.89      0.00
    8  -13    6     -0.09      0.00
   -8  -12    6      2.77      0.00
   -7  -12    6      0.17      0.00
   -6  -12    6     -1.29      0.00
   -5  -12    6      0.59      0.00
   -4  -12    6     -0.62      0.00
   -3  -12    6     -1.15      0.00
   -2  -12    6      1.48      0.00
   -1  -12    6      1.57      0.00
    0  -12    6      0.57      0.00
    1  -12    6     -2.41      0.00
    2  -12    6      2.50      0.00
    3  -12    6      1.09      0.00
    4  -12    6     -2.35      0.00
    5  -12    6     -1.17      0.00
    6  -12    6     -2.48      0.00
    7  -12    6     -0.94      0.00
    8  -12    6     -1.22      0.00
  -11  -11    6      2.14      0.00
  -10  -11    6      1.96      0.00
   -9  -11    6      1.82      0.00
   -8  -11    6      0.39      0.00
   -7  -11    6     -3.96      0.00
   -6  -11    6      0.56      0.00
   -5  -11    6     -3.66      0.00
   -4  -11    6     -1.44      0.00
   -3  -11    6      0.56      0.00
   -2  -11    6     -0.77      0.00
   -1  -11    6      0.56      0.00
    0  -11    6      0.67      0.00
    1  -11    6      0.10      0.00
    2  -11    6      0.00      0.00
    3  -11    6     -1.20      0.00
    4  -11    6      0.50      0.00
    5  -11    6     -0.05      0.00
    6  -11    6      2.05      0.00
    7  -11    6     -0.27      0.00
    8  -11    6      1.21      0.00
    9  -11    6      1.66      0.00
  -11  -10    6      1.15      0.00
  -10  -10    6     -0.80      0.00
   -9  -10    6      0.44      0.00
   -8  -10    6      2.09      0.00
   -7  -10    6     -1.76      0.00
   -6  -10    6     -1.29      0.00
   -5  -10    6     -0.52      0.00
   -4  -10    6     -0.71      0.00
   -3  -10    6     -1.50      0.00
   -2  -10    6      0.97      0.00
   -1  -10    6      0.63      0.00
    0  -10    6      1.24      0.00
    1  -10    6     -1.06      0.00
    2  -10    6     -1.09      0.00
    3  -10    6     -0.05      0.00
    4  -10    6     -0.02      0.00
    5  -10    6     -0.05      0.00
    6  -10    6     -2.06      0.00
    7  -10    6      0.37      0.00
    8  -10    6     -1.81      0.00
    9  -10    6      1.69      0.00
  -11   -9    6     -0.48      0.00
  -10   -9    6     -1.50      0.00
   -9   -9    6      1.03      0.00
   -8   -9    6      0.38      0.00
   -7   -9    6     -2.31      0.00
   -6   -9    6     -1.85      0.00
   -5   -9    6     -0.25      0.00
   -4   -9    6     -1.51      0.00
   -3   -9    6     -0.44      0.00
   -2   -9    6      2.42      0.00
   -1   -9    6      3.01      0.00
    0   -9    6      1.78      0.00
    1   -9    6     -0.60      0.00
    2   -9    6      1.02      0.00
    3   -9    6      1.03      0.00
    4   -9    6     -0.01      0.00
    5   -9    6      0.51      0.00
    6   -9    6      0.98      0.00
    7   -9    6      0.23      0.00
    8   -9    6     -0.77      0.00
    9   -9    6     -1.44      0.00
   10   -9    6     -1.69      0.00
   11   -9    6      1.08      0.00
  -11   -8    6     -2.59      0.00
  -10   -8    6     -0.58      0.00
   -9   -8    6      0.21      0.00
   -8   -8    6      0.83      0.00
   -7   -8    6     -2.11      0.00
   -6   -8    6     -1.33      0.00
   -5   -8    6      0.54      0.00
   -4   -8    6     -2.65      0.00
   -3   -8    6     -2.45      0.00
   -2   -8    6      4.29      0.00
   -1   -8    6      1.71      0.00
    0   -8    6      0.67      0.00
    1   -8    6     -0.21      0.00
    2   -8    6     -2.57      0.00
    3   -8    6     -1.40      0.00
    4   -8    6     -3.25      0.00
    5   -8    6     -1.38      0.00
    6   -8    6     -2.59      0.00
    7   -8    6     -1.10      0.00
    8   -8    6     -1.44      0.00
    9   -8    6     -2.00      0.00
   10   -8    6     -0.96      0.00
   11   -8    6     -0.99      0.00
   12   -8    6      1.33      0.00
  -11   -7    6     -3.58      0.00
  -10   -7    6     -1.31      0.00
   -9   -7    6      0.62      0.00
   -8   -7    6     -0.83      0.00
   -7   -7    6     -0.28      0.00
   -6   -7    6      0.59      0.00
   -5   -7    6     -4.17      0.00
   -4   -7    6     -3.26      0.00
   -3   -7    6     -0.09      0.00
   -2   -7    6      5.66      0.00
   -1   -7    6     -1.12      0.00
    0   -7    6      0.85      0.00
    1   -7    6      3.99      0.00
    2   -7    6     -0.84      0.00
    3   -7    6      0.17      0.00
    4   -7    6     -0.74      0.00
    5   -7    6     -1.78      0.00
    6   -7    6     -0.26      0.00
    7   -7    6      0.76      0.00
    8   -7    6      0.29      0.00
    9   -7    6     -0.39      0.00
   10   -7    6     -1.77      0.00
   11   -7    6     -0.70      0.00
   12   -7    6     -1.10      0.00
  -11   -6    6     -4.03      0.00
  -10   -6    6     -0.73      0.00
   -9   -6    6     -1.73      0.00
   -8   -6    6     -0.54      0.00
   -7   -6    6      2.42      0.00
   -6   -6    6      0.06      0.00
   -5   -6    6     -2.03      0.00
   -4   -6    6     -5.26      0.00
   -3   -6    6      4.87      0.00
   -2   -6    6     -1.41      0.00
   -1   -6    6     -1.99      0.00
    0   -6    6      1.11      0.00
    1   -6    6      0.77      0.00
    2   -6    6      2.58      0.00
    3   -6    6     -0.17      0.00
    4   -6    6     -1.85      0.00
    5   -6    6     -2.68      0.00
    6   -6    6     -0.21      0.00
    7   -6    6      1.96      0.00
    8   -6    6     -0.34      0.00
    9   -6    6     -1.85      0.00
   10   -6    6     -1.12      0.00
   11   -6    6     -0.71      0.00
   12   -6    6      1.81      0.00
   13   -6    6      0.17      0.00
  -11   -5    6      0.62      0.00
  -10   -5    6      1.84      0.00
   -9   -5    6      0.63      0.00
   -8   -5    6      1.45      0.00
   -7   -5    6     -0.09      0.00
   -6   -5    6     -2.07      0.00
   -5   -5    6     -4.62      0.00
   -4   -5    6     -2.57      0.00
   -3   -5    6     -0.83      0.00
   -2   -5    6      0.65      0.00
   -1   -5    6     -5.26      0.00
    0   -5    6      7.32      0.00
    1   -5    6      6.02      0.00
    2   -5    6     -0.09      0.00
    3   -5    6      3.27      0.00
    4   -5    6     -0.96      0.00
    5   -5    6      1.33      0.00
    6   -5    6      0.89      0.00
    7   -5    6      2.21      0.00
    8   -5    6     -2.00      0.00
    9   -5    6     -1.83      0.00
   10   -5    6     -0.32      0.00
   11   -5    6      1.75      0.00
   12   -5    6      1.77      0.00
   13   -5    6     -1.18      0.00
   14   -5    6     -0.54      0.00
  -11   -4    6     -1.60      0.00
  -10   -4    6     -0.42      0.00
   -9   -4    6      1.49      0.00
   -8   -4    6      1.89      0.00
   -7   -4    6      1.28      0.00
   -6   -4    6     -2.79      0.00
   -5   -4    6     -7.45      0.00
   -4   -4    6      1.04      0.00
   -3   -4    6      2.34      0.00
   -2   -4    6      0.42      0.00
   -1   -4    6     -6.74      0.00
    0   -4    6     12.19      0.00
    1   -4    6      5.25      0.00
    2   -4    6      1.29      0.00
    3   -4    6      2.03      0.00
    4   -4    6     -4.00      0.00
    5   -4    6     -0.14      0.00
    6   -4    6      1.94      0.00
    7   -4    6     -0.88      0.00
    8   -4    6     -3.77      0.00
    9   -4    6     -3.49      0.00
   10   -4    6     -1.07      0.00
   11   -4    6      0.41      0.00
   12   -4    6     -0.22      0.00
   13   -4    6     -0.21      0.00
  -11   -3    6     -1.14      0.00
  -10   -3    6      2.76      0.00
   -9   -3    6      2.25      0.00
   -8   -3    6      0.59      0.00
   -7   -3    6     -1.24      0.00
   -6   -3    6     -3.03      0.00
   -5   -3    6     -4.10      0.00
   -4   -3    6     -3.10      0.00
   -3   -3    6     -0.25      0.00
   -2   -3    6    -14.08      0.00
   -1   -3    6      5.10      0.00
    0   -3    6      7.74      0.00
    1   -3    6      4.84      0.00
    2   -3    6      1.96      0.00
    3   -3    6      2.26      0.00
    4   -3    6      1.52      0.00
    5   -3    6      0.72      0.00
    6   -3    6      2.29      0.00
    7   -3    6     -0.97      0.00
    8   -3    6     -4.85      0.00
    9   -3    6     -1.99      0.00
   10   -3    6      0.27      0.00
   11   -3    6     -1.00      0.00
   12   -3    6     -1.27      0.00
   13   -3    6     -0.72      0.00
  -11   -2    6      0.50      0.00
  -10   -2    6      2.12      0.00
   -9   -2    6     -0.01      0.00
   -8   -2    6      0.24      0.00
   -7   -2    6      1.97      0.00
   -6   -2    6     -3.53      0.00
   -5   -2    6     -3.89      0.00
   -4   -2    6      1.70      0.00
   -3   -2    6     -4.38      0.00
   -2   -2    6      6.91      0.00
   -1   -2    6     -6.24      0.00
    0   -2    6     15.56      0.00
    1   -2    6      2.76      0.00
    2   -2    6      3.28      0.00
    3   -2    6      2.28      0.00
    4   -2    6     -6.12      0.00
    5   -2    6      3.73      0.00
    6   -2    6      2.86      0.00
    7   -2    6      1.88      0.00
    8   -2    6     -2.21      0.00
    9   -2    6     -0.89      0.00
   10   -2    6     -0.67      0.00
   11   -2    6      0.88      0.00
   12   -2    6      0.90      0.00
   13   -2    6      0.19      0.00
  -11   -1    6     -1.06      0.00
  -10   -1    6      0.91      0.00
   -9   -1    6      0.47      0.00
   -8   -1    6      0.60      0.00
   -7   -1    6     -1.34      0.00
   -6   -1    6     -2.52      0.00
   -5   -1    6     -4.25      0.00
   -4   -1    6     -0.22      0.00
   -3   -1    6     -3.72      0.00
   -2   -1    6     -7.22      0.00
   -1   -1    6     -1.24      0.00
    0   -1    6     12.55      0.00
    1   -1    6     -0.08      0.00
    2   -1    6     -0.35      0.00
    3   -1    6     -2.61      0.00
    4   -1    6     -0.08      0.00
    5   -1    6      2.33      0.00
    6   -1    6      0.21      0.00
    7   -1    6     -1.72      0.00
    8   -1    6     -4.36      0.00
    9   -1    6     -2.14      0.00
   10   -1    6     -1.10      0.00
   11   -1    6     -0.30      0.00
   12   -1    6      0.10      0.00
   13   -1    6     -0.67      0.00
   14   -1    6      0.54      0.00
  -11    0    6     -1.79      0.00
  -10    0    6     -0.72      0.00
   -9    0    6      1.19      0.00
   -8    0    6      2.09      0.00
   -7    0    6     -1.47      0.00
   -6    0    6     -4.81      0.00
   -5    0    6      0.19      0.00
   -4    0    6      0.30      0.00
   -3    0    6     -1.02      0.00
   -2    0    6     -0.30      0.00
   -1    0    6      3.39      0.00
    0    0    6      8.31      0.00
    1    0    6      8.27      0.00
    2    0    6      0.93      0.00
    3    0    6     -1.35      0.00
    4    0    6     -1.57      0.00
    5    0    6      8.39      0.00
    6    0    6      3.80      0.00
    7    0    6     -0.97      0.00
    8    0    6     -2.50      0.00
    9    0    6     -0.35      0.00
   10    0    6      0.51      0.00
   11    0    6      0.88      0.00
   12    0    6     -0.07      0.00
   13    0    6      0.82      0.00
   14    0    6      2.23      0.00
  -11    1    6      0.54      0.00
  -10    1    6      2.25      0.00
   -9    1    6      1.37      0.00
   -8    1    6      0.37      0.00
   -7    1    6     -2.00      0.00
   -6    1    6      0.11      0.00
   -5    1    6      1.63      0.00
   -4    1    6      1.80      0.00
   -3    1    6     -5.12      0.00
   -2    1    6     -4.00      0.00
   -1    1    6     -0.14      0.00
    0    1    6     19.47      0.00
    1    1    6     -9.87      0.00
    2    1    6     -9.49      0.00
    3    1    6     -8.16      0.00
    4    1    6      4.08      0.00
    5    1    6      2.76      0.00
    6    1    6     -1.20      0.00
    7    1    6     -1.40      0.00
    8    1    6     -1.02      0.00
    9    1    6      0.09      0.00
   10    1    6      0.03      0.00
   11    1    6     -1.51      0.00
   12    1    6     -1.42      0.00
   13    1    6      1.04      0.00
   14    1    6      2.52      0.00
  -11    2    6     -0.10      0.00
  -10    2    6     -0.58      0.00
   -9    2    6      0.04      0.00
   -8    2    6     -0.85      0.00
   -7    2    6     -2.40      0.00
   -6    2    6     -3.04      0.00
   -5    2    6      2.47      0.00
   -4    2    6      3.55      0.00
   -3    2    6     -1.55      0.00
   -2    2    6      1.65      0.00
   -1    2    6     10.03      0.00
    0    2    6      1.98      0.00
    1    2    6    -11.21      0.00
    2    2    6     -7.75      0.00
    3    2    6     -3.48      0.00
    4    2    6      1.75      0.00
    5    2    6      4.28      0.00
    6    2    6     -0.75      0.00
    7    2    6     -0.21      0.00
    8    2    6     -2.41      0.00
    9    2    6      0.27      0.00
   10    2    6     -0.14      0.00
   11    2    6      0.37      0.00
   12    2    6      0.47      0.00
   13    2    6     -0.03      0.00
   14    2    6     -0.57      0.00
   15    2    6     -1.50      0.00
  -11    3    6      0.77      0.00
  -10    3    6      2.42      0.00
   -9    3    6      0.01      0.00
   -8    3    6      0.50      0.00
   -7    3    6     -2.23      0.00
   -6    3    6      0.19      0.00
   -5    3    6      3.68      0.00
   -4    3    6      2.09      0.00
   -3    3    6     -2.86      0.00
   -2    3    6      6.73      0.00
   -1    3    6      6.12      0.00
    0    3    6     11.52      0.00
    1    3    6     -2.13      0.00
    2    3    6     -2.31      0.00
    3    3    6     10.23      0.00
    4    3    6      3.95      0.00
    5    3    6      6.04      0.00
    6    3    6     -2.49      0.00
    7    3    6      1.01      0.00
    8    3    6      1.00      0.00
    9    3    6      0.61      0.00
   10    3    6     -0.58      0.00
   11    3    6     -1.49      0.00
   12    3    6     -1.26      0.00
   13    3    6      0.96      0.00
   14    3    6      2.03      0.00
   15    3    6      1.60      0.00
  -11    4    6      2.71      0.00
  -10    4    6      1.54      0.00
   -9    4    6     -0.65      0.00
   -8    4    6     -0.96      0.00
   -7    4    6     -0.05      0.00
   -6    4    6      0.53      0.00
   -5    4    6      2.67      0.00
   -4    4    6     -0.63      0.00
   -3    4    6     -0.39      0.00
   -2    4    6      4.26      0.00
   -1    4    6      7.92      0.00
    0    4    6     -1.95      0.00
    1    4    6    -20.36      0.00
    2    4    6     -4.20      0.00
    3    4    6      1.16      0.00
    4    4    6      5.92      0.00
    5    4    6      4.22      0.00
    6    4    6      4.46      0.00
    7    4    6      4.52      0.00
    8    4    6     -1.23      0.00
    9    4    6      0.97      0.00
   10    4    6     -1.70      0.00
   11    4    6      0.23      0.00
   12    4    6     -0.39      0.00
   13    4    6      0.77      0.00
   14    4    6      1.11      0.00
   15    4    6      1.12      0.00
  -11    5    6     -0.03      0.00
  -10    5    6      1.23      0.00
   -9    5    6     -0.74      0.00
   -8    5    6     -0.99      0.00
   -7    5    6      1.40      0.00
   -6    5    6     -1.32      0.00
   -5    5    6      4.01      0.00
   -4    5    6      1.09      0.00
   -3    5    6      2.63      0.00
   -2    5    6      7.15      0.00
   -1    5    6      7.36      0.00
    0    5    6     -3.28      0.00
    1    5    6     -2.12      0.00
    2    5    6      4.92      0.00
    3    5    6      6.49      0.00
    4    5    6      1.25      0.00
    5    5    6      4.77      0.00
    6    5    6      2.54      0.00
    7    5    6      1.78      0.00
    8    5    6     -1.62      0.00
    9    5    6     -1.33      0.00
   10    5    6     -0.99      0.00
   11    5    6     -0.62      0.00
   12    5    6      1.52      0.00
   13    5    6      1.06      0.00
   14    5    6      0.92      0.00
   15    5    6      0.35      0.00
  -11    6    6      0.90      0.00
  -10    6    6      0.34      0.00
   -9    6    6     -3.89      0.00
   -8    6    6      0.99      0.00
   -7    6    6      0.18      0.00
   -6    6    6     -0.38      0.00
   -5    6    6     -1.79      0.00
   -4    6    6     -0.23      0.00
   -3    6    6      2.52      0.00
   -2    6    6      8.94      0.00
   -1    6    6      6.50      0.00
    0    6    6      5.44      0.00
    1    6    6     -4.40      0.00
    2    6    6      3.92      0.00
    3    6    6      1.23      0.00
    4    6    6      2.31      0.00
    5    6    6      9.21      0.00
    6    6    6      2.40      0.00
    7    6    6      0.91      0.00
    8    6    6      0.39      0.00
    9    6    6     -2.02      0.00
   10    6    6     -0.19      0.00
   11    6    6     -0.83      0.00
   12    6    6      0.87      0.00
   13    6    6      1.07      0.00
   14    6    6      0.19      0.00
   15    6    6      0.80      0.00
  -10    7    6     -1.25      0.00
   -9    7    6     -0.04      0.00
   -8    7    6      0.03      0.00
   -7    7    6      0.03      0.00
   -6    7    6     -5.22      0.00
   -5    7    6     -1.47      0.00
   -4    7    6     -1.71      0.00
   -3    7    6      2.59      0.00
   -2    7    6      2.49      0.00
   -1    7    6      4.40      0.00
    0    7    6     -2.96      0.00
    1    7    6     -4.35      0.00
    2    7    6      2.87      0.00
    3    7    6      0.33      0.00
    4    7    6      2.94      0.00
    5    7    6      4.78      0.00
    6    7    6      0.56      0.00
    7    7    6     -0.18      0.00
    8    7    6     -2.03      0.00
    9    7    6     -0.32      0.00
   10    7    6     -0.97      0.00
   11    7    6      0.02      0.00
   12    7    6      1.78      0.00
   13    7    6     -1.77      0.00
   14    7    6     -1.38      0.00
   15    7    6     -2.56      0.00
  -10    8    6      0.18      0.00
   -9    8    6      0.81      0.00
   -8    8    6     -0.88      0.00
   -7    8    6     -0.31      0.00
   -6    8    6     -2.09      0.00
   -5    8    6      1.78      0.00
   -4    8    6     -2.25      0.00
   -3    8    6      0.75      0.00
   -2    8    6      4.39      0.00
   -1    8    6      6.05      0.00
    0    8    6      3.94      0.00
    1    8    6      0.58      0.00
    2    8    6     -1.47      0.00
    3    8    6     -0.37      0.00
    4    8    6      2.97      0.00
    5    8    6      1.80      0.00
    6    8    6     -0.03      0.00
    7    8    6      0.80      0.00
    8    8    6     -0.43      0.00
    9    8    6     -1.52      0.00
   10    8    6     -2.25      0.00
   11    8    6      0.97      0.00
   12    8    6      1.51      0.00
   13    8    6      1.20      0.00
   14    8    6     -0.81      0.00
   15    8    6      2.53      0.00
  -10    9    6      1.26      0.00
   -9    9    6     -0.28      0.00
   -8    9    6      0.71      0.00
   -7    9    6     -2.99      0.00
   -6    9    6     -0.88      0.00
   -5    9    6     -1.36      0.00
   -4    9    6     -3.18      0.00
   -3    9    6      1.36      0.00
   -2    9    6      4.12      0.00
   -1    9    6     -1.85      0.00
    0    9    6      1.40      0.00
    1    9    6     -3.97      0.00
    2    9    6      2.08      0.00
    3    9    6      0.11      0.00
    4    9    6      1.28      0.00
    5    9    6      1.01      0.00
    6    9    6     -0.88      0.00
    7    9    6      0.18      0.00
    8    9    6     -2.06      0.00
    9    9    6     -2.14      0.00
   10    9    6     -0.52      0.00
   11    9    6      0.22      0.00
   12    9    6      0.84      0.00
   13    9    6     -0.88      0.00
   14    9    6     -1.28      0.00
   15    9    6      0.78      0.00
  -10   10    6      0.13      0.00
   -9   10    6      2.46      0.00
   -8   10    6     -1.57      0.00
   -7   10    6      1.64      0.00
   -6   10    6     -1.44      0.00
   -5   10    6     -0.76      0.00
   -4   10    6     -4.44      0.00
   -3   10    6     -1.18      0.00
   -2   10    6     -0.16      0.00
   -1   10    6     -0.27      0.00
    0   10    6      0.50      0.00
    1   10    6     -0.87      0.00
    2   10    6     -2.40      0.00
    3   10    6      0.50      0.00
    4   10    6      3.65      0.00
    5   10    6     -0.17      0.00
    6   10    6     -1.29      0.00
    7   10    6     -0.42      0.00
    8   10    6     -3.02      0.00
    9   10    6      0.08      0.00
   10   10    6      0.24      0.00
   11   10    6      0.66      0.00
   12   10    6     -0.37      0.00
   13   10    6     -0.97      0.00
   14   10    6      0.73      0.00
   15   10    6      2.07      0.00
   -8   11    6      0.93      0.00
   -7   11    6     -0.02      0.00
   -6   11    6     -1.55      0.00
   -5   11    6     -2.91      0.00
   -4   11    6     -1.28      0.00
   -3   11    6      0.63      0.00
   -2   11    6      0.06      0.00
   -1   11    6     -1.59      0.00
    0   11    6      1.33      0.00
    1   11    6     -0.31      0.00
    2   11    6      0.18      0.00
    3   11    6      0.18      0.00
    4   11    6     -0.39      0.00
    5   11    6     -1.62      0.00
    6   11    6     -1.13      0.00
    7   11    6     -1.68      0.00
    8   11    6     -1.96      0.00
    9   11    6     -2.38      0.00
   10   11    6     -0.70      0.00
   11   11    6      0.47      0.00
   12   11    6     -2.09      0.00
   13   11    6      1.67      0.00
   14   11    6      2.07      0.00
   15   11    6      1.99      0.00
   -7   12    6     -0.98      0.00
   -6   12    6     -2.93      0.00
   -5   12    6      0.19      0.00
   -4   12    6     -0.20      0.00
   -3   12    6     -1.42      0.00
   -2   12    6      1.16      0.00
   -1   12    6     -1.46      0.00
    0   12    6      3.88      0.00
    1   12    6     -3.69      0.00
    2   12    6     -0.29      0.00
    3   12    6     -2.14      0.00
    4   12    6      0.41      0.00
    5   12    6     -1.10      0.00
    6   12    6     -0.52      0.00
    7   12    6      1.07      0.00
    8   12    6     -2.28      0.00
    9   12    6      0.59      0.00
   10   12    6     -1.43      0.00
   11   12    6      0.30      0.00
   12   12    6     -1.67      0.00
   13   12    6      2.17      0.00
   14   12    6     -0.48      0.00
   -6   13    6     -0.69      0.00
   -5   13    6      1.89      0.00
   -4   13    6      2.38      0.00
   -3   13    6      1.77      0.00
   -2   13    6      3.74      0.00
   -1   13    6      0.44      0.00
    0   13    6      1.88      0.00
    1   13    6      1.44      0.00
    2   13    6      0.15      0.00
    3   13    6      1.75      0.00
    4   13    6      1.18      0.00
    5   13    6     -4.35      0.00
    6   13    6     -1.60      0.00
    7   13    6     -2.07      0.00
    8   13    6     -0.01      0.00
    9   13    6      0.32      0.00
   10   13    6      1.69      0.00
   11   13    6      3.10      0.00
   12   13    6     -0.02      0.00
   13   13    6      3.83      0.00
   14   13    6      2.21      0.00
   -5   14    6     -1.93      0.00
   -4   14    6      1.84      0.00
   -3   14    6     -4.04      0.00
   -2   14    6      1.78      0.00
   -1   14    6      0.58      0.00
    0   14    6     -0.90      0.00
    1   14    6     -1.15      0.00
    2   14    6      2.08      0.00
    3   14    6      1.16      0.00
    4   14    6     -0.28      0.00
    5   14    6     -0.25      0.00
    6   14    6      1.29      0.00
    7   14    6      3.46      0.00
    8   14    6      1.01      0.00
    9   14    6      1.54      0.00
   10   14    6      0.36      0.00
   11   14    6      0.69      0.00
   12   14    6      5.31      0.00
   13   14    6      4.64      0.00
   -5   15    6      0.02      0.00
   -4   15    6      2.66      0.00
   -3   15    6     -1.88      0.00
   -2   15    6      0.78      0.00
   -1   15    6     -1.36      0.00
    0   15    6     -3.10      0.00
    1   15    6      1.04      0.00
    2   15    6      2.29      0.00
    3   15    6     -2.72      0.00
    4   15    6     -1.96      0.00
    5   15    6     -3.39      0.00
    6   15    6     -1.15      0.00
    7   15    6      2.47      0.00
    8   15    6      2.48      0.00
    9   15    6      0.54      0.00
   10   15    6     -0.90      0.00
   11   15    6      5.42      0.00
   12   15    6      0.63      0.00
   -3   16    6      0.33      0.00
   -2   16    6      7.53      0.00
   -1   16    6     -0.40      0.00
    0   16    6     -0.67      0.00
    1   16    6      2.21      0.00
    2   16    6      0.83      0.00
    3   16    6     -3.69      0.00
    4   16    6     -0.98      0.00
    5   16    6     -3.61      0.00
    6   16    6     -0.20      0.00
    7   16    6      0.52      0.00
    8   16    6      2.75      0.00
    9   16    6      0.64      0.00
   10   16    6      0.38      0.00
   11   16    6     -0.29      0.00
   -2   17    6      6.08      0.00
   -1   17    6     -0.69      0.00
    0   17    6     -5.42      0.00
    1   17    6     -1.04      0.00
    2   17    6     -2.56      0.00
    3   17    6     -2.14      0.00
    4   17    6      3.30      0.00
    5   17    6     -2.70      0.00
    6   17    6     -1.67      0.00
    7   17    6      2.94      0.00
    8   17    6      0.37      0.00
    9   17    6     -0.89      0.00
   10   17    6     -0.24      0.00
    0   18    6     -4.95      0.00
    1   18    6      2.72      0.00
    2   18    6     -1.61      0.00
    3   18    6     -0.56      0.00
    4   18    6     -1.63      0.00
    5   18    6      0.65      0.00
    6   18    6     -0.19      0.00
    7   18    6      2.67      0.00
    8   18    6      4.05      0.00
    9   18    6      0.90      0.00
   -4  -16    7     -0.63      0.00
   -3  -16    7      0.75      0.00
   -2  -16    7      1.35      0.00
   -1  -16    7     -3.17      0.00
    0  -16    7     -1.79      0.00
    1  -16    7     -3.36      0.00
    2  -16    7      0.38      0.00
    3  -16    7      0.23      0.00
    4  -16    7     -0.85      0.00
   -5  -15    7      2.78      0.00
   -4  -15    7     -1.35      0.00
   -3  -15    7      0.32      0.00
   -2  -15    7      0.27      0.00
   -1  -15    7      0.62      0.00
    0  -15    7     -2.28      0.00
    1  -15    7      3.95      0.00
    2  -15    7      0.90      0.00
    3  -15    7     -0.29      0.00
    4  -15    7      1.63      0.00
    5  -15    7     -0.86      0.00
   -6  -14    7      4.12      0.00
   -5  -14    7      1.54      0.00
   -4  -14    7     -3.63      0.00
   -3  -14    7      0.12      0.00
   -2  -14    7     -2.04      0.00
   -1  -14    7     -1.49      0.00
    0  -14    7     -1.70      0.00
    1  -14    7     -1.92      0.00
    2  -14    7      1.13      0.00
    3  -14    7     -0.56      0.00
    4  -14    7     -0.62      0.00
    5  -14    7     -0.68      0.00
    6  -14    7      0.27      0.00
    7  -14    7      2.22      0.00
   -6  -13    7      0.47      0.00
   -5  -13    7      0.12      0.00
   -4  -13    7     -0.92      0.00
   -3  -13    7      1.29      0.00
   -2  -13    7      1.59      0.00
   -1  -13    7     -1.26      0.00
    0  -13    7      0.33      0.00
    1  -13    7      3.25      0.00
    2  -13    7     -1.38      0.00
    3  -13    7     -1.22      0.00
    4  -13    7     -0.03      0.00
    5  -13    7     -0.31      0.00
    6  -13    7      1.86      0.00
    7  -13    7     -0.13      0.00
    8  -13    7     -0.42      0.00
   -7  -12    7      2.35      0.00
   -6  -12    7     -0.64      0.00
   -5  -12    7      2.84      0.00
   -4  -12    7      1.03      0.00
   -3  -12    7      0.96      0.00
   -2  -12    7      1.97      0.00
   -1  -12    7      1.42      0.00
    0  -12    7      0.46      0.00
    1  -12    7      0.63      0.00
    2  -12    7      1.89      0.00
    3  -12    7      0.15      0.00
    4  -12    7      1.16      0.00
    5  -12    7     -0.22      0.00
    6  -12    7     -3.47      0.00
    7  -12    7      0.13      0.00
    8  -12    7     -0.62      0.00
  -10  -11    7     -0.61      0.00
   -9  -11    7     -0.14      0.00
   -8  -11    7     -2.61      0.00
   -7  -11    7     -0.64      0.00
   -6  -11    7      1.35      0.00
   -5  -11    7     -4.83      0.00
   -4  -11    7      1.26      0.00
   -3  -11    7      1.54      0.00
   -2  -11    7      0.11      0.00
   -1  -11    7      0.41      0.00
    0  -11    7     -0.02      0.00
    1  -11    7      3.60      0.00
    2  -11    7      1.02      0.00
    3  -11    7     -1.14      0.00
    4  -11    7      2.11      0.00
    5  -11    7     -2.07      0.00
    6  -11    7      0.47      0.00
    7  -11    7      1.12      0.00
    8  -11    7      2.80      0.00
  -10  -10    7     -1.93      0.00
   -9  -10    7     -1.64      0.00
   -8  -10    7     -0.50      0.00
   -7  -10    7      1.95      0.00
   -6  -10    7      2.56      0.00
   -5  -10    7      0.85      0.00
   -4  -10    7      0.93      0.00
   -3  -10    7      0.41      0.00
   -2  -10    7      1.37      0.00
   -1  -10    7     -1.14      0.00
    0  -10    7      0.64      0.00
    1  -10    7      0.87      0.00
    2  -10    7     -0.91      0.00
    3  -10    7     -0.26      0.00
    4  -10    7      1.13      0.00
    5  -10    7     -1.27      0.00
    6  -10    7     -1.57      0.00
    7  -10    7      0.90      0.00
    8  -10    7     -0.25      0.00
    9  -10    7      1.76      0.00
  -10   -9    7      0.00      0.00
   -9   -9    7     -1.82      0.00
   -8   -9    7     -1.21      0.00
   -7   -9    7      1.50      0.00
   -6   -9    7      1.44      0.00
   -5   -9    7      1.06      0.00
   -4   -9    7      0.65      0.00
   -3   -9    7      3.35      0.00
   -2   -9    7      0.67      0.00
   -1   -9    7     -2.62      0.00
    0   -9    7     -0.19      0.00
    1   -9    7      0.90      0.00
    2   -9    7      2.26      0.00
    3   -9    7      0.01      0.00
    4   -9    7      1.43      0.00
    5   -9    7      0.89      0.00
    6   -9    7      2.46      0.00
    7   -9    7      0.68      0.00
    8   -9    7      1.14      0.00
    9   -9    7      1.68      0.00
   10   -9    7      0.71      0.00
   11   -9    7      1.31      0.00
  -10   -8    7      0.52      0.00
   -9   -8    7     -2.27      0.00
   -8   -8    7      1.05      0.00
   -7   -8    7      4.34      0.00
   -6   -8    7     -0.52      0.00
   -5   -8    7      0.83      0.00
   -4   -8    7      2.47      0.00
   -3   -8    7      2.20      0.00
   -2   -8    7     -1.54      0.00
   -1   -8    7     -3.14      0.00
    0   -8    7     -0.19      0.00
    1   -8    7      0.35      0.00
    2   -8    7     -0.57      0.00
    3   -8    7      1.03      0.00
    4   -8    7     -1.01      0.00
    5   -8    7     -0.56      0.00
    6   -8    7     -0.40      0.00
    7   -8    7     -0.38      0.00
    8   -8    7     -0.13      0.00
    9   -8    7     -0.81      0.00
   10   -8    7      0.68      0.00
   11   -8    7     -0.72      0.00
   12   -8    7     -0.21      0.00
  -10   -7    7     -3.77      0.00
   -9   -7    7      0.04      0.00
   -8   -7    7      0.96      0.00
   -7   -7    7     -0.10      0.00
   -6   -7    7      0.06      0.00
   -5   -7    7     -1.60      0.00
   -4   -7    7      4.82      0.00
   -3   -7    7      1.61      0.00
   -2   -7    7     -1.50      0.00
   -1   -7    7     -1.23      0.00
    0   -7    7     -1.52      0.00
    1   -7    7      2.65      0.00
    2   -7    7     -2.04      0.00
    3   -7    7      0.33      0.00
    4   -7    7      1.73      0.00
    5   -7    7      1.28      0.00
    6   -7    7      3.03      0.00
    7   -7    7     -0.78      0.00
    8   -7    7      0.09      0.00
    9   -7    7      0.61      0.00
   10   -7    7      0.61      0.00
   11   -7    7      2.68      0.00
   12   -7    7     -2.07      0.00
  -11   -6    7      1.30      0.00
  -10   -6    7     -2.92      0.00
   -9   -6    7      0.31      0.00
   -8   -6    7     -0.81      0.00
   -7   -6    7      0.59      0.00
   -6   -6    7     -0.13      0.00
   -5   -6    7      2.29      0.00
   -4   -6    7      3.76      0.00
   -3   -6    7      4.26      0.00
   -2   -6    7     -3.07      0.00
   -1   -6    7      2.94      0.00
    0   -6    7     -2.33      0.00
    1   -6    7     -5.61      0.00
    2   -6    7     -1.21      0.00
    3   -6    7     -3.87      0.00
    4   -6    7     -0.23      0.00
    5   -6    7     -1.15      0.00
    6   -6    7      0.24      0.00
    7   -6    7     -2.63      0.00
    8   -6    7      0.52      0.00
    9   -6    7      0.34      0.00
   10   -6    7      1.60      0.00
   11   -6    7      1.66      0.00
   12   -6    7     -1.78      0.00
  -11   -5    7      3.75      0.00
  -10   -5    7     -0.31      0.00
   -9   -5    7      1.41      0.00
   -8   -5    7     -1.14      0.00
   -7   -5    7     -1.05      0.00
   -6   -5    7     -0.31      0.00
   -5   -5    7      2.99      0.00
   -4   -5    7      2.61      0.00
   -3   -5    7     -0.62      0.00
   -2   -5    7     -0.45      0.00
   -1   -5    7      2.71      0.00
    0   -5    7     -3.96      0.00
    1   -5    7     -3.65      0.00
    2   -5    7     -7.00      0.00
    3   -5    7     -2.33      0.00
    4   -5    7      1.30      0.00
    5   -5    7      2.32      0.00
    6   -5    7     -1.88      0.00
    7   -5    7     -1.56      0.00
    8   -5    7      0.96      0.00
    9   -5    7      1.47      0.00
   10   -5    7      1.33      0.00
   11   -5    7      0.58      0.00
   12   -5    7     -0.62      0.00
   13   -5    7      0.84      0.00
  -11   -4    7      0.74      0.00
  -10   -4    7     -3.33      0.00
   -9   -4    7     -1.34      0.00
   -8   -4    7     -1.59      0.00
   -7   -4    7      1.53      0.00
   -6   -4    7      1.83      0.00
   -5   -4    7      0.38      0.00
   -4   -4    7      4.17      0.00
   -3   -4    7      0.39      0.00
   -2   -4    7      7.23      0.00
   -1   -4    7     -2.12      0.00
    0   -4    7     -8.77      0.00
    1   -4    7     -6.77      0.00
    2   -4    7     -4.26      0.00
    3   -4    7     -3.57      0.00
    4   -4    7     -1.78      0.00
    5   -4    7     -3.02      0.00
    6   -4    7     -3.41      0.00
    7   -4    7     -2.10      0.00
    8   -4    7      3.04      0.00
    9   -4    7     -0.21      0.00
   10   -4    7     -1.33      0.00
   11   -4    7     -1.33      0.00
   12   -4    7     -0.40      0.00
   13   -4    7      2.23      0.00
  -11   -3    7      0.82      0.00
  -10   -3    7     -3.24      0.00
   -9   -3    7     -0.76      0.00
   -8   -3    7     -0.40      0.00
   -7   -3    7     -2.44      0.00
   -6   -3    7      0.81      0.00
   -5   -3    7      2.08      0.00
   -4   -3    7     -1.14      0.00
   -3   -3    7      4.29      0.00
   -2   -3    7     -6.08      0.00
   -1   -3    7      3.79      0.00
    0   -3    7    -11.78      0.00
    1   -3    7     -3.68      0.00
    2   -3    7     -2.24      0.00
    3   -3    7     -2.04      0.00
    4   -3    7      5.28      0.00
    5   -3    7     -2.24      0.00
    6   -3    7     -2.01      0.00
    7   -3    7     -1.68      0.00
    8   -3    7      1.43      0.00
    9   -3    7      0.21      0.00
   10   -3    7      0.35      0.00
   11   -3    7      0.08      0.00
   12   -3    7      0.20      0.00
   13   -3    7     -0.32      0.00
  -11   -2    7      1.93      0.00
  -10   -2    7     -0.87      0.00
   -9   -2    7     -0.58      0.00
   -8   -2    7     -0.77      0.00
   -7   -2    7     -1.33      0.00
   -6   -2    7     -0.92      0.00
   -5   -2    7      0.40      0.00
   -4   -2    7      1.44      0.00
   -3   -2    7      1.63      0.00
   -2   -2    7      8.79      0.00
   -1   -2    7     -1.25      0.00
    0   -2    7    -10.75      0.00
    1   -2    7     -1.75      0.00
    2   -2    7     -2.65      0.00
    3   -2    7     -0.42      0.00
    4   -2    7     -2.43      0.00
    5   -2    7     -3.51      0.00
    6   -2    7     -2.69      0.00
    7   -2    7      0.52      0.00
    8   -2    7      3.38      0.00
    9   -2    7     -0.03      0.00
   10   -2    7      0.35      0.00
   11   -2    7      1.47      0.00
   12   -2    7      1.38      0.00
   13   -2    7      0.08      0.00
  -11   -1    7      0.60      0.00
  -10   -1    7     -0.85      0.00
   -9   -1    7      0.64      0.00
   -8   -1    7     -2.54      0.00
   -7   -1    7     -2.44      0.00
   -6   -1    7      0.80      0.00
   -5   -1    7     -1.64      0.00
   -4   -1    7      2.23      0.00
   -3   -1    7      1.79      0.00
   -2   -1    7     -0.57      0.00
   -1   -1    7     -0.97      0.00
    0   -1    7     -4.16      0.00
    1   -1    7     -1.50      0.00
    2   -1    7     -3.37      0.00
    3   -1    7      0.37      0.00
    4   -1    7      4.31      0.00
    5   -1    7     -6.46      0.00
    6   -1    7     -6.43      0.00
    7   -1    7     -2.19      0.00
    8   -1    7      0.13      0.00
    9   -1    7     -0.99      0.00
   10   -1    7     -0.77      0.00
   11   -1    7     -0.04      0.00
   12   -1    7     -0.71      0.00
   13   -1    7     -0.49      0.00
   14   -1    7     -1.06      0.00
  -11    0    7      2.97      0.00
  -10    0    7     -1.41      0.00
   -9    0    7     -1.41      0.00
   -8    0    7     -0.68      0.00
   -7    0    7     -0.42      0.00
   -6    0    7     -1.57      0.00
   -5    0    7     -0.30      0.00
   -4    0    7      0.11      0.00
   -3    0    7      3.04      0.00
   -2    0    7      3.41      0.00
   -1    0    7      4.30      0.00
    0    0    7    -12.33      0.00
    1    0    7      6.45      0.00
    2    0    7      3.67      0.00
    3    0    7      7.42      0.00
    4    0    7     -1.48      0.00
    5    0    7     -5.31      0.00
    6    0    7     -0.89      0.00
    7    0    7      0.23      0.00
    8    0    7      1.99      0.00
    9    0    7     -1.66      0.00
   10    0    7      0.23      0.00
   11    0    7      0.65      0.00
   12    0    7      0.62      0.00
   13    0    7     -0.06      0.00
   14    0    7      0.32      0.00
  -11    1    7      0.78      0.00
  -10    1    7      0.42      0.00
   -9    1    7     -1.23      0.00
   -8    1    7     -0.99      0.00
   -7    1    7      0.08      0.00
   -6    1    7      1.40      0.00
   -5    1    7     -0.52      0.00
   -4    1    7     -0.80      0.00
   -3    1    7      1.58      0.00
   -2    1    7      2.40      0.00
   -1    1    7     -3.94      0.00
    0    1    7     -3.12      0.00
    1    1    7      3.66      0.00
    2    1    7      2.52      0.00
    3    1    7      3.59      0.00
    4    1    7      0.61      0.00
    5    1    7    -10.02      0.00
    6    1    7     -4.17      0.00
    7    1    7     -0.43      0.00
    8    1    7      1.00      0.00
    9    1    7     -2.15      0.00
   10    1    7      0.34      0.00
   11    1    7     -0.23      0.00
   12    1    7     -1.79      0.00
   13    1    7     -0.36      0.00
   14    1    7      0.73      0.00
  -11    2    7     -1.45      0.00
  -10    2    7     -2.52      0.00
   -9    2    7     -1.43      0.00
   -8    2    7     -2.42      0.00
   -7    2    7     -1.69      0.00
   -6    2    7     -3.06      0.00
   -5    2    7     -2.89      0.00
   -4    2    7     -1.55      0.00
   -3    2    7      5.07      0.00
   -2    2    7      0.50      0.00
   -1    2    7     -0.73      0.00
    0    2    7     -8.00      0.00
    1    2    7      3.01      0.00
    2    2    7      4.16      0.00
    3    2    7      2.90      0.00
    4    2    7     -6.18      0.00
    5    2    7     -7.91      0.00
    6    2    7      0.91      0.00
    7    2    7     -0.51      0.00
    8    2    7     -1.80      0.00
    9    2    7     -3.23      0.00
   10    2    7      1.12      0.00
   11    2    7      1.72      0.00
   12    2    7      1.77      0.00
   13    2    7     -0.12      0.00
   14    2    7     -1.29      0.00
   15    2    7     -3.83      0.00
  -11    3    7     -3.56      0.00
  -10    3    7     -0.12      0.00
   -9    3    7     -0.65      0.00
   -8    3    7      0.29      0.00
   -7    3    7     -1.52      0.00
   -6    3    7      0.90      0.00
   -5    3    7     -2.91      0.00
   -4    3    7     -0.54      0.00
   -3    3    7      3.56      0.00
   -2    3    7      4.11      0.00
   -1    3    7     -5.69      0.00
    0    3    7      1.08      0.00
    1    3    7     16.18      0.00
    2    3    7      8.07      0.00
    3    3    7      6.41      0.00
    4    3    7     -7.97      0.00
    5    3    7     -4.75      0.00
    6    3    7      0.39      0.00
    7    3    7     -1.99      0.00
    8    3    7     -1.00      0.00
    9    3    7     -1.42      0.00
   10    3    7      2.48      0.00
   11    3    7      0.11      0.00
   12    3    7     -0.03      0.00
   13    3    7      1.33      0.00
   14    3    7      0.17      0.00
   15    3    7      0.15      0.00
  -10    4    7      0.08      0.00
   -9    4    7     -0.25      0.00
   -8    4    7      0.17      0.00
   -7    4    7     -0.07      0.00
   -6    4    7      1.46      0.00
   -5    4    7     -3.18      0.00
   -4    4    7     -0.21      0.00
   -3    4    7      3.37      0.00
   -2    4    7     -4.67      0.00
   -1    4    7     -3.93      0.00
    0    4    7     -0.32      0.00
    1    4    7      1.65      0.00
    2    4    7     -1.09      0.00
    3    4    7     -9.74      0.00
    4    4    7     -7.92      0.00
    5    4    7     -4.39      0.00
    6    4    7      3.11      0.00
    7    4    7     -1.59      0.00
    8    4    7     -2.32      0.00
    9    4    7      1.14      0.00
   10    4    7      1.78      0.00
   11    4    7      1.88      0.00
   12    4    7      0.71      0.00
   13    4    7      0.08      0.00
   14    4    7     -1.59      0.00
   15    4    7     -0.13      0.00
  -10    5    7      0.46      0.00
   -9    5    7      2.86      0.00
   -8    5    7      0.32      0.00
   -7    5    7     -0.35      0.00
   -6    5    7      0.29      0.00
   -5    5    7      2.50      0.00
   -4    5    7      3.15      0.00
   -3    5    7      4.40      0.00
   -2    5    7     -2.45      0.00
   -1    5    7     -4.63      0.00
    0    5    7     -3.38      0.00
    1    5    7     11.45      0.00
    2    5    7      0.45      0.00
    3    5    7     -2.14      0.00
    4    5    7     -6.83      0.00
    5    5    7     -5.47      0.00
    6    5    7     -0.09      0.00
    7    5    7     -3.24      0.00
    8    5    7     -0.52      0.00
    9    5    7      0.62      0.00
   10    5    7      2.29      0.00
   11    5    7      0.58      0.00
   12    5    7      1.81      0.00
   13    5    7     -0.40      0.00
   14    5    7     -1.11      0.00
   15    5    7      0.55      0.00
  -10    6    7      3.32      0.00
   -9    6    7     -0.25      0.00
   -8    6    7      0.63      0.00
   -7    6    7     -1.68      0.00
   -6    6    7      3.18      0.00
   -5    6    7      1.08      0.00
   -4    6    7      2.40      0.00
   -3    6    7      0.76      0.00
   -2    6    7      0.01      0.00
   -1    6    7     -4.19      0.00
    0    6    7      4.85      0.00
    1    6    7      6.21      0.00
    2    6    7     -1.30      0.00
    3    6    7     -2.62      0.00
    4    6    7     -3.26      0.00
    5    6    7     -0.35      0.00
    6    6    7      0.72      0.00
    7    6    7     -1.44      0.00
    8    6    7      2.74      0.00
    9    6    7     -1.02      0.00
   10    6    7      2.63      0.00
   11    6    7     -0.32      0.00
   12    6    7      0.17      0.00
   13    6    7      0.64      0.00
   14    6    7      0.40      0.00
   15    6    7      2.15      0.00
  -10    7    7      0.01      0.00
   -9    7    7      1.00      0.00
   -8    7    7      0.01      0.00
   -7    7    7     -0.03      0.00
   -6    7    7      1.86      0.00
   -5    7    7      0.95      0.00
   -4    7    7      1.79      0.00
   -3    7    7      0.99      0.00
   -2    7    7     -3.55      0.00
   -1    7    7     -6.53      0.00
    0    7    7     -6.12      0.00
    1    7    7     -1.06      0.00
    2    7    7     -1.52      0.00
    3    7    7      0.06      0.00
    4    7    7     -3.78      0.00
    5    7    7      0.22      0.00
    6    7    7      1.84      0.00
    7    7    7     -2.07      0.00
    8    7    7     -0.78      0.00
    9    7    7      1.34      0.00
   10    7    7      0.84      0.00
   11    7    7      0.61      0.00
   12    7    7      0.70      0.00
   13    7    7     -0.93      0.00
   14    7    7      0.27      0.00
   15    7    7      0.07      0.00
  -10    8    7     -0.82      0.00
   -9    8    7      1.56      0.00
   -8    8    7     -0.07      0.00
   -7    8    7      1.62      0.00
   -6    8    7      1.45      0.00
   -5    8    7      3.18      0.00
   -4    8    7      2.42      0.00
   -3    8    7      3.64      0.00
   -2    8    7     -1.29      0.00
   -1    8    7     -0.45      0.00
    0    8    7      1.02      0.00
    1    8    7      6.65      0.00
    2    8    7     -0.70      0.00
    3    8    7     -2.09      0.00
    4    8    7     -1.61      0.00
    5    8    7      3.07      0.00
    6    8    7     -0.11      0.00
    7    8    7     -1.98      0.00
    8    8    7      0.96      0.00
    9    8    7      1.08      0.00
   10    8    7      0.21      0.00
   11    8    7      0.32      0.00
   12    8    7     -0.93      0.00
   13    8    7      0.60      0.00
   14    8    7      2.17      0.00
   15    8    7      4.24      0.00
  -10    9    7     -0.82      0.00
   -9    9    7     -1.27      0.00
   -8    9    7      2.51      0.00
   -7    9    7     -1.29      0.00
   -6    9    7      0.43      0.00
   -5    9    7      0.76      0.00
   -4    9    7      4.19      0.00
   -3    9    7      3.68      0.00
   -2    9    7      1.08      0.00
   -1    9    7     -3.85      0.00
    0    9    7      0.66      0.00
    1    9    7      0.49      0.00
    2    9    7      2.87      0.00
    3    9    7     -0.88      0.00
    4    9    7     -1.83      0.00
    5    9    7      2.16      0.00
    6    9    7     -0.20      0.00
    7    9    7     -2.29      0.00
    8    9    7      0.74      0.00
    9    9    7      0.19      0.00
   10    9    7      0.83      0.00
   11    9    7     -0.01      0.00
   12    9    7      0.28      0.00
   13    9    7     -0.66      0.00
   14    9    7      1.48      0.00
   15    9    7      0.59      0.00
  -10   10    7     -0.43      0.00
   -9   10    7      1.02      0.00
   -8   10    7     -0.33      0.00
   -7   10    7     -1.47      0.00
   -6   10    7     -0.88      0.00
   -5   10    7      3.81      0.00
   -4   10    7      5.26      0.00
   -3   10    7      1.06      0.00
   -2   10    7     -0.90      0.00
   -1   10    7      0.26      0.00
    0   10    7     -0.91      0.00
    1   10    7      3.33      0.00
    2   10    7     -0.59      0.00
    3   10    7     -2.37      0.00
    4   10    7      1.05      0.00
    5   10    7      3.13      0.00
    6   10    7     -1.04      0.00
    7   10    7     -1.08      0.00
    8   10    7     -0.50      0.00
    9   10    7      1.82      0.00
   10   10    7      1.20      0.00
   11   10    7     -0.05      0.00
   12   10    7      1.38      0.00
   13   10    7      0.15      0.00
   14   10    7      0.38      0.00
   15   10    7     -0.45      0.00
   -8   11    7     -0.09      0.00
   -7   11    7     -0.72      0.00
   -6   11    7      1.69      0.00
   -5   11    7      2.76      0.00
   -4   11    7      3.65      0.00
   -3   11    7      1.60      0.00
   -2   11    7      0.08      0.00
   -1   11    7      1.85      0.00
    0   11    7     -2.04      0.00
    1   11    7      1.99      0.00
    2   11    7      0.39      0.00
    3   11    7     -0.69      0.00
    4   11    7     -1.27      0.00
    5   11    7      2.36      0.00
    6   11    7     -0.49      0.00
    7   11    7     -1.60      0.00
    8   11    7      1.50      0.00
    9   11    7     -0.75      0.00
   10   11    7     -0.08      0.00
   11   11    7      0.16      0.00
   12   11    7      2.51      0.00
   13   11    7      1.12      0.00
   14   11    7      1.40      0.00
   -7   12    7     -0.43      0.00
   -6   12    7      0.53      0.00
   -5   12    7      1.39      0.00
   -4   12    7      1.48      0.00
   -3   12    7     -1.99      0.00
   -2   12    7     -2.03      0.00
   -1   12    7     -0.64      0.00
    0   12    7      0.18      0.00
    1   12    7     -2.42      0.00
    2   12    7      0.76      0.00
    3   12    7     -3.05      0.00
    4   12    7     -0.37      0.00
    5   12    7      1.42      0.00
    6   12    7     -1.88      0.00
    7   12    7      0.75      0.00
    8   12    7      0.81      0.00
    9   12    7     -0.38      0.00
   10   12    7     -1.37      0.00
   11   12    7     -1.49      0.00
   12   12    7      1.16      0.00
   13   12    7     -0.48      0.00
   14   12    7     -1.37      0.00
   -6   13    7      1.47      0.00
   -5   13    7      0.08      0.00
   -4   13    7     -0.47      0.00
   -3   13    7      1.37      0.00
   -2   13    7     -0.61      0.00
   -1   13    7      0.77      0.00
    0   13    7     -1.17      0.00
    1   13    7      1.11      0.00
    2   13    7      0.36      0.00
    3   13    7      1.20      0.00
    4   13    7      0.80      0.00
    5   13    7     -0.48      0.00
    6   13    7     -2.72      0.00
    7   13    7     -3.19      0.00
    8   13    7      0.81      0.00
    9   13    7     -0.34      0.00
   10   13    7      0.28      0.00
   11   13    7     -1.42      0.00
   12   13    7      1.07      0.00
   13   13    7     -1.37      0.00
   14   13    7      0.70      0.00
   -5   14    7     -1.23      0.00
   -4   14    7     -1.46      0.00
   -3   14    7     -5.66      0.00
   -2   14    7     -1.18      0.00
   -1   14    7      2.58      0.00
    0   14    7     -0.05      0.00
    1   14    7     -0.17      0.00
    2   14    7     -2.10      0.00
    3   14    7      0.25      0.00
    4   14    7      0.64      0.00
    5   14    7      2.37      0.00
    6   14    7      0.17      0.00
    7   14    7      0.27      0.00
    8   14    7     -1.97      0.00
    9   14    7     -0.17      0.00
   10   14    7     -1.08      0.00
   11   14    7     -3.39      0.00
   12   14    7      2.80      0.00
   13   14    7     -3.29      0.00
   -4   15    7     -1.62      0.00
   -3   15    7      1.90      0.00
   -2   15    7      0.41      0.00
   -1   15    7      2.03      0.00
    0   15    7     -1.33      0.00
    1   15    7     -2.30      0.00
    2   15    7     -1.48      0.00
    3   15    7      0.33      0.00
    4   15    7      0.73      0.00
    5   15    7      1.25      0.00
    6   15    7     -3.25      0.00
    7   15    7     -1.35      0.00
    8   15    7      0.09      0.00
    9   15    7     -0.77      0.00
   10   15    7     -4.02      0.00
   11   15    7     -1.27      0.00
   12   15    7      0.05      0.00
   -3   16    7      5.53      0.00
   -2   16    7      4.01      0.00
   -1   16    7      3.31      0.00
    0   16    7      2.79      0.00
    1   16    7     -0.09      0.00
    2   16    7      0.19      0.00
    3   16    7      2.95      0.00
    4   16    7     -0.68      0.00
    5   16    7      0.05      0.00
    6   16    7     -0.86      0.00
    7   16    7     -5.09      0.00
    8   16    7      0.22      0.00
    9   16    7      0.58      0.00
   10   16    7      2.76      0.00
   11   16    7      0.28      0.00
   12   16    7      0.08      0.00
   -1   17    7      1.21      0.00
    0   17    7     -1.53      0.00
    1   17    7     -4.49      0.00
    2   17    7      0.45      0.00
    3   17    7      1.32      0.00
    4   17    7      3.99      0.00
    5   17    7      2.30      0.00
    6   17    7     -0.56      0.00
    7   17    7     -0.60      0.00
    8   17    7     -2.57      0.00
    9   17    7      0.52      0.00
   10   17    7      1.91      0.00
    1   18    7     -0.76      0.00
    2   18    7      3.60      0.00
    3   18    7      1.69      0.00
    4   18    7     -5.33      0.00
    5   18    7      2.91      0.00
    6   18    7     -2.72      0.00
    7   18    7      0.80      0.00
    8   18    7      1.54      0.00
    9   18    7      2.15      0.00
    7   19    7      0.15      0.00
   -3  -16    8      1.68      0.00
   -2  -16    8      1.44      0.00
   -1  -16    8     -1.74      0.00
    0  -16    8      0.69      0.00
    1  -16    8     -4.89      0.00
    2  -16    8     -2.09      0.00
    3  -16    8      0.30      0.00
   -5  -15    8     -2.04      0.00
   -4  -15    8      1.32      0.00
   -3  -15    8     -0.73      0.00
   -2  -15    8      0.29      0.00
   -1  -15    8      1.25      0.00
    0  -15    8     -1.11      0.00
    1  -15    8      2.63      0.00
    2  -15    8     -1.87      0.00
    3  -15    8      0.19      0.00
    4  -15    8      2.01      0.00
    5  -15    8      1.70      0.00
   -6  -14    8      1.36      0.00
   -5  -14    8     -0.76      0.00
   -4  -14    8      1.30      0.00
   -3  -14    8     -1.05      0.00
   -2  -14    8     -2.46      0.00
   -1  -14    8     -1.35      0.00
    0  -14    8     -1.74      0.00
    1  -14    8     -3.70      0.00
    2  -14    8     -1.14      0.00
    3  -14    8     -0.66      0.00
    4  -14    8      1.58      0.00
    5  -14    8      3.05      0.00
    6  -14    8     -0.98      0.00
    7  -14    8      1.37      0.00
   -6  -13    8     -2.36      0.00
   -5  -13    8     -3.29      0.00
   -4  -13    8      0.76      0.00
   -3  -13    8     -0.46      0.00
   -2  -13    8     -0.19      0.00
   -1  -13    8     -0.61      0.00
    0  -13    8     -1.87      0.00
    1  -13    8      0.23      0.00
    2  -13    8     -4.61      0.00
    3  -13    8     -0.45      0.00
    4  -13    8      0.25      0.00
    5  -13    8      0.29      0.00
    6  -13    8      2.13      0.00
    7  -13    8     -0.11      0.00
    8  -13    8      0.23      0.00
   -7  -12    8      3.30      0.00
   -6  -12    8     -4.02      0.00
   -5  -12    8      5.88      0.00
   -4  -12    8      0.76      0.00
   -3  -12    8     -1.41      0.00
   -2  -12    8      0.35      0.00
   -1  -12    8     -0.64      0.00
    0  -12    8     -1.72      0.00
    1  -12    8     -2.34      0.00
    2  -12    8     -2.40      0.00
    3  -12    8      1.04      0.00
    4  -12    8     -0.91      0.00
    5  -12    8      3.01      0.00
    6  -12    8      1.70      0.00
    7  -12    8     -0.86      0.00
    8  -12    8     -2.10      0.00
   -9  -11    8      0.75      0.00
   -8  -11    8     -0.20      0.00
   -7  -11    8      2.34      0.00
   -6  -11    8     -2.19      0.00
   -5  -11    8     -3.18      0.00
   -4  -11    8     -0.38      0.00
   -3  -11    8     -1.35      0.00
   -2  -11    8     -2.02      0.00
   -1  -11    8     -0.88      0.00
    0  -11    8     -5.28      0.00
    1  -11    8      0.36      0.00
    2  -11    8     -0.67      0.00
    3  -11    8     -0.90      0.00
    4  -11    8     -1.03      0.00
    5  -11    8      1.81      0.00
    6  -11    8      3.55      0.00
    7  -11    8     -0.78      0.00
    8  -11    8      1.69      0.00
  -10  -10    8     -0.12      0.00
   -9  -10    8     -0.46      0.00
   -8  -10    8      0.55      0.00
   -7  -10    8     -0.07      0.00
   -6  -10    8     -0.90      0.00
   -5  -10    8      0.39      0.00
   -4  -10    8      0.06      0.00
   -3  -10    8     -1.48      0.00
   -2  -10    8     -2.42      0.00
   -1  -10    8     -0.29      0.00
    0  -10    8     -0.96      0.00
    1  -10    8     -2.01      0.00
    2  -10    8     -2.63      0.00
    3  -10    8      0.34      0.00
    4  -10    8     -1.08      0.00
    5  -10    8      0.77      0.00
    6  -10    8     -0.27      0.00
    7  -10    8     -0.64      0.00
    8  -10    8      0.09      0.00
    9  -10    8     -1.29      0.00
  -10   -9    8     -0.03      0.00
   -9   -9    8     -0.70      0.00
   -8   -9    8      0.80      0.00
   -7   -9    8     -3.75      0.00
   -6   -9    8     -3.00      0.00
   -5   -9    8      1.80      0.00
   -4   -9    8     -2.10      0.00
   -3   -9    8      0.95      0.00
   -2   -9    8     -0.85      0.00
   -1   -9    8      1.22      0.00
    0   -9    8     -1.46      0.00
    1   -9    8     -1.25      0.00
    2   -9    8      0.06      0.00
    3   -9    8     -1.18      0.00
    4   -9    8     -0.97      0.00
    5   -9    8      0.99      0.00
    6   -9    8      0.60      0.00
    7   -9    8     -0.23      0.00
    8   -9    8     -0.64      0.00
    9   -9    8     -0.78      0.00
   10   -9    8      0.25      0.00
   11   -9    8      2.76      0.00
  -10   -8    8      4.10      0.00
   -9   -8    8     -0.16      0.00
   -8   -8    8      0.55      0.00
   -7   -8    8      1.68      0.00
   -6   -8    8     -2.68      0.00
   -5   -8    8      0.94      0.00
   -4   -8    8     -2.56      0.00
   -3   -8    8     -2.60      0.00
   -2   -8    8     -0.45      0.00
   -1   -8    8      0.97      0.00
    0   -8    8      1.60      0.00
    1   -8    8     -1.00      0.00
    2   -8    8     -0.93      0.00
    3   -8    8      0.29      0.00
    4   -8    8     -1.47      0.00
    5   -8    8     -0.10      0.00
    6   -8    8     -2.76      0.00
    7   -8    8     -0.46      0.00
    8   -8    8     -0.10      0.00
    9   -8    8     -2.79      0.00
   10   -8    8      0.73      0.00
   11   -8    8     -1.79      0.00
   12   -8    8     -0.26      0.00
  -10   -7    8      0.66      0.00
   -9   -7    8     -0.76      0.00
   -8   -7    8      0.51      0.00
   -7   -7    8     -2.53      0.00
   -6   -7    8      0.85      0.00
   -5   -7    8     -1.15      0.00
   -4   -7    8     -0.18      0.00
   -3   -7    8     -3.55      0.00
   -2   -7    8      0.88      0.00
   -1   -7    8      1.13      0.00
    0   -7    8     -1.03      0.00
    1   -7    8      2.54      0.00
    2   -7    8     -1.17      0.00
    3   -7    8      1.39      0.00
    4   -7    8      2.57      0.00
    5   -7    8      1.33      0.00
    6   -7    8      0.34      0.00
    7   -7    8      1.61      0.00
    8   -7    8      1.23      0.00
    9   -7    8      1.86      0.00
   10   -7    8      0.78      0.00
   11   -7    8     -0.72      0.00
   12   -7    8     -0.64      0.00
  -10   -6    8      2.70      0.00
   -9   -6    8     -0.63      0.00
   -8   -6    8      0.98      0.00
   -7   -6    8      0.08      0.00
   -6   -6    8      1.83      0.00
   -5   -6    8      1.90      0.00
   -4   -6    8     -2.26      0.00
   -3   -6    8     -1.23      0.00
   -2   -6    8      0.49      0.00
   -1   -6    8      1.67      0.00
    0   -6    8      0.33      0.00
    1   -6    8     -0.44      0.00
    2   -6    8      5.59      0.00
    3   -6    8      1.04      0.00
    4   -6    8      2.51      0.00
    5   -6    8     -1.33      0.00
    6   -6    8      0.22      0.00
    7   -6    8      1.51      0.00
    8   -6    8      2.02      0.00
    9   -6    8      0.79      0.00
   10   -6    8     -0.83      0.00
   11   -6    8     -0.50      0.00
   12   -6    8      1.30      0.00
  -10   -5    8      2.33      0.00
   -9   -5    8      0.92      0.00
   -8   -5    8      2.09      0.00
   -7   -5    8     -1.99      0.00
   -6   -5    8      1.05      0.00
   -5   -5    8      2.98      0.00
   -4   -5    8     -2.97      0.00
   -3   -5    8     -1.80      0.00
   -2   -5    8     -0.53      0.00
   -1   -5    8     -0.26      0.00
    0   -5    8      2.60      0.00
    1   -5    8      3.99      0.00
    2   -5    8      3.06      0.00
    3   -5    8      3.40      0.00
    4   -5    8      2.52      0.00
    5   -5    8      1.93      0.00
    6   -5    8      0.94      0.00
    7   -5    8      1.76      0.00
    8   -5    8     -0.80      0.00
    9   -5    8      1.31      0.00
   10   -5    8      0.51      0.00
   11   -5    8      0.70      0.00
   12   -5    8      1.31      0.00
   13   -5    8     -1.33      0.00
  -10   -4    8      1.52      0.00
   -9   -4    8      0.60      0.00
   -8   -4    8      1.12      0.00
   -7   -4    8      0.89      0.00
   -6   -4    8      3.08      0.00
   -5   -4    8      0.66      0.00
   -4   -4    8      0.74      0.00
   -3   -4    8     -2.73      0.00
   -2   -4    8      5.36      0.00
   -1   -4    8     -2.21      0.00
    0   -4    8      1.98      0.00
    1   -4    8      3.58      0.00
    2   -4    8      3.28      0.00
    3   -4    8      2.14      0.00
    4   -4    8      0.19      0.00
    5   -4    8     -0.68      0.00
    6   -4    8      0.32      0.00
    7   -4    8      0.29      0.00
    8   -4    8      0.50      0.00
    9   -4    8      1.07      0.00
   10   -4    8      0.20      0.00
   11   -4    8     -1.31      0.00
   12   -4    8     -0.84      0.00
   13   -4    8     -0.24      0.00
  -10   -3    8     -0.03      0.00
   -9   -3    8     -0.68      0.00
   -8   -3    8      1.05      0.00
   -7   -3    8     -0.28      0.00
   -6   -3    8      2.84      0.00
   -5   -3    8      2.69      0.00
   -4   -3    8     -1.83      0.00
   -3   -3    8      1.29      0.00
   -2   -3    8     -6.91      0.00
   -1   -3    8      2.22      0.00
    0   -3    8      4.52      0.00
    1   -3    8      2.81      0.00
    2   -3    8      3.54      0.00
    3   -3    8      2.54      0.00
    4   -3    8      5.10      0.00
    5   -3    8      1.27      0.00
    6   -3    8      2.37      0.00
    7   -3    8      0.98      0.00
    8   -3    8      0.09      0.00
    9   -3    8      2.15      0.00
   10   -3    8      1.10      0.00
   11   -3    8     -0.93      0.00
   12   -3    8     -1.28      0.00
   13   -3    8     -0.16      0.00
  -10   -2    8      1.27      0.00
   -9   -2    8     -0.92      0.00
   -8   -2    8      1.55      0.00
   -7   -2    8      2.01      0.00
   -6   -2    8      1.83      0.00
   -5   -2    8      3.82      0.00
   -4   -2    8     -1.91      0.00
   -3   -2    8     -3.53      0.00
   -2   -2    8      3.19      0.00
   -1   -2    8      1.08      0.00
    0   -2    8     -1.01      0.00
    1   -2    8     -2.26      0.00
    2   -2    8      0.15      0.00
    3   -2    8      3.51      0.00
    4   -2    8     -2.63      0.00
    5   -2    8     -0.12      0.00
    6   -2    8      3.17      0.00
    7   -2    8      2.32      0.00
    8   -2    8      2.70      0.00
    9   -2    8      2.01      0.00
   10   -2    8      1.10      0.00
   11   -2    8     -0.23      0.00
   12   -2    8      0.67      0.00
   13   -2    8      0.21      0.00
  -10   -1    8     -2.11      0.00
   -9   -1    8      0.35      0.00
   -8   -1    8      0.32      0.00
   -7   -1    8      2.01      0.00
   -6   -1    8      3.56      0.00
   -5   -1    8      2.31      0.00
   -4   -1    8     -0.54      0.00
   -3   -1    8     -1.30      0.00
   -2   -1    8     -1.28      0.00
   -1   -1    8     -2.97      0.00
    0   -1    8      1.86      0.00
    1   -1    8     -1.49      0.00
    2   -1    8     -0.48      0.00
    3   -1    8      0.48      0.00
    4   -1    8      2.54      0.00
    5   -1    8      0.89      0.00
    6   -1    8     -0.21      0.00
    7   -1    8      0.26      0.00
    8   -1    8     -0.77      0.00
    9   -1    8      2.55      0.00
   10   -1    8      0.16      0.00
   11   -1    8     -1.08      0.00
   12   -1    8     -0.58      0.00
   13   -1    8     -0.02      0.00
   14   -1    8     -2.00      0.00
  -10    0    8     -1.54      0.00
   -9    0    8      1.11      0.00
   -8    0    8      1.32      0.00
   -7    0    8      1.71      0.00
   -6    0    8      1.86      0.00
   -5    0    8      1.35      0.00
   -4    0    8     -1.87      0.00
   -3    0    8     -0.72      0.00
   -2    0    8     -1.08      0.00
   -1    0    8      0.78      0.00
    0    0    8     -3.36      0.00
    1    0    8     -3.70      0.00
    2    0    8      1.61      0.00
    3    0    8      1.83      0.00
    4    0    8     -1.38      0.00
    5    0    8      2.68      0.00
    6    0    8      6.40      0.00
    7    0    8      2.13      0.00
    8    0    8      1.82      0.00
    9    0    8      2.75      0.00
   10    0    8      0.56      0.00
   11    0    8     -0.84      0.00
   12    0    8      1.33      0.00
   13    0    8      0.44      0.00
   14    0    8     -1.15      0.00
  -10    1    8      0.58      0.00
   -9    1    8      2.15      0.00
   -8    1    8      1.03      0.00
   -7    1    8      2.33      0.00
   -6    1    8      3.49      0.00
   -5    1    8      1.95      0.00
   -4    1    8     -0.95      0.00
   -3    1    8     -1.62      0.00
   -2    1    8     -1.13      0.00
   -1    1    8     -2.33      0.00
    0    1    8     -1.69      0.00
    1    1    8     -1.20      0.00
    2    1    8     -0.96      0.00
    3    1    8     -5.72      0.00
    4    1    8      0.17      0.00
    5    1    8      1.31      0.00
    6    1    8      1.56      0.00
    7    1    8      0.90      0.00
    8    1    8      0.84      0.00
    9    1    8      2.28      0.00
   10    1    8     -0.24      0.00
   11    1    8     -1.97      0.00
   12    1    8     -0.37      0.00
   13    1    8     -1.06      0.00
   14    1    8     -1.37      0.00
  -10    2    8     -0.68      0.00
   -9    2    8      1.22      0.00
   -8    2    8     -1.05      0.00
   -7    2    8      1.55      0.00
   -6    2    8     -1.51      0.00
   -5    2    8      0.39      0.00
   -4    2    8      0.15      0.00
   -3    2    8     -1.57      0.00
   -2    2    8     -4.42      0.00
   -1    2    8      1.02      0.00
    0    2    8     -2.45      0.00
    1    2    8     -5.52      0.00
    2    2    8     -3.83      0.00
    3    2    8     -5.65      0.00
    4    2    8      1.15      0.00
    5    2    8      2.98      0.00
    6    2    8      3.62      0.00
    7    2    8      0.07      0.00
    8    2    8      1.35      0.00
    9    2    8      1.18      0.00
   10    2    8     -1.56      0.00
   11    2    8     -0.12      0.00
   12    2    8      1.61      0.00
   13    2    8     -1.47      0.00
   14    2    8     -1.83      0.00
   15    2    8     -1.39      0.00
  -10    3    8     -0.68      0.00
   -9    3    8      2.38      0.00
   -8    3    8      1.71      0.00
   -7    3    8      0.68      0.00
   -6    3    8      0.49      0.00
   -5    3    8      1.43      0.00
   -4    3    8      0.72      0.00
   -3    3    8     -4.14      0.00
   -2    3    8      1.95      0.00
   -1    3    8     -1.59      0.00
    0    3    8      0.25      0.00
    1    3    8      3.84      0.00
    2    3    8     -0.85      0.00
    3    3    8      4.72      0.00
    4    3    8      4.20      0.00
    5    3    8      2.05      0.00
    6    3    8     -1.88      0.00
    7    3    8      0.70      0.00
    8    3    8      3.33      0.00
    9    3    8      0.42      0.00
   10    3    8     -1.19      0.00
   11    3    8     -1.32      0.00
   12    3    8     -1.71      0.00
   13    3    8     -1.09      0.00
   14    3    8     -0.23      0.00
   15    3    8      1.30      0.00
  -10    4    8      0.05      0.00
   -9    4    8     -0.48      0.00
   -8    4    8      0.45      0.00
   -7    4    8      1.41      0.00
   -6    4    8     -0.55      0.00
   -5    4    8     -0.64      0.00
   -4    4    8     -1.47      0.00
   -3    4    8     -4.73      0.00
   -2    4    8     -3.51      0.00
   -1    4    8      0.69      0.00
    0    4    8      0.48      0.00
    1    4    8     -9.57      0.00
    2    4    8     -6.14      0.00
    3    4    8     -2.66      0.00
    4    4    8      4.95      0.00
    5    4    8     -2.08      0.00
    6    4    8     -2.52      0.00
    7    4    8      2.95      0.00
    8    4    8      1.71      0.00
    9    4    8      0.40      0.00
   10    4    8     -2.06      0.00
   11    4    8      0.43      0.00
   12    4    8     -1.18      0.00
   13    4    8     -0.72      0.00
   14    4    8     -1.17      0.00
   15    4    8     -0.60      0.00
  -10    5    8     -2.69      0.00
   -9    5    8      1.57      0.00
   -8    5    8     -0.17      0.00
   -7    5    8      0.58      0.00
   -6    5    8     -2.93      0.00
   -5    5    8     -0.60      0.00
   -4    5    8     -0.59      0.00
   -3    5    8     -0.52      0.00
   -2    5    8      0.51      0.00
   -1    5    8      1.56      0.00
    0    5    8     -3.84      0.00
    1    5    8     -3.21      0.00
    2    5    8     -0.97      0.00
    3    5    8      5.09      0.00
    4    5    8      1.40      0.00
    5    5    8     -5.21      0.00
    6    5    8     -3.25      0.00
    7    5    8      1.72      0.00
    8    5    8     -0.66      0.00
    9    5    8      0.14      0.00
   10    5    8     -0.60      0.00
   11    5    8     -0.05      0.00
   12    5    8     -0.28      0.00
   13    5    8     -1.18      0.00
   14    5    8     -1.10      0.00
   15    5    8     -0.13      0.00
  -10    6    8     -0.82      0.00
   -9    6    8     -1.36      0.00
   -8    6    8      0.82      0.00
   -7    6    8     -0.03      0.00
   -6    6    8     -1.48      0.00
   -5    6    8     -2.52      0.00
   -4    6    8     -2.40      0.00
   -3    6    8     -1.94      0.00
   -2    6    8      0.51      0.00
   -1    6    8      2.82      0.00
    0    6    8      5.13      0.00
    1    6    8     -0.14      0.00
    2    6    8      1.37      0.00
    3    6    8     -0.33      0.00
    4    6    8      1.53      0.00
    5    6    8     -2.82      0.00
    6    6    8     -2.76      0.00
    7    6    8      1.93      0.00
    8    6    8      2.26      0.00
    9    6    8     -0.92      0.00
   10    6    8      1.79      0.00
   11    6    8     -1.15      0.00
   12    6    8     -2.06      0.00
   13    6    8     -0.85      0.00
   14    6    8     -0.58      0.00
   15    6    8      0.79      0.00
  -10    7    8     -1.10      0.00
   -9    7    8      0.13      0.00
   -8    7    8      0.35      0.00
   -7    7    8      0.88      0.00
   -6    7    8     -1.95      0.00
   -5    7    8     -3.43      0.00
   -4    7    8      1.01      0.00
   -3    7    8     -4.55      0.00
   -2    7    8     -1.92      0.00
   -1    7    8     -0.34      0.00
    0    7    8     -2.95      0.00
    1    7    8     -7.19      0.00
    2    7    8     -3.22      0.00
    3    7    8      0.03      0.00
    4    7    8     -1.24      0.00
    5    7    8     -6.02      0.00
    6    7    8     -1.01      0.00
    7    7    8      2.30      0.00
    8    7    8     -0.21      0.00
    9    7    8      1.91      0.00
   10    7    8      0.34      0.00
   11    7    8     -0.10      0.00
   12    7    8     -1.19      0.00
   13    7    8     -0.50      0.00
   14    7    8     -1.21      0.00
   15    7    8     -2.69      0.00
   -9    8    8      1.50      0.00
   -8    8    8     -0.95      0.00
   -7    8    8      1.50      0.00
   -6    8    8     -1.69      0.00
   -5    8    8     -0.49      0.00
   -4    8    8     -0.28      0.00
   -3    8    8     -2.18      0.00
   -2    8    8     -1.98      0.00
   -1    8    8      5.22      0.00
    0    8    8      0.42      0.00
    1    8    8      1.75      0.00
    2    8    8     -0.47      0.00
    3    8    8     -0.45      0.00
    4    8    8     -2.88      0.00
    5    8    8     -5.49      0.00
    6    8    8     -0.35      0.00
    7    8    8      3.17      0.00
    8    8    8      1.94      0.00
    9    8    8      1.39      0.00
   10    8    8      0.07      0.00
   11    8    8     -0.26      0.00
   12    8    8     -1.56      0.00
   13    8    8      1.52      0.00
   14    8    8     -1.22      0.00
   15    8    8      0.02      0.00
   -9    9    8     -2.62      0.00
   -8    9    8     -0.35      0.00
   -7    9    8      0.00      0.00
   -6    9    8      0.86      0.00
   -5    9    8     -1.68      0.00
   -4    9    8     -2.76      0.00
   -3    9    8     -2.98      0.00
   -2    9    8     -0.66      0.00
   -1    9    8      0.09      0.00
    0    9    8     -0.17      0.00
    1    9    8     -4.39      0.00
    2    9    8     -0.25      0.00
    3    9    8      0.84      0.00
    4    9    8     -2.54      0.00
    5    9    8     -5.08      0.00
    6    9    8      2.07      0.00
    7    9    8      3.39      0.00
    8    9    8      1.89      0.00
    9    9    8     -0.07      0.00
   10    9    8      0.38      0.00
   11    9    8     -0.84      0.00
   12    9    8      0.24      0.00
   13    9    8      0.65      0.00
   14    9    8     -1.11      0.00
   15    9    8     -2.03      0.00
   -9   10    8     -0.89      0.00
   -8   10    8      0.70      0.00
   -7   10    8      1.18      0.00
   -6   10    8      0.36      0.00
   -5   10    8     -2.43      0.00
   -4   10    8     -1.97      0.00
   -3   10    8     -3.51      0.00
   -2   10    8     -1.34      0.00
   -1   10    8     -1.55      0.00
    0   10    8     -1.39      0.00
    1   10    8     -0.94      0.00
    2   10    8     -1.57      0.00
    3   10    8     -0.05      0.00
    4   10    8      0.09      0.00
    5   10    8     -2.03      0.00
    6   10    8      0.82      0.00
    7   10    8      3.38      0.00
    8   10    8      0.66      0.00
    9   10    8      1.52      0.00
   10   10    8      0.92      0.00
   11   10    8     -1.61      0.00
   12   10    8     -0.25      0.00
   13   10    8      0.33      0.00
   14   10    8     -1.88      0.00
   15   10    8     -3.02      0.00
   -8   11    8      1.82      0.00
   -7   11    8      1.99      0.00
   -6   11    8      1.06      0.00
   -5   11    8     -2.66      0.00
   -4   11    8     -2.41      0.00
   -3   11    8      0.07      0.00
   -2   11    8     -0.10      0.00
   -1   11    8      2.65      0.00
    0   11    8     -1.12      0.00
    1   11    8      1.41      0.00
    2   11    8     -1.59      0.00
    3   11    8      3.14      0.00
    4   11    8     -1.41      0.00
    5   11    8     -1.61      0.00
    6   11    8      2.80      0.00
    7   11    8      3.94      0.00
    8   11    8      1.17      0.00
    9   11    8      0.07      0.00
   10   11    8      0.37      0.00
   11   11    8     -1.45      0.00
   12   11    8     -0.56      0.00
   13   11    8     -0.48      0.00
   14   11    8     -1.28      0.00
   15   11    8      1.37      0.00
   -6   12    8     -2.30      0.00
   -5   12    8     -0.21      0.00
   -4   12    8     -0.62      0.00
   -3   12    8     -0.23      0.00
   -2   12    8     -1.61      0.00
   -1   12    8      0.01      0.00
    0   12    8      1.63      0.00
    1   12    8     -0.19      0.00
    2   12    8      0.86      0.00
    3   12    8     -2.23      0.00
    4   12    8     -1.31      0.00
    5   12    8     -0.95      0.00
    6   12    8      1.84      0.00
    7   12    8      2.87      0.00
    8   12    8     -0.44      0.00
    9   12    8      0.32      0.00
   10   12    8     -0.73      0.00
   11   12    8     -0.59      0.00
   12   12    8     -3.39      0.00
   13   12    8     -2.32      0.00
   14   12    8     -2.31      0.00
   -6   13    8      2.14      0.00
   -5   13    8      0.10      0.00
   -4   13    8     -2.66      0.00
   -3   13    8      3.83      0.00
   -2   13    8      0.38      0.00
   -1   13    8      1.18      0.00
    0   13    8     -0.11      0.00
    1   13    8      0.83      0.00
    2   13    8      0.05      0.00
    3   13    8      1.60      0.00
    4   13    8      0.95      0.00
    5   13    8      1.17      0.00
    6   13    8      1.93      0.00
    7   13    8     -2.25      0.00
    8   13    8      1.18      0.00
    9   13    8      2.47      0.00
   10   13    8      3.36      0.00
   11   13    8      0.56      0.00
   12   13    8     -1.71      0.00
   13   13    8      0.12      0.00
   14   13    8      0.97      0.00
   -5   14    8     -0.88      0.00
   -4   14    8      0.29      0.00
   -3   14    8     -1.97      0.00
   -2   14    8     -3.60      0.00
   -1   14    8     -0.86      0.00
    0   14    8     -1.25      0.00
    1   14    8      1.31      0.00
    2   14    8     -1.81      0.00
    3   14    8     -0.84      0.00
    4   14    8      0.27      0.00
    5   14    8      1.59      0.00
    6   14    8      3.53      0.00
    7   14    8      1.51      0.00
    8   14    8     -1.34      0.00
    9   14    8      0.83      0.00
   10   14    8      2.13      0.00
   11   14    8      2.11      0.00
   12   14    8     -0.93      0.00
   13   14    8     -0.31      0.00
   -4   15    8      0.50      0.00
   -3   15    8      0.34      0.00
   -2   15    8     -5.10      0.00
   -1   15    8     -0.57      0.00
    0   15    8     -1.08      0.00
    1   15    8     -0.54      0.00
    2   15    8     -0.59      0.00
    3   15    8     -1.56      0.00
    4   15    8     -0.05      0.00
    5   15    8      0.81      0.00
    6   15    8      0.80      0.00
    7   15    8      1.01      0.00
    8   15    8      0.94      0.00
    9   15    8      1.27      0.00
   10   15    8     -0.63      0.00
   11   15    8     -1.89      0.00
   12   15    8     -4.14      0.00
   13   15    8      0.67      0.00
   -3   16    8      0.18      0.00
   -2   16    8     -3.34      0.00
   -1   16    8      3.50      0.00
    0   16    8      3.81      0.00
    1   16    8      2.53      0.00
    2   16    8      0.77      0.00
    3   16    8      0.97      0.00
    4   16    8     -1.29      0.00
    5   16    8     -1.75      0.00
    6   16    8      1.71      0.00
    7   16    8     -1.98      0.00
    8   16    8      0.63      0.00
    9   16    8      0.19      0.00
   10   16    8      3.76      0.00
   11   16    8     -1.98      0.00
   12   16    8     -4.05      0.00
   -2   17    8     -3.22      0.00
   -1   17    8      0.58      0.00
    0   17    8      1.53      0.00
    1   17    8     -0.23      0.00
    2   17    8      0.22      0.00
    3   17    8     -2.50      0.00
    4   17    8      3.36      0.00
    5   17    8      0.43      0.00
    6   17    8      3.06      0.00
    7   17    8      1.55      0.00
    8   17    8     -1.14      0.00
    9   17    8     -0.97      0.00
   10   17    8     -4.89      0.00
   11   17    8     -0.96      0.00
    1   18    8      3.12      0.00
    2   18    8      2.33      0.00
    3   18    8     -2.56      0.00
    4   18    8     -3.83      0.00
    5   18    8     -0.09      0.00
    6   18    8     -1.46      0.00
    7   18    8     -1.52      0.00
    8   18    8      0.64      0.00
    9   18    8     -0.82      0.00
   10   18    8     -4.01      0.00
    7   19    8     -3.06      0.00
    8   19    8     -0.40      0.00
   -2  -16    9      0.73      0.00
   -1  -16    9      2.70      0.00
    2  -16    9      1.58      0.00
   -4  -15    9     -0.02      0.00
   -3  -15    9      0.23      0.00
   -2  -15    9      1.15      0.00
   -1  -15    9      3.35      0.00
    0  -15    9      1.23      0.00
    1  -15    9      4.02      0.00
    2  -15    9      0.34      0.00
    3  -15    9      0.23      0.00
   -6  -14    9      2.57      0.00
   -5  -14    9      4.99      0.00
   -4  -14    9      2.08      0.00
   -3  -14    9     -0.56      0.00
   -2  -14    9      0.16      0.00
   -1  -14    9     -1.49      0.00
    0  -14    9      1.24      0.00
    1  -14    9     -2.06      0.00
    2  -14    9      3.16      0.00
    3  -14    9     -0.44      0.00
    4  -14    9     -1.24      0.00
    5  -14    9      0.94      0.00
   -5  -13    9     -0.32      0.00
   -4  -13    9     -0.78      0.00
   -3  -13    9      0.73      0.00
   -2  -13    9      0.60      0.00
   -1  -13    9      1.11      0.00
    0  -13    9      2.14      0.00
    1  -13    9      0.84      0.00
    2  -13    9      2.96      0.00
    3  -13    9     -0.17      0.00
    4  -13    9     -1.95      0.00
    5  -13    9     -2.57      0.00
    6  -13    9     -2.68      0.00
   -6  -12    9      0.79      0.00
   -5  -12    9      6.78      0.00
   -4  -12    9     -1.32      0.00
   -3  -12    9      0.44      0.00
   -2  -12    9      1.25      0.00
   -1  -12    9     -1.18      0.00
    0  -12    9      5.40      0.00
    1  -12    9      0.19      0.00
    2  -12    9      3.37      0.00
    3  -12    9      1.94      0.00
    4  -12    9     -0.97      0.00
    5  -12    9     -0.83      0.00
    6  -12    9     -3.12      0.00
    7  -12    9      0.61      0.00
    8  -12    9     -1.50      0.00
   -9  -11    9      0.78      0.00
   -8  -11    9      1.52      0.00
   -7  -11    9      3.07      0.00
   -6  -11    9      1.86      0.00
   -5  -11    9     -1.48      0.00
   -4  -11    9     -1.55      0.00
   -3  -11    9      0.10      0.00
   -2  -11    9      1.14      0.00
   -1  -11    9      0.45      0.00
    0  -11    9     -0.20      0.00
    1  -11    9      0.96      0.00
    2  -11    9      3.94      0.00
    3  -11    9     -0.23      0.00
    4  -11    9      0.70      0.00
    5  -11    9     -0.27      0.00
    6  -11    9     -0.77      0.00
    7  -11    9      2.00      0.00
    8  -11    9      1.06      0.00
   -9  -10    9      2.60      0.00
   -8  -10    9      0.74      0.00
   -7  -10    9     -0.87      0.00
   -6  -10    9      2.33      0.00
   -5  -10    9     -2.13      0.00
   -4  -10    9      1.42      0.00
   -3  -10    9     -0.74      0.00
   -2  -10    9      0.51      0.00
   -1  -10    9      0.84      0.00
    0  -10    9      3.34      0.00
    1  -10    9     -1.44      0.00
    2  -10    9      0.23      0.00
    3  -10    9      0.10      0.00
    4  -10    9      1.58      0.00
    5  -10    9      0.23      0.00
    6  -10    9     -1.83      0.00
    7  -10    9      0.12      0.00
    8  -10    9      1.07      0.00
    9  -10    9      1.58      0.00
   -9   -9    9      1.47      0.00
   -8   -9    9      1.84      0.00
   -7   -9    9     -3.34      0.00
   -6   -9    9      2.00      0.00
   -5   -9    9      0.63      0.00
   -4   -9    9     -0.91      0.00
   -3   -9    9      2.59      0.00
   -2   -9    9      1.40      0.00
   -1   -9    9      1.41      0.00
    0   -9    9     -1.22      0.00
    1   -9    9     -1.23      0.00
    2   -9    9      1.33      0.00
    3   -9    9     -2.30      0.00
    4   -9    9      1.35      0.00
    5   -9    9      1.32      0.00
    6   -9    9     -1.03      0.00
    7   -9    9     -0.32      0.00
    8   -9    9     -1.95      0.00
    9   -9    9      2.80      0.00
   10   -9    9     -2.78      0.00
   -9   -8    9      1.30      0.00
   -8   -8    9     -0.17      0.00
   -7   -8    9      2.10      0.00
   -6   -8    9     -1.36      0.00
   -5   -8    9      1.07      0.00
   -4   -8    9     -3.20      0.00
   -3   -8    9     -0.89      0.00
   -2   -8    9      0.39      0.00
   -1   -8    9     -2.48      0.00
    0   -8    9      0.49      0.00
    1   -8    9     -0.14      0.00
    2   -8    9      1.33      0.00
    3   -8    9     -0.97      0.00
    4   -8    9     -0.62      0.00
    5   -8    9     -0.29      0.00
    6   -8    9     -3.02      0.00
    7   -8    9     -0.21      0.00
    8   -8    9     -0.39      0.00
    9   -8    9     -2.55      0.00
   10   -8    9     -2.77      0.00
   11   -8    9     -4.22      0.00
   12   -8    9      1.14      0.00
   -9   -7    9     -0.68      0.00
   -8   -7    9     -2.04      0.00
   -7   -7    9     -2.58      0.00
   -6   -7    9     -0.27      0.00
   -5   -7    9     -2.23      0.00
   -4   -7    9      1.39      0.00
   -3   -7    9     -0.24      0.00
   -2   -7    9      0.71      0.00
   -1   -7    9     -2.22      0.00
    0   -7    9     -2.60      0.00
    1   -7    9      0.37      0.00
    2   -7    9     -2.67      0.00
    3   -7    9     -1.23      0.00
    4   -7    9      0.02      0.00
    5   -7    9     -0.57      0.00
    6   -7    9     -0.16      0.00
    7   -7    9      0.99      0.00
    8   -7    9     -1.57      0.00
    9   -7    9     -0.33      0.00
   10   -7    9      0.93      0.00
   11   -7    9     -0.59      0.00
   12   -7    9     -0.05      0.00
   -9   -6    9     -0.35      0.00
   -8   -6    9     -2.31      0.00
   -7   -6    9      1.64      0.00
   -6   -6    9     -0.88      0.00
   -5   -6    9     -1.83      0.00
   -4   -6    9     -2.01      0.00
   -3   -6    9      0.71      0.00
   -2   -6    9     -0.62      0.00
   -1   -6    9     -0.11      0.00
    0   -6    9     -1.25      0.00
    1   -6    9     -1.73      0.00
    2   -6    9      0.33      0.00
    3   -6    9     -2.63      0.00
    4   -6    9     -0.29      0.00
    5   -6    9     -1.42      0.00
    6   -6    9      0.27      0.00
    7   -6    9      0.44      0.00
    8   -6    9     -0.89      0.00
    9   -6    9     -1.20      0.00
   10   -6    9     -1.06      0.00
   11   -6    9     -0.12      0.00
   12   -6    9      1.84      0.00
  -10   -5    9     -1.34      0.00
   -9   -5    9     -1.72      0.00
   -8   -5    9     -0.23      0.00
   -7   -5    9      0.10      0.00
   -6   -5    9     -3.88      0.00
   -5   -5    9     -1.89      0.00
   -4   -5    9     -1.84      0.00
   -3   -5    9      1.64      0.00
   -2   -5    9     -2.89      0.00
   -1   -5    9     -0.08      0.00
    0   -5    9      1.55      0.00
    1   -5    9     -2.40      0.00
    2   -5    9     -2.43      0.00
    3   -5    9     -2.00      0.00
    4   -5    9     -2.65      0.00
    5   -5    9     -0.90      0.00
    6   -5    9     -0.74      0.00
    7   -5    9      0.48      0.00
    8   -5    9     -2.13      0.00
    9   -5    9     -1.80      0.00
   10   -5    9     -0.82      0.00
   11   -5    9      0.86      0.00
   12   -5    9      1.02      0.00
  -10   -4    9     -0.39      0.00
   -9   -4    9     -0.28      0.00
   -8   -4    9      0.81      0.00
   -7   -4    9      0.62      0.00
   -6   -4    9     -3.14      0.00
   -5   -4    9     -3.49      0.00
   -4   -4    9      1.25      0.00
   -3   -4    9     -2.39      0.00
   -2   -4    9      2.87      0.00
   -1   -4    9     -0.07      0.00
    0   -4    9      0.36      0.00
    1   -4    9     -1.09      0.00
    2   -4    9     -0.93      0.00
    3   -4    9     -2.15      0.00
    4   -4    9     -3.51      0.00
    5   -4    9     -0.53      0.00
    6   -4    9     -0.23      0.00
    7   -4    9      0.04      0.00
    8   -4    9     -1.14      0.00
    9   -4    9     -1.85      0.00
   10   -4    9     -0.97      0.00
   11   -4    9      0.21      0.00
   12   -4    9      1.33      0.00
   13   -4    9     -0.68      0.00
  -10   -3    9     -0.74      0.00
   -9   -3    9     -2.56      0.00
   -8   -3    9     -0.56      0.00
   -7   -3    9     -2.00      0.00
   -6   -3    9     -2.74      0.00
   -5   -3    9     -3.17      0.00
   -4   -3    9     -1.12      0.00
   -3   -3    9      1.92      0.00
   -2   -3    9     -3.42      0.00
   -1   -3    9      1.81      0.00
    0   -3    9      2.42      0.00
    1   -3    9      0.65      0.00
    2   -3    9      2.23      0.00
    3   -3    9     -3.11      0.00
    4   -3    9     -0.39      0.00
    5   -3    9      2.05      0.00
    6   -3    9      0.81      0.00
    7   -3    9      0.72      0.00
    8   -3    9     -1.92      0.00
    9   -3    9     -1.13      0.00
   10   -3    9     -0.93      0.00
   11   -3    9      0.84      0.00
   12   -3    9     -0.16      0.00
   13   -3    9     -1.05      0.00
  -10   -2    9      2.62      0.00
   -9   -2    9     -0.17      0.00
   -8   -2    9      0.68      0.00
   -7   -2    9     -0.97      0.00
   -6   -2    9     -3.46      0.00
   -5   -2    9     -2.83      0.00
   -4   -2    9     -1.06      0.00
   -3   -2    9     -1.40      0.00
   -2   -2    9      3.14      0.00
   -1   -2    9      1.80      0.00
    0   -2    9      3.16      0.00
    1   -2    9     -1.72      0.00
    2   -2    9      0.15      0.00
    3   -2    9     -3.02      0.00
    4   -2    9     -3.43      0.00
    5   -2    9      2.84      0.00
    6   -2    9      1.72      0.00
    7   -2    9      0.46      0.00
    8   -2    9     -0.46      0.00
    9   -2    9     -1.87      0.00
   10   -2    9     -0.10      0.00
   11   -2    9      2.06      0.00
   12   -2    9      0.39      0.00
   13   -2    9     -0.54      0.00
  -10   -1    9      0.21      0.00
   -9   -1    9     -0.56      0.00
   -8   -1    9      0.72      0.00
   -7   -1    9     -0.41      0.00
   -6   -1    9     -3.17      0.00
   -5   -1    9     -2.52      0.00
   -4   -1    9      2.00      0.00
   -3   -1    9      2.05      0.00
   -2   -1    9      1.82      0.00
   -1   -1    9      0.13      0.00
    0   -1    9      5.88      0.00
    1   -1    9      6.86      0.00
    2   -1    9      0.69      0.00
    3   -1    9     -4.14      0.00
    4   -1    9      1.00      0.00
    5   -1    9      4.76      0.00
    6   -1    9     -1.46      0.00
    7   -1    9     -1.30      0.00
    8   -1    9     -3.24      0.00
    9   -1    9     -0.86      0.00
   10   -1    9     -0.35      0.00
   11   -1    9      0.75      0.00
   12   -1    9     -0.58      0.00
   13   -1    9      0.63      0.00
  -10    0    9      1.53      0.00
   -9    0    9     -1.13      0.00
   -8    0    9      1.81      0.00
   -7    0    9     -1.19      0.00
   -6    0    9     -3.20      0.00
   -5    0    9     -1.95      0.00
   -4    0    9      2.31      0.00
   -3    0    9     -0.56      0.00
   -2    0    9     -0.14      0.00
   -1    0    9      3.28      0.00
    0    0    9      9.74      0.00
    1    0    9      0.89      0.00
    2    0    9      0.76      0.00
    3    0    9     -0.52      0.00
    4    0    9      3.32      0.00
    5    0    9      4.86      0.00
    6    0    9      1.88      0.00
    7    0    9     -0.17      0.00
    8    0    9     -0.59      0.00
    9    0    9      0.36      0.00
   10    0    9      0.41      0.00
   11    0    9      1.27      0.00
   12    0    9     -0.40      0.00
   13    0    9      1.44      0.00
   14    0    9      1.43      0.00
  -10    1    9     -0.57      0.00
   -9    1    9     -1.63      0.00
   -8    1    9      1.88      0.00
   -7    1    9     -0.98      0.00
   -6    1    9     -0.37      0.00
   -5    1    9      0.46      0.00
   -4    1    9      0.93      0.00
   -3    1    9      0.73      0.00
   -2    1    9      1.91      0.00
   -1    1    9      1.41      0.00
    0    1    9      4.38      0.00
    1    1    9      2.47      0.00
    2    1    9      0.52      0.00
    3    1    9     -2.83      0.00
    4    1    9      2.98      0.00
    5    1    9      3.02      0.00
    6    1    9     -4.90      0.00
    7    1    9     -0.72      0.00
    8    1    9     -0.06      0.00
    9    1    9     -0.46      0.00
   10    1    9      1.30      0.00
   11    1    9     -0.13      0.00
   12    1    9     -0.71      0.00
   13    1    9      0.36      0.00
   14    1    9      1.14      0.00
  -10    2    9     -0.28      0.00
   -9    2    9     -3.50      0.00
   -8    2    9     -0.19      0.00
   -7    2    9     -1.37      0.00
   -6    2    9     -2.36      0.00
   -5    2    9     -0.91      0.00
   -4    2    9      0.68      0.00
   -3    2    9      1.18      0.00
   -2    2    9     -0.68      0.00
   -1    2    9      3.30      0.00
    0    2    9      5.01      0.00
    1    2    9     -3.10      0.00
    2    2    9     -1.72      0.00
    3    2    9      0.06      0.00
    4    2    9      5.21      0.00
    5    2    9      3.50      0.00
    6    2    9     -1.42      0.00
    7    2    9     -0.54      0.00
    8    2    9     -0.82      0.00
    9    2    9     -0.18      0.00
   10    2    9      0.38      0.00
   11    2    9      0.67      0.00
   12    2    9      0.95      0.00
   13    2    9      1.61      0.00
   14    2    9      0.76      0.00
   15    2    9     -2.97      0.00
  -10    3    9     -2.47      0.00
   -9    3    9      1.00      0.00
   -8    3    9      2.08      0.00
   -7    3    9     -1.17      0.00
   -6    3    9      0.56      0.00
   -5    3    9     -0.35      0.00
   -4    3    9      0.98      0.00
   -3    3    9     -0.13      0.00
   -2    3    9      3.24      0.00
   -1    3    9      0.68      0.00
    0    3    9      2.56      0.00
    1    3    9      2.99      0.00
    2    3    9      3.43      0.00
    3    3    9      4.90      0.00
    4    3    9      2.76      0.00
    5    3    9      5.74      0.00
    6    3    9      0.28      0.00
    7    3    9     -0.01      0.00
    8    3    9     -0.25      0.00
    9    3    9      0.30      0.00
   10    3    9      0.72      0.00
   11    3    9     -1.11      0.00
   12    3    9     -0.55      0.00
   13    3    9      1.08      0.00
   14    3    9      0.96      0.00
   15    3    9      0.32      0.00
  -10    4    9      0.59      0.00
   -9    4    9     -1.35      0.00
   -8    4    9      0.69      0.00
   -7    4    9      1.16      0.00
   -6    4    9      1.41      0.00
   -5    4    9      1.01      0.00
   -4    4    9     -0.55      0.00
   -3    4    9     -2.79      0.00
   -2    4    9     -1.85      0.00
   -1    4    9      0.73      0.00
    0    4    9      3.09      0.00
    1    4    9     -1.89      0.00
    2    4    9     -0.77      0.00
    3    4    9     -5.41      0.00
    4    4    9      4.25      0.00
    5    4    9      6.47      0.00
    6    4    9      0.99      0.00
    7    4    9     -0.60      0.00
    8    4    9     -0.11      0.00
    9    4    9      1.18      0.00
   10    4    9     -1.61      0.00
   11    4    9     -0.31      0.00
   12    4    9      0.86      0.00
   13    4    9      1.84      0.00
   14    4    9      2.21      0.00
   15    4    9     -0.31      0.00
   -9    5    9      0.97      0.00
   -8    5    9     -0.27      0.00
   -7    5    9      0.86      0.00
   -6    5    9     -0.02      0.00
   -5    5    9      1.09      0.00
   -4    5    9      0.56      0.00
   -3    5    9     -0.27      0.00
   -2    5    9      2.59      0.00
   -1    5    9      1.04      0.00
    0    5    9     -1.34      0.00
    1    5    9      0.48      0.00
    2    5    9     -0.55      0.00
    3    5    9      2.12      0.00
    4    5    9      4.50      0.00
    5    5    9      5.80      0.00
    6    5    9      1.03      0.00
    7    5    9     -1.22      0.00
    8    5    9     -1.89      0.00
    9    5    9      0.39      0.00
   10    5    9     -2.49      0.00
   11    5    9     -0.47      0.00
   12    5    9      1.24      0.00
   13    5    9      1.38      0.00
   14    5    9      2.46      0.00
   15    5    9     -1.54      0.00
   -9    6    9     -1.58      0.00
   -8    6    9     -0.20      0.00
   -7    6    9     -0.66      0.00
   -6    6    9      0.99      0.00
   -5    6    9      3.50      0.00
   -4    6    9     -3.85      0.00
   -3    6    9      0.29      0.00
   -2    6    9      1.36      0.00
   -1    6    9      1.89      0.00
    0    6    9      2.98      0.00
    1    6    9      3.08      0.00
    2    6    9      4.27      0.00
    3    6    9      1.87      0.00
    4    6    9      5.71      0.00
    5    6    9      6.76      0.00
    6    6    9      0.62      0.00
    7    6    9     -1.16      0.00
    8    6    9      1.21      0.00
    9    6    9     -3.11      0.00
   10    6    9     -1.35      0.00
   11    6    9     -1.48      0.00
   12    6    9      1.09      0.00
   13    6    9      1.68      0.00
   14    6    9      0.80      0.00
   15    6    9     -1.98      0.00
   -9    7    9     -0.90      0.00
   -8    7    9     -1.16      0.00
   -7    7    9     -1.01      0.00
   -6    7    9      1.59      0.00
   -5    7    9      1.24      0.00
   -4    7    9     -0.83      0.00
   -3    7    9     -1.86      0.00
   -2    7    9      3.06      0.00
   -1    7    9     -2.75      0.00
    0    7    9     -1.86      0.00
    1    7    9     -4.62      0.00
    2    7    9     -2.37      0.00
    3    7    9      1.55      0.00
    4    7    9      5.17      0.00
    5    7    9      5.80      0.00
    6    7    9      0.51      0.00
    7    7    9     -0.90      0.00
    8    7    9     -1.63      0.00
    9    7    9     -1.83      0.00
   10    7    9     -1.94      0.00
   11    7    9     -0.48      0.00
   12    7    9      1.76      0.00
   13    7    9      0.69      0.00
   14    7    9      0.02      0.00
   15    7    9     -3.85      0.00
   -9    8    9      0.43      0.00
   -8    8    9     -1.63      0.00
   -7    8    9      1.25      0.00
   -6    8    9      0.28      0.00
   -5    8    9      1.28      0.00
   -4    8    9     -2.53      0.00
   -3    8    9      1.17      0.00
   -2    8    9      2.41      0.00
   -1    8    9      2.44      0.00
    0    8    9      0.42      0.00
    1    8    9      2.91      0.00
    2    8    9      2.07      0.00
    3    8    9      2.66      0.00
    4    8    9      3.26      0.00
    5    8    9      4.32      0.00
    6    8    9     -1.61      0.00
    7    8    9     -1.55      0.00
    8    8    9     -0.69      0.00
    9    8    9     -1.42      0.00
   10    8    9     -1.79      0.00
   11    8    9      0.37      0.00
   12    8    9      0.10      0.00
   13    8    9      0.71      0.00
   14    8    9      0.14      0.00
   15    8    9      0.29      0.00
   -9    9    9     -0.26      0.00
   -8    9    9     -0.72      0.00
   -7    9    9     -0.16      0.00
   -6    9    9      1.08      0.00
   -5    9    9     -0.49      0.00
   -4    9    9     -2.85      0.00
   -3    9    9      2.73      0.00
   -2    9    9      1.55      0.00
   -1    9    9      1.07      0.00
    0    9    9      1.63      0.00
    1    9    9     -1.12      0.00
    2    9    9      1.18      0.00
    3    9    9      2.18      0.00
    4    9    9      3.69      0.00
    5    9    9      1.47      0.00
    6    9    9     -0.09      0.00
    7    9    9     -0.91      0.00
    8    9    9     -1.93      0.00
    9    9    9     -1.90      0.00
   10    9    9     -1.30      0.00
   11    9    9      0.68      0.00
   12    9    9      0.11      0.00
   13    9    9     -0.97      0.00
   14    9    9     -0.25      0.00
   15    9    9     -0.56      0.00
   -9   10    9      1.59      0.00
   -8   10    9      1.22      0.00
   -7   10    9     -0.44      0.00
   -6   10    9     -1.24      0.00
   -5   10    9     -0.38      0.00
   -4   10    9      0.84      0.00
   -3   10    9      0.52      0.00
   -2   10    9      1.25      0.00
   -1   10    9     -4.02      0.00
    0   10    9     -0.61      0.00
    1   10    9     -1.04      0.00
    2   10    9      2.28      0.00
    3   10    9     -0.39      0.00
    4   10    9      2.20      0.00
    5   10    9      1.37      0.00
    6   10    9     -0.37      0.00
    7   10    9     -3.48      0.00
    8   10    9     -4.11      0.00
    9   10    9      0.27      0.00
   10   10    9     -0.38      0.00
   11   10    9      1.66      0.00
   12   10    9      0.27      0.00
   13   10    9      0.00      0.00
   14   10    9      0.16      0.00
   15   10    9     -2.43      0.00
   -7   11    9     -1.44      0.00
   -6   11    9      0.36      0.00
   -5   11    9     -0.28      0.00
   -4   11    9      0.51      0.00
   -3   11    9      0.13      0.00
   -2   11    9      2.69      0.00
   -1   11    9      1.39      0.00
    0   11    9     -0.77      0.00
    1   11    9      0.82      0.00
    2   11    9     -0.97      0.00
    3   11    9      1.51      0.00
    4   11    9     -0.50      0.00
    5   11    9      0.60      0.00
    6   11    9      0.67      0.00
    7   11    9     -2.83      0.00
    8   11    9     -1.02      0.00
    9   11    9     -0.81      0.00
   10   11    9     -0.67      0.00
   11   11    9      0.31      0.00
   12   11    9      0.32      0.00
   13   11    9      1.86      0.00
   14   11    9     -1.07      0.00
   -6   12    9     -3.85      0.00
   -5   12    9      0.06      0.00
   -4   12    9      0.88      0.00
   -3   12    9      0.47      0.00
   -2   12    9      1.06      0.00
   -1   12    9     -3.04      0.00
    0   12    9     -0.48      0.00
    1   12    9     -0.69      0.00
    2   12    9      0.53      0.00
    3   12    9     -3.00      0.00
    4   12    9     -1.74      0.00
    5   12    9     -0.54      0.00
    6   12    9     -1.70      0.00
    7   12    9     -1.50      0.00
    8   12    9     -1.17      0.00
    9   12    9     -1.60      0.00
   10   12    9     -3.16      0.00
   11   12    9      1.61      0.00
   12   12    9     -0.83      0.00
   13   12    9      1.34      0.00
   14   12    9     -1.09      0.00
   -5   13    9      0.34      0.00
   -4   13    9     -0.89      0.00
   -3   13    9      1.19      0.00
   -2   13    9      1.91      0.00
   -1   13    9     -1.85      0.00
    0   13    9      1.44      0.00
    1   13    9     -0.24      0.00
    2   13    9      0.16      0.00
    3   13    9      1.56      0.00
    4   13    9     -0.05      0.00
    5   13    9      0.58      0.00
    6   13    9      0.59      0.00
    7   13    9     -3.21      0.00
    8   13    9     -0.29      0.00
    9   13    9     -0.16      0.00
   10   13    9      1.79      0.00
   11   13    9      1.43      0.00
   12   13    9      1.63      0.00
   13   13    9      1.62      0.00
   14   13    9      0.44      0.00
   -5   14    9     -0.57      0.00
   -4   14    9      3.48      0.00
   -3   14    9     -2.35      0.00
   -2   14    9      1.35      0.00
   -1   14    9     -4.09      0.00
    0   14    9     -0.21      0.00
    1   14    9      0.35      0.00
    2   14    9      0.75      0.00
    3   14    9     -0.24      0.00
    4   14    9     -1.88      0.00
    5   14    9      1.51      0.00
    6   14    9      0.75      0.00
    7   14    9      0.82      0.00
    8   14    9     -3.25      0.00
    9   14    9     -2.14      0.00
   10   14    9     -2.62      0.00
   11   14    9      3.12      0.00
   12   14    9      2.31      0.00
   13   14    9      0.60      0.00
   -4   15    9      0.75      0.00
   -3   15    9      0.98      0.00
   -2   15    9      2.67      0.00
   -1   15    9     -3.97      0.00
    0   15    9     -0.47      0.00
    1   15    9      1.23      0.00
    2   15    9      1.37      0.00
    3   15    9     -1.78      0.00
    4   15    9     -1.93      0.00
    5   15    9     -0.26      0.00
    6   15    9     -0.87      0.00
    7   15    9     -0.85      0.00
    8   15    9     -0.76      0.00
    9   15    9     -0.13      0.00
   10   15    9     -3.94      0.00
   11   15    9     -1.31      0.00
   12   15    9      0.03      0.00
   13   15    9      1.56      0.00
   -3   16    9      4.41      0.00
   -2   16    9      1.16      0.00
   -1   16    9     -4.40      0.00
    0   16    9      1.04      0.00
    1   16    9      2.19      0.00
    2   16    9      0.20      0.00
    3   16    9     -0.54      0.00
    4   16    9      0.35      0.00
    5   16    9     -1.17      0.00
    6   16    9     -0.75      0.00
    7   16    9     -1.45      0.00
    8   16    9     -0.67      0.00
    9   16    9     -1.25      0.00
   10   16    9      1.99      0.00
   11   16    9      2.59      0.00
   12   16    9      4.27      0.00
   -2   17    9     -0.62      0.00
   -1   17    9     -6.59      0.00
    0   17    9     -1.28      0.00
    1   17    9     -0.94      0.00
    2   17    9     -2.35      0.00
    3   17    9     -1.37      0.00
    4   17    9      3.54      0.00
    5   17    9      1.65      0.00
    6   17    9      1.58      0.00
    7   17    9      2.17      0.00
    8   17    9     -1.10      0.00
    9   17    9      0.23      0.00
   10   17    9      0.22      0.00
   11   17    9      1.63      0.00
   -1   18    9     -4.22      0.00
    0   18    9     -1.16      0.00
    1   18    9     -0.88      0.00
    2   18    9      3.27      0.00
    3   18    9      0.59      0.00
    4   18    9     -1.13      0.00
    5   18    9     -1.57      0.00
    6   18    9      1.21      0.00
    7   18    9      0.07      0.00
    8   18    9     -0.35      0.00
    9   18    9      2.28      0.00
   10   18    9     -0.21      0.00
    0   19    9     -1.22      0.00
    7   19    9      2.64      0.00
    8   19    9     -1.44      0.00
   -1  -15   10      0.68      0.00
    0  -15   10     -0.19      0.00
    1  -15   10      1.32      0.00
    2  -15   10     -1.01      0.00
   -5  -14   10     -2.75      0.00
   -4  -14   10     -1.30      0.00
   -3  -14   10     -0.60      0.00
   -2  -14   10      0.00      0.00
   -1  -14   10     -1.94      0.00
    0  -14   10     -0.14      0.00
    1  -14   10     -2.07      0.00
    2  -14   10     -0.38      0.00
    3  -14   10     -0.59      0.00
   -5  -13   10     -7.81      0.00
   -4  -13   10     -1.44      0.00
   -3  -13   10      1.96      0.00
   -2  -13   10      0.12      0.00
   -1  -13   10      4.77      0.00
    0  -13   10      0.14      0.00
    1  -13   10     -0.30      0.00
    2  -13   10     -1.36      0.00
    3  -13   10     -1.34      0.00
    4  -13   10      0.72      0.00
    5  -13   10     -1.78      0.00
   -5  -12   10      0.12      0.00
   -4  -12   10      1.02      0.00
   -3  -12   10      1.15      0.00
   -2  -12   10     -0.04      0.00
   -1  -12   10      1.31      0.00
    0  -12   10      1.71      0.00
    1  -12   10      0.07      0.00
    2  -12   10     -2.08      0.00
    3  -12   10      0.66      0.00
    4  -12   10      1.46      0.00
    5  -12   10     -0.15      0.00
    6  -12   10      1.33      0.00
   -7  -11   10      1.60      0.00
   -6  -11   10      1.94      0.00
   -5  -11   10      0.88      0.00
   -4  -11   10      0.33      0.00
   -3  -11   10      0.32      0.00
   -2  -11   10      0.98      0.00
   -1  -11   10      1.71      0.00
    0  -11   10     -3.16      0.00
    1  -11   10      1.15      0.00
    2  -11   10      0.15      0.00
    3  -11   10     -0.77      0.00
    4  -11   10      0.73      0.00
    5  -11   10     -0.33      0.00
    6  -11   10      1.53      0.00
    7  -11   10      0.02      0.00
    8  -11   10     -0.09      0.00
   -8  -10   10     -4.32      0.00
   -7  -10   10     -0.48      0.00
   -6  -10   10      1.26      0.00
   -5  -10   10     -1.49      0.00
   -4  -10   10      3.01      0.00
   -3  -10   10     -2.17      0.00
   -2  -10   10      0.09      0.00
   -1  -10   10      0.68      0.00
    0  -10   10      1.85      0.00
    1  -10   10      2.19      0.00
    2  -10   10     -1.39      0.00
    3  -10   10      0.66      0.00
    4  -10   10     -0.41      0.00
    5  -10   10     -3.43      0.00
    6  -10   10     -0.18      0.00
    7  -10   10     -0.61      0.00
    8  -10   10      2.72      0.00
   -8   -9   10     -1.04      0.00
   -7   -9   10      0.26      0.00
   -6   -9   10      6.18      0.00
   -5   -9   10      1.14      0.00
   -4   -9   10      2.53      0.00
   -3   -9   10      2.12      0.00
   -2   -9   10     -0.43      0.00
   -1   -9   10      3.38      0.00
    0   -9   10      0.73      0.00
    1   -9   10      0.77      0.00
    2   -9   10      0.01      0.00
    3   -9   10     -0.49      0.00
    4   -9   10     -1.30      0.00
    5   -9   10     -2.03      0.00
    6   -9   10      3.27      0.00
    7   -9   10      0.32      0.00
    8   -9   10     -2.09      0.00
    9   -9   10      1.94      0.00
   -9   -8   10     -0.85      0.00
   -8   -8   10     -0.22      0.00
   -7   -8   10      4.13      0.00
   -6   -8   10      1.08      0.00
   -5   -8   10      2.53      0.00
   -4   -8   10     -1.61      0.00
   -3   -8   10      0.36      0.00
   -2   -8   10     -0.57      0.00
   -1   -8   10      0.18      0.00
    0   -8   10      3.38      0.00
    1   -8   10      1.03      0.00
    2   -8   10      2.72      0.00
    3   -8   10      2.10      0.00
    4   -8   10     -2.24      0.00
    5   -8   10      0.30      0.00
    6   -8   10      1.55      0.00
    7   -8   10     -1.18      0.00
    8   -8   10      0.97      0.00
    9   -8   10      0.38      0.00
   10   -8   10     -0.46      0.00
   11   -8   10      0.83      0.00
   -9   -7   10     -1.74      0.00
   -8   -7   10      1.14      0.00
   -7   -7   10      0.21      0.00
   -6   -7   10      1.06      0.00
   -5   -7   10     -0.91      0.00
   -4   -7   10      5.02      0.00
   -3   -7   10      2.05      0.00
   -2   -7   10      1.49      0.00
   -1   -7   10      1.94      0.00
    0   -7   10      1.40      0.00
    1   -7   10      0.23      0.00
    2   -7   10     -0.51      0.00
    3   -7   10      2.17      0.00
    4   -7   10     -1.32      0.00
    5   -7   10      1.17      0.00
    6   -7   10      1.10      0.00
    7   -7   10     -1.80      0.00
    8   -7   10      1.75      0.00
    9   -7   10      1.20      0.00
   10   -7   10      2.27      0.00
   11   -7   10      2.63      0.00
   12   -7   10     -2.39      0.00
   -9   -6   10      2.44      0.00
   -8   -6   10     -0.82      0.00
   -7   -6   10      2.53      0.00
   -6   -6   10      1.28      0.00
   -5   -6   10      1.14      0.00
   -4   -6   10      2.24      0.00
   -3   -6   10     -0.50      0.00
   -2   -6   10      0.84      0.00
   -1   -6   10      2.57      0.00
    0   -6   10      0.14      0.00
    1   -6   10      0.70      0.00
    2   -6   10      2.30      0.00
    3   -6   10      1.04      0.00
    4   -6   10      0.00      0.00
    5   -6   10      1.57      0.00
    6   -6   10      0.93      0.00
    7   -6   10     -1.58      0.00
    8   -6   10      1.81      0.00
    9   -6   10      1.60      0.00
   10   -6   10     -1.17      0.00
   11   -6   10      0.50      0.00
   12   -6   10     -0.31      0.00
   -9   -5   10      0.58      0.00
   -8   -5   10     -1.90      0.00
   -7   -5   10      0.45      0.00
   -6   -5   10      0.76      0.00
   -5   -5   10      2.68      0.00
   -4   -5   10      1.77      0.00
   -3   -5   10      1.50      0.00
   -2   -5   10     -0.48      0.00
   -1   -5   10      1.37      0.00
    0   -5   10     -0.48      0.00
    1   -5   10     -0.43      0.00
    2   -5   10      0.34      0.00
    3   -5   10      0.92      0.00
    4   -5   10     -1.01      0.00
    5   -5   10      0.43      0.00
    6   -5   10     -2.17      0.00
    7   -5   10     -1.46      0.00
    8   -5   10      0.68      0.00
    9   -5   10      0.53      0.00
   10   -5   10     -0.61      0.00
   11   -5   10      0.19      0.00
   12   -5   10     -3.25      0.00
   -9   -4   10      2.12      0.00
   -8   -4   10     -0.76      0.00
   -7   -4   10      2.43      0.00
   -6   -4   10      1.17      0.00
   -5   -4   10      1.42      0.00
   -4   -4   10      2.68      0.00
   -3   -4   10     -1.07      0.00
   -2   -4   10      2.49      0.00
   -1   -4   10     -1.79      0.00
    0   -4   10     -2.16      0.00
    1   -4   10      1.07      0.00
    2   -4   10      0.16      0.00
    3   -4   10      1.25      0.00
    4   -4   10      1.43      0.00
    5   -4   10      1.97      0.00
    6   -4   10     -0.54      0.00
    7   -4   10     -1.74      0.00
    8   -4   10      0.54      0.00
    9   -4   10      0.17      0.00
   10   -4   10      1.22      0.00
   11   -4   10     -0.80      0.00
   12   -4   10     -1.27      0.00
   -9   -3   10     -2.24      0.00
   -8   -3   10     -1.20      0.00
   -7   -3   10      0.67      0.00
   -6   -3   10      0.37      0.00
   -5   -3   10      1.18      0.00
   -4   -3   10      0.43      0.00
   -3   -3   10      1.54      0.00
   -2   -3   10     -3.39      0.00
   -1   -3   10     -1.28      0.00
    0   -3   10     -3.21      0.00
    1   -3   10      1.23      0.00
    2   -3   10     -0.87      0.00
    3   -3   10      1.23      0.00
    4   -3   10      2.29      0.00
    5   -3   10     -0.40      0.00
    6   -3   10     -1.06      0.00
    7   -3   10     -1.10      0.00
    8   -3   10     -0.57      0.00
    9   -3   10      1.30      0.00
   10   -3   10      0.48      0.00
   11   -3   10     -2.08      0.00
   12   -3   10     -1.52      0.00
   13   -3   10      0.96      0.00
  -10   -2   10      2.35      0.00
   -9   -2   10      1.23      0.00
   -8   -2   10     -0.57      0.00
   -7   -2   10      0.23      0.00
   -6   -2   10      0.42      0.00
   -5   -2   10      2.01      0.00
   -4   -2   10     -0.62      0.00
   -3   -2   10     -2.40      0.00
   -2   -2   10     -2.30      0.00
   -1   -2   10     -0.88      0.00
    0   -2   10     -2.45      0.00
    1   -2   10     -4.33      0.00
    2   -2   10     -3.38      0.00
    3   -2   10      0.90      0.00
    4   -2   10     -0.70      0.00
    5   -2   10     -2.39      0.00
    6   -2   10     -2.97      0.00
    7   -2   10     -1.80      0.00
    8   -2   10      0.34      0.00
    9   -2   10     -0.79      0.00
   10   -2   10      0.16      0.00
   11   -2   10     -0.38      0.00
   12   -2   10      0.07      0.00
   13   -2   10      0.77      0.00
  -10   -1   10      0.26      0.00
   -9   -1   10      1.07      0.00
   -8   -1   10     -2.01      0.00
   -7   -1   10      0.51      0.00
   -6   -1   10      1.68      0.00
   -5   -1   10      1.20      0.00
   -4   -1   10     -1.37      0.00
   -3   -1   10      0.45      0.00
   -2   -1   10      0.29      0.00
   -1   -1   10     -1.96      0.00
    0   -1   10     -8.45      0.00
    1   -1   10      1.09      0.00
    2   -1   10     -1.43      0.00
    3   -1   10      1.90      0.00
    4   -1   10     -1.92      0.00
    5   -1   10     -4.19      0.00
    6   -1   10     -4.42      0.00
    7   -1   10     -1.90      0.00
    8   -1   10     -0.13      0.00
    9   -1   10     -1.22      0.00
   10   -1   10     -1.00      0.00
   11   -1   10     -0.64      0.00
   12   -1   10      0.51      0.00
   13   -1   10      0.83      0.00
  -10    0   10      3.10      0.00
   -9    0   10      0.48      0.00
   -8    0   10     -1.17      0.00
   -7    0   10      1.49      0.00
   -6    0   10      0.83      0.00
   -5    0   10     -0.91      0.00
   -4    0   10     -0.90      0.00
   -3    0   10     -2.32      0.00
   -2    0   10     -3.09      0.00
   -1    0   10     -2.08      0.00
    0    0   10     -3.57      0.00
    1    0   10     -2.93      0.00
    2    0   10     -1.92      0.00
    3    0   10      3.48      0.00
    4    0   10     -0.76      0.00
    5    0   10     -5.68      0.00
    6    0   10      0.02      0.00
    7    0   10      0.41      0.00
    8    0   10     -0.93      0.00
    9    0   10     -1.78      0.00
   10    0   10     -1.56      0.00
   11    0   10      0.50      0.00
   12    0   10     -0.56      0.00
   13    0   10      0.33      0.00
   14    0   10     -0.92      0.00
   -9    1   10      2.55      0.00
   -8    1   10     -0.91      0.00
   -7    1   10      2.08      0.00
   -6    1   10      1.31      0.00
   -5    1   10     -0.02      0.00
   -4    1   10     -1.64      0.00
   -3    1   10      0.35      0.00
   -2    1   10      0.35      0.00
   -1    1   10     -3.18      0.00
    0    1   10     -8.58      0.00
    1    1   10     -1.39      0.00
    2    1   10      1.91      0.00
    3    1   10     -1.45      0.00
    4    1   10     -6.97      0.00
    5    1   10     -4.95      0.00
    6    1   10     -1.19      0.00
    7    1   10     -0.04      0.00
    8    1   10     -0.70      0.00
    9    1   10     -2.18      0.00
   10    1   10      0.20      0.00
   11    1   10     -0.37      0.00
   12    1   10      0.16      0.00
   13    1   10     -0.95      0.00
   14    1   10     -0.55      0.00
   -9    2   10     -0.91      0.00
   -8    2   10     -2.38      0.00
   -7    2   10      0.47      0.00
   -6    2   10     -0.30      0.00
   -5    2   10     -0.39      0.00
   -4    2   10     -1.68      0.00
   -3    2   10      1.41      0.00
   -2    2   10     -0.74      0.00
   -1    2   10     -0.40      0.00
    0    2   10     -2.23      0.00
    1    2   10      0.26      0.00
    2    2   10      0.19      0.00
    3    2   10     -0.41      0.00
    4    2   10     -4.62      0.00
    5    2   10     -4.12      0.00
    6    2   10     -0.56      0.00
    7    2   10     -1.31      0.00
    8    2   10     -1.73      0.00
    9    2   10     -1.63      0.00
   10    2   10     -0.85      0.00
   11    2   10      0.93      0.00
   12    2   10     -0.11      0.00
   13    2   10      0.10      0.00
   14    2   10     -0.05      0.00
   15    2   10      0.74      0.00
   -9    3   10      1.24      0.00
   -8    3   10     -0.39      0.00
   -7    3   10      0.51      0.00
   -6    3   10      0.63      0.00
   -5    3   10     -1.00      0.00
   -4    3   10     -0.26      0.00
   -3    3   10      3.61      0.00
   -2    3   10      2.38      0.00
   -1    3   10     -0.68      0.00
    0    3   10     -3.37      0.00
    1    3   10      1.83      0.00
    2    3   10      2.81      0.00
    3    3   10      2.71      0.00
    4    3   10     -7.57      0.00
    5    3   10     -4.41      0.00
    6    3   10      0.94      0.00
    7    3   10      0.34      0.00
    8    3   10     -0.17      0.00
    9    3   10     -0.77      0.00
   10    3   10      1.40      0.00
   11    3   10      0.94      0.00
   12    3   10     -1.63      0.00
   13    3   10     -0.81      0.00
   14    3   10     -2.24      0.00
   15    3   10      0.64      0.00
   -9    4   10     -1.69      0.00
   -8    4   10     -1.31      0.00
   -7    4   10      0.05      0.00
   -6    4   10      0.28      0.00
   -5    4   10      0.43      0.00
   -4    4   10      1.45      0.00
   -3    4   10      3.15      0.00
   -2    4   10     -2.00      0.00
   -1    4   10     -1.72      0.00
    0    4   10     -1.66      0.00
    1    4   10      0.44      0.00
    2    4   10      1.73      0.00
    3    4   10     -4.47      0.00
    4    4   10     -7.14      0.00
    5    4   10     -6.09      0.00
    6    4   10     -0.77      0.00
    7    4   10     -0.42      0.00
    8    4   10      0.35      0.00
    9    4   10     -0.13      0.00
   10    4   10      1.71      0.00
   11    4   10      1.74      0.00
   12    4   10      0.15      0.00
   13    4   10      0.36      0.00
   14    4   10     -1.74      0.00
   15    4   10      0.46      0.00
   -9    5   10     -0.40      0.00
   -8    5   10     -0.86      0.00
   -7    5   10     -1.41      0.00
   -6    5   10      0.74      0.00
   -5    5   10     -2.02      0.00
   -4    5   10      3.94      0.00
   -3    5   10      4.21      0.00
   -2    5   10      1.04      0.00
   -1    5   10     -1.05      0.00
    0    5   10     -1.89      0.00
    1    5   10      1.23      0.00
    2    5   10     -1.19      0.00
    3    5   10     -0.38      0.00
    4    5   10     -5.73      0.00
    5    5   10     -4.35      0.00
    6    5   10      1.44      0.00
    7    5   10      0.09      0.00
    8    5   10     -2.49      0.00
    9    5   10      1.41      0.00
   10    5   10      2.27      0.00
   11    5   10      1.43      0.00
   12    5   10     -1.08      0.00
   13    5   10     -1.67      0.00
   14    5   10     -1.68      0.00
   15    5   10      1.70      0.00
   -9    6   10     -1.26      0.00
   -8    6   10     -0.47      0.00
   -7    6   10     -0.28      0.00
   -6    6   10      0.62      0.00
   -5    6   10      0.46      0.00
   -4    6   10      0.50      0.00
   -3    6   10      3.45      0.00
   -2    6   10     -3.88      0.00
   -1    6   10      0.91      0.00
    0    6   10      1.38      0.00
    1    6   10      5.01      0.00
    2    6   10      4.57      0.00
    3    6   10     -1.26      0.00
    4    6   10     -5.10      0.00
    5    6   10     -2.80      0.00
    6    6   10      2.19      0.00
    7    6   10     -0.01      0.00
    8    6   10     -0.06      0.00
    9    6   10      0.54      0.00
   10    6   10      2.73      0.00
   11    6   10     -0.04      0.00
   12    6   10     -1.61      0.00
   13    6   10     -0.99      0.00
   14    6   10     -1.23      0.00
   -9    7   10      0.39      0.00
   -8    7   10      1.44      0.00
   -7    7   10     -0.06      0.00
   -6    7   10      1.52      0.00
   -5    7   10     -3.11      0.00
   -4    7   10      3.87      0.00
   -3    7   10      0.83      0.00
   -2    7   10     -1.28      0.00
   -1    7   10     -3.91      0.00
    0    7   10      0.10      0.00
    1    7   10      0.00      0.00
    2    7   10     -2.77      0.00
    3    7   10     -3.44      0.00
    4    7   10     -3.14      0.00
    5    7   10     -1.29      0.00
    6    7   10      2.68      0.00
    7    7   10     -0.66      0.00
    8    7   10     -1.01      0.00
    9    7   10      1.80      0.00
   10    7   10      2.42      0.00
   11    7   10      0.33      0.00
   12    7   10     -0.31      0.00
   13    7   10     -0.49      0.00
   14    7   10     -0.08      0.00
   -9    8   10      1.51      0.00
   -8    8   10      0.45      0.00
   -7    8   10      1.14      0.00
   -6    8   10     -4.14      0.00
   -5    8   10      0.10      0.00
   -4    8   10      4.05      0.00
   -3    8   10      0.57      0.00
   -2    8   10     -1.99      0.00
   -1    8   10     -0.99      0.00
    0    8   10      0.72      0.00
    1    8   10      3.76      0.00
    2    8   10      0.87      0.00
    3    8   10     -0.57      0.00
    4    8   10     -4.53      0.00
    5    8   10     -1.85      0.00
    6    8   10      0.03      0.00
    7    8   10     -2.65      0.00
    8    8   10      0.08      0.00
    9    8   10      1.60      0.00
   10    8   10      1.71      0.00
   11    8   10      0.82      0.00
   12    8   10     -0.45      0.00
   13    8   10      0.15      0.00
   14    8   10      0.98      0.00
   -8    9   10     -1.16      0.00
   -7    9   10     -1.70      0.00
   -6    9   10      0.05      0.00
   -5    9   10      1.25      0.00
   -4    9   10      1.95      0.00
   -3    9   10      1.41      0.00
   -2    9   10     -2.02      0.00
   -1    9   10      2.30      0.00
    0    9   10      2.87      0.00
    1    9   10      1.86      0.00
    2    9   10     -1.09      0.00
    3    9   10     -0.16      0.00
    4    9   10     -1.13      0.00
    5    9   10      0.00      0.00
    6    9   10      0.07      0.00
    7    9   10     -1.98      0.00
    8    9   10      1.86      0.00
    9    9   10      0.85      0.00
   10    9   10      1.46      0.00
   11    9   10      0.19      0.00
   12    9   10     -0.95      0.00
   13    9   10     -0.70      0.00
   14    9   10      0.34      0.00
   -8   10   10      0.70      0.00
   -7   10   10      0.44      0.00
   -6   10   10      1.21      0.00
   -5   10   10      1.92      0.00
   -4   10   10      1.04      0.00
   -3   10   10      0.04      0.00
   -2   10   10     -0.69      0.00
   -1   10   10     -2.43      0.00
    0   10   10      0.58      0.00
    1   10   10     -1.50      0.00
    2   10   10      0.56      0.00
    3   10   10     -1.09      0.00
    4   10   10      1.35      0.00
    5   10   10      0.74      0.00
    6   10   10     -0.70      0.00
    7   10   10     -1.46      0.00
    8   10   10     -0.05      0.00
    9   10   10      2.52      0.00
   10   10   10      0.98      0.00
   11   10   10      0.71      0.00
   12   10   10      0.92      0.00
   13   10   10     -0.67      0.00
   14   10   10      3.95      0.00
   -7   11   10      0.40      0.00
   -6   11   10      3.29      0.00
   -5   11   10      0.16      0.00
   -4   11   10      0.65      0.00
   -3   11   10     -1.52      0.00
   -2   11   10      0.47      0.00
   -1   11   10      3.24      0.00
    0   11   10      2.21      0.00
    1   11   10      0.27      0.00
    2   11   10      0.13      0.00
    3   11   10      1.69      0.00
    4   11   10      1.51      0.00
    5   11   10     -0.10      0.00
    6   11   10     -0.81      0.00
    7   11   10      0.64      0.00
    8   11   10      3.17      0.00
    9   11   10      0.38      0.00
   10   11   10      1.70      0.00
   11   11   10     -2.11      0.00
   12   11   10      0.13      0.00
   13   11   10     -0.44      0.00
   14   11   10      0.72      0.00
   -5   12   10     -0.66      0.00
   -4   12   10     -0.51      0.00
   -3   12   10      0.38      0.00
   -2   12   10     -0.74      0.00
   -1   12   10      0.62      0.00
    0   12   10     -0.68      0.00
    1   12   10     -0.86      0.00
    2   12   10      1.99      0.00
    3   12   10     -0.19      0.00
    4   12   10      0.78      0.00
    5   12   10     -0.53      0.00
    6   12   10     -3.21      0.00
    7   12   10      1.59      0.00
    8   12   10      2.01      0.00
    9   12   10     -0.22      0.00
   10   12   10      0.14      0.00
   11   12   10     -0.37      0.00
   12   12   10     -1.47      0.00
   13   12   10     -1.22      0.00
   14   12   10      2.68      0.00
   -5   13   10      0.32      0.00
   -4   13   10     -3.34      0.00
   -3   13   10      1.61      0.00
   -2   13   10     -0.77      0.00
   -1   13   10      1.72      0.00
    0   13   10      0.50      0.00
    1   13   10      0.81      0.00
    2   13   10      0.84      0.00
    3   13   10      2.13      0.00
    4   13   10      3.39      0.00
    5   13   10     -2.63      0.00
    6   13   10     -1.21      0.00
    7   13   10     -0.01      0.00
    8   13   10      2.59      0.00
    9   13   10      1.04      0.00
   10   13   10      3.69      0.00
   11   13   10     -1.68      0.00
   12   13   10      0.75      0.00
   13   13   10     -0.58      0.00
   14   13   10      1.94      0.00
   -4   14   10      3.41      0.00
   -3   14   10      0.93      0.00
   -2   14   10      1.61      0.00
   -1   14   10      0.40      0.00
    0   14   10     -1.43      0.00
    1   14   10     -1.92      0.00
    2   14   10      0.10      0.00
    3   14   10      1.69      0.00
    4   14   10      0.75      0.00
    5   14   10     -0.01      0.00
    6   14   10     -1.58      0.00
    7   14   10      4.56      0.00
    8   14   10      2.12      0.00
    9   14   10     -1.28      0.00
   10   14   10     -2.91      0.00
   11   14   10     -1.29      0.00
   12   14   10      2.34      0.00
   -3   15   10      0.65      0.00
   -2   15   10      1.45      0.00
   -1   15   10      5.15      0.00
    0   15   10      0.08      0.00
    1   15   10     -1.30      0.00
    2   15   10     -0.99      0.00
    3   15   10      1.82      0.00
    4   15   10     -2.35      0.00
    5   15   10     -3.23      0.00
    6   15   10     -0.11      0.00
    7   15   10      2.13      0.00
    8   15   10      2.11      0.00
    9   15   10     -0.80      0.00
   10   15   10      0.00      0.00
   11   15   10     -2.58      0.00
   12   15   10     -2.57      0.00
   -3   16   10      2.69      0.00
   -2   16   10      1.94      0.00
   -1   16   10      5.85      0.00
    0   16   10     -1.04      0.00
    1   16   10     -3.11      0.00
    2   16   10      0.64      0.00
    3   16   10      2.43      0.00
    4   16   10     -0.44      0.00
    5   16   10     -1.00      0.00
    6   16   10      0.52      0.00
    7   16   10      0.61      0.00
    8   16   10      1.14      0.00
    9   16   10     -0.97      0.00
   10   16   10      3.03      0.00
   11   16   10      0.81      0.00
   -2   17   10      1.85      0.00
   -1   17   10      2.40      0.00
    0   17   10     -2.39      0.00
    1   17   10     -0.45      0.00
    2   17   10      1.17      0.00
    3   17   10      0.23      0.00
    4   17   10     -0.86      0.00
    5   17   10      2.96      0.00
    6   17   10     -2.20      0.00
    7   17   10      1.95      0.00
    8   17   10      0.25      0.00
    9   17   10     -1.54      0.00
   10   17   10      3.27      0.00
   11   17   10     -1.31      0.00
   -1   18   10      2.21      0.00
    0   18   10     -1.06      0.00
    1   18   10     -0.46      0.00
    2   18   10      4.42      0.00
    3   18   10     -0.48      0.00
    4   18   10      1.08      0.00
    5   18   10     -1.75      0.00
    6   18   10     -3.18      0.00
    7   18   10     -0.73      0.00
    8   18   10      0.10      0.00
    9   18   10     -2.11      0.00
   10   18   10     -1.29      0.00
    0   19   10     -0.62      0.00
    1   19   10      0.93      0.00
    7   19   10      2.07      0.00
    8   19   10     -0.83      0.00
    9   19   10      0.86      0.00
    0  -14   11     -2.64      0.00
    1  -14   11     -0.20      0.00
    2  -14   11     -0.94      0.00
   -3  -13   11     -1.97      0.00
   -2  -13   11     -1.25      0.00
   -1  -13   11      0.20      0.00
    0  -13   11     -1.68      0.00
    1  -13   11      0.79      0.00
    2  -13   11     -1.39      0.00
    3  -13   11     -1.37      0.00
    4  -13   11     -1.23      0.00
   -5  -12   11      1.69      0.00
   -4  -12   11      1.06      0.00
   -3  -12   11     -2.57      0.00
   -2  -12   11     -2.19      0.00
   -1  -12   11     -4.17      0.00
    0  -12   11     -0.73      0.00
    1  -12   11     -0.04      0.00
    2  -12   11     -2.88      0.00
    3  -12   11      0.76      0.00
    4  -12   11      0.57      0.00
    5  -12   11      0.54      0.00
   -5  -11   11      1.54      0.00
   -4  -11   11     -1.07      0.00
   -3  -11   11     -0.32      0.00
   -2  -11   11     -1.31      0.00
   -1  -11   11     -3.33      0.00
    0  -11   11     -1.82      0.00
    1  -11   11     -2.12      0.00
    2  -11   11     -0.74      0.00
    3  -11   11      1.29      0.00
    4  -11   11     -0.62      0.00
    5  -11   11      1.46      0.00
    6  -11   11      1.09      0.00
    7  -11   11      2.19      0.00
   -8  -10   11      0.82      0.00
   -7  -10   11     -2.35      0.00
   -6  -10   11     -8.56      0.00
   -5  -10   11     -4.09      0.00
   -4  -10   11      0.38      0.00
   -3  -10   11     -3.35      0.00
   -2  -10   11     -0.82      0.00
   -1  -10   11     -2.30      0.00
    0  -10   11     -0.25      0.00
    1  -10   11     -0.86      0.00
    2  -10   11     -1.15      0.00
    3  -10   11      3.05      0.00
    4  -10   11     -0.36      0.00
    5  -10   11      1.64      0.00
    6  -10   11     -1.42      0.00
    7  -10   11     -1.18      0.00
    8  -10   11      2.39      0.00
   -8   -9   11      1.55      0.00
   -7   -9   11     -1.91      0.00
   -6   -9   11     -1.55      0.00
   -5   -9   11     -1.73      0.00
   -4   -9   11      1.89      0.00
   -3   -9   11     -1.03      0.00
   -2   -9   11     -1.58      0.00
   -1   -9   11      1.49      0.00
    0   -9   11     -1.97      0.00
    1   -9   11     -1.67      0.00
    2   -9   11     -0.82      0.00
    3   -9   11     -0.58      0.00
    4   -9   11      0.52      0.00
    5   -9   11      1.30      0.00
    6   -9   11      0.92      0.00
    7   -9   11      0.27      0.00
    8   -9   11     -2.11      0.00
    9   -9   11     -0.51      0.00
   -8   -8   11      0.03      0.00
   -7   -8   11     -1.34      0.00
   -6   -8   11     -4.01      0.00
   -5   -8   11      0.39      0.00
   -4   -8   11     -2.71      0.00
   -3   -8   11     -2.80      0.00
   -2   -8   11     -2.07      0.00
   -1   -8   11     -3.07      0.00
    0   -8   11     -0.84      0.00
    1   -8   11     -1.37      0.00
    2   -8   11      1.82      0.00
    3   -8   11      0.86      0.00
    4   -8   11      0.98      0.00
    5   -8   11      0.68      0.00
    6   -8   11     -1.12      0.00
    7   -8   11      0.90      0.00
    8   -8   11     -1.07      0.00
    9   -8   11      0.19      0.00
   11   -8   11     -3.06      0.00
   -8   -7   11      2.43      0.00
   -7   -7   11     -2.80      0.00
   -6   -7   11     -2.15      0.00
   -5   -7   11     -0.97      0.00
   -4   -7   11      0.29      0.00
   -3   -7   11     -0.69      0.00
   -2   -7   11      0.40      0.00
   -1   -7   11     -0.38      0.00
    0   -7   11     -1.09      0.00
    1   -7   11     -0.37      0.00
    2   -7   11     -1.61      0.00
    3   -7   11      0.62      0.00
    4   -7   11     -0.48      0.00
    5   -7   11     -0.76      0.00
    6   -7   11     -0.39      0.00
    7   -7   11      1.24      0.00
    8   -7   11      0.51      0.00
    9   -7   11     -0.78      0.00
   10   -7   11      3.53      0.00
   11   -7   11     -0.32      0.00
   -8   -6   11     -0.24      0.00
   -7   -6   11      0.37      0.00
   -6   -6   11     -0.72      0.00
   -5   -6   11      0.33      0.00
   -4   -6   11     -2.47      0.00
   -3   -6   11     -3.55      0.00
   -2   -6   11      0.69      0.00
   -1   -6   11     -1.88      0.00
    0   -6   11      0.03      0.00
    1   -6   11      1.05      0.00
    2   -6   11     -0.55      0.00
    3   -6   11     -1.32      0.00
    4   -6   11      0.58      0.00
    5   -6   11      0.17      0.00
    6   -6   11      2.73      0.00
    7   -6   11      0.98      0.00
    8   -6   11     -0.53      0.00
    9   -6   11      0.31      0.00
   10   -6   11      0.68      0.00
   11   -6   11     -0.75      0.00
   12   -6   11      2.77      0.00
   -9   -5   11      0.59      0.00
   -8   -5   11     -0.07      0.00
   -7   -5   11     -1.80      0.00
   -6   -5   11      0.51      0.00
   -5   -5   11     -0.17      0.00
   -4   -5   11     -1.75      0.00
   -3   -5   11      0.67      0.00
   -2   -5   11     -0.55      0.00
   -1   -5   11      0.25      0.00
    0   -5   11      2.34      0.00
    1   -5   11      1.05      0.00
    2   -5   11     -1.68      0.00
    3   -5   11     -1.47      0.00
    4   -5   11     -0.14      0.00
    5   -5   11     -0.88      0.00
    6   -5   11     -1.22      0.00
    7   -5   11      0.21      0.00
    8   -5   11     -1.14      0.00
    9   -5   11      0.18      0.00
   10   -5   11      0.23      0.00
   11   -5   11      0.74      0.00
   12   -5   11      0.78      0.00
   -9   -4   11      4.02      0.00
   -8   -4   11      0.58      0.00
   -7   -4   11     -0.94      0.00
   -6   -4   11      1.48      0.00
   -5   -4   11     -1.04      0.00
   -4   -4   11     -0.22      0.00
   -3   -4   11      0.18      0.00
   -2   -4   11      1.36      0.00
   -1   -4   11     -0.08      0.00
    0   -4   11      2.91      0.00
    1   -4   11      0.34      0.00
    2   -4   11     -0.09      0.00
    3   -4   11     -0.53      0.00
    4   -4   11      0.74      0.00
    5   -4   11      0.20      0.00
    6   -4   11      0.22      0.00
    7   -4   11     -0.10      0.00
    8   -4   11      0.85      0.00
    9   -4   11     -0.61      0.00
   10   -4   11      0.75      0.00
   11   -4   11      0.61      0.00
   12   -4   11      2.92      0.00
   -9   -3   11     -0.37      0.00
   -8   -3   11     -1.46      0.00
   -7   -3   11     -0.42      0.00
   -6   -3   11      2.96      0.00
   -5   -3   11     -1.14      0.00
   -4   -3   11     -0.14      0.00
   -3   -3   11      1.64      0.00
   -2   -3   11     -0.15      0.00
   -1   -3   11      0.59      0.00
    0   -3   11      1.55      0.00
    1   -3   11      0.47      0.00
    2   -3   11      1.14      0.00
    3   -3   11      0.52      0.00
    4   -3   11     -0.19      0.00
    5   -3   11     -2.13      0.00
    6   -3   11      1.20      0.00
    7   -3   11      1.75      0.00
    8   -3   11      2.00      0.00
    9   -3   11      1.25      0.00
   10   -3   11     -0.89      0.00
   11   -3   11     -0.37      0.00
   12   -3   11      1.91      0.00
   -9   -2   11     -0.15      0.00
   -8   -2   11     -1.01      0.00
   -7   -2   11      1.24      0.00
   -6   -2   11      1.47      0.00
   -5   -2   11      0.40      0.00
   -4   -2   11      1.32      0.00
   -3   -2   11      1.83      0.00
   -2   -2   11     -0.45      0.00
   -1   -2   11     -0.24      0.00
    0   -2   11      3.94      0.00
    1   -2   11     -0.93      0.00
    2   -2   11      0.35      0.00
    3   -2   11     -0.55      0.00
    4   -2   11     -1.76      0.00
    5   -2   11      0.31      0.00
    6   -2   11      0.81      0.00
    7   -2   11      2.01      0.00
    8   -2   11      1.15      0.00
    9   -2   11     -0.88      0.00
   10   -2   11      0.05      0.00
   11   -2   11      0.94      0.00
   12   -2   11      0.66      0.00
   13   -2   11     -1.85      0.00
   -9   -1   11      1.02      0.00
   -8   -1   11     -0.30      0.00
   -7   -1   11      0.44      0.00
   -6   -1   11      1.00      0.00
   -5   -1   11      1.11      0.00
   -4   -1   11      1.36      0.00
   -3   -1   11      2.89      0.00
   -2   -1   11      2.49      0.00
   -1   -1   11      0.67      0.00
    0   -1   11      1.32      0.00
    1   -1   11      1.89      0.00
    2   -1   11      3.08      0.00
    3   -1   11      0.94      0.00
    4   -1   11     -0.35      0.00
    5   -1   11      2.12      0.00
    6   -1   11      2.31      0.00
    7   -1   11      1.11      0.00
    8   -1   11      1.33      0.00
    9   -1   11      2.02      0.00
   10   -1   11      1.93      0.00
   11   -1   11     -0.06      0.00
   12   -1   11     -0.20      0.00
   13   -1   11     -0.64      0.00
   -9    0   11     -2.23      0.00
   -8    0   11     -0.59      0.00
   -7    0   11     -0.53      0.00
   -6    0   11     -0.10      0.00
   -5    0   11      1.50      0.00
   -4    0   11      0.91      0.00
   -3    0   11     -0.45      0.00
   -2    0   11     -3.71      0.00
   -1    0   11      1.38      0.00
    0    0   11      5.34      0.00
    1    0   11      0.57      0.00
    2    0   11      0.01      0.00
    3    0   11      1.32      0.00
    4    0   11      3.49      0.00
    5    0   11      0.77      0.00
    6    0   11      2.36      0.00
    7    0   11      0.59      0.00
    8    0   11      1.17      0.00
    9    0   11      2.11      0.00
   10    0   11     -0.43      0.00
   11    0   11     -1.05      0.00
   12    0   11     -1.22      0.00
   13    0   11     -0.55      0.00
   14    0   11      0.66      0.00
   -9    1   11     -0.35      0.00
   -8    1   11     -0.89      0.00
   -7    1   11     -0.03      0.00
   -6    1   11      0.65      0.00
   -5    1   11      1.21      0.00
   -4    1   11     -0.01      0.00
   -3    1   11     -0.12      0.00
   -2    1   11      0.02      0.00
   -1    1   11      1.19      0.00
    0    1   11     -0.74      0.00
    1    1   11     -1.26      0.00
    2    1   11      1.14      0.00
    3    1   11     -1.66      0.00
    4    1   11     -0.13      0.00
    5    1   11      0.49      0.00
    6    1   11      1.49      0.00
    7    1   11      1.54      0.00
    8    1   11      2.31      0.00
    9    1   11      1.96      0.00
   10    1   11      1.04      0.00
   11    1   11     -0.93      0.00
   12    1   11      1.09      0.00
   13    1   11     -0.94      0.00
   14    1   11      2.23      0.00
   -9    2   11     -2.91      0.00
   -8    2   11     -1.23      0.00
   -7    2   11     -2.66      0.00
   -6    2   11      0.20      0.00
   -5    2   11     -0.27      0.00
   -4    2   11     -0.04      0.00
   -3    2   11     -1.38      0.00
   -2    2   11     -2.17      0.00
   -1    2   11      0.22      0.00
    0    2   11      1.93      0.00
    1    2   11      0.45      0.00
    2    2   11     -0.67      0.00
    3    2   11     -0.05      0.00
    4    2   11      3.84      0.00
    5    2   11      0.88      0.00
    6    2   11     -0.39      0.00
    7    2   11      0.11      0.00
    8    2   11     -0.35      0.00
    9    2   11     -0.21      0.00
   10    2   11     -0.79      0.00
   11    2   11     -0.02      0.00
   12    2   11      0.12      0.00
   13    2   11      0.70      0.00
   14    2   11      2.69      0.00
   -8    3   11      0.53      0.00
   -7    3   11     -0.68      0.00
   -6    3   11      0.95      0.00
   -5    3   11      0.49      0.00
   -4    3   11     -1.12      0.00
   -3    3   11     -2.54      0.00
   -2    3   11     -1.84      0.00
   -1    3   11      0.62      0.00
    0    3   11     -0.35      0.00
    1    3   11     -1.35      0.00
    2    3   11     -3.23      0.00
    3    3   11      3.18      0.00
    4    3   11      1.92      0.00
    5    3   11      1.76      0.00
    6    3   11      3.45      0.00
    7    3   11      1.36      0.00
    8    3   11     -0.49      0.00
    9    3   11      1.09      0.00
   10    3   11      0.60      0.00
   11    3   11     -0.64      0.00
   12    3   11     -1.35      0.00
   13    3   11      0.11      0.00
   14    3   11      0.45      0.00
   15    3   11     -0.29      0.00
   -8    4   11     -1.48      0.00
   -7    4   11      1.19      0.00
   -6    4   11     -0.31      0.00
   -5    4   11      0.86      0.00
   -4    4   11     -1.07      0.00
   -3    4   11     -4.93      0.00
   -2    4   11     -3.17      0.00
   -1    4   11     -1.35      0.00
    0    4   11     -1.29      0.00
    1    4   11     -1.87      0.00
    2    4   11     -0.09      0.00
    3    4   11     -1.65      0.00
    4    4   11      0.03      0.00
    5    4   11     -0.35      0.00
    6    4   11     -0.74      0.00
    7    4   11     -0.92      0.00
    8    4   11      0.84      0.00
    9    4   11      0.15      0.00
   10    4   11     -1.11      0.00
   11    4   11     -0.88      0.00
   12    4   11      0.90      0.00
   13    4   11      2.40      0.00
   14    4   11      3.44      0.00
   15    4   11      0.80      0.00
   -8    5   11      1.25      0.00
   -7    5   11      0.34      0.00
   -6    5   11      0.70      0.00
   -5    5   11     -2.20      0.00
   -4    5   11     -0.86      0.00
   -3    5   11     -2.17      0.00
   -2    5   11      2.34      0.00
   -1    5   11     -0.36      0.00
    0    5   11     -0.78      0.00
    1    5   11     -2.04      0.00
    2    5   11     -3.44      0.00
    3    5   11      0.00      0.00
    4    5   11      1.79      0.00
    5    5   11      0.58      0.00
    6    5   11     -0.66      0.00
    7    5   11     -0.94      0.00
    8    5   11     -0.84      0.00
    9    5   11      0.36      0.00
   10    5   11     -1.80      0.00
   11    5   11     -0.80      0.00
   12    5   11      0.03      0.00
   13    5   11      0.37      0.00
   14    5   11      2.06      0.00
   15    5   11      0.30      0.00
   -8    6   11      0.41      0.00
   -7    6   11      0.07      0.00
   -6    6   11     -3.90      0.00
   -5    6   11      1.67      0.00
   -4    6   11     -1.64      0.00
   -3    6   11      0.03      0.00
   -2    6   11     -1.72      0.00
   -1    6   11      1.62      0.00
    0    6   11     -1.05      0.00
    1    6   11     -0.17      0.00
    2    6   11      2.65      0.00
    3    6   11     -0.19      0.00
    4    6   11     -0.20      0.00
    5    6   11     -1.02      0.00
    6    6   11     -1.92      0.00
    7    6   11      0.98      0.00
    8    6   11      0.57      0.00
    9    6   11     -0.78      0.00
   10    6   11     -1.91      0.00
   11    6   11     -0.52      0.00
   12    6   11     -0.11      0.00
   13    6   11     -0.39      0.00
   14    6   11     -0.88      0.00
   -8    7   11      1.00      0.00
   -7    7   11     -2.42      0.00
   -6    7   11      3.45      0.00
   -5    7   11      0.24      0.00
   -4    7   11     -0.55      0.00
   -3    7   11     -1.74      0.00
   -2    7   11      0.93      0.00
   -1    7   11     -0.53      0.00
    0    7   11     -2.26      0.00
    1    7   11     -3.89      0.00
    2    7   11     -3.32      0.00
    3    7   11     -2.79      0.00
    4    7   11      1.18      0.00
    5    7   11      0.23      0.00
    6    7   11     -0.87      0.00
    7    7   11      1.13      0.00
    8    7   11      1.14      0.00
    9    7   11      0.42      0.00
   10    7   11     -1.20      0.00
   11    7   11      0.58      0.00
   12    7   11      0.41      0.00
   13    7   11     -0.07      0.00
   14    7   11     -0.65      0.00
   -8    8   11     -1.00      0.00
   -7    8   11      0.89      0.00
   -6    8   11     -1.12      0.00
   -5    8   11      1.56      0.00
   -4    8   11     -1.61      0.00
   -3    8   11     -1.98      0.00
   -2    8   11      0.58      0.00
   -1    8   11      0.71      0.00
    0    8   11     -2.99      0.00
    1    8   11     -1.75      0.00
    2    8   11     -0.48      0.00
    3    8   11     -1.78      0.00
    4    8   11     -1.07      0.00
    5    8   11     -1.30      0.00
    6    8   11     -1.90      0.00
    7    8   11      1.26      0.00
    8    8   11      0.48      0.00
    9    8   11     -0.34      0.00
   10    8   11     -1.48      0.00
   11    8   11     -1.21      0.00
   12    8   11      0.18      0.00
   13    8   11     -0.26      0.00
   14    8   11      0.83      0.00
   -8    9   11     -0.03      0.00
   -7    9   11      0.94      0.00
   -6    9   11      3.03      0.00
   -5    9   11     -0.58      0.00
   -4    9   11     -1.84      0.00
   -3    9   11     -0.16      0.00
   -2    9   11      0.51      0.00
   -1    9   11      2.63      0.00
    0    9   11     -1.61      0.00
    1    9   11      1.93      0.00
    2    9   11     -1.16      0.00
    3    9   11     -0.34      0.00
    4    9   11     -0.63      0.00
    5    9   11      1.80      0.00
    6    9   11      0.15      0.00
    7    9   11      2.25      0.00
    8    9   11      2.56      0.00
    9    9   11     -2.23      0.00
   10    9   11     -1.35      0.00
   11    9   11     -0.51      0.00
   12    9   11     -0.78      0.00
   13    9   11      1.26      0.00
   14    9   11     -1.95      0.00
   -8   10   11      1.96      0.00
   -7   10   11      0.39      0.00
   -6   10   11      0.71      0.00
   -5   10   11     -0.52      0.00
   -4   10   11     -0.54      0.00
   -3   10   11      1.28      0.00
   -2   10   11      0.32      0.00
   -1   10   11     -2.79      0.00
    0   10   11     -3.31      0.00
    1   10   11      0.16      0.00
    2   10   11     -1.49      0.00
    3   10   11     -2.29      0.00
    4   10   11     -0.33      0.00
    5   10   11      0.39      0.00
    6   10   11      1.64      0.00
    7   10   11      3.07      0.00
    8   10   11     -2.23      0.00
    9   10   11     -1.10      0.00
   10   10   11     -2.47      0.00
   11   10   11      1.59      0.00
   12   10   11      1.62      0.00
   13   10   11     -0.88      0.00
   14   10   11      0.32      0.00
   -7   11   11     -2.21      0.00
   -6   11   11     -0.66      0.00
   -5   11   11     -0.54      0.00
   -4   11   11      1.21      0.00
   -3   11   11     -0.99      0.00
   -2   11   11      0.94      0.00
   -1   11   11      0.77      0.00
    0   11   11      0.02      0.00
    1   11   11      1.48      0.00
    2   11   11     -1.26      0.00
    3   11   11     -0.77      0.00
    4   11   11     -1.28      0.00
    5   11   11     -1.44      0.00
    6   11   11      1.16      0.00
    7   11   11      3.08      0.00
    8   11   11     -0.63      0.00
    9   11   11     -1.74      0.00
   10   11   11     -1.07      0.00
   11   11   11     -2.54      0.00
   12   11   11      1.17      0.00
   13   11   11      0.28      0.00
   14   11   11     -3.77      0.00
   -5   12   11      0.41      0.00
   -4   12   11      0.58      0.00
   -3   12   11     -0.28      0.00
   -2   12   11      0.20      0.00
   -1   12   11      0.56      0.00
    0   12   11     -0.32      0.00
    1   12   11     -1.36      0.00
    2   12   11     -1.70      0.00
    3   12   11     -1.05      0.00
    4   12   11     -3.35      0.00
    5   12   11      0.08      0.00
    6   12   11      0.26      0.00
    7   12   11      2.13      0.00
    8   12   11     -0.53      0.00
    9   12   11     -2.41      0.00
   10   12   11     -1.36      0.00
   11   12   11     -0.48      0.00
   12   12   11     -0.04      0.00
   13   12   11      0.20      0.00
   14   12   11      0.21      0.00
   -4   13   11     -4.46      0.00
   -3   13   11     -1.20      0.00
   -2   13   11     -3.86      0.00
   -1   13   11      1.47      0.00
    0   13   11      2.03      0.00
    1   13   11      1.59      0.00
    2   13   11     -1.59      0.00
    3   13   11     -0.65      0.00
    4   13   11     -0.93      0.00
    5   13   11     -1.81      0.00
    6   13   11      2.30      0.00
    7   13   11     -0.57      0.00
    8   13   11     -2.56      0.00
    9   13   11     -1.03      0.00
   10   13   11      2.64      0.00
   11   13   11      1.76      0.00
   12   13   11      0.85      0.00
   13   13   11     -0.25      0.00
   14   13   11      0.13      0.00
   -4   14   11      0.14      0.00
   -3   14   11     -3.45      0.00
   -2   14   11      1.26      0.00
   -1   14   11      0.40      0.00
    0   14   11     -0.17      0.00
    1   14   11     -1.40      0.00
    2   14   11      0.84      0.00
    3   14   11     -1.00      0.00
    4   14   11      0.19      0.00
    5   14   11      4.70      0.00
    6   14   11      0.03      0.00
    7   14   11      0.29      0.00
    8   14   11     -2.18      0.00
    9   14   11      1.06      0.00
   10   14   11     -0.79      0.00
   11   14   11     -0.41      0.00
   -3   15   11     -3.52      0.00
   -2   15   11     -0.43      0.00
   -1   15   11      1.11      0.00
    0   15   11      0.88      0.00
    1   15   11      2.59      0.00
    2   15   11     -0.11      0.00
    3   15   11     -1.51      0.00
    4   15   11      0.21      0.00
    5   15   11     -1.74      0.00
    6   15   11     -1.38      0.00
    7   15   11     -1.04      0.00
    8   15   11     -1.04      0.00
    9   15   11      2.21      0.00
   10   15   11      2.45      0.00
   -2   16   11     -2.72      0.00
   -1   16   11     -0.62      0.00
    0   16   11      1.63      0.00
    1   16   11      0.20      0.00
    2   16   11     -1.78      0.00
    3   16   11      0.56      0.00
    4   16   11      3.69      0.00
    5   16   11     -3.77      0.00
    6   16   11      1.90      0.00
    7   16   11     -0.41      0.00
    8   16   11      0.78      0.00
    9   16   11      3.15      0.00
   10   16   11     -1.40      0.00
   11   16   11     -1.54      0.00
   -1   17   11     -2.11      0.00
    0   17   11      2.07      0.00
    1   17   11      0.38      0.00
    2   17   11     -2.16      0.00
    3   17   11      0.51      0.00
    4   17   11     -1.59      0.00
    5   17   11     -0.35      0.00
    6   17   11      1.30      0.00
    7   17   11      0.82      0.00
    8   17   11      0.12      0.00
    9   17   11      1.05      0.00
   10   17   11      0.34      0.00
    0   18   11      1.39      0.00
    1   18   11     -2.19      0.00
    2   18   11     -1.11      0.00
    3   18   11     -1.69      0.00
    4   18   11     -1.30      0.00
    5   18   11     -1.13      0.00
    6   18   11      0.18      0.00
    7   18   11     -2.36      0.00
    8   18   11      1.06      0.00
    7   19   11     -0.70      0.00
   -2  -13   12     -0.05      0.00
   -1  -13   12      2.16      0.00
    0  -13   12      2.99      0.00
    1  -13   12      0.83      0.00
    2  -13   12      3.60      0.00
   -3  -12   12      2.15      0.00
   -2  -12   12      0.06      0.00
   -1  -12   12      0.72      0.00
    0  -12   12      1.20      0.00
    1  -12   12      0.82      0.00
    2  -12   12      2.97      0.00
    3  -12   12     -0.48      0.00
    4  -12   12      0.21      0.00
    6  -12   12      1.61      0.00
   -5  -11   12      2.63      0.00
   -4  -11   12     -1.94      0.00
   -3  -11   12      4.11      0.00
   -2  -11   12      1.25      0.00
   -1  -11   12     -0.27      0.00
    0  -11   12      1.18      0.00
    1  -11   12      0.09      0.00
    2  -11   12      1.79      0.00
    3  -11   12     -3.25      0.00
    4  -11   12     -0.79      0.00
    5  -11   12      0.04      0.00
    6  -11   12      2.08      0.00
    7  -11   12      2.09      0.00
   -7  -10   12      0.80      0.00
   -6  -10   12     -1.23      0.00
   -5  -10   12     -2.05      0.00
   -4  -10   12     -1.97      0.00
   -3  -10   12      1.09      0.00
   -2  -10   12      1.84      0.00
   -1  -10   12     -0.48      0.00
    0  -10   12     -0.34      0.00
    1  -10   12      1.45      0.00
    2  -10   12     -1.94      0.00
    3  -10   12     -0.35      0.00
    4  -10   12      0.12      0.00
    5  -10   12      1.03      0.00
    6  -10   12     -1.52      0.00
    7  -10   12     -0.83      0.00
    8  -10   12      1.50      0.00
   -7   -9   12      2.28      0.00
   -6   -9   12      3.08      0.00
   -5   -9   12      1.18      0.00
   -4   -9   12     -0.10      0.00
   -3   -9   12      1.95      0.00
   -2   -9   12      1.10      0.00
   -1   -9   12      1.26      0.00
    0   -9   12     -1.62      0.00
    1   -9   12      1.37      0.00
    2   -9   12     -1.96      0.00
    3   -9   12     -1.55      0.00
    4   -9   12     -0.44      0.00
    5   -9   12     -1.86      0.00
    6   -9   12      0.06      0.00
    7   -9   12      0.14      0.00
    8   -9   12      0.07      0.00
    9   -9   12     -1.17      0.00
   -7   -8   12     -0.82      0.00
   -6   -8   12      1.31      0.00
   -5   -8   12     -0.04      0.00
   -4   -8   12     -1.13      0.00
   -3   -8   12      2.76      0.00
   -2   -8   12     -0.08      0.00
   -1   -8   12     -5.22      0.00
    0   -8   12     -0.31      0.00
    1   -8   12      0.15      0.00
    2   -8   12      1.62      0.00
    3   -8   12     -0.04      0.00
    4   -8   12      1.81      0.00
    5   -8   12      0.54      0.00
    6   -8   12     -0.12      0.00
    7   -8   12      0.17      0.00
    8   -8   12     -1.11      0.00
    9   -8   12      0.28      0.00
   -7   -7   12     -1.78      0.00
   -6   -7   12      1.09      0.00
   -5   -7   12     -1.69      0.00
   -4   -7   12     -0.20      0.00
   -3   -7   12      5.47      0.00
   -2   -7   12     -1.28      0.00
   -1   -7   12      0.37      0.00
    0   -7   12      1.34      0.00
    1   -7   12      0.92      0.00
    2   -7   12     -1.56      0.00
    3   -7   12      0.91      0.00
    4   -7   12      0.36      0.00
    5   -7   12      0.11      0.00
    6   -7   12     -1.28      0.00
    7   -7   12     -0.26      0.00
    8   -7   12      0.83      0.00
    9   -7   12     -1.80      0.00
   10   -7   12      0.17      0.00
   -8   -6   12     -0.49      0.00
   -7   -6   12      1.49      0.00
   -6   -6   12      0.31      0.00
   -5   -6   12      0.13      0.00
   -4   -6   12     -0.12      0.00
   -3   -6   12     -0.20      0.00
   -2   -6   12     -1.69      0.00
   -1   -6   12     -2.19      0.00
    0   -6   12     -0.55      0.00
    1   -6   12     -1.59      0.00
    2   -6   12     -1.57      0.00
    3   -6   12      1.54      0.00
    4   -6   12      1.40      0.00
    5   -6   12     -0.40      0.00
    6   -6   12      2.43      0.00
    7   -6   12      0.48      0.00
    8   -6   12      0.43      0.00
    9   -6   12     -0.36      0.00
   10   -6   12     -1.18      0.00
   11   -6   12     -1.29      0.00
   -8   -5   12      0.35      0.00
   -7   -5   12      0.96      0.00
   -6   -5   12      0.59      0.00
   -5   -5   12     -0.57      0.00
   -4   -5   12      0.87      0.00
   -3   -5   12      0.57      0.00
   -2   -5   12     -1.85      0.00
   -1   -5   12     -1.00      0.00
    0   -5   12     -2.24      0.00
    1   -5   12     -1.15      0.00
    2   -5   12      1.07      0.00
    3   -5   12      0.74      0.00
    4   -5   12     -1.13      0.00
    5   -5   12     -1.17      0.00
    6   -5   12     -0.11      0.00
    7   -5   12      0.61      0.00
    8   -5   12     -0.76      0.00
    9   -5   12      0.16      0.00
   10   -5   12     -0.92      0.00
   11   -5   12      0.12      0.00
   12   -5   12     -2.96      0.00
   -8   -4   12      2.78      0.00
   -7   -4   12     -0.53      0.00
   -6   -4   12     -2.33      0.00
   -5   -4   12     -1.26      0.00
   -4   -4   12      0.15      0.00
   -3   -4   12     -0.52      0.00
   -2   -4   12     -0.72      0.00
   -1   -4   12     -1.73      0.00
    0   -4   12     -3.25      0.00
    1   -4   12     -0.76      0.00
    2   -4   12      0.43      0.00
    3   -4   12     -0.05      0.00
    4   -4   12     -0.68      0.00
    5   -4   12      0.71      0.00
    6   -4   12      2.21      0.00
    7   -4   12      0.47      0.00
    8   -4   12     -0.79      0.00
    9   -4   12     -1.51      0.00
   10   -4   12      0.82      0.00
   11   -4   12      0.35      0.00
   12   -4   12     -3.83      0.00
   -8   -3   12      2.32      0.00
   -7   -3   12     -2.25      0.00
   -6   -3   12     -1.46      0.00
   -5   -3   12     -1.82      0.00
   -4   -3   12     -0.31      0.00
   -3   -3   12     -1.85      0.00
   -2   -3   12     -1.43      0.00
   -1   -3   12     -0.76      0.00
    0   -3   12     -1.83      0.00
    1   -3   12     -1.61      0.00
    2   -3   12      0.12      0.00
    3   -3   12     -0.94      0.00
    4   -3   12      1.09      0.00
    5   -3   12      0.76      0.00
    6   -3   12      2.59      0.00
    7   -3   12      0.26      0.00
    8   -3   12     -0.92      0.00
    9   -3   12      0.81      0.00
   10   -3   12      0.88      0.00
   11   -3   12     -0.99      0.00
   12   -3   12     -3.08      0.00
   -9   -2   12     -0.47      0.00
   -8   -2   12      1.31      0.00
   -7   -2   12     -3.31      0.00
   -6   -2   12     -2.20      0.00
   -5   -2   12     -0.69      0.00
   -4   -2   12     -0.87      0.00
   -3   -2   12     -0.33      0.00
   -2   -2   12      0.05      0.00
   -1   -2   12     -0.13      0.00
    0   -2   12     -0.69      0.00
    1   -2   12     -1.60      0.00
    2   -2   12     -2.21      0.00
    3   -2   12     -1.10      0.00
    4   -2   12     -1.19      0.00
    5   -2   12      1.71      0.00
    6   -2   12     -0.04      0.00
    7   -2   12     -0.17      0.00
    8   -2   12     -1.22      0.00
    9   -2   12     -1.40      0.00
   10   -2   12     -1.13      0.00
   11   -2   12     -0.67      0.00
   12   -2   12     -0.98      0.00
   -9   -1   12      3.92      0.00
   -8   -1   12      2.40      0.00
   -7   -1   12     -1.91      0.00
   -6   -1   12      0.19      0.00
   -5   -1   12     -1.47      0.00
   -4   -1   12     -0.57      0.00
   -3   -1   12     -0.44      0.00
   -2   -1   12      4.86      0.00
   -1   -1   12      0.31      0.00
    0   -1   12     -2.03      0.00
    1   -1   12      0.37      0.00
    2   -1   12     -0.44      0.00
    3   -1   12     -0.16      0.00
    4   -1   12      0.18      0.00
    5   -1   12      1.86      0.00
    6   -1   12      1.54      0.00
    7   -1   12      0.84      0.00
    8   -1   12     -1.07      0.00
    9   -1   12      0.47      0.00
   10   -1   12      0.84      0.00
   11   -1   12      2.03      0.00
   12   -1   12      0.70      0.00
   13   -1   12      1.35      0.00
   -9    0   12      0.28      0.00
   -8    0   12     -0.37      0.00
   -7    0   12     -0.62      0.00
   -6    0   12     -0.49      0.00
   -5    0   12     -0.65      0.00
   -4    0   12      0.74      0.00
   -3    0   12      0.68      0.00
   -2    0   12     -0.76      0.00
   -1    0   12     -1.22      0.00
    0    0   12      0.99      0.00
    1    0   12     -0.70      0.00
    2    0   12     -1.99      0.00
    3    0   12     -1.43      0.00
    4    0   12      1.88      0.00
    5    0   12      0.70      0.00
    6    0   12      0.91      0.00
    7    0   12     -1.15      0.00
    8    0   12     -0.97      0.00
    9    0   12     -1.20      0.00
   10    0   12     -1.29      0.00
   11    0   12      0.42      0.00
   12    0   12     -0.76      0.00
   13    0   12      0.65      0.00
   -8    1   12      0.06      0.00
   -7    1   12      1.52      0.00
   -6    1   12     -0.62      0.00
   -5    1   12      0.58      0.00
   -4    1   12      1.79      0.00
   -3    1   12      1.21      0.00
   -2    1   12      2.73      0.00
   -1    1   12      0.67      0.00
    0    1   12      0.37      0.00
    1    1   12     -0.70      0.00
    2    1   12     -1.79      0.00
    3    1   12     -0.32      0.00
    4    1   12     -0.60      0.00
    5    1   12      2.42      0.00
    6    1   12      1.75      0.00
    7    1   12     -0.13      0.00
    8    1   12      0.15      0.00
    9    1   12      1.01      0.00
   10    1   12      1.48      0.00
   11    1   12     -0.75      0.00
   12    1   12      0.81      0.00
   13    1   12     -1.79      0.00
   14    1   12     -1.35      0.00
   -8    2   12     -0.43      0.00
   -7    2   12     -1.27      0.00
   -6    2   12     -0.09      0.00
   -5    2   12     -1.48      0.00
   -4    2   12      2.34      0.00
   -3    2   12      0.67      0.00
   -2    2   12      3.08      0.00
   -1    2   12      0.08      0.00
    0    2   12      3.24      0.00
    1    2   12     -0.37      0.00
    2    2   12      3.45      0.00
    3    2   12     -0.21      0.00
    4    2   12      2.95      0.00
    5    2   12      3.39      0.00
    6    2   12     -2.02      0.00
    7    2   12     -0.76      0.00
    8    2   12      0.23      0.00
    9    2   12     -0.18      0.00
   10    2   12     -1.95      0.00
   11    2   12     -1.24      0.00
   12    2   12      0.28      0.00
   13    2   12     -1.29      0.00
   14    2   12     -1.11      0.00
   -8    3   12      1.93      0.00
   -7    3   12      0.74      0.00
   -6    3   12      0.09      0.00
   -5    3   12      1.19      0.00
   -4    3   12     -0.74      0.00
   -3    3   12      1.90      0.00
   -2    3   12      1.80      0.00
   -1    3   12      2.84      0.00
    0    3   12      3.43      0.00
    1    3   12      1.01      0.00
    2    3   12     -0.17      0.00
    3    3   12      2.03      0.00
    4    3   12      3.21      0.00
    5    3   12      3.41      0.00
    6    3   12      1.35      0.00
    7    3   12      1.81      0.00
    8    3   12      0.99      0.00
    9    3   12      1.15      0.00
   10    3   12     -0.51      0.00
   11    3   12     -0.40      0.00
   12    3   12      0.09      0.00
   13    3   12     -3.18      0.00
   14    3   12     -3.23      0.00
   15    3   12     -0.67      0.00
   -9    4   12      3.95      0.00
   -8    4   12     -0.93      0.00
   -7    4   12      0.99      0.00
   -6    4   12     -2.18      0.00
   -5    4   12      0.55      0.00
   -4    4   12      0.66      0.00
   -3    4   12      0.43      0.00
   -2    4   12      0.94      0.00
   -1    4   12      0.43      0.00
    0    4   12      1.46      0.00
    1    4   12      0.25      0.00
    2    4   12      2.42      0.00
    3    4   12      0.75      0.00
    4    4   12      2.13      0.00
    5    4   12      0.84      0.00
    6    4   12     -2.18      0.00
    7    4   12      1.15      0.00
    8    4   12      2.06      0.00
    9    4   12     -0.63      0.00
   10    4   12     -1.03      0.00
   11    4   12      1.64      0.00
   12    4   12      2.68      0.00
   13    4   12     -1.90      0.00
   14    4   12      0.55      0.00
   15    4   12     -0.50      0.00
   -8    5   12      0.66      0.00
   -7    5   12     -1.36      0.00
   -6    5   12      2.76      0.00
   -5    5   12     -0.55      0.00
   -4    5   12     -0.09      0.00
   -3    5   12      0.23      0.00
   -2    5   12      3.18      0.00
   -1    5   12      2.16      0.00
    0    5   12      2.90      0.00
    1    5   12     -0.81      0.00
    2    5   12     -2.18      0.00
    3    5   12      2.93      0.00
    4    5   12      5.81      0.00
    5    5   12      2.11      0.00
    6    5   12      0.07      0.00
    7    5   12     -0.41      0.00
    8    5   12      0.22      0.00
    9    5   12     -0.46      0.00
   10    5   12      0.17      0.00
   11    5   12      0.99      0.00
   12    5   12      0.49      0.00
   13    5   12     -2.80      0.00
   14    5   12      1.01      0.00
   -8    6   12     -1.19      0.00
   -7    6   12      0.86      0.00
   -6    6   12     -3.46      0.00
   -5    6   12     -0.04      0.00
   -4    6   12     -1.73      0.00
   -3    6   12      0.92      0.00
   -2    6   12      0.09      0.00
   -1    6   12      1.98      0.00
    0    6   12      0.77      0.00
    1    6   12      0.34      0.00
    2    6   12      3.64      0.00
    3    6   12      4.58      0.00
    4    6   12      2.61      0.00
    5    6   12      0.88      0.00
    6    6   12      0.59      0.00
    7    6   12      1.88      0.00
    8    6   12      0.06      0.00
    9    6   12     -1.11      0.00
   10    6   12      0.69      0.00
   11    6   12     -0.31      0.00
   12    6   12     -0.27      0.00
   13    6   12     -1.81      0.00
   14    6   12      0.64      0.00
   -8    7   12      0.71      0.00
   -7    7   12     -0.46      0.00
   -6    7   12      2.97      0.00
   -5    7   12     -1.87      0.00
   -4    7   12     -1.62      0.00
   -3    7   12     -1.67      0.00
   -2    7   12      1.21      0.00
   -1    7   12     -1.14      0.00
    0    7   12     -0.23      0.00
    1    7   12     -1.26      0.00
    2    7   12     -0.24      0.00
    3    7   12      2.80      0.00
    4    7   12      1.80      0.00
    5    7   12      1.25      0.00
    6    7   12      0.64      0.00
    7    7   12      1.45      0.00
    8    7   12      1.28      0.00
    9    7   12      0.34      0.00
   10    7   12      0.38      0.00
   11    7   12      1.71      0.00
   12    7   12      0.82      0.00
   13    7   12      2.02      0.00
   14    7   12      2.51      0.00
   -7    8   12      0.12      0.00
   -6    8   12     -5.55      0.00
   -5    8   12     -1.92      0.00
   -4    8   12     -1.28      0.00
   -3    8   12     -0.50      0.00
   -2    8   12     -0.09      0.00
   -1    8   12     -1.04      0.00
    0    8   12      1.21      0.00
    1    8   12     -1.70      0.00
    2    8   12      2.07      0.00
    3    8   12      1.38      0.00
    4    8   12      0.33      0.00
    5    8   12     -2.63      0.00
    6    8   12     -1.24      0.00
    7    8   12      1.13      0.00
    8    8   12     -1.93      0.00
    9    8   12     -1.55      0.00
   10    8   12      1.04      0.00
   11    8   12     -0.76      0.00
   12    8   12      1.29      0.00
   13    8   12     -1.20      0.00
   14    8   12      2.02      0.00
   -7    9   12      0.01      0.00
   -6    9   12     -1.93      0.00
   -5    9   12      0.20      0.00
   -4    9   12     -0.14      0.00
   -3    9   12     -1.12      0.00
   -2    9   12     -0.17      0.00
   -1    9   12      1.07      0.00
    0    9   12      1.66      0.00
    1    9   12     -0.50      0.00
    2    9   12      1.60      0.00
    3    9   12      4.43      0.00
    4    9   12      0.52      0.00
    5    9   12      0.27      0.00
    6    9   12      0.00      0.00
    7    9   12      0.40      0.00
    8    9   12      0.65      0.00
    9    9   12     -1.95      0.00
   10    9   12      2.29      0.00
   11    9   12     -0.10      0.00
   12    9   12     -2.02      0.00
   13    9   12      1.35      0.00
   14    9   12      0.43      0.00
   -7   10   12     -1.85      0.00
   -6   10   12     -0.70      0.00
   -5   10   12      0.55      0.00
   -4   10   12      0.03      0.00
   -3   10   12     -0.31      0.00
   -2   10   12     -1.19      0.00
   -1   10   12     -2.02      0.00
    0   10   12     -0.09      0.00
    1   10   12     -2.89      0.00
    2   10   12      0.72      0.00
    3   10   12      0.85      0.00
    4   10   12      0.41      0.00
    5   10   12     -0.62      0.00
    6   10   12      0.82      0.00
    7   10   12     -1.32      0.00
    8   10   12     -2.06      0.00
    9   10   12      1.08      0.00
   10   10   12     -0.56      0.00
   11   10   12      1.90      0.00
   12   10   12     -2.28      0.00
   13   10   12     -1.50      0.00
   14   10   12      1.60      0.00
   -7   11   12     -1.25      0.00
   -6   11   12      0.10      0.00
   -5   11   12     -0.43      0.00
   -4   11   12      0.34      0.00
   -3   11   12     -2.89      0.00
   -2   11   12     -1.56      0.00
   -1   11   12      0.13      0.00
    0   11   12     -0.17      0.00
    1   11   12     -0.63      0.00
    2   11   12      2.69      0.00
    3   11   12      0.29      0.00
    4   11   12      1.42      0.00
    5   11   12     -0.31      0.00
    6   11   12     -0.24      0.00
    7   11   12     -1.50      0.00
    8   11   12     -0.72      0.00
    9   11   12      2.47      0.00
   10   11   12      0.40      0.00
   11   11   12     -0.70      0.00
   12   11   12     -0.99      0.00
   13   11   12      1.18      0.00
   14   11   12     -1.32      0.00
   -5   12   12     -2.54      0.00
   -4   12   12      2.29      0.00
   -3   12   12     -1.30      0.00
   -2   12   12      0.77      0.00
   -1   12   12      0.27      0.00
    0   12   12     -1.40      0.00
    1   12   12     -1.90      0.00
    2   12   12      0.37      0.00
    3   12   12     -1.10      0.00
    4   12   12      1.50      0.00
    5   12   12      3.01      0.00
    6   12   12     -1.42      0.00
    7   12   12     -2.83      0.00
    8   12   12      1.03      0.00
    9   12   12      1.20      0.00
   10   12   12      2.54      0.00
   11   12   12      0.72      0.00
   12   12   12     -3.07      0.00
   13   12   12      0.48      0.00
   14   12   12      0.26      0.00
   -4   13   12     -1.10      0.00
   -3   13   12      3.06      0.00
   -2   13   12     -2.68      0.00
   -1   13   12     -2.89      0.00
    0   13   12     -1.06      0.00
    1   13   12      2.61      0.00
    2   13   12     -1.49      0.00
    3   13   12      0.32      0.00
    4   13   12      2.85      0.00
    5   13   12     -0.50      0.00
    6   13   12      0.00      0.00
    7   13   12     -3.18      0.00
    8   13   12     -0.20      0.00
    9   13   12      1.34      0.00
   11   13   12      2.42      0.00
   12   13   12      0.00      0.00
   13   13   12      1.76      0.00
   14   13   12     -0.36      0.00
   -4   14   12      6.04      0.00
   -3   14   12      2.98      0.00
   -2   14   12      2.18      0.00
   -1   14   12     -3.87      0.00
    0   14   12     -1.75      0.00
    1   14   12     -0.75      0.00
    2   14   12     -0.60      0.00
    3   14   12      2.05      0.00
    4   14   12      1.12      0.00
    5   14   12      5.11      0.00
    6   14   12     -0.77      0.00
    7   14   12     -1.82      0.00
    8   14   12      0.51      0.00
    9   14   12      2.42      0.00
   10   14   12     -4.38      0.00
   -3   15   12     -1.66      0.00
   -2   15   12      0.05      0.00
   -1   15   12     -1.16      0.00
    0   15   12     -0.86      0.00
    1   15   12      1.49      0.00
    2   15   12      0.12      0.00
    3   15   12     -1.84      0.00
    4   15   12     -3.29      0.00
    5   15   12      1.83      0.00
    6   15   12     -1.00      0.00
    7   15   12     -2.52      0.00
    8   15   12     -0.30      0.00
    9   15   12     -0.94      0.00
   10   15   12     -0.75      0.00
   11   15   12      3.69      0.00
   -2   16   12     -1.89      0.00
   -1   16   12     -0.60      0.00
    0   16   12     -0.79      0.00
    1   16   12      0.63      0.00
    2   16   12     -0.58      0.00
    3   16   12     -2.29      0.00
    4   16   12      2.01      0.00
    5   16   12      1.52      0.00
    6   16   12      1.06      0.00
    7   16   12     -4.17      0.00
    8   16   12     -0.07      0.00
    9   16   12      0.46      0.00
   10   16   12     -1.80      0.00
   11   16   12      3.34      0.00
   -1   17   12     -2.17      0.00
    0   17   12     -0.66      0.00
    1   17   12      1.42      0.00
    2   17   12      1.02      0.00
    3   17   12     -0.15      0.00
    4   17   12      1.61      0.00
    5   17   12      3.52      0.00
    6   17   12     -0.88      0.00
    7   17   12     -1.61      0.00
    8   17   12     -0.40      0.00
    9   17   12     -0.99      0.00
   10   17   12      2.41      0.00
    0   18   12     -1.48      0.00
    2   18   12      0.83      0.00
    3   18   12      0.20      0.00
    4   18   12      1.90      0.00
    5   18   12      0.53      0.00
    6   18   12     -2.41      0.00
    7   18   12     -0.45      0.00
    8   18   12     -1.07      0.00
    0  -13   13     -0.70      0.00
    1  -13   13      0.59      0.00
   -2  -12   13      1.21      0.00
   -1  -12   13      2.20      0.00
    0  -12   13     -1.85      0.00
    1  -12   13     -1.39      0.00
    2  -12   13     -0.28      0.00
   -5  -11   13      2.44      0.00
   -4  -11   13      0.00      0.00
   -3  -11   13      0.94      0.00
   -2  -11   13      2.16      0.00
   -1  -11   13     -0.12      0.00
    0  -11   13      0.99      0.00
    1  -11   13     -1.06      0.00
    2  -11   13      3.10      0.00
    3  -11   13      1.23      0.00
    4  -11   13      1.88      0.00
    6  -11   13     -1.05      0.00
    7  -11   13     -0.09      0.00
   -6  -10   13      1.07      0.00
   -5  -10   13     -1.86      0.00
   -4  -10   13      0.65      0.00
   -3  -10   13      0.34      0.00
   -2  -10   13      0.32      0.00
   -1  -10   13      0.90      0.00
    0  -10   13      0.58      0.00
    1  -10   13      1.87      0.00
    2  -10   13      1.48      0.00
    3  -10   13      1.90      0.00
    4  -10   13      0.67      0.00
    5  -10   13      0.83      0.00
    6  -10   13     -0.83      0.00
    7  -10   13     -0.94      0.00
    8  -10   13      0.38      0.00
   -6   -9   13      2.22      0.00
   -5   -9   13      2.57      0.00
   -4   -9   13      1.55      0.00
   -3   -9   13     -1.90      0.00
   -2   -9   13     -1.29      0.00
   -1   -9   13      5.59      0.00
    0   -9   13      1.39      0.00
    1   -9   13      1.39      0.00
    2   -9   13     -0.99      0.00
    3   -9   13     -2.05      0.00
    4   -9   13     -1.08      0.00
    5   -9   13     -2.20      0.00
    6   -9   13     -0.74      0.00
    7   -9   13     -1.04      0.00
    8   -9   13      0.33      0.00
   -6   -8   13      2.83      0.00
   -5   -8   13      0.31      0.00
   -4   -8   13      1.79      0.00
   -3   -8   13     -2.09      0.00
   -2   -8   13      1.15      0.00
   -1   -8   13      0.81      0.00
    0   -8   13     -0.38      0.00
    1   -8   13     -3.07      0.00
    2   -8   13      0.59      0.00
    3   -8   13     -2.08      0.00
    4   -8   13      1.20      0.00
    5   -8   13      0.26      0.00
    6   -8   13      1.33      0.00
    7   -8   13      0.16      0.00
    8   -8   13     -1.43      0.00
    9   -8   13      1.40      0.00
   10   -8   13     -0.08      0.00
   -7   -7   13     -0.25      0.00
   -6   -7   13      0.85      0.00
   -5   -7   13     -1.13      0.00
   -4   -7   13     -1.28      0.00
   -3   -7   13      0.23      0.00
   -2   -7   13      1.41      0.00
   -1   -7   13      6.16      0.00
    0   -7   13      0.40      0.00
    1   -7   13     -0.22      0.00
    2   -7   13      1.07      0.00
    3   -7   13     -1.10      0.00
    4   -7   13     -2.43      0.00
    5   -7   13     -1.63      0.00
    6   -7   13     -1.42      0.00
    7   -7   13     -1.12      0.00
    8   -7   13      0.50      0.00
    9   -7   13     -0.79      0.00
   -7   -6   13     -0.73      0.00
   -6   -6   13     -0.92      0.00
   -5   -6   13      2.20      0.00
   -4   -6   13     -1.25      0.00
   -3   -6   13     -1.09      0.00
   -2   -6   13      2.68      0.00
   -1   -6   13      1.13      0.00
    0   -6   13     -0.98      0.00
    1   -6   13      1.01      0.00
    2   -6   13     -0.97      0.00
    3   -6   13      0.45      0.00
    4   -6   13      0.38      0.00
    5   -6   13      0.16      0.00
    6   -6   13      1.24      0.00
    7   -6   13      0.53      0.00
    8   -6   13      0.67      0.00
    9   -6   13     -0.04      0.00
   10   -6   13     -0.15      0.00
   -7   -5   13      0.14      0.00
   -6   -5   13      0.91      0.00
   -5   -5   13      1.91      0.00
   -4   -5   13     -0.16      0.00
   -3   -5   13      1.44      0.00
   -2   -5   13      3.69      0.00
   -1   -5   13      1.63      0.00
    0   -5   13      1.68      0.00
    1   -5   13      1.28      0.00
    2   -5   13      1.90      0.00
    3   -5   13      0.04      0.00
    4   -5   13      0.11      0.00
    5   -5   13      0.59      0.00
    6   -5   13     -2.95      0.00
    7   -5   13     -0.87      0.00
    8   -5   13     -0.41      0.00
    9   -5   13      0.20      0.00
   10   -5   13     -0.13      0.00
   11   -5   13      1.09      0.00
   -8   -4   13     -0.50      0.00
   -7   -4   13      0.63      0.00
   -6   -4   13     -0.97      0.00
   -5   -4   13      1.97      0.00
   -4   -4   13     -0.63      0.00
   -3   -4   13      1.04      0.00
   -2   -4   13      3.63      0.00
   -1   -4   13      2.75      0.00
    0   -4   13      0.37      0.00
    1   -4   13      1.30      0.00
    2   -4   13      0.27      0.00
    3   -4   13      3.24      0.00
    4   -4   13      1.42      0.00
    5   -4   13     -1.60      0.00
    6   -4   13     -1.70      0.00
    7   -4   13     -0.08      0.00
    8   -4   13      0.43      0.00
    9   -4   13      0.03      0.00
   10   -4   13     -1.35      0.00
   11   -4   13      1.25      0.00
   12   -4   13      3.85      0.00
   -8   -3   13     -0.92      0.00
   -7   -3   13      2.16      0.00
   -6   -3   13      1.95      0.00
   -5   -3   13      1.46      0.00
   -4   -3   13      0.19      0.00
   -3   -3   13     -0.36      0.00
   -2   -3   13      0.29      0.00
   -1   -3   13      1.41      0.00
    0   -3   13      0.92      0.00
    1   -3   13      0.86      0.00
    2   -3   13      2.53      0.00
    3   -3   13      1.21      0.00
    4   -3   13      1.58      0.00
    5   -3   13     -1.78      0.00
    6   -3   13     -1.52      0.00
    7   -3   13     -0.58      0.00
    8   -3   13      0.67      0.00
    9   -3   13      1.17      0.00
   10   -3   13     -0.59      0.00
   11   -3   13      0.93      0.00
   12   -3   13      4.23      0.00
   -8   -2   13     -2.09      0.00
   -7   -2   13      0.48      0.00
   -6   -2   13      0.49      0.00
   -5   -2   13      1.32      0.00
   -4   -2   13     -1.14      0.00
   -3   -2   13      0.46      0.00
   -2   -2   13     -0.02      0.00
   -1   -2   13      0.21      0.00
    0   -2   13      1.81      0.00
    1   -2   13      0.79      0.00
    2   -2   13      1.41      0.00
    3   -2   13      2.31      0.00
    4   -2   13     -1.40      0.00
    5   -2   13     -1.29      0.00
    6   -2   13     -3.62      0.00
    7   -2   13     -1.82      0.00
    8   -2   13      1.10      0.00
    9   -2   13     -0.53      0.00
   10   -2   13     -1.71      0.00
   11   -2   13     -1.11      0.00
   12   -2   13      2.04      0.00
   -8   -1   13      2.67      0.00
   -7   -1   13      0.97      0.00
   -6   -1   13      0.94      0.00
   -5   -1   13     -0.53      0.00
   -4   -1   13     -1.48      0.00
   -3   -1   13     -2.49      0.00
   -2   -1   13      1.80      0.00
   -1   -1   13      0.81      0.00
    0   -1   13      0.10      0.00
    1   -1   13      2.85      0.00
    2   -1   13      0.71      0.00
    3   -1   13      4.04      0.00
    4   -1   13      0.03      0.00
    5   -1   13     -1.36      0.00
    6   -1   13     -2.19      0.00
    7   -1   13     -0.17      0.00
    8   -1   13      0.01      0.00
    9   -1   13      1.29      0.00
   10   -1   13      1.37      0.00
   11   -1   13      1.69      0.00
   12   -1   13      1.23      0.00
   13   -1   13     -0.26      0.00
   -8    0   13     -0.29      0.00
   -7    0   13     -0.32      0.00
   -6    0   13     -1.45      0.00
   -5    0   13      0.72      0.00
   -4    0   13     -1.64      0.00
   -3    0   13     -1.84      0.00
   -2    0   13     -1.92      0.00
   -1    0   13     -0.50      0.00
    0    0   13     -0.74      0.00
    1    0   13     -0.75      0.00
    2    0   13      2.44      0.00
    3    0   13      0.14      0.00
    4    0   13      0.27      0.00
    5    0   13     -3.77      0.00
    6    0   13     -2.42      0.00
    7    0   13     -1.29      0.00
    8    0   13      0.34      0.00
    9    0   13     -1.16      0.00
   10    0   13     -2.11      0.00
   11    0   13     -0.44      0.00
   12    0   13     -0.18      0.00
   13    0   13      1.01      0.00
   -8    1   13      2.33      0.00
   -7    1   13      0.98      0.00
   -6    1   13     -0.63      0.00
   -5    1   13      1.68      0.00
   -4    1   13     -2.59      0.00
   -3    1   13     -1.62      0.00
   -2    1   13      0.14      0.00
   -1    1   13      0.35      0.00
    0    1   13     -2.09      0.00
    1    1   13      2.94      0.00
    2    1   13     -1.13      0.00
    3    1   13      0.92      0.00
    4    1   13     -3.04      0.00
    5    1   13     -3.10      0.00
    6    1   13     -0.94      0.00
    7    1   13     -0.30      0.00
    8    1   13      0.20      0.00
    9    1   13     -1.67      0.00
   10    1   13      1.67      0.00
   11    1   13      1.71      0.00
   12    1   13      1.47      0.00
   13    1   13     -1.63      0.00
   14    1   13      0.25      0.00
   -7    2   13     -1.72      0.00
   -6    2   13      1.70      0.00
   -5    2   13     -2.76      0.00
   -4    2   13     -0.46      0.00
   -3    2   13     -1.06      0.00
   -2    2   13      1.63      0.00
   -1    2   13     -3.06      0.00
    0    2   13     -2.02      0.00
    1    2   13     -0.59      0.00
    2    2   13      0.68      0.00
    3    2   13     -1.48      0.00
    4    2   13     -1.84      0.00
    5    2   13     -2.01      0.00
    6    2   13     -3.17      0.00
    7    2   13     -1.36      0.00
    8    2   13     -1.05      0.00
    9    2   13     -2.36      0.00
   10    2   13      0.00      0.00
   11    2   13      3.00      0.00
   12    2   13      0.04      0.00
   13    2   13      1.33      0.00
   14    2   13      0.29      0.00
   -7    3   13      0.78      0.00
   -6    3   13      0.25      0.00
   -5    3   13      0.68      0.00
   -4    3   13     -1.59      0.00
   -3    3   13      0.79      0.00
   -2    3   13     -1.73      0.00
   -1    3   13     -1.50      0.00
    0    3   13     -1.60      0.00
    1    3   13      0.66      0.00
    2    3   13     -2.78      0.00
    3    3   13     -0.30      0.00
    4    3   13     -1.77      0.00
    5    3   13     -2.72      0.00
    6    3   13     -0.08      0.00
    7    3   13     -1.19      0.00
    8    3   13     -1.09      0.00
    9    3   13     -0.07      0.00
   10    3   13      3.33      0.00
   11    3   13      1.60      0.00
   12    3   13     -2.29      0.00
   13    3   13      1.97      0.00
   14    3   13     -2.20      0.00
   -9    4   13     -0.38      0.00
   -8    4   13      0.28      0.00
   -7    4   13      1.20      0.00
   -6    4   13     -2.50      0.00
   -5    4   13     -0.13      0.00
   -4    4   13      0.88      0.00
   -3    4   13      0.35      0.00
   -2    4   13     -0.96      0.00
   -1    4   13     -3.49      0.00
    0    4   13     -3.22      0.00
    1    4   13      0.00      0.00
    2    4   13      0.27      0.00
    3    4   13     -0.58      0.00
    4    4   13     -5.15      0.00
    5    4   13     -2.16      0.00
    6    4   13     -1.78      0.00
    7    4   13     -0.48      0.00
    8    4   13      0.55      0.00
    9    4   13     -0.56      0.00
   10    4   13      1.40      0.00
   11    4   13      0.21      0.00
   12    4   13      0.05      0.00
   13    4   13      3.37      0.00
   14    4   13      0.08      0.00
   15    4   13      0.69      0.00
   -8    5   13      1.75      0.00
   -7    5   13     -1.14      0.00
   -6    5   13      3.20      0.00
   -5    5   13      1.10      0.00
   -4    5   13      1.42      0.00
   -3    5   13     -0.23      0.00
   -2    5   13      0.29      0.00
   -1    5   13     -0.81      0.00
    0    5   13      1.03      0.00
    1    5   13      2.41      0.00
    2    5   13     -1.43      0.00
    3    5   13     -2.00      0.00
    4    5   13     -1.89      0.00
    5    5   13     -0.21      0.00
    6    5   13     -0.01      0.00
    7    5   13     -1.79      0.00
    8    5   13      0.38      0.00
    9    5   13     -0.69      0.00
   10    5   13     -0.05      0.00
   11    5   13     -1.78      0.00
   12    5   13     -1.42      0.00
   13    5   13      1.68      0.00
   14    5   13     -1.63      0.00
   -7    6   13      1.05      0.00
   -6    6   13     -1.73      0.00
   -5    6   13      0.54      0.00
   -4    6   13      0.75      0.00
   -3    6   13      2.57      0.00
   -2    6   13     -0.32      0.00
   -1    6   13     -0.43      0.00
    0    6   13      1.70      0.00
    1    6   13      2.99      0.00
    2    6   13      2.43      0.00
    3    6   13     -1.55      0.00
    4    6   13     -1.63      0.00
    5    6   13     -0.10      0.00
    6    6   13      1.66      0.00
    7    6   13      0.26      0.00
    8    6   13     -0.94      0.00
    9    6   13     -2.29      0.00
   10    6   13      0.21      0.00
   11    6   13     -1.96      0.00
   12    6   13     -1.03      0.00
   13    6   13     -1.70      0.00
   -7    7   13      0.52      0.00
   -6    7   13      4.64      0.00
   -5    7   13      2.54      0.00
   -4    7   13      2.30      0.00
   -3    7   13      0.21      0.00
   -2    7   13     -0.34      0.00
   -1    7   13     -0.80      0.00
    0    7   13      0.67      0.00
    1    7   13      1.09      0.00
    2    7   13     -2.58      0.00
    3    7   13     -1.94      0.00
    4    7   13     -1.78      0.00
    5    7   13      0.69      0.00
    6    7   13      0.61      0.00
    7    7   13     -1.52      0.00
    8    7   13      0.17      0.00
    9    7   13      1.94      0.00
   10    7   13     -0.57      0.00
   11    7   13      1.95      0.00
   12    7   13     -0.75      0.00
   13    7   13      1.43      0.00
   -7    8   13     -0.05      0.00
   -6    8   13     -0.17      0.00
   -5    8   13      0.59      0.00
   -4    8   13      1.14      0.00
   -3    8   13      2.58      0.00
   -2    8   13     -0.91      0.00
   -1    8   13      0.32      0.00
    0    8   13      2.16      0.00
    1    8   13      0.69      0.00
    2    8   13      0.36      0.00
    3    8   13     -3.21      0.00
    4    8   13      0.22      0.00
    5    8   13     -0.37      0.00
    6    8   13     -1.12      0.00
    7    8   13     -3.11      0.00
    8    8   13     -1.90      0.00
    9    8   13      1.72      0.00
   10    8   13     -0.11      0.00
   11    8   13     -0.44      0.00
   12    8   13      1.46      0.00
   13    8   13     -1.73      0.00
   -7    9   13      2.89      0.00
   -6    9   13      1.67      0.00
   -5    9   13      2.66      0.00
   -4    9   13      1.67      0.00
   -3    9   13      2.09      0.00
   -2    9   13      0.17      0.00
   -1    9   13      2.00      0.00
    0    9   13      1.65      0.00
    1    9   13      3.45      0.00
    2    9   13     -0.38      0.00
    3    9   13      0.84      0.00
    4    9   13      1.21      0.00
    5    9   13      2.54      0.00
    6    9   13      0.30      0.00
    7    9   13     -1.19      0.00
    8    9   13      3.08      0.00
    9    9   13      0.83      0.00
   10    9   13      1.28      0.00
   11    9   13      0.65      0.00
   12    9   13      0.74      0.00
   13    9   13      1.06      0.00
   -7   10   13      1.11      0.00
   -6   10   13      0.71      0.00
   -5   10   13     -0.15      0.00
   -4   10   13      0.17      0.00
   -3   10   13      3.03      0.00
   -2   10   13      1.29      0.00
   -1   10   13     -0.73      0.00
    0   10   13      1.42      0.00
    1   10   13      2.67      0.00
    2   10   13     -1.83      0.00
    3   10   13     -1.24      0.00
    4   10   13     -0.92      0.00
    5   10   13      1.03      0.00
    6   10   13      0.86      0.00
    7   10   13     -1.57      0.00
    8   10   13      0.81      0.00
   10   10   13      0.11      0.00
   11   10   13      3.95      0.00
   12   10   13     -0.67      0.00
   13   10   13     -2.13      0.00
   -6   11   13      0.00      0.00
   -5   11   13     -1.47      0.00
   -4   11   13     -1.99      0.00
   -3   11   13      1.02      0.00
   -2   11   13      1.40      0.00
   -1   11   13      0.39      0.00
    0   11   13      1.13      0.00
    1   11   13      2.37      0.00
    2   11   13      0.09      0.00
    3   11   13      0.41      0.00
    4   11   13     -0.25      0.00
    5   11   13     -0.81      0.00
    6   11   13      0.71      0.00
    7   11   13     -0.19      0.00
    8   11   13      0.15      0.00
   11   11   13      0.13      0.00
   12   11   13      2.88      0.00
   13   11   13      0.60      0.00
   -4   12   13      0.77      0.00
   -3   12   13     -0.32      0.00
   -2   12   13      1.93      0.00
   -1   12   13      2.20      0.00
    0   12   13      1.16      0.00
    1   12   13     -1.47      0.00
    2   12   13     -0.50      0.00
    3   12   13     -0.38      0.00
    4   12   13     -1.44      0.00
    5   12   13     -0.65      0.00
    6   12   13     -1.24      0.00
    7   12   13     -0.11      0.00
    8   12   13      1.55      0.00
    9   12   13      0.34      0.00
   12   12   13      0.32      0.00
   13   12   13     -1.99      0.00
   -3   13   13      0.58      0.00
   -2   13   13     -2.70      0.00
   -1   13   13      0.98      0.00
    0   13   13      1.77      0.00
    1   13   13      0.73      0.00
    2   13   13      1.25      0.00
    3   13   13     -0.18      0.00
    4   13   13     -1.45      0.00
    5   13   13     -4.22      0.00
    6   13   13      2.50      0.00
    7   13   13      0.77      0.00
    8   13   13      1.06      0.00
    9   13   13     -3.56      0.00
   10   13   13     -0.96      0.00
   12   13   13      2.56      0.00
   13   13   13     -1.82      0.00
   -3   14   13      0.54      0.00
   -2   14   13      2.06      0.00
   -1   14   13      0.87      0.00
    0   14   13      0.80      0.00
    1   14   13     -0.99      0.00
    2   14   13      0.82      0.00
    3   14   13      0.80      0.00
    4   14   13      0.39      0.00
    5   14   13      2.02      0.00
    6   14   13      0.26      0.00
    7   14   13      2.23      0.00
    8   14   13      0.36      0.00
    9   14   13     -0.99      0.00
   10   14   13     -2.86      0.00
   -2   15   13      2.64      0.00
   -1   15   13      2.97      0.00
    0   15   13     -0.09      0.00
    1   15   13     -0.14      0.00
    2   15   13     -0.20      0.00
    3   15   13     -0.17      0.00
    4   15   13     -1.65      0.00
    5   15   13     -1.76      0.00
    6   15   13     -1.39      0.00
    7   15   13      2.99      0.00
    8   15   13      0.84      0.00
    9   15   13     -3.30      0.00
   10   15   13      1.99      0.00
   11   15   13      2.14      0.00
   -1   16   13      0.87      0.00
    0   16   13     -0.51      0.00
    1   16   13     -0.83      0.00
    2   16   13      0.05      0.00
    3   16   13      2.12      0.00
    4   16   13      1.48      0.00
    5   16   13     -5.72      0.00
    6   16   13      0.26      0.00
    7   16   13      2.56      0.00
    8   16   13      0.19      0.00
    9   16   13     -0.96      0.00
   10   16   13      0.41      0.00
   11   16   13     -1.70      0.00
   -1   17   13      0.79      0.00
    0   17   13      1.62      0.00
    1   17   13     -1.42      0.00
    2   17   13      3.03      0.00
    3   17   13      2.74      0.00
    4   17   13     -0.96      0.00
    5   17   13     -0.01      0.00
    6   17   13      0.21      0.00
    7   17   13      2.00      0.00
    8   17   13     -0.27      0.00
    9   17   13     -1.66      0.00
   10   17   13      2.25      0.00
    0   18   13      0.06      0.00
    3   18   13      0.36      0.00
    4   18   13     -0.93      0.00
    5   18   13      2.48      0.00
    6   18   13     -6.80      0.00
    7   18   13      1.97      0.00
    8   18   13     -0.29      0.00
   -1  -12   14     -0.30      0.00
    0  -12   14     -0.81      0.00
    1  -12   14     -0.33      0.00
   -3  -11   14     -1.70      0.00
   -2  -11   14     -0.93      0.00
   -1  -11   14     -2.73      0.00
    0  -11   14      2.42      0.00
    1  -11   14     -2.29      0.00
    2  -11   14     -1.04      0.00
   -4  -10   14     -2.39      0.00
   -3  -10   14     -1.80      0.00
   -2  -10   14     -0.15      0.00
   -1  -10   14     -2.24      0.00
    0  -10   14     -0.41      0.00
    1  -10   14     -0.31      0.00
    2  -10   14     -2.09      0.00
    3  -10   14     -0.08      0.00
    4  -10   14     -1.33      0.00
    7  -10   14      2.08      0.00
   -5   -9   14      1.99      0.00
   -4   -9   14     -1.71      0.00
   -3   -9   14     -2.83      0.00
   -2   -9   14     -0.41      0.00
   -1   -9   14     -0.14      0.00
    0   -9   14     -0.38      0.00
    1   -9   14      1.20      0.00
    2   -9   14     -0.47      0.00
    3   -9   14     -0.25      0.00
    4   -9   14     -0.82      0.00
    5   -9   14      0.22      0.00
    6   -9   14     -2.66      0.00
    7   -9   14      0.63      0.00
    8   -9   14      0.98      0.00
   -6   -8   14     -1.25      0.00
   -5   -8   14      1.47      0.00
   -4   -8   14      1.04      0.00
   -3   -8   14      0.16      0.00
   -2   -8   14      2.00      0.00
   -1   -8   14     -6.03      0.00
    0   -8   14     -0.77      0.00
    1   -8   14     -0.25      0.00
    2   -8   14      1.28      0.00
    3   -8   14     -0.10      0.00
    4   -8   14      2.26      0.00
    5   -8   14      2.62      0.00
    6   -8   14     -0.81      0.00
    7   -8   14      2.45      0.00
    8   -8   14     -1.11      0.00
    9   -8   14      1.00      0.00
   -6   -7   14     -1.27      0.00
   -5   -7   14     -0.88      0.00
   -4   -7   14     -0.61      0.00
   -3   -7   14     -0.37      0.00
   -2   -7   14     -1.64      0.00
   -1   -7   14      0.11      0.00
    0   -7   14      4.03      0.00
    1   -7   14      0.31      0.00
    2   -7   14      1.22      0.00
    3   -7   14      0.08      0.00
    4   -7   14      1.01      0.00
    5   -7   14     -1.33      0.00
    6   -7   14     -3.56      0.00
    7   -7   14     -1.41      0.00
    8   -7   14      0.42      0.00
    9   -7   14      0.92      0.00
   10   -7   14     -0.37      0.00
   -7   -6   14     -0.01      0.00
   -6   -6   14     -1.49      0.00
   -5   -6   14      0.74      0.00
   -4   -6   14      0.42      0.00
   -3   -6   14     -1.54      0.00
   -2   -6   14     -2.71      0.00
   -1   -6   14     -1.08      0.00
    0   -6   14     -0.37      0.00
    1   -6   14     -0.73      0.00
    2   -6   14     -3.20      0.00
    3   -6   14      0.58      0.00
    4   -6   14      2.61      0.00
    5   -6   14     -0.96      0.00
    6   -6   14      0.28      0.00
    7   -6   14      2.27      0.00
    8   -6   14      1.39      0.00
    9   -6   14      2.40      0.00
   10   -6   14     -1.50      0.00
   -7   -5   14      0.32      0.00
   -6   -5   14      0.74      0.00
   -5   -5   14     -0.15      0.00
   -4   -5   14      0.55      0.00
   -3   -5   14     -1.77      0.00
   -2   -5   14     -2.14      0.00
   -1   -5   14     -1.85      0.00
    0   -5   14      0.73      0.00
    1   -5   14     -0.72      0.00
    2   -5   14     -0.60      0.00
    3   -5   14     -3.54      0.00
    4   -5   14     -2.17      0.00
    5   -5   14      0.45      0.00
    6   -5   14     -1.57      0.00
    7   -5   14     -0.49      0.00
    8   -5   14     -0.10      0.00
    9   -5   14     -0.30      0.00
   10   -5   14     -0.57      0.00
   -7   -4   14     -0.01      0.00
   -6   -4   14     -1.64      0.00
   -5   -4   14     -0.03      0.00
   -4   -4   14      0.04      0.00
   -3   -4   14     -4.25      0.00
   -2   -4   14     -1.87      0.00
   -1   -4   14      0.48      0.00
    0   -4   14     -0.11      0.00
    1   -4   14      0.30      0.00
    2   -4   14     -3.00      0.00
    3   -4   14     -1.67      0.00
    4   -4   14      0.29      0.00
    5   -4   14     -0.98      0.00
    6   -4   14      1.05      0.00
    7   -4   14     -0.12      0.00
    8   -4   14     -0.63      0.00
    9   -4   14     -0.19      0.00
   10   -4   14     -0.57      0.00
   11   -4   14     -0.41      0.00
   -7   -3   14      1.76      0.00
   -6   -3   14      0.54      0.00
   -5   -3   14     -1.04      0.00
   -4   -3   14      1.28      0.00
   -3   -3   14     -2.04      0.00
   -2   -3   14     -2.86      0.00
   -1   -3   14      0.89      0.00
    0   -3   14     -0.54      0.00
    1   -3   14     -0.13      0.00
    2   -3   14     -2.00      0.00
    3   -3   14     -3.93      0.00
    4   -3   14      0.21      0.00
    5   -3   14      1.09      0.00
    6   -3   14      1.43      0.00
    7   -3   14      0.23      0.00
    8   -3   14     -0.50      0.00
    9   -3   14      0.02      0.00
   10   -3   14      0.88      0.00
   11   -3   14      0.24      0.00
   -8   -2   14     -0.95      0.00
   -7   -2   14      0.13      0.00
   -6   -2   14     -1.24      0.00
   -5   -2   14      0.21      0.00
   -4   -2   14      1.57      0.00
   -3   -2   14      0.38      0.00
   -2   -2   14     -1.11      0.00
   -1   -2   14      0.13      0.00
    0   -2   14      0.64      0.00
    1   -2   14     -1.59      0.00
    2   -2   14     -0.12      0.00
    3   -2   14     -2.65      0.00
    4   -2   14     -0.95      0.00
    5   -2   14      2.07      0.00
    6   -2   14      0.60      0.00
    7   -2   14      0.43      0.00
    8   -2   14      0.33      0.00
    9   -2   14     -0.88      0.00
   10   -2   14     -0.29      0.00
   11   -2   14     -2.34      0.00
   12   -2   14     -1.61      0.00
   -8   -1   14      3.22      0.00
   -7   -1   14      0.69      0.00
   -6   -1   14      1.65      0.00
   -5   -1   14     -0.44      0.00
   -4   -1   14      1.09      0.00
   -3   -1   14      0.19      0.00
   -2   -1   14     -0.40      0.00
   -1   -1   14      0.26      0.00
    0   -1   14     -0.46      0.00
    1   -1   14      2.35      0.00
    2   -1   14     -2.14      0.00
    3   -1   14     -1.10      0.00
    4   -1   14     -0.90      0.00
    5   -1   14      2.70      0.00
    6   -1   14      1.68      0.00
    7   -1   14      1.05      0.00
    8   -1   14     -0.14      0.00
    9   -1   14      0.55      0.00
   10   -1   14      2.53      0.00
   11   -1   14      2.44      0.00
   12   -1   14     -0.09      0.00
   -8    0   14     -2.65      0.00
   -7    0   14      0.81      0.00
   -6    0   14     -1.41      0.00
   -5    0   14      1.25      0.00
   -4    0   14      0.44      0.00
   -3    0   14      2.32      0.00
   -2    0   14     -3.26      0.00
   -1    0   14     -0.58      0.00
    0    0   14     -0.06      0.00
    1    0   14     -0.49      0.00
    2    0   14      0.04      0.00
    3    0   14     -3.42      0.00
    4    0   14      1.69      0.00
    5    0   14      0.59      0.00
    6    0   14      0.86      0.00
    7    0   14     -0.22      0.00
    8    0   14     -0.06      0.00
    9    0   14      1.14      0.00
   10    0   14     -1.15      0.00
   11    0   14     -1.46      0.00
   12    0   14     -1.49      0.00
   13    0   14      3.05      0.00
   -7    1   14      2.36      0.00
   -6    1   14     -3.18      0.00
   -5    1   14      0.32      0.00
   -4    1   14      0.50      0.00
   -3    1   14      1.57      0.00
   -2    1   14     -2.85      0.00
   -1    1   14      1.53      0.00
    0    1   14      1.17      0.00
    1    1   14      2.41      0.00
    2    1   14     -0.81      0.00
    3    1   14      0.29      0.00
    4    1   14      0.75      0.00
    5    1   14     -0.35      0.00
    6    1   14      0.77      0.00
    7    1   14      0.57      0.00
    8    1   14      1.30      0.00
    9    1   14      0.68      0.00
   10    1   14      1.36      0.00
   11    1   14     -2.10      0.00
   12    1   14     -0.08      0.00
   13    1   14     -0.49      0.00
   -6    2   14     -0.55      0.00
   -5    2   14     -2.30      0.00
   -4    2   14      2.67      0.00
   -3    2   14     -0.07      0.00
   -2    2   14     -1.02      0.00
   -1    2   14      1.09      0.00
    0    2   14      1.22      0.00
    1    2   14     -0.97      0.00
    2    2   14      0.10      0.00
    3    2   14     -0.75      0.00
    4    2   14     -0.73      0.00
    5    2   14      1.86      0.00
    6    2   14      0.88      0.00
    7    2   14      1.51      0.00
    8    2   14      0.25      0.00
    9    2   14      0.55      0.00
   10    2   14     -2.91      0.00
   11    2   14     -2.67      0.00
   12    2   14      0.37      0.00
   13    2   14      1.27      0.00
   14    2   14      0.95      0.00
   -8    3   14     -2.03      0.00
   -7    3   14     -2.21      0.00
   -6    3   14     -0.80      0.00
   -5    3   14      2.38      0.00
   -4    3   14     -0.45      0.00
   -3    3   14     -1.43      0.00
   -2    3   14     -1.45      0.00
   -1    3   14      1.94      0.00
    0    3   14      1.24      0.00
    1    3   14      0.08      0.00
    2    3   14      0.17      0.00
    3    3   14     -0.93      0.00
    4    3   14      0.00      0.00
    5    3   14     -0.81      0.00
    6    3   14      2.27      0.00
    7    3   14      0.89      0.00
    8    3   14     -0.67      0.00
    9    3   14      1.81      0.00
   10    3   14     -1.72      0.00
   11    3   14     -1.14      0.00
   12    3   14     -1.06      0.00
   13    3   14      0.47      0.00
   14    3   14     -0.93      0.00
   -8    4   14     -4.44      0.00
   -7    4   14      0.00      0.00
   -6    4   14     -0.39      0.00
   -5    4   14      0.42      0.00
   -4    4   14     -0.78      0.00
   -3    4   14     -0.84      0.00
   -2    4   14     -0.14      0.00
   -1    4   14     -0.41      0.00
    0    4   14     -0.32      0.00
    1    4   14     -2.39      0.00
    2    4   14     -1.21      0.00
    3    4   14     -1.27      0.00
    4    4   14     -2.54      0.00
    5    4   14      0.46      0.00
    6    4   14      0.81      0.00
    7    4   14      1.09      0.00
    8    4   14     -1.11      0.00
    9    4   14      0.75      0.00
   10    4   14     -1.49      0.00
   11    4   14      0.66      0.00
   12    4   14      1.87      0.00
   13    4   14      0.27      0.00
   14    4   14      1.67      0.00
   15    4   14      0.56      0.00
   -8    5   14     -2.18      0.00
   -7    5   14     -1.04      0.00
   -6    5   14      1.76      0.00
   -5    5   14      0.43      0.00
   -4    5   14      0.67      0.00
   -3    5   14     -1.63      0.00
   -2    5   14     -0.62      0.00
   -1    5   14      1.60      0.00
    0    5   14     -0.18      0.00
    1    5   14     -1.09      0.00
    2    5   14     -2.82      0.00
    3    5   14     -1.27      0.00
    4    5   14     -0.04      0.00
    5    5   14      0.19      0.00
    6    5   14     -1.00      0.00
    7    5   14     -1.40      0.00
    8    5   14     -0.28      0.00
    9    5   14      2.34      0.00
   10    5   14     -0.34      0.00
   11    5   14      0.79      0.00
   12    5   14     -0.13      0.00
   13    5   14      1.95      0.00
   14    5   14      1.45      0.00
   -7    6   14     -1.25      0.00
   -6    6   14     -3.06      0.00
   -5    6   14     -1.65      0.00
   -4    6   14     -1.03      0.00
   -3    6   14      0.04      0.00
   -2    6   14      0.57      0.00
   -1    6   14     -0.50      0.00
    0    6   14     -1.38      0.00
    1    6   14     -2.73      0.00
    2    6   14      0.62      0.00
    3    6   14     -0.16      0.00
    4    6   14      1.79      0.00
    5    6   14      0.23      0.00
    6    6   14     -0.20      0.00
    7    6   14     -0.03      0.00
    8    6   14      0.34      0.00
    9    6   14      0.39      0.00
   10    6   14      0.92      0.00
   11    6   14     -1.03      0.00
   12    6   14      0.95      0.00
   13    6   14      0.64      0.00
   -6    7   14      0.31      0.00
   -5    7   14      0.02      0.00
   -4    7   14      0.00      0.00
   -3    7   14     -2.36      0.00
   -2    7   14      0.03      0.00
   -1    7   14     -1.05      0.00
    0    7   14     -3.50      0.00
    1    7   14     -1.79      0.00
    2    7   14     -2.89      0.00
    3    7   14      0.36      0.00
    4    7   14     -2.44      0.00
    5    7   14     -2.36      0.00
    6    7   14     -1.10      0.00
    7    7   14      0.67      0.00
    8    7   14      1.59      0.00
    9    7   14      2.08      0.00
   10    7   14     -0.53      0.00
   11    7   14      1.41      0.00
   12    7   14      0.42      0.00
   13    7   14      2.65      0.00
   -6    8   14     -0.70      0.00
   -5    8   14     -3.06      0.00
   -4    8   14     -2.56      0.00
   -3    8   14     -0.89      0.00
   -2    8   14      0.10      0.00
   -1    8   14     -0.81      0.00
    0    8   14     -1.52      0.00
    1    8   14     -1.66      0.00
    2    8   14      1.21      0.00
    3    8   14     -0.78      0.00
    4    8   14     -0.69      0.00
    5    8   14     -1.99      0.00
    6    8   14     -1.21      0.00
    7    8   14      0.50      0.00
    8    8   14     -3.80      0.00
    9    8   14     -0.80      0.00
   10    8   14     -0.17      0.00
   11    8   14     -2.01      0.00
   12    8   14      0.48      0.00
   13    8   14      0.94      0.00
   -6    9   14     -0.08      0.00
   -5    9   14      0.07      0.00
   -4    9   14      0.37      0.00
   -3    9   14     -0.17      0.00
   -2    9   14      0.54      0.00
   -1    9   14      0.43      0.00
    0    9   14     -0.45      0.00
    1    9   14     -0.23      0.00
    2    9   14      0.07      0.00
    3    9   14      0.47      0.00
    4    9   14      0.23      0.00
    5    9   14     -0.08      0.00
    6    9   14      0.44      0.00
    7    9   14      0.69      0.00
    8    9   14     -0.26      0.00
    9    9   14     -2.36      0.00
   10    9   14     -0.33      0.00
   11    9   14     -5.27      0.00
   12    9   14     -0.06      0.00
   13    9   14      1.22      0.00
   -6   10   14     -0.50      0.00
   -5   10   14     -0.02      0.00
   -4   10   14      1.18      0.00
   -3   10   14      0.67      0.00
   -2   10   14      0.06      0.00
   -1   10   14     -1.90      0.00
    0   10   14     -1.14      0.00
    1   10   14     -1.96      0.00
    2   10   14     -1.68      0.00
    3   10   14     -0.41      0.00
    4   10   14     -1.38      0.00
    5   10   14     -0.69      0.00
    6   10   14     -1.03      0.00
    7   10   14      0.12      0.00
    8   10   14     -0.88      0.00
    9   10   14     -1.19      0.00
   10   10   14     -1.16      0.00
   11   10   14     -1.40      0.00
   12   10   14     -0.52      0.00
   13   10   14     -0.46      0.00
   -6   11   14      0.84      0.00
   -5   11   14      0.92      0.00
   -4   11   14      0.91      0.00
   -3   11   14     -0.35      0.00
   -2   11   14     -0.45      0.00
   -1   11   14     -1.33      0.00
    0   11   14     -0.65      0.00
    1   11   14     -1.36      0.00
    2   11   14      1.02      0.00
    3   11   14     -0.05      0.00
    4   11   14     -0.02      0.00
    5   11   14     -1.68      0.00
    6   11   14      1.20      0.00
    7   11   14      1.54      0.00
    8   11   14     -0.77      0.00
    9   11   14     -1.45      0.00
   12   11   14      4.88      0.00
   13   11   14      1.08      0.00
   -4   12   14      5.68      0.00
   -3   12   14     -1.00      0.00
   -2   12   14     -0.19      0.00
   -1   12   14      0.43      0.00
    0   12   14     -1.46      0.00
    1   12   14     -0.55      0.00
    2   12   14     -0.24      0.00
    3   12   14     -1.83      0.00
    4   12   14     -0.52      0.00
    5   12   14      0.13      0.00
    6   12   14     -1.52      0.00
    7   12   14      1.68      0.00
    8   12   14     -1.46      0.00
    9   12   14     -0.46      0.00
   10   12   14      0.28      0.00
   13   12   14     -1.23      0.00
   -3   13   14      1.20      0.00
   -2   13   14     -2.42      0.00
   -1   13   14      0.27      0.00
    0   13   14      0.88      0.00
    1   13   14      1.15      0.00
    2   13   14      0.14      0.00
    3   13   14     -0.22      0.00
    4   13   14      0.42      0.00
    5   13   14     -3.39      0.00
    6   13   14      3.12      0.00
    7   13   14      0.13      0.00
    8   13   14     -0.33      0.00
    9   13   14     -2.48      0.00
   10   13   14      2.47      0.00
   -3   14   14      3.86      0.00
   -2   14   14      0.53      0.00
   -1   14   14     -1.98      0.00
    0   14   14      1.09      0.00
    1   14   14     -1.27      0.00
    2   14   14      0.73      0.00
    3   14   14      1.13      0.00
    4   14   14      0.16      0.00
    5   14   14      1.37      0.00
    6   14   14     -0.27      0.00
    7   14   14      1.55      0.00
    8   14   14     -0.36      0.00
    9   14   14      3.14      0.00
   10   14   14      0.18      0.00
   11   14   14     -3.21      0.00
   -2   15   14      0.06      0.00
   -1   15   14      1.60      0.00
    0   15   14     -0.38      0.00
    1   15   14     -0.80      0.00
    2   15   14      0.69      0.00
    3   15   14     -1.19      0.00
    4   15   14     -5.27      0.00
    5   15   14      1.01      0.00
    6   15   14      1.11      0.00
    7   15   14      0.61      0.00
    8   15   14      0.50      0.00
    9   15   14      1.76      0.00
   10   15   14      0.45      0.00
   11   15   14     -1.92      0.00
   12   15   14      1.67      0.00
   -1   16   14     -1.38      0.00
    0   16   14     -3.06      0.00
    1   16   14      0.21      0.00
    2   16   14      0.70      0.00
    3   16   14     -3.54      0.00
    4   16   14     -0.20      0.00
    5   16   14     -1.60      0.00
    6   16   14      3.99      0.00
    7   16   14      0.43      0.00
    8   16   14      0.12      0.00
    9   16   14      3.04      0.00
   10   16   14     -1.45      0.00
   11   16   14     -4.01      0.00
    0   17   14      1.22      0.00
    1   17   14     -1.99      0.00
    2   17   14      2.45      0.00
    3   17   14     -2.57      0.00
    4   17   14      0.75      0.00
    5   17   14      1.84      0.00
    6   17   14      7.95      0.00
    7   17   14     -1.60      0.00
    8   17   14     -0.96      0.00
    9   17   14      0.48      0.00
   10   17   14     -0.17      0.00
    3   18   14     -1.60      0.00
    4   18   14     -3.41      0.00
    5   18   14      4.24      0.00
    6   18   14      0.77      0.00
    7   18   14     -1.62      0.00
    8   18   14      0.03      0.00
    0  -11   15      1.23      0.00
   -3  -10   15      2.53      0.00
   -2  -10   15      0.02      0.00
   -1  -10   15     -0.09      0.00
    0  -10   15     -0.68      0.00
    1  -10   15      1.02      0.00
    2  -10   15     -0.37      0.00
    3  -10   15      3.23      0.00
   -4   -9   15      1.74      0.00
   -3   -9   15     -0.29      0.00
   -2   -9   15     -2.24      0.00
   -1   -9   15      2.89      0.00
    0   -9   15     -0.72      0.00
    1   -9   15      0.28      0.00
    2   -9   15     -0.61      0.00
    3   -9   15      2.64      0.00
    4   -9   15     -1.10      0.00
    5   -9   15     -1.67      0.00
    6   -9   15      0.58      0.00
    7   -9   15     -3.70      0.00
    8   -9   15     -0.46      0.00
   -5   -8   15     -1.30      0.00
   -4   -8   15      2.27      0.00
   -3   -8   15      1.94      0.00
   -2   -8   15      0.97      0.00
   -1   -8   15     -0.47      0.00
    0   -8   15     -3.52      0.00
    1   -8   15     -0.66      0.00
    2   -8   15      1.00      0.00
    3   -8   15      1.01      0.00
    4   -8   15     -3.10      0.00
    5   -8   15      2.31      0.00
    6   -8   15      2.67      0.00
    7   -8   15      0.75      0.00
    8   -8   15     -0.30      0.00
    9   -8   15     -0.78      0.00
   -5   -7   15     -2.63      0.00
   -4   -7   15      0.63      0.00
   -3   -7   15     -0.67      0.00
   -2   -7   15     -2.49      0.00
   -1   -7   15      0.47      0.00
    0   -7   15      1.75      0.00
    1   -7   15      1.29      0.00
    2   -7   15      2.87      0.00
    3   -7   15      0.25      0.00
    4   -7   15     -3.19      0.00
    5   -7   15      1.54      0.00
    6   -7   15      2.42      0.00
    7   -7   15     -2.62      0.00
    8   -7   15      0.82      0.00
    9   -7   15     -2.49      0.00
   -6   -6   15     -0.34      0.00
   -5   -6   15     -0.25      0.00
   -4   -6   15      1.24      0.00
   -3   -6   15      0.42      0.00
   -2   -6   15     -2.03      0.00
   -1   -6   15      0.49      0.00
    0   -6   15     -1.47      0.00
    1   -6   15      0.60      0.00
    2   -6   15      0.59      0.00
    3   -6   15      0.27      0.00
    4   -6   15      0.55      0.00
    5   -6   15      1.82      0.00
    6   -6   15      3.81      0.00
    7   -6   15      1.51      0.00
    8   -6   15      0.10      0.00
    9   -6   15      0.68      0.00
   10   -6   15      3.39      0.00
   -6   -5   15      1.94      0.00
   -5   -5   15     -0.80      0.00
   -4   -5   15     -1.02      0.00
   -3   -5   15      3.57      0.00
   -2   -5   15      0.90      0.00
   -1   -5   15     -1.73      0.00
    0   -5   15     -0.66      0.00
    1   -5   15      0.26      0.00
    2   -5   15      1.93      0.00
    3   -5   15     -0.36      0.00
    4   -5   15     -2.17      0.00
    5   -5   15      3.36      0.00
    6   -5   15     -0.62      0.00
    7   -5   15     -1.67      0.00
    8   -5   15     -0.40      0.00
    9   -5   15     -0.05      0.00
   10   -5   15      3.80      0.00
   -7   -4   15     -0.11      0.00
   -6   -4   15     -2.64      0.00
   -5   -4   15     -0.33      0.00
   -4   -4   15      0.18      0.00
   -3   -4   15      2.50      0.00
   -2   -4   15      1.08      0.00
   -1   -4   15     -0.92      0.00
    0   -4   15     -0.73      0.00
    1   -4   15     -0.56      0.00
    2   -4   15      1.92      0.00
    3   -4   15      1.82      0.00
    4   -4   15      2.40      0.00
    5   -4   15     -0.75      0.00
    6   -4   15      0.33      0.00
    7   -4   15     -0.59      0.00
    8   -4   15     -1.08      0.00
    9   -4   15      0.84      0.00
   10   -4   15      1.50      0.00
   -7   -3   15     -1.19      0.00
   -6   -3   15     -0.79      0.00
   -5   -3   15     -1.27      0.00
   -4   -3   15      1.01      0.00
   -3   -3   15      4.10      0.00
   -2   -3   15     -0.54      0.00
   -1   -3   15     -1.13      0.00
    0   -3   15     -1.74      0.00
    1   -3   15     -0.31      0.00
    2   -3   15      0.51      0.00
    3   -3   15      0.21      0.00
    4   -3   15      0.76      0.00
    5   -3   15     -0.36      0.00
    6   -3   15      0.73      0.00
    7   -3   15      0.80      0.00
    8   -3   15      0.01      0.00
    9   -3   15      0.86      0.00
   10   -3   15     -0.31      0.00
   11   -3   15      0.38      0.00
   -7   -2   15     -1.50      0.00
   -6   -2   15     -1.23      0.00
   -5   -2   15     -0.21      0.00
   -4   -2   15      0.98      0.00
   -3   -2   15      1.57      0.00
   -2   -2   15     -0.28      0.00
   -1   -2   15     -2.54      0.00
    0   -2   15     -0.49      0.00
    1   -2   15     -2.30      0.00
    2   -2   15      0.82      0.00
    3   -2   15      0.21      0.00
    4   -2   15      1.17      0.00
    5   -2   15     -0.46      0.00
    6   -2   15     -0.50      0.00
    7   -2   15      0.62      0.00
    8   -2   15     -0.95      0.00
    9   -2   15     -0.08      0.00
   10   -2   15     -1.67      0.00
   11   -2   15     -2.94      0.00
   -7   -1   15     -0.83      0.00
   -6   -1   15      2.72      0.00
   -5   -1   15     -3.92      0.00
   -4   -1   15      0.91      0.00
   -3   -1   15     -0.10      0.00
   -2   -1   15      1.92      0.00
   -1   -1   15     -1.35      0.00
    0   -1   15     -0.58      0.00
    1   -1   15     -1.73      0.00
    2   -1   15     -2.15      0.00
    3   -1   15      1.96      0.00
    4   -1   15     -0.55      0.00
    5   -1   15     -0.21      0.00
    6   -1   15      0.48      0.00
    7   -1   15      0.40      0.00
    8   -1   15     -0.76      0.00
    9   -1   15     -0.49      0.00
   10   -1   15      0.48      0.00
   11   -1   15      2.06      0.00
   12   -1   15      0.14      0.00
   -7    0   15     -1.07      0.00
   -6    0   15     -0.84      0.00
   -5    0   15      1.55      0.00
   -4    0   15     -0.18      0.00
   -3    0   15      1.08      0.00
   -2    0   15      0.77      0.00
   -1    0   15     -0.69      0.00
    0    0   15     -1.97      0.00
    1    0   15     -2.72      0.00
    2    0   15     -1.63      0.00
    3    0   15      0.63      0.00
    4    0   15      0.63      0.00
    5    0   15      0.48      0.00
    6    0   15      1.64      0.00
    7    0   15     -0.39      0.00
    8    0   15     -2.36      0.00
    9    0   15      0.06      0.00
   10    0   15     -1.96      0.00
   11    0   15     -1.62      0.00
   12    0   15     -1.57      0.00
   -6    1   15      0.26      0.00
   -5    1   15      1.48      0.00
   -4    1   15     -0.87      0.00
   -3    1   15     -0.74      0.00
   -2    1   15      3.98      0.00
   -1    1   15      0.39      0.00
    0    1   15     -0.51      0.00
    1    1   15     -2.29      0.00
    2    1   15      0.55      0.00
    3    1   15      1.84      0.00
    4    1   15      2.20      0.00
    5    1   15      0.46      0.00
    6    1   15      0.92      0.00
    7    1   15     -0.51      0.00
    8    1   15     -0.14      0.00
    9    1   15     -0.09      0.00
   10    1   15      0.73      0.00
   11    1   15     -0.28      0.00
   12    1   15      0.19      0.00
   13    1   15     -1.02      0.00
   -6    2   15      4.96      0.00
   -5    2   15     -2.37      0.00
   -4    2   15      1.14      0.00
   -3    2   15      1.13      0.00
   -2    2   15      1.73      0.00
   -1    2   15     -0.38      0.00
    0    2   15     -0.93      0.00
    1    2   15     -0.80      0.00
    2    2   15     -0.37      0.00
    3    2   15     -0.47      0.00
    4    2   15      1.78      0.00
    5    2   15      4.14      0.00
    6    2   15      0.48      0.00
    7    2   15     -0.26      0.00
    8    2   15      0.07      0.00
    9    2   15     -0.95      0.00
   10    2   15      0.35      0.00
   11    2   15     -0.95      0.00
   12    2   15      1.44      0.00
   13    2   15      0.58      0.00
   -7    3   15      3.69      0.00
   -6    3   15     -0.68      0.00
   -5    3   15     -0.50      0.00
   -4    3   15      0.29      0.00
   -3    3   15      0.76      0.00
   -2    3   15      1.04      0.00
   -1    3   15      0.52      0.00
    0    3   15     -0.71      0.00
    1    3   15      0.35      0.00
    2    3   15      2.09      0.00
    3    3   15      1.73      0.00
    4    3   15      4.57      0.00
    5    3   15      0.62      0.00
    6    3   15     -1.47      0.00
    7    3   15     -1.31      0.00
    8    3   15      0.16      0.00
    9    3   15      1.72      0.00
   10    3   15      1.29      0.00
   11    3   15      0.27      0.00
   12    3   15     -0.52      0.00
   13    3   15      1.22      0.00
   14    3   15      0.53      0.00
   -7    4   15      3.10      0.00
   -6    4   15     -1.68      0.00
   -5    4   15     -0.39      0.00
   -4    4   15      0.15      0.00
   -3    4   15      1.18      0.00
   -2    4   15      0.28      0.00
   -1    4   15     -1.40      0.00
    0    4   15      1.04      0.00
    1    4   15     -0.31      0.00
    2    4   15      0.72      0.00
    3    4   15      1.13      0.00
    4    4   15      2.36      0.00
    5    4   15      1.17      0.00
    6    4   15     -0.10      0.00
    7    4   15     -0.11      0.00
    8    4   15     -0.40      0.00
    9    4   15     -0.09      0.00
   10    4   15     -0.10      0.00
   11    4   15     -1.80      0.00
   12    4   15      2.06      0.00
   13    4   15     -1.35      0.00
   14    4   15      1.28      0.00
   -7    5   15      1.11      0.00
   -6    5   15      0.25      0.00
   -5    5   15     -0.03      0.00
   -4    5   15      0.79      0.00
   -3    5   15      1.00      0.00
   -2    5   15     -1.37      0.00
   -1    5   15      3.37      0.00
    0    5   15     -0.36      0.00
    1    5   15      3.98      0.00
    2    5   15      0.71      0.00
    3    5   15      2.54      0.00
    4    5   15      2.08      0.00
    5    5   15     -0.03      0.00
    6    5   15      0.25      0.00
    7    5   15      0.13      0.00
    8    5   15      0.08      0.00
    9    5   15     -0.20      0.00
   10    5   15     -1.13      0.00
   11    5   15     -0.69      0.00
   12    5   15     -0.16      0.00
   13    5   15     -2.75      0.00
   -7    6   15      0.96      0.00
   -6    6   15     -0.71      0.00
   -5    6   15     -0.71      0.00
   -4    6   15     -0.56      0.00
   -3    6   15      1.10      0.00
   -2    6   15     -0.01      0.00
   -1    6   15     -0.22      0.00
    0    6   15      1.19      0.00
    1    6   15      1.38      0.00
    2    6   15      2.87      0.00
    3    6   15      0.46      0.00
    4    6   15      3.14      0.00
    5    6   15      3.23      0.00
    6    6   15      2.07      0.00
    7    6   15      0.46      0.00
    8    6   15     -0.57      0.00
    9    6   15     -1.89      0.00
   10    6   15      0.63      0.00
   11    6   15     -1.72      0.00
   12    6   15     -1.67      0.00
   13    6   15     -4.50      0.00
   -6    7   15      0.36      0.00
   -5    7   15      1.10      0.00
   -4    7   15      1.66      0.00
   -3    7   15     -0.93      0.00
   -2    7   15     -1.79      0.00
   -1    7   15      0.81      0.00
    0    7   15      0.49      0.00
    1    7   15      2.10      0.00
    2    7   15     -1.55      0.00
    3    7   15      0.23      0.00
    4    7   15     -1.72      0.00
    5    7   15      0.73      0.00
    6    7   15      1.54      0.00
    7    7   15     -1.32      0.00
    8    7   15      2.16      0.00
    9    7   15      1.81      0.00
   10    7   15     -0.16      0.00
   11    7   15      1.03      0.00
   12    7   15      0.24      0.00
   13    7   15     -2.51      0.00
   -5    8   15      0.84      0.00
   -4    8   15     -1.45      0.00
   -3    8   15     -1.63      0.00
   -2    8   15     -1.22      0.00
   -1    8   15      1.55      0.00
    0    8   15      0.33      0.00
    1    8   15     -0.94      0.00
    2    8   15     -0.15      0.00
    3    8   15      0.78      0.00
    4    8   15      3.39      0.00
    5    8   15      2.25      0.00
    6    8   15     -1.05      0.00
    7    8   15      1.13      0.00
    8    8   15     -0.05      0.00
    9    8   15      1.34      0.00
   10    8   15     -0.98      0.00
   11    8   15      0.68      0.00
   12    8   15      2.05      0.00
   13    8   15      0.67      0.00
   -5    9   15      1.27      0.00
   -4    9   15      0.10      0.00
   -3    9   15     -0.42      0.00
   -2    9   15     -0.28      0.00
   -1    9   15      1.55      0.00
    0    9   15      0.61      0.00
    1    9   15      0.09      0.00
    2    9   15      1.44      0.00
    3    9   15      0.99      0.00
    4    9   15      2.90      0.00
    5    9   15      0.66      0.00
    6    9   15      1.19      0.00
    7    9   15      1.84      0.00
    8    9   15      3.16      0.00
    9    9   15     -1.82      0.00
   10    9   15     -1.95      0.00
   11    9   15     -0.78      0.00
   12    9   15     -0.15      0.00
   13    9   15     -2.16      0.00
   -5   10   15     -0.17      0.00
   -4   10   15     -1.99      0.00
   -3   10   15     -1.42      0.00
   -2   10   15     -0.74      0.00
   -1   10   15     -0.32      0.00
    0   10   15     -2.33      0.00
    1   10   15     -0.35      0.00
    2   10   15     -0.16      0.00
    3   10   15      1.60      0.00
    4   10   15     -0.30      0.00
    5   10   15      0.53      0.00
    6   10   15     -0.71      0.00
    7   10   15      1.71      0.00
    8   10   15      0.64      0.00
    9   10   15     -0.51      0.00
   10   10   15      1.17      0.00
   11   10   15      2.46      0.00
   12   10   15     -4.09      0.00
   13   10   15     -0.72      0.00
   -5   11   15     -1.80      0.00
   -4   11   15     -5.75      0.00
   -3   11   15     -2.74      0.00
   -2   11   15      0.82      0.00
   -1   11   15     -1.37      0.00
    0   11   15      0.64      0.00
    1   11   15      0.25      0.00
    2   11   15      1.06      0.00
    3   11   15      1.33      0.00
    4   11   15      0.35      0.00
    5   11   15      0.19      0.00
    6   11   15      1.12      0.00
    7   11   15     -1.04      0.00
    8   11   15     -0.38      0.00
    9   11   15     -1.60      0.00
   10   11   15     -0.15      0.00
   -3   12   15     -2.23      0.00
   -2   12   15      1.23      0.00
   -1   12   15      0.03      0.00
    0   12   15     -1.45      0.00
    1   12   15     -1.04      0.00
    2   12   15      0.10      0.00
    3   12   15      1.31      0.00
    4   12   15      0.46      0.00
    5   12   15      1.97      0.00
    6   12   15     -4.68      0.00
    7   12   15     -0.14      0.00
    8   12   15     -0.70      0.00
    9   12   15      1.56      0.00
   10   12   15      0.13      0.00
   -2   13   15     -1.13      0.00
   -1   13   15      1.71      0.00
    0   13   15     -1.14      0.00
    1   13   15     -1.06      0.00
    2   13   15     -0.21      0.00
    3   13   15      2.81      0.00
    4   13   15      1.62      0.00
    5   13   15     -0.71      0.00
    6   13   15      1.40      0.00
    7   13   15     -0.62      0.00
    8   13   15     -0.45      0.00
    9   13   15     -1.66      0.00
   10   13   15      0.95      0.00
   -2   14   15      0.74      0.00
   -1   14   15     -3.01      0.00
    0   14   15      0.05      0.00
    1   14   15     -0.26      0.00
    2   14   15      1.39      0.00
    3   14   15      0.54      0.00
    4   14   15      2.99      0.00
    5   14   15      3.38      0.00
    6   14   15     -1.72      0.00
    7   14   15      0.50      0.00
    8   14   15     -1.59      0.00
    9   14   15      0.79      0.00
   10   14   15      1.16      0.00
   -2   15   15      0.54      0.00
   -1   15   15      0.67      0.00
    0   15   15      2.56      0.00
    1   15   15      1.54      0.00
    2   15   15     -3.22      0.00
    3   15   15      1.37      0.00
    4   15   15     -1.01      0.00
    5   15   15      2.86      0.00
    6   15   15     -2.60      0.00
    7   15   15     -3.08      0.00
    8   15   15     -2.13      0.00
    9   15   15     -1.25      0.00
   10   15   15     -0.19      0.00
   -1   16   15     -1.02      0.00
    0   16   15      0.00      0.00
    1   16   15      1.92      0.00
    2   16   15     -3.81      0.00
    3   16   15      2.36      0.00
    4   16   15      2.80      0.00
    5   16   15     -1.58      0.00
    6   16   15     -5.62      0.00
    7   16   15     -1.64      0.00
    8   16   15      0.69      0.00
    9   16   15      0.52      0.00
   10   16   15      0.25      0.00
    1   17   15     -2.34      0.00
    2   17   15      1.33      0.00
    3   17   15      3.37      0.00
    4   17   15      4.81      0.00
    5   17   15     -2.95      0.00
    6   17   15     -2.15      0.00
    7   17   15     -1.87      0.00
    8   17   15      0.67      0.00
    9   17   15     -0.64      0.00
   10   17   15     -0.04      0.00
    4   18   15     -1.54      0.00
    5   18   15      0.33      0.00
    6   18   15     -7.96      0.00
    7   18   15      2.67      0.00
    8   18   15      2.04      0.00
    0  -10   16     -0.20      0.00
    1  -10   16      0.87      0.00
    2  -10   16      0.48      0.00
   -1   -9   16      0.21      0.00
    0   -9   16      0.40      0.00
    1   -9   16     -0.08      0.00
    2   -9   16     -1.60      0.00
    3   -9   16     -2.49      0.00
    4   -9   16      2.52      0.00
    5   -9   16     -1.73      0.00
    6   -9   16     -0.82      0.00
   -2   -8   16      3.16      0.00
   -1   -8   16      1.59      0.00
    0   -8   16     -2.77      0.00
    1   -8   16     -1.42      0.00
    2   -8   16     -0.73      0.00
    3   -8   16     -0.65      0.00
    4   -8   16      0.39      0.00
    5   -8   16     -1.66      0.00
    6   -8   16     -1.07      0.00
    7   -8   16      2.74      0.00
    8   -8   16     -2.56      0.00
   -2   -7   16      2.05      0.00
   -1   -7   16      0.10      0.00
    0   -7   16      0.36      0.00
    1   -7   16     -0.07      0.00
    2   -7   16      0.31      0.00
    3   -7   16      2.31      0.00
    4   -7   16      1.00      0.00
    5   -7   16     -0.28      0.00
    6   -7   16      0.97      0.00
    7   -7   16     -2.98      0.00
    8   -7   16     -1.11      0.00
   -3   -6   16      1.64      0.00
   -2   -6   16      2.35      0.00
   -1   -6   16      1.08      0.00
    0   -6   16     -0.81      0.00
    1   -6   16     -1.10      0.00
    2   -6   16     -0.45      0.00
    3   -6   16      0.53      0.00
    4   -6   16      1.60      0.00
    5   -6   16     -2.11      0.00
    6   -6   16      1.01      0.00
    7   -6   16      0.23      0.00
    8   -6   16     -0.07      0.00
    9   -6   16      0.23      0.00
   -5   -5   16     -0.06      0.00
   -4   -5   16     -0.70      0.00
   -3   -5   16      1.91      0.00
   -2   -5   16      1.81      0.00
   -1   -5   16     -1.07      0.00
    0   -5   16      0.16      0.00
    1   -5   16      1.58      0.00
    2   -5   16     -2.01      0.00
    3   -5   16      0.48      0.00
    4   -5   16     -2.89      0.00
    5   -5   16      1.05      0.00
    6   -5   16     -1.29      0.00
    7   -5   16     -0.47      0.00
    8   -5   16      1.53      0.00
    9   -5   16     -2.00      0.00
   -6   -4   16      0.27      0.00
   -5   -4   16      2.08      0.00
   -4   -4   16     -0.92      0.00
   -3   -4   16     -1.98      0.00
   -2   -4   16      0.98      0.00
   -1   -4   16      0.58      0.00
    0   -4   16      1.89      0.00
    1   -4   16      0.82      0.00
    2   -4   16     -0.04      0.00
    3   -4   16      0.67      0.00
    4   -4   16     -1.16      0.00
    5   -4   16     -1.46      0.00
    6   -4   16      0.11      0.00
    7   -4   16     -0.07      0.00
    8   -4   16     -1.22      0.00
    9   -4   16     -2.77      0.00
   10   -4   16      0.33      0.00
   -6   -3   16      1.81      0.00
   -5   -3   16     -0.25      0.00
   -4   -3   16     -2.46      0.00
   -3   -3   16      0.24      0.00
   -2   -3   16      2.13      0.00
   -1   -3   16      1.49      0.00
    0   -3   16      1.41      0.00
    1   -3   16      1.26      0.00
    2   -3   16     -0.13      0.00
    3   -3   16      0.49      0.00
    4   -3   16     -1.70      0.00
    5   -3   16      0.23      0.00
    6   -3   16      0.42      0.00
    7   -3   16      1.40      0.00
    8   -3   16      1.31      0.00
    9   -3   16     -0.45      0.00
   10   -3   16      0.89      0.00
   -7   -2   16      1.06      0.00
   -6   -2   16     -0.84      0.00
   -5   -2   16      2.06      0.00
   -4   -2   16     -1.02      0.00
   -3   -2   16      0.16      0.00
   -2   -2   16      0.40      0.00
   -1   -2   16      0.16      0.00
    0   -2   16      2.26      0.00
    1   -2   16      0.23      0.00
    2   -2   16      1.52      0.00
    3   -2   16     -0.52      0.00
    4   -2   16     -0.73      0.00
    5   -2   16      0.56      0.00
    6   -2   16     -1.69      0.00
    7   -2   16      0.18      0.00
    8   -2   16      0.61      0.00
    9   -2   16      0.12      0.00
   10   -2   16      1.48      0.00
   11   -2   16     -2.91      0.00
   -7   -1   16     -0.74      0.00
   -6   -1   16      4.05      0.00
   -5   -1   16     -2.47      0.00
   -4   -1   16      0.58      0.00
   -3   -1   16     -0.82      0.00
   -2   -1   16      2.01      0.00
   -1   -1   16      1.84      0.00
    0   -1   16      3.27      0.00
    1   -1   16     -0.27      0.00
    2   -1   16      1.56      0.00
    3   -1   16      0.39      0.00
    4   -1   16     -1.11      0.00
    5   -1   16     -0.50      0.00
    6   -1   16     -1.63      0.00
    7   -1   16      0.11      0.00
    8   -1   16      2.42      0.00
    9   -1   16      0.83      0.00
   10   -1   16      1.48      0.00
   11   -1   16      1.19      0.00
   -7    0   16     -1.23      0.00
   -6    0   16      0.68      0.00
   -5    0   16      2.64      0.00
   -4    0   16     -0.38      0.00
   -3    0   16      1.85      0.00
   -2    0   16     -3.11      0.00
   -1    0   16      0.96      0.00
    0    0   16     -0.56      0.00
    1    0   16      2.53      0.00
    2    0   16      1.48      0.00
    3    0   16     -1.13      0.00
    4    0   16     -2.09      0.00
    5    0   16     -1.07      0.00
    6    0   16     -1.17      0.00
    7    0   16     -0.02      0.00
    8    0   16      0.55      0.00
    9    0   16     -0.06      0.00
   10    0   16     -0.03      0.00
   11    0   16     -1.45      0.00
   12    0   16      0.71      0.00
   -5    1   16      2.04      0.00
   -4    1   16     -0.98      0.00
   -3    1   16     -1.38      0.00
   -2    1   16     -0.07      0.00
   -1    1   16      0.45      0.00
    0    1   16      1.61      0.00
    1    1   16      0.24      0.00
    2    1   16      1.81      0.00
    3    1   16      0.66      0.00
    4    1   16     -1.60      0.00
    5    1   16     -3.33      0.00
    6    1   16     -1.59      0.00
    7    1   16      0.12      0.00
    8    1   16      0.74      0.00
    9    1   16      0.39      0.00
   10    1   16      0.12      0.00
   11    1   16      1.42      0.00
   12    1   16     -0.03      0.00
   -5    2   16     -0.60      0.00
   -4    2   16      0.40      0.00
   -3    2   16     -0.88      0.00
   -2    2   16     -3.43      0.00
   -1    2   16     -0.97      0.00
    0    2   16     -0.26      0.00
    1    2   16      2.15      0.00
    2    2   16      0.13      0.00
    3    2   16     -2.85      0.00
    4    2   16     -2.99      0.00
    5    2   16     -2.35      0.00
    6    2   16      0.89      0.00
    7    2   16      0.43      0.00
    8    2   16      0.21      0.00
    9    2   16     -2.31      0.00
   10    2   16      0.79      0.00
   11    2   16      0.24      0.00
   12    2   16     -0.36      0.00
   13    2   16     -3.65      0.00
   -6    3   16      0.49      0.00
   -5    3   16     -0.98      0.00
   -4    3   16     -2.17      0.00
   -3    3   16     -1.01      0.00
   -2    3   16      0.05      0.00
   -1    3   16      2.04      0.00
    0    3   16     -2.20      0.00
    1    3   16      0.14      0.00
    2    3   16      1.82      0.00
    3    3   16      1.14      0.00
    4    3   16     -2.52      0.00
    5    3   16     -2.52      0.00
    6    3   16     -0.76      0.00
    7    3   16      0.47      0.00
    8    3   16     -0.16      0.00
    9    3   16     -0.18      0.00
   10    3   16      0.82      0.00
   11    3   16      3.22      0.00
   12    3   16     -1.84      0.00
   13    3   16     -1.40      0.00
   14    3   16     -0.87      0.00
   -6    4   16      1.91      0.00
   -5    4   16     -1.14      0.00
   -4    4   16     -1.17      0.00
   -3    4   16     -0.23      0.00
   -2    4   16      0.69      0.00
   -1    4   16     -4.36      0.00
    0    4   16      1.51      0.00
    1    4   16     -1.02      0.00
    2    4   16      1.28      0.00
    3    4   16     -1.30      0.00
    4    4   16     -4.30      0.00
    5    4   16     -1.27      0.00
    6    4   16      1.88      0.00
    7    4   16      0.66      0.00
    8    4   16     -1.11      0.00
    9    4   16     -1.33      0.00
   10    4   16      1.16      0.00
   11    4   16      1.43      0.00
   12    4   16     -1.07      0.00
   13    4   16     -1.03      0.00
   14    4   16     -0.97      0.00
   -6    5   16      1.72      0.00
   -5    5   16     -1.63      0.00
   -4    5   16      0.68      0.00
   -3    5   16      0.21      0.00
   -2    5   16     -1.17      0.00
   -1    5   16      2.18      0.00
    0    5   16     -1.17      0.00
    1    5   16      2.19      0.00
    2    5   16     -0.43      0.00
    3    5   16      1.17      0.00
    4    5   16     -1.62      0.00
    5    5   16     -2.97      0.00
    6    5   16      1.48      0.00
    7    5   16      0.40      0.00
    8    5   16     -0.42      0.00
    9    5   16     -0.69      0.00
   10    5   16      0.34      0.00
   11    5   16      1.25      0.00
   12    5   16      0.83      0.00
   13    5   16      2.13      0.00
   -6    6   16     -0.04      0.00
   -5    6   16     -1.61      0.00
   -4    6   16      0.10      0.00
   -3    6   16     -0.30      0.00
   -2    6   16      2.00      0.00
   -1    6   16     -1.94      0.00
    0    6   16     -0.05      0.00
    1    6   16     -2.36      0.00
    2    6   16      1.19      0.00
    3    6   16     -1.73      0.00
    4    6   16      0.27      0.00
    5    6   16     -0.70      0.00
    6    6   16     -0.62      0.00
    7    6   16      0.76      0.00
    8    6   16     -0.87      0.00
    9    6   16     -2.30      0.00
   10    6   16      0.11      0.00
   11    6   16     -0.74      0.00
   12    6   16     -0.89      0.00
   -6    7   16      0.20      0.00
   -5    7   16     -2.94      0.00
   -4    7   16      1.43      0.00
   -3    7   16      0.27      0.00
   -2    7   16      0.57      0.00
   -1    7   16     -1.20      0.00
    0    7   16     -0.96      0.00
    1    7   16     -0.29      0.00
    2    7   16      0.28      0.00
    3    7   16     -0.25      0.00
    4    7   16     -5.20      0.00
    5    7   16     -4.12      0.00
    6    7   16      1.63      0.00
    7    7   16     -1.79      0.00
    8    7   16      0.18      0.00
    9    7   16     -1.73      0.00
   10    7   16     -0.56      0.00
   11    7   16      2.72      0.00
   12    7   16      1.69      0.00
   -5    8   16     -1.12      0.00
   -4    8   16      0.68      0.00
   -3    8   16     -0.24      0.00
   -2    8   16      0.97      0.00
   -1    8   16      0.21      0.00
    0    8   16     -0.39      0.00
    1    8   16     -0.25      0.00
    2    8   16      0.56      0.00
    3    8   16      0.31      0.00
    4    8   16     -1.07      0.00
    5    8   16     -0.39      0.00
    6    8   16      0.36      0.00
    7    8   16     -0.02      0.00
    8    8   16     -2.43      0.00
    9    8   16      0.02      0.00
   10    8   16      1.42      0.00
   11    8   16      1.94      0.00
   12    8   16     -0.12      0.00
   -4    9   16      2.37      0.00
   -3    9   16      1.76      0.00
   -2    9   16      1.34      0.00
   -1    9   16      0.28      0.00
    0    9   16      1.99      0.00
    1    9   16      2.76      0.00
    2    9   16      2.95      0.00
    3    9   16     -1.01      0.00
    4    9   16     -0.93      0.00
    5    9   16      0.41      0.00
    6    9   16      3.20      0.00
    7    9   16     -1.73      0.00
    8    9   16      0.47      0.00
    9    9   16     -0.15      0.00
   10    9   16      0.65      0.00
   11    9   16      1.06      0.00
   12    9   16     -2.11      0.00
   -4   10   16      2.65      0.00
   -3   10   16      2.00      0.00
   -2   10   16      0.15      0.00
   -1   10   16      2.50      0.00
    0   10   16     -0.23      0.00
    1   10   16     -0.02      0.00
    2   10   16     -0.62      0.00
    3   10   16     -0.69      0.00
    4   10   16     -0.75      0.00
    5   10   16      2.61      0.00
    6   10   16     -1.42      0.00
    7   10   16      0.43      0.00
    8   10   16      1.84      0.00
    9   10   16      2.89      0.00
   11   10   16      4.94      0.00
   -4   11   16     -0.11      0.00
   -3   11   16      1.10      0.00
   -2   11   16      1.14      0.00
   -1   11   16     -0.02      0.00
    0   11   16      1.10      0.00
    1   11   16      1.22      0.00
    2   11   16     -0.22      0.00
    3   11   16     -0.98      0.00
    4   11   16     -0.82      0.00
    5   11   16      1.53      0.00
    6   11   16      2.12      0.00
    7   11   16     -0.89      0.00
    8   11   16      0.34      0.00
    9   11   16     -0.24      0.00
   -2   12   16      1.33      0.00
   -1   12   16     -0.59      0.00
    0   12   16     -0.68      0.00
    1   12   16      3.10      0.00
    2   12   16      1.33      0.00
    3   12   16     -2.73      0.00
    4   12   16     -0.57      0.00
    5   12   16      1.20      0.00
    6   12   16     -1.95      0.00
    7   12   16     -0.07      0.00
    8   12   16      1.03      0.00
    9   12   16      1.86      0.00
   10   12   16      0.13      0.00
   -2   13   16     -1.33      0.00
   -1   13   16      1.54      0.00
    0   13   16      0.26      0.00
    1   13   16      3.78      0.00
    2   13   16     -3.37      0.00
    3   13   16     -1.91      0.00
    4   13   16     -0.11      0.00
    5   13   16     -0.99      0.00
    6   13   16      2.58      0.00
    7   13   16     -1.26      0.00
    8   13   16      0.73      0.00
    9   13   16      0.46      0.00
   10   13   16     -1.76      0.00
   -1   14   16     -1.90      0.00
    0   14   16      1.79      0.00
    1   14   16      2.16      0.00
    2   14   16      0.46      0.00
    3   14   16     -2.70      0.00
    4   14   16      2.16      0.00
    5   14   16     -1.16      0.00
    6   14   16     -2.47      0.00
   -1   15   16      0.74      0.00
    0   15   16      0.99      0.00
    1   15   16     -0.68      0.00
    2   15   16     -1.72      0.00
    3   15   16      0.26      0.00
    4   15   16     -1.61      0.00
    5   15   16     -2.96      0.00
    6   15   16     -1.28      0.00
    0   16   16     -5.79      0.00
    1   16   16      2.08      0.00
    2   16   16      0.33      0.00
    3   16   16      0.45      0.00
    4   16   16     -2.28      0.00
    5   16   16     -2.11      0.00
    6   16   16     -1.45      0.00
    2   17   16      4.25      0.00
    3   17   16     -2.56      0.00
    4   17   16      1.90      0.00
    5   17   16     -1.72      0.00
    6   17   16      6.61      0.00
    4   18   16     -3.55      0.00
    5   18   16      3.45      0.00
    1   -9   17      0.74      0.00
    2   -9   17     -0.70      0.00
    3   -9   17     -0.70      0.00
    4   -9   17      0.69      0.00
    0   -8   17      1.66      0.00
    1   -8   17      0.77      0.00
    2   -8   17     -1.22      0.00
    3   -8   17     -1.87      0.00
    4   -8   17     -0.41      0.00
    5   -8   17      0.27      0.00
    6   -8   17     -4.79      0.00
   -1   -7   17     -2.06      0.00
    0   -7   17      3.26      0.00
    1   -7   17      0.63      0.00
    2   -7   17     -2.20      0.00
    3   -7   17      0.12      0.00
    4   -7   17      1.44      0.00
    5   -7   17      0.95      0.00
    6   -7   17     -2.05      0.00
    7   -7   17      1.96      0.00
   -1   -6   17      0.86      0.00
    0   -6   17      1.49      0.00
    1   -6   17     -3.93      0.00
    2   -6   17     -0.14      0.00
    3   -6   17     -1.52      0.00
    4   -6   17      0.81      0.00
    5   -6   17     -4.35      0.00
    6   -6   17     -0.90      0.00
    7   -6   17      3.85      0.00
    8   -6   17      0.20      0.00
    9   -6   17      0.74      0.00
   -2   -5   17     -0.06      0.00
   -1   -5   17     -1.55      0.00
    0   -5   17     -2.30      0.00
    1   -5   17     -0.48      0.00
    2   -5   17     -0.55      0.00
    3   -5   17     -0.31      0.00
    4   -5   17      1.04      0.00
    5   -5   17      0.51      0.00
    6   -5   17     -0.71      0.00
    7   -5   17      0.06      0.00
    8   -5   17      1.16      0.00
    9   -5   17      1.41      0.00
   -2   -4   17     -2.16      0.00
   -1   -4   17     -0.17      0.00
    0   -4   17     -0.18      0.00
    1   -4   17      0.09      0.00
    2   -4   17      1.04      0.00
    3   -4   17      0.22      0.00
    4   -4   17      2.11      0.00
    5   -4   17      0.04      0.00
    6   -4   17      0.04      0.00
    7   -4   17     -3.08      0.00
    8   -4   17     -1.77      0.00
    9   -4   17     -0.79      0.00
   10   -4   17     -1.90      0.00
   -3   -3   17     -3.87      0.00
   -2   -3   17     -0.63      0.00
   -1   -3   17      2.40      0.00
    0   -3   17     -0.56      0.00
    1   -3   17      0.38      0.00
    2   -3   17     -0.44      0.00
    3   -3   17      0.89      0.00
    4   -3   17      3.72      0.00
    5   -3   17      0.88      0.00
    6   -3   17      0.74      0.00
    7   -3   17      0.24      0.00
    8   -3   17      0.93      0.00
    9   -3   17      1.05      0.00
   10   -3   17     -3.39      0.00
   -3   -2   17     -4.48      0.00
   -2   -2   17     -1.53      0.00
   -1   -2   17      0.51      0.00
    0   -2   17     -1.01      0.00
    1   -2   17     -0.18      0.00
    2   -2   17      1.00      0.00
    3   -2   17     -1.08      0.00
    4   -2   17      1.04      0.00
    5   -2   17      0.62      0.00
    6   -2   17     -0.23      0.00
    7   -2   17     -0.74      0.00
    8   -2   17      0.00      0.00
    9   -2   17     -0.66      0.00
   10   -2   17     -0.47      0.00
   -3   -1   17     -4.94      0.00
   -2   -1   17      2.12      0.00
   -1   -1   17      0.44      0.00
    0   -1   17      0.02      0.00
    1   -1   17      0.64      0.00
    2   -1   17      0.55      0.00
    3   -1   17      0.68      0.00
    4   -1   17      1.97      0.00
    5   -1   17      0.76      0.00
    6   -1   17      1.08      0.00
    7   -1   17     -1.00      0.00
    8   -1   17     -0.03      0.00
    9   -1   17     -0.14      0.00
   10   -1   17      0.24      0.00
   11   -1   17      5.18      0.00
   -4    0   17     -2.29      0.00
   -3    0   17     -0.07      0.00
   -2    0   17     -1.66      0.00
   -1    0   17     -0.87      0.00
    0    0   17     -2.04      0.00
    1    0   17      2.92      0.00
    2    0   17      0.78      0.00
    3    0   17     -0.54      0.00
    4    0   17      1.91      0.00
    5    0   17      0.35      0.00
    6    0   17      1.36      0.00
    7    0   17     -0.06      0.00
    8    0   17     -0.96      0.00
    9    0   17     -0.31      0.00
   10    0   17      1.65      0.00
   11    0   17      0.50      0.00
   -4    1   17     -3.23      0.00
   -3    1   17     -0.07      0.00
   -2    1   17      2.08      0.00
   -1    1   17      1.38      0.00
    0    1   17      2.06      0.00
    1    1   17     -0.81      0.00
    2    1   17     -1.00      0.00
    3    1   17      3.39      0.00
    4    1   17      1.46      0.00
    5    1   17      1.50      0.00
    6    1   17      0.64      0.00
    7    1   17      0.53      0.00
    8    1   17     -0.03      0.00
    9    1   17      1.25      0.00
   10    1   17     -0.67      0.00
   11    1   17      0.38      0.00
   12    1   17     -0.62      0.00
   -4    2   17      1.84      0.00
   -3    2   17      1.27      0.00
   -2    2   17     -0.86      0.00
   -1    2   17     -2.40      0.00
    0    2   17      0.96      0.00
    1    2   17      1.34      0.00
    2    2   17     -1.26      0.00
    3    2   17     -2.22      0.00
    4    2   17      3.06      0.00
    5    2   17     -0.46      0.00
    6    2   17      2.43      0.00
    7    2   17      0.79      0.00
    8    2   17      1.30      0.00
    9    2   17     -0.96      0.00
   10    2   17     -0.40      0.00
   11    2   17     -0.45      0.00
   12    2   17     -0.43      0.00
   -4    3   17      1.91      0.00
   -3    3   17      0.06      0.00
   -2    3   17      0.38      0.00
   -1    3   17      3.18      0.00
    0    3   17     -0.12      0.00
    1    3   17     -1.42      0.00
    2    3   17     -2.11      0.00
    3    3   17      0.40      0.00
    4    3   17      2.97      0.00
    5    3   17      1.51      0.00
    6    3   17     -1.65      0.00
    7    3   17      0.60      0.00
    8    3   17      0.99      0.00
    9    3   17      0.97      0.00
   10    3   17     -0.69      0.00
   11    3   17      0.24      0.00
   12    3   17      0.09      0.00
   13    3   17      3.26      0.00
   -4    4   17      0.82      0.00
   -3    4   17     -0.45      0.00
   -2    4   17      1.20      0.00
   -1    4   17     -4.37      0.00
    0    4   17      3.21      0.00
    1    4   17     -3.05      0.00
    2    4   17     -0.50      0.00
    3    4   17     -1.09      0.00
    4    4   17     -0.10      0.00
    5    4   17      1.74      0.00
    6    4   17     -1.72      0.00
    7    4   17      0.62      0.00
    8    4   17      1.56      0.00
    9    4   17      1.05      0.00
   10    4   17     -1.12      0.00
   11    4   17     -0.23      0.00
   12    4   17     -1.78      0.00
   13    4   17      1.98      0.00
   14    4   17      0.31      0.00
   -5    5   17      3.75      0.00
   -4    5   17     -1.29      0.00
   -3    5   17      0.72      0.00
   -2    5   17     -0.87      0.00
   -1    5   17      2.32      0.00
    0    5   17      0.46      0.00
    1    5   17      0.71      0.00
    2    5   17     -2.18      0.00
    3    5   17      1.37      0.00
    4    5   17      2.52      0.00
    5    5   17      0.53      0.00
    6    5   17     -0.64      0.00
    7    5   17      0.97      0.00
    8    5   17      1.81      0.00
    9    5   17      0.72      0.00
   10    5   17     -0.72      0.00
   11    5   17      0.56      0.00
   12    5   17      0.85      0.00
   13    5   17      1.33      0.00
   -5    6   17      3.51      0.00
   -4    6   17     -1.74      0.00
   -3    6   17      0.99      0.00
   -2    6   17      2.01      0.00
   -1    6   17     -0.63      0.00
    0    6   17      0.45      0.00
    1    6   17     -1.38      0.00
    2    6   17     -0.09      0.00
    3    6   17     -1.64      0.00
    4    6   17      2.81      0.00
    5    6   17      1.73      0.00
    6    6   17     -4.18      0.00
    7    6   17      1.88      0.00
    8    6   17      0.74      0.00
    9    6   17      0.58      0.00
   10    6   17      1.84      0.00
   11    6   17     -1.54      0.00
   12    6   17     -5.57      0.00
   -5    7   17      2.17      0.00
   -4    7   17     -2.10      0.00
   -3    7   17      0.88      0.00
   -2    7   17     -1.17      0.00
   -1    7   17     -1.43      0.00
    0    7   17     -0.82      0.00
    1    7   17     -0.18      0.00
    2    7   17     -1.01      0.00
    3    7   17      0.41      0.00
    4    7   17     -0.78      0.00
    5    7   17      0.15      0.00
    6    7   17     -2.45      0.00
    7    7   17      0.04      0.00
    8    7   17      0.71      0.00
    9    7   17      0.37      0.00
   10    7   17      1.29      0.00
   11    7   17     -0.35      0.00
   -5    8   17      2.18      0.00
   -4    8   17     -2.19      0.00
   -3    8   17      0.34      0.00
   -2    8   17     -0.20      0.00
   -1    8   17     -0.48      0.00
    0    8   17      0.58      0.00
    1    8   17     -1.88      0.00
    2    8   17     -3.16      0.00
    3    8   17      0.12      0.00
    4    8   17      1.16      0.00
    5    8   17      0.58      0.00
    6    8   17     -4.96      0.00
    7    8   17      0.52      0.00
    8    8   17     -1.76      0.00
    9    8   17      0.61      0.00
   10    8   17      1.58      0.00
   11    8   17     -4.30      0.00
   -4    9   17     -2.15      0.00
   -3    9   17      1.26      0.00
   -2    9   17     -1.23      0.00
   -1    9   17     -3.43      0.00
    0    9   17      0.21      0.00
    1    9   17      0.27      0.00
    2    9   17     -1.16      0.00
    3    9   17     -0.60      0.00
    4    9   17      0.74      0.00
    5    9   17     -2.74      0.00
    6    9   17      0.10      0.00
    7    9   17     -1.00      0.00
    8    9   17     -2.26      0.00
    9    9   17     -0.15      0.00
   10    9   17     -1.00      0.00
   11    9   17     -5.70      0.00
   -4   10   17      0.11      0.00
   -3   10   17      0.92      0.00
   -2   10   17     -2.62      0.00
   -1   10   17      0.20      0.00
    0   10   17      0.56      0.00
    1   10   17     -2.82      0.00
    2   10   17     -2.90      0.00
    3   10   17     -2.74      0.00
    4   10   17      0.13      0.00
    5   10   17     -2.80      0.00
    6   10   17     -4.22      0.00
    7   10   17     -0.08      0.00
    8   10   17     -0.45      0.00
    9   10   17      3.10      0.00
   10   10   17      0.34      0.00
   11   10   17     -5.58      0.00
   -3   11   17     -0.60      0.00
   -2   11   17     -1.53      0.00
   -1   11   17     -2.63      0.00
    0   11   17      1.55      0.00
    1   11   17     -2.03      0.00
    2   11   17     -2.81      0.00
    3   11   17     -0.03      0.00
    4   11   17     -2.01      0.00
    5   11   17     -2.42      0.00
    6   11   17      1.37      0.00
    7   11   17     -1.98      0.00
    8   11   17     -1.62      0.00
    9   11   17      0.45      0.00
   10   11   17     -1.93      0.00
   -2   12   17      0.84      0.00
   -1   12   17     -0.56      0.00
    0   12   17      1.65      0.00
    1   12   17     -3.00      0.00
    2   12   17      1.32      0.00
    3   12   17      1.59      0.00
    4   12   17      0.53      0.00
    5   12   17     -1.41      0.00
    6   12   17     -1.78      0.00
    7   12   17     -1.44      0.00
    8   12   17      2.60      0.00
    9   12   17      0.38      0.00
   10   12   17     -1.52      0.00
   -1   13   17      3.19      0.00
    0   13   17     -2.26      0.00
    1   13   17     -5.57      0.00
    2   13   17     -1.66      0.00
    3   13   17      2.76      0.00
    4   13   17     -0.38      0.00
    5   13   17      0.33      0.00
    6   13   17      3.17      0.00
    7   13   17      0.53      0.00
    8   13   17      0.69      0.00
    9   13   17      1.63      0.00
   10   13   17     -1.96      0.00
   11   13   17      1.51      0.00
    0   14   17     -2.78      0.00
    1   14   17     -2.32      0.00
    2   14   17      5.86      0.00
    3   14   17      0.00      0.00
    4   14   17     -0.49      0.00
    5   14   17      2.34      0.00
    0   15   17     -0.58      0.00
    1   15   17     -1.78      0.00
    2   15   17      1.05      0.00
    3   15   17     -2.62      0.00
    4   15   17     -1.12      0.00
    2   16   17     -0.14      0.00
    3   -8   18      0.78      0.00
    2   -7   18      1.99      0.00
    3   -7   18      1.14      0.00
    4   -7   18      0.01      0.00
    1   -6   18      0.50      0.00
    2   -6   18      0.93      0.00
    3   -6   18     -1.22      0.00
    4   -6   18     -1.31      0.00
    5   -6   18     -0.22      0.00
    0   -5   18      0.34      0.00
    1   -5   18      0.73      0.00
    2   -5   18     -1.82      0.00
    3   -5   18     -0.98      0.00
    4   -5   18      0.26      0.00
    5   -5   18      0.17      0.00
    6   -5   18     -0.51      0.00
    9   -5   18      2.23      0.00
    0   -4   18     -0.10      0.00
    1   -4   18     -0.80      0.00
    2   -4   18      0.45      0.00
    3   -4   18      0.27      0.00
    4   -4   18     -4.42      0.00
    5   -4   18     -1.99      0.00
    6   -4   18      1.00      0.00
    7   -4   18     -1.25      0.00
    8   -4   18     -0.66      0.00
    9   -4   18     -0.08      0.00
   -1   -3   18     -1.50      0.00
    0   -3   18     -4.08      0.00
    1   -3   18      0.44      0.00
    2   -3   18     -1.35      0.00
    3   -3   18      0.63      0.00
    4   -3   18     -2.11      0.00
    5   -3   18     -1.60      0.00
    6   -3   18      1.45      0.00
    7   -3   18      2.60      0.00
    8   -3   18     -0.13      0.00
    9   -3   18      2.65      0.00
   10   -3   18     -0.82      0.00
   -1   -2   18     -5.48      0.00
    0   -2   18     -0.65      0.00
    1   -2   18     -0.71      0.00
    2   -2   18     -0.51      0.00
    3   -2   18     -1.42      0.00
    4   -2   18     -3.83      0.00
    5   -2   18     -1.63      0.00
    6   -2   18     -1.37      0.00
    7   -2   18      1.01      0.00
    8   -2   18      0.00      0.00
    9   -2   18      1.10      0.00
   10   -2   18      0.11      0.00
   -2   -1   18     -1.30      0.00
   -1   -1   18     -1.92      0.00
    0   -1   18      0.86      0.00
    1   -1   18     -0.69      0.00
    2   -1   18     -2.96      0.00
    3   -1   18      1.07      0.00
    4   -1   18     -2.64      0.00
    5   -1   18      1.38      0.00
    6   -1   18     -0.50      0.00
    7   -1   18     -0.84      0.00
    8   -1   18     -0.36      0.00
    9   -1   18     -1.20      0.00
   10   -1   18     -2.94      0.00
   -2    0   18     -0.89      0.00
   -1    0   18     -1.91      0.00
    0    0   18     -0.96      0.00
    1    0   18     -0.52      0.00
    2    0   18     -1.84      0.00
    3    0   18     -1.98      0.00
    4    0   18     -2.10      0.00
    5    0   18     -0.47      0.00
    6    0   18     -1.44      0.00
    7    0   18      0.15      0.00
    8    0   18     -0.64      0.00
    9    0   18     -0.88      0.00
   10    0   18     -1.06      0.00
   11    0   18      0.34      0.00
   -2    1   18      1.52      0.00
   -1    1   18      1.43      0.00
    0    1   18      0.79      0.00
    1    1   18     -2.51      0.00
    2    1   18     -2.52      0.00
    3    1   18      2.20      0.00
    4    1   18     -4.83      0.00
    5    1   18      3.72      0.00
    6    1   18     -2.57      0.00
    7    1   18     -1.11      0.00
    8    1   18     -1.82      0.00
    9    1   18     -0.21      0.00
   10    1   18     -0.68      0.00
   11    1   18     -0.06      0.00
   -3    2   18      0.39      0.00
   -2    2   18      0.65      0.00
   -1    2   18     -3.23      0.00
    0    2   18     -1.69      0.00
    1    2   18      0.48      0.00
    2    2   18      0.10      0.00
    3    2   18     -1.14      0.00
    4    2   18     -1.34      0.00
    5    2   18     -0.77      0.00
    6    2   18     -2.38      0.00
    7    2   18     -1.65      0.00
    8    2   18     -0.13      0.00
    9    2   18     -0.55      0.00
   10    2   18      0.53      0.00
   11    2   18      1.17      0.00
   12    2   18      0.59      0.00
   -3    3   18     -1.00      0.00
   -2    3   18      1.52      0.00
   -1    3   18      3.23      0.00
    0    3   18     -1.92      0.00
    1    3   18     -0.08      0.00
    2    3   18      0.39      0.00
    3    3   18     -0.65      0.00
    4    3   18     -1.07      0.00
    5    3   18      1.22      0.00
    6    3   18     -2.21      0.00
    7    3   18     -2.36      0.00
    8    3   18     -1.91      0.00
    9    3   18      0.70      0.00
   10    3   18      1.00      0.00
   11    3   18     -1.04      0.00
   12    3   18      2.71      0.00
   -3    4   18     -0.05      0.00
   -2    4   18      2.60      0.00
   -1    4   18     -1.71      0.00
    0    4   18     -0.87      0.00
    1    4   18     -1.02      0.00
    2    4   18      1.87      0.00
    3    4   18     -0.07      0.00
    4    4   18     -2.79      0.00
    5    4   18      1.73      0.00
    6    4   18     -1.62      0.00
    7    4   18     -1.53      0.00
    8    4   18     -0.71      0.00
    9    4   18      1.42      0.00
   10    4   18      0.12      0.00
   11    4   18     -0.39      0.00
   12    4   18     -0.41      0.00
   13    4   18     -2.92      0.00
   -3    5   18      0.14      0.00
   -2    5   18     -0.64      0.00
   -1    5   18      1.25      0.00
    0    5   18     -0.43      0.00
    1    5   18      1.74      0.00
    2    5   18     -1.78      0.00
    3    5   18      1.74      0.00
    4    5   18      0.35      0.00
    5    5   18      2.20      0.00
    6    5   18      2.18      0.00
    7    5   18     -1.87      0.00
    8    5   18     -0.56      0.00
    9    5   18      0.50      0.00
   10    5   18     -1.07      0.00
   11    5   18     -0.13      0.00
   12    5   18      4.26      0.00
   -3    6   18      0.25      0.00
   -2    6   18      1.89      0.00
   -1    6   18      0.86      0.00
    0    6   18      0.63      0.00
    1    6   18      0.00      0.00
    2    6   18      1.35      0.00
    3    6   18     -0.46      0.00
    4    6   18      0.14      0.00
    5    6   18      0.44      0.00
    6    6   18      1.52      0.00
    7    6   18     -0.95      0.00
    8    6   18     -0.23      0.00
    9    6   18      0.39      0.00
   10    6   18     -0.44      0.00
   11    6   18      0.59      0.00
   -3    7   18     -0.98      0.00
   -2    7   18     -2.24      0.00
   -1    7   18      0.06      0.00
    0    7   18      0.06      0.00
    1    7   18      2.62      0.00
    2    7   18      0.60      0.00
    3    7   18     -0.13      0.00
    4    7   18      0.01      0.00
    5    7   18      3.10      0.00
    6    7   18      3.08      0.00
    7    7   18     -0.31      0.00
    8    7   18      1.21      0.00
    9    7   18      0.29      0.00
   10    7   18     -0.28      0.00
   11    7   18      4.86      0.00
   -3    8   18     -1.07      0.00
   -2    8   18      1.80      0.00
   -1    8   18      3.98      0.00
    0    8   18      3.97      0.00
    1    8   18      1.25      0.00
    2    8   18      0.82      0.00
    3    8   18      0.19      0.00
    4    8   18      0.99      0.00
    5    8   18      2.73      0.00
    6    8   18      0.25      0.00
    7    8   18     -0.13      0.00
    8    8   18      0.49      0.00
    9    8   18     -0.25      0.00
   10    8   18      0.00      0.00
   11    8   18      2.09      0.00
   -3    9   18     -0.93      0.00
   -2    9   18      1.70      0.00
   -1    9   18      0.27      0.00
    0    9   18     -0.56      0.00
    1    9   18      2.85      0.00
    2    9   18      2.42      0.00
    3    9   18      3.66      0.00
    4    9   18      2.40      0.00
    5    9   18      0.63      0.00
    6    9   18      6.44      0.00
    7    9   18      0.27      0.00
    8    9   18      1.07      0.00
    9    9   18     -1.56      0.00
   10    9   18     -2.09      0.00
   11    9   18      4.30      0.00
   -3   10   18      0.09      0.00
   -2   10   18      0.62      0.00
   -1   10   18      3.60      0.00
    0   10   18     -0.91      0.00
    1   10   18      0.73      0.00
    2   10   18      1.58      0.00
    3   10   18     -0.87      0.00
    4   10   18      2.54      0.00
    5   10   18      1.00      0.00
    6   10   18     -1.11      0.00
    7   10   18      0.97      0.00
    8   10   18     -0.36      0.00
    9   10   18     -2.09      0.00
   10   10   18      0.30      0.00
   11   10   18      6.22      0.00
   -2   11   18     -0.51      0.00
   -1   11   18     -0.50      0.00
    0   11   18     -2.51      0.00
    1   11   18      0.80      0.00
    2   11   18      0.83      0.00
    3   11   18      0.58      0.00
    4   11   18      0.04      0.00
    5   11   18      0.60      0.00
    6   11   18      2.01      0.00
    7   11   18      0.65      0.00
    8   11   18     -4.62      0.00
    9   11   18     -3.23      0.00
   10   11   18      0.74      0.00
   11   11   18      7.28      0.00
   -1   12   18     -0.30      0.00
    0   12   18      1.02      0.00
    1   12   18      3.58      0.00
    2   12   18      1.40      0.00
    3   12   18      0.68      0.00
    4   12   18      0.88      0.00
    5   12   18     -1.20      0.00
    6   12   18     -0.96      0.00
    7   12   18      0.51      0.00
    8   12   18     -0.70      0.00
    9   12   18     -2.87      0.00
   10   12   18      1.84      0.00
   11   12   18      0.93      0.00
    0   13   18      0.40      0.00
    1   13   18      1.52      0.00
    2   13   18     -4.40      0.00
    3   13   18     -1.16      0.00
    4   13   18     -0.26      0.00
    5   13   18     -1.70      0.00
    6   13   18      2.55      0.00
    7   13   18      0.43      0.00
    8   13   18     -0.90      0.00
    9   13   18      0.55      0.00
   10   13   18     -3.18      0.00
   11   13   18      4.75      0.00
    0   14   18      2.72      0.00
    1   14   18      2.12      0.00
    2   14   18      0.54      0.00
    3   14   18      1.02      0.00
    4   14   18      0.07      0.00
    5   14   18     -1.00      0.00
    6   14   18     -2.10      0.00
    2   15   18     -2.61      0.00
    3   15   18      1.00      0.00
    4   15   18      1.01      0.00
    3   -6   19      1.29      0.00
    4   -6   19     -2.12      0.00
    5   -6   19     -0.90      0.00
    2   -5   19      0.72      0.00
    3   -5   19      0.24      0.00
    4   -5   19      2.53      0.00
    5   -5   19      1.04      0.00
    6   -5   19     -1.46      0.00
    2   -4   19      2.00      0.00
    3   -4   19      1.03      0.00
    4   -4   19      0.40      0.00
    5   -4   19      1.54      0.00
    6   -4   19     -0.43      0.00
    7   -4   19     -2.00      0.00
    1   -3   19      0.80      0.00
    2   -3   19     -1.66      0.00
    3   -3   19      0.97      0.00
    4   -3   19      2.62      0.00
    5   -3   19      1.21      0.00
    6   -3   19      1.35      0.00
    7   -3   19      1.65      0.00
    8   -3   19     -1.30      0.00
    9   -3   19     -1.86      0.00
    0   -2   19      3.40      0.00
    1   -2   19     -2.02      0.00
    2   -2   19      1.06      0.00
    3   -2   19     -1.34      0.00
    4   -2   19      1.99      0.00
    5   -2   19     -1.01      0.00
    6   -2   19     -0.37      0.00
    7   -2   19      0.94      0.00
    8   -2   19     -0.52      0.00
    9   -2   19      0.88      0.00
    0   -1   19     -0.62      0.00
    1   -1   19     -1.46      0.00
    2   -1   19      2.01      0.00
    3   -1   19      0.90      0.00
    4   -1   19      2.12      0.00
    5   -1   19      1.89      0.00
    6   -1   19      1.28      0.00
    7   -1   19     -1.18      0.00
    8   -1   19     -0.03      0.00
    9   -1   19     -1.72      0.00
   10   -1   19      1.50      0.00
    0    0   19     -2.07      0.00
    1    0   19      0.05      0.00
    2    0   19      2.39      0.00
    3    0   19     -0.74      0.00
    4    0   19      3.80      0.00
    5    0   19     -3.54      0.00
    6    0   19      0.24      0.00
    7    0   19      0.38      0.00
    8    0   19      2.24      0.00
    9    0   19      1.22      0.00
   10    0   19      0.95      0.00
   -1    1   19      2.05      0.00
    0    1   19      1.02      0.00
    1    1   19     -0.98      0.00
    2    1   19      1.56      0.00
    3    1   19      2.60      0.00
    4    1   19     -0.25      0.00
    5    1   19      0.77      0.00
    6    1   19      3.89      0.00
    7    1   19      0.82      0.00
    8    1   19      0.04      0.00
    9    1   19      0.48      0.00
   10    1   19     -0.49      0.00
   11    1   19     -5.75      0.00
   -1    2   19      0.06      0.00
    0    2   19     -1.05      0.00
    1    2   19      1.03      0.00
    2    2   19     -0.29      0.00
    3    2   19      0.80      0.00
    4    2   19      2.49      0.00
    5    2   19     -1.60      0.00
    6    2   19      1.38      0.00
    7    2   19      2.04      0.00
    8    2   19      2.45      0.00
    9    2   19     -1.35      0.00
   10    2   19     -1.04      0.00
   11    2   19     -1.00      0.00
   -1    3   19      2.45      0.00
    0    3   19      1.20      0.00
    1    3   19      0.12      0.00
    2    3   19     -0.04      0.00
    3    3   19     -0.43      0.00
    4    3   19      1.90      0.00
    5    3   19     -0.95      0.00
    6    3   19      4.17      0.00
    7    3   19      0.44      0.00
    8    3   19     -0.61      0.00
    9    3   19     -0.95      0.00
   10    3   19      0.19      0.00
   11    3   19     -1.56      0.00
   12    3   19      1.13      0.00
   -1    4   19      0.97      0.00
    0    4   19     -0.34      0.00
    1    4   19     -1.44      0.00
    2    4   19      2.25      0.00
    3    4   19      0.43      0.00
    4    4   19     -0.71      0.00
    5    4   19     -2.20      0.00
    6    4   19      0.69      0.00
    7    4   19      1.13      0.00
    8    4   19      0.17      0.00
    9    4   19     -0.80      0.00
   10    4   19     -0.36      0.00
   11    4   19      0.63      0.00
   12    4   19     -0.40      0.00
   -2    5   19     -3.88      0.00
   -1    5   19      0.38      0.00
    0    5   19     -0.67      0.00
    1    5   19      2.30      0.00
    2    5   19     -0.53      0.00
    3    5   19     -0.63      0.00
    4    5   19     -0.83      0.00
    5    5   19     -0.66      0.00
    6    5   19      0.30      0.00
    7    5   19     -0.87      0.00
    8    5   19     -1.63      0.00
    9    5   19     -1.60      0.00
   10    5   19     -0.60      0.00
   11    5   19     -1.11      0.00
   12    5   19      2.74      0.00
   -2    6   19      0.96      0.00
   -1    6   19      2.31      0.00
    0    6   19     -2.02      0.00
    1    6   19     -2.91      0.00
    2    6   19      1.88      0.00
    3    6   19     -1.58      0.00
    4    6   19     -1.28      0.00
    5    6   19     -6.99      0.00
    6    6   19      0.64      0.00
    7    6   19     -0.55      0.00
    8    6   19     -1.76      0.00
    9    6   19     -0.34      0.00
   10    6   19     -2.21      0.00
   -2    7   19     -1.76      0.00
   -1    7   19     -2.03      0.00
    0    7   19     -7.58      0.00
    1    7   19     -0.53      0.00
    2    7   19     -1.04      0.00
    3    7   19     -1.14      0.00
    4    7   19     -0.98      0.00
    5    7   19     -2.65      0.00
    6    7   19      0.89      0.00
    7    7   19     -0.17      0.00
    8    7   19      1.42      0.00
    9    7   19      0.79      0.00
   10    7   19     -2.52      0.00
   -2    8   19      1.85      0.00
   -1    8   19     -0.07      0.00
    0    8   19     -2.71      0.00
    1    8   19     -1.87      0.00
    2    8   19      1.11      0.00
    3    8   19     -1.12      0.00
    4    8   19     -2.91      0.00
    5    8   19     -2.29      0.00
    6    8   19     -1.93      0.00
    7    8   19      0.79      0.00
    8    8   19     -0.44      0.00
    9    8   19     -1.02      0.00
   10    8   19     -3.45      0.00
   -2    9   19     -0.37      0.00
   -1    9   19     -3.98      0.00
    0    9   19     -2.65      0.00
    1    9   19      0.14      0.00
    2    9   19      1.06      0.00
    3    9   19      2.02      0.00
    4    9   19     -1.13      0.00
    5    9   19     -0.62      0.00
    6    9   19      4.95      0.00
    7    9   19      0.57      0.00
    8    9   19      4.14      0.00
    9    9   19      1.04      0.00
   10    9   19     -3.14      0.00
   -2   10   19     -0.39      0.00
   -1   10   19      0.85      0.00
    0   10   19      0.64      0.00
    1   10   19      1.00      0.00
    2   10   19     -0.59      0.00
    3   10   19     -2.05      0.00
    4   10   19     -0.80      0.00
    5   10   19      0.20      0.00
    6   10   19     -2.22      0.00
    7   10   19      1.41      0.00
    8   10   19      2.86      0.00
    9   10   19     -0.51      0.00
   10   10   19     -1.69      0.00
   -1   11   19     -0.78      0.00
    0   11   19     -0.45      0.00
    1   11   19     -1.25      0.00
    2   11   19      2.96      0.00
    3   11   19      0.23      0.00
    4   11   19     -1.01      0.00
    5   11   19      1.02      0.00
    6   11   19      0.62      0.00
    7   11   19      1.66      0.00
    8   11   19     -0.34      0.00
    9   11   19     -0.80      0.00
   10   11   19     -2.78      0.00
    0   12   19      1.78      0.00
    1   12   19      1.59      0.00
    2   12   19      3.29      0.00
    3   12   19      2.67      0.00
    4   12   19     -0.66      0.00
    5   12   19      2.91      0.00
    6   12   19     -1.77      0.00
    7   12   19      0.14      0.00
    8   12   19      2.01      0.00
    9   12   19     -3.22      0.00
   10   12   19      0.40      0.00
    1   13   19      0.04      0.00
    2   13   19      0.12      0.00
    3   13   19     -0.71      0.00
    4   13   19      0.23      0.00
    5   13   19      1.66      0.00
    6   13   19     -0.69      0.00
    7   13   19     -2.21      0.00
    8   13   19      1.19      0.00
    9   13   19      0.69      0.00
   10   13   19     -1.06      0.00
   11   13   19      1.74      0.00
    5   -4   20      1.16      0.00
    6   -4   20      0.21      0.00
    4   -3   20      0.70      0.00
    5   -3   20      0.39      0.00
    6   -3   20      0.36      0.00
    7   -3   20     -0.07      0.00
    3   -2   20     -0.05      0.00
    4   -2   20      1.44      0.00
    5   -2   20     -2.27      0.00
    6   -2   20     -1.85      0.00
    7   -2   20     -0.03      0.00
    8   -2   20      1.32      0.00
    9   -2   20      4.44      0.00
    2   -1   20      1.34      0.00
    3   -1   20     -0.06      0.00
    4   -1   20      0.19      0.00
    5   -1   20      1.90      0.00
    6   -1   20      0.87      0.00
    7   -1   20     -0.12      0.00
    8   -1   20     -1.13      0.00
    9   -1   20     -0.29      0.00
    2    0   20     -1.16      0.00
    3    0   20     -2.89      0.00
    4    0   20      1.61      0.00
    5    0   20     -1.01      0.00
    6    0   20     -1.78      0.00
    7    0   20     -1.32      0.00
    8    0   20      0.75      0.00
    9    0   20      1.75      0.00
   10    0   20     -0.17      0.00
    1    1   20      1.31      0.00
    2    1   20      0.19      0.00
    3    1   20     -0.44      0.00
    4    1   20     -0.85      0.00
    5    1   20      0.84      0.00
    6    1   20      4.07      0.00
    7    1   20     -1.73      0.00
    8    1   20     -2.42      0.00
    9    1   20      2.31      0.00
   10    1   20      0.07      0.00
    1    2   20      2.82      0.00
    2    2   20     -1.55      0.00
    3    2   20     -0.57      0.00
    4    2   20      1.35      0.00
    5    2   20     -1.02      0.00
    6    2   20     -4.01      0.00
    7    2   20     -0.02      0.00
    8    2   20      1.18      0.00
    9    2   20     -0.34      0.00
   10    2   20     -0.46      0.00
    1    3   20      1.89      0.00
    2    3   20      0.20      0.00
    3    3   20     -0.84      0.00
    4    3   20      1.22      0.00
    5    3   20     -1.40      0.00
    6    3   20      2.44      0.00
    7    3   20      0.34      0.00
    8    3   20     -0.63      0.00
    9    3   20      0.70      0.00
   10    3   20      1.37      0.00
   11    3   20      0.93      0.00
    1    4   20     -1.19      0.00
    2    4   20      0.55      0.00
    3    4   20      0.30      0.00
    4    4   20      1.06      0.00
    5    4   20     -1.53      0.00
    6    4   20      1.11      0.00
    7    4   20      2.25      0.00
    8    4   20      1.52      0.00
    9    4   20      0.60      0.00
   10    4   20      0.18      0.00
   11    4   20      1.24      0.00
    0    5   20      3.06      0.00
    1    5   20      4.01      0.00
    2    5   20     -2.24      0.00
    3    5   20      1.48      0.00
    4    5   20      0.90      0.00
    5    5   20      4.89      0.00
    6    5   20     -0.68      0.00
    7    5   20      1.19      0.00
    8    5   20      0.40      0.00
    9    5   20     -0.47      0.00
   10    5   20      2.24      0.00
   11    5   20      0.48      0.00
    0    6   20      7.19      0.00
    1    6   20     -2.92      0.00
    2    6   20      0.51      0.00
    3    6   20      2.28      0.00
    4    6   20      0.75      0.00
    5    6   20     -0.42      0.00
    6    6   20      0.33      0.00
    7    6   20      3.50      0.00
    8    6   20     -0.93      0.00
    9    6   20     -0.20      0.00
   10    6   20      1.32      0.00
    0    7   20      3.85      0.00
    1    7   20      1.53      0.00
    2    7   20     -2.41      0.00
    3    7   20      1.11      0.00
    4    7   20      1.32      0.00
    5    7   20      4.38      0.00
    6    7   20     -2.17      0.00
    7    7   20     -0.21      0.00
    8    7   20      0.97      0.00
    9    7   20      0.85      0.00
   10    7   20      5.27      0.00
    0    8   20      6.33      0.00
    1    8   20     -1.36      0.00
    2    8   20     -0.95      0.00
    3    8   20      0.99      0.00
    4    8   20     -0.04      0.00
    5    8   20      1.29      0.00
    6    8   20     -7.30      0.00
    7    8   20      2.48      0.00
    8    8   20     -4.88      0.00
    9    8   20     -1.83      0.00
    0    9   20      2.55      0.00
    1    9   20     -3.32      0.00
    2    9   20      0.34      0.00
    3    9   20      2.55      0.00
    4    9   20     -0.48      0.00
    5    9   20      0.46      0.00
    6    9   20      0.22      0.00
    7    9   20      0.22      0.00
    8    9   20     -0.41      0.00
    9    9   20      3.53      0.00
    0   10   20     -1.02      0.00
    1   10   20     -1.62      0.00
    2   10   20     -3.04      0.00
    3   10   20     -2.41      0.00
    4   10   20     -2.40      0.00
    5   10   20     -0.46      0.00
    6   10   20     -2.47      0.00
    7   10   20      0.02      0.00
    8   10   20     -1.95      0.00
    9   10   20      1.26      0.00
    0   11   20     -2.20      0.00
    1   11   20     -3.17      0.00
    2   11   20     -0.06      0.00
    3   11   20     -3.52      0.00
    4   11   20      0.22      0.00
    5   11   20     -0.85      0.00
    6   11   20      0.48      0.00
    7   11   20      0.29      0.00
    8   11   20     -2.27      0.00
    9   11   20      5.86      0.00
    3   12   20     -0.25      0.00
    4   12   20     -0.50      0.00
    5   12   20      0.58      0.00
    6   12   20      1.72      0.00
    7   12   20      1.60      0.00
    8   12   20      3.58      0.00
    9   12   20      3.52      0.00
    8   13   20      3.81      0.00
    9   13   20      3.34      0.00
    9    0   21     -2.78      0.00
    6    1   21      3.50      0.00
    7    1   21      2.01      0.00
    8    1   21     -1.43      0.00
    9    1   21     -0.38      0.00
    5    2   21      1.25      0.00
    6    2   21     -5.70      0.00
    7    2   21      0.80      0.00
    8    2   21      0.13      0.00
    9    2   21     -1.41      0.00
    4    3   21     -1.17      0.00
    5    3   21      1.61      0.00
    6    3   21     -0.58      0.00
    7    3   21     -0.22      0.00
    8    3   21     -0.94      0.00
    9    3   21      1.85      0.00
    4    4   21     -0.01      0.00
    5    4   21     -1.44      0.00
    6    4   21     -1.89      0.00
    7    4   21     -1.87      0.00
    8    4   21      1.89      0.00
    9    4   21      1.70      0.00
   10    4   21     -1.87      0.00
    3    5   21      0.61      0.00
    4    5   21      0.19      0.00
    5    5   21      2.88      0.00
    6    5   21     -3.02      0.00
    8    5   21      1.57      0.00
    9    5   21     -0.09      0.00
   10    5   21     -0.09      0.00
    3    6   21      0.71      0.00
    4    6   21     -0.41      0.00
    5    6   21     -3.31      0.00
    6    6   21      1.71      0.00
    8    6   21      0.17      0.00
    9    6   21      0.13      0.00
    2    7   21      0.05      0.00
    3    7   21     -1.04      0.00
    4    7   21     -0.63      0.00
    5    7   21      0.27      0.00
    6    7   21      3.91      0.00
    7    7   21     -6.08      0.00
    2    8   21     -0.44      0.00
    3    8   21     -1.09      0.00
    4    8   21      0.55      0.00
    5    8   21     -0.23      0.00
    6    8   21      0.28      0.00
    7    8   21     -2.72      0.00
    2    9   21      0.39      0.00
    3    9   21      0.75      0.00
    4    9   21      2.33      0.00
    5    9   21      0.90      0.00
    6    9   21      3.05      0.00
    7    9   21     -6.12      0.00
    2   10   21     -3.61      0.00
    3   10   21      1.30      0.00
    4   10   21      1.81      0.00
    5   10   21     -1.26      0.00
    6   10   21     -2.37      0.00
    7   10   21     -5.12      0.00
    8   10   21      2.68      0.00
    2   11   21      1.77      0.00
    3   11   21      2.40      0.00
    4   11   21      2.77      0.00
    5   11   21     -2.88      0.00
    6   11   21     -3.87      0.00
    7   11   21     -3.06      0.00
    8   11   21     -0.99      0.00
    4   12   21      0.31      0.00
    5   12   21     -2.07      0.00
    6   12   21     -1.95      0.00
    7   12   21     -0.52      0.00
    8   12   21      0.57      0.00
    9    3   22     -0.09      0.00
    8    4   22     -1.71      0.00
    9    4   22     -1.44      0.00
    8    5   22     -2.01      0.00
    9    5   22     -1.84      0.00
    8    6   22     -0.98      0.00
    1    0    0     17.88      0.00
   -1    1    0     51.68      0.00
    0    1    0     45.86      0.00
    1    1    0     -8.89      0.00
   15    1    0     -0.50      0.00
    0    2    0     94.34      0.00
    1    2    0    -12.06      0.00
   15    2    0     -0.11      0.00
   14    3    0     -4.63      0.00
   15    3    0     -2.17      0.00
  -14    4    0     -0.19      0.00
   14    4    0     -3.29      0.00
   15    4    0     -2.18      0.00
   14    5    0     -2.39      0.00
   15    5    0      0.98      0.00
  -13    6    0      0.57      0.00
   14    6    0     -2.04      0.00
   15    6    0      1.38      0.00
  -13    7    0      1.27      0.00
   14    7    0      0.48      0.00
   14    8    0     -1.45      0.00
   14    9    0     -0.34      0.00
  -11   10    0     -1.32      0.00
   14   10    0     -0.18      0.00
  -11   11    0     -0.59      0.00
  -10   11    0     -2.73      0.00
  -10   12    0     -2.58      0.00
   -9   13    0      2.01      0.00
   12   13    0      5.76      0.00
   13   13    0      2.33      0.00
   -8   14    0      1.68      0.00
   11   14    0      1.57      0.00
   12   14    0     -0.78      0.00
   -8   15    0      1.40      0.00
   10   15    0      1.64      0.00
   11   15    0      1.39      0.00
    9   16    0     -0.56      0.00
   10   16    0     -2.78      0.00
   11   16    0      1.55      0.00
   -5   17    0     -0.07      0.00
   -4   17    0      2.85      0.00
   -3   17    0      0.97      0.00
    7   17    0     -0.09      0.00
    8   17    0     -1.00      0.00
    9   17    0      1.65      0.00
   10   17    0     -0.40      0.00
   -4   18    0      1.47      0.00
   -3   18    0     -1.26      0.00
   -2   18    0      0.63      0.00
   -1   18    0      0.28      0.00
    0   18    0     -0.14      0.00
    4   18    0      3.96      0.00
    5   18    0     -0.41      0.00
    6   18    0     -1.46      0.00
    7   18    0      4.28      0.00
    8   18    0     -0.63      0.00
   -2   19    0     -1.42      0.00
   -1   19    0     -0.37      0.00
    0   19    0     -0.52      0.00
    1   19    0      1.01      0.00
    2   19    0     -1.11      0.00
    3   19    0      1.61      0.00
    4   19    0     -1.31      0.00
    5   19    0      0.33      0.00
    6   19    0     -1.66      0.00
    7   19    0     -0.05      0.00
    2   20    0      0.71      0.00
    3   20    0     -0.57      0.00
   -6  -19    1      1.27      0.00
   -5  -19    1      0.80      0.00
   -4  -19    1     -2.10      0.00
   -3  -19    1      2.72      0.00
   -2  -19    1     -1.98      0.00
   -1  -19    1      1.21      0.00
    0  -19    1      0.46      0.00
    1  -19    1      0.36      0.00
   -8  -18    1     -0.38      0.00
   -7  -18    1      0.71      0.00
   -6  -18    1      0.84      0.00
   -5  -18    1      3.57      0.00
   -4  -18    1      3.82      0.00
   -3  -18    1      1.07      0.00
   -1  -18    1     -0.43      0.00
    0  -18    1     -0.41      0.00
    1  -18    1     -0.04      0.00
    2  -18    1      2.65      0.00
    3  -18    1     -1.07      0.00
    4  -18    1     -2.52      0.00
   -9  -17    1      2.34      0.00
   -8  -17    1     -1.26      0.00
   -7  -17    1     -4.30      0.00
    3  -17    1     -0.46      0.00
    4  -17    1     -1.28      0.00
    5  -17    1      0.19      0.00
  -10  -16    1     -0.63      0.00
   -9  -16    1      0.24      0.00
   -8  -16    1     -4.87      0.00
  -11  -15    1      0.69      0.00
  -10  -15    1      5.20      0.00
   -9  -15    1      0.22      0.00
  -12  -14    1     -3.56      0.00
  -11  -14    1     -0.58      0.00
  -10  -14    1      0.30      0.00
    8  -14    1      0.16      0.00
  -12  -13    1      2.93      0.00
  -11  -13    1      0.07      0.00
    9  -13    1      2.32      0.00
   10  -12    1      1.77      0.00
   10  -11    1      1.72      0.00
   11  -11    1      1.06      0.00
   11  -10    1     -0.95      0.00
  -14   -9    1      1.50      0.00
  -14   -8    1      0.80      0.00
  -14   -7    1      1.44      0.00
   13   -7    1      0.82      0.00
  -14   -6    1     -0.17      0.00
   13   -6    1      0.23      0.00
  -14   -5    1      2.47      0.00
   14   -5    1     -0.65      0.00
  -14   -4    1      2.49      0.00
   14   -4    1      1.16      0.00
  -14   -3    1      0.65      0.00
  -14   -2    1      1.47      0.00
  -14   -1    1      1.48      0.00
   -1   -1    1     15.16      0.00
    0   -1    1   -172.04      0.00
    1   -1    1    -28.88      0.00
   15   -1    1     -0.58      0.00
   -1    0    1    -46.41      0.00
    0    0    1      9.12      0.00
    1    0    1     -1.15      0.00
   15    0    1     -0.43      0.00
   -1    1    1    -43.29      0.00
    0    1    1   -133.94      0.00
    1    1    1     -0.08      0.00
    0    2    1    -28.18      0.00
    1    2    1     60.40      0.00
   15    2    1      1.33      0.00
  -14    3    1      0.34      0.00
    1    3    1     -2.17      0.00
   15    3    1      2.83      0.00
   15    4    1      0.69      0.00
   15    5    1      0.11      0.00
  -13    6    1     -1.23      0.00
   14    6    1     -1.60      0.00
   15    6    1      0.02      0.00
   14    7    1     -0.20      0.00
   15    7    1     -0.55      0.00
   14    8    1     -1.01      0.00
   15    8    1      0.47      0.00
  -12    9    1      3.00      0.00
   14    9    1      0.48      0.00
  -11   10    1      0.11      0.00
   14   10    1     -0.63      0.00
  -11   11    1     -0.05      0.00
  -10   11    1     -0.24      0.00
   14   11    1     -0.45      0.00
  -10   12    1      0.95      0.00
   -9   13    1      1.18      0.00
   12   13    1      1.07      0.00
   13   13    1      0.23      0.00
   -8   14    1     -3.14      0.00
   11   14    1     -0.91      0.00
   12   14    1     -3.61      0.00
   11   15    1     -1.62      0.00
   12   15    1     -0.33      0.00
    9   16    1     -3.75      0.00
   10   16    1     -0.92      0.00
   11   16    1      0.91      0.00
   -5   17    1      0.75      0.00
   -4   17    1      0.02      0.00
   -3   17    1      0.51      0.00
    8   17    1      0.08      0.00
    9   17    1     -0.43      0.00
   10   17    1      0.70      0.00
   -4   18    1     -1.23      0.00
   -3   18    1     -0.59      0.00
   -2   18    1     -0.16      0.00
   -1   18    1     -1.48      0.00
    0   18    1     -1.33      0.00
    5   18    1     -0.75      0.00
    6   18    1      1.08      0.00
    7   18    1      3.42      0.00
    8   18    1      2.04      0.00
    9   18    1     -1.04      0.00
   -2   19    1      0.75      0.00
   -1   19    1     -3.74      0.00
    0   19    1     -0.75      0.00
    1   19    1     -3.37      0.00
    2   19    1     -0.53      0.00
    3   19    1      0.49      0.00
    4   19    1     -4.87      0.00
    5   19    1      0.39      0.00
    6   19    1     -0.86      0.00
    7   19    1      0.29      0.00
    1   20    1      1.57      0.00
    2   20    1      0.90      0.00
    3   20    1     -0.79      0.00
    4   20    1     -1.80      0.00
    5   20    1      0.40      0.00
   -5  -19    2     -1.66      0.00
   -4  -19    2     -2.02      0.00
   -3  -19    2     -0.77      0.00
   -2  -19    2     -2.14      0.00
   -1  -19    2      0.57      0.00
    0  -19    2      1.54      0.00
    1  -19    2      0.17      0.00
   -7  -18    2      2.29      0.00
   -6  -18    2     -1.01      0.00
   -5  -18    2      0.04      0.00
   -4  -18    2      2.47      0.00
   -3  -18    2     -0.85      0.00
   -2  -18    2     -1.36      0.00
   -1  -18    2     -1.36      0.00
    0  -18    2     -1.81      0.00
    1  -18    2      1.20      0.00
    2  -18    2      1.04      0.00
    3  -18    2     -0.31      0.00
   -9  -17    2      0.11      0.00
   -8  -17    2      2.57      0.00
   -7  -17    2      2.27      0.00
   -6  -17    2     -2.04      0.00
    3  -17    2     -0.16      0.00
    4  -17    2      2.27      0.00
    5  -17    2      0.38      0.00
  -10  -16    2     -2.46      0.00
   -9  -16    2     -1.07      0.00
   -8  -16    2      1.85      0.00
  -10  -15    2      1.68      0.00
   -9  -15    2      2.79      0.00
  -11  -14    2     -2.24      0.00
  -10  -14    2      0.11      0.00
    8  -14    2      0.64      0.00
  -12  -13    2      3.40      0.00
  -11  -13    2      1.66      0.00
    9  -13    2      1.22      0.00
   10  -12    2     -0.21      0.00
  -13  -11    2     -0.29      0.00
   10  -11    2      0.82      0.00
   11  -11    2      1.23      0.00
  -13  -10    2     -1.03      0.00
   11  -10    2     -2.33      0.00
  -13   -9    2     -1.45      0.00
  -14   -8    2     -0.94      0.00
  -14   -7    2      1.10      0.00
   13   -7    2     -0.48      0.00
  -14   -6    2     -0.33      0.00
  -14   -5    2      0.79      0.00
   14   -5    2     -0.57      0.00
  -14   -4    2      0.18      0.00
  -14   -3    2      1.73      0.00
  -14   -2    2      1.03      0.00
  -14   -1    2     -0.96      0.00
    0   -1    2    -72.38      0.00
   15   -1    2     -0.33      0.00
  -14    0    2     -0.45      0.00
    0    0    2     60.57      0.00
    1    0    2     13.10      0.00
   15    0    2      0.80      0.00
  -14    1    2     -2.51      0.00
    0    1    2    -49.27      0.00
    1    1    2    -39.89      0.00
  -14    2    2      0.11      0.00
    1    2    2     30.17      0.00
  -14    3    2     -0.22      0.00
   15    5    2     -0.50      0.00
  -13    6    2     -1.16      0.00
   15    6    2     -0.29      0.00
   15    7    2     -2.80      0.00
  -12    8    2     -2.91      0.00
   15    8    2     -0.91      0.00
   15    9    2     -2.02      0.00
  -11   10    2     -0.77      0.00
   14   10    2     -0.69      0.00
  -10   11    2      1.65      0.00
   14   11    2     -0.25      0.00
  -10   12    2      1.91      0.00
   -9   12    2     -1.97      0.00
   14   12    2      0.00      0.00
   -9   13    2      2.09      0.00
   13   13    2     -0.49      0.00
   -8   14    2      0.54      0.00
   12   14    2      1.74      0.00
   13   14    2     -2.27      0.00
   11   15    2     -1.43      0.00
   12   15    2      0.61      0.00
   10   16    2     -1.17      0.00
   11   16    2     -2.69      0.00
   -5   17    2      0.64      0.00
   -4   17    2     -0.43      0.00
   -3   17    2     -1.29      0.00
    9   17    2      0.81      0.00
   10   17    2     -3.59      0.00
   -4   18    2     -0.41      0.00
   -3   18    2      0.07      0.00
   -2   18    2     -1.13      0.00
   -1   18    2      4.63      0.00
    7   18    2      0.75      0.00
    8   18    2      0.09      0.00
    9   18    2     -0.53      0.00
   -2   19    2      3.31      0.00
   -1   19    2      0.87      0.00
    0   19    2      4.52      0.00
    1   19    2     -3.67      0.00
    2   19    2     -2.29      0.00
    3   19    2     -0.29      0.00
    4   19    2      0.24      0.00
    5   19    2      0.63      0.00
    6   19    2     -1.75      0.00
    7   19    2     -1.23      0.00
    8   19    2     -1.38      0.00
    0   20    2      0.76      0.00
    1   20    2      1.69      0.00
    2   20    2     -0.06      0.00
    3   20    2      0.35      0.00
    4   20    2      0.74      0.00
    5   20    2      1.28      0.00
    6   20    2     -0.92      0.00
   -3  -19    3      0.19      0.00
   -2  -19    3      0.63      0.00
   -1  -19    3      0.96      0.00
    0  -19    3      1.09      0.00
   -6  -18    3      0.49      0.00
   -5  -18    3      0.54      0.00
   -4  -18    3      3.75      0.00
   -3  -18    3      1.84      0.00
   -2  -18    3      2.65      0.00
   -1  -18    3      1.87      0.00
    0  -18    3     -5.40      0.00
    1  -18    3      0.44      0.00
    2  -18    3     -1.33      0.00
    3  -18    3     -0.52      0.00
   -8  -17    3     -0.59      0.00
   -7  -17    3      2.09      0.00
   -6  -17    3     -0.71      0.00
   -5  -17    3     -2.96      0.00
    3  -17    3     -0.45      0.00
    4  -17    3      1.17      0.00
    5  -17    3     -1.22      0.00
   -9  -16    3     -1.32      0.00
   -8  -16    3     -2.80      0.00
   -7  -16    3     -2.70      0.00
  -10  -15    3      0.68      0.00
   -9  -15    3     -1.08      0.00
   -8  -15    3      2.52      0.00
    7  -15    3     -1.25      0.00
  -11  -14    3     -0.70      0.00
  -10  -14    3     -3.29      0.00
   -9  -14    3     -3.25      0.00
    8  -14    3      1.21      0.00
  -11  -13    3      0.20      0.00
  -10  -13    3     -2.22      0.00
    9  -13    3     -0.73      0.00
  -12  -12    3     -1.50      0.00
    9  -12    3     -4.69      0.00
   10  -12    3     -1.63      0.00
   10  -11    3     -2.20      0.00
   11  -11    3      1.21      0.00
  -13  -10    3      2.15      0.00
   11  -10    3     -2.58      0.00
  -13   -9    3      1.17      0.00
  -13   -8    3      0.98      0.00
  -14   -7    3      0.08      0.00
  -13   -7    3      1.19      0.00
   13   -7    3      1.03      0.00
  -14   -6    3     -1.30      0.00
  -13   -6    3     -1.84      0.00
  -14   -5    3     -0.42      0.00
  -13   -5    3      2.98      0.00
   14   -5    3     -0.53      0.00
  -14   -4    3     -2.12      0.00
  -13   -4    3      0.11      0.00
  -14   -3    3     -0.66      0.00
  -13   -3    3      3.44      0.00
  -14   -2    3     -0.55      0.00
  -13   -2    3      0.53      0.00
   15   -2    3      1.55      0.00
  -14   -1    3     -0.33      0.00
  -13   -1    3      5.61      0.00
   15   -1    3     -0.32      0.00
  -14    0    3      1.09      0.00
  -13    0    3     -0.91      0.00
   15    0    3     -0.22      0.00
  -14    1    3     -0.14      0.00
  -13    1    3      1.94      0.00
  -12    7    3      0.81      0.00
   15    7    3      0.45      0.00
  -12    8    3     -2.42      0.00
   15    8    3      4.08      0.00
   15    9    3      1.35      0.00
  -11   10    3     -0.86      0.00
   15   10    3      1.13      0.00
  -10   11    3     -3.53      0.00
  -10   12    3      0.23      0.00
   -9   12    3      0.71      0.00
   -9   13    3      1.14      0.00
   13   13    3      4.02      0.00
   -8   14    3     -1.81      0.00
   12   14    3     -1.38      0.00
   13   14    3      2.69      0.00
   12   15    3     -1.94      0.00
   11   16    3     -1.25      0.00
   12   16    3      0.83      0.00
   -5   17    3     -3.30      0.00
   -4   17    3     -0.68      0.00
   -3   17    3      0.57      0.00
    9   17    3      4.75      0.00
   10   17    3     -0.25      0.00
   11   17    3      1.78      0.00
   -4   18    3      0.20      0.00
   -3   18    3      4.11      0.00
   -2   18    3     -4.03      0.00
   -1   18    3     -2.32      0.00
    7   18    3      2.07      0.00
    8   18    3      0.79      0.00
    9   18    3      3.08      0.00
   10   18    3     -0.71      0.00
   -2   19    3      2.50      0.00
   -1   19    3     -3.49      0.00
    0   19    3      0.08      0.00
    1   19    3     -1.35      0.00
    2   19    3     -1.54      0.00
    3   19    3      0.12      0.00
    4   19    3     -1.41      0.00
    5   19    3     -2.73      0.00
    6   19    3      0.37      0.00
    7   19    3     -0.39      0.00
    8   19    3     -0.22      0.00
    0   20    3     -0.48      0.00
    1   20    3      2.94      0.00
    2   20    3      1.24      0.00
    3   20    3      1.06      0.00
    4   20    3      0.56      0.00
    5   20    3      1.10      0.00
    6   20    3     -0.29      0.00
   -5  -18    4      3.49      0.00
   -4  -18    4      1.93      0.00
   -3  -18    4      1.67      0.00
   -2  -18    4     -0.67      0.00
   -1  -18    4      1.98      0.00
    0  -18    4     -4.33      0.00
    1  -18    4      0.07      0.00
    2  -18    4      1.21      0.00
   -7  -17    4      0.73      0.00
   -6  -17    4      0.26      0.00
   -5  -17    4      2.17      0.00
    2  -17    4      0.37      0.00
    3  -17    4     -1.06      0.00
    4  -17    4      1.12      0.00
   -8  -16    4     -2.70      0.00
   -7  -16    4     -4.08      0.00
    6  -16    4     -1.53      0.00
   -9  -15    4      0.57      0.00
   -8  -15    4      0.57      0.00
   -7  -15    4      1.03      0.00
    7  -15    4     -0.75      0.00
  -10  -14    4     -0.25      0.00
   -9  -14    4     -0.45      0.00
    8  -14    4      0.96      0.00
  -11  -13    4      0.28      0.00
  -10  -13    4      0.52      0.00
   -9  -13    4      0.70      0.00
    9  -13    4      3.65      0.00
  -11  -12    4     -1.48      0.00
    9  -12    4      1.24      0.00
   10  -12    4      1.51      0.00
   10  -11    4     -0.01      0.00
   11  -11    4      1.35      0.00
   11  -10    4     -2.84      0.00
  -13   -9    4     -1.75      0.00
  -13   -8    4     -1.03      0.00
  -13   -7    4      1.27      0.00
   13   -7    4     -1.01      0.00
  -13   -6    4     -2.13      0.00
  -13   -5    4      2.64      0.00
   14   -5    4     -0.45      0.00
  -14   -4    4     -0.06      0.00
  -13   -4    4     -2.47      0.00
  -14   -3    4      0.38      0.00
  -13   -3    4      1.01      0.00
  -14   -2    4     -0.21      0.00
  -13   -2    4     -2.79      0.00
   15   -2    4      0.25      0.00
  -14   -1    4     -1.00      0.00
  -13   -1    4      2.91      0.00
   15   -1    4     -1.15      0.00
  -13    0    4     -0.84      0.00
   15    0    4     -1.25      0.00
  -13    1    4      3.18      0.00
   15    1    4      0.06      0.00
  -13    2    4      0.68      0.00
  -13    3    4      0.92      0.00
  -13    4    4     -2.35      0.00
  -13    5    4     -0.41      0.00
  -12    6    4     -0.84      0.00
  -12    7    4      1.19      0.00
   15    8    4      1.83      0.00
   15    9    4     -1.50      0.00
  -11   10    4      0.18      0.00
   15   10    4     -0.42      0.00
  -10   11    4      0.57      0.00
   -9   11    4     -0.56      0.00
   -9   12    4     -0.06      0.00
   -9   13    4     -0.55      0.00
   14   13    4      0.54      0.00
   -8   14    4     -1.17      0.00
   13   14    4      0.03      0.00
   12   15    4     -1.25      0.00
   13   15    4      0.10      0.00
   -6   16    4      1.12      0.00
   -5   16    4      4.01      0.00
   11   16    4     -0.70      0.00
   12   16    4      2.19      0.00
   -5   17    4      0.13      0.00
   -4   17    4     -1.46      0.00
   -3   17    4     -8.18      0.00
   10   17    4      2.84      0.00
   11   17    4      2.12      0.00
   -4   18    4     -1.37      0.00
   -3   18    4     -1.21      0.00
   -2   18    4     -4.44      0.00
   -1   18    4      0.68      0.00
    8   18    4      2.01      0.00
    9   18    4      0.13      0.00
   10   18    4      0.98      0.00
   -2   19    4      3.37      0.00
   -1   19    4      1.94      0.00
    0   19    4     -1.33      0.00
    1   19    4     -4.84      0.00
    2   19    4     -0.72      0.00
    3   19    4      0.61      0.00
    4   19    4     -3.41      0.00
    5   19    4     -4.24      0.00
    6   19    4     -2.09      0.00
    7   19    4     -0.35      0.00
    8   19    4      0.97      0.00
    9   19    4      0.32      0.00
    0   20    4     -1.57      0.00
    1   20    4      0.40      0.00
    2   20    4      3.20      0.00
    3   20    4     -1.41      0.00
    4   20    4     -0.13      0.00
    5   20    4      1.40      0.00
    6   20    4     -1.02      0.00
    7   20    4      1.18      0.00
   -4  -18    5      1.45      0.00
   -3  -18    5     -0.97      0.00
   -2  -18    5      2.94      0.00
   -1  -18    5      3.26      0.00
    0  -18    5     -1.97      0.00
    1  -18    5      1.24      0.00
   -6  -17    5     -1.68      0.00
   -5  -17    5     -3.45      0.00
   -4  -17    5     -1.87      0.00
    2  -17    5     -0.96      0.00
    3  -17    5     -0.95      0.00
    4  -17    5      0.88      0.00
   -8  -16    5      0.33      0.00
   -7  -16    5     -0.16      0.00
   -6  -16    5     -3.83      0.00
   -9  -15    5      1.56      0.00
   -8  -15    5      2.73      0.00
   -7  -15    5     -0.87      0.00
    7  -15    5     -1.10      0.00
  -10  -14    5      1.42      0.00
   -9  -14    5      0.11      0.00
   -8  -14    5     -0.26      0.00
    8  -14    5     -0.51      0.00
  -10  -13    5      2.61      0.00
   -9  -13    5     -0.95      0.00
    9  -13    5     -0.35      0.00
  -11  -12    5      0.33      0.00
  -10  -12    5     -0.57      0.00
    9  -12    5     -4.81      0.00
   10  -12    5     -0.38      0.00
   10  -11    5     -1.63      0.00
   11  -11    5      2.29      0.00
  -12  -10    5      1.54      0.00
   10  -10    5      1.60      0.00
   11  -10    5     -0.71      0.00
  -12   -9    5     -0.92      0.00
   12   -9    5     -1.17      0.00
  -12   -8    5     -1.52      0.00
  -13   -7    5      0.47      0.00
  -12   -7    5     -0.51      0.00
   13   -7    5      0.80      0.00
  -13   -6    5     -2.61      0.00
  -12   -6    5     -2.11      0.00
  -13   -5    5      1.57      0.00
  -13   -4    5     -2.37      0.00
  -13   -3    5      0.57      0.00
   14   -3    5     -2.24      0.00
  -13   -2    5     -2.99      0.00
   14   -2    5      0.09      0.00
   15   -2    5     -0.05      0.00
  -13   -1    5     -0.67      0.00
   15   -1    5     -0.98      0.00
  -13    0    5     -4.24      0.00
   15    0    5     -0.43      0.00
  -13    1    5     -1.39      0.00
  -12    1    5      1.81      0.00
   15    1    5      3.58      0.00
  -13    2    5     -2.80      0.00
  -12    2    5      0.76      0.00
  -13    3    5      0.44      0.00
  -12    4    5      3.68      0.00
  -12    7    5      1.61      0.00
  -11    9    5     -2.21      0.00
   15   10    5     -2.27      0.00
  -10   11    5     -0.68      0.00
   -9   11    5     -2.42      0.00
   15   11    5     -1.30      0.00
   -9   12    5     -0.75      0.00
   -8   12    5      0.36      0.00
   -8   13    5      1.18      0.00
   -7   13    5      1.72      0.00
   14   13    5      1.23      0.00
   -8   14    5     -0.37      0.00
   -7   14    5      0.02      0.00
   13   14    5     -3.92      0.00
   -7   15    5      0.04      0.00
   -6   15    5      3.53      0.00
   12   15    5     -6.08      0.00
   13   15    5     -3.02      0.00
   -6   16    5      3.53      0.00
   -5   16    5      1.44      0.00
   -4   16    5      1.42      0.00
   12   16    5     -1.05      0.00
   -5   17    5     -3.31      0.00
   -4   17    5      0.65      0.00
   -3   17    5     -1.35      0.00
   10   17    5     -0.50      0.00
   11   17    5     -0.82      0.00
   -4   18    5      1.63      0.00
   -3   18    5      2.42      0.00
   -2   18    5     -8.45      0.00
   -1   18    5     -1.21      0.00
    9   18    5      0.07      0.00
   10   18    5     -2.75      0.00
   -2   19    5      0.94      0.00
   -1   19    5      5.38      0.00
    0   19    5      5.17      0.00
    1   19    5     -0.89      0.00
    2   19    5     -2.36      0.00
    3   19    5     -0.52      0.00
    4   19    5      0.44      0.00
    5   19    5     -1.73      0.00
    6   19    5      0.58      0.00
    7   19    5     -2.41      0.00
    8   19    5     -2.46      0.00
    9   19    5     -0.88      0.00
    0   20    5      2.67      0.00
    1   20    5     -0.10      0.00
    2   20    5      2.48      0.00
    3   20    5     -2.03      0.00
    4   20    5      2.23      0.00
    5   20    5      2.20      0.00
    6   20    5     -0.31      0.00
    7   20    5      0.34      0.00
   -5  -17    6      0.54      0.00
   -4  -17    6     -0.82      0.00
   -3  -17    6     -0.62      0.00
   -2  -17    6     -4.11      0.00
    1  -17    6      1.97      0.00
    2  -17    6     -0.18      0.00
    3  -17    6      0.78      0.00
   -7  -16    6     -0.08      0.00
   -6  -16    6      2.18      0.00
    5  -16    6     -1.78      0.00
   -8  -15    6      0.22      0.00
   -7  -15    6      0.82      0.00
    6  -15    6     -0.07      0.00
   -9  -14    6     -1.94      0.00
   -8  -14    6      3.21      0.00
   -7  -14    6      1.96      0.00
    8  -14    6      1.19      0.00
  -10  -13    6     -0.10      0.00
   -9  -13    6      0.94      0.00
   -8  -13    6      2.78      0.00
    9  -13    6      2.27      0.00
  -10  -12    6     -1.38      0.00
   -9  -12    6      2.67      0.00
    9  -12    6     -0.75      0.00
   10  -12    6      2.11      0.00
   10  -11    6     -1.18      0.00
   10  -10    6     -1.05      0.00
   11  -10    6     -2.29      0.00
  -12   -9    6      0.66      0.00
   12   -9    6      2.12      0.00
  -12   -8    6     -0.25      0.00
  -12   -7    6      0.51      0.00
   13   -7    6      0.02      0.00
  -12   -6    6     -1.39      0.00
  -13   -5    6      1.95      0.00
  -12   -5    6      3.46      0.00
  -13   -4    6     -0.33      0.00
  -12   -4    6     -0.24      0.00
   14   -4    6      0.46      0.00
  -13   -3    6      1.58      0.00
  -12   -3    6      1.82      0.00
   14   -3    6      0.07      0.00
  -13   -2    6      0.52      0.00
  -12   -2    6      1.33      0.00
   14   -2    6      2.34      0.00
   15   -2    6      1.03      0.00
  -13   -1    6      2.32      0.00
  -12   -1    6      0.11      0.00
   15   -1    6      0.97      0.00
  -13    0    6      1.45      0.00
  -12    0    6     -1.77      0.00
   15    0    6     -0.17      0.00
  -13    1    6      2.59      0.00
  -12    1    6     -2.07      0.00
   15    1    6      2.54      0.00
  -13    2    6      0.03      0.00
  -12    2    6     -2.01      0.00
  -12    3    6     -3.04      0.00
   16    3    6     -0.44      0.00
  -12    4    6     -0.96      0.00
   16    4    6     -0.62      0.00
  -12    5    6     -1.88      0.00
   16    5    6     -1.29      0.00
  -12    6    6     -1.09      0.00
   16    6    6     -0.46      0.00
  -11    7    6     -0.76      0.00
  -11    8    6      1.69      0.00
   -9   11    6      1.81      0.00
   -9   12    6      2.55      0.00
   -8   12    6     -0.97      0.00
   -8   13    6     -1.10      0.00
   -7   13    6     -0.30      0.00
   -8   14    6     -1.00      0.00
   -7   14    6      0.52      0.00
   -6   14    6     -3.27      0.00
   -7   15    6      0.87      0.00
   -6   15    6     -1.83      0.00
   13   15    6      4.05      0.00
   -6   16    6     -2.42      0.00
   -5   16    6      1.83      0.00
   -4   16    6      1.85      0.00
   12   16    6      1.10      0.00
   -5   17    6     -0.94      0.00
   -4   17    6     -1.21      0.00
   -3   17    6     -5.95      0.00
   11   17    6      0.70      0.00
   -3   18    6      3.33      0.00
   -2   18    6      2.33      0.00
   -1   18    6     -6.45      0.00
   10   18    6     -2.05      0.00
   -2   19    6      4.58      0.00
   -1   19    6     -2.14      0.00
    0   19    6     -2.77      0.00
    1   19    6      0.56      0.00
    2   19    6     -5.14      0.00
    3   19    6      2.25      0.00
    4   19    6      1.38      0.00
    5   19    6     -4.17      0.00
    6   19    6      0.56      0.00
    7   19    6     -2.45      0.00
    8   19    6      1.02      0.00
    9   19    6     -0.03      0.00
    0   20    6      0.45      0.00
    1   20    6      2.14      0.00
    2   20    6      1.68      0.00
    3   20    6     -0.17      0.00
    4   20    6      1.31      0.00
    5   20    6      0.70      0.00
    6   20    6     -0.02      0.00
    7   20    6     -0.10      0.00
   -4  -17    7     -3.57      0.00
   -3  -17    7     -0.76      0.00
   -2  -17    7     -1.05      0.00
   -1  -17    7     -1.67      0.00
    0  -17    7     -1.60      0.00
    1  -17    7      2.66      0.00
    2  -17    7      1.61      0.00
   -6  -16    7      0.28      0.00
   -5  -16    7      1.44      0.00
   -7  -15    7     -1.16      0.00
   -6  -15    7     -1.21      0.00
    6  -15    7      0.38      0.00
   -8  -14    7     -0.40      0.00
   -7  -14    7     -0.78      0.00
   -9  -13    7     -0.13      0.00
   -8  -13    7     -2.06      0.00
   -7  -13    7     -2.98      0.00
  -10  -12    7     -1.72      0.00
   -9  -12    7     -2.25      0.00
   -8  -12    7     -2.96      0.00
    9  -12    7     -2.06      0.00
    9  -11    7     -1.05      0.00
   10  -11    7     -0.85      0.00
  -11  -10    7     -1.41      0.00
   10  -10    7      1.40      0.00
   11  -10    7      0.34      0.00
  -11   -9    7      0.92      0.00
   12   -9    7     -0.34      0.00
  -12   -8    7      0.35      0.00
  -11   -8    7      2.87      0.00
  -12   -7    7      2.07      0.00
  -11   -7    7      2.90      0.00
   13   -7    7     -0.87      0.00
  -12   -6    7     -0.60      0.00
   13   -6    7      0.43      0.00
  -12   -5    7      0.99      0.00
   14   -5    7      1.02      0.00
  -12   -4    7     -1.84      0.00
   14   -4    7     -0.59      0.00
  -12   -3    7      0.01      0.00
   14   -3    7     -2.09      0.00
  -12   -2    7      0.64      0.00
   14   -2    7      0.85      0.00
   15   -2    7      0.24      0.00
  -12   -1    7      0.28      0.00
   15   -1    7     -0.60      0.00
  -12    0    7      2.46      0.00
   15    0    7     -1.63      0.00
  -12    1    7      2.51      0.00
   15    1    7      1.32      0.00
  -12    2    7      2.51      0.00
  -12    3    7      0.25      0.00
   16    3    7      0.60      0.00
  -12    4    7      1.20      0.00
  -11    4    7     -1.35      0.00
   16    4    7      2.04      0.00
  -12    5    7     -0.31      0.00
  -11    5    7     -3.94      0.00
   16    5    7      0.98      0.00
  -11    6    7      0.51      0.00
   16    6    7      0.97      0.00
  -11    7    7      0.23      0.00
   16    7    7      0.39      0.00
  -11    8    7      1.28      0.00
   -9   11    7     -1.61      0.00
   15   11    7      1.39      0.00
   -9   12    7     -1.30      0.00
   -8   12    7     -1.26      0.00
   -8   13    7      1.04      0.00
   -7   13    7      0.47      0.00
   -7   14    7     -1.41      0.00
   -6   14    7     -1.05      0.00
   14   14    7     -1.10      0.00
   -6   15    7      2.80      0.00
   -5   15    7      0.68      0.00
   13   15    7     -1.72      0.00
   -5   16    7     -0.11      0.00
   -4   16    7     -1.44      0.00
   -4   17    7     -0.38      0.00
   -3   17    7     -3.29      0.00
   -2   17    7     -1.10      0.00
   11   17    7      4.36      0.00
   12   17    7      2.26      0.00
   -3   18    7      0.87      0.00
   -2   18    7     -2.38      0.00
   -1   18    7      0.98      0.00
    0   18    7     -1.10      0.00
   10   18    7      3.62      0.00
   11   18    7      0.02      0.00
   -2   19    7      1.96      0.00
   -1   19    7      3.43      0.00
    0   19    7     -3.18      0.00
    1   19    7     -2.60      0.00
    2   19    7     -1.49      0.00
    3   19    7      2.72      0.00
    4   19    7     -0.95      0.00
    5   19    7     -1.59      0.00
    6   19    7      0.62      0.00
    8   19    7     -0.45      0.00
    9   19    7     -0.14      0.00
    0   20    7     -1.64      0.00
    1   20    7      0.69      0.00
    2   20    7      4.86      0.00
    3   20    7     -1.92      0.00
    4   20    7     -1.85      0.00
    5   20    7     -0.12      0.00
    6   20    7      1.14      0.00
    7   20    7      2.44      0.00
   -4  -16    8      2.74      0.00
    4  -16    8     -1.33      0.00
   -6  -15    8     -3.42      0.00
   -7  -14    8      1.89      0.00
   -8  -13    8      0.76      0.00
   -7  -13    8     -1.12      0.00
   -9  -12    8     -1.30      0.00
   -8  -12    8      0.02      0.00
    9  -12    8     -0.86      0.00
  -10  -11    8      1.59      0.00
    9  -11    8     -1.51      0.00
   10  -11    8      0.00      0.00
   10  -10    8      0.53      0.00
   11  -10    8      0.95      0.00
  -11   -9    8     -0.07      0.00
  -11   -8    8     -1.88      0.00
  -11   -7    8     -1.86      0.00
   13   -7    8     -0.13      0.00
  -11   -6    8     -0.95      0.00
   13   -6    8      0.41      0.00
  -12   -5    8      0.33      0.00
  -11   -5    8      1.64      0.00
   14   -5    8      0.74      0.00
  -12   -4    8     -0.79      0.00
  -11   -4    8     -1.63      0.00
   14   -4    8      0.99      0.00
  -12   -3    8     -0.49      0.00
  -11   -3    8     -1.09      0.00
   14   -3    8     -0.01      0.00
  -12   -2    8      0.02      0.00
  -11   -2    8      1.36      0.00
   14   -2    8      1.18      0.00
   15   -2    8     -0.09      0.00
  -12   -1    8     -0.69      0.00
  -11   -1    8     -3.14      0.00
   15   -1    8     -0.31      0.00
  -12    0    8     -0.81      0.00
  -11    0    8      0.28      0.00
   15    0    8      0.33      0.00
  -12    1    8     -2.16      0.00
  -11    1    8     -1.87      0.00
   15    1    8      3.06      0.00
  -12    2    8     -0.08      0.00
  -11    2    8      0.97      0.00
  -12    3    8     -0.13      0.00
  -11    3    8      0.95      0.00
   16    3    8     -1.04      0.00
  -11    4    8      3.49      0.00
   16    4    8     -0.19      0.00
  -11    5    8     -0.14      0.00
   16    5    8      0.15      0.00
  -11    6    8      0.53      0.00
   16    6    8      0.31      0.00
  -11    7    8     -1.24      0.00
   16    7    8     -0.13      0.00
  -10    8    8      0.24      0.00
  -10    9    8      1.32      0.00
   -9   11    8     -1.12      0.00
   -8   12    8      0.34      0.00
   -7   12    8     -0.16      0.00
   15   12    8     -2.39      0.00
   -8   13    8      0.30      0.00
   -7   13    8      0.52      0.00
   -7   14    8     -0.05      0.00
   -6   14    8     -0.24      0.00
   14   14    8     -0.51      0.00
   -6   15    8      0.35      0.00
   -5   15    8      0.99      0.00
   -5   16    8     -0.27      0.00
   -4   16    8     -0.99      0.00
   -4   17    8     -1.37      0.00
   -3   17    8     -5.85      0.00
   12   17    8     -1.19      0.00
   -3   18    8      0.64      0.00
   -2   18    8     -2.74      0.00
   -1   18    8      1.02      0.00
    0   18    8      4.57      0.00
   11   18    8     -2.45      0.00
   -1   19    8      3.51      0.00
    0   19    8      3.41      0.00
    1   19    8     -0.23      0.00
    2   19    8     -6.87      0.00
    3   19    8      0.38      0.00
    4   19    8      1.99      0.00
    5   19    8      0.90      0.00
    6   19    8     -1.12      0.00
    9   19    8     -2.27      0.00
    1   20    8     -0.66      0.00
    2   20    8      0.90      0.00
    3   20    8     -1.29      0.00
    4   20    8      1.44      0.00
    5   20    8     -1.48      0.00
    6   20    8     -1.01      0.00
    7   20    8     -2.92      0.00
   -3  -16    9      1.31      0.00
    0  -16    9      2.92      0.00
    1  -16    9     -0.80      0.00
   -5  -15    9      1.35      0.00
    4  -15    9      0.03      0.00
    5  -15    9     -0.76      0.00
    6  -14    9     -1.34      0.00
   -7  -13    9     -2.91      0.00
   -6  -13    9      2.46      0.00
    7  -13    9     -0.88      0.00
    8  -13    9      0.25      0.00
   -8  -12    9      1.70      0.00
   -7  -12    9     -0.45      0.00
    9  -12    9      0.11      0.00
    9  -11    9      0.79      0.00
   10  -11    9     -0.29      0.00
   10  -10    9     -0.51      0.00
  -10   -9    9     -1.28      0.00
   11   -9    9     -1.00      0.00
  -10   -8    9      2.37      0.00
  -11   -7    9     -0.94      0.00
  -10   -7    9     -2.47      0.00
  -11   -6    9     -1.02      0.00
  -10   -6    9      0.39      0.00
   13   -6    9      0.08      0.00
  -11   -5    9      1.22      0.00
   13   -5    9     -0.34      0.00
  -11   -4    9     -0.85      0.00
   14   -4    9     -0.87      0.00
  -11   -3    9     -1.32      0.00
   14   -3    9     -1.58      0.00
  -11   -2    9      2.53      0.00
   14   -2    9      0.96      0.00
   15   -2    9     -0.26      0.00
  -11   -1    9     -1.27      0.00
   14   -1    9      0.43      0.00
   15   -1    9     -1.08      0.00
  -11    0    9      3.47      0.00
   15    0    9     -1.07      0.00
  -11    1    9      0.31      0.00
   15    1    9     -0.68      0.00
  -11    2    9      1.02      0.00
  -11    3    9     -0.05      0.00
  -11    4    9      1.05      0.00
   16    4    9     -1.10      0.00
  -11    5    9     -0.93      0.00
  -10    5    9     -1.07      0.00
   16    5    9     -0.85      0.00
  -10    6    9      0.22      0.00
   16    6    9     -0.25      0.00
  -10    7    9      0.18      0.00
   16    7    9     -0.13      0.00
  -10    8    9     -1.50      0.00
   -8   11    9     -1.34      0.00
   15   11    9      2.01      0.00
   -8   12    9     -1.72      0.00
   -7   12    9     -0.62      0.00
   15   12    9     -3.26      0.00
   -7   13    9      0.43      0.00
   -6   13    9     -0.39      0.00
   -7   14    9     -1.04      0.00
   -6   14    9     -1.22      0.00
   14   14    9     -0.39      0.00
   -6   15    9     -0.13      0.00
   -5   15    9      1.70      0.00
   -5   16    9     -0.79      0.00
   -4   16    9      0.95      0.00
   -4   17    9      1.48      0.00
   -3   17    9     -1.65      0.00
   12   17    9      1.53      0.00
   -2   18    9      1.04      0.00
   11   18    9     -0.32      0.00
   -1   19    9     -1.85      0.00
    1   19    9      1.08      0.00
    2   19    9     -3.15      0.00
    3   19    9      2.25      0.00
    4   19    9     -1.15      0.00
    5   19    9      2.60      0.00
    6   19    9      2.51      0.00
    9   19    9      1.82      0.00
    1   20    9      1.37      0.00
    2   20    9      1.98      0.00
    3   20    9     -0.69      0.00
    4   20    9      0.12      0.00
    5   20    9     -0.51      0.00
    6   20    9      2.22      0.00
    7   20    9      0.47      0.00
   -3  -15   10      0.21      0.00
   -2  -15   10     -1.08      0.00
    3  -15   10      1.37      0.00
    4  -15   10      1.07      0.00
    4  -14   10      0.66      0.00
    5  -14   10     -0.03      0.00
    6  -14   10      1.56      0.00
   -6  -13   10     -0.48      0.00
    6  -13   10      1.50      0.00
    7  -13   10     -0.54      0.00
   -7  -12   10     -2.52      0.00
   -6  -12   10     -2.38      0.00
    7  -12   10     -1.84      0.00
    8  -12   10     -1.83      0.00
   -8  -11   10     -2.83      0.00
    9  -11   10     -0.62      0.00
   -9  -10   10     -0.02      0.00
    9  -10   10     -1.05      0.00
   10  -10   10      2.39      0.00
   -9   -9   10     -0.98      0.00
   10   -9   10      0.55      0.00
   11   -9   10      4.38      0.00
  -10   -8   10      1.37      0.00
   12   -8   10     -0.09      0.00
  -10   -7   10     -1.33      0.00
  -10   -6   10      1.20      0.00
   13   -6   10      0.92      0.00
  -11   -5   10      1.32      0.00
  -10   -5   10      0.73      0.00
   13   -5   10      0.46      0.00
  -11   -4   10      0.59      0.00
  -10   -4   10      1.28      0.00
   13   -4   10      1.12      0.00
   14   -4   10      0.63      0.00
  -11   -3   10     -1.91      0.00
  -10   -3   10      0.04      0.00
   14   -3   10      0.09      0.00
  -11   -2   10      0.52      0.00
   14   -2   10      0.53      0.00
  -11   -1   10     -2.23      0.00
   14   -1   10     -0.16      0.00
   15   -1   10     -0.08      0.00
  -11    0   10      0.89      0.00
   15    0   10      0.84      0.00
  -11    1   10     -1.28      0.00
  -10    1   10      0.55      0.00
   15    1   10      1.50      0.00
  -11    2   10     -1.28      0.00
  -10    2   10      4.78      0.00
  -11    3   10     -0.55      0.00
  -10    3   10      1.04      0.00
  -11    4   10      0.31      0.00
  -10    4   10      2.91      0.00
  -10    5   10      1.18      0.00
   16    5   10      1.02      0.00
  -10    6   10      1.37      0.00
   15    6   10      3.10      0.00
   16    6   10      0.79      0.00
  -10    7   10      1.16      0.00
   15    7   10      0.96      0.00
   15    8   10      3.85      0.00
   -9    9   10      1.05      0.00
   15    9   10      2.58      0.00
   -9   10   10     -0.36      0.00
   15   10   10      0.53      0.00
   -8   11   10     -0.21      0.00
   15   11   10      3.86      0.00
   -7   12   10      1.90      0.00
   -6   12   10      0.16      0.00
   -7   13   10      1.76      0.00
   -6   13   10      2.00      0.00
   -6   14   10      0.42      0.00
   -5   14   10     -3.59      0.00
   13   14   10     -0.21      0.00
   14   14   10      0.25      0.00
   -5   15   10      0.29      0.00
   -4   15   10      0.27      0.00
   13   15   10     -1.40      0.00
   -4   16   10     -1.31      0.00
   12   16   10      2.45      0.00
   -3   17   10     -1.21      0.00
   12   17   10     -1.72      0.00
   -2   18   10      2.13      0.00
   11   18   10      0.36      0.00
    2   19   10     -1.69      0.00
    3   19   10      1.62      0.00
    4   19   10      0.45      0.00
    5   19   10      0.63      0.00
    6   19   10     -1.36      0.00
    2   20   10      1.94      0.00
    3   20   10      0.82      0.00
    4   20   10      1.60      0.00
    5   20   10     -1.23      0.00
    6   20   10     -1.54      0.00
    7   20   10      0.94      0.00
   -1  -15   11      1.24      0.00
    0  -15   11     -1.81      0.00
    1  -15   11      2.39      0.00
   -4  -14   11      2.53      0.00
   -3  -14   11     -1.96      0.00
   -2  -14   11     -0.37      0.00
   -1  -14   11     -3.78      0.00
    3  -14   11     -0.66      0.00
    4  -14   11     -0.41      0.00
    5  -14   11      2.21      0.00
   -5  -13   11     -0.12      0.00
   -4  -13   11      0.76      0.00
    5  -13   11      0.26      0.00
    6  -13   11     -1.87      0.00
   -6  -12   11     -1.75      0.00
    6  -12   11     -1.26      0.00
    7  -12   11     -0.30      0.00
    8  -12   11     -0.38      0.00
   -7  -11   11      1.33      0.00
   -6  -11   11     -1.06      0.00
    8  -11   11     -0.73      0.00
    9  -11   11      0.85      0.00
    9  -10   11     -0.79      0.00
   10  -10   11      1.26      0.00
   -9   -9   11      1.33      0.00
   10   -9   11     -0.51      0.00
   11   -9   11     -0.04      0.00
   -9   -8   11      1.29      0.00
   10   -8   11     -0.15      0.00
   -9   -7   11     -1.07      0.00
   12   -7   11     -0.63      0.00
  -10   -6   11     -0.07      0.00
   -9   -6   11      1.85      0.00
  -10   -5   11     -1.25      0.00
   13   -5   11     -0.21      0.00
  -10   -4   11     -1.53      0.00
   13   -4   11      1.11      0.00
  -10   -3   11     -1.48      0.00
   13   -3   11     -1.26      0.00
   14   -3   11     -0.36      0.00
  -10   -2   11     -0.17      0.00
   14   -2   11      0.08      0.00
  -10   -1   11     -3.29      0.00
   14   -1   11      1.10      0.00
   15   -1   11      0.59      0.00
  -10    0   11     -1.31      0.00
   15    0   11      1.27      0.00
  -10    1   11     -4.25      0.00
   15    1   11      0.65      0.00
  -10    2   11      0.02      0.00
   15    2   11     -0.32      0.00
  -10    3   11     -2.19      0.00
   -9    3   11      0.45      0.00
  -10    4   11     -0.38      0.00
   -9    4   11      0.30      0.00
  -10    5   11     -1.65      0.00
   -9    5   11     -0.63      0.00
  -10    6   11     -0.50      0.00
   -9    6   11     -0.06      0.00
   15    6   11     -0.54      0.00
   -9    7   11      0.18      0.00
   15    7   11     -2.27      0.00
   -9    8   11     -0.66      0.00
   15    8   11      0.80      0.00
   15    9   11     -1.05      0.00
   15   10   11     -1.64      0.00
   -8   11   11      0.19      0.00
   15   11   11      0.53      0.00
   -7   12   11     -1.35      0.00
   -6   12   11     -1.80      0.00
   -6   13   11      0.59      0.00
   -5   13   11      5.37      0.00
   -6   14   11      1.08      0.00
   -5   14   11      0.66      0.00
   12   14   11     -1.02      0.00
   13   14   11      0.02      0.00
   14   14   11      0.77      0.00
   -5   15   11      1.32      0.00
   -4   15   11     -3.09      0.00
   11   15   11     -1.66      0.00
   12   15   11     -5.30      0.00
   13   15   11     -0.93      0.00
   -4   16   11     -2.63      0.00
   -3   16   11      1.01      0.00
   12   16   11      1.42      0.00
   -3   17   11     -2.65      0.00
   -2   17   11     -2.21      0.00
   11   17   11     -1.81      0.00
   12   17   11     -1.73      0.00
   -1   18   11      0.76      0.00
    9   18   11     -0.65      0.00
   10   18   11     -4.11      0.00
    0   19   11      1.06      0.00
    1   19   11     -1.59      0.00
    2   19   11     -3.54      0.00
    3   19   11     -1.11      0.00
    4   19   11     -2.97      0.00
    5   19   11      0.18      0.00
    6   19   11      2.25      0.00
    8   19   11      1.98      0.00
    9   19   11      2.34      0.00
    3   20   11      0.40      0.00
    4   20   11     -1.36      0.00
    5   20   11      0.80      0.00
    6   20   11     -2.63      0.00
    7   20   11      0.50      0.00
   -2  -14   12      0.85      0.00
   -1  -14   12     -1.55      0.00
    0  -14   12      1.14      0.00
    1  -14   12     -1.50      0.00
    2  -14   12      0.67      0.00
    3  -14   12      0.54      0.00
   -4  -13   12     -2.03      0.00
   -3  -13   12      2.20      0.00
    3  -13   12      1.05      0.00
    4  -13   12     -1.33      0.00
    5  -13   12     -1.36      0.00
   -5  -12   12      0.31      0.00
   -4  -12   12      0.13      0.00
    5  -12   12      0.36      0.00
    7  -12   12     -0.34      0.00
   -6  -11   12      3.16      0.00
    8  -11   12     -1.36      0.00
    9  -10   12     -0.28      0.00
   -8   -9   12      0.07      0.00
   10   -9   12     -2.06      0.00
   -8   -8   12     -2.55      0.00
   10   -8   12     -2.65      0.00
   11   -8   12     -0.36      0.00
   -9   -7   12     -2.08      0.00
   -8   -7   12      1.23      0.00
   11   -7   12      1.03      0.00
   12   -7   12     -0.49      0.00
   -9   -6   12     -1.02      0.00
   12   -6   12     -0.21      0.00
   -9   -5   12     -1.89      0.00
   13   -5   12     -1.90      0.00
   -9   -4   12      0.15      0.00
   13   -4   12     -0.20      0.00
  -10   -3   12     -1.14      0.00
   -9   -3   12     -1.01      0.00
   13   -3   12     -0.90      0.00
   14   -3   12     -0.09      0.00
  -10   -2   12      1.00      0.00
   13   -2   12      0.37      0.00
   14   -2   12     -0.57      0.00
  -10   -1   12      0.70      0.00
   14   -1   12     -0.39      0.00
  -10    0   12      1.60      0.00
   14    0   12     -2.28      0.00
   15    0   12     -1.22      0.00
  -10    1   12     -0.69      0.00
   -9    1   12      3.26      0.00
   15    1   12     -1.07      0.00
  -10    2   12      1.05      0.00
   -9    2   12      0.48      0.00
   15    2   12     -0.47      0.00
  -10    3   12     -0.71      0.00
   -9    3   12      1.89      0.00
   -9    5   12      1.30      0.00
   15    5   12     -0.46      0.00
   -9    6   12      1.18      0.00
   15    6   12     -0.97      0.00
   -9    7   12     -0.21      0.00
   15    7   12     -2.55      0.00
   -8    8   12     -0.28      0.00
   15    8   12     -0.07      0.00
   -8    9   12     -0.10      0.00
   15    9   12     -1.52      0.00
   -8   10   12     -0.14      0.00
   15   10   12     -1.25      0.00
   15   11   12     -0.73      0.00
   -6   12   12     -0.37      0.00
   -6   13   12     -0.75      0.00
   -5   13   12      0.51      0.00
   10   13   12      2.24      0.00
   -5   14   12     -2.74      0.00
   11   14   12     -0.46      0.00
   12   14   12      0.16      0.00
   13   14   12      2.14      0.00
   -4   15   12      3.13      0.00
   12   15   12      1.21      0.00
   13   15   12      0.05      0.00
   -3   16   12      1.60      0.00
   12   16   12      3.71      0.00
   -2   17   12      0.75      0.00
   11   17   12      2.68      0.00
   -1   18   12     -0.56      0.00
    1   18   12      1.60      0.00
    9   18   12     -1.69      0.00
   10   18   12     -1.58      0.00
    1   19   12      1.25      0.00
    2   19   12      0.84      0.00
    3   19   12     -0.25      0.00
    4   19   12      0.15      0.00
    5   19   12     -1.86      0.00
    6   19   12      5.63      0.00
    7   19   12     -0.57      0.00
    8   19   12     -0.51      0.00
    9   19   12      2.22      0.00
    5   20   12      1.21      0.00
   -2  -13   13      0.62      0.00
   -1  -13   13      1.41      0.00
    2  -13   13     -0.65      0.00
    3  -13   13     -0.41      0.00
    4  -13   13     -0.89      0.00
   -4  -12   13      2.06      0.00
   -3  -12   13     -1.00      0.00
    3  -12   13      0.77      0.00
    4  -12   13      2.34      0.00
    5  -12   13      1.20      0.00
    6  -12   13     -0.26      0.00
    5  -11   13     -2.28      0.00
    9  -10   13      1.06      0.00
   -7   -9   13      2.32      0.00
    9   -9   13     -0.14      0.00
   10   -9   13      0.34      0.00
   -7   -8   13      0.57      0.00
   -8   -7   13      2.08      0.00
   10   -7   13      0.38      0.00
   11   -7   13      0.88      0.00
   -8   -6   13     -0.07      0.00
   11   -6   13     -0.07      0.00
   12   -6   13      1.64      0.00
   -9   -5   13     -0.02      0.00
   -8   -5   13     -2.34      0.00
   12   -5   13      3.65      0.00
   -9   -4   13      0.41      0.00
   13   -4   13      2.08      0.00
   -9   -3   13     -0.84      0.00
   13   -3   13     -0.46      0.00
   -9   -2   13     -3.30      0.00
   13   -2   13     -0.90      0.00
   14   -2   13      0.14      0.00
   -9   -1   13     -0.22      0.00
   14   -1   13      0.13      0.00
   -9    0   13     -3.12      0.00
   14    0   13     -1.37      0.00
   -9    1   13      1.23      0.00
   15    1   13      1.00      0.00
   -9    2   13     -1.21      0.00
   -8    2   13      1.65      0.00
   15    2   13      0.07      0.00
   -9    3   13     -1.88      0.00
   -8    3   13      3.21      0.00
   15    3   13     -0.27      0.00
   -9    5   13     -2.39      0.00
   15    5   13      1.34      0.00
   -8    6   13      0.56      0.00
   14    6   13     -4.45      0.00
   15    6   13      1.15      0.00
   -8    7   13      0.74      0.00
   14    7   13     -2.07      0.00
   15    7   13      0.81      0.00
   -8    8   13     -0.38      0.00
   14    8   13     -2.73      0.00
   15    8   13      2.51      0.00
   14    9   13     -0.66      0.00
   15    9   13      1.44      0.00
    9   10   13      1.91      0.00
   14   10   13     -1.32      0.00
   15   10   13      1.07      0.00
    9   11   13      3.03      0.00
   10   11   13     -1.10      0.00
   14   11   13     -0.21      0.00
   -6   12   13     -0.75      0.00
   -5   12   13     -1.98      0.00
   10   12   13     -0.77      0.00
   11   12   13     -1.55      0.00
   14   12   13     -0.58      0.00
   -5   13   13      2.23      0.00
   -4   13   13     -4.89      0.00
   11   13   13      1.05      0.00
   14   13   13      0.01      0.00
   -5   14   13     -0.05      0.00
   -4   14   13     -0.24      0.00
   11   14   13     -0.20      0.00
   12   14   13     -2.35      0.00
   13   14   13     -3.21      0.00
   -4   15   13     -1.97      0.00
   -3   15   13     -3.56      0.00
   12   15   13     -0.57      0.00
   13   15   13     -2.57      0.00
   -3   16   13      2.26      0.00
   -2   16   13     -0.77      0.00
   12   16   13      0.02      0.00
   -2   17   13      0.57      0.00
   11   17   13     -1.40      0.00
    1   18   13      0.74      0.00
    2   18   13     -0.80      0.00
    9   18   13     -1.05      0.00
   10   18   13     -0.48      0.00
    2   19   13      0.49      0.00
    3   19   13     -0.69      0.00
    4   19   13      1.83      0.00
    5   19   13     -2.47      0.00
    6   19   13      0.94      0.00
    7   19   13      2.73      0.00
    8   19   13      0.17      0.00
   -2  -12   14     -2.14      0.00
    2  -12   14     -1.80      0.00
    3  -12   14     -1.05      0.00
    4  -12   14     -1.50      0.00
    5  -12   14      0.24      0.00
   -4  -11   14     -1.27      0.00
    3  -11   14     -1.91      0.00
    4  -11   14     -1.06      0.00
    5  -11   14     -0.90      0.00
    6  -11   14     -0.20      0.00
   -5  -10   14     -1.92      0.00
    5  -10   14      2.97      0.00
    6  -10   14      1.55      0.00
    8  -10   14      1.01      0.00
   -6   -9   14     -3.59      0.00
    9   -9   14     -0.66      0.00
   10   -8   14      0.52      0.00
   -7   -7   14      0.08      0.00
   11   -7   14     -0.31      0.00
   11   -6   14     -1.46      0.00
   -8   -5   14     -0.52      0.00
   11   -5   14     -0.96      0.00
   12   -5   14     -1.24      0.00
   -8   -4   14      0.15      0.00
   12   -4   14     -4.06      0.00
   -8   -3   14     -0.50      0.00
   12   -3   14     -2.56      0.00
   13   -3   14     -0.31      0.00
   13   -2   14      0.09      0.00
   13   -1   14      0.36      0.00
   14   -1   14      1.21      0.00
   -9    0   14     -1.67      0.00
   14    0   14      1.10      0.00
   -9    1   14      0.34      0.00
   -8    1   14     -0.95      0.00
   14    1   14      2.02      0.00
   -8    2   14     -1.88      0.00
   -7    2   14     -3.44      0.00
   15    2   14     -0.84      0.00
   15    3   14     -0.18      0.00
   15    5   14     -0.29      0.00
   -8    6   14     -0.80      0.00
   14    6   14     -0.51      0.00
   15    6   14     -1.06      0.00
   -8    7   14     -1.01      0.00
   -7    7   14     -1.11      0.00
   14    7   14      1.71      0.00
   15    7   14     -0.33      0.00
   -7    8   14     -1.73      0.00
   14    8   14      0.07      0.00
   15    8   14      0.43      0.00
   -7    9   14      1.30      0.00
   14    9   14      1.78      0.00
   15    9   14     -0.59      0.00
   14   10   14     -2.58      0.00
   10   11   14     -2.75      0.00
   11   11   14     -1.09      0.00
   14   11   14      0.80      0.00
   -5   12   14      0.97      0.00
   11   12   14     -1.09      0.00
   12   12   14      0.98      0.00
   14   12   14      0.74      0.00
   -5   13   14      2.84      0.00
   -4   13   14     -0.87      0.00
   11   13   14     -0.64      0.00
   12   13   14      2.58      0.00
   13   13   14      2.03      0.00
   14   13   14      1.64      0.00
   -4   14   14      1.80      0.00
   12   14   14     -1.39      0.00
   13   14   14      1.28      0.00
   -3   15   14     -2.58      0.00
   -2   16   14     -2.54      0.00
   12   16   14      1.11      0.00
   -1   17   14      0.27      0.00
   11   17   14     -1.43      0.00
    1   18   14     -0.31      0.00
    2   18   14     -3.31      0.00
    9   18   14      0.16      0.00
    3   19   14     -1.97      0.00
    4   19   14     -0.91      0.00
    5   19   14     -1.46      0.00
    6   19   14      5.58      0.00
    7   19   14     -1.75      0.00
   -2  -11   15      0.81      0.00
   -1  -11   15      0.52      0.00
    1  -11   15     -1.34      0.00
    2  -11   15      1.46      0.00
    3  -11   15      1.14      0.00
    4  -11   15      2.34      0.00
    5  -11   15     -1.10      0.00
    4  -10   15     -0.30      0.00
    5  -10   15     -1.10      0.00
    6  -10   15      3.01      0.00
    7  -10   15     -0.60      0.00
   -6   -7   15     -0.44      0.00
   10   -7   15      1.88      0.00
   11   -6   15      0.78      0.00
   -7   -5   15      0.18      0.00
   11   -5   15     -0.59      0.00
   11   -4   15     -0.85      0.00
   12   -4   15     -0.32      0.00
   12   -3   15      0.22      0.00
   13   -3   15      0.22      0.00
   -8   -2   15     -2.66      0.00
   12   -2   15     -0.27      0.00
   13   -2   15     -0.17      0.00
   -8   -1   15      0.95      0.00
   13   -1   15     -0.42      0.00
   -8    0   15     -1.43      0.00
   13    0   15      2.39      0.00
   14    0   15     -1.06      0.00
   -8    1   15     -0.58      0.00
   -7    1   15      2.79      0.00
   14    1   15     -0.18      0.00
   -8    2   15     -0.04      0.00
   -7    2   15      1.48      0.00
   14    2   15      0.36      0.00
   -8    3   15      2.67      0.00
   -8    4   15      2.42      0.00
   15    4   15      0.16      0.00
   14    5   15      0.86      0.00
   15    5   15     -0.19      0.00
   14    6   15      0.88      0.00
   15    6   15     -0.29      0.00
   -7    7   15      1.82      0.00
   14    7   15      2.13      0.00
   15    7   15     -0.73      0.00
   -7    8   15     -0.73      0.00
   -6    8   15      0.35      0.00
   14    8   15      0.36      0.00
   15    8   15     -0.47      0.00
   -6    9   15     -0.40      0.00
   14    9   15      2.36      0.00
   -6   10   15     -0.95      0.00
   14   10   15      0.55      0.00
   11   11   15      0.15      0.00
   12   11   15     -0.92      0.00
   13   11   15      2.55      0.00
   14   11   15      2.29      0.00
   -5   12   15     -3.01      0.00
   -4   12   15     -0.34      0.00
   11   12   15     -1.92      0.00
   12   12   15     -4.02      0.00
   13   12   15      0.04      0.00
   14   12   15      0.11      0.00
   -4   13   15     -2.76      0.00
   -3   13   15     -0.48      0.00
   11   13   15     -0.15      0.00
   12   13   15     -1.32      0.00
   13   13   15      1.64      0.00
   -3   14   15      2.28      0.00
   11   14   15      0.40      0.00
   12   14   15     -1.89      0.00
   13   14   15      0.48      0.00
   11   15   15      4.99      0.00
   12   15   15      0.01      0.00
   11   16   15      2.03      0.00
    0   17   15      5.27      0.00
    2   18   15     -3.31      0.00
    3   18   15      3.51      0.00
    9   18   15      0.08      0.00
   -1  -10   16     -1.36      0.00
    3  -10   16     -2.05      0.00
    4  -10   16     -0.24      0.00
    5  -10   16      0.03      0.00
   -3   -9   16     -1.03      0.00
   -2   -9   16     -1.32      0.00
    7   -9   16      0.04      0.00
   -4   -8   16     -0.14      0.00
   -3   -8   16      0.80      0.00
   -5   -7   16     -0.02      0.00
   -4   -7   16     -1.95      0.00
   -3   -7   16     -0.14      0.00
    9   -7   16     -0.61      0.00
   -5   -6   16     -0.83      0.00
   -4   -6   16      0.65      0.00
   10   -6   16     -2.95      0.00
   -6   -5   16      2.41      0.00
   10   -5   16     -1.74      0.00
   11   -5   16      0.47      0.00
   11   -4   16      1.14      0.00
   11   -3   16      1.71      0.00
   12   -3   16      0.15      0.00
   12   -2   16      0.72      0.00
   12   -1   16      2.55      0.00
   13   -1   16     -1.55      0.00
   13    0   16     -1.42      0.00
   -7    1   16      1.20      0.00
   -6    1   16     -1.42      0.00
   13    1   16     -4.84      0.00
   14    1   16      0.09      0.00
   -7    2   16     -2.97      0.00
   -6    2   16      3.06      0.00
   14    2   16     -0.64      0.00
   -7    3   16     -2.63      0.00
   -7    4   16     -0.78      0.00
   -7    5   16     -0.60      0.00
   14    5   16     -1.03      0.00
   13    6   16      2.71      0.00
   14    6   16     -1.74      0.00
   13    7   16     -0.30      0.00
   14    7   16     -1.58      0.00
   -6    8   16      0.36      0.00
   13    8   16      2.65      0.00
   14    8   16     -0.53      0.00
   -5    9   16      0.05      0.00
   13    9   16     -0.75      0.00
   14    9   16     -1.18      0.00
   -5   10   16      1.33      0.00
   10   10   16      3.80      0.00
   12   10   16     -1.16      0.00
   13   10   16     -0.10      0.00
   14   10   16     -2.40      0.00
   10   11   16      1.90      0.00
   11   11   16      4.28      0.00
   12   11   16      2.99      0.00
   13   11   16      0.84      0.00
   14   11   16     -1.15      0.00
   -4   12   16      4.21      0.00
   -3   12   16      0.40      0.00
   11   12   16      0.65      0.00
   12   12   16     -0.81      0.00
   13   12   16     -2.03      0.00
   -3   13   16     -0.12      0.00
   11   13   16      2.29      0.00
   12   13   16      0.47      0.00
   13   13   16     -0.41      0.00
   -2   14   16      0.29      0.00
    7   14   16      0.15      0.00
    8   14   16      2.43      0.00
    9   14   16      0.51      0.00
   10   14   16      1.22      0.00
   11   14   16     -2.12      0.00
   12   14   16      0.68      0.00
    7   15   16     -0.44      0.00
    8   15   16      1.86      0.00
    9   15   16     -1.58      0.00
   10   15   16     -3.00      0.00
   11   15   16      1.02      0.00
   12   15   16     -0.12      0.00
    7   16   16      3.23      0.00
    8   16   16      1.42      0.00
    9   16   16     -0.45      0.00
   10   16   16     -0.32      0.00
   11   16   16     -1.87      0.00
    1   17   16      0.53      0.00
    7   17   16     -1.00      0.00
    8   17   16     -2.61      0.00
    9   17   16     -0.99      0.00
    6   18   16     -1.27      0.00
    7   18   16     -0.02      0.00
   -1   -9   17     -1.63      0.00
    0   -9   17      2.38      0.00
    5   -9   17      1.00      0.00
   -2   -8   17      1.15      0.00
   -1   -8   17      0.00      0.00
    7   -8   17      1.83      0.00
   -3   -7   17     -1.55      0.00
   -2   -7   17     -2.44      0.00
    8   -7   17      2.10      0.00
   -4   -6   17      0.78      0.00
   -3   -6   17     -2.60      0.00
   -2   -6   17     -1.28      0.00
   -5   -5   17     -0.13      0.00
   -4   -5   17     -0.44      0.00
   -3   -5   17     -1.53      0.00
   10   -5   17     -1.03      0.00
   -5   -4   17      0.94      0.00
   -4   -4   17      0.82      0.00
   -3   -4   17     -2.59      0.00
   11   -4   17      0.27      0.00
   -5   -3   17     -0.06      0.00
   -4   -3   17      0.22      0.00
   11   -3   17      2.29      0.00
   -6   -2   17     -2.49      0.00
   -5   -2   17      2.90      0.00
   -4   -2   17     -0.36      0.00
   11   -2   17      1.21      0.00
   12   -2   17     -0.82      0.00
   -6   -1   17      0.92      0.00
   -5   -1   17     -2.81      0.00
   -4   -1   17     -1.64      0.00
   12   -1   17     -0.88      0.00
   -6    0   17     -1.72      0.00
   -5    0   17     -0.54      0.00
   12    0   17     -2.06      0.00
   13    0   17      3.08      0.00
   -6    1   17     -3.33      0.00
   -5    1   17     -0.90      0.00
   13    1   17      2.52      0.00
   -6    2   17     -0.69      0.00
   -5    2   17     -1.23      0.00
   13    2   17      2.35      0.00
   -6    3   17     -3.42      0.00
   -5    3   17      1.05      0.00
   14    3   17      0.97      0.00
   -6    4   17     -1.07      0.00
   -5    4   17      4.46      0.00
   -6    5   17     -0.11      0.00
   14    5   17      0.54      0.00
   -6    6   17     -1.48      0.00
   13    6   17      1.05      0.00
   14    6   17      0.93      0.00
   12    7   17     -0.34      0.00
   13    7   17     -0.48      0.00
   14    7   17      0.20      0.00
   12    8   17      0.73      0.00
   13    8   17      2.68      0.00
   14    8   17      0.68      0.00
   -5    9   17     -0.36      0.00
   12    9   17     -1.52      0.00
   13    9   17     -0.01      0.00
   14    9   17     -0.74      0.00
   12   10   17     -0.97      0.00
   13   10   17      0.57      0.00
   -4   11   17     -2.62      0.00
   11   11   17     -5.04      0.00
   12   11   17      3.04      0.00
   13   11   17      1.77      0.00
   -3   12   17     -0.16      0.00
   11   12   17     -6.36      0.00
   12   12   17     -0.39      0.00
   13   12   17     -1.37      0.00
   -2   13   17     -0.53      0.00
   12   13   17      0.60      0.00
   -1   14   17     -0.18      0.00
    6   14   17      1.43      0.00
    7   14   17      2.30      0.00
    8   14   17     -1.47      0.00
    9   14   17      0.87      0.00
   10   14   17      5.37      0.00
   11   14   17     -2.18      0.00
   12   14   17      1.20      0.00
    5   15   17      2.49      0.00
    6   15   17      4.85      0.00
    7   15   17     -1.05      0.00
    8   15   17     -0.65      0.00
    9   15   17      0.69      0.00
   10   15   17     -0.21      0.00
   11   15   17      1.96      0.00
    1   16   17      1.29      0.00
    3   16   17     -0.69      0.00
    4   16   17     -1.49      0.00
    5   16   17      5.07      0.00
    6   16   17     -1.03      0.00
    7   16   17      0.72      0.00
    8   16   17      0.67      0.00
    9   16   17      1.69      0.00
   10   16   17      1.33      0.00
    3   17   17     -1.62      0.00
    4   17   17      4.61      0.00
    5   17   17      0.28      0.00
    6   17   17      4.11      0.00
    7   17   17     -1.49      0.00
    8   17   17     -0.25      0.00
    0   -8   18     -3.15      0.00
    1   -8   18     -0.59      0.00
    2   -8   18      2.07      0.00
    4   -8   18     -1.52      0.00
    5   -8   18     -0.57      0.00
   -2   -7   18     -0.65      0.00
   -1   -7   18     -0.33      0.00
    0   -7   18     -2.67      0.00
    1   -7   18      3.04      0.00
    5   -7   18      4.11      0.00
    6   -7   18      3.17      0.00
    7   -7   18     -2.41      0.00
   -3   -6   18      0.51      0.00
   -2   -6   18     -0.94      0.00
   -1   -6   18      2.33      0.00
    0   -6   18      2.03      0.00
    6   -6   18      0.41      0.00
    7   -6   18     -1.13      0.00
    8   -6   18     -0.42      0.00
   -3   -5   18      0.99      0.00
   -2   -5   18      0.48      0.00
   -1   -5   18      1.84      0.00
    7   -5   18     -0.20      0.00
    8   -5   18      1.70      0.00
   -4   -4   18     -0.75      0.00
   -3   -4   18      3.12      0.00
   -2   -4   18     -0.32      0.00
   -1   -4   18      1.20      0.00
   10   -4   18      2.38      0.00
   -4   -3   18     -0.42      0.00
   -3   -3   18      4.84      0.00
   -2   -3   18      1.03      0.00
   11   -3   18     -1.41      0.00
   -5   -2   18      0.37      0.00
   -4   -2   18      2.92      0.00
   -3   -2   18      6.39      0.00
   -2   -2   18     -2.00      0.00
   11   -2   18     -3.31      0.00
   -5   -1   18     -1.53      0.00
   -4   -1   18      3.54      0.00
   -3   -1   18      3.01      0.00
   11   -1   18      0.30      0.00
   12   -1   18      1.75      0.00
   -5    0   18      0.99      0.00
   -4    0   18      5.11      0.00
   -3    0   18      2.11      0.00
   12    0   18      1.34      0.00
   -5    1   18      2.41      0.00
   -4    1   18      0.76      0.00
   -3    1   18      0.16      0.00
   12    1   18      1.84      0.00
   13    1   18     -1.08      0.00
   -5    2   18      1.41      0.00
   -4    2   18      0.21      0.00
   13    2   18     -0.60      0.00
   -5    3   18     -2.09      0.00
   -4    3   18     -1.43      0.00
   13    3   18     -0.78      0.00
   -5    4   18     -2.42      0.00
   -4    4   18     -0.76      0.00
   -5    5   18     -2.22      0.00
   -4    5   18     -0.12      0.00
   13    5   18     -2.75      0.00
   -5    6   18     -1.93      0.00
   -4    6   18      1.53      0.00
   12    6   18     -1.03      0.00
   13    6   18     -2.24      0.00
   -4    7   18      1.68      0.00
   12    7   18      3.18      0.00
   13    7   18     -3.33      0.00
   -4    8   18      2.58      0.00
   12    8   18      2.02      0.00
   13    8   18     -1.86      0.00
   -4    9   18      0.06      0.00
   12    9   18     -0.93      0.00
   13    9   18     -2.55      0.00
   12   10   18     -0.13      0.00
   13   10   18     -1.65      0.00
   -3   11   18     -1.31      0.00
   12   11   18      2.15      0.00
   13   11   18      0.00      0.00
   -2   12   18      1.38      0.00
   12   12   18     -1.93      0.00
   -1   13   18      1.63      0.00
   12   13   18     -0.49      0.00
    7   14   18      1.26      0.00
    8   14   18     -3.60      0.00
    9   14   18     -2.14      0.00
   10   14   18      0.97      0.00
   11   14   18     -1.33      0.00
    1   15   18     -1.55      0.00
    5   15   18     -4.45      0.00
    6   15   18      0.88      0.00
    7   15   18     -1.50      0.00
    8   15   18      0.20      0.00
    9   15   18     -2.90      0.00
   10   15   18     -3.25      0.00
    2   16   18     -0.39      0.00
    3   16   18      3.78      0.00
    4   16   18     -2.54      0.00
    5   16   18     -0.26      0.00
    6   16   18     -3.34      0.00
    7   16   18      0.30      0.00
    8   16   18     -0.39      0.00
    9   16   18     -1.70      0.00
    6   17   18      1.97      0.00
    1   -7   19      0.40      0.00
    2   -7   19     -0.38      0.00
    3   -7   19      1.29      0.00
    4   -7   19      0.76      0.00
   -1   -6   19     -0.90      0.00
    0   -6   19     -0.05      0.00
    1   -6   19     -1.34      0.00
    2   -6   19      1.12      0.00
    6   -6   19     -0.37      0.00
    7   -6   19      1.27      0.00
   -2   -5   19      0.93      0.00
   -1   -5   19     -2.72      0.00
    0   -5   19     -1.89      0.00
    1   -5   19      0.99      0.00
    7   -5   19      0.45      0.00
    8   -5   19     -0.05      0.00
   -2   -4   19     -1.55      0.00
   -1   -4   19     -1.02      0.00
    0   -4   19      2.67      0.00
    1   -4   19      0.96      0.00
    8   -4   19     -1.01      0.00
    9   -4   19     -3.92      0.00
   -3   -3   19     -2.77      0.00
   -2   -3   19      0.16      0.00
   -1   -3   19      4.11      0.00
    0   -3   19      0.61      0.00
   10   -3   19     -0.44      0.00
   -3   -2   19     -2.92      0.00
   -2   -2   19      2.97      0.00
   -1   -2   19      3.24      0.00
   10   -2   19      2.90      0.00
   -4   -1   19     -3.17      0.00
   -3   -1   19     -2.01      0.00
   -2   -1   19      2.30      0.00
   -1   -1   19      3.71      0.00
   11   -1   19     -1.52      0.00
   -4    0   19     -0.44      0.00
   -3    0   19     -0.22      0.00
   -2    0   19      1.57      0.00
   -1    0   19     -0.46      0.00
   11    0   19     -2.89      0.00
   -4    1   19     -1.45      0.00
   -3    1   19     -0.97      0.00
   -2    1   19     -1.21      0.00
   12    1   19     -0.39      0.00
   -4    2   19     -0.45      0.00
   -3    2   19      0.61      0.00
   -2    2   19     -2.88      0.00
   12    2   19     -1.07      0.00
   -4    3   19      0.89      0.00
   -3    3   19     -1.30      0.00
   -2    3   19     -2.56      0.00
   -4    4   19      1.62      0.00
   -3    4   19     -0.52      0.00
   -2    4   19     -1.70      0.00
   13    4   19      0.88      0.00
   -4    5   19      0.44      0.00
   -3    5   19     -1.52      0.00
   13    5   19      1.69      0.00
   -4    6   19     -0.53      0.00
   -3    6   19     -1.34      0.00
   11    6   19     -3.32      0.00
   12    6   19     -1.97      0.00
   13    6   19      1.51      0.00
   -3    7   19     -1.78      0.00
   11    7   19     -1.51      0.00
   12    7   19      1.86      0.00
   13    7   19      1.05      0.00
   -3    8   19     -0.22      0.00
   11    8   19     -3.55      0.00
   12    8   19      2.92      0.00
   13    8   19      1.84      0.00
   -3    9   19     -0.42      0.00
   11    9   19     -1.21      0.00
   12    9   19      0.20      0.00
   13    9   19      1.13      0.00
   11   10   19     -1.60      0.00
   12   10   19     -0.02      0.00
   -2   11   19     -0.68      0.00
   11   11   19     -0.54      0.00
   12   11   19      0.76      0.00
   -1   12   19     -1.63      0.00
   11   12   19     -3.62      0.00
   12   12   19     -1.74      0.00
    0   13   19     -1.41      0.00
    1   14   19      1.44      0.00
    2   14   19      2.94      0.00
    3   14   19     -0.26      0.00
    4   14   19     -0.31      0.00
    5   14   19      2.75      0.00
    6   14   19     -3.78      0.00
    7   14   19      0.09      0.00
    8   14   19     -2.62      0.00
    9   14   19      0.96      0.00
   10   14   19      3.41      0.00
    2   15   19     -1.44      0.00
    3   15   19     -2.52      0.00
    4   15   19      0.65      0.00
    5   15   19     -1.59      0.00
    6   15   19     -0.24      0.00
    7   15   19     -1.05      0.00
    8   15   19      2.58      0.00
    9   15   19      2.02      0.00
    5   16   19      0.85      0.00
    6   16   19     -2.37      0.00
    7   16   19      0.01      0.00
    1   -5   20     -0.63      0.00
    2   -5   20     -1.41      0.00
    3   -5   20     -1.61      0.00
    4   -5   20      1.94      0.00
    5   -5   20     -0.04      0.00
    6   -5   20     -0.20      0.00
    0   -4   20      1.41      0.00
    1   -4   20     -1.17      0.00
    2   -4   20      0.72      0.00
    3   -4   20     -1.02      0.00
    4   -4   20      0.21      0.00
    7   -4   20     -2.58      0.00
   -1   -3   20     -0.24      0.00
    0   -3   20     -3.03      0.00
    1   -3   20      0.43      0.00
    2   -3   20     -1.19      0.00
    3   -3   20      0.27      0.00
    8   -3   20      1.72      0.00
   -2   -2   20     -0.56      0.00
   -1   -2   20     -3.00      0.00
    0   -2   20      1.20      0.00
    1   -2   20      1.04      0.00
    2   -2   20     -0.22      0.00
   -2   -1   20     -2.83      0.00
   -1   -1   20     -0.11      0.00
    0   -1   20      0.13      0.00
    1   -1   20      0.70      0.00
   10   -1   20     -0.40      0.00
   -3    0   20     -0.02      0.00
   -2    0   20      0.08      0.00
   -1    0   20      0.53      0.00
    0    0   20     -0.66      0.00
    1    0   20      2.68      0.00
   -3    1   20     -0.87      0.00
   -2    1   20      1.32      0.00
   -1    1   20      0.56      0.00
    0    1   20      2.22      0.00
   11    1   20      1.97      0.00
   -3    2   20      1.85      0.00
   -2    2   20      0.41      0.00
   -1    2   20     -0.80      0.00
    0    2   20     -1.58      0.00
   11    2   20      3.80      0.00
   -3    3   20      0.21      0.00
   -2    3   20      1.17      0.00
   -1    3   20     -2.65      0.00
    0    3   20      0.98      0.00
   12    3   20     -1.45      0.00
   -3    4   20      0.85      0.00
   -2    4   20      2.51      0.00
   -1    4   20     -1.81      0.00
    0    4   20      1.51      0.00
   12    4   20     -2.46      0.00
   -3    5   20      1.22      0.00
   -2    5   20      0.17      0.00
   -1    5   20     -3.97      0.00
   12    5   20     -1.10      0.00
   -3    6   20      2.10      0.00
   -2    6   20      1.10      0.00
   -1    6   20      0.14      0.00
   11    6   20      0.67      0.00
   12    6   20     -3.16      0.00
   -2    7   20     -2.85      0.00
   -1    7   20     -1.93      0.00
   11    7   20      2.52      0.00
   12    7   20     -1.69      0.00
   -2    8   20     -0.16      0.00
   -1    8   20      3.01      0.00
   10    8   20      4.34      0.00
   11    8   20     -0.54      0.00
   12    8   20     -1.21      0.00
   -2    9   20     -0.61      0.00
   -1    9   20      0.06      0.00
   10    9   20      5.02      0.00
   11    9   20     -0.78      0.00
   12    9   20     -2.76      0.00
   -1   10   20      1.08      0.00
   10   10   20      5.00      0.00
   11   10   20     -2.01      0.00
   10   11   20      1.96      0.00
   11   11   20     -1.46      0.00
    0   12   20      1.00      0.00
    1   12   20     -1.00      0.00
    2   12   20     -2.77      0.00
   10   12   20      2.20      0.00
   11   12   20     -3.36      0.00
    1   13   20     -1.64      0.00
    2   13   20     -3.11      0.00
    3   13   20     -0.76      0.00
    4   13   20     -0.05      0.00
    5   13   20     -0.91      0.00
    6   13   20      2.52      0.00
    7   13   20      0.29      0.00
   10   13   20     -2.06      0.00
    3   14   20      0.56      0.00
    4   14   20      0.17      0.00
    5   14   20      1.41      0.00
    6   14   20      1.63      0.00
    7   14   20      2.68      0.00
    8   14   20     -0.64      0.00
    9   14   20      0.11      0.00
    5   15   20     -1.19      0.00
    6   15   20      1.66      0.00
    7   15   20      0.63      0.00
    3   -4   21      0.19      0.00
    4   -4   21     -1.78      0.00
    1   -3   21      0.18      0.00
    2   -3   21     -0.11      0.00
    3   -3   21     -0.03      0.00
    4   -3   21     -2.76      0.00
    5   -3   21      0.07      0.00
    6   -3   21      1.50      0.00
    0   -2   21      1.30      0.00
    1   -2   21      1.05      0.00
    2   -2   21     -1.44      0.00
    3   -2   21      0.07      0.00
    4   -2   21     -1.56      0.00
    5   -2   21     -0.98      0.00
    6   -2   21     -0.27      0.00
    7   -2   21     -0.29      0.00
    8   -2   21     -0.29      0.00
   -1   -1   21     -1.24      0.00
    0   -1   21      1.19      0.00
    1   -1   21     -1.74      0.00
    2   -1   21      0.81      0.00
    3   -1   21      0.65      0.00
    4   -1   21     -1.98      0.00
    5   -1   21      0.89      0.00
    6   -1   21      0.32      0.00
    7   -1   21      2.36      0.00
    8   -1   21     -1.70      0.00
    9   -1   21     -2.95      0.00
   -1    0   21     -0.78      0.00
    0    0   21     -0.69      0.00
    1    0   21     -1.42      0.00
    2    0   21     -1.18      0.00
    3    0   21     -0.60      0.00
    4    0   21     -1.40      0.00
    5    0   21     -0.57      0.00
    6    0   21     -4.93      0.00
    7    0   21      1.40      0.00
    8    0   21      1.61      0.00
   -1    1   21     -1.44      0.00
    0    1   21      1.74      0.00
    1    1   21     -3.51      0.00
    2    1   21      1.16      0.00
    3    1   21      2.45      0.00
    4    1   21     -3.84      0.00
    5    1   21     -0.22      0.00
   10    1   21      1.05      0.00
   -1    2   21      0.31      0.00
    0    2   21     -1.26      0.00
    1    2   21     -1.39      0.00
    2    2   21     -0.25      0.00
    3    2   21      0.04      0.00
    4    2   21     -2.89      0.00
   10    2   21     -0.61      0.00
   -1    3   21      0.58      0.00
    0    3   21     -0.48      0.00
    1    3   21     -0.24      0.00
    2    3   21     -0.24      0.00
    3    3   21     -0.93      0.00
   10    3   21      1.49      0.00
   11    3   21     -0.98      0.00
   -1    4   21      2.71      0.00
    0    4   21     -0.34      0.00
    1    4   21     -3.40      0.00
    2    4   21     -0.15      0.00
    3    4   21     -0.85      0.00
   11    4   21     -0.04      0.00
   -1    5   21      0.11      0.00
    0    5   21     -4.34      0.00
    1    5   21      2.69      0.00
    2    5   21     -0.93      0.00
    7    5   21     -3.78      0.00
   11    5   21     -0.10      0.00
   -1    6   21      1.80      0.00
    0    6   21     -2.43      0.00
    1    6   21     -3.45      0.00
    2    6   21      0.94      0.00
    7    6   21      0.90      0.00
   10    6   21     -2.78      0.00
   11    6   21     -0.25      0.00
   -1    7   21     -1.02      0.00
    0    7   21     -5.41      0.00
    1    7   21      1.76      0.00
    8    7   21      2.31      0.00
    9    7   21      1.53      0.00
   10    7   21      0.37      0.00
   11    7   21      0.84      0.00
   -1    8   21      1.16      0.00
    0    8   21     -2.12      0.00
    1    8   21      2.36      0.00
    8    8   21     -1.07      0.00
    9    8   21     -2.32      0.00
   10    8   21     -2.77      0.00
   11    8   21     -0.37      0.00
    0    9   21      0.53      0.00
    1    9   21      2.41      0.00
    8    9   21      3.04      0.00
    9    9   21      2.83      0.00
   10    9   21     -2.73      0.00
   11    9   21      0.56      0.00
    0   10   21      0.60      0.00
    1   10   21      2.57      0.00
    9   10   21     -4.41      0.00
   10   10   21     -2.17      0.00
    1   11   21      0.80      0.00
    9   11   21     -1.31      0.00
   10   11   21     -2.46      0.00
    2   12   21      0.61      0.00
    3   12   21      2.69      0.00
    9   12   21     -3.53      0.00
    4   13   21     -0.30      0.00
    5   13   21     -1.69      0.00
    6   13   21     -2.83      0.00
    7   13   21     -2.20      0.00
    8   13   21     -1.64      0.00
    2   -1   22      1.14      0.00
    3   -1   22      0.69      0.00
    4   -1   22      1.16      0.00
    5   -1   22      0.40      0.00
    6   -1   22      1.00      0.00
    1    0   22      1.46      0.00
    2    0   22      0.29      0.00
    3    0   22     -1.96      0.00
    4    0   22      2.37      0.00
    5    0   22      1.10      0.00
    6    0   22     -2.98      0.00
    7    0   22     -2.21      0.00
    1    1   22      1.20      0.00
    2    1   22     -0.38      0.00
    3    1   22      0.95      0.00
    4    1   22      1.70      0.00
    5    1   22      0.16      0.00
    6    1   22      4.32      0.00
    7    1   22     -1.23      0.00
    8    1   22      0.12      0.00
    0    2   22      0.08      0.00
    1    2   22      0.31      0.00
    2    2   22     -0.86      0.00
    3    2   22      1.05      0.00
    4    2   22      1.15      0.00
    5    2   22      0.69      0.00
    6    2   22     -2.38      0.00
    7    2   22     -1.91      0.00
    8    2   22      0.83      0.00
    9    2   22     -0.90      0.00
    0    3   22     -1.43      0.00
    1    3   22     -0.34      0.00
    2    3   22     -0.23      0.00
    3    3   22      1.00      0.00
    4    3   22      1.42      0.00
    5    3   22      0.52      0.00
    6    3   22      1.56      0.00
    7    3   22      1.12      0.00
    8    3   22     -1.09      0.00
    0    4   22      0.53      0.00
    1    4   22     -1.81      0.00
    2    4   22      1.68      0.00
    3    4   22     -0.69      0.00
    4    4   22     -0.57      0.00
    5    4   22     -2.02      0.00
    6    4   22      1.45      0.00
    7    4   22     -0.21      0.00
   10    4   22     -0.74      0.00
    0    5   22     -0.16      0.00
    1    5   22      3.03      0.00
    2    5   22      1.26      0.00
    3    5   22     -2.15      0.00
    4    5   22     -0.16      0.00
    5    5   22      2.55      0.00
    6    5   22     -0.81      0.00
    7    5   22     -1.76      0.00
   10    5   22      1.43      0.00
    0    6   22      1.94      0.00
    1    6   22     -1.00      0.00
    2    6   22      0.09      0.00
    3    6   22     -2.57      0.00
    4    6   22     -0.09      0.00
    5    6   22     -1.24      0.00
    6    6   22     -0.23      0.00
    7    6   22      4.41      0.00
    9    6   22      0.31      0.00
   10    6   22     -1.34      0.00
    1    7   22      0.78      0.00
    2    7   22      0.20      0.00
    3    7   22     -2.17      0.00
    4    7   22      0.69      0.00
    5    7   22      0.05      0.00
    6    7   22      0.01      0.00
    7    7   22      0.63      0.00
    8    7   22      0.86      0.00
    9    7   22      1.48      0.00
   10    7   22      0.55      0.00
    1    8   22      0.20      0.00
    2    8   22     -0.36      0.00
    3    8   22     -0.35      0.00
    4    8   22      1.77      0.00
    5    8   22     -0.81      0.00
    6    8   22     -1.57      0.00
    7    8   22      6.83      0.00
    8    8   22     -0.15      0.00
    9    8   22     -3.07      0.00
   10    8   22     -1.04      0.00
    2    9   22      2.41      0.00
    3    9   22      0.29      0.00
    4    9   22     -0.75      0.00
    5    9   22      0.21      0.00
    6    9   22      3.93      0.00
    7    9   22      5.86      0.00
    8    9   22     -1.47      0.00
    9    9   22      1.75      0.00
    2   10   22     -0.36      0.00
    3   10   22     -2.78      0.00
    4   10   22     -1.93      0.00
    5   10   22      0.86      0.00
    6   10   22      4.16      0.00
    7   10   22      4.22      0.00
    8   10   22     -2.10      0.00
    9   10   22     -3.43      0.00
    3   11   22     -2.71      0.00
    4   11   22      0.02      0.00
    5   11   22      2.67      0.00
    6   11   22      3.17      0.00
    7   11   22      1.81      0.00
    8   11   22     -4.10      0.00
    6   12   22      3.76      0.00
    4    2   23     -1.49      0.00
    5    2   23      0.06      0.00
    6    2   23     -0.92      0.00
    3    3   23     -1.12      0.00
    4    3   23      0.64      0.00
    5    3   23      0.06      0.00
    6    3   23      1.02      0.00
    7    3   23      1.99      0.00
    3    4   23      0.46      0.00
    4    4   23     -0.01      0.00
    5    4   23     -1.53      0.00
    6    4   23      1.42      0.00
    7    4   23      0.46      0.00
    3    5   23      0.95      0.00
    4    5   23      0.91      0.00
    5    5   23      1.37      0.00
    6    5   23     -0.14      0.00
    7    5   23     -0.56      0.00
    8    5   23      0.96      0.00
    3    6   23      1.63      0.00
    4    6   23     -0.89      0.00
    5    6   23     -0.63      0.00
    6    6   23      0.38      0.00
    7    6   23      2.11      0.00
    8    6   23      0.30      0.00
    3    7   23      1.17      0.00
    4    7   23     -2.09      0.00
    5    7   23      0.20      0.00
    6    7   23     -0.02      0.00
    7    7   23     -2.26      0.00
    8    7   23     -2.08      0.00
    4    8   23     -0.36      0.00
    5    8   23      0.83      0.00
    6    8   23     -2.57      0.00
    7    8   23     -1.32      0.00
    5    9   23      0.74      0.00
    6    9   23     -1.49      0.00
    0    0    0      0.00      0.00
# SQUEEZE RESULTS (Version = 220119)
# Note: Data are Listed for all Voids in the P1 Unit Cell
# i.e. Centre of Gravity, Solvent Accessible Volume,
# Recovered number of Electrons in the Void and
# Details about the Squeezed Material
loop_
  _platon_squeeze_void_nr
  _platon_squeeze_void_average_x
  _platon_squeeze_void_average_y
  _platon_squeeze_void_average_z
  _platon_squeeze_void_volume
  _platon_squeeze_void_count_electrons
  _platon_squeeze_void_content
   1 -0.097  0.000  0.500       621       142 ' '
   2 -0.095  0.500  0.000       499       109 ' '
# Missing Reflections Below sin(th)/lambda = 0.25
loop_
  _platon_missing_refln_index_h
  _platon_missing_refln_index_k
  _platon_missing_refln_index_l
  _platon_missing_refln_theta
    1    0    0     1.830
   -1    1    0     2.479
    0    1    0     1.389
    1    1    0     2.101
    0    2    0     2.778
    1    2    0     3.056
   -1   -1    1     2.835
    0   -1    1     2.056
    1   -1    1     2.668
   -1    0    1     2.505
    0    0    1     1.264
    1    0    1     1.903
   -1    1    1     2.893
    0    1    1     1.682
    1    1    1     1.997
    0    2    1     2.814
    1    2    1     2.866
    1    3    1     4.039
    0   -1    2     3.119
    0    0    2     2.529
    1    0    2     2.664
    0    1    2     2.632
    1    1    2     2.601
    1    2    2     3.208
_platon_squeeze_void_probe_radius                  1.20
_platon_squeeze_details
)
TITL 20190416-55      P -1         R = 0.15
CELL   11.9690   15.4198   17.4200     74.79     70.65     76.01
SPGR P-1
# Solvent Accessible Volume =      1121
# Electrons Found in S.A.V. =       246
# Note: Atoms in Void are Labelled as Cxxx and Qxxx for all Others
C101 0.793 0.972 0.335 !       2.94 eA-3
C102 0.998 0.936 0.364 !       2.85 eA-3
C103 0.234 0.068 0.332 !       2.81 eA-3
C104 0.139 0.018 0.354 !       2.69 eA-3
C105 0.066 0.996 0.331 !       2.48 eA-3
C106 0.548 0.631 0.063 !       2.21 eA-3
C107 0.919 0.916 0.325 !       2.10 eA-3
C108 0.704 0.961 0.313 !       2.00 eA-3
C109 0.489 0.677 0.041 !       1.88 eA-3
Q110 0.513 0.589 0.242 !       1.85 eA-3
C111 0.108 0.955 0.436 !       1.82 eA-3
C112 0.312 0.062 0.376 !       1.78 eA-3
C113 0.613 0.600 0.052 !       1.71 eA-3
C114 0.999 0.933 0.418 !       1.67 eA-3
C115 1.001 0.608 0.028 !       1.66 eA-3
C116 0.483 0.663 0.113 !       1.61 eA-3
C117 0.441 0.718 0.072 !       1.61 eA-3
C118 0.562 0.977 0.360 !       1.58 eA-3
C119 0.953 0.295 0.031 !       1.57 eA-3
C120 0.812 0.546 0.082 !       1.56 eA-3
C121 0.950 0.345 0.018 !       1.54 eA-3
C122 0.734 0.923 0.303 !       1.50 eA-3
C123 0.612 0.977 0.319 !       1.47 eA-3
C124 0.233 0.193 0.431 !       1.44 eA-3
C125 0.222 0.161 0.451 !       1.43 eA-3
C126 0.854 0.987 0.311 !       1.41 eA-3
C127 0.468 0.650 0.020 !       1.40 eA-3
C128 0.655 0.625 0.075 !       1.39 eA-3
C129 0.742 0.952 0.400 !       1.33 eA-3
C130 0.567 0.582 0.040 !       1.31 eA-3
C131 0.747 1.005 0.452 !       1.28 eA-3
C132 0.406 0.645 0.014 !       1.28 eA-3
C133 0.310 0.128 0.402 !       1.27 eA-3
C134 0.420 0.500 0.003 !       1.26 eA-3
C135 0.985 0.542 0.036 !       1.26 eA-3
Q136 0.652 0.115 0.364 !       1.23 eA-3
C137 0.909 0.497 0.116 !       1.22 eA-3
C138 0.861 0.592 0.063 !       1.21 eA-3
C139 0.702 0.605 0.062 !       1.20 eA-3
C140 0.451 1.000 0.345 !       1.14 eA-3
C141 0.058 0.515 0.068 !       1.12 eA-3
C142 0.911 0.469-0.007 !       1.10 eA-3
Q143 0.137 0.270 0.412 !       1.10 eA-3
C144 0.296 0.108 0.457 !       1.09 eA-3
C145 0.045 0.482 0.024 !       1.09 eA-3
C146 0.822 0.990 0.374 !       1.08 eA-3
C147 0.693 0.980 0.266 !       1.05 eA-3
C148 0.935 0.985 0.290 !       1.04 eA-3
Q149 0.343 0.885 0.470 !       1.03 eA-3
C150 0.032 0.321 0.016 !       1.03 eA-3
C151 0.955 0.563 0.068 !       1.03 eA-3
Q152 0.845 0.721 0.424 !       1.02 eA-3
C153 0.923 0.525 0.145 !       1.02 eA-3
C154 0.403 0.023 0.389 !       1.01 eA-3
C155 0.981 0.507 0.030 !       1.01 eA-3
C156 0.749 0.801 0.376 !       0.99 eA-3
Q157 0.737 0.447 0.213 !       0.99 eA-3
C158 0.645 0.908 0.331 !       0.98 eA-3
C159 0.408 0.049 0.331 !       0.97 eA-3
C160 0.846 0.433 0.076 !       0.97 eA-3
C161 0.075 0.547 0.052 !       0.97 eA-3
C162 0.280 0.018 0.495 !       0.96 eA-3
C163 0.738 0.861 0.382 !       0.96 eA-3
C164 0.733 0.874 0.441 !       0.95 eA-3
Q165 0.206 0.567 0.112 !       0.94 eA-3
C166 0.767 0.462 0.048 !       0.94 eA-3
C167 0.736 0.861 0.346 !       0.93 eA-3
C168 0.892 0.643 0.011 !       0.93 eA-3
C169 0.548 0.060 0.343 !       0.93 eA-3
Q170 0.906 0.889 0.253 !       0.93 eA-3
C171 0.779 0.482 0.086 !       0.92 eA-3
C172 0.391 0.989 0.329 !       0.91 eA-3
C173 0.564 0.385 0.033 !       0.90 eA-3
Q174 0.191 0.533 0.134 !       0.89 eA-3
Q175 0.101 0.233 0.431 !       0.87 eA-3
C176 0.747 0.035 0.463 !       0.87 eA-3
C177 0.851 0.366-0.002 !       0.86 eA-3
C178 0.307 0.062 0.278 !       0.85 eA-3
C179 0.827 0.452 0.017 !       0.84 eA-3
C180 0.826 0.493 0.032 !       0.84 eA-3
C181 0.659 0.921 0.403 !       0.84 eA-3
C182 0.031 1.007 0.390 !       0.84 eA-3
C183 0.814 0.018 0.435 !       0.83 eA-3
C184 0.888 0.872 0.365 !       0.83 eA-3
C185 0.734 0.486 0.099 !       0.83 eA-3
C186 0.909 0.454 0.099 !       0.82 eA-3
Q187 0.902 0.767 0.393 !       0.81 eA-3
Q188 0.448 0.414 0.107 !       0.81 eA-3
C189 0.205 0.136 0.391 !       0.80 eA-3
Q190 0.157 0.093 0.273 !       0.80 eA-3
C191 0.673 0.480 0.078 !       0.80 eA-3
C192 0.954 0.425 0.026 !       0.80 eA-3
C193 0.816 0.387 0.074 !       0.80 eA-3
Q194 0.577 0.040 0.391 !       0.80 eA-3
C195 0.278 0.486-0.002 !       0.79 eA-3
C196 0.996 0.443 0.028 !       0.79 eA-3
C197 1.001 0.545 0.090 !       0.79 eA-3
Q198 0.827 0.998 0.234 !       0.78 eA-3
Q199 0.794 0.472 0.187 !       0.78 eA-3
)
;
_shelx_fab_checksum              96250
_platon_squeeze_void_probe_radius 1.20
_olex2_submission_special_instructions 'No special instructions were received'
_oxdiff_exptl_absorpt_empirical_details
;
Empirical correction (ABSPACK) includes:
- Absorption correction using spherical harmonics
- Frame scaling
;
_oxdiff_exptl_absorpt_empirical_full_max 2.598
_oxdiff_exptl_absorpt_empirical_full_min 0.345
loop_
_space_group_symop_operation_xyz
'x, y, z'
'-x, -y, -z'
loop_
_atom_site_label
_atom_site_type_symbol
_atom_site_fract_x
_atom_site_fract_y
_atom_site_fract_z
_atom_site_U_iso_or_equiv
_atom_site_adp_type
_atom_site_occupancy
_atom_site_site_symmetry_order
_atom_site_calc_flag
_atom_site_refinement_flags_posn
_atom_site_refinement_flags_adp
_atom_site_refinement_flags_occupancy
_atom_site_disorder_assembly
_atom_site_disorder_group
Ca1 Ca 0.500000 1.000000 0.000000 0.0244(3) Uani 1 2 d S T P . .
Ca2 Ca 0.17877(7) 1.02744(5) 0.05467(5) 0.0250(2) Uani 1 1 d D . . . .
O1 O 0.3548(3) 0.9605(2) 0.11936(19) 0.0501(9) Uani 1 1 d . . . . .
O2 O 0.1848(3) 0.9112(2) 0.1813(2) 0.0542(9) Uani 1 1 d . . . . .
O3 O 1.1016(3) 0.1384(2) 0.1368(2) 0.0559(9) Uani 1 1 d . . . . .
O4 O 1.2409(3) 0.2228(3) 0.1082(3) 0.0746(13) Uani 1 1 d . . . . .
O5 O 1.2498(3) 0.2186(2) 0.8764(2) 0.0609(10) Uani 1 1 d . . . . .
O6 O 1.1158(3) 0.12665(19) 0.93957(18) 0.0410(8) Uani 1 1 d . . . . .
O7 O 0.3817(3) 0.9493(2) 0.9475(2) 0.0524(9) Uani 1 1 d . . . . .
O8 O 0.2070(3) 0.90836(19) 0.97522(18) 0.0392(7) Uani 1 1 d . . . . .
O9 O -0.0240(2) 1.00357(19) 0.09823(17) 0.0377(7) Uani 1 1 d . . . . .
H9A H -0.089373 1.039266 0.096909 0.057 Uiso 1 1 d R . . . .
H9B H -0.028723 0.959386 0.078889 0.057 Uiso 1 1 d R . . . .
O10 O 0.3457(3) 1.12636(19) -0.00600(19) 0.0333(7) Uani 1 1 d D . . . .
N1 N 0.5441(3) 0.6471(2) 0.5583(2) 0.0341(8) Uani 1 1 d . . . . .
H1 H 0.592047 0.595590 0.558876 0.041 Uiso 1 1 calc R . . . .
N2 N 0.6920(3) 0.5379(2) 0.6624(2) 0.0349(9) Uani 1 1 d . . . . .
N3 N 0.8358(3) 0.4373(2) 0.5333(2) 0.0362(9) Uani 1 1 d . . . . .
H3 H 0.774255 0.480115 0.538699 0.043 Uiso 1 1 calc R . . . .
N4 N 0.6726(3) 0.5317(2) 0.4356(2) 0.0321(8) Uani 1 1 d . . . . .
C1 C 0.2905(4) 0.9094(3) 0.1775(3) 0.0333(10) Uani 1 1 d . . . . .
C2 C 0.3460(4) 0.8465(3) 0.2421(3) 0.0347(10) Uani 1 1 d . . . . .
C3 C 0.2771(4) 0.7956(3) 0.3111(3) 0.0469(12) Uani 1 1 d . . . . .
H3A H 0.195616 0.800225 0.317848 0.056 Uiso 1 1 calc R . . . .
C4 C 0.3294(4) 0.7369(3) 0.3712(3) 0.0521(13) Uani 1 1 d . . . . .
H4 H 0.282007 0.704389 0.418559 0.062 Uiso 1 1 calc R . . . .
C5 C 0.4505(4) 0.7275(3) 0.3601(2) 0.0339(10) Uani 1 1 d . . . . .
C6 C 0.5179(4) 0.7784(4) 0.2910(3) 0.0545(14) Uani 1 1 d . . . . .
H6 H 0.599915 0.772574 0.283237 0.065 Uiso 1 1 calc R . . . .
C7 C 0.4659(4) 0.8384(4) 0.2326(3) 0.0561(14) Uani 1 1 d . . . . .
H7 H 0.512843 0.873218 0.186808 0.067 Uiso 1 1 calc R . . . .
C8 C 1.1408(4) 0.2021(3) 0.1458(3) 0.0447(12) Uani 1 1 d . . . . .
C9 C 1.0596(4) 0.2575(3) 0.2102(3) 0.0383(11) Uani 1 1 d . . . . .
C10 C 0.9482(4) 0.2375(3) 0.2590(3) 0.0484(13) Uani 1 1 d . . . . .
H10 H 0.920504 0.189756 0.251664 0.058 Uiso 1 1 calc R . . . .
C11 C 0.8779(4) 0.2867(3) 0.3179(3) 0.0506(13) Uani 1 1 d . . . . .
H11 H 0.802686 0.272420 0.349438 0.061 Uiso 1 1 calc R . . . .
C12 C 0.9163(4) 0.3570(3) 0.3314(3) 0.0380(11) Uani 1 1 d . . . . .
C13 C 1.0274(5) 0.3771(3) 0.2836(3) 0.0558(14) Uani 1 1 d . . . . .
H13 H 1.055199 0.424081 0.292135 0.067 Uiso 1 1 calc R . . . .
C14 C 1.0996(4) 0.3278(3) 0.2220(3) 0.0539(14) Uani 1 1 d . . . . .
H14 H 1.174000 0.342820 0.189423 0.065 Uiso 1 1 calc R . . . .
C15 C 1.1539(4) 0.1942(3) 0.8868(3) 0.0372(10) Uani 1 1 d . . . . .
C16 C 1.0770(4) 0.2502(3) 0.8312(3) 0.0346(10) Uani 1 1 d . . . . .
C17 C 1.1227(4) 0.3169(3) 0.7647(3) 0.0438(12) Uani 1 1 d . . . . .
H17 H 1.199914 0.327465 0.755139 0.053 Uiso 1 1 calc R . . . .
C18 C 1.0548(4) 0.3676(3) 0.7127(3) 0.0447(12) Uani 1 1 d . . . . .
H18 H 1.087673 0.410583 0.667269 0.054 Uiso 1 1 calc R . . . .
C19 C 0.9383(4) 0.3552(3) 0.7274(3) 0.0318(10) Uani 1 1 d . . . . .
C20 C 0.8916(4) 0.2894(3) 0.7948(3) 0.0386(11) Uani 1 1 d . . . . .
H20 H 0.813399 0.280219 0.805470 0.046 Uiso 1 1 calc R . . . .
C21 C 0.9603(4) 0.2376(3) 0.8458(3) 0.0381(11) Uani 1 1 d . . . . .
H21 H 0.928047 0.193652 0.890527 0.046 Uiso 1 1 calc R . . . .
C22 C 0.3161(4) 0.9052(3) 0.9359(3) 0.0333(10) Uani 1 1 d . . . . .
C23 C 0.3709(4) 0.8440(3) 0.8731(3) 0.0335(10) Uani 1 1 d . . . . .
C24 C 0.3017(4) 0.8004(3) 0.8513(3) 0.0475(13) Uani 1 1 d . . . . .
H24 H 0.219059 0.808674 0.875809 0.057 Uiso 1 1 calc R . . . .
C25 C 0.3527(4) 0.7445(3) 0.7937(3) 0.0462(12) Uani 1 1 d . . . . .
H25 H 0.303874 0.716548 0.779380 0.055 Uiso 1 1 calc R . . . .
C26 C 0.4757(4) 0.7299(3) 0.7572(3) 0.0366(10) Uani 1 1 d . . . . .
C27 C 0.5453(4) 0.7744(3) 0.7795(3) 0.0480(13) Uani 1 1 d . . . . .
H27 H 0.628096 0.765417 0.755672 0.058 Uiso 1 1 calc R . . . .
C28 C 0.4951(4) 0.8308(3) 0.8353(3) 0.0459(12) Uani 1 1 d . . . . .
H28 H 0.543517 0.860412 0.848275 0.055 Uiso 1 1 calc R . . . .
C29 C 0.5116(4) 0.6651(3) 0.4220(2) 0.0323(10) Uani 1 1 d . . . . .
C30 C 0.4949(4) 0.6936(3) 0.4947(2) 0.0340(10) Uani 1 1 d . . . . .
C31 C 0.4219(4) 0.7754(3) 0.5182(3) 0.0443(12) Uani 1 1 d . . . . .
H31 H 0.378118 0.820090 0.486808 0.053 Uiso 1 1 calc R . . . .
C32 C 0.4275(4) 0.7768(3) 0.5948(3) 0.0444(12) Uani 1 1 d . . . . .
H32 H 0.388157 0.822343 0.625120 0.053 Uiso 1 1 calc R . . . .
C33 C 0.5049(4) 0.6953(3) 0.6198(3) 0.0347(10) Uani 1 1 d . . . . .
C34 C 0.5337(4) 0.6695(3) 0.6950(3) 0.0356(10) Uani 1 1 d . . . . .
C35 C 0.6166(4) 0.5932(3) 0.7152(3) 0.0375(11) Uani 1 1 d . . . . .
C36 C 0.6411(4) 0.5637(3) 0.7944(3) 0.0411(11) Uani 1 1 d . . . . .
H36 H 0.600936 0.588714 0.841412 0.049 Uiso 1 1 calc R . . . .
C37 C 0.7331(4) 0.4928(3) 0.7878(3) 0.0407(11) Uani 1 1 d . . . . .
H37 H 0.769004 0.460709 0.829225 0.049 Uiso 1 1 calc R . . . .
C38 C 0.7656(4) 0.4760(3) 0.7056(2) 0.0315(10) Uani 1 1 d . . . . .
C39 C 0.8629(4) 0.4132(3) 0.6715(3) 0.0309(9) Uani 1 1 d . . . . .
C40 C 0.8973(4) 0.3983(3) 0.5909(3) 0.0375(11) Uani 1 1 d . . . . .
C41 C 0.9952(4) 0.3322(4) 0.5574(3) 0.0567(15) Uani 1 1 d . . . . .
H41 H 1.052107 0.296262 0.583274 0.068 Uiso 1 1 calc R . . . .
C42 C 0.9901(4) 0.3313(3) 0.4802(3) 0.0550(14) Uani 1 1 d . . . . .
H42 H 1.042942 0.294830 0.443883 0.066 Uiso 1 1 calc R . . . .
C43 C 0.8882(4) 0.3970(3) 0.4658(3) 0.0341(10) Uani 1 1 d . . . . .
C44 C 0.8430(4) 0.4102(3) 0.3978(3) 0.0324(10) Uani 1 1 d . . . . .
C45 C 0.7393(4) 0.4704(3) 0.3869(2) 0.0329(10) Uani 1 1 d . . . . .
C46 C 0.6929(4) 0.4836(3) 0.3168(3) 0.0422(11) Uani 1 1 d . . . . .
H46 H 0.720587 0.449295 0.275475 0.051 Uiso 1 1 calc R . . . .
C47 C 0.6015(4) 0.5553(3) 0.3232(3) 0.0441(12) Uani 1 1 d . . . . .
H47 H 0.555176 0.580101 0.286548 0.053 Uiso 1 1 calc R . . . .
C48 C 0.5892(4) 0.5864(3) 0.3980(2) 0.0330(10) Uani 1 1 d . . . . .
H10A H 0.312(6) 1.155(4) 0.034(3) 0.16(3) Uiso 1 1 d D . . . .
H10B H 0.316(6) 1.151(5) -0.047(3) 0.26(6) Uiso 1 1 d D . . . .
loop_
_atom_site_aniso_label
_atom_site_aniso_U_11
_atom_site_aniso_U_22
_atom_site_aniso_U_33
_atom_site_aniso_U_23
_atom_site_aniso_U_13
_atom_site_aniso_U_12
Ca1 0.0197(5) 0.0281(6) 0.0266(6) -0.0071(5) -0.0102(5) 0.0006(5)
Ca2 0.0235(4) 0.0295(5) 0.0238(4) -0.0072(3) -0.0113(3) 0.0007(3)
O1 0.0399(18) 0.064(2) 0.0325(18) 0.0138(16) -0.0137(16) -0.0042(16)
O2 0.0411(19) 0.065(2) 0.057(2) 0.0163(17) -0.0325(18) -0.0134(16)
O3 0.051(2) 0.059(2) 0.064(2) -0.0408(19) -0.0041(18) -0.0081(17)
O4 0.048(2) 0.094(3) 0.089(3) -0.071(3) 0.014(2) -0.016(2)
O5 0.043(2) 0.070(2) 0.068(2) 0.0259(19) -0.0347(19) -0.0217(18)
O6 0.0432(18) 0.0385(18) 0.0433(19) 0.0114(14) -0.0283(16) -0.0091(14)
O7 0.0398(18) 0.066(2) 0.069(2) -0.0407(19) -0.0232(18) -0.0010(16)
O8 0.0332(17) 0.0467(19) 0.0426(18) -0.0246(15) -0.0146(15) 0.0064(14)
O9 0.0258(15) 0.0482(18) 0.0411(18) -0.0127(14) -0.0129(14) -0.0009(13)
O10 0.0315(16) 0.0325(17) 0.0341(17) -0.0087(13) -0.0136(14) 0.0063(13)
N1 0.045(2) 0.0254(19) 0.0299(19) -0.0076(15) -0.0190(17) 0.0126(16)
N2 0.037(2) 0.037(2) 0.0274(19) -0.0105(15) -0.0156(16) 0.0135(16)
N3 0.039(2) 0.034(2) 0.031(2) -0.0073(16) -0.0148(17) 0.0101(16)
N4 0.0341(19) 0.0301(19) 0.0276(19) -0.0060(15) -0.0118(16) 0.0075(15)
C1 0.036(2) 0.035(2) 0.026(2) -0.0027(19) -0.012(2) 0.000(2)
C2 0.035(2) 0.040(3) 0.025(2) -0.0008(18) -0.012(2) -0.001(2)
C3 0.034(2) 0.061(3) 0.043(3) 0.014(2) -0.022(2) -0.016(2)
C4 0.045(3) 0.069(3) 0.037(3) 0.019(2) -0.020(2) -0.020(3)
C5 0.033(2) 0.038(2) 0.025(2) -0.0014(18) -0.013(2) 0.0046(19)
C6 0.032(2) 0.075(4) 0.039(3) 0.017(3) -0.015(2) -0.003(2)
C7 0.033(3) 0.074(4) 0.035(3) 0.021(2) -0.006(2) -0.001(2)
C8 0.042(3) 0.046(3) 0.054(3) -0.031(2) -0.017(3) 0.005(2)
C9 0.041(3) 0.034(3) 0.050(3) -0.025(2) -0.016(2) -0.001(2)
C10 0.039(3) 0.052(3) 0.060(3) -0.034(3) -0.001(2) -0.011(2)
C11 0.037(3) 0.053(3) 0.065(4) -0.031(3) -0.002(3) -0.011(2)
C12 0.039(2) 0.039(3) 0.034(3) -0.017(2) -0.008(2) 0.004(2)
C13 0.054(3) 0.054(3) 0.061(4) -0.029(3) 0.001(3) -0.017(3)
C14 0.045(3) 0.066(4) 0.053(3) -0.037(3) 0.001(3) -0.009(3)
C15 0.032(2) 0.040(3) 0.040(3) -0.002(2) -0.019(2) 0.000(2)
C16 0.034(2) 0.033(2) 0.036(2) 0.0010(19) -0.020(2) 0.0002(19)
C17 0.033(2) 0.039(3) 0.052(3) 0.013(2) -0.021(2) -0.006(2)
C18 0.048(3) 0.038(3) 0.039(3) 0.010(2) -0.017(2) -0.003(2)
C19 0.032(2) 0.025(2) 0.037(2) -0.0044(18) -0.017(2) 0.0066(18)
C20 0.033(2) 0.037(3) 0.045(3) 0.007(2) -0.021(2) -0.008(2)
C21 0.039(2) 0.034(2) 0.042(3) 0.0060(19) -0.022(2) -0.006(2)
C22 0.030(2) 0.043(3) 0.032(2) -0.017(2) -0.017(2) 0.006(2)
C23 0.030(2) 0.043(3) 0.035(2) -0.021(2) -0.017(2) 0.0051(19)
C24 0.031(2) 0.065(3) 0.059(3) -0.038(3) -0.017(2) 0.004(2)
C25 0.037(3) 0.063(3) 0.048(3) -0.035(3) -0.012(2) 0.000(2)
C26 0.035(2) 0.043(3) 0.036(3) -0.019(2) -0.016(2) 0.008(2)
C27 0.024(2) 0.069(3) 0.050(3) -0.029(3) -0.003(2) 0.002(2)
C28 0.028(2) 0.064(3) 0.054(3) -0.037(3) -0.008(2) 0.000(2)
C29 0.033(2) 0.035(2) 0.025(2) -0.0027(18) -0.0120(19) 0.0039(19)
C30 0.033(2) 0.040(3) 0.024(2) -0.0063(18) -0.0100(19) 0.0063(19)
C31 0.047(3) 0.036(3) 0.042(3) -0.005(2) -0.020(2) 0.014(2)
C32 0.051(3) 0.042(3) 0.034(3) -0.013(2) -0.016(2) 0.012(2)
C33 0.035(2) 0.039(3) 0.029(2) -0.0105(19) -0.013(2) 0.0065(19)
C34 0.033(2) 0.040(3) 0.038(3) -0.017(2) -0.015(2) 0.0040(19)
C35 0.039(2) 0.041(3) 0.031(2) -0.015(2) -0.015(2) 0.011(2)
C36 0.047(3) 0.048(3) 0.030(2) -0.017(2) -0.015(2) 0.005(2)
C37 0.050(3) 0.045(3) 0.024(2) -0.0038(19) -0.018(2) 0.004(2)
C38 0.036(2) 0.031(2) 0.029(2) -0.0068(18) -0.017(2) 0.0032(18)
C39 0.036(2) 0.026(2) 0.033(2) -0.0052(18) -0.017(2) 0.0015(18)
C40 0.037(2) 0.032(2) 0.042(3) -0.008(2) -0.019(2) 0.0088(19)
C41 0.051(3) 0.068(4) 0.047(3) -0.026(3) -0.024(3) 0.029(3)
C42 0.053(3) 0.054(3) 0.056(3) -0.031(3) -0.025(3) 0.030(2)
C43 0.036(2) 0.033(2) 0.030(2) -0.0093(18) -0.008(2) 0.0027(19)
C44 0.036(2) 0.029(2) 0.033(2) -0.0106(18) -0.010(2) -0.0012(18)
C45 0.041(2) 0.033(2) 0.024(2) -0.0049(18) -0.011(2) -0.0026(19)
C46 0.051(3) 0.047(3) 0.031(3) -0.017(2) -0.017(2) 0.004(2)
C47 0.059(3) 0.048(3) 0.028(2) -0.009(2) -0.026(2) 0.006(2)
C48 0.036(2) 0.036(2) 0.024(2) -0.0044(18) -0.0100(19) -0.0010(19)
loop_
_atom_type_symbol
_atom_type_description
_atom_type_scat_dispersion_real
_atom_type_scat_dispersion_imag
_atom_type_scat_source
C C 0.0033 0.0016 'International Tables Vol C Tables 4.2.6.8 and 6.1.1.4'
H H 0.0000 0.0000 'International Tables Vol C Tables 4.2.6.8 and 6.1.1.4'
Ca Ca 0.2262 0.3064 'International Tables Vol C Tables 4.2.6.8 and 6.1.1.4'
N N 0.0061 0.0033 'International Tables Vol C Tables 4.2.6.8 and 6.1.1.4'
O O 0.0106 0.0060 'International Tables Vol C Tables 4.2.6.8 and 6.1.1.4'
loop_
_geom_angle_atom_site_label_1
_geom_angle_atom_site_label_2
_geom_angle_atom_site_label_3
_geom_angle
_geom_angle_site_symmetry_1
_geom_angle_site_symmetry_3
_geom_angle_publ_flag
Ca2 Ca1 Ca2 180.0 . 2_675 ?
O1 Ca1 Ca2 45.92(7) 2_675 2_675 ?
O1 Ca1 Ca2 134.08(7) 2_675 . ?
O1 Ca1 Ca2 134.08(7) . 2_675 ?
O1 Ca1 Ca2 45.92(7) . . ?
O1 Ca1 O1 180.0 . 2_675 ?
O1 Ca1 O7 99.32(12) 2_675 1_554 ?
O1 Ca1 O7 80.68(12) 2_675 2_676 ?
O1 Ca1 O7 80.68(12) . 1_554 ?
O1 Ca1 O7 99.32(12) . 2_676 ?
O1 Ca1 O10 77.80(11) 2_675 2_675 ?
O1 Ca1 O10 77.80(11) . . ?
O1 Ca1 O10 102.20(11) 2_675 . ?
O1 Ca1 O10 102.21(11) . 2_675 ?
O7 Ca1 Ca2 129.80(8) 1_554 2_675 ?
O7 Ca1 Ca2 129.80(8) 2_676 . ?
O7 Ca1 Ca2 50.20(8) 2_676 2_675 ?
O7 Ca1 Ca2 50.20(8) 1_554 . ?
O7 Ca1 O7 180.0 2_676 1_554 ?
O7 Ca1 O10 78.89(11) 2_676 2_675 ?
O7 Ca1 O10 101.11(11) 2_676 . ?
O7 Ca1 O10 78.89(11) 1_554 . ?
O7 Ca1 O10 101.11(11) 1_554 2_675 ?
O10 Ca1 Ca2 134.08(8) 2_675 . ?
O10 Ca1 Ca2 134.08(8) . 2_675 ?
O10 Ca1 Ca2 45.92(8) 2_675 2_675 ?
O10 Ca1 Ca2 45.92(8) . . ?
O10 Ca1 O10 180.0 . 2_675 ?
O1 Ca2 Ca1 39.14(7) . . ?
O1 Ca2 O7 66.94(10) . 1_554 ?
O1 Ca2 C1 25.94(11) . . ?
O1 Ca2 C22 83.43(11) . 1_554 ?
O2 Ca2 Ca1 88.37(8) . . ?
O2 Ca2 O1 51.10(10) . . ?
O2 Ca2 O7 98.01(11) . 1_554 ?
O2 Ca2 O8 91.07(11) . 1_554 ?
O2 Ca2 O10 117.65(10) . . ?
O2 Ca2 C1 25.16(11) . . ?
O2 Ca2 C22 96.09(12) . 1_554 ?
O3 Ca2 Ca1 106.80(9) 1_465 . ?
O3 Ca2 O1 92.12(12) 1_465 . ?
O3 Ca2 O2 88.71(13) 1_465 . ?
O3 Ca2 O6 92.83(12) 1_465 1_464 ?
O3 Ca2 O7 144.81(11) 1_465 1_554 ?
O3 Ca2 O8 165.73(11) 1_465 1_554 ?
O3 Ca2 O9 83.86(11) 1_465 . ?
O3 Ca2 O10 79.44(11) 1_465 . ?
O3 Ca2 C1 90.60(12) 1_465 . ?
O3 Ca2 C22 169.14(13) 1_465 1_554 ?
O6 Ca2 Ca1 107.65(8) 1_464 . ?
O6 Ca2 O1 145.96(11) 1_464 . ?
O6 Ca2 O2 162.64(11) 1_464 . ?
O6 Ca2 O7 90.66(11) 1_464 1_554 ?
O6 Ca2 O8 83.21(10) 1_464 1_554 ?
O6 Ca2 O10 79.59(10) 1_464 . ?
O6 Ca2 C1 171.50(12) 1_464 . ?
O6 Ca2 C22 85.49(11) 1_464 1_554 ?
O7 Ca2 Ca1 39.55(6) 1_554 . ?
O7 Ca2 C1 82.08(11) 1_554 . ?
O7 Ca2 C22 24.80(10) 1_554 1_554 ?
O8 Ca2 Ca1 87.45(7) 1_554 . ?
O8 Ca2 O1 98.83(10) 1_554 . ?
O8 Ca2 O7 49.25(9) 1_554 1_554 ?
O8 Ca2 O10 113.09(10) 1_554 . ?
O8 Ca2 C1 95.26(11) 1_554 . ?
O8 Ca2 C22 24.50(10) 1_554 1_554 ?
O9 Ca2 Ca1 165.11(7) . . ?
O9 Ca2 O1 132.42(10) . . ?
O9 Ca2 O2 81.37(10) . . ?
O9 Ca2 O6 81.61(10) . 1_464 ?
O9 Ca2 O7 131.25(10) . 1_554 ?
O9 Ca2 O8 82.00(10) . 1_554 ?
O9 Ca2 O10 154.08(10) . . ?
O9 Ca2 C1 106.52(11) . . ?
O9 Ca2 C22 106.46(11) . 1_554 ?
O10 Ca2 Ca1 40.75(6) . . ?
O10 Ca2 O1 68.29(10) . . ?
O10 Ca2 O7 66.80(10) . 1_554 ?
O10 Ca2 C1 93.41(11) . . ?
O10 Ca2 C22 89.71(11) . 1_554 ?
C1 Ca2 Ca1 63.88(9) . . ?
C1 Ca2 C22 89.69(11) . 1_554 ?
C22 Ca2 Ca1 63.76(8) 1_554 . ?
Ca1 O1 Ca2 94.94(10) . . ?
C1 O1 Ca1 157.9(3) . . ?
C1 O1 Ca2 90.6(2) . . ?
C1 O2 Ca2 97.2(3) . . ?
C8 O3 Ca2 134.8(3) . 1_645 ?
C15 O6 Ca2 133.5(3) . 1_646 ?
Ca1 O7 Ca2 90.24(10) 1_556 1_556 ?
C22 O7 Ca1 164.5(3) . 1_556 ?
C22 O7 Ca2 87.3(2) . 1_556 ?
C22 O8 Ca2 100.5(2) . 1_556 ?
Ca1 O10 Ca2 93.33(10) . . ?
C33 N1 C30 109.2(3) . . ?
C35 N2 C38 106.7(3) . . ?
C40 N3 C43 108.9(3) . . ?
C45 N4 C48 107.6(3) . . ?
O1 C1 Ca2 63.5(2) . . ?
O1 C1 C2 118.0(4) . . ?
O2 C1 Ca2 57.6(2) . . ?
O2 C1 O1 121.0(4) . . ?
O2 C1 C2 121.0(4) . . ?
C2 C1 Ca2 178.5(3) . . ?
C3 C2 C1 120.5(4) . . ?
C7 C2 C1 120.3(4) . . ?
C7 C2 C3 119.2(4) . . ?
C2 C3 C4 120.3(4) . . ?
C5 C4 C3 120.1(4) . . ?
C4 C5 C29 122.4(4) . . ?
C6 C5 C4 118.9(4) . . ?
C6 C5 C29 118.6(4) . . ?
C5 C6 C7 121.1(4) . . ?
C2 C7 C6 120.3(4) . . ?
O3 C8 C9 117.3(4) . . ?
O4 C8 O3 125.6(4) . . ?
O4 C8 C9 117.0(4) . . ?
C10 C9 C8 122.1(4) . . ?
C14 C9 C8 119.0(4) . . ?
C14 C9 C10 118.8(4) . . ?
C11 C10 C9 121.2(4) . . ?
C10 C11 C12 121.1(5) . . ?
C11 C12 C44 122.4(4) . . ?
C13 C12 C11 118.2(4) . . ?
C13 C12 C44 119.4(4) . . ?
C12 C13 C14 121.1(5) . . ?
C9 C14 C13 119.5(5) . . ?
O5 C15 O6 125.1(4) . . ?
O5 C15 C16 117.0(4) . . ?
O6 C15 C16 117.9(4) . . ?
C17 C16 C15 119.8(4) . . ?
C21 C16 C15 121.6(4) . . ?
C21 C16 C17 118.6(4) . . ?
C18 C17 C16 120.7(4) . . ?
C17 C18 C19 120.7(4) . . ?
C18 C19 C20 118.7(4) . . ?
C18 C19 C39 120.4(4) . . ?
C20 C19 C39 120.9(4) . . ?
C21 C20 C19 120.5(4) . . ?
C20 C21 C16 120.8(4) . . ?
O7 C22 Ca2 67.9(2) . 1_556 ?
O7 C22 O8 122.7(4) . . ?
O7 C22 C23 118.7(4) . . ?
O8 C22 Ca2 54.97(19) . 1_556 ?
O8 C22 C23 118.6(4) . . ?
C23 C22 Ca2 172.6(3) . 1_556 ?
C24 C23 C22 121.7(4) . . ?
C24 C23 C28 118.4(4) . . ?
C28 C23 C22 119.9(4) . . ?
C23 C24 C25 121.3(4) . . ?
C24 C25 C26 120.6(4) . . ?
C25 C26 C27 117.8(4) . . ?
C25 C26 C34 121.9(4) . . ?
C27 C26 C34 120.3(4) . . ?
C28 C27 C26 121.8(4) . . ?
C27 C28 C23 120.2(4) . . ?
C30 C29 C5 117.4(3) . . ?
C30 C29 C48 125.3(3) . . ?
C48 C29 C5 117.1(3) . . ?
N1 C30 C29 126.3(4) . . ?
N1 C30 C31 107.5(3) . . ?
C29 C30 C31 126.2(4) . . ?
C32 C31 C30 107.9(4) . . ?
C31 C32 C33 107.4(4) . . ?
N1 C33 C32 108.0(3) . . ?
N1 C33 C34 126.1(4) . . ?
C34 C33 C32 125.9(4) . . ?
C33 C34 C26 118.0(3) . . ?
C35 C34 C26 117.2(4) . . ?
C35 C34 C33 124.7(4) . . ?
N2 C35 C34 126.0(4) . . ?
N2 C35 C36 109.4(3) . . ?
C34 C35 C36 124.6(4) . . ?
C37 C36 C35 107.1(4) . . ?
C36 C37 C38 107.7(3) . . ?
N2 C38 C37 109.1(3) . . ?
N2 C38 C39 124.8(4) . . ?
C39 C38 C37 125.8(3) . . ?
C38 C39 C19 117.1(3) . . ?
C38 C39 C40 126.2(3) . . ?
C40 C39 C19 116.7(3) . . ?
N3 C40 C39 125.9(4) . . ?
N3 C40 C41 108.2(4) . . ?
C39 C40 C41 125.6(4) . . ?
C42 C41 C40 107.6(4) . . ?
C41 C42 C43 107.1(4) . . ?
N3 C43 C42 108.2(4) . . ?
N3 C43 C44 126.2(4) . . ?
C44 C43 C42 125.3(4) . . ?
C43 C44 C12 116.3(4) . . ?
C45 C44 C12 118.8(4) . . ?
C45 C44 C43 124.9(4) . . ?
N4 C45 C44 125.5(4) . . ?
N4 C45 C46 109.4(3) . . ?
C44 C45 C46 124.8(4) . . ?
C47 C46 C45 106.8(4) . . ?
C46 C47 C48 107.3(4) . . ?
N4 C48 C29 126.4(4) . . ?
N4 C48 C47 108.8(3) . . ?
C29 C48 C47 124.5(4) . . ?
loop_
_geom_bond_atom_site_label_1
_geom_bond_atom_site_label_2
_geom_bond_distance
_geom_bond_site_symmetry_2
_geom_bond_publ_flag
Ca1 Ca2 3.5870(8) 2_675 ?
Ca1 Ca2 3.5870(8) . ?
Ca1 O1 2.273(3) . ?
Ca1 O1 2.273(3) 2_675 ?
Ca1 O7 2.284(3) 2_676 ?
Ca1 O7 2.284(3) 1_554 ?
Ca1 O10 2.345(3) 2_675 ?
Ca1 O10 2.345(3) . ?
Ca2 O1 2.586(3) . ?
Ca2 O2 2.460(3) . ?
Ca2 O3 2.339(3) 1_465 ?
Ca2 O6 2.400(3) 1_464 ?
Ca2 O7 2.756(3) 1_554 ?
Ca2 O8 2.475(3) 1_554 ?
Ca2 O9 2.381(3) . ?
Ca2 O10 2.581(3) . ?
Ca2 C1 2.891(4) . ?
Ca2 C22 2.971(4) 1_554 ?
O1 C1 1.265(5) . ?
O2 C1 1.239(5) . ?
O3 C8 1.251(5) . ?
O4 C8 1.233(6) . ?
O5 C15 1.235(5) . ?
O6 C15 1.260(5) . ?
O7 C22 1.248(5) . ?
O8 C22 1.253(5) . ?
N1 C30 1.377(5) . ?
N1 C33 1.356(5) . ?
N2 C35 1.370(5) . ?
N2 C38 1.383(5) . ?
N3 C40 1.367(5) . ?
N3 C43 1.366(5) . ?
N4 C45 1.364(5) . ?
N4 C48 1.368(5) . ?
C1 C2 1.503(5) . ?
C2 C3 1.379(6) . ?
C2 C7 1.368(6) . ?
C3 C4 1.404(6) . ?
C4 C5 1.373(6) . ?
C5 C6 1.372(6) . ?
C5 C29 1.504(5) . ?
C6 C7 1.388(6) . ?
C8 C9 1.520(6) . ?
C9 C10 1.380(6) . ?
C9 C14 1.371(6) . ?
C10 C11 1.365(6) . ?
C11 C12 1.374(6) . ?
C12 C13 1.373(7) . ?
C12 C44 1.502(6) . ?
C13 C14 1.403(6) . ?
C15 C16 1.516(5) . ?
C16 C17 1.387(6) . ?
C16 C21 1.387(6) . ?
C17 C18 1.380(6) . ?
C18 C19 1.383(6) . ?
C19 C20 1.391(6) . ?
C19 C39 1.515(5) . ?
C20 C21 1.378(5) . ?
C22 C23 1.511(5) . ?
C23 C24 1.376(6) . ?
C23 C28 1.399(6) . ?
C24 C25 1.384(6) . ?
C25 C26 1.385(6) . ?
C26 C27 1.394(6) . ?
C26 C34 1.497(6) . ?
C27 C28 1.367(6) . ?
C29 C30 1.387(5) . ?
C29 C48 1.404(5) . ?
C30 C31 1.423(6) . ?
C31 C32 1.364(6) . ?
C32 C33 1.430(6) . ?
C33 C34 1.398(5) . ?
C34 C35 1.394(5) . ?
C35 C36 1.439(5) . ?
C36 C37 1.350(6) . ?
C37 C38 1.430(6) . ?
C38 C39 1.395(5) . ?
C39 C40 1.390(6) . ?
C40 C41 1.426(6) . ?
C41 C42 1.371(6) . ?
C42 C43 1.431(6) . ?
C43 C44 1.409(5) . ?
C44 C45 1.395(5) . ?
C45 C46 1.450(5) . ?
C46 C47 1.353(6) . ?
C47 C48 1.455(5) . ?
loop_
_platon_squeeze_void_nr
_platon_squeeze_void_average_x
_platon_squeeze_void_average_y
_platon_squeeze_void_average_z
_platon_squeeze_void_volume
_platon_squeeze_void_count_electrons
_platon_squeeze_void_content
1 -0.097 0.000 0.500 621 142 ' '
2 -0.095 0.500 0.000 499 109 ' '
