#------------------------------------------------------------------------------
#$Date: 2020-10-06 12:03:22 +0300 (Tue, 06 Oct 2020) $
#$Revision: 257566 $
#$URL: file:///home/coder/svn-repositories/cod/cif/7/70/52/7705247.cif $
#------------------------------------------------------------------------------
#
# This file is available in the Crystallography Open Database (COD),
# http://www.crystallography.net/
#
# All data on this site have been placed in the public domain by the
# contributors.
#
data_7705247
loop_
_publ_author_name
'Frogley, Benjamin J.'
'Hill, Anthony F.'
_publ_section_title
;
 Carbyne decorated porphyrins.
;
_journal_issue                   35
_journal_name_full
'Dalton transactions (Cambridge, England : 2003)'
_journal_page_first              12390
_journal_page_last               12400
_journal_paper_doi               10.1039/d0dt02809f
_journal_volume                  49
_journal_year                    2020
_chemical_formula_moiety         'C116 H114 B4 N28 O8 W4, 4(C7 H16)'
_chemical_formula_sum            'C144 H178 B4 N28 O8 W4'
_chemical_formula_weight         3207.77
_chemical_properties_physical    Heat-sensitive,Light-sensitive
_space_group_crystal_system      monoclinic
_space_group_IT_number           14
_space_group_name_Hall           '-P 2yn'
_space_group_name_H-M_alt        'P 1 21/n 1'
_atom_sites_solution_hydrogens   mixed
_audit_creation_method           SHELXL-2018/3
_audit_update_record
;
2020-06-08 deposited with the CCDC.	2020-08-21 downloaded from the CCDC.
;
_cell_angle_alpha                90
_cell_angle_beta                 99.505(2)
_cell_angle_gamma                90
_cell_formula_units_Z            2
_cell_length_a                   10.5844(3)
_cell_length_b                   27.3756(8)
_cell_length_c                   28.6573(7)
_cell_measurement_reflns_used    6343
_cell_measurement_temperature    150.0(1)
_cell_measurement_theta_max      70.2460
_cell_measurement_theta_min      4.5560
_cell_volume                     8189.6(4)
_computing_cell_refinement       'CrysAlisPro 1.171.40.36a (Rigaku OD, 2018)'
_computing_data_collection       'CrysAlisPro 1.171.40.36a (Rigaku OD, 2018)'
_computing_data_reduction        'CrysAlisPro 1.171.40.36a (Rigaku OD, 2018)'
_computing_structure_refinement  'SHELXL-2018/3 (Sheldrick, 2018)'
_computing_structure_solution    'SHELXT 2014/5 (Sheldrick, 2014)'
_diffrn_ambient_temperature      150.0(1)
_diffrn_detector_area_resol_mean 8.1297
_diffrn_measured_fraction_theta_full 0.994
_diffrn_measured_fraction_theta_max 0.994
_diffrn_measurement_device_type  'SuperNova, Dual, Cu at home/near, EosS2'
_diffrn_measurement_method       '\w scans'
_diffrn_radiation_type           CuK\a
_diffrn_radiation_wavelength     1.54184
_diffrn_reflns_av_R_equivalents  0.0311
_diffrn_reflns_av_unetI/netI     0.0571
_diffrn_reflns_Laue_measured_fraction_full 0.994
_diffrn_reflns_Laue_measured_fraction_max 0.994
_diffrn_reflns_limit_h_max       12
_diffrn_reflns_limit_h_min       -12
_diffrn_reflns_limit_k_max       32
_diffrn_reflns_limit_k_min       -21
_diffrn_reflns_limit_l_max       27
_diffrn_reflns_limit_l_min       -34
_diffrn_reflns_number            24386
_diffrn_reflns_point_group_measured_fraction_full 0.994
_diffrn_reflns_point_group_measured_fraction_max 0.994
_diffrn_reflns_theta_full        66.600
_diffrn_reflns_theta_max         66.600
_diffrn_reflns_theta_min         3.588
_diffrn_source                   'micro-focus sealed X-ray tube'
_exptl_absorpt_coefficient_mu    5.512
_exptl_absorpt_correction_T_max  1.00000
_exptl_absorpt_correction_T_min  0.75085
_exptl_absorpt_correction_type   multi-scan
_exptl_absorpt_process_details
; 
CrysAlisPro 1.171.40.36a (Rigaku Oxford Diffraction, 2018) 
Empirical absorption correction using spherical harmonics, 
 implemented in SCALE3 ABSPACK scaling algorithm. 
;
_exptl_crystal_colour            'dark purple'
_exptl_crystal_density_diffrn    1.301
_exptl_crystal_description       needle
_exptl_crystal_F_000             3236
_exptl_crystal_size_max          0.147
_exptl_crystal_size_mid          0.042
_exptl_crystal_size_min          0.019
_refine_diff_density_max         1.156
_refine_diff_density_min         -1.114
_refine_diff_density_rms         0.095
_refine_ls_extinction_method     none
_refine_ls_goodness_of_fit_ref   0.995
_refine_ls_hydrogen_treatment    mixed
_refine_ls_matrix_type           full
_refine_ls_number_parameters     871
_refine_ls_number_reflns         14399
_refine_ls_number_restraints     152
_refine_ls_restrained_S_all      1.006
_refine_ls_R_factor_all          0.0662
_refine_ls_R_factor_gt           0.0458
_refine_ls_shift/su_max          0.001
_refine_ls_shift/su_mean         0.000
_refine_ls_structure_factor_coef Fsqd
_refine_ls_weighting_details
'w=1/[\s^2^(Fo^2^)+(0.0655P)^2^] where P=(Fo^2^+2Fc^2^)/3'
_refine_ls_weighting_scheme      calc
_refine_ls_wR_factor_gt          0.1119
_refine_ls_wR_factor_ref         0.1228
_reflns_Friedel_coverage         0.000
_reflns_number_gt                10683
_reflns_number_total             14399
_reflns_threshold_expression     'I > 2\s(I)'
_cod_data_source_file            d0dt02809f2.cif
_cod_data_source_block           Compound_2
_cod_depositor_comments
'Adding full bibliography for 7705247--7705250.cif.'
_cod_original_sg_symbol_H-M      'P 21/n'
_cod_database_code               7705247
_shelx_shelxl_version_number     2018/3
_shelx_space_group_comment
; 
The symmetry employed for this shelxl refinement is uniquely defined 
by the following loop, which should always be used as a source of 
symmetry information in preference to the above space-group names. 
They are only intended as comments. 
;
_shelx_res_file
; 
TITL bf84a_scale_a.res in P2(1)/n 
    shelx.res 
    created by SHELXL-2018/3 at 15:51:36 on 07-Jan-2020 
CELL  1.54184  10.5844  27.3756  28.6573   90.000   99.505   90.000 
ZERR     2.00   0.0003   0.0008   0.0007    0.000    0.002    0.000 
LATT   1 
SYMM  1/2 - X, 1/2 + Y, 1/2 - Z 
SFAC  C    H    B    N    O    W 
UNIT  288 356 8 56 16 8 
MERG   2 
OMIT    -1   4   1 
OMIT    -2   4   4 
OMIT    -2   2   5 
ABIN 
DFIX 1.54 C74 C75 C75 C76 C76 C77 C77 C78 C78 C79 C79 C80 
DFIX 1.54 C65 C64 C66 C65 C64 C63 C63 C62 C62 C60 C60 C59 
DFIX 2.54 C60 C63 
SIMU 0.02 0.04 1.7 C63 C62 C60 C59 C64 C65 C66 
SIMU 0.02 0.04 1.7 C77 C79 C80 C78 C76 C75 C74 
RIGU C63 C62 C60 C59 C64 C65 C66 
RIGU C77 C79 C80 C78 C76 C75 C74 
DFIX 2.54 C76 C74 
MORE -1 
SHEL 100 0.84 
FMAP   2 
PLAN    5 
ACTA 
BOND   $H 
CONF 
LIST   4 
L.S.  12 
WGHT    0.065500 
FVAR       0.16205 
W2    6    1.268110    0.458207    0.805958    11.00000    0.03994    0.05315 = 
         0.04147   -0.00065   -0.00331   -0.00152 
W1    6   -0.106879    0.193357    0.556560    11.00000    0.04424    0.03950 = 
         0.05390   -0.00049    0.01323   -0.01118 
N13   4    0.522160    0.451241    0.555655    11.00000    0.03850    0.04696 = 
         0.04586    0.01311   -0.00154   -0.01173 
AFIX  43 
H13   2    0.514650    0.471977    0.532820    10.50000   -1.20000 
AFIX   0 
N9    4    1.318668    0.383392    0.829673    11.00000    0.04151    0.04782 = 
         0.04242    0.00340   -0.00348    0.00584 
N7    4    1.411728    0.478140    0.871096    11.00000    0.05042    0.05788 = 
         0.05403   -0.00349   -0.00061   -0.00029 
N8    4    1.524777    0.452322    0.881451    11.00000    0.04785    0.07173 = 
         0.04586   -0.00004   -0.01190   -0.00770 
N11   4    1.444286    0.450750    0.774546    11.00000    0.03448    0.08434 = 
         0.04687   -0.00924    0.01105   -0.01013 
N14   4    0.670224    0.531004    0.529167    11.00000    0.03985    0.06194 = 
         0.05239    0.02143   -0.00825   -0.01931 
AFIX  43 
H14   2    0.594987    0.519441    0.519339    10.50000   -1.20000 
AFIX   0 
O2    5    0.137735    0.149514    0.522795    11.00000    0.06677    0.06801 = 
         0.10441    0.00392    0.04319    0.01082 
N4    4   -0.202259    0.128744    0.634283    11.00000    0.04692    0.05860 = 
         0.05653    0.01061    0.01639   -0.01461 
N2    4   -0.319231    0.111191    0.553138    11.00000    0.05415    0.04631 = 
         0.05976   -0.00496    0.00776   -0.01937 
N1    4   -0.228162    0.127385    0.528266    11.00000    0.05850    0.04254 = 
         0.05171    0.00291    0.01063   -0.01839 
N5    4   -0.289188    0.218974    0.575469    11.00000    0.03958    0.04805 = 
         0.06348   -0.00756    0.01295   -0.00137 
N6    4   -0.369515    0.187085    0.594604    11.00000    0.03080    0.06373 = 
         0.06110   -0.00919    0.01769   -0.01328 
N3    4   -0.096180    0.154645    0.624934    11.00000    0.04702    0.05736 = 
         0.04991    0.00142    0.01180   -0.00503 
O4    5    1.038797    0.470081    0.862046    11.00000    0.05206    0.10506 = 
         0.07458   -0.01520    0.01878    0.00776 
N10   4    1.443698    0.370776    0.847326    11.00000    0.04662    0.05911 = 
         0.04974   -0.00307   -0.00101    0.01190 
O1    5   -0.151858    0.243909    0.457031    11.00000    0.10987    0.06746 = 
         0.05806    0.00730    0.01345   -0.01246 
O3    5    1.221164    0.568600    0.779233    11.00000    0.10180    0.05418 = 
         0.10849    0.01732   -0.02618   -0.00543 
N12   4    1.552120    0.429334    0.799640    11.00000    0.03864    0.08440 = 
         0.05935   -0.01218    0.00813   -0.00671 
C23   1    1.035199    0.456127    0.716885    11.00000    0.03760    0.05221 = 
         0.03622    0.00075    0.00170   -0.00445 
C20   1    0.833423    0.468672    0.640264    11.00000    0.03363    0.05058 = 
         0.04917    0.00543   -0.00171   -0.01061 
C14   1    0.623003    0.447565    0.591925    11.00000    0.04072    0.04432 = 
         0.04551    0.01071    0.00233   -0.00434 
C11   1    0.435553    0.416112    0.562172    11.00000    0.04342    0.04223 = 
         0.04652    0.00556    0.00461   -0.00325 
C13   1    0.598184    0.408621    0.622770    11.00000    0.03946    0.04849 = 
         0.04340    0.00475   -0.00240   -0.00286 
AFIX  43 
H13A  2    0.651191    0.398641    0.650282    11.00000   -1.20000 
AFIX   0 
C7    1    0.241604    0.364310    0.544557    11.00000    0.03628    0.05208 = 
         0.04537    0.00662   -0.00547   -0.01471 
C15   1    0.731588    0.477259    0.598387    11.00000    0.03951    0.05641 = 
         0.04267    0.01111   -0.00312   -0.00745 
C26   1    1.141694    0.450937    0.755362    11.00000    0.04384    0.05428 = 
         0.03729    0.00148    0.00015   -0.00249 
C3    1    0.047317    0.163527    0.535902    11.00000    0.06522    0.03988 = 
         0.07822    0.00246    0.02155   -0.01010 
C28   1    1.123845    0.464836    0.841844    11.00000    0.05993    0.05259 = 
         0.05043   -0.00290   -0.01069    0.00113 
C10   1    0.319670    0.406181    0.532564    11.00000    0.04756    0.05563 = 
         0.05010    0.01183    0.00010   -0.01550 
C24   1    0.961099    0.498446    0.711939    11.00000    0.05102    0.05639 = 
         0.05513   -0.00826   -0.00694   -0.00476 
AFIX  43 
H24   2    0.979179    0.523096    0.734379    11.00000   -1.20000 
AFIX   0 
C12   1    0.483866    0.389283    0.604400    11.00000    0.05222    0.04523 = 
         0.04779    0.01235   -0.00025   -0.00685 
AFIX  43 
H12   2    0.443532    0.363289    0.616795    11.00000   -1.20000 
AFIX   0 
C25   1    0.861307    0.504911    0.674606    11.00000    0.04500    0.04296 = 
         0.07081    0.00709   -0.00693   -0.00165 
AFIX  43 
H25   2    0.812908    0.533420    0.672446    11.00000   -1.20000 
AFIX   0 
C5    1    0.156585    0.283541    0.525024    11.00000    0.06128    0.05198 = 
         0.07674   -0.01581    0.03164   -0.02570 
AFIX  43 
H5    2    0.152734    0.255883    0.505996    11.00000   -1.20000 
AFIX   0 
C35   1    0.000345    0.144621    0.659481    11.00000    0.04355    0.06322 = 
         0.06666    0.00410    0.01083   -0.00402 
C4    1    0.087518    0.285490    0.561501    11.00000    0.04661    0.04033 = 
         0.05114    0.00634    0.00380   -0.00898 
C6    1    0.233020    0.323356    0.516493    11.00000    0.06548    0.07687 = 
         0.05972    0.00129    0.02241   -0.02705 
AFIX  43 
H6    2    0.278637    0.322011    0.491430    11.00000   -1.20000 
AFIX   0 
C16   1    0.753291    0.515324    0.568351    11.00000    0.03899    0.07587 = 
         0.05607    0.02105   -0.00765   -0.02233 
C30   1   -0.241763    0.102498    0.487828    11.00000    0.07256    0.04263 = 
         0.05683   -0.00275    0.01067   -0.01371 
C1    1   -0.000731    0.245638    0.568012    11.00000    0.04631    0.05257 = 
         0.05211   -0.00218    0.01477   -0.00676 
C50   1    1.248272    0.343395    0.832345    11.00000    0.05195    0.05181 = 
         0.05426   -0.00087    0.00388    0.00040 
C22   1    1.004053    0.420284    0.682868    11.00000    0.04498    0.06027 = 
         0.05693   -0.00368   -0.00492    0.01237 
AFIX  43 
H22   2    1.050612    0.391322    0.685402    11.00000   -1.20000 
AFIX   0 
C2    1   -0.138704    0.223761    0.492831    11.00000    0.06883    0.04989 = 
         0.06173   -0.00750    0.01632   -0.01077 
C8    1    0.174838    0.365539    0.581729    11.00000    0.05593    0.04513 = 
         0.06828   -0.00495    0.01136   -0.01551 
AFIX  43 
H8    2    0.181628    0.392765    0.601394    11.00000   -1.20000 
AFIX   0 
C21   1    0.905307    0.426498    0.645177    11.00000    0.04564    0.06342 = 
         0.05306   -0.01535   -0.00820    0.00281 
AFIX  43 
H21   2    0.887199    0.401788    0.622801    11.00000   -1.20000 
AFIX   0 
C32   1   -0.391012    0.076188    0.528024    11.00000    0.06676    0.05497 = 
         0.07004    0.00012    0.00663   -0.02410 
C45   1    1.418116    0.513027    0.904243    11.00000    0.07014    0.06428 = 
         0.05000   -0.01573    0.00268   -0.01274 
C47   1    1.599886    0.471348    0.920456    11.00000    0.05692    0.09399 = 
         0.06029   -0.00430   -0.01956   -0.01098 
C31   1   -0.343841    0.070415    0.486697    11.00000    0.08549    0.05607 = 
         0.06293   -0.00797    0.00283   -0.02235 
AFIX  43 
H31   2   -0.374535    0.048932    0.462309    11.00000   -1.20000 
AFIX   0 
C36   1   -0.040128    0.111616    0.690926    11.00000    0.06664    0.07841 = 
         0.06992    0.01941    0.00394   -0.00265 
AFIX  43 
H36   2    0.009009    0.098438    0.717888    11.00000   -1.20000 
AFIX   0 
C55   1    1.475182    0.466908    0.733744    11.00000    0.06819    0.08459 = 
         0.05915   -0.01170    0.02348   -0.02078 
C37   1   -0.166855    0.102424    0.674212    11.00000    0.06780    0.07452 = 
         0.08276    0.02813    0.02648   -0.00830 
C39   1   -0.294470    0.305223    0.548429    11.00000    0.06832    0.05207 = 
         0.09951    0.00093    0.02081    0.00750 
AFIX 137 
H39A  2   -0.215088    0.313707    0.568115    11.00000   -1.50000 
H39B  2   -0.352748    0.332265    0.546927    11.00000   -1.50000 
H39C  2   -0.278988    0.297595    0.517166    11.00000   -1.50000 
AFIX   0 
C17   1    0.867414    0.543330    0.572445    11.00000    0.04632    0.10850 = 
         0.08025    0.04532   -0.02345   -0.03772 
AFIX  43 
H17   2    0.938866    0.540081    0.595935    11.00000   -1.20000 
AFIX   0 
C42   1   -0.478081    0.210488    0.598240    11.00000    0.04692    0.07032 = 
         0.08401   -0.00896    0.02065   -0.00959 
C27   1    1.242050    0.528201    0.790010    11.00000    0.05748    0.06855 = 
         0.06290   -0.00158   -0.01946   -0.00970 
C19   1    0.727912    0.568306    0.508379    11.00000    0.04621    0.07136 = 
         0.05787    0.02223   -0.00783   -0.02798 
C29   1   -0.159358    0.108910    0.451473    11.00000    0.11178    0.05513 = 
         0.05737   -0.00030    0.02402   -0.01189 
AFIX 137 
H29A  2   -0.166049    0.141938    0.440073    11.00000   -1.50000 
H29B  2   -0.186381    0.086896    0.425677    11.00000   -1.50000 
H29C  2   -0.072028    0.102067    0.465014    11.00000   -1.50000 
AFIX   0 
C49   1    1.106104    0.343478    0.815880    11.00000    0.05373    0.06750 = 
         0.07450   -0.00349    0.00081   -0.01542 
AFIX 137 
H49A  2    1.066206    0.365384    0.835197    11.00000   -1.50000 
H49B  2    1.073102    0.311092    0.818401    11.00000   -1.50000 
H49C  2    1.088066    0.354011    0.783510    11.00000   -1.50000 
AFIX   0 
C40   1   -0.351550    0.261699    0.568835    11.00000    0.05161    0.06240 = 
         0.07447   -0.01402    0.01139    0.00021 
C56   1    1.602483    0.456475    0.733491    11.00000    0.08411    0.09259 = 
         0.07778   -0.01985    0.03579   -0.03069 
AFIX  43 
H56   2    1.648658    0.463949    0.709488    11.00000   -1.20000 
AFIX   0 
C52   1    1.447952    0.323655    0.860674    11.00000    0.05472    0.05700 = 
         0.05450   -0.00654    0.00294    0.01313 
C34   1    0.128607    0.166859    0.660823    11.00000    0.04709    0.08141 = 
         0.08331    0.01369   -0.00220   -0.00482 
AFIX 137 
H34A  2    0.175119    0.148892    0.640410    11.00000   -1.50000 
H34B  2    0.174689    0.165932    0.692610    11.00000   -1.50000 
H34C  2    0.119069    0.200155    0.650318    11.00000   -1.50000 
AFIX   0 
C41   1   -0.470013    0.257519    0.583389    11.00000    0.05157    0.06836 = 
         0.09248   -0.01021    0.01471    0.00302 
AFIX  43 
H41   2   -0.531375    0.281887    0.583061    11.00000   -1.20000 
AFIX   0 
C9    1    0.097288    0.326783    0.590459    11.00000    0.06003    0.05405 = 
         0.06214   -0.00715    0.02307   -0.02380 
AFIX  43 
H9    2    0.051910    0.328345    0.615578    11.00000   -1.20000 
AFIX   0 
C46   1    1.533190    0.510143    0.935172    11.00000    0.08508    0.08355 = 
         0.05330   -0.01951   -0.01141   -0.01971 
AFIX  43 
H46   2    1.560259    0.530449    0.960899    11.00000   -1.20000 
AFIX   0 
C51   1    1.327026    0.305272    0.851573    11.00000    0.06863    0.05750 = 
         0.06035   -0.00294    0.00676    0.00154 
AFIX  43 
H51   2    1.301945    0.273523    0.857102    11.00000   -1.20000 
AFIX   0 
B1    3   -0.330756    0.132323    0.601525    11.00000    0.04376    0.05848 = 
         0.06037    0.00266    0.01284   -0.01948 
C44   1    1.314050    0.547438    0.906344    11.00000    0.09531    0.07239 = 
         0.06305   -0.01318    0.00467   -0.00254 
AFIX 137 
H44A  2    1.290464    0.562910    0.876097    11.00000   -1.50000 
H44B  2    1.341669    0.571781    0.929943    11.00000   -1.50000 
H44C  2    1.241505    0.530279    0.914376    11.00000   -1.50000 
AFIX   0 
C43   1   -0.585211    0.185382    0.617332    11.00000    0.04304    0.10223 = 
         0.13176   -0.02873    0.03364   -0.01129 
AFIX 137 
H43A  2   -0.625835    0.162237    0.594498    11.00000   -1.50000 
H43B  2   -0.646864    0.209214    0.623548    11.00000   -1.50000 
H43C  2   -0.551309    0.168670    0.646136    11.00000   -1.50000 
AFIX   0 
C18   1    0.854039    0.575670    0.536097    11.00000    0.05512    0.10923 = 
         0.08439    0.04958   -0.01931   -0.04692 
AFIX  43 
H18   2    0.914631    0.598394    0.530058    11.00000   -1.20000 
AFIX   0 
C33   1   -0.503446    0.053303    0.545163    11.00000    0.08493    0.07933 = 
         0.11360   -0.00504    0.00376   -0.05135 
AFIX 137 
H33A  2   -0.474773    0.036383    0.574332    11.00000   -1.50000 
H33B  2   -0.544192    0.030599    0.521905    11.00000   -1.50000 
H33C  2   -0.563442    0.078257    0.550238    11.00000   -1.50000 
AFIX   0 
C48   1    1.728763    0.450564    0.939761    11.00000    0.07241    0.12385 = 
         0.10364   -0.01882   -0.03605   -0.01292 
AFIX 137 
H48A  2    1.720568    0.416287    0.945673    11.00000   -1.50000 
H48B  2    1.762920    0.466855    0.968774    11.00000   -1.50000 
H48C  2    1.785443    0.455223    0.917216    11.00000   -1.50000 
AFIX   0 
C57   1    1.648235    0.433203    0.774862    11.00000    0.05989    0.07994 = 
         0.08508   -0.01808    0.02755   -0.02051 
B2    3    1.551035    0.409490    0.849722    11.00000    0.03710    0.07342 = 
         0.05906   -0.00271   -0.00229    0.00434 
C38   1   -0.259987    0.068985    0.693399    11.00000    0.10952    0.11658 = 
         0.09681    0.06057    0.01940   -0.03278 
AFIX 137 
H38A  2   -0.325542    0.088178    0.704090    11.00000   -1.50000 
H38B  2   -0.215100    0.050423    0.719384    11.00000   -1.50000 
H38C  2   -0.298386    0.047146    0.668892    11.00000   -1.50000 
AFIX   0 
C54   1    1.381206    0.490732    0.696741    11.00000    0.10515    0.10126 = 
         0.05471    0.01126    0.01891   -0.01074 
AFIX 137 
H54A  2    1.308901    0.469544    0.687992    11.00000   -1.50000 
H54B  2    1.420561    0.497201    0.669502    11.00000   -1.50000 
H54C  2    1.353205    0.520900    0.708730    11.00000   -1.50000 
AFIX   0 
C53   1    1.569840    0.299125    0.883417    11.00000    0.06991    0.07788 = 
         0.09900    0.01068   -0.01114    0.02176 
AFIX 137 
H53A  2    1.630593    0.299643    0.861979    11.00000   -1.50000 
H53B  2    1.552017    0.265903    0.890868    11.00000   -1.50000 
H53C  2    1.604705    0.316172    0.911920    11.00000   -1.50000 
AFIX   0 
C58   1    1.781259    0.413584    0.792840    11.00000    0.05670    0.13259 = 
         0.13052   -0.00879    0.03794    0.00181 
AFIX 137 
H58A  2    1.822354    0.433762    0.818294    11.00000   -1.50000 
H58B  2    1.830726    0.413812    0.767618    11.00000   -1.50000 
H58C  2    1.774962    0.380751    0.803997    11.00000   -1.50000 
AFIX   0 
C79   1    0.435442    0.320857    0.727908    11.00000    0.27428    0.19743 = 
         0.10015   -0.01754    0.03151   -0.00221 
AFIX  23 
H79A  2    0.462283    0.351975    0.716642    11.00000   -1.20000 
H79B  2    0.446636    0.323049    0.762127    11.00000   -1.20000 
AFIX   0 
C80   1    0.297777    0.316280    0.710755    11.00000    0.25200    0.27340 = 
         0.07970    0.00443   -0.00864    0.02959 
AFIX 137 
H80A  2    0.283440    0.310926    0.677189    11.00000   -1.50000 
H80B  2    0.255250    0.345734    0.717676    11.00000   -1.50000 
H80C  2    0.264383    0.289180    0.726154    11.00000   -1.50000 
AFIX   0 
C74   1    0.919225    0.280713    0.693513    11.00000    0.34868    0.13635 = 
         0.18827   -0.03392    0.06401   -0.06249 
AFIX 137 
H74A  2    0.900552    0.266546    0.662495    11.00000   -1.50000 
H74B  2    1.010339    0.283030    0.703031    11.00000   -1.50000 
H74C  2    0.882114    0.312747    0.692987    11.00000   -1.50000 
AFIX   0 
C76   1    0.724191    0.246107    0.716066    11.00000    0.28090    0.22823 = 
         0.29401   -0.03732    0.00401   -0.02887 
AFIX  23 
H76A  2    0.695463    0.240114    0.682637    11.00000   -1.20000 
H76B  2    0.696544    0.219126    0.733873    11.00000   -1.20000 
AFIX   0 
C77   1    0.671696    0.291635    0.730053    11.00000    0.29744    0.19521 = 
         0.25353   -0.03013   -0.01112   -0.02599 
AFIX  23 
H77A  2    0.700358    0.319018    0.713028    11.00000   -1.20000 
H77B  2    0.696008    0.297185    0.763772    11.00000   -1.20000 
AFIX   0 
C75   1    0.866902    0.250820    0.726134    11.00000    0.28424    0.18511 = 
         0.26718   -0.03619    0.07081   -0.08925 
AFIX  23 
H75A  2    0.891533    0.264255    0.757644    11.00000   -1.20000 
H75B  2    0.904264    0.218475    0.726017    11.00000   -1.20000 
AFIX   0 
C78   1    0.525302    0.284160    0.716548    11.00000    0.29447    0.18620 = 
         0.17332   -0.04094    0.01598    0.00383 
AFIX  23 
H78A  2    0.507206    0.279175    0.682587    11.00000   -1.20000 
H78B  2    0.504656    0.253812    0.731059    11.00000   -1.20000 
AFIX   0 
C62   1    0.301808    0.105660    0.897180    11.00000    0.18677    0.23759 = 
         0.17900    0.00794    0.05223    0.10910 
AFIX  23 
H62A  2    0.222389    0.095507    0.877684    11.00000   -1.20000 
H62B  2    0.361263    0.078458    0.899615    11.00000   -1.20000 
AFIX   0 
C60   1    0.276974    0.119371    0.945512    11.00000    0.23137    0.20176 = 
         0.21635    0.03923    0.10155    0.05742 
AFIX  23 
H60A  2    0.352607    0.134155    0.963806    11.00000   -1.20000 
H60B  2    0.206781    0.142499    0.943177    11.00000   -1.20000 
AFIX   0 
C64   1    0.367028    0.139552    0.823427    11.00000    0.33293    0.28573 = 
         0.19510   -0.07509    0.08015   -0.01497 
AFIX  23 
H64A  2    0.294434    0.153405    0.802528    11.00000   -1.20000 
H64B  2    0.369322    0.104619    0.817966    11.00000   -1.20000 
AFIX   0 
C59   1    0.244081    0.073802    0.968177    11.00000    0.29024    0.18817 = 
         0.31979    0.08008    0.18695   -0.00167 
AFIX 137 
H59A  2    0.298404    0.070190    0.998299    11.00000   -1.50000 
H59B  2    0.256201    0.046511    0.948349    11.00000   -1.50000 
H59C  2    0.156220    0.075036    0.972641    11.00000   -1.50000 
AFIX   0 
C63   1    0.359112    0.150172    0.873673    11.00000    0.26802    0.25849 = 
         0.18398   -0.02522    0.06073    0.03704 
AFIX  23 
H63A  2    0.305629    0.178672    0.875403    11.00000   -1.20000 
H63B  2    0.443996    0.157379    0.890775    11.00000   -1.20000 
AFIX   0 
C65   1    0.488567    0.162993    0.815735    11.00000    0.34543    0.28267 = 
         0.22744   -0.06987    0.08405   -0.02663 
AFIX  23 
H65A  2    0.477804    0.198148    0.816671    11.00000   -1.20000 
H65B  2    0.555269    0.154154    0.841804    11.00000   -1.20000 
AFIX   0 
C66   1    0.532593    0.150099    0.770879    11.00000    0.34793    0.27062 = 
         0.27087   -0.04108    0.10027   -0.00171 
AFIX 137 
H66A  2    0.507036    0.175179    0.747838    11.00000   -1.50000 
H66B  2    0.495053    0.119566    0.759399    11.00000   -1.50000 
H66C  2    0.624237    0.147190    0.776315    11.00000   -1.50000 
AFIX   0 
H2    2    1.640195    0.393964    0.863804    11.00000    0.03409 
H1    2   -0.410474    0.114701    0.618179    11.00000    0.07074 
HKLF    4 
  
  
  
  
REM  bf84a_scale_a.res in P2(1)/n 
REM wR2 = 0.1228, GooF = S = 0.995, Restrained GooF = 1.006 for all data 
REM R1 = 0.0458 for 10683 Fo > 4sig(Fo) and 0.0662 for all 14399 data 
REM 871 parameters refined using 152 restraints 
  
END 
  
WGHT      0.0655      0.0000 
  
REM Highest difference peak  1.156,  deepest hole -1.114,  1-sigma level  0.095 
Q1    1   1.1994  0.4580  0.7826  11.00000  0.05    1.16 
Q2    1  -0.1440  0.1887  0.5273  11.00000  0.05    1.05 
Q3    1   0.5000  0.5000  0.5000  10.50000  0.05    0.93 
Q4    1   1.3446  0.4567  0.7800  11.00000  0.05    0.92 
Q5    1   1.3486  0.4580  0.8250  11.00000  0.05    0.83 
;
_shelx_res_checksum              62470
_shelx_fab_file
; 
-12 0 -4 -1.3278 -0.0987 
-12 0 -2 3.2596 0.4115 
-12 0 0 -0.4471 -0.2123 
-12 0 2 -1.0462 1.9231 
-12 0 4 -3.6923 -0.1526 
-12 0 6 0.7215 0.1232 
-12 0 8 4.2805 -0.1043 
-12 0 12 -0.8254 -0.0900 
-12 0 14 2.0416 -0.4756 
-12 1 -4 -2.9074 -1.4051 
-12 1 -3 -0.5934 -0.5282 
-12 1 -2 0.8931 0.5250 
-12 1 -1 0.4725 0.7689 
-12 1 0 0.2560 -1.1409 
-12 1 1 0.4277 -0.1656 
-12 1 2 0.8674 0.0814 
-12 1 3 -0.3299 0.1204 
-12 1 4 -2.9785 1.2480 
-12 1 5 -1.5025 0.5619 
-12 1 6 -4.9902 -0.5021 
-12 1 7 1.8766 -0.5294 
-12 1 8 -2.3855 1.4316 
-12 1 9 1.1609 0.3598 
-12 1 11 -0.4997 -0.0415 
-12 1 12 -0.5386 -0.7579 
-12 1 13 -0.1833 -0.3216 
-12 1 14 1.2213 0.1252 
-12 1 15 1.2097 0.5467 
-12 2 -4 1.2504 0.1521 
-12 2 -3 -1.9115 -0.3832 
-12 2 -2 -1.6749 -0.0791 
-12 2 -1 0.1424 -0.0664 
-12 2 0 0.8699 0.1574 
-12 2 1 -0.6056 0.0996 
-12 2 2 0.8926 -1.3532 
-12 2 3 1.0008 -0.4091 
-12 2 4 3.1380 0.3753 
-12 2 5 -1.6645 0.4082 
-12 2 6 0.2641 -0.1844 
-12 2 7 -1.5937 0.0467 
-12 2 8 -0.0382 -0.1367 
-12 2 9 1.6651 -0.1229 
-12 2 10 -2.4488 1.2551 
-12 2 11 0.4739 0.2918 
-12 2 12 0.0934 -0.0876 
-12 2 13 0.9389 -0.3364 
-12 2 14 -1.0932 0.4143 
-12 2 15 0.1629 -0.2151 
-12 3 -4 2.3778 0.6264 
-12 3 -3 -1.8486 -0.0253 
-12 3 -2 -0.7520 -0.8760 
-12 3 -1 1.2252 -0.2163 
-12 3 0 1.4274 0.5874 
-12 3 1 -0.0796 0.1980 
-12 3 2 -1.8962 -0.1575 
-12 3 3 0.0529 -0.0959 
-12 3 4 1.4785 -0.3057 
-12 3 5 -0.5097 -0.2048 
-12 3 6 0.8779 0.6454 
-12 3 7 -2.2966 0.3924 
-12 3 8 3.6923 -0.4929 
-12 3 9 -2.5767 -0.1366 
-12 3 10 1.3393 0.2891 
-12 3 11 -4.6602 0.1797 
-12 3 12 -2.3903 0.3084 
-12 3 13 -3.2615 0.1179 
-12 3 14 0.0738 -0.4549 
-12 3 15 -0.0809 -0.4050 
-12 4 -4 -2.2798 0.7529 
-12 4 -3 0.0178 0.7379 
-12 4 -2 0.3089 0.0434 
-12 4 -1 -1.2871 0.3894 
-12 4 0 0.0738 -0.3171 
-12 4 1 3.2485 -0.1227 
-12 4 2 0.1606 0.4413 
-12 4 3 -0.0446 0.2412 
-12 4 4 -2.5892 -0.4168 
-12 4 5 1.7933 -0.5306 
-12 4 6 -1.6837 0.1732 
-12 4 7 -0.9165 -0.4576 
-12 4 8 -1.8934 0.1070 
-12 4 9 3.7509 -0.1860 
-12 4 10 3.0262 -0.3895 
-12 4 11 -2.1192 -0.6022 
-12 4 12 -2.8820 0.1875 
-12 4 13 -5.1297 0.4156 
-12 4 14 -1.2198 -0.2834 
-12 5 -3 2.9806 -0.2714 
-12 5 -2 0.8131 0.5371 
-12 5 -1 -4.1690 -0.0856 
-12 5 0 0.2833 -0.2869 
-12 5 1 1.1809 -0.1963 
-12 5 2 1.4551 -0.1822 
-12 5 3 2.1878 -0.2096 
-12 5 4 0.1704 0.1926 
-12 5 5 3.5139 0.1698 
-12 5 6 0.0847 -0.7284 
-12 5 7 1.8414 -0.3224 
-12 5 8 -0.7448 0.5064 
-12 5 9 3.8516 0.0721 
-12 5 10 1.7837 -0.2889 
-12 5 11 9.4929 -0.1465 
-12 5 12 1.5151 0.2686 
-12 5 13 0.4948 0.1523 
-12 5 14 -3.7240 0.2465 
-12 6 -2 -1.8545 -0.1313 
-12 6 -1 2.3337 -0.5926 
-12 6 0 -0.0771 0.4361 
-12 6 1 -5.8163 0.0237 
-12 6 2 2.2715 -0.1490 
-12 6 3 -0.5969 -0.1338 
-12 6 4 -0.5389 0.7412 
-12 6 5 -1.5657 0.4146 
-12 6 6 0.1287 -0.0421 
-12 6 7 1.9766 0.5296 
-12 6 8 -1.8121 -0.1495 
-12 6 9 -2.4932 0.3898 
-12 6 10 1.3434 0.2268 
-12 6 11 3.9912 0.3862 
-12 6 12 0.8734 -0.5406 
-12 6 13 2.5035 -0.1744 
-12 7 -1 5.3463 0.3237 
-12 7 0 -3.3315 0.4753 
-12 7 1 1.4707 0.4087 
-12 7 2 -1.2577 -0.1552 
-12 7 3 -1.7652 -0.1756 
-12 7 4 1.3229 -0.1348 
-12 7 5 -3.3128 0.0162 
-12 7 6 -1.5076 0.4239 
-12 7 7 -3.2549 -0.2257 
-12 7 8 -1.2875 -0.6745 
-12 7 9 -1.2287 0.2020 
-12 7 10 -1.6248 0.0643 
-12 7 11 -2.5505 -0.1268 
-12 7 12 1.5856 -0.2535 
-12 8 0 2.7186 -0.3897 
-12 8 1 1.8623 0.0989 
-12 8 2 -3.5368 -0.0826 
-12 8 3 1.8301 0.1065 
-12 8 4 2.0714 -0.8872 
-12 8 5 2.2518 0.0016 
-12 8 6 0.5918 0.0963 
-12 8 7 -1.1096 -0.3274 
-12 8 8 1.2538 -0.1808 
-12 8 9 -0.4641 0.0324 
-12 8 10 0.9630 -0.1060 
-12 8 11 1.8866 -0.0562 
-12 9 2 1.0605 0.3856 
-12 9 3 -3.3931 0.1337 
-12 9 4 -0.5164 0.0220 
-12 9 5 0.7079 0.2377 
-12 9 6 2.7846 0.2663 
-12 9 7 -0.3967 0.1201 
-12 9 8 -0.5215 0.4312 
-12 9 9 -2.0055 -0.0904 
-11 0 -9 -2.9937 -2.3364 
-11 0 -7 0.9606 0.7385 
-11 0 -5 -3.1942 -0.3209 
-11 0 -3 3.2470 0.5510 
-11 0 -1 1.5742 0.6450 
-11 0 1 -1.7074 -0.4275 
-11 0 3 -3.5387 0.3509 
-11 0 5 -0.0926 -0.9185 
-11 0 7 7.2868 -0.3775 
-11 0 9 1.0827 0.2098 
-11 0 11 -0.5447 -0.2264 
-11 0 15 0.1263 0.2214 
-11 0 17 -4.9644 -0.1156 
-11 0 19 2.4350 -0.0181 
-11 0 21 -0.5103 -1.6099 
-11 1 -10 1.1907 0.4276 
-11 1 -9 1.1278 0.0004 
-11 1 -8 -1.2152 0.0677 
-11 1 -7 -0.0129 -0.8144 
-11 1 -6 -0.2958 0.0309 
-11 1 -5 1.0497 0.8374 
-11 1 -4 -2.0882 0.5871 
-11 1 -3 -4.0925 -0.9622 
-11 1 -2 1.4451 -0.3824 
-11 1 -1 4.1556 0.9815 
-11 1 0 0.4075 0.5115 
-11 1 1 -0.8996 0.2158 
-11 1 2 -1.1581 0.0544 
-11 1 3 0.0814 0.0868 
-11 1 4 -1.9362 -0.3280 
-11 1 5 -7.6300 0.6606 
-11 1 6 2.0116 0.5345 
-11 1 7 -2.2651 -1.1473 
-11 1 8 1.2486 -0.4910 
-11 1 9 0.9176 0.1578 
-11 1 10 -0.1653 0.2212 
-11 1 11 -1.4065 -0.6313 
-11 1 12 -1.1531 0.2206 
-11 1 13 -1.3029 -0.1192 
-11 1 14 0.4903 -0.2952 
-11 1 15 1.9916 0.6849 
-11 1 16 1.9734 0.2366 
-11 1 17 -2.2904 0.2492 
-11 1 18 -0.0589 -0.5153 
-11 1 19 -2.1601 0.5208 
-11 1 20 0.7302 0.0348 
-11 1 21 0.1528 -0.0340 
-11 2 -10 -0.2485 0.1618 
-11 2 -9 -0.4076 1.2958 
-11 2 -8 -0.0396 -0.5453 
-11 2 -7 -1.0294 -0.8207 
-11 2 -6 -0.6565 -0.6421 
-11 2 -5 3.9276 0.9495 
-11 2 -4 -2.6670 0.0907 
-11 2 -3 -2.5324 -0.2465 
-11 2 -2 -2.3177 0.1239 
-11 2 -1 0.0519 -0.5309 
-11 2 0 1.3346 -0.2889 
-11 2 1 -0.5346 0.5783 
-11 2 2 0.2926 0.5075 
-11 2 3 1.6542 -0.4189 
-11 2 4 -2.0112 -0.2828 
-11 2 5 2.5249 0.6238 
-11 2 6 -2.2063 -0.0814 
-11 2 7 -1.9734 0.2778 
-11 2 8 2.8213 0.0052 
-11 2 9 -0.4356 -0.4702 
-11 2 10 1.2198 -0.5776 
-11 2 11 0.3567 0.4455 
-11 2 12 1.5254 0.5061 
-11 2 13 -2.0527 -0.6868 
-11 2 14 0.2030 -0.1923 
-11 2 15 1.5710 0.2803 
-11 2 16 1.8280 0.1882 
-11 2 17 2.5312 0.8572 
-11 2 18 1.2205 0.5448 
-11 2 19 0.0169 0.6984 
-11 2 20 2.8101 0.1710 
-11 2 21 2.6381 0.9550 
-11 3 -10 -2.3813 -0.0515 
-11 3 -9 1.6969 -0.0146 
-11 3 -8 0.9048 0.3581 
-11 3 -7 -2.5982 -0.4115 
-11 3 -6 0.8789 -0.4293 
-11 3 -5 0.0803 -0.7623 
-11 3 -4 1.4070 -0.6802 
-11 3 -3 3.2529 0.5176 
-11 3 -2 -3.0232 0.0256 
-11 3 -1 -0.4537 -0.7920 
-11 3 0 1.2316 -0.3166 
-11 3 1 1.9304 -0.1065 
-11 3 2 0.0372 0.2747 
-11 3 3 -4.3249 0.2788 
-11 3 4 0.9869 0.5038 
-11 3 5 1.5085 -0.5924 
-11 3 6 -2.7463 0.1669 
-11 3 7 3.4675 1.1238 
-11 3 8 -1.4746 0.3372 
-11 3 9 2.3603 -0.1856 
-11 3 10 -1.7987 -0.2805 
-11 3 11 0.9642 0.2765 
-11 3 12 -3.3102 -0.3100 
-11 3 13 1.6199 0.3097 
-11 3 14 -1.1037 0.0278 
-11 3 15 -1.5890 -0.9329 
-11 3 16 0.7975 -0.9275 
-11 3 17 1.1794 0.2494 
-11 3 18 -1.7118 -0.3282 
-11 3 19 -0.9354 0.0169 
-11 3 20 2.1067 -0.1761 
-11 3 21 3.6022 0.1364 
-11 4 -10 4.7177 0.2274 
-11 4 -9 0.5118 0.0803 
-11 4 -8 0.1175 0.3702 
-11 4 -7 0.8614 0.6540 
-11 4 -6 1.5968 1.0309 
-11 4 -5 -3.6861 -0.4797 
-11 4 -4 3.7358 0.6764 
-11 4 -3 1.8190 0.2874 
-11 4 -2 -0.2165 0.0427 
-11 4 -1 -0.9496 0.2881 
-11 4 0 0.5893 0.0955 
-11 4 1 4.2813 -0.5324 
-11 4 2 1.1894 -0.6845 
-11 4 3 -0.8728 0.6323 
-11 4 4 -0.5986 0.2274 
-11 4 5 -5.5281 -0.4512 
-11 4 6 -0.7871 -0.1698 
-11 4 7 -3.0103 -0.1331 
-11 4 8 -0.3756 0.1229 
-11 4 9 0.8844 0.4889 
-11 4 10 -0.9586 0.0644 
-11 4 11 -1.5162 -0.6063 
-11 4 12 -4.7728 -0.3965 
-11 4 13 -1.6209 0.3007 
-11 4 14 -6.2404 -0.0331 
-11 4 15 1.8299 -0.2693 
-11 4 16 -1.9184 -0.3512 
-11 4 17 -1.4096 -0.5650 
-11 4 18 -0.8600 -0.8777 
-11 4 19 -1.0943 0.3596 
-11 4 20 -1.7086 -0.5494 
-11 5 -10 0.1807 0.7263 
-11 5 -9 -0.0224 -0.3190 
-11 5 -8 0.6347 -0.1264 
-11 5 -7 -0.2375 -0.3434 
-11 5 -6 -1.0625 -0.4757 
-11 5 -5 -1.8768 0.4507 
-11 5 -4 1.0254 0.4867 
-11 5 -3 -0.6516 -0.7442 
-11 5 -2 2.2864 0.0716 
-11 5 -1 -0.1898 0.4028 
-11 5 0 -2.7257 0.4324 
-11 5 1 -0.1795 -0.5189 
-11 5 2 4.2304 -0.5973 
-11 5 3 5.9335 -0.2173 
-11 5 4 1.4252 -0.5283 
-11 5 5 0.7459 0.5007 
-11 5 6 2.3669 -0.3060 
-11 5 7 -1.5504 -0.7761 
-11 5 8 1.5839 -0.3412 
-11 5 9 0.3876 0.5501 
-11 5 10 7.1279 0.1378 
-11 5 11 1.7281 0.1156 
-11 5 12 1.7621 0.3066 
-11 5 13 -2.4889 -0.1927 
-11 5 14 0.2881 0.4905 
-11 5 15 -0.7868 0.2658 
-11 5 16 -2.6546 0.7637 
-11 5 17 1.8454 -0.3408 
-11 5 18 0.5295 0.7670 
-11 5 19 -1.5331 0.3461 
-11 5 20 -0.2168 0.2908 
-11 6 -10 -2.0063 -0.6491 
-11 6 -9 2.7897 0.1466 
-11 6 -8 -0.5178 -0.0877 
-11 6 -7 0.7039 -0.9919 
-11 6 -6 -2.0553 -0.4164 
-11 6 -5 -1.0635 0.1167 
-11 6 -4 -2.7376 -0.5560 
-11 6 -3 -2.6895 -0.0064 
-11 6 -2 4.0943 -0.4154 
-11 6 -1 0.8413 -0.3054 
-11 6 0 -2.6717 0.0256 
-11 6 1 -2.5480 0.5903 
-11 6 2 -1.6877 0.4265 
-11 6 3 1.0250 -0.6552 
-11 6 4 0.5934 0.0419 
-11 6 5 3.1905 0.6744 
-11 6 6 0.8983 0.1308 
-11 6 7 0.5428 -0.1131 
-11 6 8 1.0550 0.2802 
-11 6 9 1.0738 -0.2194 
-11 6 10 3.6187 -0.1730 
-11 6 11 2.0173 0.5371 
-11 6 12 6.2368 0.3480 
-11 6 13 0.6016 -0.0247 
-11 6 14 0.8264 0.0843 
-11 6 15 -1.2446 -0.2009 
-11 6 16 1.4331 0.4026 
-11 6 17 -0.3608 -0.3158 
-11 6 18 -2.8616 0.5011 
-11 6 19 0.2043 -0.6511 
-11 6 20 0.7698 0.9190 
-11 7 -9 -1.2981 0.7381 
-11 7 -8 1.6291 0.0264 
-11 7 -7 2.6838 0.7079 
-11 7 -6 0.2690 -0.1353 
-11 7 -5 1.1774 0.0099 
-11 7 -4 -3.4849 0.6077 
-11 7 -3 -1.6800 1.0586 
-11 7 -2 -0.3078 0.2492 
-11 7 -1 -0.1487 0.0216 
-11 7 0 5.1288 -0.0441 
-11 7 1 -2.5167 0.5950 
-11 7 2 -2.2048 0.2313 
-11 7 3 -2.8414 0.3131 
-11 7 4 -0.3222 0.1489 
-11 7 5 -3.3064 -0.2093 
-11 7 6 -4.7782 0.1657 
-11 7 7 -0.6551 0.3814 
-11 7 8 -2.7293 0.1627 
-11 7 9 -3.2225 -0.8251 
-11 7 10 -2.0682 0.0554 
-11 7 11 0.3810 -0.2659 
-11 7 12 1.3902 -0.3011 
-11 7 13 -2.5647 -0.0544 
-11 7 14 1.8625 -0.2066 
-11 7 15 -0.2440 -0.5840 
-11 7 16 0.9025 -0.5363 
-11 7 17 -1.4630 -0.4129 
-11 7 18 -1.5897 -0.4429 
-11 7 19 -0.9095 -0.5242 
-11 8 -9 -2.0046 0.1688 
-11 8 -8 -0.1091 0.3649 
-11 8 -7 0.0782 0.3167 
-11 8 -6 1.7498 -0.2702 
-11 8 -5 1.1041 -0.5168 
-11 8 -4 -0.0802 -0.4336 
-11 8 -3 -0.6860 -0.0410 
-11 8 -2 -5.6045 0.1062 
-11 8 -1 1.0594 -0.2395 
-11 8 0 0.5131 -0.0632 
-11 8 1 1.1448 -0.6062 
-11 8 2 1.0443 0.1527 
-11 8 3 0.9040 -0.0466 
-11 8 4 2.8210 -0.2154 
-11 8 5 -0.6994 -0.2563 
-11 8 6 2.0103 0.0019 
-11 8 7 -2.1276 0.0596 
-11 8 8 -1.8481 -0.2071 
-11 8 9 1.6711 0.1104 
-11 8 10 -0.6062 0.2922 
-11 8 11 0.6872 -0.5096 
-11 8 12 -0.0375 0.0126 
-11 8 13 0.8786 0.6374 
-11 8 14 0.9293 0.3036 
-11 8 15 -0.4004 0.0367 
-11 8 16 4.7908 -0.2170 
-11 8 17 2.1247 -0.0919 
-11 8 18 2.0258 -0.1787 
-11 8 19 -1.3501 -0.1482 
-11 9 -8 -1.0371 -0.0997 
-11 9 -7 -0.9446 -0.1439 
-11 9 -6 -0.0173 0.1323 
-11 9 -5 0.5123 -0.3335 
-11 9 -4 2.1147 0.0620 
-11 9 -3 0.0998 -0.4546 
-11 9 -2 -0.7502 -0.2799 
-11 9 -1 -0.9708 -0.0400 
-11 9 0 -2.9949 -0.2894 
-11 9 1 1.8073 -0.5295 
-11 9 2 -2.9101 -0.0109 
-11 9 3 0.4684 -0.3118 
-11 9 4 -1.7352 0.3122 
-11 9 5 6.2127 -0.0008 
-11 9 6 -0.2344 0.0423 
-11 9 7 -0.6584 0.0215 
-11 9 8 1.7374 0.1223 
-11 9 9 0.8259 0.6854 
-11 9 10 -0.2556 -0.0423 
-11 9 11 4.4376 0.1588 
-11 9 12 0.1649 -0.0002 
-11 9 13 1.6749 0.5702 
-11 9 14 -2.7072 0.3670 
-11 9 15 0.1874 1.0636 
-11 9 16 -0.3126 0.1820 
-11 9 17 2.1144 0.2050 
-11 9 18 2.5607 -0.0291 
-11 10 -7 1.3264 -0.1870 
-11 10 -6 -0.2056 -0.0488 
-11 10 -5 0.5690 0.5998 
-11 10 -4 0.5891 0.1329 
-11 10 -3 1.5667 0.4001 
-11 10 -2 3.1076 0.8480 
-11 10 -1 -0.6932 0.7385 
-11 10 0 1.6399 0.2367 
-11 10 1 1.6266 0.5515 
-11 10 2 -0.3490 -0.1375 
-11 10 3 -3.5151 0.0687 
-11 10 4 -1.2478 0.0699 
-11 10 5 -0.7428 0.2062 
-11 10 6 -3.0025 -0.2757 
-11 10 7 1.8613 -0.1263 
-11 10 8 -6.0470 -0.2366 
-11 10 9 -3.2289 -0.1586 
-11 10 10 0.0590 -0.2108 
-11 10 11 -0.7581 0.0676 
-11 10 12 -1.1049 -0.4373 
-11 10 13 2.4019 -0.3954 
-11 10 14 -2.3703 -0.4345 
-11 10 15 -1.6213 0.6457 
-11 10 16 -3.6241 0.0100 
-11 10 17 0.3601 0.2041 
-11 11 -6 1.1909 0.0103 
-11 11 -5 -0.4415 -0.2640 
-11 11 -4 -1.7497 -0.7101 
-11 11 -3 1.2661 -0.0740 
-11 11 -2 -0.4881 -0.6193 
-11 11 -1 -1.2328 -0.1966 
-11 11 0 2.1633 0.1303 
-11 11 1 0.0165 0.3025 
-11 11 2 2.2217 -0.0967 
-11 11 3 1.3578 0.0093 
-11 11 4 -0.0760 0.0026 
-11 11 5 -3.6166 -0.0714 
-11 11 6 5.7730 0.0587 
-11 11 7 -2.3735 0.1673 
-11 11 8 -2.9984 -0.5944 
-11 11 9 -0.5300 -0.4518 
-11 11 10 -3.2190 -0.3081 
-11 11 11 -2.0692 -0.1225 
-11 11 12 2.3913 -0.0093 
-11 11 13 -1.4527 -0.6487 
-11 11 14 -0.1221 -0.2507 
-11 11 15 0.3593 -0.2675 
-11 11 16 1.6724 0.0074 
-11 12 -5 -1.4912 -0.1649 
-11 12 -4 0.0114 0.2740 
-11 12 -3 -1.2066 -0.0981 
-11 12 -2 -1.3096 -0.3325 
-11 12 -1 2.1527 -0.4974 
-11 12 0 -2.5805 -0.6953 
-11 12 1 -1.5541 -0.2204 
-11 12 2 2.5526 -0.0170 
-11 12 3 1.3384 -0.0421 
-11 12 4 -2.4378 -0.0792 
-11 12 5 3.0790 -0.0514 
-11 12 6 2.2360 0.8646 
-11 12 7 0.3480 0.0708 
-11 12 8 5.2686 0.4490 
-11 12 9 -3.5352 0.1600 
-11 12 10 -1.5785 0.0324 
-11 12 11 2.9390 -0.2166 
-11 12 12 -0.1212 0.0399 
-11 12 13 -0.1035 0.1891 
-11 12 14 0.4504 0.0401 
-11 12 15 -2.2098 -0.4694 
-11 13 -4 -0.6242 0.3748 
-11 13 -3 -2.2198 0.2767 
-11 13 -2 2.5052 0.7868 
-11 13 -1 0.7600 0.1726 
-11 13 0 -0.3559 0.3111 
-11 13 1 1.9829 -0.0656 
-11 13 2 -0.2677 -0.2072 
-11 13 3 -0.2528 0.1224 
-11 13 4 0.6596 -0.1338 
-11 13 5 0.0814 0.0718 
-11 13 6 -3.5074 -0.1020 
-11 13 7 6.8277 -0.0223 
-11 13 8 1.1504 0.6435 
-11 13 9 -0.9479 0.1810 
-11 13 10 1.0856 0.2492 
-11 13 11 -2.2060 -0.3174 
-11 13 12 1.1505 0.3558 
-11 13 13 4.2746 0.0791 
-11 13 14 0.1589 0.2163 
-11 14 -2 -1.4155 -0.1114 
-11 14 -1 -1.1628 0.3286 
-11 14 0 2.7321 -0.0158 
-11 14 1 -0.2465 -0.4223 
-11 14 2 0.1523 0.0828 
-11 14 3 0.8460 0.1450 
-11 14 4 1.5665 -0.2075 
-11 14 5 -4.5810 -0.1011 
-11 14 6 -0.2820 -0.2989 
-11 14 7 -0.9391 0.2261 
-11 14 8 0.0040 -0.1941 
-11 14 9 3.8485 0.2046 
-11 14 10 -2.4367 0.0347 
-11 14 11 -2.0513 0.2391 
-11 14 12 1.0360 0.0966 
-11 15 0 0.3455 -0.3141 
-11 15 1 -0.8477 0.1623 
-11 15 2 1.2073 -0.1237 
-11 15 3 1.3406 -0.0503 
-11 15 4 1.5660 0.1196 
-11 15 5 0.3294 0.2862 
-11 15 6 0.3210 0.0935 
-11 15 7 -4.1585 -0.2390 
-11 15 8 2.7366 -0.0850 
-11 15 9 -1.9598 0.1897 
-11 15 10 0.9538 -0.2018 
-10 0 -8 -2.9169 -1.0005 
-10 0 -6 1.6491 0.8829 
-10 0 -4 -1.6944 -0.7770 
-10 0 -2 4.0952 -0.5289 
-10 0 0 -2.1532 -0.1493 
-10 0 2 -0.3711 -1.0369 
-10 0 4 0.3412 0.8737 
-10 0 6 5.8526 0.2138 
-10 0 8 1.7064 0.2217 
-10 0 10 -0.1327 0.7042 
-10 0 12 -1.1668 -0.7839 
-10 0 16 -0.7829 -0.2433 
-10 0 18 -0.5452 -0.5729 
-10 0 20 2.9769 0.4902 
-10 0 22 -0.5791 -0.0982 
-10 0 24 0.8179 0.9426 
-10 1 -9 0.3316 0.6840 
-10 1 -8 -1.6000 -0.6373 
-10 1 -7 0.0299 -0.1544 
-10 1 -6 -0.0509 0.1833 
-10 1 -5 -1.4757 -0.3163 
-10 1 -4 -1.4932 1.1000 
-10 1 -3 -1.6202 0.6306 
-10 1 -2 0.5166 -0.4217 
-10 1 -1 1.3034 -0.7460 
-10 1 0 1.7091 0.4068 
-10 1 1 -1.0483 0.3385 
-10 1 2 -1.2020 -0.5372 
-10 1 3 -1.0717 0.1889 
-10 1 4 -2.3606 -1.1092 
-10 1 5 2.5818 -0.3484 
-10 1 6 -2.2815 0.7712 
-10 1 7 -0.3809 0.7813 
-10 1 8 2.2678 -0.7503 
-10 1 9 -0.2946 -0.5337 
-10 1 10 -0.7804 0.7948 
-10 1 11 -0.9393 0.0172 
-10 1 12 -3.2205 0.4477 
-10 1 13 -1.4441 0.2438 
-10 1 15 2.7793 -0.7191 
-10 1 16 0.5942 0.3873 
-10 1 17 -1.5732 0.0471 
-10 1 18 -2.2170 -0.7677 
-10 1 19 0.9250 0.0260 
-10 1 20 0.1976 -0.5331 
-10 1 21 -1.1506 0.0102 
-10 1 22 0.4433 -0.0266 
-10 1 23 -0.1374 0.6094 
-10 1 24 1.0090 -0.8607 
-10 2 -9 1.8043 -1.1209 
-10 2 -8 0.5980 0.6704 
-10 2 -7 0.0934 0.3895 
-10 2 -6 -0.3367 -1.1086 
-10 2 -5 0.8927 -0.0486 
-10 2 -4 1.2640 0.9972 
-10 2 -3 -4.1274 0.2362 
-10 2 -2 -3.5079 0.4894 
-10 2 -1 -1.1253 -0.0891 
-10 2 0 1.2493 0.1535 
-10 2 1 -0.4024 -0.9071 
-10 2 2 -2.9164 0.9604 
-10 2 3 -3.2408 0.2503 
-10 2 4 2.3836 -0.9837 
-10 2 5 -0.7959 -0.4710 
-10 2 6 -1.5683 -0.0877 
-10 2 7 3.7375 -0.0243 
-10 2 8 -1.8198 -0.0879 
-10 2 9 0.1696 0.5147 
-10 2 10 3.9085 -0.7517 
-10 2 11 1.1994 -0.2407 
-10 2 12 -2.7844 0.7384 
-10 2 13 -1.2136 0.5656 
-10 2 14 -1.7440 0.0580 
-10 2 15 1.9360 -0.2384 
-10 2 16 -0.0274 0.5174 
-10 2 17 1.6960 -0.2842 
-10 2 18 -0.2608 0.8998 
-10 2 19 -0.0149 0.0165 
-10 2 20 0.9194 -0.5631 
-10 2 21 -0.0143 0.1410 
-10 2 22 -1.6378 0.1341 
-10 2 23 -1.8851 0.4108 
-10 2 24 -0.6084 0.0060 
-10 3 -9 -2.7438 -0.4511 
-10 3 -8 0.7478 0.5061 
-10 3 -7 0.6589 -1.1903 
-10 3 -6 0.5487 -0.2325 
-10 3 -5 2.1757 -0.0439 
-10 3 -4 2.7362 -1.0906 
-10 3 -3 0.7551 0.1527 
-10 3 -2 0.5612 0.2914 
-10 3 -1 -1.6081 0.9422 
-10 3 0 1.5269 -0.2946 
-10 3 1 1.3402 -0.1232 
-10 3 2 -1.9207 0.2623 
-10 3 3 -1.3075 -0.0268 
-10 3 4 -3.6854 0.7658 
-10 3 5 -2.2124 0.1967 
-10 3 6 5.0092 -0.8334 
-10 3 7 0.3382 -0.4739 
-10 3 8 -0.5903 0.8591 
-10 3 9 2.8457 0.0232 
-10 3 10 1.5177 -0.5926 
-10 3 11 -0.1433 0.1301 
-10 3 12 5.0927 -0.1303 
-10 3 13 -2.2116 0.1979 
-10 3 14 -0.9461 0.2909 
-10 3 15 0.7348 0.5330 
-10 3 16 1.1194 -0.4248 
-10 3 17 0.3371 -0.2184 
-10 3 18 -0.8040 0.8005 
-10 3 19 1.3102 -0.1705 
-10 3 20 1.5008 0.3464 
-10 3 21 0.4289 -0.3872 
-10 3 22 2.0606 -0.3003 
-10 3 23 -0.0649 0.1774 
-10 3 24 0.0584 0.4953 
-10 4 -9 -0.8483 1.1676 
-10 4 -8 -0.2354 -0.4404 
-10 4 -7 -0.3505 -0.0622 
-10 4 -6 0.4137 1.0241 
-10 4 -5 1.8655 -0.4021 
-10 4 -4 0.7024 -0.3643 
-10 4 -3 4.0999 -0.3527 
-10 4 -2 1.4407 -0.1338 
-10 4 -1 -0.3793 0.2129 
-10 4 0 1.5918 0.3156 
-10 4 1 2.8367 0.6517 
-10 4 2 4.4206 -0.5639 
-10 4 3 -0.9008 0.0374 
-10 4 4 -6.0463 0.6947 
-10 4 5 -2.8687 0.4269 
-10 4 6 -3.5550 -0.2228 
-10 4 7 -2.2817 0.0574 
-10 4 8 1.8357 -0.2228 
-10 4 9 -1.7271 -0.6019 
-10 4 10 -3.0031 0.5955 
-10 4 11 0.6846 -0.2891 
-10 4 12 -0.9140 -0.7391 
-10 4 13 -4.4442 -0.6018 
-10 4 14 1.5481 0.2637 
-10 4 15 -3.2888 0.0072 
-10 4 16 -0.2241 -0.1851 
-10 4 17 0.7719 0.0544 
-10 4 18 -0.0867 -0.1622 
-10 4 19 -0.9433 -0.0384 
-10 4 20 1.0840 0.5200 
-10 4 21 1.7391 -0.0822 
-10 4 22 0.3448 -0.3439 
-10 4 23 -1.0961 -0.7837 
-10 4 24 4.1014 -0.2018 
-10 5 -9 3.0683 0.5101 
-10 5 -8 -3.1119 -0.3571 
-10 5 -7 -2.8190 0.6801 
-10 5 -6 -3.3187 -0.1195 
-10 5 -5 -0.4342 0.1143 
-10 5 -4 0.2100 0.3612 
-10 5 -3 2.1151 0.1636 
-10 5 -2 0.0682 -0.6806 
-10 5 -1 0.3036 -0.7055 
-10 5 0 -1.9147 0.2598 
-10 5 1 1.1082 0.0059 
-10 5 2 5.0274 0.0608 
-10 5 3 4.1966 -0.4881 
-10 5 4 3.0733 -0.2980 
-10 5 5 -1.1514 0.0535 
-10 5 6 -3.5472 0.7397 
-10 5 7 -0.6394 0.2768 
-10 5 8 0.2348 -0.8133 
-10 5 9 0.8414 0.0555 
-10 5 10 2.1235 0.3831 
-10 5 11 -0.1119 -0.0641 
-10 5 12 -1.2044 0.1223 
-10 5 13 0.6583 -0.1652 
-10 5 14 -1.8841 -0.5808 
-10 5 15 -4.1262 -0.4095 
-10 5 16 1.7667 0.4904 
-10 5 17 -1.5331 0.0036 
-10 5 18 -4.1406 -0.2434 
-10 5 19 2.5044 0.1345 
-10 5 20 0.3661 0.6685 
-10 5 21 0.2021 0.2250 
-10 5 22 -1.7411 0.3337 
-10 5 23 -0.7758 0.0659 
-10 5 24 -1.3910 -0.8258 
-10 6 -9 1.9021 -0.5953 
-10 6 -8 2.3311 0.3186 
-10 6 -7 -1.3870 -0.0044 
-10 6 -6 -4.5399 -0.8088 
-10 6 -5 -3.5353 -0.0790 
-10 6 -4 -2.4140 0.5686 
-10 6 -3 0.1646 0.0642 
-10 6 -2 1.3462 -0.4008 
-10 6 -1 0.8908 0.1290 
-10 6 0 -2.0131 -0.7242 
-10 6 1 -2.5664 -0.1100 
-10 6 2 -0.8339 0.4864 
-10 6 3 2.3624 -0.0849 
-10 6 4 5.4909 -0.3571 
-10 6 5 2.1198 -0.4571 
-10 6 6 1.2373 0.6643 
-10 6 7 0.9271 0.1813 
-10 6 8 -0.2538 0.3762 
-10 6 9 3.1353 0.2504 
-10 6 10 2.7727 -0.4442 
-10 6 11 4.1339 0.3406 
-10 6 12 2.5124 0.7369 
-10 6 13 1.2402 0.5656 
-10 6 14 -0.3147 -0.4475 
-10 6 15 1.2331 0.0959 
-10 6 16 0.7450 -0.3610 
-10 6 17 -5.4952 -0.0861 
-10 6 18 1.1045 -0.0305 
-10 6 19 -1.4748 0.1046 
-10 6 20 -3.2528 -0.3742 
-10 6 21 4.4573 0.1500 
-10 6 22 0.3381 0.9064 
-10 6 23 0.0981 0.4119 
-10 7 -9 0.3640 -0.1846 
-10 7 -8 4.7975 0.2896 
-10 7 -7 3.0804 -0.4174 
-10 7 -6 1.0740 0.0871 
-10 7 -5 -3.0765 0.2932 
-10 7 -4 -3.0955 0.1247 
-10 7 -3 -1.0905 -0.1225 
-10 7 -2 0.1637 1.3163 
-10 7 -1 2.0801 0.2674 
-10 7 0 0.3344 -0.4389 
-10 7 1 -0.0068 0.0378 
-10 7 2 -4.6547 0.0366 
-10 7 3 -0.4206 0.5039 
-10 7 4 -2.5152 0.1705 
-10 7 5 -0.6769 -0.1546 
-10 7 6 0.6963 -0.5516 
-10 7 7 -2.7585 -0.0694 
-10 7 8 -3.1242 0.7839 
-10 7 9 -0.7654 -0.1108 
-10 7 10 -2.0006 -0.4011 
-10 7 11 2.9208 -0.1799 
-10 7 12 -0.5377 0.0590 
-10 7 13 2.7731 0.2615 
-10 7 14 -0.1752 0.2979 
-10 7 15 2.4301 0.2194 
-10 7 16 -2.0909 -0.7027 
-10 7 17 1.5243 0.1594 
-10 7 18 -0.0634 -0.2030 
-10 7 19 -7.1024 -0.1847 
-10 7 20 1.6346 -0.3259 
-10 7 21 1.6337 0.2354 
-10 7 22 0.7744 -0.3852 
-10 7 23 2.3792 0.3195 
-10 8 -9 -1.8479 0.6470 
-10 8 -8 0.6012 -0.2681 
-10 8 -7 1.5942 0.0409 
-10 8 -6 3.7898 0.1319 
-10 8 -5 -0.0439 -0.2313 
-10 8 -4 -1.4236 -0.7795 
-10 8 -3 -2.6830 0.1807 
-10 8 -2 -1.1515 0.2455 
-10 8 -1 -0.7755 0.0307 
-10 8 0 1.6421 0.5968 
-10 8 1 0.3034 -0.2387 
-10 8 2 1.0981 -0.6991 
-10 8 3 0.6772 0.1081 
-10 8 4 -2.7320 0.4118 
-10 8 5 3.2036 0.0297 
-10 8 6 -3.1457 -0.6578 
-10 8 7 0.5523 0.0997 
-10 8 8 0.8445 -0.3619 
-10 8 9 -3.4012 -0.0328 
-10 8 10 -1.7442 0.0868 
-10 8 11 0.2816 -0.0720 
-10 8 12 -1.5738 -0.4725 
-10 8 13 2.5429 -0.1223 
-10 8 14 0.5233 0.4234 
-10 8 15 2.9914 0.0855 
-10 8 16 1.7289 0.0585 
-10 8 17 5.2415 0.0459 
-10 8 18 -3.1903 -0.3253 
-10 8 19 -0.3267 -0.0430 
-10 8 20 -1.4021 -0.0070 
-10 8 21 -2.6104 -0.2175 
-10 8 22 1.0196 -0.5129 
-10 8 23 0.4788 -0.4091 
-10 9 -9 -0.6303 0.0657 
-10 9 -8 -2.4726 -0.2721 
-10 9 -7 -0.2929 0.1866 
-10 9 -6 1.1062 -0.0761 
-10 9 -5 0.7232 -0.2762 
-10 9 -4 0.7376 -0.1486 
-10 9 -3 -1.0965 -0.2244 
-10 9 -2 -0.8062 -0.9628 
-10 9 -1 -1.2877 0.0328 
-10 9 0 -0.2829 0.2145 
-10 9 1 -1.9004 0.1480 
-10 9 2 1.5287 -0.2725 
-10 9 3 -2.4026 -0.1411 
-10 9 4 4.8456 -0.1198 
-10 9 5 -2.3672 0.2100 
-10 9 6 0.3978 0.5628 
-10 9 7 3.0932 -0.1051 
-10 9 8 -0.2599 -0.3755 
-10 9 9 2.0922 0.2096 
-10 9 10 3.8275 0.2256 
-10 9 11 -3.5319 -0.1141 
-10 9 12 1.0622 -0.0784 
-10 9 13 -1.2523 0.1004 
-10 9 14 -1.7378 -0.1147 
-10 9 15 -0.0839 0.0491 
-10 9 16 4.3480 0.3243 
-10 9 17 0.9745 0.0105 
-10 9 18 1.7642 -0.0019 
-10 9 19 2.1205 -0.1437 
-10 9 20 -2.3717 0.0350 
-10 9 21 -1.8653 0.0715 
-10 9 22 0.0798 -0.1567 
-10 10 -9 0.7795 -0.2961 
-10 10 -8 1.4276 0.2539 
-10 10 -7 1.3337 0.1616 
-10 10 -6 -0.8995 -0.1044 
-10 10 -5 0.8981 0.0595 
-10 10 -4 0.4972 0.7826 
-10 10 -3 0.9853 -0.0088 
-10 10 -2 -0.2681 0.1270 
-10 10 -1 1.7937 -0.2561 
-10 10 0 1.2846 0.0679 
-10 10 1 -0.0491 0.1669 
-10 10 2 -1.6207 0.1885 
-10 10 3 -0.1049 -0.0160 
-10 10 4 -0.4742 -0.2695 
-10 10 5 -2.9746 0.2643 
-10 10 6 2.0847 0.2316 
-10 10 7 -8.2471 -0.1480 
-10 10 8 -0.4486 0.2986 
-10 10 9 1.1142 0.0617 
-10 10 10 -1.1304 -0.1221 
-10 10 11 1.1211 -0.2956 
-10 10 12 2.8113 0.5126 
-10 10 13 -5.3853 -0.3324 
-10 10 14 -1.7530 -0.1328 
-10 10 15 -1.6235 -0.1475 
-10 10 16 -1.6431 0.0545 
-10 10 17 -3.1826 0.1032 
-10 10 18 3.8070 0.0114 
-10 10 19 -1.9074 0.0315 
-10 10 20 -0.4956 0.1592 
-10 10 21 -1.3465 0.0198 
-10 10 22 0.8889 0.7500 
-10 11 -9 0.1375 -0.0820 
-10 11 -8 1.2817 0.6859 
-10 11 -7 1.9832 -0.1524 
-10 11 -6 2.0589 -0.0091 
-10 11 -5 0.1065 0.1070 
-10 11 -4 0.8416 -0.1823 
-10 11 -3 -0.8801 -0.0317 
-10 11 -2 -1.0138 0.3544 
-10 11 -1 1.3712 -0.0322 
-10 11 0 -0.8407 -0.1688 
-10 11 1 2.9795 -0.3427 
-10 11 2 1.1638 0.2155 
-10 11 3 0.4715 -0.2284 
-10 11 4 -0.8270 -0.1479 
-10 11 5 5.7317 -0.0799 
-10 11 6 -2.2314 -0.2306 
-10 11 7 -1.8030 -0.0292 
-10 11 8 -1.3393 0.0794 
-10 11 9 -6.4981 -0.0501 
-10 11 10 0.9837 -0.3469 
-10 11 11 3.3820 0.1558 
-10 11 12 -1.7562 0.1446 
-10 11 13 2.1076 -0.0927 
-10 11 14 1.5412 0.3269 
-10 11 15 -1.5218 -0.3694 
-10 11 16 -2.0790 -0.0983 
-10 11 17 4.4681 0.0168 
-10 11 18 -0.9939 0.1049 
-10 11 19 -3.0954 -0.0955 
-10 11 20 0.9771 -0.3577 
-10 11 21 -0.8445 0.1196 
-10 12 -9 -2.0301 -0.4138 
-10 12 -8 -3.0456 -0.5814 
-10 12 -7 0.0311 -0.1470 
-10 12 -6 0.3383 0.2427 
-10 12 -5 0.5767 -0.1405 
-10 12 -4 0.5563 -0.3156 
-10 12 -3 -1.0546 0.2141 
-10 12 -2 2.2342 0.0521 
-10 12 -1 -4.1684 0.0079 
-10 12 0 -0.3516 -0.1603 
-10 12 1 1.0204 0.1601 
-10 12 2 -1.0696 -0.1294 
-10 12 3 -0.8153 -0.0147 
-10 12 4 2.0108 0.0812 
-10 12 5 1.8111 -0.1007 
-10 12 6 2.8881 -0.0458 
-10 12 7 5.9037 0.0725 
-10 12 8 -3.8557 0.1524 
-10 12 9 -1.2125 -0.1605 
-10 12 10 0.4751 -0.1292 
-10 12 11 -3.1304 0.1173 
-10 12 12 3.1347 -0.4279 
-10 12 13 2.8571 0.3209 
-10 12 14 -2.4083 0.4194 
-10 12 15 -1.3464 -0.2203 
-10 12 16 2.9611 -0.0654 
-10 12 17 2.6657 -0.0528 
-10 12 18 -1.5391 -0.0354 
-10 12 19 3.5412 -0.2838 
-10 12 20 -1.0341 -0.2925 
-10 13 -9 -0.4130 0.4646 
-10 13 -8 -0.9147 -0.2751 
-10 13 -7 -1.3045 0.1517 
-10 13 -6 -1.2520 -0.3878 
-10 13 -5 0.2959 -0.0283 
-10 13 -4 -2.1525 -0.1398 
-10 13 -3 2.1501 0.1508 
-10 13 -2 0.2229 0.0312 
-10 13 -1 -0.4350 0.2596 
-10 13 0 2.1754 0.2332 
-10 13 1 -3.0044 -0.1130 
-10 13 2 0.5893 0.0587 
-10 13 3 -1.1414 0.3024 
-10 13 4 -2.5933 0.0611 
-10 13 5 -3.0246 0.1535 
-10 13 6 4.2722 0.0115 
-10 13 7 1.3590 0.1420 
-10 13 8 2.2820 -0.0529 
-10 13 9 0.2422 -0.0120 
-10 13 10 -4.3556 0.3982 
-10 13 11 -0.0733 -0.3001 
-10 13 12 2.6455 -0.5502 
-10 13 13 -2.0019 0.2629 
-10 13 14 1.1557 0.0915 
-10 13 15 -0.2919 0.0179 
-10 13 16 -1.9356 0.1915 
-10 13 17 -2.3194 -0.1714 
-10 13 18 3.9744 0.1725 
-10 13 19 0.8304 0.3999 
-10 14 -9 -0.3972 0.1636 
-10 14 -8 1.9292 0.2378 
-10 14 -7 -0.8681 0.2845 
-10 14 -6 1.4350 0.2970 
-10 14 -5 -1.1176 -0.1120 
-10 14 -4 -1.0287 -0.3594 
-10 14 -3 -0.0661 -0.3299 
-10 14 -2 -0.9850 -0.2737 
-10 14 -1 4.0797 -0.0337 
-10 14 0 -0.7701 -0.0327 
-10 14 1 1.4011 -0.1885 
-10 14 2 2.7278 -0.0658 
-10 14 3 0.2090 -0.4371 
-10 14 4 -2.4373 0.2272 
-10 14 5 -1.8195 0.1754 
-10 14 6 -2.5297 0.2074 
-10 14 7 1.1533 -0.0563 
-10 14 8 2.3092 -0.0589 
-10 14 9 -0.5684 0.4353 
-10 14 10 0.2571 0.1427 
-10 14 11 -1.0039 -0.0310 
-10 14 12 -2.6773 0.1630 
-10 14 13 2.0353 0.1920 
-10 14 14 2.8295 -0.0846 
-10 14 15 -0.3605 0.3957 
-10 14 16 -0.9616 0.3097 
-10 14 17 1.7998 -0.0571 
-10 14 18 2.3172 0.4466 
-10 15 -8 -0.9196 0.1156 
-10 15 -7 1.3856 -0.1671 
-10 15 -6 1.9710 0.3571 
-10 15 -5 0.2009 0.3747 
-10 15 -4 0.1551 0.7963 
-10 15 -3 -3.2987 -0.0730 
-10 15 -2 -0.3860 -0.1100 
-10 15 -1 0.7766 0.0229 
-10 15 0 -1.0868 0.1068 
-10 15 1 2.8260 0.0765 
-10 15 2 0.9530 -0.1213 
-10 15 3 3.7071 -0.1702 
-10 15 4 2.1041 -0.0303 
-10 15 5 -0.0077 0.0041 
-10 15 6 -1.4942 0.1063 
-10 15 7 0.7437 -0.0013 
-10 15 8 -1.4938 0.3345 
-10 15 9 3.8060 -0.1858 
-10 15 10 -1.4332 0.0903 
-10 15 11 -1.3161 0.2385 
-10 15 12 -0.3208 0.0466 
-10 15 13 -0.9622 0.0890 
-10 15 14 -1.9574 -0.2704 
-10 15 15 0.0649 0.5081 
-10 15 16 -0.1311 0.0654 
-10 15 17 -0.4105 -0.1945 
-10 16 -7 0.9764 -0.4110 
-10 16 -6 -0.8123 -0.1807 
-10 16 -5 3.7465 0.1677 
-10 16 -4 -0.3487 0.1590 
-10 16 -3 -0.9478 0.2842 
-10 16 -2 -2.0710 0.7054 
-10 16 -1 -1.6917 0.0960 
-10 16 0 -1.0550 -0.2736 
-10 16 1 -0.8596 0.2072 
-10 16 2 -2.6417 0.0816 
-10 16 3 2.2524 -0.0046 
-10 16 4 0.5677 -0.1531 
-10 16 5 1.9519 0.0101 
-10 16 6 -0.3780 -0.0526 
-10 16 7 0.1385 0.2723 
-10 16 8 2.6107 -0.6303 
-10 16 9 0.6031 -0.2277 
-10 16 10 -1.8586 0.0056 
-10 16 11 4.0105 -0.4185 
-10 16 12 -1.4226 -0.1025 
-10 16 13 -0.6581 -0.4776 
-10 16 14 -0.9422 -0.3201 
-10 16 15 -1.5176 0.1213 
-10 16 16 -2.5464 -1.1116 
-10 17 -6 -1.3141 -0.4539 
-10 17 -5 0.6177 -0.4628 
-10 17 -4 0.9248 -0.7583 
-10 17 -3 0.0457 0.1376 
-10 17 -2 -2.1216 -0.0169 
-10 17 -1 -0.3176 -0.1278 
-10 17 0 0.0809 0.0292 
-10 17 1 -0.8534 -0.1310 
-10 17 2 -1.8871 -0.5315 
-10 17 3 -0.9268 -0.1265 
-10 17 4 -0.3510 -0.3569 
-10 17 5 -1.2275 -0.1750 
-10 17 6 -2.8088 0.4012 
-10 17 7 0.8934 0.0460 
-10 17 8 0.0414 -0.0725 
-10 17 9 -0.6438 0.1183 
-10 17 10 2.3083 -0.3555 
-10 17 11 -0.6698 -0.0342 
-10 17 12 0.0055 -0.2331 
-10 18 -4 2.1809 0.0869 
-10 18 -3 -1.2093 -0.2632 
-10 18 -2 0.8835 -0.2475 
-10 18 -1 -4.7309 0.4378 
-10 18 0 1.3926 0.3636 
-10 18 1 -0.9907 -0.3114 
-10 18 2 1.2495 0.0308 
-10 18 3 -0.2136 0.0578 
-10 18 4 1.8437 -0.3368 
-10 18 5 -0.6100 -0.2691 
-10 18 6 1.4845 -0.1357 
-10 18 7 -3.9447 0.1688 
-10 18 8 -0.1187 0.4650 
-10 18 9 1.6235 0.0574 
-10 18 10 0.7192 0.2790 
-10 18 11 -2.0498 -0.0397 
-10 18 12 1.7553 0.4646 
-10 19 -1 -2.1360 0.3741 
-10 19 0 0.7565 0.2483 
-10 19 1 -4.5379 -0.0594 
-10 19 2 1.7173 0.1021 
-10 19 3 -3.5122 -0.0627 
-10 19 4 0.6552 0.1132 
-10 19 5 1.5503 0.1480 
-10 19 6 0.7654 -0.0982 
-10 19 7 -2.4842 -0.1073 
-10 19 8 0.9236 0.1065 
-10 19 9 -1.1319 0.1375 
-10 19 10 1.5616 -0.5402 
-9 0 -7 -0.4007 -5.0100 
-9 0 -5 1.2780 0.1759 
-9 0 -3 1.0652 -0.1462 
-9 0 -1 2.6561 0.0118 
-9 0 1 -0.4017 0.9108 
-9 0 3 -2.3394 -0.5129 
-9 0 5 2.7018 0.4881 
-9 0 7 -0.8661 -0.2837 
-9 0 9 2.6425 -0.9866 
-9 0 11 -1.7282 0.1827 
-9 0 13 -0.0976 -0.4012 
-9 0 17 -2.1563 0.7855 
-9 0 19 1.6773 -0.2311 
-9 0 21 1.9918 0.3739 
-9 0 23 -2.7586 -0.4644 
-9 0 25 -0.8323 -0.4526 
-9 0 27 1.0604 0.1816 
-9 1 -8 0.8424 -0.5692 
-9 1 -7 -2.9849 -0.4586 
-9 1 -6 -0.3626 -0.2799 
-9 1 -5 -0.9594 -2.1616 
-9 1 -4 -3.2367 -0.3509 
-9 1 -3 -1.3605 0.2068 
-9 1 -2 -0.9854 0.8522 
-9 1 -1 1.8354 -0.7416 
-9 1 0 1.3223 -0.3673 
-9 1 1 2.7369 0.1103 
-9 1 2 -0.8140 0.0495 
-9 1 3 0.6171 0.6962 
-9 1 4 3.1118 0.5427 
-9 1 5 -1.2701 -0.5445 
-9 1 6 0.8347 -0.8542 
-9 1 7 1.2525 1.4076 
-9 1 8 -1.6901 0.3877 
-9 1 9 -0.5054 -0.7329 
-9 1 10 1.6413 -0.4192 
-9 1 11 -0.1193 -0.2611 
-9 1 12 -3.1212 -0.2147 
-9 1 13 -3.3080 -0.1001 
-9 1 14 1.8704 0.6548 
-9 1 15 0.2789 -0.8268 
-9 1 16 -1.2806 -0.5429 
-9 1 17 0.6209 0.5140 
-9 1 18 -0.0844 0.3947 
-9 1 19 -1.8478 0.0490 
-9 1 20 1.3306 0.0594 
-9 1 21 2.3524 0.2482 
-9 1 22 0.5957 -0.4933 
-9 1 23 2.5191 0.4709 
-9 1 24 0.2005 0.2956 
-9 1 25 -1.7691 -0.4401 
-9 1 26 -0.0537 -0.9325 
-9 1 27 1.9163 -0.5051 
-9 2 -8 1.7271 0.5625 
-9 2 -7 0.7409 2.6004 
-9 2 -6 3.1271 -0.2699 
-9 2 -5 -1.0147 -0.3915 
-9 2 -4 -0.5110 -0.6393 
-9 2 -3 -2.2933 0.2452 
-9 2 -2 -5.0687 -0.6882 
-9 2 -1 -2.5237 0.5253 
-9 2 0 -2.0473 0.2072 
-9 2 1 -1.4301 -1.0249 
-9 2 2 -2.2291 -0.7035 
-9 2 3 1.3384 0.6312 
-9 2 4 -3.3484 0.7394 
-9 2 5 1.1091 -0.5363 
-9 2 6 5.0097 0.1642 
-9 2 7 -1.9552 0.1298 
-9 2 8 -0.4111 -0.3462 
-9 2 9 2.5450 1.0421 
-9 2 10 0.9276 0.4245 
-9 2 11 0.6293 -0.5337 
-9 2 12 -0.1768 -0.8480 
-9 2 13 -2.4455 0.4009 
-9 2 14 -0.1834 0.1217 
-9 2 15 -1.5758 -0.2569 
-9 2 16 2.1529 -0.0239 
-9 2 17 -1.3356 -0.5269 
-9 2 18 -1.7439 -0.2147 
-9 2 19 1.2706 0.3518 
-9 2 20 -0.7848 0.7924 
-9 2 21 -2.4264 -0.5906 
-9 2 22 0.9462 -0.1678 
-9 2 23 2.7410 0.4822 
-9 2 24 -0.0615 -0.2654 
-9 2 25 -0.9112 0.4512 
-9 2 26 -2.0797 -0.4605 
-9 2 27 -1.0589 0.1150 
-9 3 -8 -0.6560 0.1044 
-9 3 -7 2.6204 0.5241 
-9 3 -6 1.3500 0.3290 
-9 3 -5 2.4534 0.4994 
-9 3 -4 4.0312 0.8574 
-9 3 -3 1.8922 -0.7007 
-9 3 -2 0.2511 -0.4112 
-9 3 -1 -0.5066 0.6667 
-9 3 0 -1.8182 0.0308 
-9 3 1 -0.3457 0.1234 
-9 3 2 -0.6243 -0.5820 
-9 3 3 -4.4780 -0.7888 
-9 3 4 -2.9931 -0.2483 
-9 3 5 2.0711 0.7213 
-9 3 6 -1.8958 0.7729 
-9 3 7 1.1124 -1.3496 
-9 3 8 3.9843 0.0712 
-9 3 9 -1.7042 0.6610 
-9 3 10 1.5979 0.4762 
-9 3 11 5.0852 0.1969 
-9 3 12 -0.7909 0.3615 
-9 3 13 0.4162 -0.2594 
-9 3 14 -0.4022 -0.5078 
-9 3 15 1.7486 0.6848 
-9 3 16 0.1500 0.1348 
-9 3 17 -1.7518 -0.4985 
-9 3 18 0.9289 -0.5163 
-9 3 19 0.7557 0.1387 
-9 3 20 -1.7282 -0.0824 
-9 3 21 -0.5952 0.0156 
-9 3 22 -1.9156 0.7165 
-9 3 23 0.7942 -0.7806 
-9 3 24 2.4233 0.0586 
-9 3 25 0.4859 0.5648 
-9 3 26 -1.4244 0.0238 
-9 3 27 -1.6009 0.0779 
-9 4 -8 -2.1346 -0.2375 
-9 4 -7 -0.3451 -0.3702 
-9 4 -6 -0.1193 -0.6469 
-9 4 -5 2.7609 0.9352 
-9 4 -4 2.3788 0.3803 
-9 4 -3 0.9701 -0.0919 
-9 4 -2 3.4794 0.8811 
-9 4 -1 1.7318 -0.6695 
-9 4 0 2.2987 0.2365 
-9 4 1 2.3329 1.0870 
-9 4 2 0.3685 0.3027 
-9 4 3 0.1963 -0.7281 
-9 4 4 -1.2554 -0.7572 
-9 4 5 -4.3723 0.5422 
-9 4 6 -2.1481 -0.1544 
-9 4 7 1.7022 -0.0345 
-9 4 8 -2.2318 0.1159 
-9 4 9 -0.6111 -0.8515 
-9 4 10 1.6902 -0.2440 
-9 4 11 -1.6072 0.7341 
-9 4 12 0.2831 0.7021 
-9 4 13 0.5698 -0.4924 
-9 4 14 -2.3101 0.0131 
-9 4 15 0.7001 0.2214 
-9 4 16 0.7282 0.0787 
-9 4 17 -0.0392 0.3994 
-9 4 18 -1.0874 0.0510 
-9 4 19 2.4323 -0.2684 
-9 4 20 1.6627 -0.4010 
-9 4 21 0.7295 0.5795 
-9 4 22 -2.1967 0.0165 
-9 4 23 2.1254 -0.1166 
-9 4 24 1.7226 0.3308 
-9 4 25 4.3403 -0.1730 
-9 4 26 1.7982 0.7670 
-9 4 27 -1.6994 0.4714 
-9 5 -8 -2.0841 0.0807 
-9 5 -7 -3.5132 -0.4349 
-9 5 -6 -1.6747 -0.1173 
-9 5 -5 0.3940 -0.2574 
-9 5 -4 -0.1302 -0.9159 
-9 5 -3 0.4486 1.0612 
-9 5 -2 0.3524 0.4411 
-9 5 -1 -1.2947 -0.5801 
-9 5 0 1.3867 0.0080 
-9 5 1 -0.1107 0.0134 
-9 5 2 2.9780 0.6853 
-9 5 3 1.1473 0.4663 
-9 5 4 -0.4067 0.0141 
-9 5 5 -0.9488 -0.7940 
-9 5 6 -2.4172 -0.2981 
-9 5 7 -1.5381 1.0834 
-9 5 8 -0.6193 -0.3028 
-9 5 9 1.7255 -0.7363 
-9 5 10 -2.0545 -0.3858 
-9 5 11 1.4040 0.2000 
-9 5 12 0.3982 -0.2811 
-9 5 13 -1.0977 0.4305 
-9 5 14 -1.7507 0.2622 
-9 5 15 1.2743 -0.5099 
-9 5 16 -0.3203 -0.0712 
-9 5 17 -2.7182 0.4930 
-9 5 18 0.9495 0.1825 
-9 5 19 -3.0991 -0.1061 
-9 5 20 2.2137 0.0143 
-9 5 21 1.6390 0.0109 
-9 5 22 -2.0238 -0.1801 
-9 5 23 -3.3948 0.2337 
-9 5 24 0.1301 -0.2372 
-9 5 25 3.7463 -0.3845 
-9 5 26 -0.8797 -0.2318 
-9 5 27 1.2608 0.5537 
-9 6 -8 2.1737 -0.1516 
-9 6 -7 -2.9688 0.3084 
-9 6 -6 -3.3143 0.4008 
-9 6 -5 -3.3989 -1.1199 
-9 6 -4 0.4364 -0.4019 
-9 6 -3 2.7139 -0.0557 
-9 6 -2 -1.8083 -0.1422 
-9 6 -1 -0.0716 0.6466 
-9 6 0 -0.8577 -0.2310 
-9 6 1 0.9489 -0.7337 
-9 6 2 0.1299 0.0313 
-9 6 3 1.6249 0.9460 
-9 6 4 2.5997 0.2503 
-9 6 5 -0.4457 -0.4898 
-9 6 6 0.0917 0.3737 
-9 6 7 -0.9463 0.1150 
-9 6 8 -0.3263 -0.0099 
-9 6 9 0.8596 0.3362 
-9 6 10 2.0272 0.0310 
-9 6 11 1.9483 -0.7884 
-9 6 12 -0.4933 -0.2876 
-9 6 13 1.1344 0.5819 
-9 6 14 -0.7980 -0.1565 
-9 6 15 0.2096 -0.1146 
-9 6 16 -1.3664 -0.0764 
-9 6 17 4.0354 -0.1022 
-9 6 18 -4.3966 -0.2137 
-9 6 19 -4.6247 0.2017 
-9 6 20 3.9993 0.1330 
-9 6 21 -1.8801 -0.4157 
-9 6 22 0.0619 -0.2174 
-9 6 23 -3.8365 0.0475 
-9 6 24 -1.9410 0.1695 
-9 6 25 -4.0800 -0.6297 
-9 6 26 0.7730 -0.5905 
-9 7 -8 1.6619 0.0976 
-9 7 -7 0.2011 0.3560 
-9 7 -6 -0.2937 -0.0556 
-9 7 -5 -4.0636 0.3288 
-9 7 -4 0.0609 0.1007 
-9 7 -3 -0.0483 -0.9547 
-9 7 -2 1.6693 -0.1541 
-9 7 -1 1.1310 0.4022 
-9 7 0 -0.9491 0.1740 
-9 7 1 -0.2684 -0.3181 
-9 7 2 1.1463 -0.3873 
-9 7 3 1.2539 0.0285 
-9 7 4 -0.1491 0.0319 
-9 7 5 2.2073 0.8084 
-9 7 6 0.3585 -0.1754 
-9 7 7 -3.0311 -0.3873 
-9 7 8 -0.5104 0.3289 
-9 7 9 -2.6109 0.6754 
-9 7 10 2.0266 -0.0574 
-9 7 11 -0.4405 -0.3092 
-9 7 12 2.7038 0.2634 
-9 7 13 -0.0804 -0.5157 
-9 7 14 -0.7443 0.0229 
-9 7 15 -2.5057 0.3352 
-9 7 16 2.0804 0.0948 
-9 7 17 -0.1680 -0.3154 
-9 7 18 -1.9673 -0.0679 
-9 7 19 2.9602 0.4836 
-9 7 20 -3.0788 0.0673 
-9 7 21 1.7584 0.2572 
-9 7 22 6.6623 0.1994 
-9 7 23 1.2835 0.0223 
-9 7 24 -0.2455 0.3223 
-9 7 25 -0.0405 0.7362 
-9 7 26 2.0107 0.5632 
-9 8 -8 -1.7725 0.4714 
-9 8 -7 3.8134 -0.7045 
-9 8 -6 -0.5316 0.1542 
-9 8 -5 -1.7497 0.6356 
-9 8 -4 -2.2758 0.0892 
-9 8 -3 -2.7510 -0.0744 
-9 8 -2 2.6681 -0.2293 
-9 8 -1 -1.0995 -0.1737 
-9 8 0 -1.0259 0.2326 
-9 8 1 -0.8454 0.1105 
-9 8 2 0.0459 -0.2480 
-9 8 3 -2.0605 -0.8940 
-9 8 4 2.6207 0.2128 
-9 8 5 -0.3806 0.2509 
-9 8 6 1.8869 -0.2442 
-9 8 7 1.4146 -0.0733 
-9 8 8 -1.3167 0.0903 
-9 8 9 -2.5970 -0.0569 
-9 8 10 0.4552 -0.0927 
-9 8 11 -1.8174 0.7173 
-9 8 12 4.5258 0.0585 
-9 8 13 0.2035 -0.4791 
-9 8 14 3.2471 0.1179 
-9 8 15 1.6192 -0.0674 
-9 8 16 0.0035 0.2447 
-9 8 17 -2.4243 -0.1074 
-9 8 18 3.8951 0.0704 
-9 8 19 -2.9871 -0.4024 
-9 8 20 -3.8116 -0.0527 
-9 8 21 1.3998 0.5884 
-9 8 22 1.3088 -0.0667 
-9 8 23 2.8391 -0.0892 
-9 8 24 3.3998 -0.1009 
-9 8 25 3.3423 0.6665 
-9 8 26 0.9012 0.7732 
-9 9 -8 2.1606 -0.0705 
-9 9 -7 1.5617 -0.1727 
-9 9 -6 -1.5356 0.1345 
-9 9 -5 2.3649 -0.3430 
-9 9 -4 -3.0679 0.1161 
-9 9 -3 -0.8344 0.3688 
-9 9 -2 -0.4724 0.0000 
-9 9 -1 0.2433 -0.1774 
-9 9 0 1.4373 0.0793 
-9 9 1 -1.8803 0.4713 
-9 9 2 -2.0707 -0.0315 
-9 9 3 0.5948 -0.0805 
-9 9 4 -2.8025 -0.1734 
-9 9 5 -1.2592 -0.5058 
-9 9 6 1.7615 0.2545 
-9 9 7 0.8135 0.1677 
-9 9 8 2.1072 -0.0740 
-9 9 9 1.0505 -0.7374 
-9 9 10 -2.9329 0.0363 
-9 9 11 0.5160 0.2507 
-9 9 12 -1.4043 -0.0541 
-9 9 13 -1.3894 0.2274 
-9 9 14 3.1236 -0.2024 
-9 9 15 2.3631 -0.4252 
-9 9 16 -0.0436 0.0271 
-9 9 17 3.4361 0.1571 
-9 9 18 -0.5180 -0.0790 
-9 9 19 -2.2905 -0.6046 
-9 9 20 -1.0751 -0.1175 
-9 9 21 -3.9147 -0.4231 
-9 9 22 -4.4399 -0.0334 
-9 9 23 -0.7164 -0.3757 
-9 9 24 -0.4968 -0.6378 
-9 9 25 0.2448 -0.2035 
-9 10 -8 2.6760 -0.2577 
-9 10 -7 -0.5629 0.4681 
-9 10 -6 2.6612 -0.1600 
-9 10 -5 -0.0256 -0.2157 
-9 10 -4 -0.5100 -0.1739 
-9 10 -3 -0.2827 0.1850 
-9 10 -2 -1.7012 -0.0935 
-9 10 -1 2.9173 -0.0160 
-9 10 0 0.8087 -0.1719 
-9 10 1 1.9948 -0.1708 
-9 10 2 1.4955 0.4405 
-9 10 3 -0.1792 0.5140 
-9 10 4 -1.6458 -0.3434 
-9 10 5 -0.4310 -0.0962 
-9 10 6 -6.0124 0.1077 
-9 10 7 0.5957 0.2040 
-9 10 8 -0.7258 -0.0410 
-9 10 9 0.1948 -0.0337 
-9 10 10 0.3334 -0.0555 
-9 10 11 -0.1274 -0.6310 
-9 10 12 -3.7654 0.0279 
-9 10 13 -0.3831 0.4704 
-9 10 14 -3.5776 -0.0643 
-9 10 15 -2.7452 -0.3158 
-9 10 16 1.4070 -0.0339 
-9 10 17 3.2581 0.1135 
-9 10 18 -3.8041 0.1009 
-9 10 19 2.8680 0.1471 
-9 10 20 0.4235 -0.1191 
-9 10 21 -1.6910 -0.0729 
-9 10 22 -2.2664 0.0555 
-9 10 23 -0.7945 -0.3329 
-9 10 24 -0.7842 0.0972 
-9 10 25 -0.6015 -0.8379 
-9 11 -8 -0.1502 -0.1721 
-9 11 -7 3.0224 0.2955 
-9 11 -6 2.1597 -0.1171 
-9 11 -5 0.2089 0.0236 
-9 11 -4 1.3956 -0.0334 
-9 11 -3 -1.7783 -0.1963 
-9 11 -2 -0.7691 0.0350 
-9 11 -1 -2.8921 0.2156 
-9 11 0 0.8306 -0.3341 
-9 11 1 2.3249 -0.3494 
-9 11 2 0.1611 -0.0518 
-9 11 3 3.2900 -0.1966 
-9 11 4 4.0349 0.3763 
-9 11 5 -0.3318 0.1740 
-9 11 6 -0.9901 -0.1540 
-9 11 7 -1.4574 -0.1830 
-9 11 8 -2.8517 0.3420 
-9 11 9 2.0880 0.5708 
-9 11 10 -0.7292 -0.1875 
-9 11 11 0.7736 -0.2682 
-9 11 12 3.6247 0.0525 
-9 11 13 0.5478 0.1543 
-9 11 14 -1.4783 0.0211 
-9 11 15 -0.6399 0.0724 
-9 11 16 3.0468 0.0407 
-9 11 17 -3.1486 -0.1855 
-9 11 18 1.6372 0.3074 
-9 11 19 2.8732 0.2525 
-9 11 20 -2.7603 0.1906 
-9 11 21 0.2208 0.1985 
-9 11 22 0.2680 0.0341 
-9 11 23 -0.7339 0.5113 
-9 11 24 -0.1975 -0.2950 
-9 12 -8 -1.5345 0.1260 
-9 12 -7 -0.4318 -0.2751 
-9 12 -6 -0.2061 0.0308 
-9 12 -5 2.9207 0.3281 
-9 12 -4 -0.4127 0.0421 
-9 12 -3 2.9989 -0.2809 
-9 12 -2 -1.9581 0.1804 
-9 12 -1 -1.5532 0.1453 
-9 12 0 -1.0173 0.3682 
-9 12 1 -3.3958 0.0481 
-9 12 2 -0.0191 -0.4541 
-9 12 3 0.9880 -0.2045 
-9 12 4 1.1276 0.1989 
-9 12 5 3.9832 0.1179 
-9 12 6 2.5704 -0.1876 
-9 12 7 -1.2150 -0.0283 
-9 12 8 -0.4178 0.2544 
-9 12 9 -0.9469 -0.0417 
-9 12 10 -1.0493 0.1850 
-9 12 11 1.7893 0.2097 
-9 12 12 -1.1610 -0.1463 
-9 12 13 1.1173 0.0273 
-9 12 14 2.9488 -0.1027 
-9 12 15 1.7955 0.3021 
-9 12 16 -1.5611 -0.3804 
-9 12 17 0.7153 -0.2471 
-9 12 18 6.3622 0.0108 
-9 12 19 -3.2835 -0.0977 
-9 12 20 0.2488 -0.1176 
-9 12 21 1.7851 0.2008 
-9 12 22 -1.5501 0.3012 
-9 12 23 -2.3179 0.1965 
-9 12 24 -1.1377 0.0187 
-9 13 -8 -0.6663 -0.0173 
-9 13 -7 -3.1186 -0.1600 
-9 13 -6 0.2898 0.2709 
-9 13 -5 -2.6735 0.0327 
-9 13 -4 0.5689 0.0718 
-9 13 -3 1.9565 0.0994 
-9 13 -2 -0.0845 -0.0550 
-9 13 -1 2.2190 -0.1529 
-9 13 0 -3.5356 0.2033 
-9 13 1 0.1667 0.1993 
-9 13 2 -1.4783 0.0430 
-9 13 3 -4.8412 -0.1748 
-9 13 4 -0.9952 -0.0860 
-9 13 5 1.5935 -0.0614 
-9 13 6 1.5420 -0.1099 
-9 13 7 0.5660 0.2554 
-9 13 8 -1.6251 -0.4702 
-9 13 9 -0.0833 0.0535 
-9 13 10 -0.4794 0.2251 
-9 13 11 -2.6349 -0.0170 
-9 13 12 -2.5730 0.0666 
-9 13 13 0.7587 -0.0668 
-9 13 14 -1.3697 0.0884 
-9 13 15 -1.6820 0.2386 
-9 13 16 -0.5823 -0.2546 
-9 13 17 3.4820 0.1883 
-9 13 18 -2.6150 -0.2740 
-9 13 19 -0.3566 -0.3656 
-9 13 20 3.5218 -0.2366 
-9 13 21 -0.0380 0.0584 
-9 13 22 -0.7313 -0.6214 
-9 13 23 0.1889 0.0852 
-9 14 -8 -0.7914 0.0312 
-9 14 -7 1.8930 0.0794 
-9 14 -6 -0.6161 -0.2102 
-9 14 -5 -1.9842 -0.2519 
-9 14 -4 0.7432 -0.0397 
-9 14 -3 -1.9381 0.2291 
-9 14 -2 3.8719 -0.1867 
-9 14 -1 0.6422 -0.0722 
-9 14 0 0.9846 -0.1018 
-9 14 1 2.2844 0.1835 
-9 14 2 -1.2459 -0.0996 
-9 14 3 -0.2975 0.0737 
-9 14 4 -1.8591 -0.0593 
-9 14 5 -3.2267 -0.0879 
-9 14 6 1.9448 0.3814 
-9 14 7 -0.2051 -0.1449 
-9 14 8 1.6358 -0.2617 
-9 14 9 -0.3535 0.1835 
-9 14 10 -1.7251 -0.1118 
-9 14 11 1.6431 0.1425 
-9 14 12 0.4488 0.1384 
-9 14 13 -1.8902 0.1949 
-9 14 14 -1.1210 0.1716 
-9 14 15 0.7958 0.0512 
-9 14 16 2.5860 0.2738 
-9 14 17 -1.0291 0.3740 
-9 14 18 0.0404 0.1915 
-9 14 19 2.8588 -0.0462 
-9 14 20 -1.4126 0.3393 
-9 14 21 -1.3350 -0.3268 
-9 14 22 1.9836 -0.1000 
-9 15 -8 0.5464 -0.1495 
-9 15 -7 2.1456 0.1538 
-9 15 -6 0.5423 0.1146 
-9 15 -5 1.9194 -0.0348 
-9 15 -4 -2.7987 0.0497 
-9 15 -3 -1.1405 0.0258 
-9 15 -2 1.8965 0.0064 
-9 15 -1 1.1933 0.1213 
-9 15 0 3.2173 -0.0131 
-9 15 1 -0.0337 0.1196 
-9 15 2 4.0202 0.1283 
-9 15 3 4.5246 0.1509 
-9 15 4 -1.1789 -0.2535 
-9 15 5 0.3889 0.2356 
-9 15 6 0.0840 0.2766 
-9 15 7 1.1779 -0.0413 
-9 15 8 2.7258 0.2257 
-9 15 9 -3.4672 0.0154 
-9 15 10 2.3591 -0.1423 
-9 15 11 1.4887 -0.2601 
-9 15 12 -3.0871 0.2324 
-9 15 13 0.3945 0.1248 
-9 15 14 -1.3972 0.1262 
-9 15 15 -0.0341 0.0891 
-9 15 16 -1.1405 -0.1376 
-9 15 17 0.3302 0.5548 
-9 15 18 5.1769 0.3046 
-9 15 19 1.0697 0.3072 
-9 15 20 -0.8000 0.5375 
-9 15 21 0.3083 0.0699 
-9 16 -8 0.1526 0.1833 
-9 16 -7 -2.3063 0.0935 
-9 16 -6 2.6852 0.0226 
-9 16 -5 0.3916 0.2175 
-9 16 -4 -0.5483 0.1831 
-9 16 -3 -3.1349 0.0280 
-9 16 -2 -2.0803 0.2358 
-9 16 -1 -0.9196 -0.0822 
-9 16 0 -0.4468 -0.1524 
-9 16 1 -2.1326 -0.2061 
-9 16 2 1.1677 0.1758 
-9 16 3 -0.9745 -0.0881 
-9 16 4 3.5522 -0.0453 
-9 16 5 0.3782 -0.0891 
-9 16 6 -0.9392 -0.1266 
-9 16 7 2.6306 -0.1442 
-9 16 8 0.2276 0.2562 
-9 16 9 0.4662 -0.0178 
-9 16 10 3.5477 -0.2726 
-9 16 11 -4.0599 -0.1527 
-9 16 12 2.5370 -0.2334 
-9 16 13 -0.3271 -0.4379 
-9 16 14 -3.2508 0.3280 
-9 16 15 -1.5341 -0.5955 
-9 16 16 -4.7248 -0.2642 
-9 16 17 0.4345 -0.1465 
-9 16 18 -0.8419 -0.2515 
-9 16 19 0.0669 0.7425 
-9 16 20 2.8916 -0.1420 
-9 17 -8 -2.8521 0.0264 
-9 17 -7 -1.8148 -0.7115 
-9 17 -6 -0.5560 0.0844 
-9 17 -5 -0.0210 -0.0867 
-9 17 -4 1.1420 -0.3389 
-9 17 -3 -1.6008 -0.1487 
-9 17 -2 -1.6207 0.2214 
-9 17 -1 -2.5242 0.1459 
-9 17 0 1.8639 -0.1152 
-9 17 1 -1.7833 -0.3151 
-9 17 2 -3.5127 -0.2194 
-9 17 3 -2.4213 -0.1771 
-9 17 4 0.5608 0.0505 
-9 17 5 -3.1246 -0.0921 
-9 17 6 0.1380 -0.1921 
-9 17 7 -2.0379 -0.0212 
-9 17 8 0.6040 -0.0255 
-9 17 9 2.8285 -0.3094 
-9 17 10 -1.2280 0.1177 
-9 17 11 0.0591 0.1331 
-9 17 12 5.1860 -0.5544 
-9 17 13 -2.6743 -0.1657 
-9 17 14 2.3233 0.0428 
-9 17 15 -2.8032 -0.2661 
-9 17 16 0.8055 -0.3274 
-9 17 17 -2.1356 -1.2849 
-9 17 18 -3.6081 -0.3606 
-9 17 19 1.7915 -0.2008 
-9 18 -8 0.5700 -0.7605 
-9 18 -7 2.0822 0.2554 
-9 18 -6 -1.9976 0.2562 
-9 18 -5 1.3912 -0.0341 
-9 18 -4 0.4817 -0.0024 
-9 18 -3 1.5379 -0.0283 
-9 18 -2 -4.4459 -0.1513 
-9 18 -1 1.4532 0.1901 
-9 18 0 0.0880 0.2527 
-9 18 1 1.8880 0.1778 
-9 18 2 1.7146 -0.2312 
-9 18 3 0.4977 0.0012 
-9 18 4 -1.5706 -0.1137 
-9 18 5 1.3673 0.0088 
-9 18 6 -1.7313 0.0223 
-9 18 7 -1.5972 0.2103 
-9 18 8 0.0094 -0.1466 
-9 18 9 0.4392 -0.0755 
-9 18 10 -1.3270 0.2661 
-9 18 11 3.6457 0.2123 
-9 18 12 -0.5546 -0.2571 
-9 18 13 1.9686 0.2015 
-9 18 14 0.4385 0.1248 
-9 18 15 0.1934 0.1860 
-9 18 16 0.7568 0.1250 
-9 18 17 -3.3526 -0.2411 
-9 19 -8 1.6489 -0.1085 
-9 19 -7 -0.5465 0.0101 
-9 19 -6 -0.7562 -0.8312 
-9 19 -5 2.7452 0.1226 
-9 19 -4 1.5660 0.4273 
-9 19 -3 1.2012 0.0162 
-9 19 -2 -0.5503 -0.1356 
-9 19 -1 -0.9048 -0.0191 
-9 19 0 -6.1224 0.0661 
-9 19 1 3.5175 -0.0088 
-9 19 2 -0.8756 0.0416 
-9 19 3 1.3270 -0.0691 
-9 19 4 -0.5365 0.0875 
-9 19 5 1.6670 0.1141 
-9 19 6 -0.5840 0.0299 
-9 19 7 0.5190 0.1570 
-9 19 8 -1.9243 -0.0677 
-9 19 9 -0.5757 -0.0021 
-9 19 10 0.7880 0.2356 
-9 19 11 1.0608 -0.2568 
-9 19 12 -0.4228 0.4390 
-9 19 13 3.3662 0.6117 
-9 19 14 1.4743 -0.2360 
-9 19 15 2.0634 0.2789 
-9 19 16 -3.0869 0.9552 
-9 19 17 3.1226 -0.0426 
-9 20 -7 -1.6679 -0.7201 
-9 20 -6 -0.4917 -0.3699 
-9 20 -5 -1.0089 -0.3240 
-9 20 -4 0.6099 -0.3351 
-9 20 -3 3.3081 -0.1333 
-9 20 -2 3.6911 0.3526 
-9 20 -1 -2.2963 0.0646 
-9 20 0 0.2810 0.1105 
-9 20 1 -1.5606 -0.0343 
-9 20 2 -1.2202 -0.2003 
-9 20 3 1.3068 -0.3067 
-9 20 4 -1.5239 0.0187 
-9 20 5 -0.1229 -0.1692 
-9 20 6 -0.7310 0.4982 
-9 20 7 0.1205 0.0832 
-9 20 8 -1.7260 0.2016 
-9 20 9 -1.6508 0.3318 
-9 20 10 -1.0835 -0.3559 
-9 20 11 -2.7665 -0.3016 
-9 20 12 0.0645 0.4782 
-9 20 13 0.4987 -0.1535 
-9 20 14 1.4186 0.1912 
-9 20 15 -1.2643 1.0302 
-9 21 -5 -2.6920 -0.0526 
-9 21 -4 -0.5670 -0.1513 
-9 21 -3 1.0023 -0.0136 
-9 21 -2 1.5584 0.0079 
-9 21 -1 1.8785 0.1773 
-9 21 0 1.2104 0.4799 
-9 21 1 -2.9447 0.4486 
-9 21 2 1.9712 0.2106 
-9 21 3 -0.1244 0.0076 
-9 21 4 2.1497 -0.6638 
-9 21 5 -1.0892 -0.1551 
-9 21 6 -0.1584 -0.2915 
-9 21 7 0.8809 -0.0860 
-9 21 8 0.3124 0.3227 
-9 21 9 0.3879 0.0724 
-9 21 10 -2.2577 0.0533 
-9 21 11 -1.2543 0.2733 
-9 21 12 -0.7521 -0.7262 
-9 21 13 -1.2941 -0.5339 
-9 22 -2 1.2399 -0.4131 
-9 22 -1 2.0019 -0.2526 
-9 22 0 0.3168 -0.1034 
-9 22 1 -0.5650 0.1798 
-9 22 2 -1.4908 0.4014 
-9 22 3 0.0253 0.4394 
-9 22 4 1.7085 0.3078 
-9 22 5 -0.8360 -0.1685 
-9 22 6 0.7394 -0.4360 
-9 22 7 -1.3682 0.0009 
-9 22 8 1.2090 -0.5245 
-9 22 9 1.5605 -0.1073 
-9 22 10 0.3858 0.1663 
-8 0 -6 1.3484 -2.4346 
-8 0 -4 4.0903 1.1274 
-8 0 -2 2.0824 0.3103 
-8 0 0 -2.7911 -0.7617 
-8 0 2 -5.4035 -0.2753 
-8 0 4 -1.5894 -1.3105 
-8 0 6 1.8732 -0.0478 
-8 0 8 -0.6480 0.6061 
-8 0 10 1.6405 -0.2052 
-8 0 12 -4.7673 0.8860 
-8 0 14 1.9783 -0.0978 
-8 0 16 0.0293 -0.3374 
-8 0 18 0.1112 0.1343 
-8 0 20 0.3980 -0.8660 
-8 0 22 0.6128 0.2489 
-8 0 24 -5.0220 0.1478 
-8 0 26 1.4420 0.1298 
-8 0 28 -1.9361 1.6553 
-8 1 -7 0.9395 -0.8073 
-8 1 -6 -3.7238 -2.9080 
-8 1 -5 -2.4240 1.5676 
-8 1 -4 -1.1834 -0.8572 
-8 1 -3 -1.3092 -0.6812 
-8 1 -2 3.7587 0.7250 
-8 1 -1 0.3167 0.6856 
-8 1 0 3.5026 0.6455 
-8 1 1 0.0881 -0.6168 
-8 1 2 1.1407 -0.0463 
-8 1 3 1.5484 -0.5115 
-8 1 4 -4.3489 0.4120 
-8 1 5 4.6840 0.6012 
-8 1 6 0.0077 -1.5749 
-8 1 7 -1.5306 -0.8124 
-8 1 8 -0.7949 0.4226 
-8 1 9 1.5584 0.5282 
-8 1 10 1.2436 -0.4700 
-8 1 11 -1.3617 0.1363 
-8 1 12 -1.8542 -0.1466 
-8 1 13 -1.2604 -0.4257 
-8 1 14 -2.7565 1.0234 
-8 1 15 -0.4648 0.6382 
-8 1 16 0.0021 -0.4186 
-8 1 17 0.0263 -0.7436 
-8 1 18 -0.0871 0.6123 
-8 1 19 0.8885 -0.0718 
-8 1 20 -0.6499 -0.2888 
-8 1 21 1.1110 0.2680 
-8 1 22 3.2052 -0.6036 
-8 1 23 0.4347 -0.2458 
-8 1 24 -0.4545 0.2226 
-8 1 25 -1.1528 0.6267 
-8 1 26 -1.6868 -0.5741 
-8 1 27 1.2711 -0.0406 
-8 1 28 2.9701 -0.4314 
-8 1 29 -0.2770 -0.0694 
-8 2 -7 3.4766 -1.8345 
-8 2 -6 -0.5948 1.2760 
-8 2 -5 1.2229 -0.2819 
-8 2 -4 -4.4645 -1.0560 
-8 2 -3 -2.4116 0.7334 
-8 2 -2 -2.8756 -0.2843 
-8 2 -1 -1.9660 -0.1819 
-8 2 0 0.8522 1.0330 
-8 2 1 -1.3937 0.7312 
-8 2 2 1.9651 -0.0947 
-8 2 3 -4.8777 -0.9487 
-8 2 4 3.9633 1.2528 
-8 2 5 1.4791 -0.0247 
-8 2 6 -1.6450 -0.0826 
-8 2 7 5.1848 -0.1100 
-8 2 8 0.7203 -0.5802 
-8 2 9 -0.3488 -0.8198 
-8 2 10 1.1579 0.4850 
-8 2 11 3.0287 0.7975 
-8 2 12 0.4367 -1.0140 
-8 2 13 -0.5898 -0.2679 
-8 2 14 -0.9683 0.2283 
-8 2 15 0.7429 0.4289 
-8 2 16 -2.4040 0.4033 
-8 2 17 -0.7825 0.3955 
-8 2 18 1.0000 -0.2004 
-8 2 19 0.1802 -0.5092 
-8 2 20 -1.0393 0.9408 
-8 2 21 0.3874 0.0250 
-8 2 22 1.1821 -0.5413 
-8 2 23 2.9580 -0.7264 
-8 2 24 2.6969 0.0835 
-8 2 25 -2.0479 0.0237 
-8 2 26 -2.1496 0.2889 
-8 2 27 -0.7175 0.3249 
-8 2 28 0.9577 -0.6582 
-8 2 29 -0.2683 0.0273 
-8 3 -7 -0.1963 0.7914 
-8 3 -6 4.8522 0.8219 
-8 3 -5 3.2162 -2.0228 
-8 3 -4 1.5151 0.5636 
-8 3 -3 0.1507 0.2476 
-8 3 -2 -1.1286 -0.7869 
-8 3 -1 -0.3799 -0.3943 
-8 3 0 -0.7525 -0.3333 
-8 3 1 -0.6326 0.7513 
-8 3 2 -2.3957 0.2309 
-8 3 3 -0.8580 0.5343 
-8 3 4 -1.5170 -0.7308 
-8 3 5 -7.5772 -0.0875 
-8 3 6 4.3775 1.4082 
-8 3 7 0.2573 0.5291 
-8 3 8 -0.1598 -0.8600 
-8 3 9 2.6613 -0.5508 
-8 3 10 1.2682 0.4184 
-8 3 11 0.4086 -0.3386 
-8 3 12 1.1789 0.1512 
-8 3 13 0.4398 0.1340 
-8 3 14 2.0483 -0.9995 
-8 3 15 0.0594 -0.2820 
-8 3 16 -0.1975 0.4818 
-8 3 17 -0.7662 0.5242 
-8 3 18 -0.5893 -0.5906 
-8 3 19 0.1528 0.3100 
-8 3 20 0.1961 0.2278 
-8 3 21 -3.0784 -0.0264 
-8 3 22 -0.3924 0.3157 
-8 3 23 1.3303 0.0444 
-8 3 24 2.0223 -0.4315 
-8 3 25 0.2696 -1.1120 
-8 3 26 -0.2177 0.5739 
-8 3 27 -0.8337 -0.0055 
-8 3 28 0.0850 0.3857 
-8 3 29 -0.3868 0.1815 
-8 4 -7 -0.5837 1.3670 
-8 4 -6 1.2680 -0.5122 
-8 4 -5 1.1502 0.0827 
-8 4 -4 2.1700 0.5553 
-8 4 -3 1.1924 -0.4234 
-8 4 -2 1.3256 0.6847 
-8 4 -1 1.3631 -0.3008 
-8 4 0 0.6065 -0.7537 
-8 4 1 1.3591 -0.5472 
-8 4 2 3.4559 0.7820 
-8 4 3 1.3235 0.4629 
-8 4 4 -3.1107 -0.8257 
-8 4 5 1.0541 0.2331 
-8 4 6 -3.3666 0.1104 
-8 4 7 -4.6856 0.4569 
-8 4 8 3.3786 0.4297 
-8 4 9 -1.2063 0.6485 
-8 4 10 0.9212 -0.8638 
-8 4 11 0.8817 -0.4446 
-8 4 12 -0.7608 0.8768 
-8 4 13 -0.9726 0.0121 
-8 4 14 -0.6822 -0.3129 
-8 4 15 0.2703 -0.4307 
-8 4 16 0.5954 -0.1532 
-8 4 17 -2.8700 -0.2495 
-8 4 18 0.0409 0.4018 
-8 4 19 0.4316 0.5014 
-8 4 20 1.9771 -0.5678 
-8 4 21 -0.7825 0.3033 
-8 4 22 0.1652 0.4521 
-8 4 23 -0.4827 0.6810 
-8 4 24 3.5671 -0.0840 
-8 4 25 -0.4788 0.2071 
-8 4 26 0.3199 -0.1677 
-8 4 27 -0.5448 -0.6103 
-8 4 28 0.2118 0.4694 
-8 4 29 1.8090 -0.2094 
-8 5 -7 -1.5922 -0.4967 
-8 5 -6 -1.6657 0.1894 
-8 5 -5 0.0510 0.8915 
-8 5 -4 0.9192 -0.6128 
-8 5 -3 -0.1618 0.1032 
-8 5 -2 -1.6293 0.5893 
-8 5 -1 -1.0035 0.7426 
-8 5 0 -0.8498 -0.3391 
-8 5 1 0.8668 -0.7253 
-8 5 2 -2.4979 -0.2087 
-8 5 3 0.9971 -0.1467 
-8 5 4 3.5323 0.8763 
-8 5 5 -0.2244 -0.3978 
-8 5 6 -2.7397 -0.7917 
-8 5 7 1.4697 -0.1264 
-8 5 8 -3.2311 1.0248 
-8 5 9 -0.7762 0.3655 
-8 5 10 3.0969 -0.3306 
-8 5 11 -0.8050 0.4208 
-8 5 12 2.7196 -0.1895 
-8 5 13 -0.0698 0.1011 
-8 5 14 0.4795 0.6908 
-8 5 15 1.2594 0.1699 
-8 5 16 0.1101 -0.5127 
-8 5 17 -0.2977 -0.5360 
-8 5 18 -4.1064 0.4340 
-8 5 19 -0.6096 -0.3276 
-8 5 20 0.6943 0.2340 
-8 5 21 0.3370 0.1890 
-8 5 22 -1.1455 -0.2632 
-8 5 23 1.6402 0.0300 
-8 5 24 2.0405 0.5594 
-8 5 25 1.9276 0.7496 
-8 5 26 0.9240 -0.1429 
-8 5 27 -3.9792 0.0118 
-8 5 28 -0.4069 0.2086 
-8 5 29 -1.0670 -0.0226 
-8 6 -7 -0.5311 -0.6238 
-8 6 -6 -0.7734 0.5130 
-8 6 -5 -0.0005 -0.1970 
-8 6 -4 1.7564 -0.3361 
-8 6 -3 0.2472 -0.1075 
-8 6 -2 0.2610 0.1383 
-8 6 -1 -0.5525 0.5621 
-8 6 0 1.7148 0.5554 
-8 6 1 -2.5383 0.3257 
-8 6 2 -0.4187 -1.2142 
-8 6 3 -0.8130 0.0687 
-8 6 4 -2.8036 0.4242 
-8 6 5 0.3691 -0.0329 
-8 6 6 0.9818 -0.2519 
-8 6 7 -2.4302 -0.3281 
-8 6 8 -1.3579 -0.1692 
-8 6 9 1.1021 -0.4601 
-8 6 10 -2.2802 0.8679 
-8 6 11 0.4009 0.1252 
-8 6 12 1.4042 -0.5882 
-8 6 13 -0.7483 -0.0482 
-8 6 14 1.4868 0.3307 
-8 6 15 1.0631 0.3772 
-8 6 16 3.4520 0.0520 
-8 6 17 0.2013 0.1300 
-8 6 18 -0.6240 -0.7040 
-8 6 19 -2.4954 -0.4969 
-8 6 20 -3.6742 0.2732 
-8 6 21 0.8512 -0.2866 
-8 6 22 -2.7418 -0.4349 
-8 6 23 -2.8990 -0.4339 
-8 6 24 -2.1801 -0.1040 
-8 6 25 4.8149 0.0406 
-8 6 26 -0.7409 0.1090 
-8 6 27 0.7082 0.0246 
-8 6 28 -0.7724 0.0639 
-8 7 -7 0.7368 0.4098 
-8 7 -6 -2.5509 -0.3377 
-8 7 -5 0.8494 -0.5197 
-8 7 -4 -0.1775 -0.0339 
-8 7 -3 1.9183 -0.0522 
-8 7 -2 2.1255 -0.6170 
-8 7 -1 0.2848 -0.2962 
-8 7 0 0.8068 1.0217 
-8 7 1 3.4790 0.1998 
-8 7 2 4.0740 0.1896 
-8 7 3 -1.9347 -0.1953 
-8 7 4 2.6019 -0.5756 
-8 7 5 0.0710 0.3497 
-8 7 6 -1.3440 0.4714 
-8 7 7 -0.2059 -0.0006 
-8 7 8 -1.5386 -0.9174 
-8 7 9 -1.2309 -0.1518 
-8 7 10 -1.1229 0.2198 
-8 7 11 0.2222 -0.2947 
-8 7 12 -2.2117 0.2303 
-8 7 13 -1.3292 -0.1663 
-8 7 14 -1.5662 -0.3962 
-8 7 15 -0.7863 -0.1277 
-8 7 16 -1.1846 0.7883 
-8 7 17 4.3689 0.2996 
-8 7 18 0.8266 -0.1985 
-8 7 19 -2.4131 0.2129 
-8 7 20 0.7675 -0.0958 
-8 7 21 1.7169 0.0340 
-8 7 22 0.4447 0.0330 
-8 7 23 -0.0184 0.0013 
-8 7 24 -1.1115 -0.5607 
-8 7 25 -0.7874 -0.0765 
-8 7 26 0.5465 0.1812 
-8 7 27 3.9502 0.0959 
-8 7 28 -1.8400 -0.3246 
-8 8 -7 -4.3261 0.6499 
-8 8 -6 -1.3466 -0.5221 
-8 8 -5 -0.7640 -0.0295 
-8 8 -4 -3.0979 0.0688 
-8 8 -3 2.0904 -0.1758 
-8 8 -2 -1.9190 -0.5544 
-8 8 -1 -0.3060 -0.0953 
-8 8 0 -1.5573 -0.6928 
-8 8 1 0.3007 0.1880 
-8 8 2 -0.9445 0.9173 
-8 8 3 3.6595 -0.3628 
-8 8 4 0.4520 -0.2284 
-8 8 5 1.1995 0.0704 
-8 8 6 3.4271 0.4045 
-8 8 7 1.0896 0.0391 
-8 8 8 -1.0084 0.1853 
-8 8 9 1.1450 0.1764 
-8 8 10 -0.9370 -0.7205 
-8 8 11 3.0799 0.0175 
-8 8 12 -0.5909 0.3797 
-8 8 13 1.7398 0.0304 
-8 8 14 0.2012 -0.4079 
-8 8 15 -1.6997 -0.0770 
-8 8 16 0.9986 0.1124 
-8 8 17 0.8827 -0.0388 
-8 8 18 -1.5371 0.6430 
-8 8 19 2.7606 0.0039 
-8 8 20 -3.0041 0.0424 
-8 8 21 -1.5900 0.0869 
-8 8 22 2.8904 0.5575 
-8 8 23 4.3810 0.0150 
-8 8 24 0.9933 -0.2128 
-8 8 25 0.0472 0.2820 
-8 8 26 2.6822 -0.3067 
-8 8 27 -0.7966 -0.0304 
-8 8 28 0.2980 -0.3818 
-8 9 -7 -0.7452 -0.1176 
-8 9 -6 1.5083 0.3337 
-8 9 -5 -4.1698 0.4227 
-8 9 -4 0.7988 -0.0972 
-8 9 -3 -1.0246 -0.1079 
-8 9 -2 -0.5278 0.6917 
-8 9 -1 2.7101 -0.0987 
-8 9 0 -3.3073 -0.5870 
-8 9 1 -0.6140 0.0229 
-8 9 2 -1.6741 -0.1852 
-8 9 3 -1.5258 0.2213 
-8 9 4 -3.1872 0.2469 
-8 9 5 0.3409 -0.1954 
-8 9 6 -0.1265 -0.2815 
-8 9 7 1.8411 0.2025 
-8 9 8 1.1205 0.6910 
-8 9 9 -0.9753 -0.1907 
-8 9 10 0.4827 -0.1646 
-8 9 11 0.9824 0.0327 
-8 9 12 0.0545 -0.1833 
-8 9 13 2.1692 -0.0169 
-8 9 14 -0.3272 -0.0506 
-8 9 15 1.7501 -0.1235 
-8 9 16 2.2026 -0.6959 
-8 9 17 -2.4529 0.1186 
-8 9 18 3.8151 0.0533 
-8 9 19 -0.4286 -0.1652 
-8 9 20 -3.1255 -0.0458 
-8 9 21 -4.3992 -0.0278 
-8 9 22 -2.7135 0.0315 
-8 9 23 -1.9945 -0.2173 
-8 9 24 0.6898 0.6095 
-8 9 25 0.8471 -0.0348 
-8 9 26 -0.4457 -0.0741 
-8 9 27 -0.0322 0.4245 
-8 10 -7 4.5107 -0.3127 
-8 10 -6 -1.4215 0.5343 
-8 10 -5 -0.3538 0.0184 
-8 10 -4 0.2737 -0.2142 
-8 10 -3 -2.5396 -0.0800 
-8 10 -2 2.9800 0.2325 
-8 10 -1 -0.9711 0.0837 
-8 10 0 3.5799 0.4265 
-8 10 1 2.5525 -0.4685 
-8 10 2 0.1169 -0.4249 
-8 10 3 1.7644 0.1182 
-8 10 4 -1.1935 0.1735 
-8 10 5 -3.4839 -0.2910 
-8 10 6 -1.4731 -0.3505 
-8 10 7 -0.9301 0.2894 
-8 10 8 0.2253 -0.1745 
-8 10 9 -1.7442 0.0539 
-8 10 10 -1.1194 0.3068 
-8 10 11 -1.7630 -0.0634 
-8 10 12 0.3427 -0.1578 
-8 10 13 -1.9366 0.0074 
-8 10 14 -1.6803 0.2509 
-8 10 15 -0.5682 -0.1639 
-8 10 16 -1.0460 -0.2645 
-8 10 17 -0.0521 -0.1002 
-8 10 18 2.9982 -0.3613 
-8 10 19 -0.4992 0.0802 
-8 10 20 2.2223 -0.0352 
-8 10 21 -0.1456 -0.0202 
-8 10 22 -2.2173 -0.3829 
-8 10 23 -2.8308 0.1591 
-8 10 24 1.0316 -0.0560 
-8 10 25 -1.2470 0.1315 
-8 10 26 -0.2644 0.7711 
-8 10 27 1.0423 0.6525 
-8 11 -7 1.3621 -0.1591 
-8 11 -6 1.3412 -0.0924 
-8 11 -5 1.8757 -0.1320 
-8 11 -4 -2.6741 0.0899 
-8 11 -3 0.4194 -0.0716 
-8 11 -2 -3.5044 -0.4477 
-8 11 -1 -1.9025 0.2342 
-8 11 0 1.3782 0.2836 
-8 11 1 -2.5130 0.1019 
-8 11 2 4.8520 -0.2489 
-8 11 3 1.9375 0.0256 
-8 11 4 2.0735 -0.0421 
-8 11 5 0.7550 -0.0260 
-8 11 6 -1.2037 0.2353 
-8 11 7 -0.3278 -0.2146 
-8 11 8 1.4245 -0.3304 
-8 11 9 -0.2401 0.3240 
-8 11 10 0.0407 0.0580 
-8 11 11 -0.4263 0.1342 
-8 11 12 1.3158 -0.1356 
-8 11 13 2.1798 0.2067 
-8 11 14 0.1828 -0.0069 
-8 11 15 -0.6840 0.2696 
-8 11 16 -1.9187 0.2583 
-8 11 17 1.7726 -0.0707 
-8 11 18 -0.9415 -0.1795 
-8 11 19 -1.2263 0.0340 
-8 11 20 2.4914 0.0117 
-8 11 21 0.8884 -0.1441 
-8 11 22 -1.8373 -0.1597 
-8 11 23 2.0574 -0.3179 
-8 11 24 0.3254 -0.5051 
-8 11 25 1.0680 -0.1299 
-8 11 26 0.6724 -0.0036 
-8 12 -7 -0.9328 0.1516 
-8 12 -6 2.4001 -0.3049 
-8 12 -5 -1.0604 -0.1013 
-8 12 -4 3.2529 0.2825 
-8 12 -3 -0.4755 -0.0613 
-8 12 -2 -0.7116 -0.1810 
-8 12 -1 -0.0842 -0.0265 
-8 12 0 -4.3144 0.1486 
-8 12 1 -0.8029 0.3671 
-8 12 2 -0.5618 0.1327 
-8 12 3 -2.0304 -0.0072 
-8 12 4 4.8119 -0.2311 
-8 12 5 -0.4939 0.4992 
-8 12 6 0.3634 0.2249 
-8 12 7 -1.4698 -0.2099 
-8 12 8 1.5324 0.1223 
-8 12 9 1.0021 -0.0539 
-8 12 10 -1.0096 -0.0148 
-8 12 11 -1.5473 -0.0865 
-8 12 12 1.1512 0.3064 
-8 12 13 1.9984 -0.1661 
-8 12 14 2.0043 -0.3314 
-8 12 15 2.2121 0.2090 
-8 12 16 1.3466 0.0897 
-8 12 17 1.1206 0.2058 
-8 12 18 -1.7992 -0.0524 
-8 12 19 2.3914 0.1953 
-8 12 20 -0.0947 0.1398 
-8 12 21 -4.5239 0.1227 
-8 12 22 -0.8909 0.1614 
-8 12 23 -1.4599 -0.1413 
-8 12 24 -2.3751 -0.1418 
-8 12 25 1.5380 -0.3532 
-8 12 26 -0.3626 -0.1737 
-8 13 -7 -0.2484 0.3236 
-8 13 -6 -2.0895 0.0178 
-8 13 -5 0.4641 0.2845 
-8 13 -4 0.9202 -0.0050 
-8 13 -3 -1.2646 0.0499 
-8 13 -2 3.6600 -0.0422 
-8 13 -1 -1.5097 -0.3486 
-8 13 0 0.2942 -0.2422 
-8 13 1 0.1609 0.0052 
-8 13 2 -4.0110 0.1464 
-8 13 3 1.3829 -0.2777 
-8 13 4 -0.9284 -0.0758 
-8 13 5 0.3003 -0.0316 
-8 13 6 0.7335 -0.0507 
-8 13 7 -2.1586 0.1792 
-8 13 8 0.3932 0.3041 
-8 13 9 -2.0686 -0.0590 
-8 13 10 0.8368 -0.2416 
-8 13 11 -2.2620 0.1410 
-8 13 12 -4.1973 0.3835 
-8 13 13 -2.6638 -0.2384 
-8 13 14 0.7892 0.1659 
-8 13 15 1.2935 -0.3616 
-8 13 16 -0.1091 0.0773 
-8 13 17 -0.5492 0.1021 
-8 13 18 2.1447 0.0220 
-8 13 19 2.8894 -0.0282 
-8 13 20 -0.9862 0.0468 
-8 13 21 1.4956 0.3130 
-8 13 22 1.0097 0.3526 
-8 13 23 -4.9795 -0.1746 
-8 13 24 -0.7202 0.3684 
-8 13 25 -0.3461 0.1163 
-8 14 -7 0.1586 -0.2460 
-8 14 -6 -0.4643 0.2580 
-8 14 -5 0.6005 -0.0040 
-8 14 -4 -2.2836 -0.0094 
-8 14 -3 2.2950 0.2336 
-8 14 -2 0.0417 0.2963 
-8 14 -1 -0.3775 0.0043 
-8 14 0 0.9093 -0.1619 
-8 14 1 -1.3816 -0.1832 
-8 14 2 0.7667 -0.0209 
-8 14 3 -0.3559 0.0647 
-8 14 4 -3.9466 -0.0005 
-8 14 5 3.8748 -0.3030 
-8 14 6 -1.1766 -0.1577 
-8 14 7 1.3167 0.0807 
-8 14 8 -2.5005 0.2732 
-8 14 9 1.1223 -0.1190 
-8 14 10 3.3887 0.0598 
-8 14 11 -2.3761 0.1838 
-8 14 12 -1.2811 -0.0984 
-8 14 13 -0.8318 0.3718 
-8 14 14 -1.2092 0.1516 
-8 14 15 -0.2607 -0.3426 
-8 14 16 0.3666 0.0081 
-8 14 17 1.5419 -0.0064 
-8 14 18 1.2132 0.0407 
-8 14 19 -1.4267 -0.2685 
-8 14 20 1.8168 -0.0513 
-8 14 21 4.2965 0.1299 
-8 14 22 -0.4044 -0.1746 
-8 14 23 0.2796 -0.4074 
-8 14 24 -0.1934 -0.0120 
-8 14 25 -2.2941 -0.2422 
-8 15 -7 0.3238 -0.0302 
-8 15 -6 0.4752 -0.0361 
-8 15 -5 -0.4551 -0.1872 
-8 15 -4 0.4437 -0.1208 
-8 15 -3 1.2369 -0.0273 
-8 15 -2 0.6621 0.2620 
-8 15 -1 2.4136 0.2594 
-8 15 0 0.9705 0.2729 
-8 15 1 1.6443 -0.0163 
-8 15 2 1.8272 0.0592 
-8 15 3 -1.0510 0.1139 
-8 15 4 3.0995 0.0396 
-8 15 5 -0.4776 0.0344 
-8 15 6 -0.5162 -0.0767 
-8 15 7 2.6726 0.0116 
-8 15 8 -1.3062 -0.1730 
-8 15 9 2.1143 0.0023 
-8 15 10 -0.9032 0.2715 
-8 15 11 -0.1777 -0.3271 
-8 15 12 3.2917 -0.0782 
-8 15 13 -4.6393 0.3694 
-8 15 14 -0.9511 0.2542 
-8 15 15 -0.3737 -0.0944 
-8 15 16 0.2319 -0.0142 
-8 15 17 2.0715 -0.0331 
-8 15 18 -0.5862 0.0088 
-8 15 19 0.7878 0.0688 
-8 15 20 2.5200 -0.1300 
-8 15 21 -1.9212 0.2650 
-8 15 22 1.4743 0.0386 
-8 15 23 2.4501 -0.0411 
-8 15 24 0.1537 -0.8147 
-8 16 -7 0.6199 0.2301 
-8 16 -6 0.1385 -0.0609 
-8 16 -5 0.6202 0.1968 
-8 16 -4 -1.9497 -0.0180 
-8 16 -3 -0.6329 -0.0907 
-8 16 -2 -1.2140 -0.2872 
-8 16 -1 0.5474 0.0072 
-8 16 0 0.7409 0.0599 
-8 16 1 -0.9691 -0.0006 
-8 16 2 -0.6403 0.0054 
-8 16 3 3.2414 -0.1376 
-8 16 4 1.1820 -0.0489 
-8 16 5 -1.5482 0.0482 
-8 16 6 2.9704 -0.1006 
-8 16 7 0.6654 -0.1093 
-8 16 8 0.4490 -0.2813 
-8 16 9 1.6396 0.2498 
-8 16 10 -1.8445 -0.0699 
-8 16 11 4.4812 -0.2408 
-8 16 12 -1.6299 -0.0909 
-8 16 13 -3.9064 0.0659 
-8 16 14 0.9642 0.0607 
-8 16 15 -5.3630 0.1490 
-8 16 16 0.3330 0.2508 
-8 16 17 -3.4678 -0.2033 
-8 16 18 -1.3707 0.3756 
-8 16 19 3.7137 0.0608 
-8 16 20 -2.4302 -0.0890 
-8 16 21 0.0139 0.4556 
-8 16 22 -0.2394 0.2099 
-8 16 23 -0.2144 0.4588 
-8 17 -7 -0.1115 -0.2012 
-8 17 -6 -1.5191 -0.2463 
-8 17 -5 -0.1644 0.0108 
-8 17 -4 -1.0110 0.0393 
-8 17 -3 -0.1034 0.0107 
-8 17 -2 -2.4119 -0.1177 
-8 17 -1 1.4656 0.0005 
-8 17 0 -3.2541 -0.1750 
-8 17 1 -1.2406 0.0492 
-8 17 2 -0.9610 -0.0788 
-8 17 3 -3.0325 -0.0519 
-8 17 4 -2.8095 0.1258 
-8 17 5 1.5036 -0.0131 
-8 17 6 -0.3891 0.0557 
-8 17 7 -1.7709 -0.1261 
-8 17 8 1.1073 -0.0540 
-8 17 9 0.8389 -0.1482 
-8 17 10 0.8730 -0.1952 
-8 17 11 4.8690 0.0572 
-8 17 12 -2.7538 -0.0874 
-8 17 13 5.5930 -0.2447 
-8 17 14 -3.3282 -0.3337 
-8 17 15 0.7514 0.1814 
-8 17 16 0.0178 -0.2954 
-8 17 17 -3.0842 -0.2265 
-8 17 18 2.5879 0.1627 
-8 17 19 -3.1329 -0.2347 
-8 17 20 0.3785 0.2104 
-8 17 21 2.6517 0.1359 
-8 17 22 -2.6975 0.5509 
-8 18 -7 -2.0997 -0.1219 
-8 18 -6 0.8216 0.2164 
-8 18 -5 -0.5586 -0.1457 
-8 18 -4 -0.5838 0.0846 
-8 18 -3 -1.0966 -0.0501 
-8 18 -2 1.5832 0.2468 
-8 18 -1 -0.4651 -0.1272 
-8 18 0 1.0536 0.1049 
-8 18 1 4.2108 0.0208 
-8 18 2 -1.2195 -0.0688 
-8 18 3 -1.1434 -0.1214 
-8 18 4 -0.2667 -0.0330 
-8 18 5 -0.8020 -0.0324 
-8 18 6 -1.4978 0.1136 
-8 18 7 -1.2485 0.1775 
-8 18 8 0.6077 0.0886 
-8 18 9 -3.0393 -0.1985 
-8 18 10 2.6711 -0.1056 
-8 18 11 -0.9957 -0.1102 
-8 18 12 3.0301 0.0126 
-8 18 13 2.8732 -0.1912 
-8 18 14 -2.8243 -0.1436 
-8 18 15 2.0306 -0.0619 
-8 18 16 -3.1847 -0.4666 
-8 18 17 4.9882 -0.0938 
-8 18 18 -2.0451 -0.3295 
-8 18 19 -1.4035 -0.5256 
-8 18 20 3.2718 -0.1181 
-8 18 21 0.0101 -0.0774 
-8 19 -7 -0.9305 -0.1346 
-8 19 -6 3.2625 0.0964 
-8 19 -5 -1.8277 -0.0161 
-8 19 -4 0.8081 -0.0994 
-8 19 -3 -1.6596 0.0967 
-8 19 -2 -1.9589 0.0433 
-8 19 -1 -2.2834 -0.1239 
-8 19 0 1.8631 0.0260 
-8 19 1 -1.4649 -0.0218 
-8 19 2 2.4412 0.0207 
-8 19 3 2.3780 0.0181 
-8 19 4 0.0470 -0.1497 
-8 19 5 -0.3151 -0.3102 
-8 19 6 -0.7016 -0.0281 
-8 19 7 2.1243 0.0410 
-8 19 8 -2.0518 0.0430 
-8 19 9 -1.2633 0.3582 
-8 19 10 -0.1485 -0.0594 
-8 19 11 -2.1095 0.1173 
-8 19 12 4.8998 -0.0217 
-8 19 13 -1.4551 0.3081 
-8 19 14 2.7319 0.1775 
-8 19 15 -2.3379 0.0052 
-8 19 16 0.4509 -0.3498 
-8 19 17 -0.9386 0.3176 
-8 19 18 -2.7448 -0.2954 
-8 19 19 2.5929 -0.4128 
-8 19 20 -3.3867 -0.4784 
-8 20 -7 1.7821 -0.0570 
-8 20 -6 -0.7581 -0.4047 
-8 20 -5 0.6283 -0.1444 
-8 20 -4 2.8146 -0.3421 
-8 20 -3 -1.0982 0.1371 
-8 20 -2 0.3135 -0.0940 
-8 20 -1 -0.5764 0.2578 
-8 20 0 -3.1777 -0.1414 
-8 20 1 -1.6310 -0.0689 
-8 20 2 0.6955 0.1186 
-8 20 3 -0.6345 0.4130 
-8 20 4 1.0936 -0.0791 
-8 20 5 -1.8194 0.3061 
-8 20 6 1.3569 0.0458 
-8 20 7 0.7770 -0.2031 
-8 20 8 -1.4730 0.0715 
-8 20 9 1.2886 0.2673 
-8 20 10 -3.8010 0.2040 
-8 20 11 1.5902 -0.0042 
-8 20 12 -1.8484 -0.0216 
-8 20 13 0.5060 0.4762 
-8 20 14 2.5374 0.5556 
-8 20 15 -0.0838 0.2592 
-8 20 16 1.6044 -0.0017 
-8 20 17 -2.7730 0.3223 
-8 20 18 4.5798 -0.2280 
-8 20 19 -0.5148 0.5121 
-8 21 -7 2.5164 0.2486 
-8 21 -6 -0.5014 0.0530 
-8 21 -5 1.1335 0.2454 
-8 21 -4 0.8564 0.1769 
-8 21 -3 1.9845 -0.1313 
-8 21 -2 2.8706 0.0402 
-8 21 -1 -0.6282 0.3623 
-8 21 0 1.0806 0.1018 
-8 21 1 -0.0414 -0.0443 
-8 21 2 -1.5295 0.0465 
-8 21 3 0.5057 -0.1322 
-8 21 4 -0.7070 0.1313 
-8 21 5 -0.8425 0.2898 
-8 21 6 0.6349 -0.0265 
-8 21 7 -2.0457 -0.0690 
-8 21 8 2.8488 0.0123 
-8 21 9 -0.7236 -0.0692 
-8 21 10 -0.4118 0.1379 
-8 21 11 -0.7334 -0.0482 
-8 21 12 -1.7789 -0.1127 
-8 21 13 2.1885 -0.4453 
-8 21 14 -2.8113 0.5536 
-8 21 15 -0.2415 0.3464 
-8 21 16 -2.9835 0.6277 
-8 21 17 0.2592 -0.2623 
-8 22 -7 0.5039 -0.3172 
-8 22 -6 -0.8881 0.3101 
-8 22 -5 -0.4288 0.2698 
-8 22 -4 -1.5800 0.2027 
-8 22 -3 -0.2720 -0.2010 
-8 22 -2 0.0581 -0.0704 
-8 22 -1 1.1591 -0.1478 
-8 22 0 1.6006 -0.0191 
-8 22 1 -1.2206 -0.0284 
-8 22 2 1.0315 -0.0949 
-8 22 3 0.0218 -0.1943 
-8 22 4 -0.4228 0.0348 
-8 22 5 -0.1370 -0.0962 
-8 22 6 -3.3266 -0.1234 
-8 22 7 -0.9082 0.1044 
-8 22 8 1.5996 -0.1152 
-8 22 9 -0.8198 -0.5763 
-8 22 10 0.0538 0.1657 
-8 22 11 -1.8237 0.3466 
-8 22 12 2.8154 -0.3295 
-8 22 13 0.9155 -0.5605 
-8 22 14 1.4724 -0.0827 
-8 22 15 0.5512 -0.0359 
-8 22 16 -1.9400 0.4650 
-8 23 -7 0.3305 0.0206 
-8 23 -6 1.1340 0.0481 
-8 23 -5 1.6014 -0.2225 
-8 23 -4 -1.9808 0.1543 
-8 23 -3 -0.2271 0.5334 
-8 23 -2 -0.8214 0.1098 
-8 23 -1 1.5112 -0.0969 
-8 23 0 -0.1614 -0.1577 
-8 23 1 1.7036 -0.0074 
-8 23 2 2.0848 -0.1675 
-8 23 3 1.1561 -0.0779 
-8 23 4 3.3503 0.2454 
-8 23 5 0.8519 -0.1930 
-8 23 6 -0.7671 0.0634 
-8 23 7 0.0241 0.4799 
-8 23 8 -0.6195 -0.2457 
-8 23 9 0.2497 -0.2579 
-8 23 10 0.4202 0.0328 
-8 23 11 -2.2457 -0.1046 
-8 23 12 -1.2837 0.1556 
-8 23 13 0.0888 0.2260 
-8 23 14 4.2944 -0.7182 
-8 24 -4 0.6827 0.2020 
-8 24 -3 1.1734 0.1605 
-8 24 -2 -1.5688 0.4122 
-8 24 -1 -0.3499 0.3998 
-8 24 0 -1.1337 0.3381 
-8 24 1 1.6840 -0.1345 
-8 24 2 -1.0728 -0.2483 
-8 24 3 1.2829 0.1422 
-8 24 4 2.8708 0.0852 
-8 24 5 1.5462 -0.3131 
-8 24 6 2.4995 0.3069 
-8 24 7 -0.1340 -0.1591 
-8 24 8 0.0119 0.0176 
-8 24 9 2.7487 0.3323 
-8 24 10 1.7415 -0.5840 
-8 24 11 -1.3772 -0.4256 
-8 25 1 -1.9463 -0.2019 
-8 25 2 -3.3453 -0.1581 
-8 25 3 0.6918 -0.2116 
-8 25 4 -2.2141 -0.1134 
-8 25 5 0.1388 0.4180 
-8 25 6 0.0450 0.1770 
-7 0 -5 4.7419 -4.4257 
-7 0 -3 1.6575 -1.5369 
-7 0 -1 -8.1167 0.1498 
-7 0 3 1.5160 0.8539 
-7 0 5 3.8120 -0.0246 
-7 0 7 -0.2255 0.1304 
-7 0 9 -1.4507 0.6233 
-7 0 13 -0.3682 -0.0060 
-7 0 15 1.7639 -0.1535 
-7 0 17 2.1773 -0.2115 
-7 0 19 -1.7104 0.9099 
-7 0 21 0.6781 -0.1435 
-7 0 23 -2.2006 0.3064 
-7 0 25 -3.7994 0.0497 
-7 0 27 1.3675 -0.5003 
-7 0 29 -3.3969 0.2236 
-7 1 -6 -0.9841 -0.9830 
-7 1 -5 -0.6507 -0.2125 
-7 1 -4 0.7777 0.8375 
-7 1 -3 4.9628 -1.7117 
-7 1 -2 0.3633 -1.0916 
-7 1 -1 3.0361 -0.8752 
-7 1 0 -2.0784 0.5244 
-7 1 1 -6.2251 -0.2452 
-7 1 2 1.1421 0.2217 
-7 1 3 -4.5976 -1.1382 
-7 1 4 4.8691 -0.5654 
-7 1 5 -2.8590 1.1116 
-7 1 6 0.7087 1.1880 
-7 1 7 1.9731 -0.7393 
-7 1 8 -1.4598 -0.8803 
-7 1 9 -0.6558 1.1084 
-7 1 13 -3.6093 -0.8856 
-7 1 14 -1.0077 -0.7968 
-7 1 15 -1.4797 0.4429 
-7 1 16 0.7224 0.6868 
-7 1 17 0.4358 -1.0715 
-7 1 18 0.6107 -0.3061 
-7 1 19 1.0025 0.0216 
-7 1 20 -1.6482 0.2147 
-7 1 21 0.0721 0.1302 
-7 1 22 1.6510 0.5409 
-7 1 23 1.8838 -0.0237 
-7 1 24 -1.9828 -0.4677 
-7 1 25 -3.2288 0.7968 
-7 1 26 1.1712 0.0825 
-7 1 27 -0.5084 -0.2741 
-7 1 28 0.5010 -0.3094 
-7 1 29 -1.5532 -0.3398 
-7 1 30 -0.8794 -0.1214 
-7 1 31 -2.2711 -0.0710 
-7 2 -6 0.2199 0.2682 
-7 2 -5 -4.5136 2.1964 
-7 2 -4 -1.1993 0.2824 
-7 2 -3 -1.1307 1.3477 
-7 2 -2 3.4857 0.4095 
-7 2 -1 3.4235 -0.2260 
-7 2 0 -0.2800 -1.4428 
-7 2 1 1.7412 1.2611 
-7 2 2 -4.2144 0.4013 
-7 2 3 1.1937 -1.0706 
-7 2 4 -0.0175 -0.9408 
-7 2 5 1.2663 0.0475 
-7 2 6 7.5980 0.2493 
-7 2 7 -2.7095 -0.0298 
-7 2 8 1.2602 0.7635 
-7 2 9 2.1780 -0.8215 
-7 2 10 1.9507 -0.5569 
-7 2 13 -0.3547 -0.2573 
-7 2 14 -0.5303 -0.5673 
-7 2 15 -1.9058 0.2550 
-7 2 16 -1.0931 -0.3426 
-7 2 17 -1.2629 0.4132 
-7 2 18 3.0449 0.2983 
-7 2 19 -0.6829 -0.7189 
-7 2 20 -0.4322 -0.4515 
-7 2 21 1.0289 0.1340 
-7 2 22 1.5754 0.5077 
-7 2 23 2.3698 -0.3479 
-7 2 24 0.5816 0.2698 
-7 2 25 0.4342 -0.0406 
-7 2 26 -2.0848 0.2020 
-7 2 27 -1.4946 0.7903 
-7 2 28 1.0928 -0.2293 
-7 2 29 -0.0609 -0.5050 
-7 2 30 -0.4271 -0.9278 
-7 2 31 -2.5885 0.0616 
-7 3 -6 1.5260 0.2619 
-7 3 -5 0.1159 -0.4165 
-7 3 -4 -2.7403 -0.8239 
-7 3 -3 -1.2256 0.6301 
-7 3 -2 -0.6050 1.6549 
-7 3 -1 0.6984 -0.0860 
-7 3 0 2.6907 -0.2494 
-7 3 1 0.6811 0.0427 
-7 3 2 -1.4951 -0.1723 
-7 3 3 -4.5956 1.2562 
-7 3 4 -5.8241 -0.1817 
-7 3 5 5.6635 -1.2024 
-7 3 6 -3.5408 -0.9757 
-7 3 7 3.7970 1.0768 
-7 3 8 3.7477 0.5078 
-7 3 9 -1.5400 -1.1238 
-7 3 10 0.6195 0.1197 
-7 3 12 1.4216 0.3122 
-7 3 13 1.8319 0.7315 
-7 3 14 1.1688 0.7572 
-7 3 15 1.8084 -0.7032 
-7 3 16 -0.6171 -0.4905 
-7 3 17 -0.2052 0.8221 
-7 3 18 0.0383 -0.1309 
-7 3 19 0.4155 -0.0589 
-7 3 20 1.4431 -0.2501 
-7 3 21 -1.4277 -0.1481 
-7 3 22 -0.6200 -0.5451 
-7 3 23 3.2765 0.3103 
-7 3 24 1.9290 0.2225 
-7 3 25 1.6691 -0.5120 
-7 3 26 0.0701 0.1030 
-7 3 27 1.4683 0.2088 
-7 3 28 0.0090 0.8262 
-7 3 29 0.1063 0.1610 
-7 3 30 -0.6736 0.0501 
-7 4 -6 2.0520 -0.1617 
-7 4 -5 2.5311 -0.2872 
-7 4 -4 -0.6227 -1.1360 
-7 4 -3 -1.0953 0.0840 
-7 4 -2 -2.4994 -0.1711 
-7 4 -1 1.1451 1.0167 
-7 4 0 1.5551 1.1508 
-7 4 1 3.3803 -1.4500 
-7 4 2 1.0050 0.3158 
-7 4 3 -0.8431 1.1419 
-7 4 4 0.0056 0.6496 
-7 4 5 -8.6469 -0.4505 
-7 4 6 -2.8851 -0.1351 
-7 4 7 5.1728 0.0059 
-7 4 8 -4.6141 -0.6667 
-7 4 9 3.3678 0.7648 
-7 4 10 -0.3300 0.0850 
-7 4 11 -0.7197 -1.1210 
-7 4 12 -0.6276 -0.5270 
-7 4 13 -1.5855 0.4589 
-7 4 14 -0.9106 0.5443 
-7 4 15 0.4662 -0.1130 
-7 4 16 -1.3092 0.4959 
-7 4 17 -0.6437 -0.5103 
-7 4 18 -2.4589 -0.0674 
-7 4 19 1.3061 0.6003 
-7 4 20 0.3893 0.2786 
-7 4 21 -0.6349 -0.5940 
-7 4 22 -0.2654 -0.5196 
-7 4 23 0.9370 0.2652 
-7 4 24 -1.6563 -0.1001 
-7 4 25 1.4457 0.3118 
-7 4 26 -1.3099 -0.4374 
-7 4 27 3.4213 -0.3575 
-7 4 28 1.8743 0.1154 
-7 4 29 1.4012 0.4428 
-7 4 30 -0.1900 0.4875 
-7 5 -6 1.4060 -0.2044 
-7 5 -5 1.1112 -0.2963 
-7 5 -4 0.5607 0.5483 
-7 5 -3 -1.1766 -0.8331 
-7 5 -2 -2.7740 -1.2496 
-7 5 -1 -0.0682 0.9932 
-7 5 0 -1.8199 0.1102 
-7 5 1 -1.3902 0.2283 
-7 5 2 3.0733 -0.0693 
-7 5 3 4.2028 -0.6689 
-7 5 4 -0.6264 0.5004 
-7 5 5 -1.9045 1.0529 
-7 5 6 2.2553 0.5685 
-7 5 7 -7.5536 -1.1111 
-7 5 8 1.6864 0.0304 
-7 5 9 2.2396 0.7805 
-7 5 10 -1.9525 -0.1770 
-7 5 11 3.5940 0.0613 
-7 5 12 0.0674 -0.3252 
-7 5 13 1.1286 -0.5044 
-7 5 14 -0.2302 -0.5103 
-7 5 15 -0.4806 1.0288 
-7 5 16 -0.4113 0.2319 
-7 5 17 -0.9587 -0.4569 
-7 5 18 -2.8988 0.1969 
-7 5 19 -2.6946 0.3840 
-7 5 20 -0.7082 0.3795 
-7 5 21 0.5759 0.1488 
-7 5 22 1.5473 0.3365 
-7 5 23 -0.8727 -0.6817 
-7 5 24 2.0531 -0.0617 
-7 5 25 -1.2932 0.6039 
-7 5 26 -4.2697 -0.1301 
-7 5 27 -1.4630 -0.1343 
-7 5 28 -1.9937 -0.5874 
-7 5 29 2.6336 0.0844 
-7 5 30 0.1069 -0.3322 
-7 6 -6 0.5104 -0.2195 
-7 6 -5 1.0483 0.3433 
-7 6 -4 2.2687 0.5053 
-7 6 -3 -0.8791 -0.7490 
-7 6 -2 1.2255 -0.0175 
-7 6 -1 -0.5983 -1.0724 
-7 6 0 -3.0829 -0.2112 
-7 6 1 1.7546 0.9317 
-7 6 2 -3.8238 -0.5119 
-7 6 3 -2.3237 -0.8031 
-7 6 4 1.7130 -0.1341 
-7 6 5 2.6310 0.6819 
-7 6 6 -3.3163 -0.0447 
-7 6 7 -1.8181 0.1939 
-7 6 8 1.3386 0.5883 
-7 6 9 -4.3565 -0.6437 
-7 6 10 2.1030 0.0357 
-7 6 11 0.1194 0.7771 
-7 6 12 0.9090 0.2873 
-7 6 13 2.5054 -0.7953 
-7 6 14 2.0915 -0.3329 
-7 6 15 1.6778 0.0540 
-7 6 16 1.7556 -0.1643 
-7 6 17 2.6994 0.4524 
-7 6 18 -2.1707 -0.1858 
-7 6 19 -0.8395 -0.3965 
-7 6 20 -2.5150 -0.1364 
-7 6 21 -0.9818 0.7551 
-7 6 22 -0.8082 0.2281 
-7 6 23 0.2054 -0.3480 
-7 6 24 3.8037 0.1875 
-7 6 25 0.3815 -0.1804 
-7 6 26 1.8906 0.3802 
-7 6 27 -4.7781 0.3357 
-7 6 28 -2.5164 -0.4313 
-7 6 29 -0.5018 -0.3093 
-7 6 30 -1.0548 -0.1372 
-7 7 -6 1.0292 0.5667 
-7 7 -5 0.5714 0.0541 
-7 7 -4 1.1897 -0.3208 
-7 7 -3 1.5172 0.8529 
-7 7 -2 1.2217 0.4719 
-7 7 -1 -1.1046 -0.7094 
-7 7 0 5.7682 -0.0394 
-7 7 1 1.4776 -0.1391 
-7 7 2 -1.4641 0.1467 
-7 7 3 2.5279 0.0165 
-7 7 4 -2.3990 -0.3655 
-7 7 5 0.9075 -0.7584 
-7 7 6 0.3490 -0.2202 
-7 7 7 0.2879 0.9754 
-7 7 8 -4.0456 -0.2300 
-7 7 9 -1.8921 -0.4132 
-7 7 10 -1.0376 0.0957 
-7 7 11 -2.4635 0.1238 
-7 7 12 -1.4124 0.1302 
-7 7 13 -0.8402 0.3474 
-7 7 14 0.6071 0.0377 
-7 7 15 -0.8471 -1.0424 
-7 7 16 3.5019 0.0157 
-7 7 17 -2.4067 0.2716 
-7 7 18 2.6489 -0.0197 
-7 7 19 0.0709 -0.3834 
-7 7 20 -2.4172 -0.1063 
-7 7 21 0.3962 -0.0892 
-7 7 22 -0.0841 -0.2254 
-7 7 23 0.8117 0.4293 
-7 7 24 -0.7012 0.0194 
-7 7 25 2.9541 -0.1706 
-7 7 26 4.5153 0.3290 
-7 7 27 -0.0027 0.3706 
-7 7 28 1.0556 0.2203 
-7 7 29 -2.6741 0.3468 
-7 7 30 0.2514 -0.1497 
-7 8 -6 -2.4719 0.1985 
-7 8 -5 -0.9630 -0.6451 
-7 8 -4 1.8728 -0.1697 
-7 8 -3 -1.1031 0.1928 
-7 8 -2 -1.4251 0.1494 
-7 8 -1 -0.2937 0.5301 
-7 8 0 -0.3618 -0.1466 
-7 8 1 -0.0618 -0.4099 
-7 8 2 5.6485 0.2339 
-7 8 3 -1.5753 0.5204 
-7 8 4 0.3631 -0.1950 
-7 8 5 2.3050 -0.7013 
-7 8 6 2.3104 0.2368 
-7 8 7 2.4199 -0.3343 
-7 8 8 0.8098 -0.2309 
-7 8 9 -0.6449 0.4613 
-7 8 10 -0.4464 -0.0464 
-7 8 11 -1.9468 -0.5905 
-7 8 12 -0.5366 -0.1066 
-7 8 13 -0.8124 0.9022 
-7 8 14 -1.9233 0.0701 
-7 8 15 2.3643 0.0021 
-7 8 16 -0.4893 -0.1346 
-7 8 17 -0.1316 -0.2809 
-7 8 18 3.0007 -0.0068 
-7 8 19 -5.8725 0.2684 
-7 8 20 0.0290 0.0615 
-7 8 21 -2.4243 -0.5588 
-7 8 22 1.6106 -0.1769 
-7 8 23 0.1029 -0.0025 
-7 8 24 0.3727 -0.0766 
-7 8 25 1.5155 -0.1726 
-7 8 26 1.0142 -0.0891 
-7 8 27 3.8996 -0.1037 
-7 8 28 1.3356 0.1429 
-7 8 29 -1.5600 0.2898 
-7 9 -6 -3.9255 -0.2920 
-7 9 -5 2.2136 0.2184 
-7 9 -4 -0.7389 0.0308 
-7 9 -3 1.0122 -0.5701 
-7 9 -2 1.3931 0.0030 
-7 9 -1 -3.1899 0.4989 
-7 9 0 -0.3841 0.1247 
-7 9 1 -0.4410 -0.0789 
-7 9 2 -0.5686 0.0107 
-7 9 3 -0.6117 0.2108 
-7 9 4 -0.2249 0.0216 
-7 9 5 -3.5907 0.7333 
-7 9 6 1.0402 -0.1852 
-7 9 7 1.8358 -0.5883 
-7 9 8 3.1939 0.1484 
-7 9 9 1.9556 0.2499 
-7 9 10 0.7828 0.0331 
-7 9 11 0.5326 -0.3849 
-7 9 12 1.7302 -0.0672 
-7 9 13 -1.3870 -0.4118 
-7 9 14 0.1134 0.1626 
-7 9 15 0.8053 0.7587 
-7 9 16 0.2790 -0.1353 
-7 9 17 6.5450 -0.1336 
-7 9 18 -1.4990 -0.0054 
-7 9 19 0.8575 0.3860 
-7 9 20 -2.5940 -0.1329 
-7 9 21 -4.8793 0.1364 
-7 9 22 -3.8366 -0.0199 
-7 9 23 -1.5580 -0.3664 
-7 9 24 0.7485 -0.1665 
-7 9 25 -2.7445 0.0008 
-7 9 26 -0.5620 0.1346 
-7 9 27 2.5888 -0.7351 
-7 9 28 0.5271 -0.2442 
-7 9 29 1.3502 -0.5220 
-7 10 -6 1.6921 -0.2095 
-7 10 -5 -2.2816 0.4155 
-7 10 -4 -1.1257 -0.1084 
-7 10 -3 2.7241 -0.1927 
-7 10 -2 -1.0235 -0.2575 
-7 10 -1 2.7129 -0.1156 
-7 10 0 0.8001 0.1881 
-7 10 1 -1.1756 0.2239 
-7 10 2 3.9459 -0.2703 
-7 10 3 0.9176 -0.4868 
-7 10 4 -0.3029 0.3755 
-7 10 5 -1.7293 0.3666 
-7 10 6 -2.9476 -0.1557 
-7 10 7 -1.4760 0.3049 
-7 10 8 -0.2885 -0.0674 
-7 10 9 -0.1608 -0.1218 
-7 10 10 0.2810 -0.0825 
-7 10 11 0.9045 0.5572 
-7 10 12 -0.4409 -0.1460 
-7 10 13 -0.4319 -0.7498 
-7 10 14 -0.8126 0.0741 
-7 10 15 -2.2554 -0.0773 
-7 10 16 0.7739 0.1189 
-7 10 17 1.5999 0.0691 
-7 10 18 2.7120 0.0433 
-7 10 19 5.9789 -0.0193 
-7 10 20 0.5405 0.1745 
-7 10 21 -1.0394 0.6077 
-7 10 22 -2.9476 0.0455 
-7 10 23 1.0559 0.0338 
-7 10 24 -2.1810 0.0801 
-7 10 25 -1.3522 0.2924 
-7 10 26 -0.4830 0.4034 
-7 10 27 -1.3430 -0.0178 
-7 10 28 2.3916 0.3555 
-7 10 29 1.7991 -0.6076 
-7 11 -6 1.0226 0.1280 
-7 11 -5 -2.3413 -0.1382 
-7 11 -4 0.5856 0.0193 
-7 11 -3 -3.7230 0.1598 
-7 11 -2 0.5518 -0.2302 
-7 11 -1 -0.7607 -0.3634 
-7 11 0 -4.0728 0.1132 
-7 11 1 2.5387 0.0603 
-7 11 2 -0.8010 -0.1108 
-7 11 3 1.0363 -0.1317 
-7 11 4 3.4518 -0.1374 
-7 11 5 0.0400 -0.4289 
-7 11 6 0.3891 0.3108 
-7 11 7 -1.0374 0.3099 
-7 11 8 -1.0165 0.1126 
-7 11 9 -0.6515 -0.3674 
-7 11 10 0.2792 0.2041 
-7 11 11 -0.0399 0.3467 
-7 11 12 0.4383 -0.0350 
-7 11 13 0.9221 0.1378 
-7 11 14 -0.3448 -0.2812 
-7 11 15 -1.1185 -0.3066 
-7 11 16 -2.3757 0.1320 
-7 11 17 -2.0590 -0.1839 
-7 11 18 2.1495 -0.2062 
-7 11 19 2.2372 -0.3323 
-7 11 20 1.8079 0.1180 
-7 11 21 0.7267 -0.1368 
-7 11 22 3.3452 -0.0238 
-7 11 23 -1.0479 0.1985 
-7 11 24 1.0694 -0.0877 
-7 11 25 2.9922 0.0737 
-7 11 26 -1.0090 0.1480 
-7 11 27 -0.9014 0.5316 
-7 11 28 1.5238 0.3664 
-7 12 -6 -0.9072 0.0942 
-7 12 -5 2.5381 -0.2085 
-7 12 -4 -1.9614 0.1020 
-7 12 -3 1.0651 0.3105 
-7 12 -2 0.7193 0.1182 
-7 12 -1 -2.7406 0.0890 
-7 12 0 0.6205 -0.0704 
-7 12 1 -1.5028 0.0326 
-7 12 2 -4.4196 0.3885 
-7 12 3 2.9258 0.1137 
-7 12 4 -2.9234 -0.2620 
-7 12 5 2.0736 -0.1570 
-7 12 6 -0.7336 0.0565 
-7 12 7 0.7606 0.0794 
-7 12 8 -0.5287 -0.1087 
-7 12 9 -0.3433 0.1102 
-7 12 10 -0.4387 0.1265 
-7 12 11 -1.5343 -0.2691 
-7 12 12 2.2869 0.3551 
-7 12 13 0.7544 0.2060 
-7 12 14 2.2060 -0.1243 
-7 12 15 0.1463 -0.1123 
-7 12 16 -0.9138 0.0950 
-7 12 17 0.0985 -0.0439 
-7 12 18 -1.8504 -0.1250 
-7 12 19 -0.9248 -0.1732 
-7 12 20 -1.7143 -0.0487 
-7 12 21 0.8873 -0.2953 
-7 12 22 -3.0312 -0.1517 
-7 12 23 -3.4393 -0.2219 
-7 12 24 1.9148 -0.0796 
-7 12 25 -0.8900 -0.0623 
-7 12 26 -1.2238 0.0430 
-7 12 27 0.1639 0.5047 
-7 12 28 -1.3537 0.0331 
-7 13 -6 -0.3068 0.0290 
-7 13 -5 -0.0145 -0.0349 
-7 13 -4 -0.8087 -0.0538 
-7 13 -3 2.2783 -0.1379 
-7 13 -2 -2.4864 0.1062 
-7 13 -1 3.6342 0.0818 
-7 13 0 1.9074 -0.1858 
-7 13 1 -1.8716 0.0109 
-7 13 2 2.7349 0.1006 
-7 13 3 -0.7933 -0.0005 
-7 13 4 -0.4318 0.0488 
-7 13 5 1.8514 -0.0485 
-7 13 6 -2.7368 -0.0741 
-7 13 7 2.1300 -0.1873 
-7 13 8 -1.7742 0.0641 
-7 13 9 1.7372 0.2642 
-7 13 10 -4.5444 -0.3485 
-7 13 11 -1.1570 0.0270 
-7 13 12 -1.1871 0.2501 
-7 13 13 -1.4712 0.2189 
-7 13 14 1.4160 0.1039 
-7 13 15 -1.3543 0.1263 
-7 13 16 3.0232 0.2498 
-7 13 17 -1.2714 0.0977 
-7 13 18 0.6856 0.2392 
-7 13 19 0.7967 0.0964 
-7 13 20 0.9266 0.1868 
-7 13 21 0.2428 0.1307 
-7 13 22 -3.8936 -0.1031 
-7 13 23 1.3643 -0.0495 
-7 13 24 -2.0240 -0.3675 
-7 13 25 -2.1689 0.0675 
-7 13 26 0.2439 -0.1812 
-7 13 27 -1.0166 0.2160 
-7 14 -6 -0.2488 0.0869 
-7 14 -5 0.6886 0.1960 
-7 14 -4 1.0089 -0.0854 
-7 14 -3 -2.6585 -0.1939 
-7 14 -2 -1.4129 0.0525 
-7 14 -1 0.6006 -0.0249 
-7 14 0 -1.9443 -0.0581 
-7 14 1 1.1036 -0.0225 
-7 14 2 0.5249 -0.1282 
-7 14 3 -2.1772 0.1268 
-7 14 4 4.5432 0.1820 
-7 14 5 -3.3818 0.0433 
-7 14 6 2.5182 -0.0840 
-7 14 7 -0.2012 -0.0848 
-7 14 8 1.3280 0.2933 
-7 14 9 1.2119 -0.1029 
-7 14 10 -0.7294 -0.0327 
-7 14 11 1.5841 -0.0219 
-7 14 12 -4.1271 -0.1266 
-7 14 13 0.5496 -0.0101 
-7 14 14 -0.1148 0.0579 
-7 14 15 1.3842 0.1004 
-7 14 16 -0.2235 -0.1951 
-7 14 17 -0.4270 0.1721 
-7 14 18 2.3921 0.1670 
-7 14 19 0.7121 -0.0120 
-7 14 20 2.4919 0.1574 
-7 14 21 -0.9358 0.2204 
-7 14 22 1.9067 0.2101 
-7 14 23 1.3714 -0.2413 
-7 14 24 -1.4350 -0.3077 
-7 14 25 1.1321 0.1837 
-7 14 26 0.3920 -0.6602 
-7 14 27 -0.8235 0.0282 
-7 15 -6 0.8324 0.0012 
-7 15 -5 -0.1808 0.1178 
-7 15 -4 0.6933 0.0366 
-7 15 -3 1.4463 0.0462 
-7 15 -2 0.0465 0.0377 
-7 15 -1 -2.2701 -0.0133 
-7 15 0 0.5033 0.1682 
-7 15 1 0.5692 -0.0649 
-7 15 2 -1.4082 -0.1650 
-7 15 3 1.4992 0.0059 
-7 15 4 -1.7238 0.0661 
-7 15 5 0.0320 0.1647 
-7 15 6 2.8468 -0.0581 
-7 15 7 -3.5035 0.1304 
-7 15 8 2.1634 -0.0950 
-7 15 9 0.3116 -0.0020 
-7 15 10 2.2192 0.1290 
-7 15 11 -0.6274 -0.0551 
-7 15 12 -2.8964 -0.1894 
-7 15 13 1.2079 -0.1199 
-7 15 14 -1.2925 -0.0699 
-7 15 15 0.6950 -0.2105 
-7 15 16 0.2292 -0.2334 
-7 15 17 1.2770 -0.0048 
-7 15 18 0.1707 -0.3940 
-7 15 19 2.9149 -0.0606 
-7 15 20 -0.4996 0.0423 
-7 15 21 1.3638 0.3403 
-7 15 22 -0.1983 0.1647 
-7 15 23 -1.1819 -0.1460 
-7 15 24 -0.0920 0.2025 
-7 15 25 0.2990 0.0478 
-7 15 26 -1.9994 0.4406 
-7 16 -6 0.4997 0.0281 
-7 16 -5 -1.5263 0.0139 
-7 16 -4 3.2533 0.0804 
-7 16 -3 1.3055 0.1842 
-7 16 -2 -0.2603 -0.1441 
-7 16 -1 0.3713 0.0215 
-7 16 0 -1.0885 0.0916 
-7 16 1 1.4132 -0.0319 
-7 16 2 1.8130 -0.1217 
-7 16 3 -1.4222 -0.2215 
-7 16 4 0.3627 -0.2049 
-7 16 5 3.7612 -0.2833 
-7 16 6 -2.4489 0.1153 
-7 16 7 0.1347 0.0669 
-7 16 8 1.9277 -0.1839 
-7 16 9 -0.5035 0.0438 
-7 16 10 1.4920 0.0592 
-7 16 11 -0.9121 0.2248 
-7 16 12 -0.6515 0.0280 
-7 16 13 -1.7756 0.1407 
-7 16 14 -5.0555 -0.0805 
-7 16 15 0.1737 0.1347 
-7 16 16 -2.4314 0.1132 
-7 16 17 -2.5745 -0.0484 
-7 16 18 0.8381 -0.2106 
-7 16 19 -1.9119 -0.2224 
-7 16 20 3.4049 -0.2050 
-7 16 21 1.9466 0.0330 
-7 16 22 -0.8773 0.1750 
-7 16 23 -0.0055 -0.0993 
-7 16 24 1.3636 -0.2792 
-7 16 25 1.4729 -0.3299 
-7 17 -6 0.2823 -0.1853 
-7 17 -5 -1.3387 -0.3780 
-7 17 -4 1.1034 0.0851 
-7 17 -3 -0.5544 0.0650 
-7 17 -2 3.7095 -0.0416 
-7 17 -1 -2.4718 0.0476 
-7 17 0 -1.5618 -0.0203 
-7 17 1 0.7310 0.1058 
-7 17 2 -3.0225 0.2177 
-7 17 3 0.7401 0.2090 
-7 17 4 0.3459 -0.2633 
-7 17 5 -2.0625 -0.0596 
-7 17 6 0.2132 0.0118 
-7 17 7 2.2495 -0.1508 
-7 17 8 -1.0355 0.0539 
-7 17 9 -0.2544 -0.0043 
-7 17 10 4.2133 -0.1176 
-7 17 11 0.8105 -0.0175 
-7 17 12 3.0951 0.2315 
-7 17 13 -2.0216 0.2275 
-7 17 14 0.6571 -0.0423 
-7 17 15 0.1312 0.0428 
-7 17 16 -2.3393 0.0224 
-7 17 17 1.4215 0.3303 
-7 17 18 -4.6351 0.1299 
-7 17 19 -1.7266 -0.1844 
-7 17 20 2.6580 -0.1895 
-7 17 21 -1.4939 -0.1872 
-7 17 22 2.3489 0.3193 
-7 17 23 -1.1923 -0.3201 
-7 17 24 2.5066 -0.4716 
-7 18 -6 -2.2399 -0.1877 
-7 18 -5 -3.5444 0.0395 
-7 18 -4 -1.7245 -0.1998 
-7 18 -3 -0.0557 -0.0653 
-7 18 -2 2.6315 0.0759 
-7 18 -1 0.3677 0.0703 
-7 18 0 1.6670 -0.1967 
-7 18 1 -3.2865 -0.0190 
-7 18 2 2.1784 0.0836 
-7 18 3 1.3442 0.0045 
-7 18 4 -3.8577 0.1325 
-7 18 5 -0.1508 0.1981 
-7 18 6 0.6370 -0.3452 
-7 18 7 0.2861 -0.0890 
-7 18 8 -3.7533 0.1658 
-7 18 9 1.6522 -0.0473 
-7 18 10 0.4761 -0.3991 
-7 18 11 1.4147 -0.2985 
-7 18 12 3.2334 0.0298 
-7 18 13 -0.3230 -0.0062 
-7 18 14 2.7609 0.0926 
-7 18 15 -2.0690 -0.1922 
-7 18 16 3.2176 -0.0237 
-7 18 17 0.6428 0.1110 
-7 18 18 -0.5125 0.1490 
-7 18 19 2.1721 0.3021 
-7 18 20 -3.5609 -0.1059 
-7 18 21 1.5450 0.2521 
-7 18 22 1.3853 0.4919 
-7 18 23 -0.2109 0.2687 
-7 18 24 -1.8595 -0.0834 
-7 19 -6 -3.4047 0.3764 
-7 19 -5 1.4872 0.0996 
-7 19 -4 -4.7425 -0.1981 
-7 19 -3 -2.4360 -0.0651 
-7 19 -2 0.6629 0.0549 
-7 19 -1 0.6463 -0.0353 
-7 19 0 -0.6446 -0.0250 
-7 19 1 -0.3921 -0.0209 
-7 19 2 2.1111 -0.1923 
-7 19 3 -1.5901 -0.2112 
-7 19 4 2.3505 0.0954 
-7 19 5 -1.2701 -0.0660 
-7 19 6 0.9079 -0.1499 
-7 19 7 -1.3888 -0.1058 
-7 19 8 0.1681 0.0769 
-7 19 9 -0.2995 -0.0105 
-7 19 10 -4.3038 0.1331 
-7 19 11 2.2521 -0.1874 
-7 19 12 -0.6278 -0.3385 
-7 19 13 2.3976 -0.1659 
-7 19 14 -0.2199 0.2469 
-7 19 15 -1.2468 -0.2296 
-7 19 16 -0.4051 -0.1066 
-7 19 17 -2.4695 -0.2700 
-7 19 18 2.9915 0.1912 
-7 19 19 -2.2661 -0.0635 
-7 19 20 -2.3781 -0.2359 
-7 19 21 0.5205 0.4022 
-7 19 22 -0.5099 0.1978 
-7 19 23 0.1299 0.9658 
-7 20 -6 2.7339 0.1244 
-7 20 -5 2.2571 -0.1646 
-7 20 -4 -3.5469 0.2325 
-7 20 -3 0.5510 -0.1489 
-7 20 -2 -3.0840 -0.0150 
-7 20 -1 0.0551 -0.0590 
-7 20 0 1.5090 0.1418 
-7 20 1 -1.7098 0.1274 
-7 20 2 -2.5758 0.1606 
-7 20 3 0.8579 0.0392 
-7 20 4 0.8956 0.1597 
-7 20 5 -1.2372 0.0456 
-7 20 6 0.1489 0.1992 
-7 20 7 -1.3647 0.0376 
-7 20 8 4.3773 -0.1073 
-7 20 9 -3.7962 0.0454 
-7 20 10 -0.0578 0.5924 
-7 20 11 -1.8019 0.0053 
-7 20 12 -0.8407 -0.1596 
-7 20 13 0.8943 0.1042 
-7 20 14 -0.3958 0.0756 
-7 20 15 3.0803 -0.1272 
-7 20 16 -1.7817 -0.0810 
-7 20 17 1.4796 -0.2582 
-7 20 18 0.0144 -0.0655 
-7 20 19 -0.5137 -0.3640 
-7 20 20 1.9039 -0.2904 
-7 20 21 -1.9380 -0.3642 
-7 20 22 -2.3266 -0.0768 
-7 21 -6 3.8337 -0.1456 
-7 21 -5 2.4549 0.2202 
-7 21 -4 2.2030 0.1810 
-7 21 -3 0.3364 0.1312 
-7 21 -2 -2.4715 0.2024 
-7 21 -1 3.8606 0.0696 
-7 21 0 -0.2578 -0.0567 
-7 21 1 1.0040 0.0513 
-7 21 2 -0.2438 0.1258 
-7 21 3 -0.0151 0.2759 
-7 21 4 -1.1919 -0.0134 
-7 21 5 1.2321 -0.0136 
-7 21 6 -2.0836 0.2672 
-7 21 7 1.9756 0.1719 
-7 21 8 -0.0441 -0.3337 
-7 21 9 -0.4004 0.1052 
-7 21 10 2.2692 0.1870 
-7 21 11 -1.4701 0.0450 
-7 21 12 0.4453 0.2553 
-7 21 13 -3.2385 0.1112 
-7 21 14 0.4293 0.0114 
-7 21 15 -1.6981 0.4316 
-7 21 16 0.6756 0.0286 
-7 21 17 0.2451 -0.0743 
-7 21 18 -1.9861 0.2620 
-7 21 19 3.6409 0.0275 
-7 21 20 2.3001 -0.2236 
-7 22 -6 0.6223 -0.1287 
-7 22 -5 0.8164 -0.1613 
-7 22 -4 0.4528 -0.2779 
-7 22 -3 0.0060 0.0631 
-7 22 -2 -0.8419 0.0618 
-7 22 -1 -0.8072 -0.0803 
-7 22 0 -1.0564 -0.2076 
-7 22 1 3.7163 -0.1890 
-7 22 2 -0.6453 -0.0430 
-7 22 3 -0.2095 0.0286 
-7 22 4 -1.5115 -0.0571 
-7 22 5 -0.0256 -0.0799 
-7 22 6 -1.0260 0.1226 
-7 22 7 0.6077 -0.0846 
-7 22 8 -2.2285 -0.0338 
-7 22 9 2.1711 0.0292 
-7 22 10 -0.6290 -0.3932 
-7 22 11 0.4919 0.2231 
-7 22 12 1.6639 0.1006 
-7 22 13 1.8191 -0.1219 
-7 22 14 -0.8900 0.0716 
-7 22 15 -2.1289 0.4775 
-7 22 16 -0.2512 -0.2222 
-7 22 17 -3.3126 0.1684 
-7 22 18 -0.9846 0.1217 
-7 22 19 -3.1753 0.4052 
-7 23 -6 0.7539 0.1676 
-7 23 -5 -1.4733 0.1430 
-7 23 -4 2.1863 0.1438 
-7 23 -3 -0.1593 -0.1485 
-7 23 -2 -0.8860 0.0414 
-7 23 -1 -2.1482 -0.0140 
-7 23 0 0.5161 0.1065 
-7 23 1 0.8161 -0.3422 
-7 23 2 1.0976 -0.2520 
-7 23 3 1.9405 0.0841 
-7 23 4 0.2478 0.0463 
-7 23 5 -0.1840 -0.0093 
-7 23 6 -1.3542 -0.0730 
-7 23 7 -0.3098 0.0244 
-7 23 8 0.6398 0.3183 
-7 23 9 1.0831 -0.2021 
-7 23 10 -2.9810 -0.2132 
-7 23 11 -0.1258 0.1244 
-7 23 12 0.7535 -0.0893 
-7 23 13 2.9048 -0.3074 
-7 23 14 2.1632 0.0611 
-7 23 15 1.3851 0.0865 
-7 23 16 -0.1572 -0.1531 
-7 23 17 2.1569 -0.1545 
-7 24 -6 1.1765 -0.1014 
-7 24 -5 -0.2623 0.6076 
-7 24 -4 3.4021 0.1622 
-7 24 -3 -0.2618 0.1301 
-7 24 -2 2.7928 0.1516 
-7 24 -1 -0.8224 0.4857 
-7 24 0 0.4888 0.1521 
-7 24 1 -1.5352 -0.1928 
-7 24 2 2.1806 -0.0804 
-7 24 3 2.7084 0.0612 
-7 24 4 1.3535 -0.0626 
-7 24 5 0.7278 0.0656 
-7 24 6 -0.1534 -0.2989 
-7 24 7 0.7776 0.0319 
-7 24 8 0.5513 -0.0140 
-7 24 9 1.4446 -0.1568 
-7 24 10 0.3735 -0.0847 
-7 24 11 -0.6243 0.1039 
-7 24 12 -3.4067 -0.1451 
-7 24 13 1.4332 -0.1281 
-7 24 14 1.5203 0.1949 
-7 24 15 2.2169 -0.2081 
-7 24 16 1.4274 0.7821 
-7 25 -6 -2.5659 -0.5341 
-7 25 -5 -1.3619 -0.4553 
-7 25 -4 -1.9608 -0.3045 
-7 25 -3 -0.9842 0.0944 
-7 25 -2 0.6477 -0.0423 
-7 25 -1 -1.8919 -0.0553 
-7 25 0 -0.7985 -0.0298 
-7 25 1 -2.9494 0.0510 
-7 25 2 1.9630 -0.3169 
-7 25 3 -1.7401 -0.2446 
-7 25 4 0.5917 0.1017 
-7 25 5 0.7901 0.2809 
-7 25 6 -1.4420 -0.1448 
-7 25 7 -1.8108 0.0638 
-7 25 8 -0.9824 0.0043 
-7 25 9 1.3931 -0.0615 
-7 25 10 1.9785 -0.0108 
-7 25 11 -0.2727 -0.1435 
-7 25 12 -1.5535 0.0076 
-7 25 13 -1.8113 0.4026 
-7 26 -4 -1.5353 0.0351 
-7 26 -3 0.4934 0.3965 
-7 26 -2 -2.2230 -0.0500 
-7 26 -1 -0.0443 0.0662 
-7 26 0 -2.7026 0.5840 
-7 26 1 -0.9968 0.1582 
-7 26 2 -1.0707 -0.1933 
-7 26 3 -1.8435 -0.3629 
-7 26 4 5.3317 0.2455 
-7 26 5 -1.2766 0.1307 
-7 26 6 -0.0043 0.1002 
-7 26 7 -1.0294 0.2307 
-7 26 8 -2.3412 0.2323 
-7 26 9 -1.6793 0.2794 
-7 26 10 0.1235 -0.0133 
-7 26 11 1.0346 -0.3111 
-7 27 1 -0.5239 0.1383 
-7 27 2 -4.9547 0.2206 
-7 27 3 1.6689 -0.2485 
-7 27 4 0.3185 -0.1087 
-7 27 5 -0.4400 -0.2505 
-6 0 0 -10.3560 1.4688 
-6 0 2 4.0688 -0.5796 
-6 0 4 10.4126 -0.2243 
-6 0 6 0.9604 -0.8370 
-6 0 8 -4.1843 -1.1750 
-6 0 10 -2.8888 0.8874 
-6 0 12 -0.3817 -0.2377 
-6 0 14 2.1077 0.7697 
-6 0 16 2.7726 0.6962 
-6 0 18 -0.4518 -0.6185 
-6 0 20 -1.3888 0.2657 
-6 0 22 -0.4246 -0.7372 
-6 0 24 -2.7013 -0.2494 
-6 0 26 0.6303 0.3959 
-6 0 28 0.8745 -0.3621 
-6 0 30 1.2265 0.8740 
-6 0 32 1.8027 0.0721 
-6 1 -5 3.2358 -2.3193 
-6 1 -4 7.0160 -3.7569 
-6 1 -3 2.9093 2.6001 
-6 1 -2 1.2023 -1.1823 
-6 1 -1 -2.8186 -0.5407 
-6 1 0 -6.6272 -0.4995 
-6 1 1 -2.2557 0.5990 
-6 1 2 -12.5529 1.5774 
-6 1 3 4.4486 0.3597 
-6 1 4 -0.6741 -0.4974 
-6 1 5 1.1320 -1.1079 
-6 1 6 3.3198 1.4096 
-6 1 7 -2.5432 0.7445 
-6 1 8 1.7353 -1.2334 
-6 1 9 0.9573 -0.6383 
-6 1 10 -2.6450 -0.4240 
-6 1 12 -3.5243 0.1456 
-6 1 13 -1.3023 0.8438 
-6 1 14 -1.2253 -0.9687 
-6 1 15 0.5496 -0.5347 
-6 1 16 0.2563 1.1503 
-6 1 17 1.4207 0.5594 
-6 1 18 2.9252 -0.1983 
-6 1 19 -3.4915 -0.0398 
-6 1 20 0.4605 0.1370 
-6 1 21 0.1679 -0.5497 
-6 1 22 1.1900 0.3884 
-6 1 23 -0.8122 0.4862 
-6 1 24 -1.9223 -0.6937 
-6 1 25 -0.5565 -0.5735 
-6 1 26 -1.7081 0.2164 
-6 1 27 1.3654 0.4330 
-6 1 28 -0.8909 -0.4623 
-6 1 29 -0.6747 0.4517 
-6 1 30 -0.7887 -0.5108 
-6 1 31 0.0501 -0.1881 
-6 1 32 0.2572 0.8413 
-6 2 -5 -3.1766 -2.3450 
-6 2 -4 1.0967 1.2425 
-6 2 -3 5.8625 -0.9130 
-6 2 -2 4.6989 0.4690 
-6 2 -1 5.8621 1.1733 
-6 2 0 2.4699 -1.6043 
-6 2 1 -3.2236 -0.5738 
-6 2 2 -1.3167 0.9625 
-6 2 3 -0.5183 1.2384 
-6 2 4 -1.7661 -0.3976 
-6 2 5 7.2647 -0.2315 
-6 2 6 -3.1290 0.6180 
-6 2 7 1.8499 -0.5095 
-6 2 8 1.9111 1.0516 
-6 2 9 0.3637 0.2560 
-6 2 10 3.4692 -0.9744 
-6 2 11 2.4566 -1.2654 
-6 2 12 -0.4597 0.5260 
-6 2 13 -0.9392 0.3684 
-6 2 14 -1.8086 -0.6961 
-6 2 15 -1.0293 0.1722 
-6 2 16 -2.0289 -0.6058 
-6 2 17 2.2964 -0.0945 
-6 2 18 -1.3744 0.7053 
-6 2 19 1.9041 1.0072 
-6 2 20 -0.1872 -0.6104 
-6 2 21 -2.3550 -0.3074 
-6 2 22 3.2162 0.6318 
-6 2 23 1.1731 0.0921 
-6 2 24 -1.2653 0.2100 
-6 2 25 -2.4138 -0.1573 
-6 2 26 -1.2159 -0.3498 
-6 2 27 0.2097 -0.6449 
-6 2 28 -2.1313 0.5891 
-6 2 29 0.6257 0.0274 
-6 2 30 -0.9269 -0.8202 
-6 2 31 0.2758 0.3018 
-6 2 32 -0.8355 -0.3795 
-6 3 -5 -6.7324 2.0326 
-6 3 -4 -4.7501 -0.0990 
-6 3 -3 -3.7793 -2.6104 
-6 3 -2 4.7531 1.1672 
-6 3 -1 2.5768 0.0986 
-6 3 0 0.5439 0.1741 
-6 3 1 2.2091 -1.0264 
-6 3 2 -1.7407 -0.9491 
-6 3 3 -4.1858 -0.0734 
-6 3 4 2.7019 0.8359 
-6 3 5 -1.0296 0.9388 
-6 3 6 4.8291 -1.3955 
-6 3 7 2.3533 -0.0004 
-6 3 8 -4.1918 1.1483 
-6 3 9 0.5079 0.5735 
-6 3 10 2.2327 0.0629 
-6 3 11 1.5657 -0.0356 
-6 3 12 2.9245 -0.3681 
-6 3 13 1.2356 -0.7503 
-6 3 14 2.4577 1.1556 
-6 3 15 0.6751 0.1608 
-6 3 16 0.5712 -1.0202 
-6 3 17 -0.6138 -0.5190 
-6 3 18 0.3097 0.3433 
-6 3 19 3.9136 0.1121 
-6 3 20 -1.8948 -0.0397 
-6 3 21 1.5731 0.7613 
-6 3 22 1.8624 -0.4970 
-6 3 23 1.4378 -0.0331 
-6 3 24 3.8442 0.7850 
-6 3 25 0.9377 0.5075 
-6 3 26 -0.1441 -0.3565 
-6 3 27 -0.3150 -0.3675 
-6 3 28 -0.8617 0.0654 
-6 3 29 -0.3360 -0.4721 
-6 3 30 -1.3123 0.3238 
-6 3 31 1.5499 -0.0901 
-6 3 32 1.1297 -0.3163 
-6 4 -5 0.5551 1.3019 
-6 4 -4 -4.2635 -0.2526 
-6 4 -3 -3.9935 0.6283 
-6 4 -2 -0.1815 -0.7964 
-6 4 -1 -1.5792 -0.0038 
-6 4 0 4.1290 1.5116 
-6 4 1 -0.9092 -0.0307 
-6 4 2 -1.5336 -1.0339 
-6 4 3 -2.1127 -0.9093 
-6 4 4 -6.2528 0.7912 
-6 4 5 -0.8112 -0.0622 
-6 4 6 3.9825 -0.1757 
-6 4 7 -3.1161 0.5260 
-6 4 8 2.8262 -0.8050 
-6 4 9 -1.9406 0.0928 
-6 4 10 -2.5104 1.0716 
-6 4 11 -0.5527 0.9843 
-6 4 12 -0.2685 -0.9588 
-6 4 14 -0.1146 0.3696 
-6 4 15 -0.3321 -0.0476 
-6 4 16 1.5213 0.4510 
-6 4 17 -1.3830 -0.1845 
-6 4 18 -0.7474 -0.6603 
-6 4 19 -0.4754 -0.9453 
-6 4 20 1.4457 0.6157 
-6 4 21 1.9716 0.0421 
-6 4 22 -2.3913 -0.5838 
-6 4 23 0.8524 0.0727 
-6 4 24 3.2131 0.0443 
-6 4 25 0.4111 0.4857 
-6 4 26 3.4562 0.4225 
-6 4 27 0.9234 0.4586 
-6 4 28 3.0977 -0.4910 
-6 4 29 -1.1486 -0.1930 
-6 4 30 -1.7034 0.1396 
-6 4 31 -0.9602 -0.1599 
-6 5 -5 3.5933 -1.1623 
-6 5 -4 0.8380 0.8868 
-6 5 -3 -3.1492 0.8808 
-6 5 -2 -1.5175 -0.5688 
-6 5 -1 -0.4132 0.2791 
-6 5 0 2.9015 0.2001 
-6 5 1 1.0249 1.1033 
-6 5 2 1.7559 0.2638 
-6 5 3 -1.4539 -0.1159 
-6 5 4 -1.1308 -1.0029 
-6 5 5 -0.0951 -0.5533 
-6 5 6 -4.9616 1.1817 
-6 5 7 3.7211 -0.2843 
-6 5 8 1.5931 -0.8230 
-6 5 9 -1.9238 -0.4695 
-6 5 10 0.5646 0.2548 
-6 5 11 -0.7992 0.0526 
-6 5 12 -0.0347 0.6567 
-6 5 13 -0.8760 0.3526 
-6 5 14 -1.3544 -1.0012 
-6 5 15 -1.3720 0.1746 
-6 5 16 -0.4009 0.8269 
-6 5 17 -1.8746 0.3596 
-6 5 18 -2.6006 -0.3928 
-6 5 19 -3.7285 -0.0374 
-6 5 20 -1.6870 -0.0002 
-6 5 21 0.2129 -0.6768 
-6 5 22 -0.7083 0.3621 
-6 5 23 -0.0601 -0.0792 
-6 5 24 -3.1455 -0.5367 
-6 5 25 -0.7531 -0.3307 
-6 5 26 -1.1974 0.6220 
-6 5 27 0.0144 0.4179 
-6 5 28 2.7490 -0.1285 
-6 5 29 -0.1137 0.2154 
-6 5 30 1.3549 -0.0428 
-6 5 31 -2.9735 -0.1557 
-6 6 -5 3.5226 -0.7621 
-6 6 -4 -0.1438 -0.3397 
-6 6 -3 1.2042 -0.5016 
-6 6 -2 -3.0143 0.3313 
-6 6 -1 -0.9144 -0.5534 
-6 6 0 2.1860 -0.5783 
-6 6 1 -1.7647 0.2387 
-6 6 2 1.4195 1.0341 
-6 6 3 -0.4848 0.3584 
-6 6 4 -0.3307 -0.8950 
-6 6 5 -2.8073 0.2724 
-6 6 6 -0.2758 -0.2408 
-6 6 7 0.7700 -0.0804 
-6 6 8 -2.2049 0.4543 
-6 6 9 2.6725 -0.1080 
-6 6 10 0.3842 -0.9854 
-6 6 11 0.7288 -0.6030 
-6 6 12 0.6728 1.0682 
-6 6 13 2.2575 -0.0734 
-6 6 14 1.2981 -0.0224 
-6 6 15 0.1918 0.0052 
-6 6 16 1.8480 -0.0889 
-6 6 17 -0.0320 0.1956 
-6 6 18 2.7116 0.6234 
-6 6 19 -4.0151 0.5909 
-6 6 20 -1.3921 -0.6898 
-6 6 21 -1.9649 -0.0305 
-6 6 22 1.9809 0.2811 
-6 6 23 0.3099 0.0145 
-6 6 24 -0.3857 -0.1888 
-6 6 25 -0.6730 -0.1942 
-6 6 26 -1.4836 -0.1853 
-6 6 27 -1.8558 -0.4453 
-6 6 28 -2.4746 0.4709 
-6 6 29 1.8616 0.0378 
-6 6 30 1.5194 -0.2660 
-6 6 31 0.4347 -0.0546 
-6 7 -5 1.0397 0.9349 
-6 7 -4 1.3919 -0.5809 
-6 7 -3 0.8680 -0.3774 
-6 7 -2 -1.9198 0.1278 
-6 7 -1 2.9533 0.0248 
-6 7 0 -2.3197 -0.3713 
-6 7 1 3.5828 -0.4177 
-6 7 2 2.2719 0.2244 
-6 7 3 -2.5802 0.0033 
-6 7 4 0.7327 1.1537 
-6 7 5 -1.1644 -0.0617 
-6 7 6 -0.1403 -0.7150 
-6 7 7 -3.3507 0.2023 
-6 7 8 -1.1096 0.5525 
-6 7 9 -1.6001 0.3814 
-6 7 10 -1.1412 -0.6182 
-6 7 11 -0.3295 -0.0236 
-6 7 12 0.9211 -0.7883 
-6 7 13 0.6660 -0.0709 
-6 7 14 -0.0259 0.6442 
-6 7 15 3.3680 -0.3095 
-6 7 16 -1.5540 -0.6009 
-6 7 17 2.2857 -0.0583 
-6 7 18 0.8700 0.5698 
-6 7 19 0.5811 0.0146 
-6 7 20 0.7879 0.2102 
-6 7 21 -1.9483 0.2374 
-6 7 22 2.1524 -0.4891 
-6 7 23 0.2270 0.0406 
-6 7 24 2.5777 0.4723 
-6 7 25 1.9619 0.3431 
-6 7 26 1.1829 -0.4930 
-6 7 27 -1.0352 -0.1070 
-6 7 28 -0.3911 0.2143 
-6 7 29 -1.6173 -0.4950 
-6 7 30 -0.2900 0.0096 
-6 7 31 0.6084 -0.0604 
-6 8 -5 0.5124 0.3836 
-6 8 -4 -0.3124 -0.0001 
-6 8 -3 0.0111 0.0300 
-6 8 -2 -0.1686 -0.2280 
-6 8 -1 -2.6375 0.1203 
-6 8 0 1.0635 0.1752 
-6 8 1 3.4405 -0.1593 
-6 8 2 -0.8318 -1.0980 
-6 8 3 4.1315 0.2067 
-6 8 4 0.0034 0.4229 
-6 8 5 0.8453 -0.1874 
-6 8 6 2.5095 0.2906 
-6 8 7 1.3759 -0.0896 
-6 8 8 0.0009 -0.0966 
-6 8 9 -2.9532 -0.0369 
-6 8 10 -2.5385 0.8952 
-6 8 11 -1.3061 0.0600 
-6 8 12 -1.3579 -0.9776 
-6 8 13 -1.8405 0.1327 
-6 8 14 1.2805 -0.0699 
-6 8 15 0.0380 -0.0132 
-6 8 16 0.1459 -0.2115 
-6 8 17 1.3371 -0.2107 
-6 8 18 -4.4379 -0.5433 
-6 8 19 1.3968 -0.0791 
-6 8 20 -3.1305 0.7005 
-6 8 21 0.6623 -0.0997 
-6 8 22 -2.2882 -0.1848 
-6 8 23 1.5662 -0.2212 
-6 8 24 1.6769 0.2147 
-6 8 25 0.1335 0.2332 
-6 8 26 1.2758 0.3445 
-6 8 27 3.9577 0.2272 
-6 8 28 -0.8476 -0.3116 
-6 8 29 -1.4417 -0.0795 
-6 8 30 -0.9311 0.2244 
-6 8 31 -0.8823 -0.2624 
-6 9 -5 -2.2627 -0.4521 
-6 9 -4 3.5393 0.6144 
-6 9 -3 0.7623 0.1741 
-6 9 -2 -1.6037 -0.2498 
-6 9 -1 -0.1703 -0.0324 
-6 9 0 -1.5077 0.4749 
-6 9 1 -1.9768 -0.0569 
-6 9 2 3.3777 0.0133 
-6 9 3 -0.5652 -0.2117 
-6 9 4 -1.8281 -0.8159 
-6 9 5 1.1447 0.1956 
-6 9 6 -0.2595 0.4130 
-6 9 7 4.0873 -0.0108 
-6 9 8 2.7153 -0.5438 
-6 9 9 2.0738 0.0959 
-6 9 10 0.2753 0.5365 
-6 9 11 -1.6934 0.0303 
-6 9 12 -0.6662 0.4928 
-6 9 13 0.1794 -0.2712 
-6 9 14 -0.4205 -0.3289 
-6 9 15 -0.5831 0.2685 
-6 9 16 3.8432 0.4200 
-6 9 17 0.3749 -0.2608 
-6 9 18 1.1071 -0.5333 
-6 9 19 -2.0563 0.0273 
-6 9 20 -3.5942 -0.1583 
-6 9 21 -3.0018 -0.0274 
-6 9 22 -2.0728 0.0858 
-6 9 23 0.5835 -0.2425 
-6 9 24 -3.4489 -0.3601 
-6 9 25 -0.6683 0.0002 
-6 9 26 1.9046 0.4480 
-6 9 27 0.8578 0.0316 
-6 9 28 0.9161 -0.1090 
-6 9 29 1.4550 0.1350 
-6 9 30 -2.1385 -0.2212 
-6 10 -5 0.0160 -0.0697 
-6 10 -4 0.9515 0.0771 
-6 10 -3 -0.0306 0.0650 
-6 10 -2 3.3640 0.1287 
-6 10 -1 -1.3539 -0.0207 
-6 10 0 -2.0972 -0.1732 
-6 10 1 2.8289 0.4286 
-6 10 2 -1.4388 0.6949 
-6 10 3 0.5525 -0.3077 
-6 10 4 2.3621 -0.2006 
-6 10 5 -3.3574 -0.0377 
-6 10 6 -1.8005 0.0481 
-6 10 7 -0.4015 -0.1047 
-6 10 8 0.8565 0.1480 
-6 10 9 3.7335 -0.0954 
-6 10 10 -0.1093 -0.5566 
-6 10 11 0.2639 0.3801 
-6 10 12 0.0347 0.5637 
-6 10 13 -0.1481 -0.1320 
-6 10 14 -0.1405 -0.0789 
-6 10 15 0.0885 0.1469 
-6 10 16 1.0246 0.2390 
-6 10 17 3.5068 0.0026 
-6 10 18 5.1771 0.4204 
-6 10 19 0.7832 -0.0481 
-6 10 20 -0.9976 -0.2091 
-6 10 21 -0.7826 0.0494 
-6 10 22 0.0612 0.1274 
-6 10 23 -2.5526 -0.0083 
-6 10 24 -0.2619 -0.4234 
-6 10 25 0.7095 0.0880 
-6 10 26 -2.6533 -0.1894 
-6 10 27 -0.1604 0.3902 
-6 10 28 3.5978 0.1101 
-6 10 29 1.3199 0.0483 
-6 10 30 -1.0030 -0.0863 
-6 11 -5 0.9212 -0.0202 
-6 11 -4 -4.2810 -0.4650 
-6 11 -3 1.9743 -0.0096 
-6 11 -2 -1.8396 0.0868 
-6 11 -1 -0.0568 -0.2704 
-6 11 0 0.8938 -0.3431 
-6 11 1 -3.1912 0.1555 
-6 11 2 -2.0380 -0.0403 
-6 11 3 3.7769 0.2938 
-6 11 4 -2.0798 0.2154 
-6 11 5 1.0171 -0.1307 
-6 11 6 -0.7512 -0.2869 
-6 11 7 -2.2567 0.1321 
-6 11 8 -0.5329 0.4471 
-6 11 9 0.4989 -0.2764 
-6 11 10 0.4978 -0.2459 
-6 11 11 1.6767 -0.0998 
-6 11 12 -1.2674 -0.0831 
-6 11 13 -0.9720 0.1875 
-6 11 14 -0.4577 0.1371 
-6 11 15 -1.4329 -0.1264 
-6 11 16 -0.6501 -0.3067 
-6 11 17 0.8775 0.3352 
-6 11 18 2.1096 0.1781 
-6 11 19 3.5436 -0.0792 
-6 11 20 2.3526 0.2046 
-6 11 21 0.8126 0.0953 
-6 11 22 -2.1513 0.0635 
-6 11 23 2.3913 -0.1514 
-6 11 24 2.7804 0.1660 
-6 11 25 -0.4155 -0.1565 
-6 11 26 -1.3548 -0.2910 
-6 11 27 1.8422 0.2639 
-6 11 28 1.0862 -0.4123 
-6 11 29 1.1427 0.2705 
-6 11 30 1.2222 -0.1888 
-6 12 -5 -0.1573 0.0853 
-6 12 -4 0.4498 -0.0146 
-6 12 -3 -1.2359 0.0746 
-6 12 -2 -0.6535 0.0861 
-6 12 -1 3.6264 -0.0201 
-6 12 0 -1.7757 0.1231 
-6 12 1 -1.7485 -0.4306 
-6 12 2 2.6667 -0.1470 
-6 12 3 -3.7804 0.2792 
-6 12 4 -0.2258 0.1845 
-6 12 5 0.4447 -0.0476 
-6 12 6 -0.9738 -0.1532 
-6 12 7 -0.9000 0.1657 
-6 12 8 -2.1966 -0.0000 
-6 12 9 -1.7101 0.1455 
-6 12 10 0.1487 0.1704 
-6 12 11 2.5248 -0.2551 
-6 12 12 -1.2031 -0.2444 
-6 12 13 1.0132 -0.0076 
-6 12 14 -0.6209 0.0592 
-6 12 15 -0.3099 -0.2813 
-6 12 16 -0.2071 -0.0691 
-6 12 17 -3.8958 -0.0003 
-6 12 18 1.4445 -0.4297 
-6 12 19 0.2147 0.1423 
-6 12 20 0.3298 0.1223 
-6 12 21 -2.7692 0.1397 
-6 12 22 -1.3822 -0.1351 
-6 12 23 -0.4613 0.0253 
-6 12 24 -2.0675 0.2361 
-6 12 25 -1.5147 -0.0070 
-6 12 26 1.3566 0.3083 
-6 12 27 -0.7171 -0.0968 
-6 12 28 -0.6420 -0.0451 
-6 12 29 1.0924 -0.2618 
-6 13 -5 -0.6629 0.0143 
-6 13 -4 1.3205 0.1002 
-6 13 -3 -2.9677 0.1035 
-6 13 -2 2.9650 -0.0598 
-6 13 -1 -0.2413 0.3377 
-6 13 0 1.1072 0.0406 
-6 13 1 4.1620 -0.1699 
-6 13 2 -0.2320 -0.1192 
-6 13 3 0.0143 -0.1433 
-6 13 4 4.1570 -0.0809 
-6 13 5 -2.4285 -0.0307 
-6 13 6 3.2544 0.1358 
-6 13 7 -1.5597 -0.1172 
-6 13 8 0.1803 -0.2017 
-6 13 9 -3.6220 0.1847 
-6 13 10 -0.6259 0.1918 
-6 13 11 -2.7151 0.1616 
-6 13 12 -0.8990 -0.0890 
-6 13 13 1.6966 0.0951 
-6 13 14 -3.1004 -0.0097 
-6 13 15 1.8155 0.1206 
-6 13 16 -2.8929 0.1684 
-6 13 17 2.3593 -0.2829 
-6 13 18 0.6445 -0.1085 
-6 13 19 -1.2764 0.0341 
-6 13 20 2.3578 -0.0608 
-6 13 21 -0.7819 0.1199 
-6 13 22 0.1476 0.0208 
-6 13 23 -2.0357 -0.0340 
-6 13 24 -2.7556 -0.0640 
-6 13 25 -1.1105 -0.0252 
-6 13 26 -1.5468 0.5092 
-6 13 27 -3.3911 0.3210 
-6 13 28 1.1223 0.5571 
-6 13 29 0.4730 -0.0010 
-6 14 -5 -1.0148 -0.1661 
-6 14 -4 0.8052 0.0800 
-6 14 -3 -1.8286 -0.1264 
-6 14 -2 -1.5171 -0.0380 
-6 14 -1 -3.4947 0.0724 
-6 14 0 3.9965 0.0596 
-6 14 1 -1.1798 0.2801 
-6 14 2 -2.4284 0.0312 
-6 14 3 4.1240 -0.0954 
-6 14 4 -1.6367 -0.2481 
-6 14 5 3.2141 0.2039 
-6 14 6 0.9795 -0.0173 
-6 14 7 1.0588 -0.1162 
-6 14 8 4.1579 0.0018 
-6 14 9 -0.3459 0.0161 
-6 14 10 -0.0368 0.0330 
-6 14 11 -2.7966 0.0728 
-6 14 12 3.1493 0.1335 
-6 14 13 -2.2372 0.1168 
-6 14 14 -0.4482 -0.1244 
-6 14 15 -1.4125 0.3453 
-6 14 16 -0.8019 0.0783 
-6 14 17 1.1410 0.0315 
-6 14 18 -2.6668 -0.0210 
-6 14 19 3.4683 -0.1245 
-6 14 20 1.0778 -0.1248 
-6 14 21 0.4705 -0.0181 
-6 14 22 2.4883 0.0421 
-6 14 23 0.3027 -0.1227 
-6 14 24 2.3677 -0.2891 
-6 14 25 1.7949 -0.3730 
-6 14 26 -3.5820 0.1639 
-6 14 27 0.0853 -0.2959 
-6 14 28 0.7159 0.6029 
-6 15 -5 0.8255 -0.0152 
-6 15 -4 1.1504 -0.0763 
-6 15 -3 -1.1114 -0.0373 
-6 15 -2 -3.4788 -0.0357 
-6 15 -1 -0.4951 -0.1271 
-6 15 0 -0.4488 -0.0176 
-6 15 1 -1.9156 0.1472 
-6 15 2 1.7984 0.2443 
-6 15 3 -3.7683 -0.0138 
-6 15 4 -0.6003 0.1689 
-6 15 5 1.7240 0.0221 
-6 15 6 -3.7308 -0.1332 
-6 15 7 4.2957 0.1240 
-6 15 8 -0.0607 -0.0083 
-6 15 9 1.3144 -0.1278 
-6 15 10 0.9775 -0.1835 
-6 15 11 1.4334 -0.0212 
-6 15 12 1.2134 0.1373 
-6 15 13 -0.3788 -0.2433 
-6 15 14 3.0365 -0.0463 
-6 15 15 0.2004 -0.0171 
-6 15 16 0.6722 0.0727 
-6 15 17 -1.8093 0.0952 
-6 15 18 2.1439 0.0984 
-6 15 19 -0.0058 -0.1169 
-6 15 20 0.1952 -0.0701 
-6 15 21 -0.1234 0.1593 
-6 15 22 -1.2081 0.0373 
-6 15 23 -1.8648 -0.0127 
-6 15 24 3.3844 -0.1671 
-6 15 25 -2.5807 0.0575 
-6 15 26 -1.1193 -0.1491 
-6 15 27 0.1217 -0.0521 
-6 16 -5 2.5616 -0.0489 
-6 16 -4 0.1623 0.0244 
-6 16 -3 2.5187 0.0194 
-6 16 -2 0.9966 0.0730 
-6 16 -1 -3.2495 -0.0854 
-6 16 0 -1.7839 -0.1972 
-6 16 1 4.2394 -0.1360 
-6 16 2 -0.7247 -0.0944 
-6 16 3 -0.8414 0.0583 
-6 16 4 0.5534 0.0631 
-6 16 5 -3.4377 -0.2045 
-6 16 6 2.7356 0.0844 
-6 16 7 -1.1634 0.0748 
-6 16 8 -2.9223 0.0674 
-6 16 9 1.9053 -0.1089 
-6 16 10 -0.5054 -0.1043 
-6 16 11 -1.9011 -0.0085 
-6 16 12 -1.6451 -0.0810 
-6 16 13 0.6770 0.0350 
-6 16 14 0.2138 -0.0148 
-6 16 15 -1.6048 -0.2605 
-6 16 16 -1.4486 0.0421 
-6 16 17 1.4237 0.1455 
-6 16 18 -1.7432 0.1904 
-6 16 19 2.0887 -0.3268 
-6 16 20 1.7416 0.2408 
-6 16 21 1.4341 0.0953 
-6 16 22 -0.2865 0.0903 
-6 16 23 1.5365 0.0181 
-6 16 24 -0.8992 -0.1353 
-6 16 25 -1.6171 0.0237 
-6 16 26 0.5322 -0.3392 
-6 16 27 -5.6619 0.2606 
-6 17 -5 1.2151 -0.0406 
-6 17 -4 0.6460 0.0214 
-6 17 -3 5.9250 -0.1077 
-6 17 -2 -0.4165 0.1440 
-6 17 -1 -1.4380 0.0482 
-6 17 0 0.3572 0.0399 
-6 17 1 -1.6872 -0.1285 
-6 17 2 2.2678 -0.1241 
-6 17 3 1.9109 0.0202 
-6 17 4 -3.7810 0.0073 
-6 17 5 2.0921 -0.0625 
-6 17 6 0.9240 -0.0376 
-6 17 7 -2.5780 0.0853 
-6 17 8 2.1990 0.2192 
-6 17 9 0.8048 0.1022 
-6 17 10 -1.3955 0.2039 
-6 17 11 -1.5906 -0.1968 
-6 17 12 0.3021 0.0869 
-6 17 13 -0.9079 0.1606 
-6 17 14 -0.0121 -0.0575 
-6 17 15 -1.4400 -0.1248 
-6 17 16 -0.0278 -0.2050 
-6 17 17 -3.0934 0.0556 
-6 17 18 -2.1785 -0.2037 
-6 17 19 0.1811 0.0003 
-6 17 20 -2.3328 -0.0938 
-6 17 21 3.1845 -0.1974 
-6 17 22 1.0628 0.1191 
-6 17 23 2.6693 0.1419 
-6 17 24 1.1036 -0.0216 
-6 17 25 7.8988 -0.1516 
-6 17 26 0.9845 -0.3163 
-6 18 -5 -0.9995 0.0842 
-6 18 -4 -2.5356 -0.0363 
-6 18 -3 1.6597 -0.0901 
-6 18 -2 0.7784 0.0571 
-6 18 -1 2.6831 -0.0304 
-6 18 0 -4.1151 0.1702 
-6 18 1 -1.0567 -0.0323 
-6 18 2 2.8065 -0.0733 
-6 18 3 -1.0790 -0.0768 
-6 18 4 1.9054 -0.0522 
-6 18 5 -0.4043 -0.0827 
-6 18 6 -1.8726 -0.1223 
-6 18 7 2.6179 -0.2144 
-6 18 8 1.5681 -0.1388 
-6 18 9 0.0484 0.2845 
-6 18 10 1.1863 0.1021 
-6 18 11 2.9025 -0.1260 
-6 18 12 -0.9417 0.1063 
-6 18 13 -0.3598 -0.0196 
-6 18 14 2.0973 0.2987 
-6 18 15 1.1371 0.1108 
-6 18 16 1.8876 -0.0498 
-6 18 17 -0.6946 -0.0663 
-6 18 18 1.9438 -0.0191 
-6 18 19 -2.6766 0.2155 
-6 18 20 -0.0171 -0.3268 
-6 18 21 -0.4593 -0.0388 
-6 18 22 -1.3002 -0.0215 
-6 18 23 -2.1995 0.2316 
-6 18 24 1.8479 -0.1571 
-6 18 25 2.3206 0.0844 
-6 19 -5 -5.4930 0.0872 
-6 19 -4 -1.6180 -0.0984 
-6 19 -3 0.0178 0.1880 
-6 19 -2 1.0999 -0.1264 
-6 19 -1 1.6687 -0.0049 
-6 19 0 -2.2329 0.0550 
-6 19 1 -1.1532 0.1627 
-6 19 2 -3.0355 0.0457 
-6 19 3 2.5505 -0.1171 
-6 19 4 0.1783 -0.0411 
-6 19 5 -1.8800 0.0846 
-6 19 6 0.5108 -0.0766 
-6 19 7 1.0090 -0.3575 
-6 19 8 -1.0817 -0.2099 
-6 19 9 -0.7858 -0.0242 
-6 19 10 1.8945 -0.0979 
-6 19 11 1.6113 0.1264 
-6 19 12 -0.8902 -0.1254 
-6 19 13 1.4851 -0.0661 
-6 19 14 -0.5686 0.1258 
-6 19 15 0.6156 0.2052 
-6 19 16 -0.7929 0.1970 
-6 19 17 0.2484 0.1299 
-6 19 18 0.8121 0.1597 
-6 19 19 -0.8060 0.0478 
-6 19 20 0.7733 -0.0038 
-6 19 21 -1.2039 -0.0353 
-6 19 22 -0.4207 0.0690 
-6 19 23 -0.7065 -0.3294 
-6 19 24 -1.9642 -0.2150 
-6 20 -5 -2.5987 -0.0792 
-6 20 -4 0.1387 -0.1325 
-6 20 -3 -4.2427 0.0996 
-6 20 -2 1.8563 -0.1181 
-6 20 -1 3.1137 -0.0640 
-6 20 0 0.5688 -0.0572 
-6 20 1 -1.1331 0.1127 
-6 20 2 -2.1103 0.0695 
-6 20 3 -0.4430 0.1802 
-6 20 4 -2.2032 0.0278 
-6 20 5 0.9435 0.1246 
-6 20 6 -2.4880 0.1927 
-6 20 7 0.5522 0.1754 
-6 20 8 -1.7990 -0.1093 
-6 20 9 -0.1915 -0.2310 
-6 20 10 -1.8189 -0.0841 
-6 20 11 -2.1511 0.0977 
-6 20 12 -0.2922 -0.1256 
-6 20 13 0.8421 -0.2704 
-6 20 14 -0.4231 -0.1230 
-6 20 15 0.2904 -0.1606 
-6 20 16 -0.2211 -0.0439 
-6 20 17 -0.6379 0.0581 
-6 20 18 -1.2877 0.0668 
-6 20 19 0.5697 0.0292 
-6 20 20 -0.3722 0.0443 
-6 20 21 -2.5792 0.1226 
-6 20 22 0.2641 0.1484 
-6 20 23 1.5346 0.0357 
-6 21 -5 2.6998 -0.0202 
-6 21 -4 -1.1881 0.1597 
-6 21 -3 -3.4909 0.1114 
-6 21 -2 0.4445 0.2127 
-6 21 -1 -0.5130 -0.0005 
-6 21 0 4.6361 -0.0226 
-6 21 1 1.6133 -0.1886 
-6 21 2 0.4244 0.1986 
-6 21 3 -1.0513 0.0284 
-6 21 4 2.1755 -0.1217 
-6 21 5 -0.7189 -0.0269 
-6 21 6 -0.5542 0.1173 
-6 21 7 0.1196 0.1727 
-6 21 8 0.0560 0.0552 
-6 21 9 2.2991 0.0141 
-6 21 10 -2.4863 -0.1040 
-6 21 11 -0.9477 0.1228 
-6 21 12 -0.6887 -0.2279 
-6 21 13 -1.4162 0.1359 
-6 21 14 -2.2090 -0.0728 
-6 21 15 2.5863 -0.3356 
-6 21 16 -0.2552 -0.0309 
-6 21 17 -0.6328 -0.1413 
-6 21 18 -0.2162 0.0537 
-6 21 19 2.1632 0.1323 
-6 21 20 0.6106 0.0727 
-6 21 21 1.1700 0.0796 
-6 21 22 -0.0245 0.0954 
-6 22 -5 2.5114 -0.0708 
-6 22 -4 3.0305 -0.0711 
-6 22 -3 -1.6485 -0.0452 
-6 22 -2 -2.9151 0.1096 
-6 22 -1 -2.2393 0.2116 
-6 22 0 2.0452 -0.0594 
-6 22 1 -0.2931 -0.1041 
-6 22 2 2.0430 0.0941 
-6 22 3 -0.9603 0.0369 
-6 22 4 1.3792 0.0559 
-6 22 5 -0.3234 -0.0074 
-6 22 6 2.0386 -0.0829 
-6 22 7 -0.7421 0.0625 
-6 22 8 2.7120 0.1642 
-6 22 9 0.5066 0.1092 
-6 22 10 1.0564 0.1366 
-6 22 11 2.7305 0.0116 
-6 22 12 -0.1684 0.1102 
-6 22 13 -1.3756 0.3266 
-6 22 14 0.3343 -0.1061 
-6 22 15 -0.5638 0.2386 
-6 22 16 -0.6061 0.0060 
-6 22 17 0.9880 -0.3904 
-6 22 18 -3.6022 0.1188 
-6 22 19 -2.1622 -0.0190 
-6 22 20 -0.7465 -0.0476 
-6 22 21 2.7293 -0.3738 
-6 23 -5 1.9071 0.1952 
-6 23 -4 1.0089 -0.2056 
-6 23 -3 1.1396 -0.2143 
-6 23 -2 -0.9656 -0.0612 
-6 23 -1 -2.6450 0.2941 
-6 23 0 -2.3427 -0.2167 
-6 23 1 1.0027 0.0210 
-6 23 2 0.9372 -0.0783 
-6 23 3 -1.4917 0.0236 
-6 23 4 -0.4245 0.0716 
-6 23 5 -2.0784 0.0192 
-6 23 6 0.3072 -0.0009 
-6 23 7 -0.2192 0.0461 
-6 23 8 -0.2901 0.1042 
-6 23 9 -0.3602 -0.0276 
-6 23 10 2.5005 0.1199 
-6 23 11 -0.1013 0.0425 
-6 23 12 1.2858 0.0757 
-6 23 13 2.6843 -0.1911 
-6 23 14 -0.2121 0.1344 
-6 23 15 -1.3095 0.2605 
-6 23 16 3.1373 -0.1970 
-6 23 17 0.4982 -0.2459 
-6 23 18 1.5658 -0.0494 
-6 23 19 -3.2715 -0.1806 
-6 23 20 -1.1220 0.4892 
-6 24 -5 1.2412 0.1355 
-6 24 -4 -0.5710 0.1984 
-6 24 -3 4.5379 -0.0406 
-6 24 -2 0.6844 0.0333 
-6 24 -1 0.2500 -0.0909 
-6 24 0 -1.7522 0.1678 
-6 24 1 0.7958 0.1458 
-6 24 2 0.1873 -0.2166 
-6 24 3 2.2564 -0.0206 
-6 24 4 -0.0168 0.0803 
-6 24 5 -1.1550 -0.1755 
-6 24 6 0.9689 -0.1239 
-6 24 7 -2.8361 -0.0092 
-6 24 8 0.6010 -0.1265 
-6 24 9 -0.4095 -0.2485 
-6 24 10 -1.3466 0.1025 
-6 24 11 -1.6709 -0.0466 
-6 24 12 2.1424 -0.0808 
-6 24 13 0.3931 -0.0826 
-6 24 14 1.3869 -0.0931 
-6 24 15 0.9689 0.3041 
-6 24 16 -1.3888 -0.0106 
-6 24 17 2.5431 0.1533 
-6 24 18 3.5952 -0.6968 
-6 25 -5 -2.0142 -0.2130 
-6 25 -4 -1.5380 0.2665 
-6 25 -3 0.2466 0.0604 
-6 25 -2 0.6257 -0.4216 
-6 25 -1 2.5300 -0.2326 
-6 25 0 -1.4167 0.1312 
-6 25 1 -0.2762 -0.2740 
-6 25 2 -1.3418 -0.2620 
-6 25 3 1.8803 0.0100 
-6 25 4 -0.1969 0.0394 
-6 25 5 0.6736 -0.2159 
-6 25 6 -1.0041 0.0624 
-6 25 7 0.1515 0.0502 
-6 25 8 2.1772 0.0134 
-6 25 9 -1.8076 -0.0298 
-6 25 10 0.5786 -0.0973 
-6 25 11 -1.1839 0.0165 
-6 25 12 -1.2758 0.3627 
-6 25 13 -1.4219 -0.1555 
-6 25 14 2.7759 -0.0928 
-6 25 15 -0.5514 0.2316 
-6 25 16 0.0991 0.4931 
-6 25 17 -0.2295 0.7223 
-6 26 -5 0.3931 -0.0964 
-6 26 -4 -0.5042 0.3219 
-6 26 -3 -3.6742 0.1995 
-6 26 -2 -0.1353 0.3281 
-6 26 -1 -0.6221 0.3010 
-6 26 0 0.2988 0.0252 
-6 26 1 -0.1344 0.0204 
-6 26 2 -1.2971 0.1598 
-6 26 3 2.3513 0.0591 
-6 26 4 -1.5262 -0.1500 
-6 26 5 0.7559 0.0071 
-6 26 6 -1.3453 -0.0345 
-6 26 7 -0.3875 -0.0227 
-6 26 8 -1.2685 0.2619 
-6 26 9 0.7070 0.1802 
-6 26 10 0.8689 -0.2429 
-6 26 11 -0.1862 0.0254 
-6 26 12 -1.2399 0.4051 
-6 26 13 -0.6087 0.0203 
-6 26 14 -0.6630 -0.1186 
-6 26 15 -0.6884 -0.7195 
-6 27 -5 3.2886 -0.3499 
-6 27 -4 0.9501 -0.4310 
-6 27 -3 1.1857 -0.1417 
-6 27 -2 -0.7363 0.5698 
-6 27 -1 -1.9973 -0.1095 
-6 27 0 1.1824 -0.0572 
-6 27 1 -1.9125 0.3650 
-6 27 2 0.7222 0.2389 
-6 27 3 -0.7885 0.0419 
-6 27 4 0.1256 0.2002 
-6 27 5 3.9672 0.4122 
-6 27 6 -2.2440 -0.3473 
-6 27 7 0.5818 -0.2389 
-6 27 8 -1.2418 0.1701 
-6 27 9 -0.8174 0.2084 
-6 27 10 -1.3525 -0.4609 
-6 27 11 -1.0195 -0.2370 
-6 27 12 -0.3005 -0.2642 
-6 28 -3 1.5974 0.0553 
-6 28 -2 -0.9186 -0.2513 
-6 28 -1 0.7306 -0.5654 
-6 28 0 -0.1614 0.0584 
-6 28 1 -0.3571 -0.5282 
-6 28 2 -0.5457 -0.7549 
-6 28 3 -2.3715 -0.4165 
-6 28 4 1.0047 0.0206 
-6 28 5 -0.7971 -0.0924 
-6 28 6 -0.1812 -0.3859 
-6 28 7 3.6438 -0.0851 
-6 28 8 -1.5249 -0.2246 
-5 0 -1 -12.3939 -2.7477 
-5 0 1 -2.2930 0.2134 
-5 0 3 21.9056 -1.3863 
-5 0 5 5.1378 0.2498 
-5 0 7 -7.4679 0.8665 
-5 0 9 -4.5590 -0.2866 
-5 0 11 -1.1470 1.2205 
-5 0 13 2.5952 -0.6405 
-5 0 15 1.5683 -0.4603 
-5 0 17 1.6093 0.0694 
-5 0 19 -1.8715 -0.7961 
-5 0 21 1.3184 0.6836 
-5 0 23 -2.0523 0.3009 
-5 0 25 0.1883 0.0747 
-5 0 27 0.3770 0.5112 
-5 0 29 1.3660 -0.7006 
-5 0 31 -0.0466 0.1026 
-5 0 33 3.5992 -0.4942 
-5 1 -3 4.3535 1.0974 
-5 1 -2 -0.7709 1.4848 
-5 1 -1 -7.8886 0.4823 
-5 1 0 -6.0067 -0.8705 
-5 1 1 -18.1714 -1.2917 
-5 1 2 2.7818 -0.3747 
-5 1 3 -7.6678 0.4050 
-5 1 4 3.4452 0.8727 
-5 1 5 11.3516 -1.8799 
-5 1 6 -4.2167 -0.9479 
-5 1 7 3.0637 0.7962 
-5 1 8 -0.3277 1.1231 
-5 1 9 -2.9550 -0.1497 
-5 1 10 -0.4906 0.0163 
-5 1 11 -4.5179 0.0877 
-5 1 12 -0.7856 -0.4558 
-5 1 13 -2.1758 1.5880 
-5 1 14 0.0215 0.7579 
-5 1 15 1.2134 -0.8874 
-5 1 16 1.2662 -0.9686 
-5 1 17 1.9516 0.5720 
-5 1 18 -1.9815 0.2346 
-5 1 19 2.0570 -0.6007 
-5 1 20 -1.9890 0.2975 
-5 1 21 1.7363 -0.6507 
-5 1 22 -0.0633 -0.3893 
-5 1 23 1.1583 0.4990 
-5 1 24 -1.7241 0.8442 
-5 1 25 0.3351 -0.2705 
-5 1 26 0.4708 -0.1903 
-5 1 27 -0.2838 0.6799 
-5 1 28 0.6306 -0.0414 
-5 1 29 0.7845 0.0281 
-5 1 30 0.1090 0.1648 
-5 1 31 -1.8811 -0.0670 
-5 1 32 -0.6789 -0.6725 
-5 1 33 0.0411 -0.0306 
-5 2 -4 4.6784 -0.2728 
-5 2 -3 10.3644 -0.6074 
-5 2 -2 10.5352 0.9558 
-5 2 -1 3.3697 2.6785 
-5 2 0 0.8074 1.1774 
-5 2 1 0.4914 -0.5048 
-5 2 2 -4.6595 -1.1869 
-5 2 3 -9.5999 1.4612 
-5 2 4 9.0099 0.1573 
-5 2 5 -5.0801 -0.4477 
-5 2 6 4.1382 -0.3359 
-5 2 7 3.8079 -0.8500 
-5 2 8 -1.0812 -0.8175 
-5 2 9 5.5455 0.6091 
-5 2 10 1.6806 1.0716 
-5 2 11 1.0503 -1.3794 
-5 2 12 -0.4650 -0.3610 
-5 2 13 -2.7178 0.6571 
-5 2 14 -0.2189 0.5539 
-5 2 15 -1.7778 0.3367 
-5 2 16 0.3545 0.2627 
-5 2 17 -1.1065 -0.3539 
-5 2 18 2.2469 -0.8790 
-5 2 19 -0.9452 0.7619 
-5 2 20 -2.6465 0.4832 
-5 2 21 0.3322 -0.6914 
-5 2 22 -0.4780 -0.5189 
-5 2 23 0.2245 -0.1581 
-5 2 24 -1.6748 0.1015 
-5 2 25 -1.5708 0.1412 
-5 2 26 -1.9678 0.5335 
-5 2 27 0.3183 -0.5760 
-5 2 28 -0.4683 -0.0645 
-5 2 29 0.0545 0.8372 
-5 2 30 1.0560 0.4780 
-5 2 31 -0.3839 -0.3753 
-5 2 32 -0.4211 -0.0964 
-5 2 33 -5.0481 0.4801 
-5 3 -4 -8.6966 -0.2402 
-5 3 -3 2.1462 -1.3366 
-5 3 -2 1.3338 -1.2323 
-5 3 -1 6.2626 -0.0633 
-5 3 0 5.0406 1.4722 
-5 3 1 -0.7846 0.6120 
-5 3 2 -2.5898 0.3960 
-5 3 3 4.5005 -0.7428 
-5 3 4 -2.8936 -0.5387 
-5 3 5 -0.3215 1.8133 
-5 3 6 4.6157 0.4390 
-5 3 7 -5.7920 -1.0000 
-5 3 8 1.2639 -1.1769 
-5 3 9 1.7837 0.5584 
-5 3 10 0.7513 -0.2684 
-5 3 11 4.3143 0.1247 
-5 3 12 1.0881 0.2049 
-5 3 13 3.6278 -1.2237 
-5 3 14 -0.1529 -0.0250 
-5 3 15 -0.3318 1.0298 
-5 3 16 1.1746 0.9923 
-5 3 17 0.2982 -0.7010 
-5 3 18 2.1042 0.0885 
-5 3 19 -0.3051 0.3264 
-5 3 20 2.9254 -0.1895 
-5 3 21 -0.8365 0.4460 
-5 3 22 0.6427 0.2040 
-5 3 23 1.7503 -0.5650 
-5 3 24 1.5237 -0.7203 
-5 3 25 -1.1993 0.5516 
-5 3 26 0.1607 -0.0902 
-5 3 27 -1.6904 -0.5262 
-5 3 28 -0.6267 0.0108 
-5 3 29 -0.5997 -0.2956 
-5 3 30 1.7696 0.0727 
-5 3 31 3.3916 0.2771 
-5 3 32 0.5752 1.0997 
-5 4 -4 -6.4848 -0.1131 
-5 4 -3 -6.1954 0.1969 
-5 4 -2 -2.5362 -1.1835 
-5 4 -1 5.4159 -1.2455 
-5 4 0 -2.5729 -0.6984 
-5 4 1 -1.7689 1.4215 
-5 4 2 -1.6081 0.8001 
-5 4 3 -3.2109 -1.3876 
-5 4 4 -2.2886 0.5156 
-5 4 5 4.5312 0.2685 
-5 4 6 -3.1947 0.6010 
-5 4 7 0.0105 0.4034 
-5 4 8 -2.0093 0.7771 
-5 4 9 -4.7723 -0.8810 
-5 4 10 -0.3419 -0.8003 
-5 4 11 -0.0892 1.2935 
-5 4 12 0.5050 -0.1087 
-5 4 13 0.8153 -0.6250 
-5 4 14 -0.2339 -0.4817 
-5 4 15 1.9688 -0.0599 
-5 4 16 -0.2327 -0.1584 
-5 4 17 -0.3366 0.6142 
-5 4 18 0.9445 0.7683 
-5 4 19 0.1638 -0.8032 
-5 4 20 3.2592 -0.1452 
-5 4 21 0.9151 0.5073 
-5 4 22 2.1681 0.5133 
-5 4 23 -0.1409 -0.2089 
-5 4 24 2.6167 -0.0655 
-5 4 25 2.8259 -0.2150 
-5 4 26 1.2020 -0.2616 
-5 4 27 0.2028 0.6261 
-5 4 28 -1.3192 -0.5714 
-5 4 29 -1.8115 -0.5789 
-5 4 30 0.1591 -0.3472 
-5 4 31 0.8563 0.2788 
-5 4 32 3.0119 -0.0315 
-5 5 -4 -0.4052 -0.1374 
-5 5 -3 -1.9695 0.3692 
-5 5 -2 -1.9580 0.9314 
-5 5 -1 2.8412 -0.7946 
-5 5 0 2.6189 -0.7639 
-5 5 1 4.1708 -0.0555 
-5 5 2 -2.5591 -0.5005 
-5 5 3 -2.5534 1.1874 
-5 5 4 0.3170 -0.1027 
-5 5 5 0.4445 -1.1184 
-5 5 6 3.7055 -0.0835 
-5 5 7 2.3372 0.9819 
-5 5 8 -2.0812 0.8249 
-5 5 9 -1.8586 -0.8302 
-5 5 10 -0.4055 0.3802 
-5 5 11 -1.6838 -0.4089 
-5 5 12 -0.6449 -0.1082 
-5 5 13 -1.2235 0.8425 
-5 5 14 -0.1583 -0.2371 
-5 5 15 -1.3069 -1.0909 
-5 5 16 -1.6705 -0.7104 
-5 5 17 -1.1904 0.7458 
-5 5 18 -3.2691 -0.2484 
-5 5 19 -3.6469 0.0784 
-5 5 20 -0.5988 0.1142 
-5 5 21 -0.8739 -0.2261 
-5 5 22 0.5188 0.0212 
-5 5 23 -1.4705 0.5544 
-5 5 24 -0.1306 0.5838 
-5 5 25 -0.8450 -0.5465 
-5 5 26 3.3752 0.2904 
-5 5 27 0.0258 0.1193 
-5 5 28 -0.1950 -0.0510 
-5 5 29 -0.4393 0.0906 
-5 5 30 -4.1947 -0.3406 
-5 5 31 -1.0944 -0.3256 
-5 5 32 -0.2427 -0.6596 
-5 6 -4 3.4256 -0.2734 
-5 6 -3 -4.2315 -0.1151 
-5 6 -2 -1.3384 0.2977 
-5 6 -1 -2.0446 0.5620 
-5 6 0 0.8295 0.2984 
-5 6 1 4.5418 -1.7354 
-5 6 2 -0.9019 -0.0724 
-5 6 3 -2.3222 0.4815 
-5 6 4 -3.1569 -0.5961 
-5 6 5 0.0476 -0.1691 
-5 6 6 1.3161 -0.3970 
-5 6 7 1.9996 -0.0605 
-5 6 8 1.7477 -0.5734 
-5 6 9 -0.0876 1.1666 
-5 6 10 -0.8116 0.3801 
-5 6 11 -0.5428 -0.9807 
-5 6 12 1.4304 0.1371 
-5 6 13 0.1029 0.6270 
-5 6 14 0.0859 0.3276 
-5 6 15 1.4539 -0.0655 
-5 6 16 -0.6859 0.0145 
-5 6 17 1.3580 -0.7956 
-5 6 18 -2.1014 -0.4305 
-5 6 19 0.4237 0.6710 
-5 6 20 -5.2665 -0.0218 
-5 6 21 -0.2214 -0.4679 
-5 6 22 -0.1379 -0.3905 
-5 6 23 0.6635 0.3992 
-5 6 24 -3.8409 0.2021 
-5 6 25 1.0473 0.2700 
-5 6 26 -1.1438 0.2309 
-5 6 27 1.5280 -0.3326 
-5 6 28 2.9658 0.3882 
-5 6 29 -1.2433 0.1549 
-5 6 30 0.1822 -0.0263 
-5 6 31 -0.1099 -0.1093 
-5 6 32 -1.1613 0.2588 
-5 7 -4 0.3500 0.4067 
-5 7 -3 0.8614 -0.1295 
-5 7 -2 0.0202 -0.4520 
-5 7 -1 -5.0950 0.9788 
-5 7 0 3.2772 0.3764 
-5 7 1 -0.4471 0.5073 
-5 7 2 0.4847 0.1789 
-5 7 3 0.8381 -0.8635 
-5 7 4 -3.1819 0.1289 
-5 7 5 -3.7040 0.5746 
-5 7 6 -1.9478 0.0835 
-5 7 7 0.6225 -1.0612 
-5 7 8 -0.6707 -0.3172 
-5 7 9 0.1318 0.5685 
-5 7 10 -1.6491 -0.0895 
-5 7 11 0.5182 0.3691 
-5 7 12 -0.2555 -0.1284 
-5 7 13 1.3300 -0.4842 
-5 7 14 1.9343 0.2591 
-5 7 15 0.3634 1.0542 
-5 7 16 1.3300 0.1889 
-5 7 17 1.8214 -0.7071 
-5 7 18 0.7691 0.1794 
-5 7 19 0.9352 -0.1108 
-5 7 20 -1.2779 -0.0850 
-5 7 21 1.8540 -0.0476 
-5 7 22 -1.4382 -0.0728 
-5 7 23 2.4739 -0.6255 
-5 7 24 0.3358 -0.2836 
-5 7 25 -0.3479 0.5374 
-5 7 26 -2.2321 -0.0772 
-5 7 27 4.1367 -0.0208 
-5 7 28 -2.3772 -0.0342 
-5 7 29 2.1885 -0.1028 
-5 7 30 0.6875 -0.0335 
-5 7 31 0.0088 0.6333 
-5 7 32 0.5116 -0.0783 
-5 8 -4 2.6989 0.0670 
-5 8 -3 0.1397 0.0072 
-5 8 -2 -1.9274 -0.3089 
-5 8 -1 3.5444 -0.5593 
-5 8 0 -0.7242 0.1488 
-5 8 1 -0.3743 1.1728 
-5 8 2 5.7592 -0.0179 
-5 8 3 0.9612 -0.2025 
-5 8 4 1.3940 0.1590 
-5 8 5 1.1981 0.2993 
-5 8 6 0.4242 0.0513 
-5 8 7 -0.0286 0.1578 
-5 8 8 -0.1332 0.1071 
-5 8 9 -0.0112 -1.0908 
-5 8 10 -1.6626 -0.0314 
-5 8 11 -2.0390 0.5991 
-5 8 12 -0.3833 -0.0846 
-5 8 13 0.1006 -0.7270 
-5 8 14 -0.5745 -0.0151 
-5 8 15 0.6755 0.2639 
-5 8 16 2.4776 -0.0174 
-5 8 17 -0.8664 0.6429 
-5 8 18 -0.0448 0.0825 
-5 8 19 -1.2624 -0.3830 
-5 8 20 1.0270 0.0537 
-5 8 21 -2.8948 0.5225 
-5 8 22 0.4387 0.0247 
-5 8 23 0.4412 -0.3793 
-5 8 24 0.3471 -0.0021 
-5 8 25 -0.5277 -0.1301 
-5 8 26 1.9762 0.0300 
-5 8 27 -2.6174 0.2566 
-5 8 28 1.0482 -0.1888 
-5 8 29 0.2663 -0.1580 
-5 8 30 -2.4361 -0.0966 
-5 8 31 0.2042 -0.2149 
-5 9 -4 -0.7433 -0.4164 
-5 9 -3 -0.8183 0.2828 
-5 9 -2 2.2075 -0.0543 
-5 9 -1 -2.6095 -0.6629 
-5 9 0 -1.9327 -0.2080 
-5 9 1 3.8283 -0.2279 
-5 9 2 -2.2826 0.1470 
-5 9 3 0.7881 0.4306 
-5 9 4 2.0068 -0.1011 
-5 9 5 -0.4558 -0.5296 
-5 9 6 2.5144 0.1150 
-5 9 7 1.2212 0.9733 
-5 9 8 1.9332 0.0106 
-5 9 9 1.0008 -0.3740 
-5 9 10 -1.1830 -0.0910 
-5 9 11 0.9824 -0.0752 
-5 9 12 -1.9763 0.0865 
-5 9 13 -1.2275 0.1007 
-5 9 14 0.0747 -0.2171 
-5 9 15 0.3289 -0.8167 
-5 9 16 0.4469 0.2292 
-5 9 17 0.4813 0.4101 
-5 9 18 1.5585 -0.2325 
-5 9 19 -1.4532 0.1244 
-5 9 20 -1.6100 0.0818 
-5 9 21 -0.6559 0.0637 
-5 9 22 -0.2622 -0.1147 
-5 9 23 -2.7536 0.5401 
-5 9 24 0.0788 -0.0259 
-5 9 25 0.3589 -0.2068 
-5 9 26 -1.1592 0.1318 
-5 9 27 0.4868 0.0767 
-5 9 28 2.9800 -0.0006 
-5 9 29 -3.0565 -0.1417 
-5 9 30 1.3325 -0.2124 
-5 9 31 -1.7373 -0.4346 
-5 10 -4 -2.3320 0.1875 
-5 10 -3 4.7859 -0.0145 
-5 10 -2 -2.2474 0.0676 
-5 10 -1 -1.9552 0.3537 
-5 10 0 1.0254 -0.2625 
-5 10 1 -3.1979 -0.5495 
-5 10 2 0.1287 0.2647 
-5 10 3 1.6798 0.2959 
-5 10 4 -3.9931 -0.1647 
-5 10 5 0.7064 -0.2647 
-5 10 6 -0.3045 0.1397 
-5 10 7 -1.0925 -0.1002 
-5 10 8 2.3663 0.2109 
-5 10 9 -1.2207 0.6451 
-5 10 10 2.5488 -0.1369 
-5 10 11 -0.9799 -0.3005 
-5 10 12 -1.4598 0.1279 
-5 10 13 1.2351 0.5847 
-5 10 14 -0.7141 -0.3052 
-5 10 15 0.4992 -0.2424 
-5 10 16 0.2671 0.0486 
-5 10 17 2.1851 -0.5103 
-5 10 18 1.9897 0.0059 
-5 10 19 -0.6916 0.1161 
-5 10 20 0.9607 0.0065 
-5 10 21 -1.1701 -0.3411 
-5 10 22 0.9261 -0.0523 
-5 10 23 0.4956 0.1231 
-5 10 24 -0.4430 -0.0169 
-5 10 25 -2.1137 0.2195 
-5 10 26 -0.1276 0.1831 
-5 10 27 2.7645 0.0381 
-5 10 28 -0.1601 0.0378 
-5 10 29 1.7542 0.0090 
-5 10 30 1.3214 0.0501 
-5 10 31 -1.7648 -0.1569 
-5 11 -4 1.1202 0.3212 
-5 11 -3 -1.8021 -0.4117 
-5 11 -2 1.4388 0.1423 
-5 11 -1 1.3310 0.2146 
-5 11 0 -2.9268 -0.1378 
-5 11 1 -1.8957 0.0056 
-5 11 2 1.8772 -0.0717 
-5 11 3 -4.0058 -0.2583 
-5 11 4 1.8776 -0.0175 
-5 11 5 -0.0034 0.2945 
-5 11 6 -2.2968 -0.3264 
-5 11 7 1.2742 -0.4510 
-5 11 8 -0.2682 0.2290 
-5 11 9 0.3749 0.2328 
-5 11 10 2.1432 0.1229 
-5 11 11 -1.5734 -0.0688 
-5 11 12 1.5765 0.1215 
-5 11 13 -1.8402 0.0989 
-5 11 14 -0.8473 0.1801 
-5 11 15 0.2350 0.5508 
-5 11 16 -0.8575 -0.2392 
-5 11 17 1.4979 -0.1329 
-5 11 18 1.4522 0.0580 
-5 11 19 1.8096 -0.0947 
-5 11 20 -0.8248 -0.0014 
-5 11 21 -0.4904 -0.0744 
-5 11 22 2.4114 -0.0346 
-5 11 23 0.4597 -0.4896 
-5 11 24 1.7387 -0.0603 
-5 11 25 -1.2623 0.1112 
-5 11 26 0.5682 0.1437 
-5 11 27 -1.0286 -0.0616 
-5 11 28 0.3658 0.3715 
-5 11 29 3.3985 0.0184 
-5 11 30 -0.0350 0.0772 
-5 12 -4 1.1349 -0.0307 
-5 12 -3 -2.8141 0.0794 
-5 12 -2 3.5252 0.0611 
-5 12 -1 0.4776 -0.1263 
-5 12 0 2.4486 0.1642 
-5 12 1 0.5557 0.3580 
-5 12 2 -2.9483 -0.1221 
-5 12 3 0.7604 -0.0677 
-5 12 4 0.7599 0.2393 
-5 12 5 -3.7101 0.0014 
-5 12 6 1.2980 -0.2144 
-5 12 7 -1.1024 0.0958 
-5 12 8 -1.7501 -0.2643 
-5 12 9 0.2211 -0.1704 
-5 12 10 -0.0760 0.0820 
-5 12 11 1.1199 0.1555 
-5 12 12 2.1618 -0.1385 
-5 12 13 -0.3666 -0.3098 
-5 12 14 0.8682 0.3790 
-5 12 15 -0.4379 0.1396 
-5 12 16 -1.0844 0.0037 
-5 12 17 1.5719 0.2533 
-5 12 18 -1.9480 0.1257 
-5 12 19 0.8258 -0.0492 
-5 12 20 -0.5440 0.0143 
-5 12 21 -1.4120 0.2709 
-5 12 22 -3.6361 0.0233 
-5 12 23 1.6035 -0.2117 
-5 12 24 0.0370 -0.1904 
-5 12 25 0.4626 -0.1331 
-5 12 26 -0.7595 -0.0454 
-5 12 27 -1.9460 0.0840 
-5 12 28 0.8290 0.0306 
-5 12 29 -0.0659 -0.2947 
-5 12 30 -1.0894 0.0533 
-5 13 -4 -1.0544 -0.0157 
-5 13 -3 -0.7895 0.1450 
-5 13 -2 -0.7118 -0.0449 
-5 13 -1 1.4359 -0.2815 
-5 13 0 3.8757 0.1031 
-5 13 1 -0.6989 -0.0481 
-5 13 2 1.7502 -0.0374 
-5 13 3 3.0009 0.2017 
-5 13 4 -2.8505 0.0579 
-5 13 5 2.9627 -0.1369 
-5 13 6 -0.7948 0.2013 
-5 13 7 -0.7051 0.0626 
-5 13 8 -0.8093 -0.1355 
-5 13 9 -2.8374 -0.2486 
-5 13 10 -3.0517 -0.0985 
-5 13 11 -1.0333 0.0086 
-5 13 12 -0.8052 -0.2170 
-5 13 13 -2.0413 -0.0234 
-5 13 14 1.1611 -0.1957 
-5 13 15 -0.9591 -0.1633 
-5 13 16 3.4288 0.0688 
-5 13 17 -1.1873 0.1206 
-5 13 18 0.5222 -0.0354 
-5 13 19 3.8410 -0.0167 
-5 13 20 -1.0233 0.2139 
-5 13 21 -2.4060 0.1382 
-5 13 22 -0.4038 0.1992 
-5 13 23 -2.7182 0.1268 
-5 13 24 -1.2917 -0.1750 
-5 13 25 0.1552 0.0507 
-5 13 26 -2.8777 0.0223 
-5 13 27 1.3262 0.2794 
-5 13 28 0.3004 -0.2323 
-5 13 29 -1.2249 0.1507 
-5 13 30 0.3245 -0.0169 
-5 14 -4 -2.7891 0.0440 
-5 14 -3 1.8115 0.0990 
-5 14 -2 -4.8155 -0.0145 
-5 14 -1 1.6081 -0.0050 
-5 14 0 -1.2353 -0.0833 
-5 14 1 1.4083 -0.2913 
-5 14 2 1.8843 0.0454 
-5 14 3 -3.0720 -0.0637 
-5 14 4 3.2912 -0.1154 
-5 14 5 2.0822 -0.0107 
-5 14 6 -0.5892 0.0842 
-5 14 7 4.4879 0.1715 
-5 14 8 -0.4853 0.1452 
-5 14 9 0.9610 0.0525 
-5 14 10 -0.1992 -0.0032 
-5 14 11 -0.7448 -0.1909 
-5 14 12 -2.8051 0.2523 
-5 14 13 -1.9863 -0.0556 
-5 14 14 -2.7793 -0.2568 
-5 14 15 -1.9876 -0.0825 
-5 14 16 -1.8320 0.0360 
-5 14 17 -1.2682 -0.1008 
-5 14 18 3.9701 -0.3390 
-5 14 19 -0.1247 0.0545 
-5 14 20 0.9196 -0.0515 
-5 14 21 4.2204 -0.0335 
-5 14 22 -0.6251 0.1035 
-5 14 23 -0.6960 0.0736 
-5 14 24 2.6747 0.0959 
-5 14 25 -3.1544 -0.1549 
-5 14 26 0.7591 -0.0230 
-5 14 27 -0.1367 0.2679 
-5 14 28 -0.6548 -0.0819 
-5 14 29 2.3708 0.0117 
-5 15 -4 -0.2159 -0.1181 
-5 15 -3 0.0718 -0.0003 
-5 15 -2 -3.4844 0.1876 
-5 15 -1 -1.2489 0.2143 
-5 15 0 -1.1734 -0.0404 
-5 15 1 4.3207 0.0634 
-5 15 2 -4.4659 0.1132 
-5 15 3 0.4280 -0.0252 
-5 15 4 0.7853 -0.0313 
-5 15 5 -2.2475 -0.0893 
-5 15 6 3.8444 -0.0023 
-5 15 7 -0.3759 -0.0062 
-5 15 8 1.4520 0.1144 
-5 15 9 4.3338 0.3910 
-5 15 10 0.6289 -0.1076 
-5 15 11 2.8723 0.0656 
-5 15 12 3.4336 0.2031 
-5 15 13 2.2401 0.0418 
-5 15 14 -0.3014 0.1529 
-5 15 15 -2.0077 -0.0813 
-5 15 16 -0.9333 0.0619 
-5 15 17 1.1506 -0.1337 
-5 15 18 -2.7360 0.0593 
-5 15 19 0.1573 -0.1343 
-5 15 20 1.7020 -0.2535 
-5 15 21 1.0839 -0.1013 
-5 15 22 -2.3765 -0.0218 
-5 15 23 3.1603 0.1612 
-5 15 24 -3.0831 -0.0326 
-5 15 25 1.2294 -0.1033 
-5 15 26 0.0552 0.2004 
-5 15 27 -3.7316 0.3387 
-5 15 28 1.1769 0.4573 
-5 16 -4 2.4557 -0.2443 
-5 16 -3 -0.6964 -0.0122 
-5 16 -2 -1.7979 0.0130 
-5 16 -1 -2.3659 0.0811 
-5 16 0 0.6651 -0.0127 
-5 16 1 -1.8637 0.1016 
-5 16 2 1.4823 -0.0269 
-5 16 3 1.4526 0.0510 
-5 16 4 -5.4648 0.0664 
-5 16 5 2.2704 -0.0248 
-5 16 6 -1.7871 -0.1729 
-5 16 7 -1.6282 -0.3688 
-5 16 8 1.2732 0.1340 
-5 16 9 -2.6958 0.0300 
-5 16 10 -2.1372 -0.0553 
-5 16 11 2.3991 -0.0065 
-5 16 12 1.8302 -0.1590 
-5 16 13 2.7844 0.1967 
-5 16 14 0.9895 0.2571 
-5 16 15 -0.1475 0.0546 
-5 16 16 1.9586 -0.0836 
-5 16 17 -2.4783 0.2323 
-5 16 18 1.6489 0.2619 
-5 16 19 0.2411 -0.0302 
-5 16 20 1.6554 -0.1140 
-5 16 21 0.6792 -0.0416 
-5 16 22 2.0904 0.0076 
-5 16 23 -0.7124 -0.1589 
-5 16 24 -1.0525 -0.1337 
-5 16 25 0.8557 -0.1840 
-5 16 26 -5.9680 -0.2386 
-5 16 27 -1.4793 0.2265 
-5 16 28 -1.8354 0.5057 
-5 17 -4 2.9817 -0.0932 
-5 17 -3 -0.3507 -0.0264 
-5 17 -2 3.2426 -0.1234 
-5 17 -1 -1.0950 -0.0974 
-5 17 0 -3.6153 0.0916 
-5 17 1 -0.1340 0.0343 
-5 17 2 4.4166 -0.1805 
-5 17 3 -4.0213 0.0583 
-5 17 4 2.0059 0.1318 
-5 17 5 -0.7668 0.2004 
-5 17 6 -1.5842 -0.0859 
-5 17 7 3.2339 -0.0720 
-5 17 8 -2.8580 -0.0640 
-5 17 9 -2.5004 -0.0979 
-5 17 10 -3.1181 0.1543 
-5 17 11 -2.8077 -0.0855 
-5 17 12 -3.9422 -0.2906 
-5 17 13 2.7698 -0.1147 
-5 17 14 -0.3379 0.1408 
-5 17 15 0.1858 -0.0628 
-5 17 16 -3.3211 -0.0619 
-5 17 17 -1.7866 0.0020 
-5 17 18 -0.3390 -0.0244 
-5 17 19 -2.4653 0.1643 
-5 17 20 0.6333 -0.0120 
-5 17 21 -0.2073 0.1073 
-5 17 22 3.8666 -0.1169 
-5 17 23 2.4231 0.0546 
-5 17 24 6.0950 0.0457 
-5 17 25 -0.4301 -0.3044 
-5 17 26 2.4514 -0.2072 
-5 17 27 -1.1950 -0.6324 
-5 18 -4 0.9028 0.1096 
-5 18 -3 0.5605 0.1004 
-5 18 -2 2.3499 -0.2993 
-5 18 -1 -2.5209 -0.0965 
-5 18 0 -0.0768 0.0949 
-5 18 1 0.7615 -0.1249 
-5 18 2 -2.1072 -0.0260 
-5 18 3 1.3882 -0.1357 
-5 18 4 2.2577 -0.1040 
-5 18 5 -3.3633 0.0332 
-5 18 6 4.6888 0.1922 
-5 18 7 0.1522 0.1088 
-5 18 8 3.1117 -0.1882 
-5 18 9 2.9521 -0.0315 
-5 18 10 0.6084 0.1840 
-5 18 11 -3.3091 0.1582 
-5 18 12 -2.3729 -0.2541 
-5 18 13 1.8767 -0.0709 
-5 18 14 0.4970 -0.1326 
-5 18 15 3.4883 0.0129 
-5 18 16 -1.8165 0.1836 
-5 18 17 0.8743 -0.2990 
-5 18 18 -0.7596 -0.0193 
-5 18 19 -1.2183 -0.0128 
-5 18 20 -3.1231 0.1531 
-5 18 21 -0.9599 -0.0131 
-5 18 22 -1.7556 -0.0202 
-5 18 23 0.8354 0.2722 
-5 18 24 0.7954 0.1127 
-5 18 25 4.3707 0.2396 
-5 18 26 6.5163 -0.0579 
-5 19 -4 0.1241 0.3648 
-5 19 -3 0.2187 0.0009 
-5 19 -2 0.6108 0.0744 
-5 19 -1 0.7529 0.1642 
-5 19 0 0.0743 -0.1892 
-5 19 1 -3.1791 -0.0130 
-5 19 2 -0.6273 0.2541 
-5 19 3 1.2802 -0.0454 
-5 19 4 -1.9326 -0.2603 
-5 19 5 0.4325 -0.1196 
-5 19 6 -0.4827 0.1189 
-5 19 7 -1.3640 0.0429 
-5 19 8 3.4187 -0.0564 
-5 19 9 0.6886 -0.0395 
-5 19 10 4.2695 0.1302 
-5 19 11 -0.2016 0.1342 
-5 19 12 1.4841 0.1857 
-5 19 13 -2.1175 0.1344 
-5 19 14 1.5269 -0.3083 
-5 19 15 2.6700 0.2761 
-5 19 16 1.0669 0.0679 
-5 19 17 2.4224 -0.0467 
-5 19 18 -0.7239 0.0949 
-5 19 19 0.5545 -0.1213 
-5 19 20 1.2939 0.0631 
-5 19 21 -1.3231 -0.3565 
-5 19 22 -1.9340 0.0262 
-5 19 23 -0.5946 -0.0135 
-5 19 24 -4.1301 -0.1768 
-5 19 25 0.2980 -0.2550 
-5 19 26 -3.0831 -0.6157 
-5 20 -4 -2.6897 -0.1630 
-5 20 -3 1.7434 -0.1441 
-5 20 -2 1.5956 0.3955 
-5 20 -1 2.1837 0.0414 
-5 20 0 0.1501 -0.2513 
-5 20 1 -0.4134 0.1160 
-5 20 2 -0.6053 0.0748 
-5 20 3 -1.7145 0.0522 
-5 20 4 -0.2279 0.0534 
-5 20 5 -1.5975 0.0559 
-5 20 6 -0.6023 -0.2047 
-5 20 7 -0.3718 0.0547 
-5 20 8 -2.6516 0.0822 
-5 20 9 -2.1919 -0.0215 
-5 20 10 -0.9723 -0.2115 
-5 20 11 -0.4408 -0.0207 
-5 20 12 0.9194 0.2629 
-5 20 13 -4.1178 0.0195 
-5 20 14 -0.6523 -0.0030 
-5 20 15 0.0088 0.1317 
-5 20 16 0.7734 -0.2641 
-5 20 17 -0.5958 0.1583 
-5 20 18 -1.0855 0.0533 
-5 20 19 1.8535 0.0606 
-5 20 20 -1.7564 -0.1135 
-5 20 21 -2.2547 -0.2511 
-5 20 22 1.9115 0.0571 
-5 20 23 0.8477 -0.1778 
-5 20 24 1.1862 0.2989 
-5 20 25 0.4127 0.0954 
-5 21 -4 -1.3682 -0.2851 
-5 21 -3 -1.8855 -0.0019 
-5 21 -2 -1.2652 0.0569 
-5 21 -1 1.9899 -0.0465 
-5 21 0 1.2942 0.1379 
-5 21 1 2.3796 0.0414 
-5 21 2 -0.5195 -0.3487 
-5 21 3 1.4598 -0.0220 
-5 21 4 -1.7017 0.1830 
-5 21 5 0.6693 -0.1405 
-5 21 6 0.4912 -0.2303 
-5 21 7 0.1754 -0.0484 
-5 21 8 2.1286 -0.0206 
-5 21 9 -1.3415 -0.1401 
-5 21 10 -2.3587 -0.1409 
-5 21 11 -0.6351 -0.2406 
-5 21 12 -0.9383 -0.1625 
-5 21 13 -2.1838 -0.2206 
-5 21 14 0.2500 0.1968 
-5 21 15 -3.4438 -0.0252 
-5 21 16 -0.1297 -0.0834 
-5 21 17 -0.5536 0.0911 
-5 21 18 0.8350 -0.0075 
-5 21 19 -0.1480 0.2962 
-5 21 20 0.2384 0.4046 
-5 21 21 -0.7441 0.2388 
-5 21 22 -2.2820 -0.1700 
-5 21 23 -2.3211 -0.0093 
-5 21 24 5.8138 0.9915 
-5 22 -4 -0.2827 0.1443 
-5 22 -3 -0.2697 0.0002 
-5 22 -2 -1.7462 -0.1575 
-5 22 -1 -1.4183 0.0194 
-5 22 0 0.4970 0.3059 
-5 22 1 1.4163 0.0334 
-5 22 2 -0.3757 0.0011 
-5 22 3 1.1249 0.1276 
-5 22 4 0.3736 0.0292 
-5 22 5 1.4833 0.0280 
-5 22 6 -2.0500 0.3081 
-5 22 7 3.8850 -0.0497 
-5 22 8 2.1856 -0.0668 
-5 22 9 3.1703 0.0318 
-5 22 10 1.9381 0.2952 
-5 22 11 -0.3402 -0.0106 
-5 22 12 0.8407 -0.1259 
-5 22 13 2.2163 -0.1906 
-5 22 14 0.5980 0.0672 
-5 22 15 -1.1749 -0.0390 
-5 22 16 1.8258 0.1358 
-5 22 17 -1.7923 -0.0146 
-5 22 18 -1.1718 -0.5116 
-5 22 19 -1.2999 0.2144 
-5 22 20 2.4394 0.1454 
-5 22 21 -0.5503 0.1459 
-5 22 22 -2.3468 -0.4691 
-5 22 23 -3.6384 -0.5829 
-5 23 -4 1.4288 0.2331 
-5 23 -3 1.3631 0.0727 
-5 23 -2 -1.2910 -0.0304 
-5 23 -1 -1.5125 -0.0274 
-5 23 0 -0.0829 0.0222 
-5 23 1 -1.0439 -0.0869 
-5 23 2 0.0559 0.2170 
-5 23 3 0.1957 -0.0052 
-5 23 4 -1.8042 -0.2455 
-5 23 5 -1.4614 0.1698 
-5 23 6 0.1026 0.2986 
-5 23 7 -2.2918 0.1822 
-5 23 8 -0.0100 -0.0142 
-5 23 9 3.0668 0.1673 
-5 23 10 0.7303 0.1006 
-5 23 11 1.6280 0.1807 
-5 23 12 0.2276 0.1687 
-5 23 13 1.1382 -0.0020 
-5 23 14 0.9755 -0.2405 
-5 23 15 2.0865 -0.0679 
-5 23 16 1.2102 0.2302 
-5 23 17 2.1304 -0.0722 
-5 23 18 -0.3517 -0.2657 
-5 23 19 -0.4463 0.0019 
-5 23 20 -2.2727 -0.3929 
-5 23 21 1.7383 0.6674 
-5 24 -4 0.7284 -0.0626 
-5 24 -3 0.1407 0.0504 
-5 24 -2 1.4408 0.1433 
-5 24 -1 -1.2238 0.1672 
-5 24 0 -1.2640 -0.0706 
-5 24 1 -0.9131 0.0319 
-5 24 2 2.4483 0.2100 
-5 24 3 -0.7109 -0.0764 
-5 24 4 -0.8230 -0.1427 
-5 24 5 2.2466 -0.2066 
-5 24 6 -3.2916 -0.2286 
-5 24 7 -1.2714 0.0505 
-5 24 8 -1.7764 0.1510 
-5 24 9 -3.1052 -0.1167 
-5 24 10 -0.2059 -0.3247 
-5 24 11 -0.3023 0.2235 
-5 24 12 -0.9194 0.1376 
-5 24 13 0.3646 -0.0485 
-5 24 14 -0.5273 -0.0724 
-5 24 15 0.0661 -0.1724 
-5 24 16 0.8992 0.1176 
-5 24 17 1.9331 -0.1961 
-5 24 18 2.6352 0.3608 
-5 24 19 1.9279 -0.3579 
-5 24 20 -0.5876 0.6097 
-5 25 -4 -0.7626 -0.3481 
-5 25 -3 0.4881 -0.2421 
-5 25 -2 1.6773 -0.0742 
-5 25 -1 1.0786 -0.2056 
-5 25 0 -0.2325 -0.0370 
-5 25 1 -2.1992 -0.0563 
-5 25 2 -0.4513 -0.0338 
-5 25 3 -1.3593 0.0768 
-5 25 4 2.8427 0.2235 
-5 25 5 -0.5658 -0.1737 
-5 25 6 1.2129 -0.2911 
-5 25 7 4.2314 0.1636 
-5 25 8 -1.7096 0.1408 
-5 25 9 1.0471 -0.1358 
-5 25 10 -2.1370 0.0322 
-5 25 11 -0.3409 0.0355 
-5 25 12 -1.6598 0.0374 
-5 25 13 -0.0262 0.2298 
-5 25 14 -0.8076 0.0677 
-5 25 15 0.1667 0.1733 
-5 25 16 -0.9601 0.1884 
-5 25 17 -0.2966 -0.1656 
-5 25 18 1.8829 0.0395 
-5 25 19 0.2766 -0.7813 
-5 26 -4 -1.5689 0.1181 
-5 26 -3 -1.1074 0.0959 
-5 26 -2 0.1343 -0.1214 
-5 26 -1 2.9292 0.0412 
-5 26 0 1.7850 -0.0035 
-5 26 1 -0.1821 0.0518 
-5 26 2 -0.6244 -0.1552 
-5 26 3 -1.9872 -0.0260 
-5 26 4 -0.8450 0.1124 
-5 26 5 -3.0906 -0.1075 
-5 26 6 1.1274 -0.0700 
-5 26 7 -0.6359 -0.1138 
-5 26 8 2.1611 -0.0310 
-5 26 9 1.9716 0.2132 
-5 26 10 0.9569 -0.0023 
-5 26 11 -0.0747 -0.1669 
-5 26 12 -0.5556 0.1281 
-5 26 13 0.8905 0.0414 
-5 26 14 -2.1236 -0.1733 
-5 26 15 -0.1869 0.0921 
-5 26 16 -1.7594 -0.1201 
-5 26 17 -0.3558 0.7476 
-5 27 -4 2.5928 0.0395 
-5 27 -3 -1.6204 0.1730 
-5 27 -2 -2.3618 -0.1340 
-5 27 -1 0.5427 -0.0321 
-5 27 0 1.1385 0.1249 
-5 27 1 3.2731 0.1746 
-5 27 2 0.8312 -0.0147 
-5 27 3 0.2282 0.2599 
-5 27 4 0.0428 0.1204 
-5 27 5 -1.3448 0.0945 
-5 27 6 -1.1780 0.0923 
-5 27 7 -2.7991 -0.2310 
-5 27 8 -1.0815 0.0170 
-5 27 9 -0.6571 0.0930 
-5 27 10 -0.9646 -0.1904 
-5 27 11 -0.9146 -0.3419 
-5 27 12 1.3034 0.1405 
-5 27 13 -0.8363 -0.0101 
-5 27 14 1.2852 0.0324 
-5 27 15 -0.3295 -0.7264 
-5 28 -4 0.9561 0.2639 
-5 28 -3 -0.7506 -0.0510 
-5 28 -2 -0.6693 -0.1767 
-5 28 -1 -2.6258 0.0234 
-5 28 0 -1.3092 -0.4760 
-5 28 1 1.9424 -0.4447 
-5 28 2 0.3612 -0.1218 
-5 28 3 0.7062 -0.2086 
-5 28 4 0.5718 -0.4714 
-5 28 5 0.6577 0.0137 
-5 28 6 1.7572 -0.0036 
-5 28 7 -0.1271 -0.2801 
-5 28 8 1.4736 0.2398 
-5 28 9 -1.5992 0.2285 
-5 28 10 -0.4472 -0.0906 
-5 28 11 -1.4287 0.2116 
-5 28 12 -2.0283 -0.4863 
-5 28 13 0.0618 0.1740 
-5 29 -4 -1.2958 -0.0450 
-5 29 -3 3.7743 0.0942 
-5 29 -2 -0.0311 1.0821 
-5 29 -1 -1.3699 0.0637 
-5 29 0 -0.7725 0.3444 
-5 29 1 0.8625 0.5495 
-5 29 2 -0.2301 0.2552 
-5 29 3 2.2599 -0.1668 
-5 29 4 -1.1540 -0.0784 
-5 29 5 -0.1172 0.0197 
-5 29 6 0.7803 -0.8754 
-5 29 7 1.8824 -0.1665 
-5 29 8 2.4440 -0.4284 
-5 29 9 1.6920 -0.4728 
-4 0 -2 -22.0029 0.7181 
-4 0 0 -3.6851 -0.0251 
-4 0 2 33.7190 1.8869 
-4 0 4 21.1821 0.2162 
-4 0 6 -11.2602 0.0115 
-4 0 8 -5.4354 0.3287 
-4 0 10 -0.5374 -1.8511 
-4 0 12 2.8274 0.3397 
-4 0 14 2.1771 -0.1625 
-4 0 16 1.2015 0.0857 
-4 0 18 0.5394 1.1205 
-4 0 20 -0.1343 -0.3638 
-4 0 22 -0.2006 0.2641 
-4 0 24 -2.0388 -0.2273 
-4 0 26 -1.3191 -0.7192 
-4 0 28 2.0947 0.3463 
-4 0 30 -1.1724 -0.3325 
-4 0 32 3.1146 0.3860 
-4 1 -3 4.8822 -2.5753 
-4 1 -2 -10.4833 -1.9085 
-4 1 -1 -10.2015 1.6454 
-4 1 0 -31.2586 -0.6247 
-4 1 1 0.0843 0.0706 
-4 1 2 -17.9043 -1.1868 
-4 1 3 6.8798 -0.3233 
-4 1 4 17.9766 1.5882 
-4 1 5 -8.0549 1.2738 
-4 1 6 10.1092 -0.3805 
-4 1 7 -4.9487 -1.0960 
-4 1 8 -3.4978 1.4734 
-4 1 9 0.3729 0.1635 
-4 1 10 -5.7226 0.2528 
-4 1 11 0.5521 0.0169 
-4 1 12 -2.5650 -1.1825 
-4 1 13 -1.2741 -0.8800 
-4 1 14 0.8254 0.7327 
-4 1 15 0.5086 1.0256 
-4 1 16 1.8393 -1.2050 
-4 1 17 -0.1835 -0.4342 
-4 1 18 1.6328 0.5673 
-4 1 19 -1.7322 0.0999 
-4 1 20 2.6101 0.5585 
-4 1 21 -0.8453 0.5753 
-4 1 22 2.7318 -0.3017 
-4 1 23 -1.5772 -0.7421 
-4 1 24 2.5623 1.0183 
-4 1 25 -0.4050 0.4948 
-4 1 26 -0.5358 -0.5234 
-4 1 27 1.1046 -0.4820 
-4 1 28 0.1213 -0.0583 
-4 1 29 1.5924 -0.0368 
-4 1 30 0.1625 -0.0959 
-4 1 31 -0.9657 0.6301 
-4 1 32 -1.8144 -0.6251 
-4 1 33 -0.1882 0.1483 
-4 2 -3 16.3530 -1.0138 
-4 2 -2 14.2401 -0.2319 
-4 2 -1 7.0589 -1.5979 
-4 2 0 -4.3214 1.5943 
-4 2 1 -8.7685 0.8306 
-4 2 2 -16.0447 -1.9810 
-4 2 3 10.9006 -0.5816 
-4 2 4 -15.6559 0.0792 
-4 2 5 12.0858 1.0030 
-4 2 6 4.3220 -0.1705 
-4 2 7 -5.0741 0.9629 
-4 2 8 7.1729 -0.4648 
-4 2 9 -2.1422 -0.6302 
-4 2 10 1.8234 1.8193 
-4 2 11 0.6490 0.6212 
-4 2 12 -2.7271 -0.5741 
-4 2 13 0.9038 -0.8039 
-4 2 14 -3.7893 0.1717 
-4 2 15 -0.8514 -0.4807 
-4 2 16 1.8375 0.1834 
-4 2 17 0.5553 0.5047 
-4 2 18 -2.0787 -1.2239 
-4 2 19 -0.8458 -0.5658 
-4 2 20 0.0349 0.6127 
-4 2 21 -1.0225 0.8462 
-4 2 22 -1.1026 -0.4002 
-4 2 23 -1.5908 0.1116 
-4 2 24 1.5984 0.0955 
-4 2 25 -2.5722 0.0021 
-4 2 26 1.5603 0.7715 
-4 2 27 -2.8705 0.2314 
-4 2 28 -0.2196 -0.4410 
-4 2 29 1.7599 -0.6965 
-4 2 30 0.6043 0.5148 
-4 2 31 0.4691 0.1291 
-4 2 32 -4.6705 -0.0798 
-4 2 33 0.4461 -0.0509 
-4 3 -3 -3.4853 2.8123 
-4 3 -2 15.7401 -1.1623 
-4 3 -1 9.7515 -0.8090 
-4 3 0 5.7547 0.7729 
-4 3 1 -0.2134 -0.4354 
-4 3 2 4.6132 1.1438 
-4 3 3 -6.3227 -0.8476 
-4 3 4 -0.0046 -1.0558 
-4 3 5 9.7239 -1.1420 
-4 3 6 -9.6256 0.8403 
-4 3 7 8.3858 0.9097 
-4 3 8 -1.1263 -1.1899 
-4 3 9 0.3524 0.1977 
-4 3 10 5.2695 -0.0917 
-4 3 11 -0.2504 0.3322 
-4 3 12 4.2810 1.0948 
-4 3 13 0.4558 0.7131 
-4 3 14 -1.4163 -1.0391 
-4 3 15 1.4603 -0.7184 
-4 3 16 -0.7777 1.1272 
-4 3 17 1.5457 0.0533 
-4 3 18 1.9554 -0.3644 
-4 3 19 0.3513 -0.3227 
-4 3 20 -0.3257 -0.4220 
-4 3 21 1.0550 -0.3957 
-4 3 22 -1.0131 0.4939 
-4 3 23 0.5863 0.6248 
-4 3 24 -1.7910 -0.9004 
-4 3 25 1.5431 0.0425 
-4 3 26 0.3545 0.5722 
-4 3 27 -1.8657 0.3886 
-4 3 28 0.2079 -0.2019 
-4 3 29 -0.6345 0.1069 
-4 3 30 2.5467 -0.2681 
-4 3 31 1.2409 -0.3190 
-4 3 32 -1.0964 0.4061 
-4 3 33 -1.8643 0.0755 
-4 4 -3 -8.4737 0.2423 
-4 4 -2 -1.5479 0.5351 
-4 4 -1 -2.7733 1.2535 
-4 4 0 6.6548 -2.0146 
-4 4 1 -3.8060 0.6317 
-4 4 2 -5.3703 1.1607 
-4 4 3 -3.5503 0.2042 
-4 4 4 5.2537 -0.7411 
-4 4 5 -7.1173 -0.7733 
-4 4 6 2.0179 0.0837 
-4 4 7 -1.3978 -0.9563 
-4 4 8 -5.7841 0.7662 
-4 4 9 1.5780 0.3795 
-4 4 10 -1.4275 -1.3169 
-4 4 11 0.2443 -0.3000 
-4 4 12 1.1464 0.9244 
-4 4 13 0.5095 0.8319 
-4 4 14 2.6734 -0.2467 
-4 4 15 -1.4426 0.5071 
-4 4 16 -2.6149 -0.5541 
-4 4 17 3.4253 -0.1742 
-4 4 18 -0.0616 0.9570 
-4 4 19 1.8645 0.4191 
-4 4 20 1.0482 -0.7055 
-4 4 21 2.7232 -0.8260 
-4 4 22 1.6722 0.3387 
-4 4 23 1.0413 -0.2725 
-4 4 24 -1.8763 0.0704 
-4 4 25 2.8029 -0.0218 
-4 4 26 -0.2772 -0.5253 
-4 4 27 0.6969 -0.1286 
-4 4 28 -1.3154 0.7069 
-4 4 29 -1.3571 0.4100 
-4 4 30 1.7201 -0.4194 
-4 4 31 2.6664 -0.0201 
-4 4 32 2.7960 0.1509 
-4 4 33 -1.1150 0.5572 
-4 5 -3 -4.4286 -1.5054 
-4 5 -2 -1.5043 1.1167 
-4 5 -1 3.7696 -0.0673 
-4 5 0 6.0871 0.1059 
-4 5 1 -1.5077 0.5212 
-4 5 2 1.3847 -0.4595 
-4 5 3 -3.0060 0.7030 
-4 5 4 0.0734 0.7707 
-4 5 5 3.0559 0.8529 
-4 5 6 1.5882 -1.3553 
-4 5 7 -2.1960 -0.5383 
-4 5 8 -0.3134 0.5225 
-4 5 9 -1.7399 -0.1351 
-4 5 10 -1.8590 -0.0872 
-4 5 11 0.1739 -0.5141 
-4 5 12 -0.3700 -0.8084 
-4 5 13 0.7113 -0.4013 
-4 5 14 -0.1275 1.3568 
-4 5 15 -0.6789 0.3390 
-4 5 16 -0.7845 -1.0910 
-4 5 17 -1.9626 0.0446 
-4 5 18 -3.6772 0.3193 
-4 5 19 0.4235 0.3827 
-4 5 20 -3.8050 0.2365 
-4 5 21 1.2484 0.3457 
-4 5 22 0.3724 -0.7212 
-4 5 23 0.4024 -0.3724 
-4 5 24 -1.0772 0.7084 
-4 5 25 1.8379 -0.1320 
-4 5 26 -1.5389 -0.4884 
-4 5 27 2.9946 -0.3582 
-4 5 28 -3.1799 0.0559 
-4 5 29 -2.4561 -0.2449 
-4 5 30 -1.0813 0.2503 
-4 5 31 -0.1359 0.2090 
-4 5 32 2.7279 -0.0439 
-4 5 33 0.6782 -0.1832 
-4 6 -3 1.7394 -0.1760 
-4 6 -2 -3.5410 -1.1054 
-4 6 -1 -1.1687 -0.6605 
-4 6 0 2.3621 1.0968 
-4 6 1 4.7409 -0.5547 
-4 6 2 -0.0398 -0.7189 
-4 6 3 -1.9984 -0.1278 
-4 6 4 1.9213 0.8613 
-4 6 5 -1.0995 0.2222 
-4 6 6 4.3324 0.3230 
-4 6 7 1.9498 0.4349 
-4 6 8 -1.0859 -0.9746 
-4 6 9 -0.6469 -0.0684 
-4 6 10 -1.3929 0.8827 
-4 6 11 0.8011 0.0638 
-4 6 12 0.1859 -1.1895 
-4 6 13 -0.0643 -0.4952 
-4 6 14 0.3927 0.3469 
-4 6 15 0.6931 -0.4074 
-4 6 16 2.0761 0.6775 
-4 6 17 -2.0112 -0.0730 
-4 6 18 1.2964 -0.6832 
-4 6 19 -2.1619 -0.1975 
-4 6 20 -0.3161 0.8810 
-4 6 21 -2.1875 0.5489 
-4 6 22 -0.9966 -0.4244 
-4 6 23 -1.1778 0.1547 
-4 6 24 1.4820 -0.2171 
-4 6 25 -3.1897 0.3659 
-4 6 26 3.0097 0.3645 
-4 6 27 2.2646 -0.0052 
-4 6 28 -0.2204 -0.6713 
-4 6 29 1.1199 -0.4269 
-4 6 30 -2.4026 0.3904 
-4 6 31 -0.7941 -0.0392 
-4 6 32 1.1161 -0.7068 
-4 6 33 0.7769 0.0256 
-4 7 -3 -0.6088 0.7911 
-4 7 -2 -5.9297 -0.5891 
-4 7 -1 0.8087 0.0070 
-4 7 0 -4.1610 -0.1297 
-4 7 1 -0.7512 -0.0687 
-4 7 2 0.7179 0.2608 
-4 7 3 -0.8864 -0.2392 
-4 7 4 -6.1632 -0.8382 
-4 7 5 0.0959 -0.3055 
-4 7 6 0.6044 1.4121 
-4 7 7 -3.1683 0.1787 
-4 7 8 1.2848 -0.2637 
-4 7 9 -2.2031 -0.0814 
-4 7 10 -1.3907 0.2475 
-4 7 11 -1.9276 0.5072 
-4 7 12 1.0869 0.4432 
-4 7 13 0.1350 0.0170 
-4 7 14 0.5015 -1.3374 
-4 7 15 0.4699 0.0996 
-4 7 16 0.4343 0.6274 
-4 7 17 -0.6309 -0.2639 
-4 7 18 1.4045 -0.3443 
-4 7 19 -0.3877 -0.2128 
-4 7 20 2.6052 0.0156 
-4 7 21 -0.9711 -0.1155 
-4 7 22 2.7480 0.6700 
-4 7 23 -0.1271 -0.0029 
-4 7 24 -0.0336 -0.5404 
-4 7 25 -2.3023 0.1813 
-4 7 26 2.2173 0.3746 
-4 7 27 -1.8216 0.2896 
-4 7 28 4.9422 -0.3153 
-4 7 29 -1.0252 0.0767 
-4 7 30 0.6051 -0.0751 
-4 7 31 0.8023 -0.5143 
-4 7 32 1.1968 0.6863 
-4 8 -3 -0.7769 -0.1321 
-4 8 -2 4.0868 0.8978 
-4 8 -1 -1.5134 0.0030 
-4 8 0 -0.5526 -0.6782 
-4 8 1 4.6278 0.2647 
-4 8 2 -0.1766 0.7129 
-4 8 3 0.2934 -0.0698 
-4 8 4 4.0633 -0.8207 
-4 8 5 1.9916 0.0441 
-4 8 6 -1.2022 -0.3381 
-4 8 7 2.0961 0.0736 
-4 8 8 0.7226 0.7470 
-4 8 9 -0.6133 -0.2366 
-4 8 10 -0.9918 -0.4895 
-4 8 11 -1.1446 0.0914 
-4 8 12 -1.3081 1.1143 
-4 8 13 0.5645 0.0356 
-4 8 14 2.7955 -0.1576 
-4 8 15 0.1164 0.2239 
-4 8 16 -0.1289 -0.5686 
-4 8 17 1.3881 0.0541 
-4 8 18 -0.9419 0.2582 
-4 8 19 -2.8666 0.0436 
-4 8 20 -2.7043 -0.7447 
-4 8 21 0.6454 -0.1466 
-4 8 22 0.1866 0.4389 
-4 8 23 0.1235 -0.0041 
-4 8 24 0.4705 0.1379 
-4 8 25 0.4603 -0.1686 
-4 8 26 -2.5219 0.0427 
-4 8 27 1.1427 0.1903 
-4 8 28 -0.9655 0.5070 
-4 8 29 -0.9554 0.0449 
-4 8 30 -0.3750 -0.5956 
-4 8 31 -2.1968 0.2786 
-4 8 32 0.6118 0.5908 
-4 9 -3 4.4090 -0.3711 
-4 9 -2 -4.6202 0.5676 
-4 9 -1 -0.4658 -0.0702 
-4 9 0 4.1349 -0.0119 
-4 9 1 -2.7482 0.0539 
-4 9 2 -1.7008 -0.0150 
-4 9 3 2.5407 -0.0563 
-4 9 4 -0.2668 0.6818 
-4 9 5 2.0192 -0.1971 
-4 9 6 3.7175 -1.0447 
-4 9 7 2.1778 0.1092 
-4 9 8 1.3606 0.1858 
-4 9 9 0.4779 0.1820 
-4 9 10 1.9963 -0.3659 
-4 9 11 -2.0264 -0.1682 
-4 9 12 -1.5567 -0.1531 
-4 9 13 0.4342 0.2069 
-4 9 14 -0.1329 0.9616 
-4 9 15 0.4424 -0.2437 
-4 9 16 2.0209 -0.1987 
-4 9 17 3.0357 0.1583 
-4 9 18 0.3196 0.2857 
-4 9 19 0.6693 -0.0788 
-4 9 20 -0.9002 0.0334 
-4 9 21 -2.0278 -0.0067 
-4 9 22 -2.2225 -0.4630 
-4 9 23 -0.2099 0.0402 
-4 9 24 -0.2928 0.2752 
-4 9 25 -0.4618 -0.1146 
-4 9 26 0.3441 -0.2460 
-4 9 27 0.1163 0.1249 
-4 9 28 -0.7620 0.1639 
-4 9 29 2.3625 -0.0773 
-4 9 30 -3.9251 0.2406 
-4 9 31 -0.3619 0.0248 
-4 9 32 -1.9515 -0.6852 
-4 10 -3 -4.1779 0.1053 
-4 10 -2 1.0907 -0.4816 
-4 10 -1 0.9656 0.0525 
-4 10 0 -4.7670 0.4904 
-4 10 1 -0.2647 -0.0123 
-4 10 2 1.3146 -0.4393 
-4 10 3 -5.8376 0.4472 
-4 10 4 -3.4843 0.5494 
-4 10 5 -1.0503 -0.1495 
-4 10 6 -1.4715 0.2665 
-4 10 7 1.7270 -0.2258 
-4 10 8 -2.0810 -0.3673 
-4 10 9 1.3796 0.0809 
-4 10 10 -0.4103 0.3056 
-4 10 11 -0.2800 -0.2175 
-4 10 12 -0.5379 -0.7118 
-4 10 13 -3.3603 0.2632 
-4 10 14 -0.7257 -0.0144 
-4 10 15 0.5720 -0.0659 
-4 10 16 0.3839 0.2651 
-4 10 17 -0.9596 0.0203 
-4 10 18 1.1966 -0.3413 
-4 10 19 4.0574 -0.0196 
-4 10 20 -0.6354 0.5647 
-4 10 21 1.3289 -0.0834 
-4 10 22 -0.4883 -0.1526 
-4 10 23 0.6487 -0.1888 
-4 10 24 -1.1219 0.0346 
-4 10 25 -0.2441 0.0467 
-4 10 26 0.6805 -0.0001 
-4 10 27 0.6865 -0.1929 
-4 10 28 2.8101 -0.4242 
-4 10 29 0.5336 0.1786 
-4 10 30 0.6995 -0.0655 
-4 10 31 0.6450 -0.2564 
-4 11 -3 -0.2061 0.1060 
-4 11 -2 5.7352 -0.5320 
-4 11 -1 -4.6019 -0.0237 
-4 11 0 0.0982 -0.0512 
-4 11 1 1.9135 -0.3548 
-4 11 2 -0.6952 0.0732 
-4 11 3 1.7333 -0.0104 
-4 11 4 -0.9220 -0.4785 
-4 11 5 -2.8188 0.2661 
-4 11 6 1.1694 0.5444 
-4 11 7 -1.3151 0.0042 
-4 11 8 -0.9899 -0.2542 
-4 11 9 1.3121 -0.0152 
-4 11 10 -0.5735 0.2157 
-4 11 11 3.2599 -0.0794 
-4 11 12 -1.6280 0.1858 
-4 11 13 -1.3437 -0.2778 
-4 11 14 -1.1788 -0.3401 
-4 11 15 -0.9256 0.1962 
-4 11 16 -0.3550 0.1692 
-4 11 17 -0.9396 -0.1171 
-4 11 18 0.9828 -0.2591 
-4 11 19 -1.1865 0.1246 
-4 11 20 0.6217 -0.2516 
-4 11 21 0.5240 0.2261 
-4 11 22 0.3383 0.2300 
-4 11 23 1.8850 -0.1234 
-4 11 24 -2.1719 -0.0931 
-4 11 25 -0.4625 0.0377 
-4 11 26 -0.7665 0.3516 
-4 11 27 0.0306 -0.0123 
-4 11 28 1.5369 0.0223 
-4 11 29 1.6268 -0.1342 
-4 11 30 2.7853 -0.3454 
-4 11 31 -0.7012 0.3717 
-4 12 -3 4.1790 0.0533 
-4 12 -2 -1.5108 0.2839 
-4 12 -1 3.2169 0.1362 
-4 12 0 1.4921 -0.2483 
-4 12 1 -3.3001 0.1468 
-4 12 2 2.1248 0.2275 
-4 12 3 1.5683 -0.3439 
-4 12 4 0.6398 -0.1631 
-4 12 5 3.1301 -0.0635 
-4 12 6 -0.4124 0.0035 
-4 12 7 -0.0420 0.1640 
-4 12 8 1.1917 0.2154 
-4 12 9 -2.2147 0.0490 
-4 12 10 0.8177 -0.3010 
-4 12 11 2.5003 0.4203 
-4 12 12 2.3221 0.2102 
-4 12 13 2.7855 -0.1150 
-4 12 14 -0.3869 0.0419 
-4 12 15 -1.2373 0.0673 
-4 12 16 1.0201 -0.0352 
-4 12 17 -0.6664 -0.0523 
-4 12 18 0.8351 0.3134 
-4 12 19 -1.3014 -0.1639 
-4 12 20 0.0878 -0.3879 
-4 12 21 -1.7344 0.1394 
-4 12 22 2.1805 0.0550 
-4 12 23 -1.4779 0.1786 
-4 12 24 1.3992 -0.2348 
-4 12 25 -0.4969 0.0175 
-4 12 26 -3.2036 0.1348 
-4 12 27 -1.8584 0.1386 
-4 12 28 -0.2381 0.1378 
-4 12 29 -0.8992 -0.2008 
-4 12 30 1.7092 0.0063 
-4 12 31 0.3844 -0.3348 
-4 13 -3 0.2889 -0.0138 
-4 13 -2 -2.8513 0.1099 
-4 13 -1 5.6841 0.0040 
-4 13 0 -1.4988 0.0208 
-4 13 1 1.3176 0.2982 
-4 13 2 -2.9498 -0.0932 
-4 13 3 -2.0496 0.1556 
-4 13 4 2.8483 0.0725 
-4 13 5 -1.5693 -0.1860 
-4 13 6 0.6072 -0.3040 
-4 13 7 2.5921 -0.0751 
-4 13 8 -2.0935 0.2804 
-4 13 9 -1.8707 -0.2178 
-4 13 10 -2.7583 -0.1507 
-4 13 11 -2.3278 -0.0056 
-4 13 12 0.0428 -0.0314 
-4 13 13 2.2325 0.1891 
-4 13 14 -0.1646 0.0327 
-4 13 15 2.8696 -0.0066 
-4 13 16 -0.9697 -0.0724 
-4 13 17 1.6065 0.1126 
-4 13 18 0.6125 0.1377 
-4 13 19 -0.2001 -0.1425 
-4 13 20 -0.1359 0.0760 
-4 13 21 0.1909 -0.2508 
-4 13 22 -2.6631 -0.0883 
-4 13 23 0.3773 0.0798 
-4 13 24 2.1812 0.0433 
-4 13 25 -1.2689 -0.0916 
-4 13 26 0.0390 -0.0091 
-4 13 27 0.2095 0.2358 
-4 13 28 -2.1624 0.2866 
-4 13 29 -0.4883 0.1200 
-4 13 30 -0.0238 0.0980 
-4 14 -3 -3.6893 -0.0453 
-4 14 -2 0.8531 -0.1235 
-4 14 -1 -0.5881 -0.2265 
-4 14 0 2.0277 0.0312 
-4 14 1 1.9329 -0.1050 
-4 14 2 -3.1954 -0.0576 
-4 14 3 1.5283 0.1421 
-4 14 4 -3.1981 0.0813 
-4 14 5 -0.4129 -0.0037 
-4 14 6 3.2868 -0.2253 
-4 14 7 -1.6185 -0.0502 
-4 14 8 1.6249 -0.0237 
-4 14 9 0.7477 -0.0532 
-4 14 10 -3.0771 -0.0209 
-4 14 11 -1.3259 -0.3646 
-4 14 12 -3.4296 -0.0223 
-4 14 13 -3.1176 0.0073 
-4 14 14 -1.5427 0.0678 
-4 14 15 -0.5273 -0.1562 
-4 14 16 -0.6213 0.1142 
-4 14 17 0.9962 0.1272 
-4 14 18 -1.5097 0.0237 
-4 14 19 2.7477 0.0759 
-4 14 20 0.5627 0.1457 
-4 14 21 -0.0694 -0.1375 
-4 14 22 -0.9696 -0.0738 
-4 14 23 2.2167 -0.0101 
-4 14 24 -2.2051 -0.1261 
-4 14 25 1.0938 -0.1481 
-4 14 26 0.0668 -0.1096 
-4 14 27 -0.3479 0.0532 
-4 14 28 0.2694 0.0418 
-4 14 29 1.0344 -0.0658 
-4 14 30 -1.0168 0.3673 
-4 15 -3 -2.4189 0.0993 
-4 15 -2 1.3986 -0.1406 
-4 15 -1 -2.9803 0.0750 
-4 15 0 3.3749 0.0657 
-4 15 1 -0.3825 -0.1653 
-4 15 2 4.5342 0.0350 
-4 15 3 -2.1831 0.0861 
-4 15 4 -1.5406 0.1949 
-4 15 5 3.7404 0.1162 
-4 15 6 -0.5938 0.2178 
-4 15 7 1.9168 -0.0070 
-4 15 8 4.2226 0.0659 
-4 15 9 -1.2424 0.2333 
-4 15 10 4.1067 0.0834 
-4 15 11 2.4589 -0.1125 
-4 15 12 0.1467 -0.1837 
-4 15 13 0.8297 0.1437 
-4 15 14 -2.1847 -0.0782 
-4 15 15 -0.3005 -0.1504 
-4 15 16 -0.1722 -0.0621 
-4 15 17 -2.0248 0.0420 
-4 15 18 1.6049 0.0266 
-4 15 19 -0.9959 0.0549 
-4 15 20 0.9167 0.1188 
-4 15 21 -0.3425 0.1122 
-4 15 22 1.0470 0.0509 
-4 15 23 -0.4341 -0.0184 
-4 15 24 1.1397 0.0244 
-4 15 25 0.8226 0.1167 
-4 15 26 -1.2971 -0.1903 
-4 15 27 -0.3538 0.0498 
-4 15 28 -0.0602 -0.2944 
-4 15 29 -0.3433 -0.0088 
-4 16 -3 -1.8892 -0.1785 
-4 16 -2 -0.2465 -0.0117 
-4 16 -1 -2.9019 0.1413 
-4 16 0 -1.3173 -0.0615 
-4 16 1 1.2636 -0.0272 
-4 16 2 1.9074 -0.0956 
-4 16 3 -3.3547 -0.1580 
-4 16 4 2.9534 -0.1741 
-4 16 5 -4.5521 0.1613 
-4 16 6 -0.0783 0.0390 
-4 16 7 2.0974 -0.0697 
-4 16 8 -1.4154 0.0459 
-4 16 9 -0.3642 0.1209 
-4 16 10 2.6385 0.2755 
-4 16 11 -1.3559 -0.0440 
-4 16 12 5.4881 -0.0570 
-4 16 13 2.1378 0.0426 
-4 16 14 0.6985 -0.0715 
-4 16 15 0.7889 0.2312 
-4 16 16 -1.1973 -0.2644 
-4 16 17 2.8139 -0.1121 
-4 16 18 -0.6216 -0.1311 
-4 16 19 0.1208 0.1746 
-4 16 20 1.8872 -0.0452 
-4 16 21 -0.7070 -0.0802 
-4 16 22 0.4549 0.1390 
-4 16 23 -1.7669 0.0643 
-4 16 24 0.0640 0.1371 
-4 16 25 -0.5248 -0.0615 
-4 16 26 0.6841 0.2215 
-4 16 27 -1.4691 0.0429 
-4 16 28 0.4052 0.5130 
-4 16 29 0.1806 0.1791 
-4 17 -3 2.1371 0.0369 
-4 17 -2 -2.3019 0.2058 
-4 17 -1 -1.3340 -0.1194 
-4 17 0 -1.5150 0.0392 
-4 17 1 -0.6784 0.2121 
-4 17 2 -3.1073 0.1092 
-4 17 3 4.4192 -0.2351 
-4 17 4 -0.9985 -0.1577 
-4 17 5 -2.6014 0.0188 
-4 17 6 1.5908 -0.1468 
-4 17 7 -3.9203 0.0072 
-4 17 8 -0.3516 -0.2412 
-4 17 9 -2.1935 0.0423 
-4 17 10 -4.5959 0.1176 
-4 17 11 -4.3311 0.1438 
-4 17 12 2.0885 0.1143 
-4 17 13 -1.4077 -0.2463 
-4 17 14 1.9654 0.2556 
-4 17 15 -2.7556 0.1571 
-4 17 16 -0.5842 -0.0775 
-4 17 17 -0.8175 -0.1082 
-4 17 18 -0.9956 0.0014 
-4 17 19 0.0727 0.0191 
-4 17 20 -0.1483 -0.3437 
-4 17 21 2.8562 -0.0664 
-4 17 22 1.5553 0.0563 
-4 17 23 -0.3454 -0.0947 
-4 17 24 -0.0993 -0.0654 
-4 17 25 1.1199 -0.0382 
-4 17 26 -1.6848 0.0034 
-4 17 27 -1.3483 0.0410 
-4 17 28 -0.4966 0.3264 
-4 18 -3 1.4513 0.1297 
-4 18 -2 -1.4588 0.0823 
-4 18 -1 2.8914 -0.1497 
-4 18 0 -1.6766 -0.1135 
-4 18 1 -2.3221 0.1700 
-4 18 2 -1.1190 0.1578 
-4 18 3 1.5182 0.0813 
-4 18 4 -2.6170 0.0657 
-4 18 5 5.9113 -0.1027 
-4 18 6 -1.2973 0.0124 
-4 18 7 3.3248 0.0994 
-4 18 8 2.1773 -0.1631 
-4 18 9 0.6030 -0.1280 
-4 18 10 -1.1892 -0.1902 
-4 18 11 -2.0209 0.1455 
-4 18 12 -2.1464 -0.0420 
-4 18 13 -1.0219 0.0086 
-4 18 14 2.8632 0.0756 
-4 18 15 -0.6169 -0.0766 
-4 18 16 -0.9560 0.2149 
-4 18 17 -1.4860 0.0753 
-4 18 18 -1.5508 0.1789 
-4 18 19 -1.3426 -0.0973 
-4 18 20 -0.2672 0.0682 
-4 18 21 -0.8570 -0.0252 
-4 18 22 1.9215 -0.2062 
-4 18 23 2.3363 -0.0543 
-4 18 24 1.9741 0.0533 
-4 18 25 0.8190 -0.1171 
-4 18 26 0.3392 -0.0894 
-4 19 -3 0.7532 0.0122 
-4 19 -2 1.2031 0.0048 
-4 19 -1 1.0143 -0.0256 
-4 19 0 0.4346 -0.0772 
-4 19 1 1.3604 -0.1335 
-4 19 2 -1.1365 -0.1272 
-4 19 3 -3.0699 0.2695 
-4 19 4 -0.7349 0.0566 
-4 19 5 0.0761 -0.1634 
-4 19 6 -0.9727 0.0767 
-4 19 7 3.0021 0.1017 
-4 19 8 -1.8784 0.0476 
-4 19 9 5.3213 -0.0569 
-4 19 10 1.3184 -0.0869 
-4 19 11 2.7987 -0.1351 
-4 19 12 -1.7103 -0.0806 
-4 19 13 0.5834 -0.0017 
-4 19 14 3.2251 -0.0997 
-4 19 15 2.8937 -0.0541 
-4 19 16 1.6946 -0.0123 
-4 19 17 -0.6444 0.0308 
-4 19 18 -0.8904 0.0088 
-4 19 19 1.3058 0.2478 
-4 19 20 -3.7683 0.2573 
-4 19 21 -1.6013 -0.0586 
-4 19 22 1.7465 -0.1666 
-4 19 23 0.1251 0.0281 
-4 19 24 0.9773 -0.0327 
-4 19 25 -1.5401 -0.5119 
-4 19 26 1.5086 -0.5097 
-4 20 -3 -0.2832 -0.1461 
-4 20 -2 0.6330 -0.0413 
-4 20 -1 -0.2715 0.1202 
-4 20 0 2.4167 0.1880 
-4 20 1 1.0015 -0.3270 
-4 20 2 0.4586 -0.0300 
-4 20 3 0.0566 0.0629 
-4 20 4 -1.2841 -0.0013 
-4 20 5 0.1551 0.0515 
-4 20 6 0.2516 0.1507 
-4 20 7 -2.0647 -0.1014 
-4 20 8 -1.2515 0.1605 
-4 20 9 -2.4751 0.1662 
-4 20 10 -2.4328 0.1495 
-4 20 11 1.6211 -0.0278 
-4 20 12 -2.6032 0.0174 
-4 20 13 -1.1560 -0.0588 
-4 20 14 -0.7496 0.0454 
-4 20 15 0.2636 0.0037 
-4 20 16 4.1320 -0.0590 
-4 20 17 0.8196 -0.3518 
-4 20 18 0.4182 -0.2123 
-4 20 19 -1.4460 0.1585 
-4 20 20 -2.3031 -0.0365 
-4 20 21 -0.5830 0.0293 
-4 20 22 -2.6723 -0.2855 
-4 20 23 -0.1900 0.2968 
-4 20 24 4.5811 0.0382 
-4 20 25 -1.1081 -0.0132 
-4 20 26 -0.1369 -0.6028 
-4 21 -3 -0.7121 -0.0635 
-4 21 -2 -0.2287 -0.0889 
-4 21 -1 -1.8580 0.0874 
-4 21 0 1.5137 0.0142 
-4 21 1 -1.6678 -0.0387 
-4 21 2 2.7758 0.0260 
-4 21 3 -2.1125 -0.3667 
-4 21 4 1.3670 -0.1283 
-4 21 5 -0.9162 0.0479 
-4 21 6 1.1029 -0.1032 
-4 21 7 4.5626 -0.1663 
-4 21 8 0.9868 0.0261 
-4 21 9 -2.4690 -0.0675 
-4 21 10 -1.8381 0.0002 
-4 21 11 -1.5371 0.1438 
-4 21 12 -1.2290 -0.0702 
-4 21 13 -0.7088 -0.1045 
-4 21 14 -5.8606 -0.0469 
-4 21 15 -2.2525 0.2961 
-4 21 16 1.8629 0.0362 
-4 21 17 -0.3048 -0.1031 
-4 21 18 1.7151 0.0243 
-4 21 19 0.5255 -0.0247 
-4 21 20 -0.2327 0.2027 
-4 21 21 -0.3522 0.1252 
-4 21 22 -6.6916 0.0226 
-4 21 23 1.6386 0.2157 
-4 21 24 1.2335 0.3408 
-4 21 25 2.9829 1.2175 
-4 22 -3 1.1834 0.1708 
-4 22 -2 -1.0477 -0.0426 
-4 22 -1 0.0666 0.0616 
-4 22 0 -1.3788 -0.0466 
-4 22 1 -0.6502 0.3252 
-4 22 2 1.5070 0.0928 
-4 22 3 -1.6707 -0.0381 
-4 22 4 0.6964 -0.0139 
-4 22 5 -4.0398 -0.0717 
-4 22 6 3.2741 -0.1385 
-4 22 7 0.1132 0.1072 
-4 22 8 5.0051 -0.1093 
-4 22 9 3.5519 -0.1894 
-4 22 10 0.6292 0.0401 
-4 22 11 0.1027 0.1129 
-4 22 12 1.4354 0.0251 
-4 22 13 3.1949 -0.0321 
-4 22 14 -1.5493 -0.0818 
-4 22 15 0.4981 0.0121 
-4 22 16 -3.3673 0.0688 
-4 22 17 0.4424 0.1854 
-4 22 18 1.8760 -0.1341 
-4 22 19 -1.6259 -0.2668 
-4 22 20 1.9748 0.3687 
-4 22 21 -0.0398 0.0487 
-4 22 22 -3.3568 -0.0581 
-4 22 23 -1.4271 -0.6975 
-4 22 24 -7.5595 0.1286 
-4 23 -3 1.4857 0.0308 
-4 23 -2 1.3181 0.1003 
-4 23 -1 1.0799 -0.1176 
-4 23 0 -1.9186 -0.0435 
-4 23 1 1.6957 0.0929 
-4 23 2 -1.6943 0.0053 
-4 23 3 -0.0416 0.1809 
-4 23 4 -0.4860 0.1281 
-4 23 5 -0.2074 -0.0912 
-4 23 6 -3.7296 0.1012 
-4 23 7 -1.6185 0.1878 
-4 23 8 2.4210 -0.0059 
-4 23 9 0.9555 -0.0430 
-4 23 10 2.8370 0.0162 
-4 23 11 -0.9763 -0.0912 
-4 23 12 1.5077 0.2288 
-4 23 13 1.8541 0.0163 
-4 23 14 2.3489 0.0408 
-4 23 15 2.3612 -0.1411 
-4 23 16 -1.2683 0.2788 
-4 23 17 2.9011 0.0387 
-4 23 18 0.2604 -0.2489 
-4 23 19 0.1726 -0.2680 
-4 23 20 1.8080 0.0937 
-4 23 21 -1.4176 -0.2521 
-4 23 22 3.8699 -0.0279 
-4 23 23 -4.7727 -0.9930 
-4 24 -3 -0.5358 0.0896 
-4 24 -2 0.0492 0.0651 
-4 24 -1 1.3485 0.0019 
-4 24 0 0.0666 0.2382 
-4 24 1 0.1970 -0.1363 
-4 24 2 -1.4716 -0.0616 
-4 24 3 1.6515 0.1420 
-4 24 4 0.1599 -0.0450 
-4 24 5 -1.1774 -0.1187 
-4 24 6 -0.5865 0.0040 
-4 24 7 -1.0813 0.0211 
-4 24 8 -4.8219 -0.0187 
-4 24 9 -0.5389 0.1734 
-4 24 10 -1.0694 -0.1932 
-4 24 11 -1.0757 -0.1059 
-4 24 12 -1.5006 0.0251 
-4 24 13 -1.4834 -0.0798 
-4 24 14 1.8480 -0.1041 
-4 24 15 -0.3618 -0.0465 
-4 24 16 -0.0779 0.0984 
-4 24 17 1.2890 0.1549 
-4 24 18 1.1273 0.1783 
-4 24 19 2.7562 0.3217 
-4 24 20 0.3843 -0.0515 
-4 24 21 1.3939 0.7404 
-4 25 -3 -2.1641 -0.1661 
-4 25 -2 0.8903 -0.1750 
-4 25 -1 0.3471 0.2618 
-4 25 0 -1.2595 -0.1164 
-4 25 1 0.0882 0.0808 
-4 25 2 -0.8303 0.1426 
-4 25 3 0.0582 0.0942 
-4 25 4 -1.1392 -0.0032 
-4 25 5 2.8486 0.1968 
-4 25 6 3.3469 0.0085 
-4 25 7 0.4878 -0.1829 
-4 25 8 1.2672 0.2522 
-4 25 9 -0.1329 0.1853 
-4 25 10 -1.0649 -0.1731 
-4 25 11 -2.4190 0.2219 
-4 25 12 -0.7570 -0.0187 
-4 25 13 -1.1089 0.1092 
-4 25 14 -1.3573 0.0362 
-4 25 15 -0.5712 -0.0724 
-4 25 16 0.3426 -0.1428 
-4 25 17 -1.2821 0.1157 
-4 25 18 -0.4149 -0.0802 
-4 25 19 0.7706 -0.0832 
-4 25 20 -0.5127 -0.2124 
-4 26 -3 0.3996 -0.1088 
-4 26 -2 0.4707 0.1099 
-4 26 -1 0.4681 -0.2606 
-4 26 0 1.8151 -0.0975 
-4 26 1 0.8435 0.0640 
-4 26 2 -3.4093 -0.1140 
-4 26 3 -1.7309 -0.2121 
-4 26 4 -2.7148 -0.0054 
-4 26 5 -0.9631 0.0942 
-4 26 6 -0.8580 -0.2553 
-4 26 7 2.3810 -0.0503 
-4 26 8 3.4300 0.0789 
-4 26 9 2.3712 -0.1404 
-4 26 10 -0.0464 0.1216 
-4 26 11 1.8095 -0.0263 
-4 26 12 0.8896 -0.2128 
-4 26 13 -3.0060 0.2357 
-4 26 14 0.9722 -0.0753 
-4 26 15 -0.8865 -0.1149 
-4 26 16 -0.9725 0.1668 
-4 26 17 -0.5262 -0.0651 
-4 26 18 0.6816 0.0316 
-4 26 19 -0.3939 -0.4517 
-4 27 -3 -0.5663 0.0903 
-4 27 -2 0.5158 -0.2052 
-4 27 -1 0.7701 -0.0497 
-4 27 0 4.4172 0.0968 
-4 27 1 1.4964 -0.0005 
-4 27 2 1.7083 0.0748 
-4 27 3 0.0500 -0.0529 
-4 27 4 -2.4917 0.0365 
-4 27 5 -3.0986 -0.0754 
-4 27 6 -2.8408 0.0502 
-4 27 7 -2.0874 -0.0221 
-4 27 8 -0.1968 -0.3155 
-4 27 9 -2.2075 -0.0719 
-4 27 10 1.5497 0.0838 
-4 27 11 0.2440 -0.1175 
-4 27 12 -2.1191 -0.2703 
-4 27 13 1.8261 0.1204 
-4 27 14 0.8914 -0.2980 
-4 27 15 -2.4322 0.1043 
-4 27 16 -0.7127 -0.6094 
-4 27 17 -0.6766 0.0280 
-4 28 -3 0.3584 -0.0295 
-4 28 -2 -2.3510 -0.0371 
-4 28 -1 -2.0605 -0.2250 
-4 28 0 2.0427 -0.1222 
-4 28 1 0.6515 -0.0274 
-4 28 2 4.3720 -0.0882 
-4 28 3 1.3127 -0.0896 
-4 28 4 1.0048 -0.0583 
-4 28 5 1.1044 -0.0923 
-4 28 6 0.3954 0.2529 
-4 28 7 -0.0943 0.2298 
-4 28 8 -0.9741 -0.0643 
-4 28 9 0.8311 -0.0094 
-4 28 10 0.0289 0.4094 
-4 28 11 -2.7088 -0.3559 
-4 28 12 0.6022 0.1433 
-4 28 13 0.2051 -0.1360 
-4 28 14 0.1070 0.3268 
-4 28 15 0.9484 0.1513 
-4 29 -3 -1.2566 0.3421 
-4 29 -2 -1.2626 0.1118 
-4 29 -1 -0.7225 0.4605 
-4 29 0 -2.9061 0.2562 
-4 29 1 -0.4611 0.0764 
-4 29 2 2.9970 0.2244 
-4 29 3 -2.1815 0.2374 
-4 29 4 1.1433 -0.2800 
-4 29 5 1.2688 -0.5028 
-4 29 6 0.6809 0.0555 
-4 29 7 1.3176 -0.3794 
-4 29 8 1.9056 -0.0419 
-4 29 9 1.6418 0.1779 
-4 29 10 -0.1579 -0.2768 
-4 29 11 1.8018 0.2534 
-4 29 12 -0.9466 0.5034 
-4 30 -3 0.4962 -0.8663 
-4 30 -2 2.2646 0.2589 
-4 30 -1 -1.5542 -0.1423 
-4 30 0 -0.9534 -0.4139 
-4 30 1 1.7724 0.3765 
-4 30 2 -1.4188 0.5205 
-4 30 3 -0.0468 0.5680 
-4 30 4 0.5272 0.2422 
-4 30 5 -3.7884 0.8668 
-4 30 6 0.1968 -0.2679 
-4 30 7 0.9005 0.1770 
-4 30 8 0.3300 0.4248 
-4 30 9 -0.2160 -0.7359 
-3 0 -1 -16.5426 6.9022 
-3 0 1 62.5748 -1.6860 
-3 0 3 55.1770 -0.0462 
-3 0 5 -9.9163 -1.0453 
-3 0 7 -11.6971 -0.7196 
-3 0 9 -2.0201 1.4034 
-3 0 11 4.5695 -0.4386 
-3 0 13 1.9868 0.8449 
-3 0 15 2.9860 0.3189 
-3 0 17 -0.9358 -0.9126 
-3 0 19 0.3276 0.2916 
-3 0 21 -1.3964 -0.8518 
-3 0 23 0.5772 0.0095 
-3 0 25 -1.8837 0.5723 
-3 0 27 0.4520 -0.1609 
-3 0 29 0.4937 0.6928 
-3 0 31 -0.3257 -0.3057 
-3 0 33 1.5520 0.0135 
-3 1 -2 -16.0663 0.1509 
-3 1 -1 -56.5929 1.9675 
-3 1 0 -7.7736 0.5090 
-3 1 1 -39.5506 3.1605 
-3 1 2 13.3212 -0.1363 
-3 1 3 27.1512 -0.4188 
-3 1 4 -13.3564 -1.3354 
-3 1 5 33.6982 0.9678 
-3 1 6 -15.9589 0.9281 
-3 1 7 0.6045 -1.5531 
-3 1 8 1.6425 -0.8008 
-3 1 9 -4.4144 -0.3624 
-3 1 10 2.1165 0.0542 
-3 1 11 -4.5610 0.6655 
-3 1 12 -0.8046 0.9502 
-3 1 13 1.8610 -0.9871 
-3 1 14 -1.2336 -0.8887 
-3 1 15 1.9364 1.7442 
-3 1 16 1.4369 0.7247 
-3 1 17 1.8005 -0.3012 
-3 1 18 -0.8694 -0.5551 
-3 1 19 1.2754 0.2708 
-3 1 20 -0.6184 -0.5464 
-3 1 21 1.0809 0.2073 
-3 1 22 -1.4697 0.6482 
-3 1 23 1.6345 -1.0399 
-3 1 24 0.9579 -0.5896 
-3 1 25 0.9036 0.4575 
-3 1 26 0.0047 0.4733 
-3 1 27 -0.8548 -0.2623 
-3 1 28 1.4817 0.2649 
-3 1 29 1.2407 0.0909 
-3 1 30 -0.4739 -0.2687 
-3 1 31 -1.0771 0.4688 
-3 1 32 -0.4400 0.8276 
-3 1 33 0.4336 -0.4838 
-3 1 34 -1.1059 -0.8619 
-3 2 -2 22.9892 -0.3638 
-3 2 -1 -2.4631 -3.8733 
-3 2 0 -18.0084 1.0120 
-3 2 1 -34.4633 1.6381 
-3 2 2 9.4810 1.1391 
-3 2 3 -36.1625 -0.4109 
-3 2 4 25.4996 -0.0747 
-3 2 5 -4.5473 0.7227 
-3 2 6 -11.5618 -0.3872 
-3 2 7 12.8746 0.9043 
-3 2 8 -13.0221 0.5628 
-3 2 9 5.7131 -1.3724 
-3 2 10 -1.4432 -1.2577 
-3 2 11 -3.8653 0.8655 
-3 2 12 1.7407 0.7298 
-3 2 13 -4.6402 -0.8753 
-3 2 14 -2.2256 0.2199 
-3 2 15 0.3857 -0.3589 
-3 2 16 -0.1747 -0.1350 
-3 2 17 1.3239 1.0348 
-3 2 18 -0.5527 1.0002 
-3 2 19 -1.2339 -0.5648 
-3 2 20 0.7618 -0.7817 
-3 2 21 -0.0608 0.8700 
-3 2 22 -2.2822 0.0224 
-3 2 23 -0.4318 -0.1183 
-3 2 24 -0.6447 -0.0518 
-3 2 25 1.9286 -0.5485 
-3 2 26 -1.2002 -0.5851 
-3 2 27 -1.2106 0.4992 
-3 2 28 0.8674 0.4611 
-3 2 29 0.3644 -0.7032 
-3 2 30 2.0619 -0.0907 
-3 2 31 0.0123 0.6153 
-3 2 32 0.1501 0.3937 
-3 2 33 -0.8443 -0.2975 
-3 3 -2 19.5729 -0.7107 
-3 3 -1 23.7381 -1.2374 
-3 3 0 11.7830 -0.4163 
-3 3 1 4.4375 -0.8614 
-3 3 2 -9.6169 0.3296 
-3 3 3 5.2898 0.7861 
-3 3 4 14.9712 1.2884 
-3 3 5 -19.3360 -1.1155 
-3 3 6 25.0685 -0.3321 
-3 3 7 -10.4481 1.1289 
-3 3 8 2.1066 0.7199 
-3 3 9 4.9818 0.0857 
-3 3 10 -1.8498 -0.4408 
-3 3 11 6.4945 -0.5640 
-3 3 12 -0.1146 -0.9389 
-3 3 13 -1.6083 1.3039 
-3 3 14 0.9483 0.2159 
-3 3 15 -3.0534 -1.5631 
-3 3 16 0.6287 -0.4016 
-3 3 17 3.1144 0.5532 
-3 3 18 -1.4163 0.4664 
-3 3 19 0.9251 0.0368 
-3 3 20 0.1561 0.7455 
-3 3 21 0.8427 -0.4894 
-3 3 22 -0.1936 -0.2595 
-3 3 23 -1.9622 0.9689 
-3 3 24 -0.2244 0.5125 
-3 3 25 2.3465 -0.5308 
-3 3 26 -0.5074 -0.3860 
-3 3 27 -0.0506 0.2244 
-3 3 28 -2.0778 -0.4351 
-3 3 29 -0.1917 -0.0662 
-3 3 30 2.2017 0.0763 
-3 3 31 -0.5379 -0.5568 
-3 3 32 0.2004 -0.4314 
-3 3 33 -0.8391 0.6235 
-3 4 -2 -11.7445 -0.3022 
-3 4 -1 15.8006 0.8478 
-3 4 0 -4.7702 -0.5050 
-3 4 1 -1.8962 -1.6505 
-3 4 2 -1.7299 -1.0719 
-3 4 3 3.3130 0.7897 
-3 4 4 -9.4257 -0.2422 
-3 4 5 11.2508 -0.1360 
-3 4 6 -1.8454 0.4377 
-3 4 7 -6.2164 -0.8925 
-3 4 8 8.2115 -0.0117 
-3 4 9 -6.8116 1.1853 
-3 4 10 3.5804 1.0844 
-3 4 11 2.0663 -1.2289 
-3 4 12 2.2912 -0.3744 
-3 4 13 2.7501 0.6743 
-3 4 14 -0.4970 -0.3356 
-3 4 15 -2.3337 0.3104 
-3 4 16 1.4470 -0.2661 
-3 4 17 -2.2304 -0.9405 
-3 4 18 2.1348 -0.7163 
-3 4 19 1.6131 0.9553 
-3 4 20 -0.2389 0.5281 
-3 4 21 2.2436 -0.6472 
-3 4 22 1.0492 -0.0189 
-3 4 23 -1.2168 0.0337 
-3 4 24 -0.6643 0.3180 
-3 4 25 -0.3059 0.4247 
-3 4 26 1.9495 0.4451 
-3 4 27 1.1574 -0.5209 
-3 4 28 -3.2188 -0.2804 
-3 4 29 0.6175 0.6853 
-3 4 30 -0.9769 -0.2155 
-3 4 31 0.4181 -0.2756 
-3 4 32 0.6263 0.0205 
-3 4 33 -2.9673 -0.1466 
-3 5 -2 -0.0876 0.2344 
-3 5 -1 -0.8577 0.5808 
-3 5 0 -4.2574 0.4539 
-3 5 1 10.3687 -0.0538 
-3 5 2 -13.8057 0.1272 
-3 5 3 -2.3266 -1.2748 
-3 5 4 3.2985 -1.1755 
-3 5 5 -0.7870 1.3372 
-3 5 6 -5.3761 -0.0191 
-3 5 7 2.3965 -0.7725 
-3 5 8 -5.3998 -0.5717 
-3 5 9 -0.7635 0.2929 
-3 5 10 -2.0745 0.5530 
-3 5 11 -1.9443 0.4867 
-3 5 12 1.7181 0.6678 
-3 5 13 1.4438 -1.3639 
-3 5 14 1.9577 0.2176 
-3 5 15 0.1160 1.0116 
-3 5 16 -1.3109 0.1209 
-3 5 17 -3.8347 -0.8658 
-3 5 18 1.7422 -0.5011 
-3 5 19 -4.7102 -0.0912 
-3 5 20 -0.0015 -0.4647 
-3 5 21 -0.6660 0.6122 
-3 5 22 2.0784 -0.0753 
-3 5 23 -0.6101 -0.7565 
-3 5 24 -0.4640 -0.2570 
-3 5 25 -2.5304 0.6647 
-3 5 26 3.2738 0.2770 
-3 5 27 -1.1736 -0.3511 
-3 5 28 0.8988 0.3134 
-3 5 29 -1.5170 -0.2593 
-3 5 30 -2.2044 -0.0729 
-3 5 31 2.2823 0.5340 
-3 5 32 -0.8242 0.1969 
-3 5 33 0.3226 0.1193 
-3 6 -2 -1.5506 0.0468 
-3 6 -1 0.6403 -0.5000 
-3 6 0 11.1435 0.2052 
-3 6 1 -1.5952 1.5714 
-3 6 2 -0.8162 0.7553 
-3 6 3 7.8279 -1.1503 
-3 6 4 -5.3995 0.2775 
-3 6 5 8.7782 -0.4644 
-3 6 6 2.3979 -0.2899 
-3 6 7 -2.3192 0.6868 
-3 6 8 1.5727 -0.3535 
-3 6 9 0.6797 -1.0095 
-3 6 10 -1.8917 -0.6553 
-3 6 11 -0.9690 1.4450 
-3 6 12 -1.5343 0.0313 
-3 6 13 0.9118 -0.4479 
-3 6 14 0.9247 0.2406 
-3 6 15 1.8213 -0.1250 
-3 6 16 0.8188 0.3087 
-3 6 17 3.0870 0.6431 
-3 6 18 -0.2511 0.3816 
-3 6 19 -1.4140 -1.0702 
-3 6 20 -0.0577 -0.2277 
-3 6 21 -1.8162 0.4819 
-3 6 22 -1.2494 -0.0828 
-3 6 23 0.6201 -0.2387 
-3 6 24 -1.0289 -0.2339 
-3 6 25 -0.2532 -0.1521 
-3 6 26 -0.0919 -0.1576 
-3 6 27 1.9104 0.6355 
-3 6 28 3.1071 0.1066 
-3 6 29 -1.1958 -0.4224 
-3 6 30 1.3984 0.1383 
-3 6 31 0.6005 -0.3316 
-3 6 32 0.0280 0.2631 
-3 6 33 2.1648 0.1367 
-3 7 -2 1.7808 -0.0343 
-3 7 -1 -2.3739 -0.3027 
-3 7 0 -3.0320 -0.2807 
-3 7 1 -1.8988 0.4143 
-3 7 2 1.7619 -0.0234 
-3 7 3 -9.4180 1.4040 
-3 7 4 1.4005 0.4565 
-3 7 5 1.6607 -1.2165 
-3 7 6 -4.0542 0.1675 
-3 7 7 3.5364 0.4370 
-3 7 8 -2.9781 0.4114 
-3 7 9 -0.8332 -0.6592 
-3 7 10 0.4589 -0.3128 
-3 7 11 0.8134 -0.4526 
-3 7 12 -1.8405 -0.1117 
-3 7 13 -0.1077 1.1178 
-3 7 14 -1.1300 -0.3716 
-3 7 15 -1.2581 -0.7724 
-3 7 16 0.0249 0.0595 
-3 7 17 1.4972 0.8929 
-3 7 18 -0.5687 0.1837 
-3 7 19 3.4378 0.1528 
-3 7 20 2.1508 0.2855 
-3 7 21 1.5088 -0.4197 
-3 7 22 0.6643 0.1234 
-3 7 23 1.5463 0.3827 
-3 7 24 -1.3668 -0.0087 
-3 7 25 -0.0828 -0.6766 
-3 7 26 -1.9968 -0.0613 
-3 7 27 1.3594 0.0932 
-3 7 28 -0.8656 -0.2853 
-3 7 29 2.3281 0.3771 
-3 7 30 0.8177 -0.0958 
-3 7 31 1.5087 -0.0569 
-3 7 32 2.0568 -0.2395 
-3 7 33 1.4550 -0.1864 
-3 8 -2 -0.6086 -0.1801 
-3 8 -1 -2.4838 0.2870 
-3 8 0 6.3473 -0.1699 
-3 8 1 -0.5827 -1.0946 
-3 8 2 -0.6578 -0.0442 
-3 8 3 1.9269 0.9220 
-3 8 4 -0.2711 -0.0328 
-3 8 5 -2.7596 0.5278 
-3 8 6 4.3302 -0.1035 
-3 8 7 -2.1082 -0.2369 
-3 8 8 -3.2152 0.2771 
-3 8 9 -1.4463 0.9018 
-3 8 10 0.1408 -0.0420 
-3 8 11 -0.3366 -1.1493 
-3 8 12 -0.2208 0.2614 
-3 8 13 2.4786 0.2849 
-3 8 14 -0.3279 -0.1493 
-3 8 15 0.5456 -0.1053 
-3 8 16 -0.3423 -0.1314 
-3 8 17 -2.8151 -0.6347 
-3 8 18 -2.1550 -0.1147 
-3 8 19 -1.8179 0.8385 
-3 8 20 -2.5559 0.0554 
-3 8 21 0.2383 -0.1708 
-3 8 22 2.1758 0.0808 
-3 8 23 0.7023 0.2684 
-3 8 24 0.7553 0.1361 
-3 8 25 0.5745 0.2217 
-3 8 26 -0.2419 0.2442 
-3 8 27 -1.6418 -0.5063 
-3 8 28 0.1926 -0.1030 
-3 8 29 -2.2625 0.0809 
-3 8 30 -2.0561 -0.0404 
-3 8 31 0.3506 0.1777 
-3 8 32 0.8735 -0.3246 
-3 9 -2 -0.9120 -0.1254 
-3 9 -1 0.3198 0.2539 
-3 9 0 -1.0528 -0.1310 
-3 9 1 0.8201 -0.2060 
-3 9 2 5.6045 -0.1188 
-3 9 3 -3.4808 -0.9234 
-3 9 4 4.0424 0.0368 
-3 9 5 6.5342 0.6621 
-3 9 6 3.1746 0.0265 
-3 9 7 1.9972 -0.5253 
-3 9 8 0.8566 -0.0401 
-3 9 9 -0.4875 0.5988 
-3 9 10 -1.4815 0.1684 
-3 9 11 -1.6168 0.4499 
-3 9 12 0.2452 -0.2704 
-3 9 13 0.5218 -0.4637 
-3 9 14 0.4812 0.2838 
-3 9 15 3.7239 0.5706 
-3 9 16 0.6394 -0.2029 
-3 9 17 1.9482 -0.6990 
-3 9 18 2.8459 0.0593 
-3 9 19 -1.7569 -0.2530 
-3 9 20 -3.4022 -0.0032 
-3 9 21 -2.1771 0.3156 
-3 9 22 -1.3214 -0.0613 
-3 9 23 -0.7931 -0.3172 
-3 9 24 -0.6350 -0.0236 
-3 9 25 -0.3648 0.5236 
-3 9 26 -0.6193 0.1045 
-3 9 27 1.7556 0.0415 
-3 9 28 0.4920 0.2935 
-3 9 29 -1.8017 -0.2162 
-3 9 30 0.1865 -0.0401 
-3 9 31 -4.0139 -0.0141 
-3 9 32 -0.0889 0.2367 
-3 10 -2 -1.2141 0.2867 
-3 10 -1 -7.0181 -0.2598 
-3 10 0 -0.3846 0.1227 
-3 10 1 0.4552 0.7255 
-3 10 2 -7.6904 -0.0756 
-3 10 3 -3.6177 -0.4127 
-3 10 4 -1.3066 -0.1601 
-3 10 5 -3.8820 -0.0834 
-3 10 6 3.7686 0.0984 
-3 10 7 1.1797 0.0997 
-3 10 8 2.2075 -0.2315 
-3 10 9 -0.4493 -0.6832 
-3 10 10 -1.0654 0.4784 
-3 10 11 -2.0430 0.5893 
-3 10 12 -1.8152 -0.1354 
-3 10 13 -2.5124 -0.0851 
-3 10 14 -0.2472 0.1442 
-3 10 15 -0.2513 0.1702 
-3 10 16 -1.7336 -0.1231 
-3 10 17 3.0240 0.5021 
-3 10 18 1.8395 -0.1037 
-3 10 19 1.6500 -0.6598 
-3 10 20 2.3628 0.0393 
-3 10 21 -0.5878 0.1760 
-3 10 22 0.6584 0.0112 
-3 10 23 -0.6114 -0.2220 
-3 10 24 1.1073 -0.1099 
-3 10 25 -1.1965 -0.2070 
-3 10 26 -0.1959 -0.1381 
-3 10 27 -0.3864 0.3223 
-3 10 28 0.0901 0.0091 
-3 10 29 2.7627 -0.2886 
-3 10 30 -1.0538 -0.1017 
-3 10 31 -1.5977 -0.0242 
-3 10 32 0.4507 -0.2113 
-3 11 -2 -5.9611 0.0318 
-3 11 -1 7.2796 -0.2436 
-3 11 0 -1.9707 0.0305 
-3 11 1 -1.9518 -0.0134 
-3 11 2 3.8441 0.0597 
-3 11 3 0.4761 0.4915 
-3 11 4 -7.0125 -0.1512 
-3 11 5 -1.3870 -0.4885 
-3 11 6 -2.2534 -0.0737 
-3 11 7 -0.4676 0.4486 
-3 11 8 1.3769 -0.2782 
-3 11 9 -0.0904 -0.3481 
-3 11 10 2.6118 -0.2319 
-3 11 11 -0.0926 -0.2167 
-3 11 12 -0.8463 0.2694 
-3 11 13 -2.2779 0.2267 
-3 11 14 -0.9515 -0.0726 
-3 11 15 -2.0788 -0.3250 
-3 11 16 0.4056 0.2014 
-3 11 17 -1.1488 0.4453 
-3 11 18 -2.6352 -0.1468 
-3 11 19 1.6250 0.1278 
-3 11 20 -0.1353 -0.1307 
-3 11 21 -0.1259 -0.1599 
-3 11 22 -1.2660 0.1436 
-3 11 23 0.8425 0.2104 
-3 11 24 1.6558 -0.1848 
-3 11 25 0.1205 -0.2456 
-3 11 26 0.3151 0.1307 
-3 11 27 0.1696 0.0950 
-3 11 28 1.9440 -0.1222 
-3 11 29 0.0284 0.1065 
-3 11 30 0.6508 0.3175 
-3 11 31 0.7826 -0.2299 
-3 12 -2 6.1554 -0.0998 
-3 12 -1 2.6402 0.2923 
-3 12 0 -6.4559 0.0339 
-3 12 1 6.4471 -0.4799 
-3 12 2 0.8026 0.1161 
-3 12 3 3.4035 0.3417 
-3 12 4 4.3227 0.1768 
-3 12 5 1.2627 -0.0089 
-3 12 6 -0.3186 -0.0235 
-3 12 7 1.2279 -0.1488 
-3 12 8 -2.8605 0.3180 
-3 12 9 1.0393 0.1837 
-3 12 10 1.9471 -0.4418 
-3 12 11 2.7358 -0.3211 
-3 12 12 2.3693 0.1348 
-3 12 13 0.8298 0.0077 
-3 12 14 -1.0981 -0.1225 
-3 12 15 1.5403 -0.0483 
-3 12 16 -0.9909 0.0975 
-3 12 17 0.0572 -0.3032 
-3 12 18 0.6155 0.1247 
-3 12 19 1.4483 0.3202 
-3 12 20 -1.5208 -0.0814 
-3 12 21 -0.0788 -0.1236 
-3 12 22 -1.8151 0.1180 
-3 12 23 0.2889 0.1481 
-3 12 24 -2.6788 -0.0420 
-3 12 25 -0.0149 -0.0206 
-3 12 26 -1.0018 -0.0856 
-3 12 27 0.9318 -0.1160 
-3 12 28 -2.2865 -0.1026 
-3 12 29 2.1217 0.1214 
-3 12 30 1.8909 -0.1116 
-3 12 31 -0.5102 -0.0551 
-3 13 -2 5.0637 -0.0329 
-3 13 -1 -6.3583 0.2020 
-3 13 0 5.8412 0.0205 
-3 13 1 -5.1130 -0.0284 
-3 13 2 -4.5034 -0.0832 
-3 13 3 2.1092 -0.3168 
-3 13 4 -0.7956 0.2142 
-3 13 5 3.0598 0.3858 
-3 13 6 2.7480 -0.0608 
-3 13 7 -0.7940 -0.0851 
-3 13 8 0.0816 0.2736 
-3 13 9 -1.8294 0.1337 
-3 13 10 -1.6797 0.1492 
-3 13 11 0.1856 -0.0654 
-3 13 12 1.7986 -0.0597 
-3 13 13 0.0904 -0.1368 
-3 13 14 3.6545 0.0789 
-3 13 15 -1.2929 0.1083 
-3 13 16 -0.2133 -0.1834 
-3 13 17 0.2726 -0.2076 
-3 13 18 1.1879 -0.0384 
-3 13 19 0.4659 -0.0043 
-3 13 20 0.8644 -0.0714 
-3 13 21 1.5543 -0.0377 
-3 13 22 0.0668 -0.0055 
-3 13 23 -1.1293 0.1030 
-3 13 24 -0.6555 0.1694 
-3 13 25 -0.4621 0.0377 
-3 13 26 0.2564 -0.0149 
-3 13 27 -1.7446 0.1562 
-3 13 28 -0.5315 0.0710 
-3 13 29 0.9467 -0.1581 
-3 13 30 -1.2331 -0.4222 
-3 13 31 2.6492 0.1492 
-3 14 -2 -1.3623 -0.0388 
-3 14 -1 2.0185 -0.1713 
-3 14 0 2.8907 0.0182 
-3 14 1 -5.0781 0.2496 
-3 14 2 2.9773 -0.1712 
-3 14 3 -7.1037 -0.3382 
-3 14 4 -0.1642 -0.1706 
-3 14 5 0.3815 -0.0915 
-3 14 6 -1.8499 -0.0425 
-3 14 7 1.7198 0.0044 
-3 14 8 -0.4791 -0.2869 
-3 14 9 -3.2363 0.2222 
-3 14 10 -0.1269 0.1171 
-3 14 11 -2.5465 0.1135 
-3 14 12 -0.8706 -0.1173 
-3 14 13 -1.0448 0.1161 
-3 14 14 -0.0211 0.2075 
-3 14 15 -1.0590 -0.0032 
-3 14 16 2.3936 -0.0064 
-3 14 17 -2.7691 0.2016 
-3 14 18 0.6034 -0.0162 
-3 14 19 -2.0655 -0.1058 
-3 14 20 4.0922 -0.1137 
-3 14 21 -0.7880 0.0803 
-3 14 22 1.6180 -0.1526 
-3 14 23 0.9512 -0.0415 
-3 14 24 -0.7001 0.1229 
-3 14 25 -1.6992 0.0490 
-3 14 26 -0.4663 0.0235 
-3 14 27 -0.2857 0.0301 
-3 14 28 2.4498 0.3585 
-3 14 29 -2.0836 0.2407 
-3 14 30 0.5951 0.2780 
-3 15 -2 0.8944 0.0088 
-3 15 -1 2.6427 -0.1023 
-3 15 0 -2.2849 0.0825 
-3 15 1 4.9907 0.2565 
-3 15 2 -0.9188 0.1485 
-3 15 3 -0.4205 0.1377 
-3 15 4 2.8230 -0.0161 
-3 15 5 -2.2331 -0.0307 
-3 15 6 4.8453 0.0540 
-3 15 7 3.2102 -0.1464 
-3 15 8 -2.3237 -0.0996 
-3 15 9 1.5150 -0.0593 
-3 15 10 -1.8167 -0.0101 
-3 15 11 0.3996 0.0842 
-3 15 12 2.0025 -0.1612 
-3 15 13 -1.9271 0.1636 
-3 15 14 -0.9560 0.0168 
-3 15 15 0.4065 -0.0160 
-3 15 16 -0.0883 0.1125 
-3 15 17 0.3508 0.0666 
-3 15 18 -1.9243 0.1298 
-3 15 19 0.4397 -0.0393 
-3 15 20 -0.0108 0.0833 
-3 15 21 -1.6206 -0.0981 
-3 15 22 5.3574 -0.0895 
-3 15 23 0.8457 -0.1016 
-3 15 24 2.7589 0.0366 
-3 15 25 -0.0965 -0.0243 
-3 15 26 -3.1964 -0.0803 
-3 15 27 -0.9299 -0.2091 
-3 15 28 -0.6084 0.0496 
-3 15 29 -1.5248 -0.3166 
-3 15 30 -0.1606 0.1097 
-3 16 -2 -2.7503 -0.1117 
-3 16 -1 0.8976 -0.2140 
-3 16 0 -0.0121 0.0439 
-3 16 1 0.7530 -0.0279 
-3 16 2 -3.3451 -0.0442 
-3 16 3 2.8659 0.1202 
-3 16 4 -5.8270 0.0579 
-3 16 5 0.9139 0.0685 
-3 16 6 2.5357 0.0752 
-3 16 7 0.9217 0.1085 
-3 16 8 4.1389 -0.0717 
-3 16 9 1.3472 -0.2307 
-3 16 10 -3.6075 0.0288 
-3 16 11 3.2686 -0.1266 
-3 16 12 -0.0679 -0.0090 
-3 16 13 2.8939 -0.1843 
-3 16 14 0.9550 -0.0868 
-3 16 15 -0.6151 0.0413 
-3 16 16 0.2370 0.0012 
-3 16 17 0.5993 -0.0980 
-3 16 18 -0.5373 0.0858 
-3 16 19 0.5297 0.0753 
-3 16 20 -4.3811 0.0412 
-3 16 21 1.0681 -0.0229 
-3 16 22 -2.9501 0.0651 
-3 16 23 -0.1636 -0.0538 
-3 16 24 5.8750 -0.1036 
-3 16 25 1.6297 0.0540 
-3 16 26 0.9273 0.1439 
-3 16 27 -0.2768 0.2309 
-3 16 28 -1.2763 -0.2640 
-3 16 29 1.4879 0.1330 
-3 17 -2 -2.5895 -0.0559 
-3 17 -1 1.3260 0.0018 
-3 17 0 -0.8366 -0.0123 
-3 17 1 -1.4117 -0.1781 
-3 17 2 0.8509 0.1164 
-3 17 3 -1.0446 -0.0048 
-3 17 4 -2.7857 -0.1837 
-3 17 5 -0.2733 -0.0346 
-3 17 6 -6.4684 0.1460 
-3 17 7 0.9856 0.1649 
-3 17 8 0.1689 0.0109 
-3 17 9 -1.2798 0.0716 
-3 17 10 -1.3891 -0.0696 
-3 17 11 -2.0760 0.0551 
-3 17 12 -3.4235 0.0971 
-3 17 13 2.5720 -0.0906 
-3 17 14 -0.0400 -0.1065 
-3 17 15 1.1566 -0.0337 
-3 17 16 -0.8250 0.0503 
-3 17 17 0.9391 -0.0983 
-3 17 18 -0.2765 0.0413 
-3 17 19 0.8345 0.0570 
-3 17 20 -0.5514 0.0104 
-3 17 21 0.3662 0.0084 
-3 17 22 -5.7523 -0.0387 
-3 17 23 -0.6312 0.1978 
-3 17 24 -2.7289 -0.1382 
-3 17 25 0.9322 0.0002 
-3 17 26 2.4509 -0.1000 
-3 17 27 -0.5430 0.1031 
-3 17 28 -0.3343 -0.0631 
-3 18 -2 2.5281 0.1369 
-3 18 -1 -2.1833 0.1921 
-3 18 0 0.7285 -0.2121 
-3 18 1 -1.1760 0.0006 
-3 18 2 0.9927 0.2406 
-3 18 3 -1.1168 -0.0563 
-3 18 4 3.7381 0.0303 
-3 18 5 -0.6300 -0.0240 
-3 18 6 1.9142 0.0474 
-3 18 7 -0.3178 -0.0480 
-3 18 8 -0.9837 0.2460 
-3 18 9 2.1648 0.1207 
-3 18 10 0.2294 0.0033 
-3 18 11 -2.1145 0.0412 
-3 18 12 -2.5983 0.1332 
-3 18 13 -1.7563 0.1521 
-3 18 14 -0.4541 0.0343 
-3 18 15 -0.7519 0.0965 
-3 18 16 1.0008 -0.2527 
-3 18 17 -1.4593 0.0024 
-3 18 18 1.3715 0.0986 
-3 18 19 0.6649 0.0236 
-3 18 20 1.5278 -0.0023 
-3 18 21 2.6258 -0.2414 
-3 18 22 1.6796 -0.0053 
-3 18 23 0.1952 0.0548 
-3 18 24 -3.3339 0.0695 
-3 18 25 -0.4893 -0.0265 
-3 18 26 0.7086 -0.1802 
-3 18 27 -1.0779 0.1617 
-3 18 28 -1.0317 -0.0212 
-3 19 -2 1.2840 0.0856 
-3 19 -1 0.3197 0.0074 
-3 19 0 2.3701 -0.0660 
-3 19 1 -0.9137 0.0537 
-3 19 2 0.2159 -0.1930 
-3 19 3 -2.8704 -0.1138 
-3 19 4 0.9061 0.0745 
-3 19 5 -0.2962 -0.0738 
-3 19 6 2.2562 -0.2009 
-3 19 7 -1.7286 -0.1938 
-3 19 8 3.8209 0.0192 
-3 19 9 -1.0997 -0.1031 
-3 19 10 2.9195 0.0319 
-3 19 11 2.9776 -0.1628 
-3 19 12 1.3972 -0.1454 
-3 19 13 0.3045 -0.0332 
-3 19 14 -0.9567 0.2760 
-3 19 15 0.5949 -0.0080 
-3 19 16 0.7944 -0.1829 
-3 19 17 -2.9709 0.1286 
-3 19 18 0.1387 -0.1473 
-3 19 19 -3.0695 0.1856 
-3 19 20 1.2402 0.1416 
-3 19 21 -0.4708 0.0019 
-3 19 22 2.8994 -0.0812 
-3 19 23 2.6448 -0.2485 
-3 19 24 1.4978 0.3153 
-3 19 25 0.0609 -0.1225 
-3 19 26 -0.5842 0.1744 
-3 20 -2 -0.2031 -0.1545 
-3 20 -1 1.1969 -0.1008 
-3 20 0 1.1769 0.1991 
-3 20 1 1.0902 0.1401 
-3 20 2 0.3460 -0.0997 
-3 20 3 -0.5870 0.0772 
-3 20 4 1.6345 0.0127 
-3 20 5 -1.8589 0.0079 
-3 20 6 0.3364 0.0391 
-3 20 7 1.1705 0.1251 
-3 20 8 -2.3089 -0.2543 
-3 20 9 -4.5487 -0.0596 
-3 20 10 0.7032 0.0954 
-3 20 11 -1.1361 0.0606 
-3 20 12 1.4491 -0.1814 
-3 20 13 1.2062 -0.1715 
-3 20 14 -0.9138 0.0409 
-3 20 15 4.0864 -0.0132 
-3 20 16 -0.1681 0.2380 
-3 20 17 0.6387 -0.2224 
-3 20 18 -0.9522 -0.2801 
-3 20 19 -2.3786 0.0507 
-3 20 20 -2.4448 0.1130 
-3 20 21 -2.4817 0.0823 
-3 20 22 -3.3977 -0.2287 
-3 20 23 2.1281 -0.2460 
-3 20 24 2.1981 -0.0425 
-3 20 25 2.1917 -0.1072 
-3 21 -2 -2.6232 -0.1766 
-3 21 -1 1.1111 -0.1043 
-3 21 0 -2.2850 -0.0693 
-3 21 1 1.9801 -0.0960 
-3 21 2 -2.4429 0.1394 
-3 21 3 0.8245 0.1060 
-3 21 4 -1.5773 -0.1779 
-3 21 5 1.5094 -0.0469 
-3 21 6 3.9767 0.2985 
-3 21 7 1.2302 0.1805 
-3 21 8 0.3676 -0.0314 
-3 21 9 0.5970 0.0329 
-3 21 10 -3.4048 -0.0384 
-3 21 11 -3.8231 0.1476 
-3 21 12 0.1842 0.0564 
-3 21 13 -1.2995 -0.0555 
-3 21 14 -1.2451 -0.2291 
-3 21 15 0.7532 0.0162 
-3 21 16 -0.8872 0.3021 
-3 21 17 5.4421 -0.1370 
-3 21 18 -0.5208 -0.0123 
-3 21 19 -0.9688 -0.0996 
-3 21 20 3.0739 0.0110 
-3 21 21 -3.7066 0.1084 
-3 21 22 -2.0622 0.0331 
-3 21 23 -1.8527 -0.0603 
-3 21 24 -1.4228 -0.2885 
-3 21 25 5.6643 0.1090 
-3 22 -2 -0.1601 0.2415 
-3 22 -1 -0.4745 0.1443 
-3 22 0 -1.3266 -0.1803 
-3 22 1 2.7507 -0.1255 
-3 22 2 -3.5223 0.0849 
-3 22 3 0.6782 0.0281 
-3 22 4 -4.3733 -0.1382 
-3 22 5 1.3700 -0.1235 
-3 22 6 -2.0833 -0.1739 
-3 22 7 3.7257 -0.0205 
-3 22 8 3.8596 0.2881 
-3 22 9 2.6731 0.0153 
-3 22 10 -0.9514 -0.1822 
-3 22 11 -0.7975 0.0609 
-3 22 12 1.3327 0.1872 
-3 22 13 -1.6078 0.0522 
-3 22 14 0.6880 -0.1737 
-3 22 15 -2.3015 -0.0301 
-3 22 16 1.3096 -0.0799 
-3 22 17 2.2009 0.0446 
-3 22 18 -2.3056 0.2346 
-3 22 19 3.0036 0.0321 
-3 22 20 -1.7728 -0.0309 
-3 22 21 -0.4431 0.3042 
-3 22 22 3.7909 0.1149 
-3 22 23 -9.6410 0.2432 
-3 22 24 -0.0097 -0.0821 
-3 23 -2 2.3942 0.0902 
-3 23 -1 -0.9782 0.1274 
-3 23 0 1.3294 0.0612 
-3 23 1 -2.0914 0.0230 
-3 23 2 1.1698 -0.1356 
-3 23 3 1.4560 0.1091 
-3 23 4 -2.6254 0.1509 
-3 23 5 -1.3398 -0.0181 
-3 23 6 -1.9243 -0.3744 
-3 23 7 0.3544 -0.0125 
-3 23 8 0.3472 0.0793 
-3 23 9 3.1165 0.0273 
-3 23 10 0.6512 -0.0259 
-3 23 11 1.5511 0.0633 
-3 23 12 -0.5010 -0.0571 
-3 23 13 -0.4044 0.2965 
-3 23 14 2.1345 0.1606 
-3 23 15 -2.0806 0.0698 
-3 23 16 2.0803 -0.2125 
-3 23 17 0.5435 0.0396 
-3 23 18 4.6643 -0.0481 
-3 23 19 -0.2350 -0.1859 
-3 23 20 -3.1592 0.0953 
-3 23 21 5.1674 0.0291 
-3 23 22 -2.2733 -0.1838 
-3 23 23 0.2116 -0.0537 
-3 24 -2 2.9467 -0.1583 
-3 24 -1 0.4280 -0.0278 
-3 24 0 0.8316 0.1330 
-3 24 1 -1.6905 0.0956 
-3 24 2 1.6252 -0.1058 
-3 24 3 -2.9541 -0.0580 
-3 24 4 1.3383 0.1503 
-3 24 5 0.5052 0.0512 
-3 24 6 -2.0031 -0.0356 
-3 24 7 -2.7338 -0.2078 
-3 24 8 -0.9692 -0.0537 
-3 24 9 -1.4267 -0.0521 
-3 24 10 -0.0040 0.1259 
-3 24 11 -0.5619 -0.1843 
-3 24 12 -0.8270 -0.0879 
-3 24 13 0.7836 0.0461 
-3 24 14 -0.4013 -0.0375 
-3 24 15 -2.2187 0.2268 
-3 24 16 -0.6147 0.1029 
-3 24 17 0.6691 0.1144 
-3 24 18 3.3959 -0.1948 
-3 24 19 1.5356 -0.0235 
-3 24 20 3.7978 0.2341 
-3 24 21 -0.7419 -0.1183 
-3 24 22 2.4126 0.4084 
-3 25 -2 -1.4222 -0.0087 
-3 25 -1 -0.1893 -0.1706 
-3 25 0 3.1742 0.2101 
-3 25 1 -0.2286 0.1514 
-3 25 2 -1.1640 0.1389 
-3 25 3 -0.9164 -0.0084 
-3 25 4 2.7179 0.2225 
-3 25 5 -0.9053 0.2177 
-3 25 6 3.7079 0.1638 
-3 25 7 0.8306 0.0144 
-3 25 8 0.4534 -0.0757 
-3 25 9 -1.5148 -0.0283 
-3 25 10 -0.6376 0.1357 
-3 25 11 -0.7185 -0.1908 
-3 25 12 -1.9436 0.1651 
-3 25 13 -0.3058 -0.1378 
-3 25 14 0.2229 -0.0372 
-3 25 15 -1.1829 -0.0081 
-3 25 16 -2.4342 0.0161 
-3 25 17 -2.6705 0.1975 
-3 25 18 -0.6680 -0.0114 
-3 25 19 1.3999 0.0561 
-3 25 20 -1.4134 -0.1459 
-3 25 21 -1.7399 0.2588 
-3 26 -2 -1.6546 -0.0852 
-3 26 -1 0.6558 0.0130 
-3 26 0 1.3524 -0.1541 
-3 26 1 -2.3876 -0.1253 
-3 26 2 0.8683 -0.0890 
-3 26 3 -2.5727 -0.0240 
-3 26 4 -2.9136 -0.1673 
-3 26 5 0.5799 0.0097 
-3 26 6 2.1441 0.2302 
-3 26 7 1.8654 0.0158 
-3 26 8 3.1443 -0.0870 
-3 26 9 0.2060 0.2126 
-3 26 10 3.4205 -0.1799 
-3 26 11 -1.0174 -0.1271 
-3 26 12 0.1128 -0.0130 
-3 26 13 1.7911 -0.1199 
-3 26 14 -1.2994 0.1520 
-3 26 15 0.5419 -0.2523 
-3 26 16 -0.6082 -0.0428 
-3 26 17 -1.1113 0.1925 
-3 26 18 -0.9443 -0.0499 
-3 26 19 0.1347 -0.0113 
-3 27 -2 0.3362 0.2653 
-3 27 -1 3.4848 -0.0264 
-3 27 0 0.4837 -0.0241 
-3 27 1 2.5659 -0.1211 
-3 27 2 0.1492 0.1045 
-3 27 3 -4.2041 -0.1436 
-3 27 4 -2.4114 -0.3903 
-3 27 5 -3.0258 -0.0326 
-3 27 6 -3.6029 -0.1559 
-3 27 7 1.6769 -0.1732 
-3 27 8 -2.4124 -0.0251 
-3 27 9 1.9890 -0.0880 
-3 27 10 -3.6673 0.1447 
-3 27 11 -0.4413 0.0474 
-3 27 12 1.7355 -0.2312 
-3 27 13 -1.1152 -0.1277 
-3 27 14 0.0023 0.1457 
-3 27 15 1.8470 -0.4121 
-3 27 16 -0.6260 0.0545 
-3 27 17 -0.6424 -0.5439 
-3 27 18 0.8188 0.3093 
-3 28 -2 -0.6515 -0.1238 
-3 28 -1 1.7335 -0.0711 
-3 28 0 -0.2524 -0.0070 
-3 28 1 7.4965 0.0983 
-3 28 2 1.2165 0.2379 
-3 28 3 2.0220 -0.0368 
-3 28 4 -0.1748 0.2628 
-3 28 5 -1.6861 0.0884 
-3 28 6 -0.2388 0.0378 
-3 28 7 0.0400 0.1541 
-3 28 8 2.1161 -0.1920 
-3 28 9 1.5304 -0.1036 
-3 28 10 -1.7358 0.0166 
-3 28 11 1.1572 0.1781 
-3 28 12 -4.3479 -0.0407 
-3 28 13 0.8116 0.0037 
-3 28 14 -0.1541 0.1083 
-3 28 15 0.1147 0.5319 
-3 28 16 -1.3859 -0.1969 
-3 29 -2 -1.3923 -0.0472 
-3 29 -1 -5.3810 0.0634 
-3 29 0 -0.2568 0.0672 
-3 29 1 2.4785 0.1920 
-3 29 2 -1.2996 -0.2084 
-3 29 3 4.9663 0.0937 
-3 29 4 -0.7544 0.1760 
-3 29 5 0.3760 -0.0236 
-3 29 6 -0.0745 0.0139 
-3 29 7 0.3206 0.3277 
-3 29 8 1.2447 -0.0536 
-3 29 9 2.3729 -0.2305 
-3 29 10 4.6586 -0.0950 
-3 29 11 -0.6126 0.2020 
-3 29 12 1.9054 -0.4433 
-3 29 13 0.1092 -0.3638 
-3 29 14 0.6015 -0.2626 
-3 30 -2 -1.6668 -0.4474 
-3 30 -1 0.4667 0.1104 
-3 30 0 -0.0746 0.1795 
-3 30 1 -4.9994 -0.0704 
-3 30 2 2.3692 0.0177 
-3 30 3 0.3740 0.1869 
-3 30 4 -3.9544 0.1979 
-3 30 5 0.6636 -0.1120 
-3 30 6 -1.4930 0.6397 
-3 30 7 -1.3551 0.1540 
-3 30 8 -2.0092 -0.0593 
-3 30 9 -0.5478 0.2028 
-3 30 10 -1.0495 -0.0066 
-3 30 11 0.8748 0.1030 
-3 31 -2 2.0869 -0.3114 
-3 31 -1 0.2285 -0.2582 
-3 31 0 -1.2615 -0.7933 
-3 31 1 1.3291 -0.2924 
-3 31 2 3.1973 -0.2394 
-3 31 3 -3.5593 -0.3236 
-3 31 4 3.7705 -0.7750 
-3 31 5 -2.5191 0.3026 
-3 31 6 -0.2048 0.4233 
-3 31 7 0.2774 0.0946 
-2 0 0 87.1325 1.8820 
-2 0 2 113.4799 -0.9911 
-2 0 4 -3.6855 1.0219 
-2 0 6 -31.5794 1.2032 
-2 0 8 -2.7612 0.0061 
-2 0 10 -1.3492 1.2888 
-2 0 12 5.7959 -1.3712 
-2 0 14 -1.0568 -0.5479 
-2 0 16 2.1150 0.1448 
-2 0 18 -2.4657 -0.5812 
-2 0 20 0.3850 0.9452 
-2 0 22 0.3896 0.1583 
-2 0 24 0.9704 -0.0389 
-2 0 26 -1.0877 0.3750 
-2 0 28 -0.5296 -0.8271 
-2 0 30 2.6545 0.1689 
-2 0 32 -0.1026 -0.1412 
-2 1 -1 -23.2857 -1.2355 
-2 1 0 -80.5727 1.7839 
-2 1 1 22.5519 -1.0722 
-2 1 2 39.1179 0.3148 
-2 1 3 -13.4808 1.0704 
-2 1 4 73.2278 -1.1121 
-2 1 5 -34.0792 -1.1098 
-2 1 6 14.5521 0.6578 
-2 1 7 2.1204 1.3583 
-2 1 8 -4.3242 0.0347 
-2 1 9 5.9345 -0.2488 
-2 1 10 -3.7622 0.3786 
-2 1 11 1.2249 -0.6105 
-2 1 12 1.5305 1.5383 
-2 1 13 -0.9897 0.7022 
-2 1 14 2.8926 -1.4003 
-2 1 15 1.3223 -1.1650 
-2 1 16 1.7490 0.4657 
-2 1 17 1.1706 0.4283 
-2 1 18 0.6422 -0.6295 
-2 1 19 -0.4248 0.2093 
-2 1 20 -0.7291 -0.5315 
-2 1 21 -1.0212 -0.5292 
-2 1 22 -0.0824 0.8278 
-2 1 23 1.7941 1.0023 
-2 1 24 0.4191 -0.4160 
-2 1 25 -0.1785 -0.5988 
-2 1 26 0.8756 0.8123 
-2 1 27 -1.1591 0.2035 
-2 1 28 -1.1106 -0.1493 
-2 1 29 0.0192 -0.1559 
-2 1 30 -0.7658 -0.4095 
-2 1 31 0.1302 -0.3954 
-2 1 32 0.9573 0.0891 
-2 1 33 -1.1734 0.1351 
-2 1 34 -1.8520 -0.0122 
-2 2 -1 -26.3089 1.5957 
-2 2 0 -54.6014 -1.6395 
-2 2 1 -4.4488 -1.7784 
-2 2 2 -66.9502 1.2627 
-2 2 3 45.0374 -0.2607 
-2 2 4 -20.1862 -1.0115 
-2 2 6 25.3788 -1.0461 
-2 2 7 -34.7232 -0.2056 
-2 2 8 12.2273 0.4283 
-2 2 9 -5.9910 1.6372 
-2 2 10 -0.8429 -1.3666 
-2 2 11 -1.4345 -0.2395 
-2 2 12 -7.0194 1.3119 
-2 2 13 -0.3854 0.5199 
-2 2 14 0.5149 0.3526 
-2 2 15 -2.6341 0.1322 
-2 2 16 0.3837 -0.3899 
-2 2 17 1.1719 -1.0595 
-2 2 18 1.2081 0.8843 
-2 2 19 1.6064 0.7135 
-2 2 20 -1.2993 -0.9757 
-2 2 21 -0.0930 -0.6417 
-2 2 22 -0.5930 -0.0064 
-2 2 23 0.0930 0.1637 
-2 2 24 -0.6116 0.1242 
-2 2 25 3.3553 0.5675 
-2 2 26 -2.0837 -0.4679 
-2 2 27 0.7114 -0.3832 
-2 2 28 1.5037 0.9420 
-2 2 29 0.2150 0.5055 
-2 2 30 -0.6439 -0.3590 
-2 2 31 0.8451 -0.3325 
-2 2 32 0.8322 -0.0469 
-2 2 33 0.8436 0.3067 
-2 2 34 -1.0242 -0.0736 
-2 3 -1 34.4976 2.0340 
-2 3 0 10.6053 -0.7760 
-2 3 1 -14.5308 1.8476 
-2 3 2 5.4535 -0.3074 
-2 3 3 18.0922 -0.8764 
-2 3 4 -27.7496 1.2706 
-2 3 5 47.5513 0.2075 
-2 3 6 -30.8329 -0.7830 
-2 3 7 8.5951 -1.4496 
-2 3 8 7.0862 0.2127 
-2 3 9 -8.5747 0.1716 
-2 3 10 8.3250 0.0188 
-2 3 11 -2.9678 0.5216 
-2 3 12 -0.0932 -1.3415 
-2 3 13 -1.6763 -0.1029 
-2 3 14 -3.8357 1.4295 
-2 3 15 -0.7800 0.9749 
-2 3 16 0.4935 -0.8354 
-2 3 17 -2.6665 -0.3709 
-2 3 18 1.7110 0.4474 
-2 3 19 -1.4949 -0.2393 
-2 3 20 1.6925 0.6859 
-2 3 21 -0.0181 0.2276 
-2 3 22 -0.6477 -0.9407 
-2 3 23 -1.4126 -0.6839 
-2 3 24 2.8653 0.8028 
-2 3 25 0.1801 0.4063 
-2 3 26 -1.0533 -0.6515 
-2 3 27 1.3482 0.1228 
-2 3 28 -1.5553 0.0378 
-2 3 29 1.7203 -0.0370 
-2 3 30 0.6057 0.3964 
-2 3 31 0.9714 0.3047 
-2 3 32 0.5549 -0.2511 
-2 3 33 0.8262 -0.6405 
-2 4 -1 -5.1878 -1.2791 
-2 4 0 8.7027 1.2598 
-2 4 1 1.4966 1.4032 
-2 4 2 -1.2393 -1.3710 
-2 4 3 -8.2827 0.8187 
-2 4 5 -1.9496 0.3254 
-2 4 6 -9.0899 0.4763 
-2 4 7 22.9093 -0.1437 
-2 4 8 -14.3091 -0.8658 
-2 4 9 12.4032 -1.4324 
-2 4 10 0.6980 1.3570 
-2 4 11 5.8673 -0.1531 
-2 4 12 5.3524 -0.9286 
-2 4 13 0.7056 -0.4631 
-2 4 14 -1.1221 -0.0079 
-2 4 15 0.4265 0.0235 
-2 4 16 -0.7734 0.7177 
-2 4 17 0.4333 0.7921 
-2 4 18 -0.0776 -1.1146 
-2 4 19 -1.5482 -0.2585 
-2 4 20 2.7539 0.9193 
-2 4 21 -1.9499 0.4439 
-2 4 22 -0.0911 -0.2597 
-2 4 23 -2.4031 -0.2525 
-2 4 24 0.5259 -0.2933 
-2 4 25 -0.9247 -0.4113 
-2 4 26 3.4157 0.7489 
-2 4 27 -3.3186 0.1076 
-2 4 28 -1.6582 -0.7563 
-2 4 29 -1.0700 -0.2693 
-2 4 30 -0.2538 0.4811 
-2 4 31 -0.2458 0.3559 
-2 4 32 -1.9701 -0.1872 
-2 4 33 0.3835 -0.4126 
-2 5 -1 -7.9914 -1.1551 
-2 5 0 14.8832 0.5051 
-2 5 1 -26.9402 -1.4622 
-2 5 2 -1.4275 0.8755 
-2 5 3 -3.5541 0.4527 
-2 5 4 -3.6022 -0.8364 
-2 5 5 -7.2006 -0.1064 
-2 5 6 6.6056 0.8744 
-2 5 7 -15.6076 1.3251 
-2 5 8 -2.0947 -0.6227 
-2 5 9 0.5973 -0.1322 
-2 5 10 -6.5643 -0.4252 
-2 5 11 2.8879 -0.1009 
-2 5 12 0.5626 0.9926 
-2 5 13 5.3320 -0.2923 
-2 5 14 0.2434 -1.4003 
-2 5 15 0.8717 -0.6300 
-2 5 16 -1.7228 1.0588 
-2 5 17 1.2363 0.0312 
-2 5 18 -3.0733 -0.2280 
-2 5 19 0.7498 0.0803 
-2 5 20 -0.5050 -0.4497 
-2 5 21 1.0426 0.1193 
-2 5 22 0.1456 0.7226 
-2 5 23 -1.1013 0.3777 
-2 5 24 -2.4560 -0.9068 
-2 5 25 0.9111 -0.1296 
-2 5 26 1.3315 0.3033 
-2 5 27 0.5193 -0.1993 
-2 5 28 -0.1989 0.0387 
-2 5 29 -2.4596 -0.2130 
-2 5 30 -0.6823 -0.3715 
-2 5 31 -1.1869 -0.1870 
-2 5 32 0.1221 0.7413 
-2 5 33 -0.8645 0.4630 
-2 6 -1 15.0598 0.8951 
-2 6 0 -3.4151 -1.4412 
-2 6 1 4.7178 -0.4487 
-2 6 2 10.9193 0.8829 
-2 6 3 -14.1212 -0.3823 
-2 6 4 14.9017 -0.0385 
-2 6 5 5.3005 -0.4028 
-2 6 6 1.1177 -0.0221 
-2 6 7 -3.2625 0.0272 
-2 6 8 1.9964 1.3233 
-2 6 9 -6.0175 0.5890 
-2 6 10 1.5595 -1.2048 
-2 6 11 -5.5357 0.3142 
-2 6 12 -2.6173 0.6697 
-2 6 13 1.1193 0.3099 
-2 6 14 2.0786 -0.5078 
-2 6 15 1.6344 -0.0414 
-2 6 16 0.3606 -0.8348 
-2 6 17 2.0737 -0.4570 
-2 6 18 -0.6740 0.9336 
-2 6 19 0.6300 -0.0681 
-2 6 20 -2.4861 -0.5972 
-2 6 21 0.4723 -0.3095 
-2 6 22 1.3502 0.4595 
-2 6 23 -0.3762 0.1943 
-2 6 24 -1.7212 0.2927 
-2 6 25 -0.2383 0.2926 
-2 6 26 0.4641 -0.6176 
-2 6 27 3.3495 0.2738 
-2 6 28 2.4457 0.5727 
-2 6 29 1.1952 0.1834 
-2 6 30 0.5448 -0.6612 
-2 6 31 0.7876 -0.1115 
-2 6 32 1.3290 0.3176 
-2 6 33 0.2174 0.2966 
-2 7 -1 -4.2222 0.1516 
-2 7 0 1.8710 -0.0353 
-2 7 1 3.7854 0.6080 
-2 7 2 -14.6199 -1.0190 
-2 7 3 2.3294 -0.1747 
-2 7 4 2.4915 0.4876 
-2 7 5 -1.3919 0.1984 
-2 7 6 9.9409 -1.2943 
-2 7 7 -0.2685 -0.5123 
-2 7 8 -0.0690 0.6525 
-2 7 9 1.1649 0.1327 
-2 7 10 5.2990 0.5077 
-2 7 11 -3.1954 -0.1960 
-2 7 12 0.6609 -0.3432 
-2 7 13 -2.4326 0.3717 
-2 7 14 -0.0973 1.1371 
-2 7 15 -0.5887 0.1829 
-2 7 16 0.5223 -1.0454 
-2 7 17 0.7485 0.2308 
-2 7 18 1.9352 -0.0147 
-2 7 19 2.5103 -0.0781 
-2 7 20 -0.5483 0.2755 
-2 7 21 3.3282 -0.0971 
-2 7 22 0.4537 -0.5170 
-2 7 23 0.2438 -0.2585 
-2 7 24 0.8481 0.7923 
-2 7 25 -2.2145 -0.0998 
-2 7 26 -2.2211 -0.1892 
-2 7 27 -0.2590 0.0029 
-2 7 28 0.6254 0.0369 
-2 7 29 1.0623 0.2350 
-2 7 30 2.5865 0.2517 
-2 7 31 0.9891 0.1960 
-2 7 32 1.4150 -0.7229 
-2 7 33 1.1910 0.2951 
-2 8 -1 9.3479 -0.3470 
-2 8 0 -2.0045 1.2260 
-2 8 1 -0.5765 0.1605 
-2 8 2 -2.8233 -0.3858 
-2 8 3 -4.5756 0.0312 
-2 8 4 -9.1102 0.2815 
-2 8 5 2.1058 0.0950 
-2 8 6 -3.4546 0.0513 
-2 8 7 -1.3754 -0.1445 
-2 8 8 -3.6129 -1.1697 
-2 8 9 -1.3353 0.2233 
-2 8 10 -1.6751 0.7479 
-2 8 11 2.0765 -0.2844 
-2 8 12 3.0295 -0.3982 
-2 8 13 -2.5252 0.0619 
-2 8 14 0.4700 0.5357 
-2 8 15 0.6990 -0.1776 
-2 8 16 -1.0938 0.8007 
-2 8 17 -2.7932 0.1754 
-2 8 18 -1.7249 -0.7888 
-2 8 19 -2.2124 0.0646 
-2 8 20 0.1827 0.4169 
-2 8 21 1.1287 0.1414 
-2 8 22 -0.3937 -0.4462 
-2 8 23 3.7156 -0.0881 
-2 8 24 0.8914 -0.2464 
-2 8 25 0.9542 0.0310 
-2 8 26 0.8567 0.4668 
-2 8 27 -0.9344 -0.2653 
-2 8 28 -3.3560 -0.3666 
-2 8 29 -0.8985 -0.1925 
-2 8 30 -1.3445 0.5792 
-2 8 31 -0.3984 -0.2827 
-2 8 32 1.5604 -0.0916 
-2 8 33 -0.1818 0.2125 
-2 9 -1 -0.7349 -0.0893 
-2 9 0 1.8626 -0.0667 
-2 9 1 11.3629 -0.0683 
-2 9 2 -2.0823 0.6344 
-2 9 3 6.0820 0.1738 
-2 9 4 1.3320 -0.4511 
-2 9 5 2.8426 -0.0378 
-2 9 6 2.4984 0.9735 
-2 9 7 2.3134 -0.1437 
-2 9 8 -2.5813 -0.4451 
-2 9 9 -3.0478 -0.1362 
-2 9 10 -3.8168 -0.3505 
-2 9 11 1.3799 0.2213 
-2 9 12 -0.2799 0.1800 
-2 9 13 -1.3707 -0.1901 
-2 9 14 2.4789 -0.8038 
-2 9 15 0.4605 0.1364 
-2 9 16 2.6387 0.6672 
-2 9 17 1.8028 -0.1295 
-2 9 18 -0.7958 0.0956 
-2 9 19 -2.8627 0.0399 
-2 9 20 -2.4866 -0.1848 
-2 9 21 -3.1534 0.1475 
-2 9 22 -0.4159 0.4497 
-2 9 23 -2.1658 -0.0326 
-2 9 24 -1.4140 -0.6015 
-2 9 25 0.1418 0.1190 
-2 9 26 1.9509 0.0781 
-2 9 27 1.3130 0.1961 
-2 9 28 1.9971 -0.0114 
-2 9 29 -0.3063 0.0926 
-2 9 30 -3.1932 -0.2128 
-2 9 31 0.7093 0.0169 
-2 9 32 -0.6843 0.7366 
-2 10 -1 -2.8782 0.2386 
-2 10 0 -2.0787 -0.7597 
-2 10 1 -5.0586 -0.1574 
-2 10 2 2.0936 0.3557 
-2 10 3 -2.0396 0.0646 
-2 10 4 -4.5479 -0.1927 
-2 10 5 6.3974 0.1100 
-2 10 6 2.3719 -0.0858 
-2 10 7 4.6475 0.2673 
-2 10 8 1.1930 0.6634 
-2 10 9 0.5342 -0.4004 
-2 10 10 -2.8017 -0.4144 
-2 10 11 -1.6841 0.2162 
-2 10 12 -2.4264 0.2765 
-2 10 13 0.7326 -0.1373 
-2 10 14 -1.2431 -0.1752 
-2 10 15 -3.3401 0.0709 
-2 10 16 2.8006 -0.5887 
-2 10 17 2.0260 0.0892 
-2 10 18 3.3567 0.5217 
-2 10 19 0.9057 0.0184 
-2 10 20 0.0943 -0.4640 
-2 10 21 0.3217 0.1077 
-2 10 22 -0.5553 0.3686 
-2 10 23 1.2222 0.0904 
-2 10 24 -1.8966 0.1469 
-2 10 25 -3.4289 -0.2097 
-2 10 26 -3.1326 -0.2552 
-2 10 27 -0.1934 -0.1012 
-2 10 28 1.0255 0.0870 
-2 10 29 -0.7422 -0.2373 
-2 10 30 0.9182 -0.3164 
-2 10 31 -0.6265 -0.0489 
-2 10 32 -1.4419 -0.4184 
-2 11 -1 -6.5202 0.0287 
-2 11 0 -1.0704 0.0470 
-2 11 1 2.9999 -0.0415 
-2 11 2 -1.5354 -0.3954 
-2 11 3 -7.0820 -0.1900 
-2 11 4 0.2583 0.4360 
-2 11 5 -6.3047 -0.2310 
-2 11 6 -1.3740 -0.5064 
-2 11 7 1.7697 0.1998 
-2 11 8 1.7438 0.3101 
-2 11 9 3.3903 0.1211 
-2 11 10 -0.6241 0.1022 
-2 11 11 -0.9018 -0.1263 
-2 11 12 -1.7967 -0.1350 
-2 11 13 1.0348 0.1215 
-2 11 14 -2.3881 0.5467 
-2 11 15 -1.1671 -0.2990 
-2 11 16 -2.6520 -0.3651 
-2 11 17 -0.8424 -0.0445 
-2 11 18 1.7981 0.1014 
-2 11 19 0.1198 -0.0938 
-2 11 20 0.3306 0.0561 
-2 11 21 -2.0881 -0.0965 
-2 11 22 2.3785 -0.3639 
-2 11 23 2.5265 0.1823 
-2 11 24 1.8956 0.2797 
-2 11 25 2.1887 0.1033 
-2 11 26 -0.7179 0.0440 
-2 11 27 -0.9683 0.0055 
-2 11 28 -2.0476 0.0075 
-2 11 29 1.5895 0.0424 
-2 11 30 -1.5628 0.1429 
-2 11 31 -2.5047 -0.6319 
-2 11 32 0.6791 -0.2345 
-2 12 -1 -4.6082 -0.0807 
-2 12 0 10.1100 0.4838 
-2 12 1 -5.0144 0.1808 
-2 12 2 5.0249 -0.3119 
-2 12 3 6.7235 0.1093 
-2 12 4 1.0251 0.0237 
-2 12 5 -2.1185 -0.0525 
-2 12 6 2.0460 -0.0818 
-2 12 7 -4.1044 -0.4164 
-2 12 8 1.6376 -0.2687 
-2 12 9 0.6826 0.2185 
-2 12 10 3.0332 0.1904 
-2 12 11 1.3878 -0.1671 
-2 12 12 0.4482 -0.2622 
-2 12 13 -0.0225 0.2877 
-2 12 14 2.1607 -0.0612 
-2 12 15 -0.8447 -0.0055 
-2 12 16 -0.8559 0.2747 
-2 12 17 -1.0356 -0.1417 
-2 12 18 0.8309 -0.2920 
-2 12 19 0.3937 0.0016 
-2 12 20 -0.4015 0.3629 
-2 12 21 -2.0072 -0.2804 
-2 12 22 -1.5372 -0.1171 
-2 12 23 -2.6023 -0.0379 
-2 12 24 2.5560 -0.1658 
-2 12 25 1.0106 0.0126 
-2 12 26 1.9983 0.0452 
-2 12 27 -0.5675 0.2498 
-2 12 28 2.8006 -0.0732 
-2 12 29 -0.0356 0.2520 
-2 12 30 -0.6578 0.0447 
-2 12 31 1.7523 0.7704 
-2 13 -1 7.7417 -0.1726 
-2 13 0 -9.1721 0.0846 
-2 13 1 -2.9539 0.0477 
-2 13 2 4.5660 0.2343 
-2 13 3 -3.7317 0.0627 
-2 13 4 3.2861 -0.0738 
-2 13 5 4.6630 0.4274 
-2 13 6 0.8655 0.1297 
-2 13 7 0.5139 -0.0946 
-2 13 8 -0.5880 -0.2287 
-2 13 9 -1.6705 -0.0016 
-2 13 10 1.7700 0.0036 
-2 13 11 1.3683 -0.0850 
-2 13 12 -0.2946 0.1791 
-2 13 13 1.1702 -0.0807 
-2 13 14 0.5594 -0.2681 
-2 13 15 2.5332 0.2144 
-2 13 16 0.1763 0.0756 
-2 13 17 -1.4554 0.0534 
-2 13 18 0.7727 -0.0410 
-2 13 19 1.3916 0.0825 
-2 13 20 2.0350 -0.0616 
-2 13 21 -1.3895 0.0140 
-2 13 22 -1.1902 0.2144 
-2 13 23 -1.2200 -0.1853 
-2 13 24 -1.9143 -0.0312 
-2 13 25 -0.4582 -0.1704 
-2 13 26 0.1126 -0.0159 
-2 13 27 0.8302 -0.0919 
-2 13 28 0.1421 -0.0595 
-2 13 29 -1.8185 -0.1426 
-2 13 30 3.2781 -0.1222 
-2 13 31 -0.5722 -0.0323 
-2 14 -1 0.1504 -0.0461 
-2 14 0 -6.7335 -0.1700 
-2 14 1 6.7463 -0.2024 
-2 14 2 -10.4236 0.0742 
-2 14 3 -0.1431 -0.1926 
-2 14 4 -0.6877 0.0363 
-2 14 5 -3.1002 -0.0379 
-2 14 6 1.2064 0.2180 
-2 14 7 0.2616 0.1760 
-2 14 8 -2.7374 0.0249 
-2 14 9 -0.2202 -0.0553 
-2 14 10 -0.5131 -0.0250 
-2 14 11 1.1537 0.1235 
-2 14 12 -1.3501 0.0307 
-2 14 13 -0.8742 -0.1260 
-2 14 14 -0.7979 0.1726 
-2 14 15 2.4326 -0.0952 
-2 14 16 -0.9011 -0.0951 
-2 14 17 1.8132 0.0030 
-2 14 18 -1.9656 0.1724 
-2 14 19 3.0014 0.0708 
-2 14 20 -0.1816 0.0088 
-2 14 21 2.2543 0.1948 
-2 14 22 1.1059 0.0405 
-2 14 23 -2.3562 0.0689 
-2 14 24 -0.7682 0.1793 
-2 14 25 -1.3504 0.0517 
-2 14 26 -0.4012 -0.0914 
-2 14 27 2.0106 -0.0944 
-2 14 28 0.4872 0.2283 
-2 14 29 1.3499 0.1286 
-2 14 30 -0.0405 0.0659 
-2 15 -1 -0.4505 0.1820 
-2 15 0 5.6866 -0.1165 
-2 15 1 -3.9228 0.0900 
-2 15 2 -1.1141 -0.0332 
-2 15 3 6.1680 -0.0524 
-2 15 4 -4.1839 -0.1355 
-2 15 5 4.3318 -0.0917 
-2 15 6 0.9069 0.0603 
-2 15 7 -2.1561 0.0106 
-2 15 8 0.2243 0.0467 
-2 15 9 -3.1761 -0.0273 
-2 15 10 -0.8469 0.1427 
-2 15 11 1.0578 0.0669 
-2 15 12 0.8559 -0.0347 
-2 15 13 0.5218 -0.0039 
-2 15 14 -3.1055 0.0697 
-2 15 15 -1.1124 0.0824 
-2 15 16 1.2675 -0.2186 
-2 15 17 -0.0387 -0.1409 
-2 15 18 -0.6558 -0.0549 
-2 15 19 0.9254 -0.0739 
-2 15 20 -0.4750 -0.0921 
-2 15 21 5.7449 0.0524 
-2 15 22 -0.6008 0.0371 
-2 15 23 4.2538 0.0790 
-2 15 24 0.2302 0.0214 
-2 15 25 -3.5340 0.1617 
-2 15 26 -2.1423 0.0910 
-2 15 27 -0.5420 -0.0122 
-2 15 28 0.7657 -0.3249 
-2 15 29 1.3222 0.0701 
-2 15 30 -0.2730 0.0436 
-2 16 -1 2.3702 -0.0774 
-2 16 0 0.2586 0.0245 
-2 16 1 -5.4158 0.1993 
-2 16 2 2.9207 0.0075 
-2 16 3 -5.8117 -0.0355 
-2 16 4 1.8612 -0.0664 
-2 16 5 4.3138 -0.0046 
-2 16 6 0.1916 -0.1747 
-2 16 7 5.7243 -0.0142 
-2 16 8 0.7415 -0.0854 
-2 16 9 -2.9298 -0.0778 
-2 16 10 -0.6379 -0.0821 
-2 16 11 -1.5038 0.0678 
-2 16 12 3.6070 0.1144 
-2 16 13 0.8571 -0.0436 
-2 16 14 0.3672 0.1455 
-2 16 15 -0.5970 -0.0441 
-2 16 16 -1.8259 0.0534 
-2 16 17 -1.6430 0.0929 
-2 16 18 0.6543 -0.1777 
-2 16 19 -3.6171 -0.1112 
-2 16 20 -0.4728 -0.2216 
-2 16 21 -1.8857 -0.0731 
-2 16 22 0.5288 -0.1416 
-2 16 23 5.6169 -0.0398 
-2 16 24 1.0082 -0.0617 
-2 16 25 2.8077 -0.0616 
-2 16 26 -1.9047 0.2221 
-2 16 27 -3.0245 0.0957 
-2 16 28 -1.0380 0.2602 
-2 16 29 1.1874 -0.2119 
-2 17 -1 -1.1788 -0.0327 
-2 17 0 1.1200 0.0811 
-2 17 1 0.0434 0.0294 
-2 17 2 -2.0391 0.0573 
-2 17 3 -6.7968 0.0692 
-2 17 4 -0.3677 0.1685 
-2 17 5 -5.6033 -0.1222 
-2 17 6 2.1269 -0.0202 
-2 17 7 1.0594 -0.0328 
-2 17 8 -0.2778 -0.0507 
-2 17 9 1.0015 -0.0508 
-2 17 10 -2.3570 -0.2416 
-2 17 11 -3.2576 -0.0599 
-2 17 12 -1.4410 -0.0563 
-2 17 13 0.6437 0.2126 
-2 17 14 3.6956 -0.0113 
-2 17 15 0.0513 -0.0619 
-2 17 16 0.4035 0.3096 
-2 17 17 -0.8369 0.0272 
-2 17 18 0.6056 0.2181 
-2 17 19 -2.7743 0.1150 
-2 17 20 0.2333 0.1579 
-2 17 21 -5.9525 -0.1678 
-2 17 22 -1.6086 -0.1048 
-2 17 23 -3.1219 0.1555 
-2 17 24 2.4874 -0.0130 
-2 17 25 2.9991 -0.3021 
-2 17 26 0.5952 -0.0434 
-2 17 27 -1.4023 0.0840 
-2 17 28 -0.5879 0.1892 
-2 17 29 0.3240 0.0633 
-2 18 -1 2.3018 0.0874 
-2 18 0 0.6629 0.0143 
-2 18 1 3.2397 -0.0392 
-2 18 2 -0.3201 -0.0176 
-2 18 3 0.4513 0.2126 
-2 18 4 -0.5439 0.1261 
-2 18 5 -1.9629 0.1461 
-2 18 6 0.7259 0.2744 
-2 18 7 -0.9817 -0.0319 
-2 18 8 2.6597 0.1427 
-2 18 9 -0.3226 0.0840 
-2 18 10 0.8591 0.0626 
-2 18 11 -1.1527 -0.1003 
-2 18 12 -3.4340 -0.1595 
-2 18 13 -1.9676 0.1028 
-2 18 14 -2.2213 -0.1423 
-2 18 15 3.2583 0.1625 
-2 18 16 0.4761 -0.1262 
-2 18 17 2.0920 -0.0968 
-2 18 18 -0.3607 0.0004 
-2 18 19 3.2910 0.1588 
-2 18 20 2.3853 0.2285 
-2 18 21 -1.1353 -0.1233 
-2 18 22 -0.3232 0.0075 
-2 18 23 -2.7903 -0.1072 
-2 18 24 -0.7547 -0.0161 
-2 18 25 0.7544 0.0992 
-2 18 26 1.1737 -0.0782 
-2 18 27 -0.2629 -0.6428 
-2 18 28 -0.8877 -0.0636 
-2 19 -1 1.8766 -0.1219 
-2 19 0 -0.4834 -0.0815 
-2 19 1 2.7533 -0.0740 
-2 19 2 -1.7449 -0.0714 
-2 19 3 5.1510 -0.1633 
-2 19 4 -1.9181 -0.3099 
-2 19 5 0.3882 0.1885 
-2 19 6 0.0037 0.0728 
-2 19 7 3.2045 0.0069 
-2 19 8 -1.1839 -0.0433 
-2 19 9 1.2828 -0.0416 
-2 19 10 3.5353 0.1639 
-2 19 11 1.3477 0.0080 
-2 19 12 3.1151 -0.0536 
-2 19 13 -2.2152 -0.2675 
-2 19 14 -1.7305 -0.0128 
-2 19 15 -0.5054 0.1521 
-2 19 16 -1.7367 -0.1314 
-2 19 17 0.7997 -0.0979 
-2 19 18 -2.1826 -0.1343 
-2 19 19 2.6193 0.0006 
-2 19 20 -1.5937 -0.0696 
-2 19 21 3.8753 0.2967 
-2 19 22 0.1606 0.0165 
-2 19 23 0.3551 -0.0588 
-2 19 24 0.0755 0.0006 
-2 19 25 0.3111 0.4509 
-2 19 26 -1.1511 -0.2331 
-2 19 27 2.5972 0.2567 
-2 20 -1 0.3171 -0.1303 
-2 20 0 -0.0373 -0.0138 
-2 20 1 -1.0867 0.1038 
-2 20 2 -0.0856 0.1485 
-2 20 3 1.7347 -0.1727 
-2 20 4 -1.8068 -0.1787 
-2 20 5 2.7467 -0.1083 
-2 20 6 -1.3984 -0.1535 
-2 20 7 -0.8184 0.1680 
-2 20 8 -1.6132 -0.0450 
-2 20 9 1.4776 -0.1798 
-2 20 10 -4.9138 -0.0039 
-2 20 11 1.1046 0.1479 
-2 20 12 4.2105 0.0709 
-2 20 13 -0.0737 -0.0706 
-2 20 14 2.7133 -0.0087 
-2 20 15 -2.4509 -0.1406 
-2 20 16 1.2226 0.0284 
-2 20 17 -1.3001 0.1915 
-2 20 18 -1.0844 0.0386 
-2 20 19 -3.5154 -0.2375 
-2 20 20 0.4557 -0.0462 
-2 20 21 -2.3774 0.1136 
-2 20 22 -1.3551 0.0180 
-2 20 23 0.1620 0.0969 
-2 20 24 1.0110 -0.0888 
-2 20 25 0.2500 0.2119 
-2 20 26 0.5742 0.0528 
-2 21 -1 -0.9182 0.0602 
-2 21 0 0.8904 -0.1203 
-2 21 1 -2.3460 -0.0199 
-2 21 2 -1.9685 0.0791 
-2 21 3 -2.6958 0.2543 
-2 21 4 2.2763 0.1258 
-2 21 5 1.2627 -0.2225 
-2 21 6 0.2338 -0.0963 
-2 21 7 1.0147 0.2110 
-2 21 8 2.2888 0.0659 
-2 21 9 -2.5072 -0.0079 
-2 21 10 -3.6924 -0.0782 
-2 21 11 0.6255 -0.1114 
-2 21 12 -2.3598 0.2389 
-2 21 13 0.7218 0.2170 
-2 21 14 2.6935 -0.0464 
-2 21 15 -0.3927 -0.1577 
-2 21 16 3.7020 -0.0226 
-2 21 17 -0.3090 0.0226 
-2 21 18 0.4861 -0.1153 
-2 21 19 1.4675 -0.0193 
-2 21 20 0.5140 -0.0688 
-2 21 21 -0.7922 -0.3606 
-2 21 22 0.6255 -0.0522 
-2 21 23 -5.4949 -0.3002 
-2 21 24 2.8023 -0.1260 
-2 22 -1 -0.5166 0.1151 
-2 22 0 3.5090 -0.0132 
-2 22 1 -2.1516 -0.1408 
-2 22 2 1.0511 -0.1197 
-2 22 4 -1.8548 0.1204 
-2 22 5 -0.8777 -0.0083 
-2 22 6 2.9965 -0.0647 
-2 22 7 1.1964 -0.1119 
-2 22 8 2.2872 0.0036 
-2 22 9 -0.4429 0.1674 
-2 22 10 1.5213 -0.1090 
-2 22 11 -2.1939 -0.2295 
-2 22 12 -3.1865 -0.0238 
-2 22 13 1.6430 -0.0348 
-2 22 14 -0.7838 0.1757 
-2 22 15 1.0400 0.0716 
-2 22 16 1.9413 0.0055 
-2 22 17 0.6941 -0.1470 
-2 22 18 1.0401 0.0472 
-2 22 19 -1.8339 0.2381 
-2 22 20 0.3758 -0.0120 
-2 22 21 4.7067 -0.0573 
-2 22 22 -3.3428 0.0758 
-2 22 23 -0.9202 -0.0335 
-2 23 -1 0.7911 -0.0709 
-2 23 0 0.7384 0.2829 
-2 23 1 1.6107 -0.0508 
-2 23 2 2.7852 -0.0504 
-2 23 3 -3.5957 -0.1347 
-2 23 4 0.7722 0.1540 
-2 23 5 -1.8644 0.1056 
-2 23 6 -1.4265 0.1086 
-2 23 7 1.3079 -0.1635 
-2 23 8 2.1403 0.0201 
-2 23 9 1.9187 0.1288 
-2 23 10 1.2919 0.0060 
-2 23 11 -1.9139 0.0884 
-2 23 12 -0.5537 -0.1041 
-2 23 13 -0.4415 -0.1671 
-2 23 14 -3.3800 0.1488 
-2 23 15 0.0974 0.1637 
-2 23 16 0.8802 0.1039 
-2 23 17 3.7302 -0.0035 
-2 23 18 -0.6306 0.1963 
-2 23 19 -0.2448 0.1854 
-2 23 20 -1.1953 0.1441 
-2 23 21 -1.1054 0.3264 
-2 23 22 2.8821 -0.0442 
-2 23 23 0.6222 0.0931 
-2 24 -1 1.8161 -0.1029 
-2 24 0 -0.6874 -0.0559 
-2 24 1 0.3820 -0.0410 
-2 24 2 -2.1168 0.0430 
-2 24 3 1.7027 -0.1801 
-2 24 4 0.7145 -0.1195 
-2 24 5 -3.9634 0.0168 
-2 24 6 0.1846 0.0032 
-2 24 7 -1.7107 0.0376 
-2 24 8 -1.5085 0.0739 
-2 24 9 1.1394 -0.0589 
-2 24 10 0.0709 0.0243 
-2 24 11 0.5249 0.2909 
-2 24 12 -0.2378 -0.1518 
-2 24 13 -0.0916 0.0830 
-2 24 14 -2.1782 -0.0851 
-2 24 15 -1.2055 -0.1108 
-2 24 16 -1.3940 0.0329 
-2 24 17 1.1890 0.0798 
-2 24 18 4.3915 -0.0758 
-2 24 19 2.6733 -0.2056 
-2 24 20 -2.8737 0.0879 
-2 24 21 3.7186 0.2277 
-2 24 22 2.4484 -0.1317 
-2 25 -1 2.3472 0.0823 
-2 25 0 -0.7239 -0.1559 
-2 25 1 0.8059 0.2081 
-2 25 2 -0.9599 0.0654 
-2 25 3 1.4655 0.0880 
-2 25 4 -2.5371 0.0119 
-2 25 5 4.2811 -0.0136 
-2 25 6 -0.3527 -0.0998 
-2 25 7 -0.1068 0.0322 
-2 25 8 -0.4881 -0.0784 
-2 25 9 0.1481 -0.0083 
-2 25 10 -0.0882 0.0338 
-2 25 11 -0.7312 -0.1506 
-2 25 12 -0.2527 0.1019 
-2 25 13 -0.5389 0.2592 
-2 25 14 -0.8872 -0.2355 
-2 25 15 -0.4864 -0.1010 
-2 25 16 -3.6728 0.0021 
-2 25 17 -0.7030 -0.0735 
-2 25 18 1.3344 -0.0634 
-2 25 19 -1.3025 -0.0702 
-2 25 20 1.5764 -0.0021 
-2 25 21 -1.5623 -0.3017 
-2 26 -1 0.2093 -0.0069 
-2 26 0 -0.8049 0.0795 
-2 26 1 2.3168 -0.0854 
-2 26 2 -2.1883 -0.0004 
-2 26 3 -0.8493 0.0305 
-2 26 4 1.0804 0.1238 
-2 26 5 1.5486 0.0978 
-2 26 6 0.2247 0.1076 
-2 26 7 3.9171 -0.1170 
-2 26 8 -0.8521 -0.0420 
-2 26 9 3.1210 -0.0074 
-2 26 10 -0.3050 -0.0115 
-2 26 11 3.9758 -0.2569 
-2 26 12 0.9476 -0.0376 
-2 26 13 -1.4458 -0.1107 
-2 26 14 1.1632 0.2341 
-2 26 15 -1.5412 0.1713 
-2 26 16 -1.5230 -0.1646 
-2 26 17 -1.4579 -0.1703 
-2 26 18 -0.7851 0.3404 
-2 26 19 0.1920 0.1928 
-2 26 20 -0.1917 0.1871 
-2 27 -1 -0.1037 0.1771 
-2 27 0 1.8823 -0.0501 
-2 27 1 0.3466 0.0248 
-2 27 2 -3.7128 -0.1995 
-2 27 3 -2.2330 -0.1888 
-2 27 4 -3.1344 -0.0732 
-2 27 5 -1.9460 -0.1340 
-2 27 6 2.3923 0.0770 
-2 27 7 -3.1652 -0.1021 
-2 27 8 0.9736 -0.1489 
-2 27 9 -4.4550 0.0330 
-2 27 10 -0.9420 0.1381 
-2 27 11 -0.0389 -0.0104 
-2 27 12 -0.0468 -0.1845 
-2 27 13 3.7335 -0.2523 
-2 27 14 0.2595 0.0269 
-2 27 15 -1.1877 0.1530 
-2 27 16 0.8245 -0.2778 
-2 27 17 -0.4586 0.1237 
-2 27 18 0.8564 -0.3658 
-2 28 -1 -0.1739 0.0262 
-2 28 0 6.4418 0.0467 
-2 28 1 1.5476 0.1355 
-2 28 2 2.2563 -0.0012 
-2 28 3 -2.1097 0.3409 
-2 28 4 -3.7232 -0.0957 
-2 28 5 -0.3306 0.1142 
-2 28 6 -0.0056 0.1470 
-2 28 7 2.6800 0.0462 
-2 28 8 3.0152 0.0202 
-2 28 9 -1.6275 -0.2086 
-2 28 10 -0.2637 -0.1141 
-2 28 11 -6.3055 0.3873 
-2 28 12 1.9580 0.0778 
-2 28 13 -1.5439 -0.2170 
-2 28 14 -0.0891 0.0466 
-2 28 15 0.5934 -0.0782 
-2 28 16 -1.0152 0.2368 
-2 28 17 -0.7234 -0.0622 
-2 29 -1 -0.7690 -0.1340 
-2 29 0 -0.1830 -0.0900 
-2 29 1 0.7048 -0.1498 
-2 29 2 8.1622 0.1495 
-2 29 3 -0.6390 -0.1013 
-2 29 4 0.1091 0.0306 
-2 29 5 -2.8914 0.1947 
-2 29 6 0.3322 0.0336 
-2 29 7 2.6484 0.2610 
-2 29 8 2.8858 0.1107 
-2 29 9 5.2031 -0.1652 
-2 29 10 1.7087 -0.0491 
-2 29 11 2.7151 -0.1093 
-2 29 12 -1.0646 -0.2102 
-2 29 13 0.2397 0.0263 
-2 29 14 2.9004 -0.2971 
-2 29 15 -1.0784 -0.0955 
-2 30 -1 -2.6258 -0.1256 
-2 30 0 -4.5753 0.1971 
-2 30 1 1.1831 0.1900 
-2 30 2 -0.3097 -0.2153 
-2 30 3 -0.5269 -0.1226 
-2 30 4 1.7343 0.1318 
-2 30 5 -4.7235 0.1378 
-2 30 6 -2.0454 -0.0613 
-2 30 7 -3.6494 0.0148 
-2 30 8 0.1796 0.0003 
-2 30 9 -0.5695 0.1728 
-2 30 10 1.2026 0.0236 
-2 30 11 -0.9627 0.0767 
-2 30 12 -0.7329 0.2702 
-2 31 -1 0.5050 -0.2243 
-2 31 0 2.1046 0.0642 
-2 31 1 -0.2506 -0.3581 
-2 31 2 -2.9349 -0.1658 
-2 31 3 4.7713 -0.1394 
-2 31 4 -1.4534 -0.0666 
-2 31 5 0.6731 0.2545 
-2 31 6 -3.0270 0.5499 
-2 31 7 -0.9593 0.5704 
-2 31 8 -0.9555 0.1108 
-2 31 9 0.0399 -0.0250 
-2 32 -1 1.3837 0.0337 
-2 32 0 -1.4300 -0.3991 
-2 32 1 1.2679 -0.1436 
-2 32 2 1.5206 -0.0868 
-2 32 3 0.5911 -0.8067 
-2 32 4 0.3582 -0.9178 
-1 0 1 168.9697 4.9510 
-1 0 3 12.3920 0.2445 
-1 0 5 -51.9899 -0.4864 
-1 0 7 -8.4846 0.0555 
-1 0 9 -5.3994 -1.5744 
-1 0 11 -1.4890 1.0961 
-1 0 13 -0.3749 0.0544 
-1 0 15 -1.6687 0.1331 
-1 0 17 1.3154 1.1353 
-1 0 19 -3.0799 -0.7470 
-1 0 21 2.1308 0.1402 
-1 0 23 0.0607 -0.3225 
-1 0 25 0.4016 -0.6741 
-1 0 27 -0.7182 0.6899 
-1 0 29 2.4889 -0.2258 
-1 0 31 1.9792 0.4860 
-1 1 0 24.5143 0.6511 
-1 1 1 30.2540 1.0503 
-1 1 2 -1.7381 -0.5938 
-1 1 3 112.3176 2.8732 
-1 1 4 -51.3788 0.8684 
-1 1 5 32.4541 0.4601 
-1 1 6 -1.2099 -1.3485 
-1 1 7 -3.5451 0.8728 
-1 1 8 13.3164 0.2982 
-1 1 9 2.0742 -0.3216 
-1 1 10 1.8164 0.1082 
-1 1 11 -0.8572 -1.5300 
-1 1 12 2.5498 -0.9525 
-1 1 13 4.3992 0.8830 
-1 1 14 -0.1276 1.2580 
-1 1 15 -0.8954 -1.2494 
-1 1 16 3.2793 -0.5173 
-1 1 17 2.3247 0.7522 
-1 1 18 -0.7911 0.1906 
-1 1 19 -1.5631 0.6554 
-1 1 20 -1.3310 0.4813 
-1 1 21 -0.7626 -0.4025 
-1 1 22 1.8279 -0.9384 
-1 1 23 -0.1776 0.7887 
-1 1 24 0.3482 0.5978 
-1 1 25 -0.1273 -0.8712 
-1 1 26 -2.0996 -0.4140 
-1 1 27 0.0179 -0.1965 
-1 1 28 -0.6977 -0.1936 
-1 1 29 -2.0914 0.0086 
-1 1 30 0.5947 0.2896 
-1 1 31 2.5965 -0.3036 
-1 1 32 -0.4296 -0.6139 
-1 1 33 0.1754 1.0874 
-1 2 0 -28.9296 0.1911 
-1 2 1 -94.2202 -3.6869 
-1 2 2 59.0393 0.1014 
-1 2 3 -32.8165 -0.3466 
-1 2 4 -9.9016 0.6746 
-1 2 5 28.1762 0.2153 
-1 2 6 -58.4497 0.8046 
-1 2 7 26.0738 -0.3860 
-1 2 8 -12.7902 -0.9338 
-1 2 9 -0.7046 1.6883 
-1 2 10 -2.7957 0.8219 
-1 2 11 -0.9399 -1.1168 
-1 2 12 -0.8428 -0.7984 
-1 2 13 -1.5707 0.0847 
-1 2 14 -0.9009 -0.2410 
-1 2 15 2.2759 0.1026 
-1 2 16 0.0595 0.8102 
-1 2 17 0.1422 -1.3372 
-1 2 18 4.8065 -0.5629 
-1 2 19 0.8650 1.0277 
-1 2 20 -0.2737 1.1042 
-1 2 21 -1.8192 -0.3591 
-1 2 22 1.0158 -0.1673 
-1 2 23 0.1808 0.3237 
-1 2 24 4.0539 -0.3269 
-1 2 25 -3.1479 0.6345 
-1 2 26 2.6949 0.3163 
-1 2 27 0.7960 -0.7292 
-1 2 28 -0.9849 -0.6098 
-1 2 29 -0.6029 0.2791 
-1 2 30 0.3949 0.2640 
-1 2 31 -1.1803 -0.7196 
-1 2 32 1.1624 0.2344 
-1 2 33 1.4792 -0.0323 
-1 3 0 -13.5672 -1.4338 
-1 3 1 2.5080 -0.0294 
-1 3 2 12.5268 0.1859 
-1 3 3 -26.8282 -1.3300 
-1 3 4 68.3613 -0.7623 
-1 3 5 -50.2327 0.2369 
-1 3 6 14.8399 1.5821 
-1 3 7 3.3235 -0.8227 
-1 3 8 -18.2601 0.2334 
-1 3 9 11.8089 -0.1324 
-1 3 10 -8.4457 0.3412 
-1 3 11 -0.5174 1.2725 
-1 3 12 -5.5808 0.5495 
-1 3 13 -2.5668 -1.3184 
-1 3 14 -1.6040 -1.0910 
-1 3 15 -1.3893 1.4138 
-1 3 16 -4.2197 -0.0172 
-1 3 17 0.2092 -0.7908 
-1 3 18 -1.2534 -0.3172 
-1 3 19 1.8499 -0.4288 
-1 3 20 0.3591 -0.2792 
-1 3 21 -0.6228 0.7149 
-1 3 22 -0.6801 0.9948 
-1 3 23 1.6286 -0.9631 
-1 3 24 -0.2826 -0.2104 
-1 3 25 0.4204 0.9181 
-1 3 26 2.2917 0.3984 
-1 3 27 -2.4711 -0.0480 
-1 3 28 2.7654 -0.0574 
-1 3 29 1.5795 -0.0836 
-1 3 30 -0.8358 -0.4788 
-1 3 31 -0.8702 0.4946 
-1 3 32 1.2849 -0.1698 
-1 3 33 0.0486 -0.9855 
-1 4 0 4.5545 -0.0917 
-1 4 2 -9.8013 0.0190 
-1 4 3 30.6461 -0.3720 
-1 4 4 7.2266 -1.0065 
-1 4 5 -0.4176 -0.2349 
-1 4 6 33.6116 -0.9788 
-1 4 7 -29.0558 1.1840 
-1 4 8 27.3800 0.3550 
-1 4 9 2.6757 -1.4533 
-1 4 10 4.7111 -0.3024 
-1 4 11 4.0855 1.2486 
-1 4 12 2.7351 0.7686 
-1 4 13 2.1417 -0.5140 
-1 4 14 -1.3700 0.3078 
-1 4 15 -0.6107 -0.4024 
-1 4 16 0.6812 -0.5262 
-1 4 17 -0.0449 1.1967 
-1 4 18 -3.4757 0.0630 
-1 4 19 0.9564 -1.1118 
-1 4 20 -2.5177 -0.7961 
-1 4 21 1.0420 0.6291 
-1 4 22 -3.6338 -0.0855 
-1 4 23 -0.3883 -0.0596 
-1 4 24 -0.9052 0.2587 
-1 4 25 2.0619 -0.5697 
-1 4 26 -3.9603 -0.0272 
-1 4 27 -0.3138 0.7734 
-1 4 28 0.1763 0.5419 
-1 4 29 -0.4053 -0.7147 
-1 4 30 -0.4610 -0.0348 
-1 4 31 0.8816 0.4033 
-1 4 32 -1.5207 -0.4414 
-1 4 33 -1.2198 0.0309 
-1 5 0 -33.4760 0.9653 
-1 5 1 -1.1625 -0.0001 
-1 5 2 -21.0569 -0.0459 
-1 5 3 -9.1506 0.7035 
-1 5 4 -7.3697 0.8894 
-1 5 5 14.1130 -1.4552 
-1 5 6 -20.2540 -1.1474 
-1 5 7 -4.4309 0.6501 
-1 5 8 4.0444 -0.2121 
-1 5 9 -11.4574 0.2474 
-1 5 10 10.2582 -0.6782 
-1 5 11 -3.5108 -0.5421 
-1 5 12 6.1453 -0.1498 
-1 5 13 1.2641 1.5415 
-1 5 14 2.6827 0.5199 
-1 5 15 -0.7871 -1.2975 
-1 5 16 1.9988 0.3799 
-1 5 17 0.1961 0.5139 
-1 5 18 1.0798 0.1995 
-1 5 19 0.1310 0.2105 
-1 5 20 0.7738 0.1003 
-1 5 21 1.3356 -0.8957 
-1 5 22 -2.0716 -0.5251 
-1 5 23 0.1520 0.9267 
-1 5 24 -0.5860 -0.1783 
-1 5 25 0.4557 -0.7088 
-1 5 26 0.0496 -0.3236 
-1 5 27 -0.3576 0.3778 
-1 5 28 -2.4602 -0.0804 
-1 5 29 -1.0147 0.1176 
-1 5 30 1.3965 0.3191 
-1 5 31 -0.1878 -0.5282 
-1 5 32 -1.1364 0.3273 
-1 5 33 -0.1348 0.0211 
-1 6 0 13.8271 0.3842 
-1 6 1 9.7380 -0.4277 
-1 6 2 -19.0471 -0.1842 
-1 6 3 15.0091 1.3319 
-1 6 4 -3.7866 0.8097 
-1 6 5 6.3051 0.2395 
-1 6 6 -3.7090 0.5249 
-1 6 7 5.3357 -1.3557 
-1 6 8 -17.0438 0.2304 
-1 6 9 3.5969 0.9110 
-1 6 10 -3.7863 -0.1063 
-1 6 11 -4.9592 -1.2298 
-1 6 12 -0.2139 -0.3401 
-1 6 13 -1.6064 0.5983 
-1 6 14 2.6276 -0.4058 
-1 6 15 -0.6762 0.4929 
-1 6 16 0.7875 0.1685 
-1 6 17 -1.3628 -0.8582 
-1 6 18 1.9794 0.0981 
-1 6 19 -1.3747 0.8964 
-1 6 20 0.6473 0.4654 
-1 6 21 1.3320 -0.5519 
-1 6 22 0.5675 0.1358 
-1 6 23 -0.0186 -0.1756 
-1 6 24 -1.0371 0.0399 
-1 6 25 2.1654 0.3743 
-1 6 26 2.0591 0.0018 
-1 6 27 1.0583 -0.5444 
-1 6 28 0.1039 -0.1962 
-1 6 29 0.9005 0.8208 
-1 6 30 1.1083 -0.0970 
-1 6 31 -0.1163 -0.0064 
-1 6 32 2.7160 0.2489 
-1 6 33 0.6349 -0.0821 
-1 7 0 5.7364 -0.5721 
-1 7 1 -9.4418 -0.3050 
-1 7 2 7.2980 0.0077 
-1 7 3 -1.5101 -0.6107 
-1 7 4 -1.0894 -0.5209 
-1 7 5 13.9849 1.6096 
-1 7 6 3.3961 0.3766 
-1 7 7 3.9178 -0.5639 
-1 7 8 -1.9607 0.1214 
-1 7 9 8.0753 -0.1245 
-1 7 10 -4.8280 0.5087 
-1 7 11 7.5927 0.1862 
-1 7 12 -4.5327 0.0168 
-1 7 13 -0.4194 -1.2629 
-1 7 14 0.5860 -0.0792 
-1 7 15 0.9821 0.9050 
-1 7 16 -0.7644 -0.2871 
-1 7 17 -0.2417 -0.3740 
-1 7 18 2.3949 -0.2261 
-1 7 19 -1.9237 -0.0046 
-1 7 20 2.6942 0.0207 
-1 7 21 -1.3531 0.8512 
-1 7 22 2.0634 0.1232 
-1 7 23 -0.7473 -0.6226 
-1 7 24 -1.2919 0.1718 
-1 7 25 -0.7332 0.4287 
-1 7 26 -0.4756 0.1029 
-1 7 27 0.2253 -0.4015 
-1 7 28 0.1225 0.2070 
-1 7 29 1.0937 -0.2370 
-1 7 30 -0.1693 0.0226 
-1 7 31 2.0748 0.3943 
-1 7 32 1.6629 0.2959 
-1 7 33 0.8794 0.2025 
-1 8 0 2.5087 -0.1794 
-1 8 1 -3.4168 0.3851 
-1 8 2 -8.1240 0.0772 
-1 8 3 -13.7335 -1.0470 
-1 8 4 1.8526 -0.2183 
-1 8 5 -6.0886 -0.1034 
-1 8 6 0.3052 -0.0133 
-1 8 7 -4.3856 1.0817 
-1 8 8 -1.1388 -0.3311 
-1 8 9 -5.5071 -0.4881 
-1 8 10 0.8062 0.2548 
-1 8 11 3.7247 1.0318 
-1 8 12 -2.5878 -0.0114 
-1 8 13 2.7135 -0.3491 
-1 8 14 -0.6672 0.2602 
-1 8 15 0.7896 -0.3755 
-1 8 16 -0.8595 -0.0472 
-1 8 17 -0.2784 0.5758 
-1 8 18 -2.2206 -0.0745 
-1 8 19 -0.1241 -0.8660 
-1 8 20 0.9801 -0.2385 
-1 8 21 -0.7669 0.4540 
-1 8 22 3.6068 -0.0815 
-1 8 23 -0.6090 0.1586 
-1 8 24 2.7542 -0.1305 
-1 8 25 -0.6054 -0.2307 
-1 8 26 0.6779 -0.0020 
-1 8 27 -0.8891 0.5181 
-1 8 28 -1.7033 -0.0687 
-1 8 29 -2.4132 -0.5840 
-1 8 30 -1.2300 -0.1404 
-1 8 31 1.9231 0.0265 
-1 8 32 -1.4221 0.2481 
-1 9 0 13.2505 0.3118 
-1 9 1 -2.1672 -0.0646 
-1 9 2 6.8468 -0.0729 
-1 9 3 -2.0571 0.5202 
-1 9 4 1.8684 0.0134 
-1 9 5 1.3654 -1.1158 
-1 9 6 4.7567 -0.0383 
-1 9 7 -2.3609 0.3091 
-1 9 8 -0.9346 0.0852 
-1 9 9 -6.4402 -0.0611 
-1 9 10 -1.0287 -0.1855 
-1 9 11 -3.9951 -0.1845 
-1 9 12 0.7205 0.1591 
-1 9 13 0.0049 1.0007 
-1 9 14 -1.8835 -0.1990 
-1 9 15 1.9423 -0.6317 
-1 9 16 2.0565 0.1863 
-1 9 17 0.5020 0.4221 
-1 9 18 -3.2397 0.0796 
-1 9 19 -1.2424 -0.0771 
-1 9 20 -2.8410 -0.0161 
-1 9 21 -0.4436 -0.6229 
-1 9 22 -2.1839 0.2131 
-1 9 23 0.3799 0.3546 
-1 9 24 -0.9498 -0.1216 
-1 9 25 0.3011 -0.3756 
-1 9 26 3.1090 0.1009 
-1 9 27 2.2244 0.2420 
-1 9 28 0.7274 0.0793 
-1 9 29 -1.6407 0.3150 
-1 9 30 -0.3221 0.0233 
-1 9 31 -1.2075 -0.1799 
-1 9 32 -0.4068 -0.2902 
-1 10 0 -3.8854 0.2177 
-1 10 1 4.4408 -0.3860 
-1 10 2 0.2055 -0.0504 
-1 10 3 -4.1592 0.4520 
-1 10 4 3.3235 0.1361 
-1 10 5 1.9567 0.0426 
-1 10 6 7.3270 -0.4563 
-1 10 7 4.7192 -0.5886 
-1 10 8 4.3620 0.2080 
-1 10 9 -1.3975 0.2832 
-1 10 10 -0.6199 -0.3328 
-1 10 11 -1.8836 -0.7605 
-1 10 12 0.8368 0.3817 
-1 10 13 -1.8415 0.0745 
-1 10 14 -1.4496 -0.0006 
-1 10 15 -0.2411 0.2837 
-1 10 16 1.8130 0.0067 
-1 10 17 2.7517 -0.3248 
-1 10 18 1.0258 0.1477 
-1 10 19 0.1434 0.6435 
-1 10 20 -1.9867 -0.0679 
-1 10 21 -0.4930 -0.2568 
-1 10 22 0.4644 0.0427 
-1 10 23 -1.1503 -0.0446 
-1 10 24 -3.7213 0.1834 
-1 10 25 -1.8804 0.1176 
-1 10 26 -2.8076 -0.2618 
-1 10 27 -0.1473 -0.5121 
-1 10 28 0.8869 -0.0162 
-1 10 29 0.0591 0.4875 
-1 10 30 -1.4230 -0.2621 
-1 10 31 -1.2413 -0.3416 
-1 10 32 2.3039 0.0634 
-1 11 0 0.7558 0.0688 
-1 11 1 -0.4122 0.2093 
-1 11 2 -3.8419 -0.0318 
-1 11 3 -1.3530 -0.3040 
-1 11 4 -9.7550 0.2739 
-1 11 5 -3.8486 0.6698 
-1 11 6 -0.3157 0.0450 
-1 11 7 1.3389 -0.2087 
-1 11 8 3.2238 -0.0487 
-1 11 9 0.7932 0.1603 
-1 11 10 1.7727 -0.0220 
-1 11 11 -2.3510 0.2037 
-1 11 12 -0.1549 -0.3727 
-1 11 13 0.0739 -0.5565 
-1 11 14 -0.4610 0.2755 
-1 11 15 -2.8241 0.2170 
-1 11 16 -0.6033 -0.0975 
-1 11 17 0.7282 -0.3276 
-1 11 18 3.1232 0.0505 
-1 11 19 0.0949 0.0783 
-1 11 20 -1.1215 0.0293 
-1 11 21 0.5150 0.2362 
-1 11 22 1.0997 -0.3312 
-1 11 23 1.4711 -0.1337 
-1 11 24 2.7461 0.0364 
-1 11 25 -0.1994 0.1867 
-1 11 26 -1.6091 -0.0958 
-1 11 27 -0.3905 -0.0987 
-1 11 28 -0.1909 -0.0949 
-1 11 29 -3.0160 -0.2406 
-1 11 30 -1.5606 -0.2085 
-1 11 31 -0.8101 0.4534 
-1 11 32 -1.6522 -0.8904 
-1 12 0 -5.9885 -0.1108 
-1 12 1 9.4154 0.3432 
-1 12 2 6.0862 0.0034 
-1 12 3 2.3925 -0.4129 
-1 12 4 -0.6807 -0.1123 
-1 12 5 1.2540 0.0296 
-1 12 6 -6.2962 0.2686 
-1 12 7 -0.0816 0.2002 
-1 12 8 -1.4437 -0.1581 
-1 12 9 2.8862 -0.1500 
-1 12 10 1.3400 0.3497 
-1 12 11 -0.3831 0.2152 
-1 12 12 0.2262 -0.2619 
-1 12 13 0.9791 0.0004 
-1 12 14 -0.0930 -0.1566 
-1 12 15 0.3879 -0.1452 
-1 12 16 -3.0346 -0.0446 
-1 12 17 -0.1502 0.1451 
-1 12 18 0.9602 -0.0751 
-1 12 19 0.7358 -0.3521 
-1 12 20 -0.1921 0.1546 
-1 12 21 -1.3205 0.1984 
-1 12 22 -0.7900 0.1148 
-1 12 23 0.1015 -0.0113 
-1 12 24 1.4872 -0.1122 
-1 12 25 0.5280 -0.0569 
-1 12 26 2.3974 0.2398 
-1 12 27 3.4293 0.0879 
-1 12 28 0.9833 -0.0599 
-1 12 29 1.4949 -0.2213 
-1 12 30 0.3933 0.7272 
-1 12 31 -3.7485 -0.0807 
-1 13 0 -2.1190 -0.0533 
-1 13 1 2.6953 0.0009 
-1 13 2 -3.7859 0.0350 
-1 13 3 7.8102 0.1860 
-1 13 4 5.2218 -0.2294 
-1 13 5 2.2463 -0.3855 
-1 13 6 2.3051 0.0642 
-1 13 7 1.7433 0.0920 
-1 13 8 -2.5792 -0.1085 
-1 13 9 1.3135 0.0687 
-1 13 10 -0.2659 -0.0076 
-1 13 11 1.3898 0.0133 
-1 13 12 0.0756 0.2363 
-1 13 13 0.2809 0.2317 
-1 13 14 2.1057 -0.0992 
-1 13 15 1.9107 -0.1968 
-1 13 16 -0.3511 0.0663 
-1 13 17 0.3809 0.2314 
-1 13 18 -0.9124 -0.0778 
-1 13 19 1.2598 -0.0397 
-1 13 20 -0.9515 -0.0643 
-1 13 21 0.3888 -0.0555 
-1 13 22 -1.3806 0.0987 
-1 13 23 0.5232 0.1069 
-1 13 24 -1.0591 0.1227 
-1 13 25 -2.3485 0.0379 
-1 13 26 -0.1634 -0.0090 
-1 13 27 -0.7490 -0.1023 
-1 13 28 2.4859 0.1686 
-1 13 29 2.9563 -0.1798 
-1 13 30 -1.8386 -0.2951 
-1 13 31 0.4761 -0.3833 
-1 14 0 3.1405 -0.0180 
-1 14 1 -15.2479 -0.0578 
-1 14 2 1.2252 0.0874 
-1 14 3 -2.1793 0.2137 
-1 14 4 -4.6337 0.0112 
-1 14 5 1.9411 0.0317 
-1 14 6 1.3331 -0.1339 
-1 14 7 0.2576 -0.1627 
-1 14 8 1.6362 0.1044 
-1 14 9 0.1216 -0.0049 
-1 14 10 -0.1782 -0.1682 
-1 14 11 0.0991 0.0578 
-1 14 12 -1.1567 0.0637 
-1 14 13 -1.7474 0.1594 
-1 14 14 -0.4853 -0.0081 
-1 14 15 1.7555 0.1038 
-1 14 16 1.5534 -0.0794 
-1 14 17 0.6264 -0.1207 
-1 14 18 1.9033 0.1657 
-1 14 19 0.7445 0.1407 
-1 14 20 0.1170 -0.0582 
-1 14 21 -0.8035 -0.0965 
-1 14 22 -1.2399 -0.1055 
-1 14 23 2.1676 -0.0191 
-1 14 24 -0.6374 0.0065 
-1 14 25 1.1570 0.0693 
-1 14 26 -2.1523 -0.0076 
-1 14 27 0.0127 0.1651 
-1 14 28 0.4215 0.0663 
-1 14 29 0.9389 0.0849 
-1 14 30 1.6228 0.0887 
-1 15 0 -3.2234 0.0546 
-1 15 1 -1.0401 0.0439 
-1 15 2 3.2429 -0.0795 
-1 15 3 -8.2724 0.0393 
-1 15 4 4.3610 0.2148 
-1 15 5 -2.5608 0.0984 
-1 15 6 -3.9958 -0.0458 
-1 15 7 -0.0929 0.0112 
-1 15 8 -1.4591 0.0508 
-1 15 9 0.1296 -0.2073 
-1 15 10 2.3131 0.0431 
-1 15 11 1.1409 -0.1199 
-1 15 12 0.2675 -0.0240 
-1 15 13 -2.8177 -0.1237 
-1 15 14 -0.4833 0.0408 
-1 15 15 -2.1349 0.0874 
-1 15 16 -1.4119 -0.1384 
-1 15 17 1.3633 -0.0462 
-1 15 18 0.9075 -0.0545 
-1 15 19 0.9021 0.0325 
-1 15 20 3.3436 0.1084 
-1 15 21 -0.6614 -0.0104 
-1 15 22 0.3082 0.0481 
-1 15 23 -0.6026 -0.0461 
-1 15 24 0.9175 -0.1277 
-1 15 25 0.8437 0.0456 
-1 15 26 0.1350 0.1055 
-1 15 27 -0.4954 0.0122 
-1 15 28 -0.4115 -0.1607 
-1 15 29 3.7602 0.2317 
-1 15 30 0.5431 0.2914 
-1 16 0 -1.2197 -0.0133 
-1 16 1 5.3160 -0.1503 
-1 16 2 -5.5945 0.0342 
-1 16 3 2.6403 -0.0230 
-1 16 4 4.1595 -0.0615 
-1 16 5 -1.2093 0.0794 
-1 16 6 4.9559 0.1058 
-1 16 7 -3.2184 0.0659 
-1 16 8 -3.6145 -0.0076 
-1 16 9 -0.4379 0.1519 
-1 16 10 0.0793 0.0101 
-1 16 11 1.2355 -0.0314 
-1 16 12 2.3883 0.1071 
-1 16 13 1.5455 -0.0913 
-1 16 14 0.3508 0.0166 
-1 16 15 -3.0380 -0.0416 
-1 16 16 1.0283 -0.0061 
-1 16 17 -2.3258 -0.0958 
-1 16 18 -2.5895 -0.0587 
-1 16 19 0.7776 0.0653 
-1 16 20 0.5548 -0.0956 
-1 16 21 -0.9359 -0.0394 
-1 16 22 1.2508 0.0726 
-1 16 23 -0.6663 0.0048 
-1 16 24 0.2430 -0.1737 
-1 16 25 -0.6100 -0.1119 
-1 16 26 -0.6511 -0.0456 
-1 16 27 -2.0092 0.1484 
-1 16 28 1.3130 -0.1905 
-1 16 29 -1.7983 0.0405 
-1 17 0 -1.7459 -0.0906 
-1 17 1 -0.3182 0.0367 
-1 17 2 -5.0314 0.0209 
-1 17 3 0.8553 -0.2401 
-1 17 4 -5.0040 -0.0238 
-1 17 5 3.5439 0.0172 
-1 17 6 2.6093 -0.0968 
-1 17 7 -0.3993 -0.1425 
-1 17 8 0.0842 0.0172 
-1 17 9 -4.1854 0.0531 
-1 17 10 -3.4070 -0.0014 
-1 17 11 -0.8794 0.1021 
-1 17 12 0.4151 -0.0609 
-1 17 13 -0.2385 0.1374 
-1 17 14 0.3484 0.1835 
-1 17 15 2.1707 -0.0245 
-1 17 16 -0.0546 -0.0723 
-1 17 17 -1.4834 0.0737 
-1 17 18 0.3932 0.0339 
-1 17 19 -0.3445 -0.0325 
-1 17 20 -3.4178 0.0780 
-1 17 21 -0.4175 0.1231 
-1 17 22 -0.1753 0.0432 
-1 17 23 -0.4621 0.0249 
-1 17 24 -0.2661 0.1616 
-1 17 25 0.2725 0.0780 
-1 17 26 -1.8592 -0.2654 
-1 17 27 -0.0217 -0.2035 
-1 17 28 -1.1064 0.3021 
-1 17 29 -1.3101 0.0181 
-1 18 0 2.9778 0.0902 
-1 18 1 -2.1810 0.1950 
-1 18 2 -0.5861 -0.0838 
-1 18 3 0.6008 0.0724 
-1 18 4 -4.3558 0.0157 
-1 18 5 0.9640 -0.0256 
-1 18 6 -0.0581 0.0179 
-1 18 7 4.9806 -0.0003 
-1 18 8 -0.4606 -0.1757 
-1 18 9 0.0718 -0.1140 
-1 18 10 -1.0019 0.1345 
-1 18 11 -0.9815 -0.1015 
-1 18 12 -2.0479 -0.0382 
-1 18 13 -2.6517 0.0582 
-1 18 14 0.8566 0.0721 
-1 18 15 -1.9541 -0.0385 
-1 18 16 0.5170 0.1379 
-1 18 17 1.0997 -0.0053 
-1 18 18 2.1552 -0.2233 
-1 18 19 -0.0686 -0.0158 
-1 18 20 0.4603 0.0701 
-1 18 21 0.6172 0.0354 
-1 18 22 -1.4235 -0.1367 
-1 18 23 -0.7020 -0.0843 
-1 18 24 2.9142 0.2973 
-1 18 25 0.7823 0.0475 
-1 18 26 -0.2658 -0.0489 
-1 18 27 0.3092 0.3688 
-1 18 28 -1.4360 -0.3574 
-1 19 0 3.8876 0.0263 
-1 19 1 -2.7681 -0.0635 
-1 19 2 5.7571 0.1230 
-1 19 3 -2.6301 0.2006 
-1 19 4 1.9425 -0.0959 
-1 19 5 -0.1187 0.0334 
-1 19 6 1.3093 0.1083 
-1 19 7 0.6340 0.1580 
-1 19 8 2.5175 -0.1066 
-1 19 9 3.0677 -0.0440 
-1 19 10 -0.8745 -0.1238 
-1 19 11 4.5375 0.0189 
-1 19 12 0.6298 0.0525 
-1 19 13 1.9075 -0.1093 
-1 19 14 -1.0726 -0.0737 
-1 19 15 -1.7395 0.0102 
-1 19 16 0.4048 0.1942 
-1 19 17 -2.1514 -0.1634 
-1 19 18 0.3908 -0.0138 
-1 19 19 -0.3901 -0.0887 
-1 19 20 3.8961 -0.2096 
-1 19 21 -1.8037 0.0396 
-1 19 22 -1.5956 0.0447 
-1 19 23 -0.4103 -0.0530 
-1 19 24 1.4631 -0.3544 
-1 19 25 -1.6306 -0.3376 
-1 19 26 2.5475 0.7292 
-1 19 27 -1.3067 -0.0792 
-1 20 1 1.5219 -0.2042 
-1 20 2 -0.9823 0.1209 
-1 20 3 -2.1480 0.0222 
-1 20 4 3.3552 0.0673 
-1 20 5 -2.1436 -0.0541 
-1 20 6 0.6596 0.0045 
-1 20 7 -1.3077 0.0492 
-1 20 8 2.6075 0.1246 
-1 20 9 -5.0640 0.0694 
-1 20 10 0.4052 -0.2160 
-1 20 11 1.1422 0.0372 
-1 20 12 -1.2144 0.0082 
-1 20 13 4.6200 0.0123 
-1 20 14 -0.8156 -0.0999 
-1 20 15 3.1541 0.0987 
-1 20 16 -1.2173 0.0016 
-1 20 17 -0.4823 0.0379 
-1 20 18 -3.7366 0.4052 
-1 20 19 2.0060 -0.0745 
-1 20 20 -1.3915 -0.0751 
-1 20 21 -0.7824 -0.0015 
-1 20 22 -0.0583 0.2475 
-1 20 23 -1.2716 0.2237 
-1 20 24 -1.5244 -0.0935 
-1 20 25 0.5822 0.0241 
-1 20 26 -0.4636 -0.1489 
-1 21 0 -0.5374 -0.0437 
-1 21 1 -0.5683 -0.0423 
-1 21 2 -3.2817 -0.1617 
-1 21 3 -0.1036 -0.1403 
-1 21 4 -2.4189 0.1682 
-1 21 5 1.3077 0.0165 
-1 21 6 -0.2663 -0.1108 
-1 21 7 1.6959 -0.1726 
-1 21 8 -1.1026 0.2320 
-1 21 9 -1.5259 0.0335 
-1 21 10 0.7999 0.0445 
-1 21 11 -5.4005 0.0510 
-1 21 12 0.7883 -0.1527 
-1 21 13 0.3051 0.1309 
-1 21 14 -1.4611 0.0672 
-1 21 15 3.5680 -0.0146 
-1 21 16 0.8483 -0.3721 
-1 21 17 1.5762 0.1143 
-1 21 18 0.2403 0.0553 
-1 21 19 1.2283 0.0115 
-1 21 20 -2.2593 0.0862 
-1 21 21 5.0605 -0.2322 
-1 21 22 -3.0419 -0.1957 
-1 21 23 0.1817 0.0728 
-1 21 24 -0.0220 0.0798 
-1 21 25 3.5464 -0.2776 
-1 21 26 0.9728 -0.7231 
-1 22 0 -0.0962 0.2140 
-1 22 1 0.4683 0.0686 
-1 22 2 -1.4736 -0.1959 
-1 22 3 -1.8362 -0.0919 
-1 22 4 -0.8379 0.0642 
-1 22 5 -0.0046 -0.0141 
-1 22 6 -0.2944 -0.0208 
-1 22 7 3.5973 -0.0748 
-1 22 8 -0.6262 -0.2083 
-1 22 9 2.5158 -0.0535 
-1 22 10 -2.3940 0.2399 
-1 22 11 -0.6714 -0.1779 
-1 22 12 1.9571 -0.0901 
-1 22 13 -2.5382 0.0803 
-1 22 14 1.1156 0.0054 
-1 22 15 -0.1134 0.0072 
-1 22 16 1.3715 -0.0480 
-1 22 17 2.2338 -0.0589 
-1 22 18 1.1232 -0.4204 
-1 22 19 -2.1298 0.0425 
-1 22 20 3.2968 0.0763 
-1 22 21 2.0175 -0.1400 
-1 22 22 -1.2378 -0.1113 
-1 22 23 -0.1826 0.1393 
-1 22 24 -3.3473 0.1213 
-1 22 25 1.7114 0.0987 
-1 23 0 0.5183 0.0774 
-1 23 1 1.8045 0.1187 
-1 23 2 0.0771 0.1505 
-1 23 3 1.1295 0.0913 
-1 23 4 -1.8089 -0.1115 
-1 23 5 -2.5303 0.1756 
-1 23 6 2.2757 0.2264 
-1 23 7 0.3606 -0.0381 
-1 23 8 1.4714 -0.1576 
-1 23 9 1.9973 -0.0358 
-1 23 10 -1.6099 -0.0590 
-1 23 11 -0.1504 0.0212 
-1 23 12 -2.1311 0.1178 
-1 23 13 -0.5415 -0.1634 
-1 23 14 -0.4299 0.0169 
-1 23 15 -2.5320 0.1932 
-1 23 16 1.5235 0.2901 
-1 23 17 -0.0164 0.0581 
-1 23 18 0.8496 0.0790 
-1 23 19 -2.4249 0.2165 
-1 23 20 1.3736 0.0037 
-1 23 21 -1.5914 0.0014 
-1 24 0 0.6945 -0.2651 
-1 24 1 1.1103 0.0051 
-1 24 2 -0.4978 -0.0043 
-1 24 3 0.9436 -0.0693 
-1 24 4 -1.7480 -0.0212 
-1 24 5 1.0281 0.1068 
-1 24 6 -2.4756 0.0767 
-1 24 7 -2.0113 0.2065 
-1 24 8 2.2195 0.1354 
-1 24 9 -0.0309 -0.0834 
-1 24 10 0.4387 -0.0013 
-1 24 11 -1.2656 -0.0390 
-1 24 12 -0.7400 0.1384 
-1 24 13 -0.8289 -0.1238 
-1 24 14 -1.5993 0.0900 
-1 24 15 -0.7128 -0.0421 
-1 24 16 -1.4798 0.0360 
-1 24 17 0.1886 0.0508 
-1 24 18 1.8057 0.2359 
-1 24 19 -0.0096 0.0674 
-1 24 20 0.1229 -0.1034 
-1 25 0 2.1616 -0.0732 
-1 25 1 -1.9512 -0.1111 
-1 25 2 -0.8840 -0.1160 
-1 25 3 -0.7626 -0.0258 
-1 25 4 1.7622 -0.1162 
-1 25 5 -0.7174 -0.1568 
-1 25 6 -0.4695 0.0247 
-1 25 7 0.9997 0.0141 
-1 25 8 0.6217 0.1068 
-1 25 9 0.2304 0.1424 
-1 25 10 0.9417 -0.0445 
-1 25 11 0.0509 0.0094 
-1 25 12 -0.2495 -0.0980 
-1 25 13 -1.8616 -0.1045 
-1 25 14 0.8813 0.1156 
-1 25 15 -0.5556 -0.2561 
-1 25 16 -1.4525 -0.1123 
-1 25 17 0.9729 -0.0726 
-1 25 18 0.1829 0.0208 
-1 25 19 0.3588 -0.1049 
-1 26 0 1.2745 0.0747 
-1 26 1 0.7216 0.0809 
-1 26 2 1.1270 0.0498 
-1 26 3 -0.7982 0.0430 
-1 26 4 0.4615 -0.0539 
-1 26 5 0.1254 0.0709 
-1 26 6 1.8545 -0.1432 
-1 26 7 -1.7041 -0.0494 
-1 26 8 3.1803 -0.0773 
-1 26 9 0.9038 -0.0220 
-1 26 10 3.8421 0.0622 
-1 26 11 1.8778 0.0884 
-1 26 12 0.3969 -0.2681 
-1 26 13 0.8550 0.1586 
-1 26 14 -1.3825 -0.1548 
-1 26 15 -2.0369 0.0419 
-1 26 16 0.0471 -0.0124 
-1 26 17 1.2975 -0.0842 
-1 26 18 -1.8555 0.0104 
-1 27 0 1.4413 0.1260 
-1 27 1 0.0570 -0.0644 
-1 27 2 -0.6458 -0.0449 
-1 27 3 -2.2225 -0.0291 
-1 27 4 0.0433 0.0389 
-1 27 5 2.0462 -0.0471 
-1 27 6 -2.8258 -0.0354 
-1 27 7 -0.4979 0.0667 
-1 27 8 -3.7319 -0.2104 
-1 27 9 -2.1195 -0.0950 
-1 27 10 0.6394 0.0002 
-1 27 11 -1.2290 0.1310 
-1 27 12 2.9336 -0.0099 
-1 27 13 1.1044 -0.1536 
-1 27 14 -1.2180 -0.1091 
-1 27 15 0.0097 0.3005 
-1 27 16 -1.0524 0.0023 
-1 27 17 -0.4287 -0.3791 
-1 27 18 1.0273 -0.2262 
-1 28 0 0.7010 0.0715 
-1 28 1 -0.0242 -0.0128 
-1 28 2 -0.7349 0.0587 
-1 28 3 -3.6670 0.0100 
-1 28 4 -1.1881 0.0908 
-1 28 5 -1.1241 0.0628 
-1 28 6 2.9568 0.2008 
-1 28 7 2.2621 0.1390 
-1 28 8 -3.5123 -0.0536 
-1 28 9 0.9148 -0.0605 
-1 28 10 -3.7562 -0.0092 
-1 28 11 -0.7430 0.0823 
-1 28 12 -0.8611 0.0452 
-1 28 13 -1.1320 -0.0348 
-1 28 14 1.7565 -0.2170 
-1 28 15 -1.7183 -0.0224 
-1 28 16 -1.9821 0.1443 
-1 28 17 -0.0446 0.0897 
-1 29 0 0.4928 -0.0420 
-1 29 1 4.0351 -0.0419 
-1 29 2 0.8783 -0.1182 
-1 29 3 2.2492 -0.0350 
-1 29 4 -3.1819 -0.0530 
-1 29 5 -0.7726 0.0623 
-1 29 6 2.7768 0.1657 
-1 29 7 1.9611 0.0787 
-1 29 8 3.8282 0.3554 
-1 29 9 2.0750 0.1233 
-1 29 10 0.0804 -0.2512 
-1 29 11 2.7019 -0.0748 
-1 29 12 1.2129 0.3029 
-1 29 13 2.2240 -0.0274 
-1 29 14 0.7384 -0.4573 
-1 29 15 -1.3813 -0.2951 
-1 30 0 -1.0290 0.0445 
-1 30 1 -0.4213 -0.1065 
-1 30 2 0.8859 0.0897 
-1 30 3 2.0719 -0.2235 
-1 30 4 -2.9753 -0.1376 
-1 30 5 0.3182 -0.1611 
-1 30 6 -4.2572 -0.3326 
-1 30 7 2.2026 -0.1480 
-1 30 8 1.3297 0.2602 
-1 30 9 -0.9172 -0.2122 
-1 30 10 -2.1597 0.2627 
-1 30 11 -0.0265 0.0104 
-1 30 12 -0.2592 0.2334 
-1 30 13 1.3899 0.1063 
-1 31 0 -0.5401 0.0236 
-1 31 1 0.2487 0.2373 
-1 31 2 0.0397 0.0071 
-1 31 3 -2.8478 -0.1102 
-1 31 4 1.7420 0.4324 
-1 31 5 -3.8294 0.1350 
-1 31 6 -2.5020 0.1853 
-1 31 7 -0.7860 0.1062 
-1 31 8 -0.0553 -0.4136 
-1 31 9 2.2424 0.1231 
-1 31 10 0.0842 0.1632 
-1 32 0 2.1599 -0.0355 
-1 32 1 0.9994 -0.0239 
-1 32 2 0.9553 -0.5935 
-1 32 3 1.6875 -0.0888 
-1 32 4 1.5284 -0.3482 
-1 32 5 -0.4182 -0.0272 
-1 32 6 1.6948 0.6205 
0 0 4 -63.8132 -1.1233 
0 0 6 -15.0745 -0.1378 
0 0 8 -12.1183 1.4963 
0 0 10 -8.8948 -0.1304 
0 0 12 -3.1770 1.1964 
0 0 14 -4.3134 -0.0070 
0 0 16 -0.6904 -1.1796 
0 0 18 -1.9757 0.3978 
0 0 20 2.1567 -0.7391 
0 0 22 1.1453 0.2223 
0 0 24 -1.1386 0.7016 
0 0 26 0.1931 -0.2729 
0 0 28 0.0762 0.6927 
0 0 30 0.3945 -0.5678 
0 1 3 -53.7247 -2.3471 
0 1 4 52.6218 0.0759 
0 1 5 -10.7333 1.2923 
0 1 6 2.7097 -0.9664 
0 1 7 20.0298 -0.7152 
0 1 8 4.0196 -0.4420 
0 1 9 2.0306 0.2633 
0 1 10 0.9499 0.6610 
0 1 11 4.5557 0.9724 
0 1 12 0.5822 -0.8101 
0 1 13 1.0601 -1.1494 
0 1 14 1.3505 1.8994 
0 1 15 1.8924 0.9175 
0 1 16 -1.6342 -0.6901 
0 1 17 0.0302 -0.5939 
0 1 18 -0.9809 -0.1595 
0 1 19 -2.4486 -0.3675 
0 1 20 -2.4767 0.2683 
0 1 21 2.1341 0.7898 
0 1 22 2.0543 -1.2236 
0 1 23 0.1860 -0.7739 
0 1 24 -0.4852 0.5775 
0 1 25 -1.3521 0.6493 
0 1 26 -0.0503 -0.2208 
0 1 27 -0.9832 -0.0051 
0 1 28 -0.2329 0.2421 
0 1 29 -0.2000 -0.4525 
0 1 30 -0.3956 0.5689 
0 1 31 0.0272 0.3363 
0 1 32 0.8933 -0.1891 
0 1 33 0.4485 -0.6982 
0 2 1 51.6600 2.2622 
0 2 2 -48.2207 -0.5037 
0 2 3 9.4373 -0.6866 
0 2 4 24.1006 0.3470 
0 2 5 -70.7232 -1.4551 
0 2 6 33.7084 0.7251 
0 2 7 -19.4060 0.2258 
0 2 8 8.0394 -1.6411 
0 2 9 -2.1905 -1.3865 
0 2 10 0.6056 0.7208 
0 2 11 -2.0711 1.0989 
0 2 12 2.9019 -1.1989 
0 2 13 1.8533 0.2894 
0 2 14 1.9313 -0.0873 
0 2 15 0.4043 -0.1749 
0 2 16 3.4794 1.1835 
0 2 17 4.3723 0.8879 
0 2 18 0.2989 -0.7810 
0 2 19 -0.5858 -1.0495 
0 2 20 -1.9761 0.8711 
0 2 21 0.3645 0.3979 
0 2 22 -0.6716 -0.2097 
0 2 23 4.1389 -0.2133 
0 2 24 -0.3259 -0.7112 
0 2 25 2.5820 -0.3615 
0 2 26 -0.7553 0.5092 
0 2 27 0.6357 0.7914 
0 2 28 -0.0502 -0.8811 
0 2 29 0.3273 -0.1893 
0 2 30 -0.1349 0.5980 
0 2 31 0.2665 0.1938 
0 2 32 -0.1959 -0.1297 
0 2 33 0.6909 0.5002 
0 3 1 -2.2559 -0.1743 
0 3 2 -21.1140 0.2467 
0 3 3 73.9692 2.8922 
0 3 4 -54.8293 -0.9240 
0 3 5 22.2011 -0.5537 
0 3 6 -13.5290 0.7732 
0 3 7 -24.1569 0.6191 
0 3 8 19.8341 0.1314 
0 3 9 -15.0722 -0.8763 
0 3 10 -3.2726 -0.6874 
0 3 11 -8.0377 -0.8527 
0 3 12 0.4895 1.1636 
0 3 13 -4.2087 0.5997 
0 3 14 -3.0067 -1.7567 
0 3 15 -1.4164 -0.2823 
0 3 16 1.2618 0.7995 
0 3 17 -1.4362 0.6441 
0 3 18 1.8275 -0.0223 
0 3 19 1.6208 0.2856 
0 3 20 0.3451 -0.4949 
0 3 21 -2.5556 -0.5327 
0 3 22 -0.7839 1.1545 
0 3 23 0.7048 0.3500 
0 3 24 0.4643 -0.8301 
0 3 25 1.0968 -0.7076 
0 3 26 -0.1050 0.4031 
0 3 27 2.0475 -0.1258 
0 3 28 -1.1496 -0.0937 
0 3 29 -0.0013 0.4755 
0 3 30 -0.8137 -0.4679 
0 3 31 0.1492 -0.4882 
0 3 32 -1.4241 0.2963 
0 3 33 -0.3839 0.3965 
0 4 0 -10.4826 -0.6158 
0 4 1 -8.7254 -2.2479 
0 4 2 27.0326 1.0713 
0 4 3 10.3892 0.4883 
0 4 4 14.2124 0.2418 
0 4 5 41.0723 1.0409 
0 4 6 -36.3830 -0.8928 
0 4 7 33.3784 0.4976 
0 4 8 -4.4424 1.3633 
0 4 9 8.5994 0.7929 
0 4 10 7.3333 -1.2148 
0 4 11 -2.0306 -0.7829 
0 4 12 0.2541 0.8931 
0 4 13 -1.5741 -0.5064 
0 4 14 0.7031 0.0964 
0 4 15 -0.8362 -0.1374 
0 4 16 -1.6795 -0.9486 
0 4 17 -1.3387 -0.5806 
0 4 18 0.4094 1.1147 
0 4 19 -1.6430 0.8563 
0 4 20 0.3880 -0.8843 
0 4 21 -2.3845 -0.0941 
0 4 22 -0.3183 0.3023 
0 4 23 -2.4192 0.2679 
0 4 24 -1.0617 0.3754 
0 4 25 -1.4518 0.0911 
0 4 26 0.8734 -0.7253 
0 4 27 -1.1102 -0.5168 
0 4 28 1.8146 0.6930 
0 4 29 -0.4914 -0.1265 
0 4 30 -0.4508 -0.5194 
0 4 31 -1.5960 0.1406 
0 4 32 -0.6289 0.0576 
0 4 33 -1.1029 -0.9276 
0 5 1 -32.1911 0.1186 
0 5 2 -16.0183 -0.7579 
0 5 3 -11.2972 -1.9661 
0 5 4 16.7974 1.1872 
0 5 5 -13.8973 0.1367 
0 5 6 2.7309 -0.5805 
0 5 7 1.5488 -0.4144 
0 5 8 -18.6098 0.2916 
0 5 9 20.9922 0.8385 
0 5 10 -5.6055 0.5784 
0 5 11 7.1834 0.4681 
0 5 12 -0.6014 -1.1171 
0 5 13 3.5360 -0.1052 
0 5 14 0.5468 1.3100 
0 5 15 0.1976 0.0271 
0 5 16 0.5570 -0.9308 
0 5 17 3.0843 -0.5069 
0 5 18 0.5101 0.1176 
0 5 19 -0.2419 -0.3029 
0 5 20 1.8033 0.7358 
0 5 21 0.5854 0.2763 
0 5 22 0.8169 -0.8504 
0 5 23 -1.8603 -0.0299 
0 5 24 0.9843 0.8723 
0 5 25 -0.0113 0.3099 
0 5 26 -2.9992 -0.3521 
0 5 27 -0.1440 0.1811 
0 5 28 1.6798 -0.2046 
0 5 29 1.2602 -0.2885 
0 5 30 1.9033 0.3610 
0 5 31 0.2775 0.2600 
0 5 32 0.3797 -0.6384 
0 5 33 -1.1642 -0.0253 
0 6 0 10.8394 0.7568 
0 6 1 -18.7277 1.3152 
0 6 2 9.1681 -0.9813 
0 6 3 -13.8671 -0.0974 
0 6 4 5.6991 -0.3226 
0 6 5 -4.2126 -0.2852 
0 6 6 9.8310 0.7549 
0 6 7 -19.9901 -0.4099 
0 6 8 5.2762 -0.9448 
0 6 9 -7.2311 -0.2454 
0 6 10 -5.6187 1.3613 
0 6 11 4.2931 0.2645 
0 6 12 -5.4875 -0.5302 
0 6 13 2.5801 0.3965 
0 6 14 -1.8817 -0.0927 
0 6 15 -0.0664 0.2098 
0 6 16 -0.5976 0.6152 
0 6 17 0.9925 0.3246 
0 6 18 -0.9353 -1.3448 
0 6 19 1.1895 -0.3681 
0 6 20 1.2502 0.6557 
0 6 21 0.1945 -0.0719 
0 6 22 1.5977 -0.1710 
0 6 23 -0.0736 -0.1553 
0 6 24 3.2141 -0.1739 
0 6 25 -0.6089 -0.0445 
0 6 26 0.8400 0.7694 
0 6 27 -0.6829 0.1469 
0 6 28 -2.4509 -0.3415 
0 6 29 1.7944 0.1636 
0 6 30 1.8027 0.2353 
0 6 31 2.1792 -0.0478 
0 6 32 0.5990 -0.0773 
0 6 33 1.1508 0.1265 
0 7 1 8.3989 -0.4219 
0 7 2 -3.0957 0.8020 
0 7 3 -0.7998 0.6889 
0 7 4 12.0795 -1.1458 
0 7 5 1.1314 -0.1780 
0 7 6 6.2533 0.2808 
0 7 7 -0.3821 0.2833 
0 7 8 10.6713 -0.6183 
0 7 9 -9.2504 -0.3799 
0 7 10 11.6815 -0.5355 
0 7 11 -4.8441 -0.0907 
0 7 12 1.8353 1.0848 
0 7 13 -0.3907 -0.2676 
0 7 14 -0.7289 -0.7465 
0 7 15 0.3774 0.0585 
0 7 16 -0.7919 0.8950 
0 7 17 -0.6380 0.1814 
0 7 18 -0.5529 -0.0473 
0 7 19 1.2109 0.1754 
0 7 20 -3.0265 -0.7597 
0 7 21 1.5783 0.0438 
0 7 22 -0.5966 0.5682 
0 7 23 -0.0064 0.0183 
0 7 24 -1.1302 -0.7060 
0 7 25 0.3801 -0.1349 
0 7 26 2.8067 0.2778 
0 7 27 -2.2565 -0.0702 
0 7 28 -1.4516 0.2599 
0 7 29 -0.6620 0.0066 
0 7 30 -0.1191 -0.1128 
0 7 31 2.1748 0.2310 
0 7 32 0.2368 0.3876 
0 8 0 -5.1149 -0.6868 
0 8 1 -6.5020 -0.4343 
0 8 2 -13.0840 0.7548 
0 8 3 0.0080 0.2095 
0 8 4 -7.2781 0.4578 
0 8 5 1.0159 -0.1815 
0 8 6 -5.6882 -0.3782 
0 8 7 -2.2412 0.1954 
0 8 8 -6.4122 0.7807 
0 8 9 -0.3358 -0.1853 
0 8 10 3.5202 -1.2221 
0 8 11 -3.5616 0.2750 
0 8 12 5.9518 0.2003 
0 8 13 -2.4130 -0.1362 
0 8 14 2.6187 0.1291 
0 8 15 -0.8523 -0.1754 
0 8 16 -0.2023 -0.3219 
0 8 17 -0.0557 -0.1541 
0 8 18 0.2578 1.1368 
0 8 19 -0.6807 -0.0223 
0 8 20 -0.8151 -0.3813 
0 8 21 1.5468 -0.0356 
0 8 22 -0.7807 0.0863 
0 8 23 2.1563 0.1054 
0 8 24 -2.4295 0.0524 
0 8 25 2.8362 0.0452 
0 8 26 -0.5698 -0.6217 
0 8 27 -0.0281 0.0063 
0 8 28 -0.4572 0.3476 
0 8 29 -3.2770 -0.0790 
0 8 30 0.9269 -0.0996 
0 8 31 -0.0298 0.1371 
0 8 32 1.5201 0.4051 
0 9 1 9.6803 0.1833 
0 9 2 -4.3490 -0.7450 
0 9 3 -0.2861 -0.0769 
0 9 4 1.4414 0.8890 
0 9 5 8.3817 0.2016 
0 9 6 -1.0011 -0.2603 
0 9 7 -0.0973 0.0517 
0 9 8 -8.4319 0.5859 
0 9 9 -0.7405 0.0087 
0 9 10 -6.8057 0.4785 
0 9 11 -0.4583 -0.2603 
0 9 12 -1.7062 -0.7591 
0 9 13 -0.6946 0.2984 
0 9 14 1.4413 0.3916 
0 9 15 -1.4043 -0.0153 
0 9 16 2.0302 -0.7045 
0 9 17 -1.6126 -0.0084 
0 9 18 0.0421 -0.0376 
0 9 19 -0.8483 0.0526 
0 9 20 -0.4589 0.5717 
0 9 21 -1.9880 -0.0727 
0 9 22 0.3911 -0.4420 
0 9 23 -1.3429 0.0860 
0 9 24 1.1847 0.5538 
0 9 25 0.5329 -0.0019 
0 9 26 0.0440 -0.4054 
0 9 27 3.8682 0.1441 
0 9 28 -1.5099 -0.0704 
0 9 29 -1.4197 0.0537 
0 9 30 -0.9230 -0.0719 
0 9 31 -0.6044 -0.0369 
0 9 32 3.4799 0.1648 
0 10 0 6.3214 0.5651 
0 10 1 1.8790 0.1698 
0 10 2 -4.2218 -0.6880 
0 10 3 -0.1579 -0.3249 
0 10 4 0.1655 -0.3188 
0 10 5 7.7619 0.0273 
0 10 6 8.7880 0.1840 
0 10 7 7.6705 -0.2343 
0 10 8 1.5395 -0.6307 
0 10 9 2.4706 0.4667 
0 10 10 -1.8005 0.6519 
0 10 11 1.1788 -0.3125 
0 10 12 -2.9514 -0.1287 
0 10 13 1.5435 0.0381 
0 10 14 -2.6657 -0.0423 
0 10 15 2.2754 0.0411 
0 10 16 -0.5382 0.3520 
0 10 17 -0.5021 0.0012 
0 10 18 1.5799 -0.7328 
0 10 19 -0.8893 0.1164 
0 10 20 0.2706 0.3000 
0 10 21 -0.8324 0.0266 
0 10 22 -0.2654 -0.0479 
0 10 23 -1.0925 0.0590 
0 10 24 -0.6040 -0.0939 
0 10 25 -4.1493 0.0618 
0 10 26 1.7820 0.4039 
0 10 27 -0.3226 -0.1485 
0 10 28 -0.5892 -0.3039 
0 10 29 -0.8777 -0.1120 
0 10 30 -2.7810 0.1379 
0 10 31 0.6993 -0.3990 
0 10 32 -0.9661 -0.4938 
0 11 1 -0.7677 0.1127 
0 11 2 -1.6165 0.5364 
0 11 3 -10.4169 0.0502 
0 11 4 -9.3924 -0.5269 
0 11 5 -4.4489 0.0955 
0 11 6 -0.6342 0.2516 
0 11 7 2.8452 -0.1985 
0 11 8 1.8979 -0.1609 
0 11 9 2.4044 0.0131 
0 11 10 0.0494 -0.2979 
0 11 11 0.6897 0.3233 
0 11 12 0.3326 0.4393 
0 11 13 -0.2014 -0.1156 
0 11 14 -0.5043 -0.4992 
0 11 15 2.3465 0.1425 
0 11 16 -2.9216 0.3806 
0 11 17 2.8358 -0.0526 
0 11 18 -1.5612 0.0131 
0 11 19 0.2953 -0.1964 
0 11 20 -1.0497 -0.2831 
0 11 21 0.6693 0.0047 
0 11 22 0.5178 0.2722 
0 11 23 0.5730 -0.4379 
0 11 24 0.6293 -0.3306 
0 11 25 0.4715 0.0634 
0 11 26 0.3396 0.1679 
0 11 27 -1.3181 -0.1878 
0 11 28 0.0984 0.0282 
0 11 29 -2.7993 0.1785 
0 11 30 -2.8320 0.2296 
0 11 31 -2.3395 -0.5785 
0 12 0 10.3642 -0.4044 
0 12 1 6.7710 -0.1221 
0 12 2 6.8734 0.3410 
0 12 3 1.6669 0.1892 
0 12 4 -0.7754 0.0976 
0 12 5 -7.5322 -0.0370 
0 12 6 -2.5337 -0.1686 
0 12 7 -2.7188 0.3369 
0 12 8 -0.7277 0.2629 
0 12 9 -0.2727 -0.4511 
0 12 10 -0.1279 -0.2721 
0 12 11 0.5734 0.1500 
0 12 12 -0.1470 0.1384 
0 12 13 -2.0553 -0.1126 
0 12 14 2.2563 0.0740 
0 12 15 -1.1991 -0.0055 
0 12 16 1.1332 -0.3330 
0 12 17 1.1458 0.1901 
0 12 18 -1.2213 0.2521 
0 12 19 0.0974 -0.0053 
0 12 20 -0.3944 -0.1032 
0 12 21 0.7162 0.1289 
0 12 22 -3.3260 0.0571 
0 12 23 1.6187 0.0043 
0 12 24 -1.1070 0.1547 
0 12 25 1.7638 -0.2383 
0 12 26 2.2911 -0.2887 
0 12 27 4.1462 -0.0043 
0 12 28 2.6158 0.1314 
0 12 29 0.0708 -0.0057 
0 12 30 -3.7465 -0.1874 
0 12 31 -0.4253 0.8439 
0 13 1 -3.0675 -0.2243 
0 13 2 11.1727 -0.2390 
0 13 3 6.5267 -0.0485 
0 13 4 5.2751 0.2107 
0 13 5 3.5857 -0.2168 
0 13 6 3.1478 -0.0223 
0 13 7 -1.6002 0.0862 
0 13 8 0.9678 0.0085 
0 13 9 -1.5578 0.1017 
0 13 10 0.7555 0.0979 
0 13 11 0.4189 -0.2575 
0 13 12 -0.1197 -0.2025 
0 13 13 0.0404 0.0441 
0 13 14 1.6441 0.3527 
0 13 15 -1.3382 -0.2548 
0 13 16 3.6678 -0.0703 
0 13 17 0.2129 0.0257 
0 13 18 0.5490 0.0844 
0 13 19 -0.2023 0.1410 
0 13 20 0.4988 0.0589 
0 13 21 -1.1895 0.1241 
0 13 22 2.7951 -0.0041 
0 13 23 -0.0586 0.3611 
0 13 24 -4.0486 0.1262 
0 13 25 -0.8042 0.0995 
0 13 26 -1.8407 0.0493 
0 13 27 3.8809 0.1687 
0 13 28 4.0855 -0.3271 
0 13 29 2.8276 -0.3623 
0 13 30 -0.0234 -0.1646 
0 14 0 -17.0229 0.1977 
0 14 1 -1.6015 0.1534 
0 14 2 -5.4627 -0.1765 
0 14 3 -3.7825 -0.0719 
0 14 4 4.2141 -0.0372 
0 14 5 0.7380 0.0409 
0 14 6 1.8010 0.0561 
0 14 7 2.6950 -0.2170 
0 14 8 2.5339 0.1544 
0 14 9 -0.1810 0.2037 
0 14 10 0.1678 0.0861 
0 14 11 -2.4629 0.0327 
0 14 12 -0.2281 0.0045 
0 14 13 -0.3233 0.0726 
0 14 14 -0.5220 -0.0942 
0 14 15 -1.4179 -0.0776 
0 14 16 3.6063 0.0738 
0 14 17 0.3699 -0.1871 
0 14 18 4.0125 -0.1408 
0 14 19 -0.2206 -0.1583 
0 14 20 -1.7604 0.0135 
0 14 21 -1.1082 -0.0425 
0 14 22 2.5595 -0.0694 
0 14 23 0.9976 -0.0623 
0 14 24 2.9030 -0.1671 
0 14 25 -3.5943 0.1734 
0 14 26 -3.0889 0.0515 
0 14 27 -2.0070 0.1099 
0 14 28 2.4740 0.0051 
0 14 29 4.3873 0.4305 
0 14 30 0.8906 -0.3152 
0 15 1 -0.1141 0.1598 
0 15 2 -10.8427 0.0675 
0 15 3 1.7943 0.0658 
0 15 4 -5.2667 -0.1162 
0 15 5 -3.5843 0.0437 
0 15 6 -0.5601 -0.2347 
0 15 7 -1.7990 0.0237 
0 15 8 1.6068 -0.0439 
0 15 9 3.5135 -0.1019 
0 15 10 0.6430 -0.0593 
0 15 11 0.3768 0.0926 
0 15 12 -1.3045 0.0802 
0 15 13 -1.9220 0.0446 
0 15 14 -2.6590 -0.0480 
0 15 15 -1.1067 0.1188 
0 15 16 -1.9927 0.0488 
0 15 17 -1.7177 -0.0093 
0 15 18 4.0449 -0.0648 
0 15 19 1.6255 -0.0383 
0 15 20 0.4234 -0.0989 
0 15 21 -3.1640 -0.1203 
0 15 22 -0.9944 0.0789 
0 15 23 1.2670 -0.0477 
0 15 24 3.4910 0.0933 
0 15 25 2.2679 -0.1565 
0 15 26 -1.3424 0.0499 
0 15 27 -3.2898 -0.0632 
0 15 28 0.7723 0.0916 
0 15 29 0.5980 0.2408 
0 16 0 8.0025 0.0742 
0 16 1 -0.8778 -0.0874 
0 16 2 3.8309 0.1561 
0 16 3 1.1054 0.0922 
0 16 4 -3.0852 0.1550 
0 16 5 3.5635 0.0084 
0 16 6 -3.9332 -0.0066 
0 16 7 -3.2214 -0.0026 
0 16 8 -1.9556 -0.0929 
0 16 9 0.0914 0.0511 
0 16 10 2.4647 -0.0579 
0 16 11 5.0288 -0.0753 
0 16 12 -1.5839 -0.1105 
0 16 13 1.8202 0.1442 
0 16 14 -0.6311 -0.0003 
0 16 15 1.2705 -0.0211 
0 16 16 -4.6311 0.1084 
0 16 17 -0.4446 0.0606 
0 16 18 -1.4018 0.1730 
0 16 19 0.2042 0.0654 
0 16 20 1.2152 0.0799 
0 16 21 0.1649 0.0078 
0 16 22 -3.8239 -0.0995 
0 16 24 1.8046 0.0205 
0 16 25 1.6117 -0.0398 
0 16 26 1.2977 0.2207 
0 16 27 0.3579 -0.3277 
0 16 28 -3.1390 0.3474 
0 16 29 -0.5362 -0.4761 
0 17 1 -3.1604 -0.0821 
0 17 2 4.0306 0.0072 
0 17 3 -1.3985 -0.0188 
0 17 4 2.4475 0.0082 
0 17 5 1.2817 0.1163 
0 17 6 0.3865 0.1738 
0 17 7 -0.1941 -0.0757 
0 17 8 -4.8551 0.0401 
0 17 9 -3.7109 0.0467 
0 17 10 -0.0490 0.0553 
0 17 11 -0.3211 -0.1083 
0 17 12 0.1634 -0.0049 
0 17 13 2.1850 -0.0086 
0 17 14 -1.1899 -0.2060 
0 17 15 1.5834 0.1562 
0 17 16 1.4255 -0.1512 
0 17 17 2.0217 -0.0514 
0 17 18 -3.6862 -0.0382 
0 17 19 0.8439 -0.0168 
0 17 20 1.4982 0.1408 
0 17 21 1.0321 0.0792 
0 17 22 -1.8491 0.1041 
0 17 23 -1.5861 -0.0256 
0 17 24 -3.0809 -0.1405 
0 17 25 -3.0575 0.0461 
0 17 26 1.5606 -0.2649 
0 17 27 -0.5353 0.2812 
0 17 28 -0.3707 -0.1700 
0 18 0 -6.1139 -0.1900 
0 18 1 -3.0790 0.0117 
0 18 2 0.8228 -0.0393 
0 18 3 -2.7272 -0.1330 
0 18 4 2.9437 -0.1686 
0 18 5 -0.2543 0.0039 
0 18 6 2.6742 -0.0966 
0 18 7 0.4121 0.0771 
0 18 8 1.2318 0.0870 
0 18 9 -2.2457 -0.1102 
0 18 10 -1.9167 0.0911 
0 18 11 -1.5319 0.0416 
0 18 12 0.2651 0.0524 
0 18 13 -2.2872 -0.2115 
0 18 14 -3.0583 0.1508 
0 18 15 0.2530 -0.0407 
0 18 16 -0.4249 -0.2426 
0 18 17 0.1723 0.2364 
0 18 18 1.4021 -0.0315 
0 18 19 1.6244 -0.0970 
0 18 20 -1.7347 -0.2673 
0 18 21 1.6278 0.1699 
0 18 22 1.9032 0.1919 
0 18 23 3.1159 0.0496 
0 18 24 -1.5462 0.0102 
0 18 25 -0.7378 0.0458 
0 18 26 -0.0662 0.3501 
0 18 27 -0.4305 -0.0165 
0 18 28 0.9992 -0.2302 
0 19 1 4.2646 -0.0611 
0 19 2 -6.5790 0.0186 
0 19 3 2.5120 0.0792 
0 19 4 1.6242 0.1772 
0 19 5 1.9234 -0.2082 
0 19 6 0.8052 -0.1934 
0 19 7 2.4941 0.1475 
0 19 8 1.5165 -0.0509 
0 19 9 -0.1958 0.1320 
0 19 10 3.9770 0.0847 
0 19 11 0.7103 -0.0359 
0 19 12 2.5731 0.1103 
0 19 13 0.5431 0.1572 
0 19 14 0.9464 0.1556 
0 19 15 -1.3227 -0.3409 
0 19 16 -3.1684 0.0402 
0 19 17 0.0243 -0.0231 
0 19 18 0.1204 0.0268 
0 19 19 0.4842 -0.0123 
0 19 20 -1.1540 -0.0553 
0 19 21 -0.6930 -0.1592 
0 19 22 -1.3182 -0.1278 
0 19 23 1.1056 0.1073 
0 19 24 -1.4771 -0.2063 
0 19 25 3.0848 -0.0463 
0 19 26 -1.6309 -0.2857 
0 19 27 -0.2231 0.3146 
0 20 1 -1.2663 -0.0874 
0 20 2 -2.6151 -0.0096 
0 20 3 -0.2920 0.1294 
0 20 4 -2.8497 0.2187 
0 20 5 3.1070 -0.0068 
0 20 6 0.5602 0.0559 
0 20 7 1.8933 -0.2857 
0 20 8 -4.2247 -0.0730 
0 20 9 0.7167 0.1909 
0 20 10 -1.2823 -0.1344 
0 20 11 -1.1828 -0.0089 
0 20 12 3.8656 -0.0067 
0 20 13 -0.3235 0.1274 
0 20 14 3.5641 0.1028 
0 20 15 0.6887 0.1887 
0 20 16 2.1008 0.0370 
0 20 17 -2.2074 -0.3202 
0 20 18 0.4891 -0.0278 
0 20 19 -0.8683 0.2057 
0 20 20 1.7834 0.0495 
0 20 21 0.2499 -0.3212 
0 20 22 -2.0611 0.1570 
0 20 23 -2.7256 0.1498 
0 20 24 0.3580 0.1361 
0 20 25 -0.0566 -0.3867 
0 20 26 -4.5428 -0.3275 
0 21 1 -0.7709 0.1112 
0 21 2 1.3558 -0.0995 
0 21 3 -4.9671 -0.1439 
0 21 4 -1.5972 0.0065 
0 21 5 -2.2312 0.2451 
0 21 6 2.8901 0.0992 
0 21 7 0.6229 -0.2111 
0 21 8 -0.3947 -0.1128 
0 21 9 -0.9017 -0.0972 
0 21 10 -4.3826 0.0347 
0 21 11 0.4132 -0.0215 
0 21 12 -2.2141 -0.1530 
0 21 13 -2.7367 -0.1531 
0 21 14 0.8867 0.1069 
0 21 15 -0.7509 0.2883 
0 21 16 2.5041 0.1389 
0 21 17 1.0952 -0.0430 
0 21 18 0.5820 0.0504 
0 21 19 -1.7792 0.0510 
0 21 20 5.6628 -0.0150 
0 21 21 -1.4046 0.0930 
0 21 22 1.5886 -0.1029 
0 21 23 0.6772 -0.1825 
0 21 24 1.8585 0.2443 
0 21 25 -0.7112 -0.0714 
0 22 0 -1.0603 -0.0602 
0 22 1 1.1044 0.0698 
0 22 2 1.5988 -0.1430 
0 22 3 -0.7226 -0.0342 
0 22 4 -1.5101 -0.1441 
0 22 5 -2.1210 0.0978 
0 22 6 2.4279 0.0886 
0 22 7 -0.0807 0.0946 
0 22 8 3.1981 0.0046 
0 22 9 -0.5491 -0.0859 
0 22 10 0.2522 -0.0450 
0 22 11 1.0971 0.1388 
0 22 12 -0.2634 -0.1288 
0 22 13 2.0425 -0.2002 
0 22 14 -2.2810 -0.0897 
0 22 15 -0.6831 -0.1026 
0 22 16 0.8297 0.0334 
0 22 17 0.5862 0.1264 
0 22 18 -1.0303 -0.0308 
0 22 19 2.9379 -0.2257 
0 22 20 -0.7378 0.0385 
0 22 21 -0.3752 0.1923 
0 22 22 4.7984 -0.1701 
0 22 23 -2.4165 0.0841 
0 22 24 -0.7955 -0.0020 
0 23 1 0.8489 -0.0682 
0 23 2 -1.2728 0.0530 
0 23 3 2.1227 0.0542 
0 23 4 -0.9085 -0.0317 
0 23 5 -0.2589 -0.0457 
0 23 6 -1.1597 -0.0924 
0 23 7 1.3005 0.1301 
0 23 8 2.7393 0.0445 
0 23 9 -1.9272 -0.0985 
0 23 10 -0.5268 0.1191 
0 23 11 -0.9412 0.0050 
0 23 12 0.8190 -0.0603 
0 23 13 0.3105 0.1886 
0 23 14 -0.3465 -0.1807 
0 23 15 1.5998 -0.1914 
0 23 16 -1.8811 -0.0356 
0 23 17 0.5840 0.1425 
0 23 18 0.5984 0.0251 
0 23 19 -0.7278 0.0291 
0 23 20 -3.8614 -0.0487 
0 23 21 4.5181 -0.0742 
0 23 22 -0.2956 0.0521 
0 23 23 -0.8785 0.5765 
0 24 0 1.9597 0.0105 
0 24 1 -2.9852 0.0595 
0 24 2 1.2463 0.0040 
0 24 3 1.4895 -0.0363 
0 24 4 -0.8653 0.1126 
0 24 5 -0.2524 0.0466 
0 24 6 -1.9607 0.0804 
0 24 7 2.4851 -0.1156 
0 24 8 -0.2405 -0.1155 
0 24 9 -0.1618 0.1028 
0 24 10 -0.9747 0.0321 
0 24 11 -2.2139 -0.1122 
0 24 12 -1.3133 0.1362 
0 24 13 -2.4665 0.1115 
0 24 14 -0.5796 0.0396 
0 24 15 -2.0062 0.2117 
0 24 16 -1.0104 -0.0846 
0 24 17 2.2961 -0.1170 
0 24 18 -1.2770 0.1118 
0 24 19 -1.0938 0.2754 
0 24 20 1.0794 0.1102 
0 24 21 -0.6310 -0.4090 
0 24 22 -2.8977 -0.1255 
0 25 1 0.1483 -0.0330 
0 25 2 -0.6285 -0.0949 
0 25 3 -3.0972 -0.1192 
0 25 4 1.9187 -0.0425 
0 25 5 0.1362 0.1418 
0 25 6 -1.0211 0.1298 
0 25 7 1.4313 0.0286 
0 25 8 1.5528 -0.0653 
0 25 9 3.1261 -0.0050 
0 25 10 -0.7909 0.0427 
0 25 11 0.9001 0.0693 
0 25 12 -0.4807 -0.1191 
0 25 13 0.6534 -0.1851 
0 25 14 -0.6618 0.1115 
0 25 15 -3.4965 0.2264 
0 25 16 1.3927 -0.0371 
0 25 17 -0.6238 -0.0698 
0 25 18 -1.8327 -0.1463 
0 25 19 3.3359 0.0582 
0 26 0 4.6245 0.0430 
0 26 1 1.2893 -0.0554 
0 26 2 -2.5150 0.0918 
0 26 3 -0.9747 -0.0040 
0 26 4 0.9223 -0.0995 
0 26 5 -1.9085 -0.0758 
0 26 6 -1.0810 0.1788 
0 26 7 0.4237 0.0843 
0 26 8 1.0547 -0.0679 
0 26 9 3.7371 -0.0939 
0 26 10 1.9997 -0.0405 
0 26 11 0.2189 0.0917 
0 26 12 1.6839 -0.0206 
0 26 13 3.6359 -0.2753 
0 26 14 -0.9075 -0.1563 
0 26 15 -0.1342 -0.1397 
0 26 16 1.0428 0.1751 
0 26 17 -3.6552 0.0847 
0 26 18 3.9247 0.0761 
0 26 19 -1.1195 0.0875 
0 27 1 1.5630 -0.0108 
0 27 2 2.1154 -0.0032 
0 27 3 1.2105 0.0157 
0 27 4 -0.8886 -0.1301 
0 27 5 -0.9099 0.0515 
0 27 6 0.7109 -0.0478 
0 27 7 -4.2061 0.1370 
0 27 8 -2.1039 0.1562 
0 27 9 1.6573 -0.1720 
0 27 10 -2.2416 -0.0726 
0 27 11 -0.4445 0.0922 
0 27 12 -0.0071 0.0604 
0 27 13 -1.1188 -0.0167 
0 27 14 2.2248 -0.1417 
0 27 15 1.3307 -0.1909 
0 27 16 -2.9767 -0.0138 
0 27 17 0.8498 -0.1183 
0 27 18 2.7330 -0.0543 
0 28 0 -4.2393 0.0582 
0 28 1 0.4798 -0.0215 
0 28 2 -0.6509 -0.0207 
0 28 3 0.0689 -0.1320 
0 28 4 -2.8720 0.0808 
0 28 5 2.0111 -0.1252 
0 28 6 0.0941 -0.0864 
0 28 7 -2.8289 0.1809 
0 28 8 1.2516 0.1228 
0 28 9 -1.8219 0.0344 
0 28 10 0.4760 0.1191 
0 28 11 1.7650 -0.0006 
0 28 12 -5.8562 0.1466 
0 28 13 -0.4466 0.0647 
0 28 14 -0.1085 -0.1013 
0 28 15 -0.9838 0.0408 
0 28 16 0.2213 0.0343 
0 28 17 0.2002 -0.1029 
0 29 1 0.2576 0.0624 
0 29 2 0.5510 -0.0223 
0 29 3 -1.0472 0.0291 
0 29 4 1.5069 0.1124 
0 29 5 1.6774 -0.1456 
0 29 6 -1.9756 0.1291 
0 29 7 1.0534 -0.0281 
0 29 8 0.1038 0.0322 
0 29 9 -2.2249 0.0365 
0 29 10 5.7011 0.1142 
0 29 11 1.6905 -0.0979 
0 29 12 2.2216 0.2589 
0 29 13 1.8599 -0.1270 
0 29 14 -3.5132 -0.1013 
0 29 15 1.6966 -0.2168 
0 30 0 2.4452 -0.0312 
0 30 1 0.2122 -0.0982 
0 30 2 -0.9137 -0.1591 
0 30 3 -0.1581 -0.0595 
0 30 4 4.6847 -0.2155 
0 30 5 -1.2030 0.0338 
0 30 6 3.9778 -0.0312 
0 30 7 2.2397 -0.1165 
0 30 8 -2.4233 -0.0677 
0 30 9 -2.4942 0.2992 
0 30 10 -0.8026 -0.3618 
0 30 11 -2.4771 0.1292 
0 30 12 4.5678 0.1401 
0 30 13 0.7079 0.2209 
0 31 1 -0.9603 0.1877 
0 31 2 -1.3200 -0.0330 
0 31 3 -1.0979 -0.1836 
0 31 4 -5.9031 -0.1830 
0 31 5 -0.8324 0.0635 
0 31 6 3.0845 -0.2068 
0 31 7 0.0978 -0.1049 
0 31 8 2.7116 0.1929 
0 31 9 1.9905 -0.0835 
0 31 10 -2.8175 -0.1162 
0 32 0 -0.8073 0.2176 
0 32 1 1.8254 0.2497 
0 32 2 2.7734 0.2049 
0 32 3 -1.6256 0.0784 
0 32 4 -2.5941 -0.0128 
0 32 5 0.0478 -0.0930 
0 32 6 -5.2940 0.0103 
1 0 1 80.6509 -1.7668 
1 0 7 -13.8080 -0.4894 
1 0 9 -14.0779 0.3883 
1 0 11 -5.8140 -1.5748 
1 0 13 -7.0852 -0.1377 
1 0 15 -3.6617 0.5765 
1 0 17 -0.2918 -0.4734 
1 0 19 3.5648 1.1142 
1 0 21 1.8527 -0.0645 
1 0 23 -2.6712 -0.2523 
1 0 25 0.5713 0.3697 
1 0 27 -1.1393 -0.9185 
1 0 29 -0.2110 0.3676 
1 0 31 2.7254 -0.1172 
1 0 33 0.2598 0.1894 
1 1 1 114.2790 -3.0178 
1 1 2 -40.5259 1.8397 
1 1 3 73.0075 -1.3990 
1 1 4 -20.0183 -0.9769 
1 1 5 6.9395 0.4456 
1 1 6 20.9123 1.4845 
1 1 7 5.4078 0.9341 
1 1 8 3.6671 -0.6054 
1 1 9 -0.9597 0.2450 
1 1 10 3.8384 -0.6175 
1 1 11 1.4365 0.9819 
1 1 12 2.0311 0.9067 
1 1 13 -0.3468 -1.7485 
1 1 14 1.2396 -1.2248 
1 1 15 -2.3667 0.3956 
1 1 16 0.4231 0.7497 
1 1 17 -4.2907 -0.6195 
1 1 18 -1.4807 0.1062 
1 1 19 -1.9418 -0.5126 
1 1 20 1.0839 -0.4991 
1 1 21 3.5040 1.1601 
1 1 22 -1.3198 0.9304 
1 1 23 0.5652 -0.6298 
1 1 24 -1.3126 -0.7148 
1 1 25 -0.2760 0.8006 
1 1 26 -0.0942 0.1987 
1 1 27 0.2090 -0.1451 
1 1 28 -0.5885 0.2799 
1 1 29 -1.3807 -0.3925 
1 1 30 -0.6195 -0.4238 
1 1 31 -0.6684 0.1272 
1 1 32 0.2590 0.4375 
1 1 33 3.2111 -0.1858 
1 2 1 -58.5098 1.2725 
1 2 2 24.8221 -0.2254 
1 2 3 14.9354 -0.9336 
1 2 4 -60.9053 -0.0869 
1 2 5 38.2110 -1.3633 
1 2 6 -27.7510 -0.2558 
1 2 7 16.3134 0.8844 
1 2 8 0.8066 1.2444 
1 2 9 1.4251 -0.9157 
1 2 10 -2.4164 -1.0192 
1 2 11 4.7286 1.5350 
1 2 12 2.4386 0.2869 
1 2 13 3.1757 0.0319 
1 2 14 1.1729 -0.1212 
1 2 15 5.8323 -0.6432 
1 2 16 2.4790 -1.1641 
1 2 17 0.8057 0.7468 
1 2 18 -0.3059 0.8306 
1 2 19 -2.8065 -1.3311 
1 2 20 1.0493 -0.6410 
1 2 21 -2.4888 0.1986 
1 2 22 3.9468 0.4041 
1 2 23 1.4028 0.1695 
1 2 24 -0.1593 0.5123 
1 2 25 -0.2811 -0.4379 
1 2 26 0.7059 -0.5019 
1 2 27 0.0153 0.9365 
1 2 28 1.6566 0.5038 
1 2 29 1.2247 -0.3303 
1 2 30 0.2801 -0.4332 
1 2 31 -1.1006 0.1066 
1 2 32 0.6912 0.2842 
1 2 33 0.4180 -0.0034 
1 3 1 -15.7956 1.3565 
1 3 2 57.7072 -2.2928 
1 3 3 -52.3802 1.1192 
1 3 4 32.3321 0.1549 
1 3 5 -24.5636 -0.8052 
1 3 6 -24.2478 -1.3665 
1 3 7 19.2745 -0.1655 
1 3 8 -18.9703 0.5675 
1 3 9 3.5962 0.1199 
1 3 10 -10.6201 0.6165 
1 3 11 -1.8747 -1.0917 
1 3 12 -4.1776 -0.2135 
1 3 13 -0.9663 1.6654 
1 3 14 -1.1755 1.0254 
1 3 15 0.5381 -0.9173 
1 3 16 0.6184 -0.6599 
1 3 17 3.6875 0.6056 
1 3 18 -0.0261 -0.3298 
1 3 19 1.9519 0.4762 
1 3 20 -2.4259 -0.0193 
1 3 21 -0.7493 -1.1220 
1 3 22 1.6324 -0.7851 
1 3 23 -1.3018 0.8093 
1 3 24 3.0240 0.4054 
1 3 25 0.5085 -0.8134 
1 3 26 -0.8700 0.1345 
1 3 27 -2.0785 0.1319 
1 3 28 0.4793 -0.0511 
1 3 29 -1.4278 0.3140 
1 3 30 1.4858 0.4765 
1 3 31 0.1953 -0.2277 
1 3 32 -1.0550 -1.2062 
1 4 1 18.2097 -0.6022 
1 4 2 6.4462 0.5846 
1 4 3 22.1489 0.4683 
1 4 4 36.1418 0.2414 
1 4 5 -32.6262 0.8681 
1 4 6 37.3419 -0.1404 
1 4 7 -15.1115 -1.1417 
1 4 8 11.2710 -1.0649 
1 4 9 8.6988 1.3738 
1 4 10 -5.5220 0.2265 
1 4 11 2.0022 -1.0935 
1 4 12 -4.1041 -0.0192 
1 4 13 0.2600 0.2248 
1 4 14 -2.1876 0.2886 
1 4 15 -1.5825 0.5586 
1 4 16 1.1148 0.9548 
1 4 17 -0.7809 -1.1257 
1 4 18 -0.7941 -0.3388 
1 4 19 -0.7837 1.1526 
1 4 20 -0.6036 0.3475 
1 4 21 0.9045 -0.4444 
1 4 22 -4.3605 -0.3659 
1 4 23 -0.7386 -0.1800 
1 4 24 1.3016 -0.6549 
1 4 25 0.4473 0.6085 
1 4 26 0.6157 0.1986 
1 4 27 1.0469 -0.8665 
1 4 28 -3.1902 -0.4202 
1 4 29 -2.3588 0.5552 
1 4 30 -0.0504 0.5909 
1 4 31 -1.7895 -0.4699 
1 4 32 -1.4964 -0.1850 
1 5 1 -17.3696 0.2687 
1 5 2 -10.0138 1.3333 
1 5 3 13.1738 -0.6340 
1 5 4 -13.4152 0.0017 
1 5 5 10.0865 0.7822 
1 5 6 0.6236 1.3462 
1 5 7 -16.9099 -0.6642 
1 5 8 23.9012 -0.3189 
1 5 9 -12.1167 -0.5074 
1 5 10 13.8011 -0.4122 
1 5 11 -1.0288 1.0311 
1 5 12 1.7617 -0.3464 
1 5 13 0.1543 -1.1488 
1 5 14 -1.0660 -0.5183 
1 5 15 0.9020 1.2460 
1 5 16 2.6158 0.2246 
1 5 17 0.9781 -0.3699 
1 5 18 0.6910 0.3493 
1 5 19 -0.4430 -0.4024 
1 5 20 0.9021 0.2025 
1 5 21 -0.2645 0.9288 
1 5 22 -0.2488 0.5182 
1 5 23 0.0452 -0.9763 
1 5 24 -2.5789 -0.1288 
1 5 25 0.5590 0.5734 
1 5 26 3.1361 -0.2300 
1 5 27 2.3764 -0.0177 
1 5 28 1.0473 0.1294 
1 5 29 2.9262 -0.2417 
1 5 30 -0.6251 -0.4699 
1 5 31 0.1547 0.7933 
1 5 32 1.3488 0.9908 
1 6 1 3.3750 0.3524 
1 6 2 -15.6998 -0.1302 
1 6 3 3.0797 -0.0578 
1 6 4 -2.4393 -0.4614 
1 6 5 6.7408 0.1268 
1 6 6 -20.6146 0.2765 
1 6 7 9.4123 1.2664 
1 6 8 -10.3042 0.6148 
1 6 9 -5.1051 -1.4574 
1 6 10 5.6828 0.3660 
1 6 11 -8.8253 0.5398 
1 6 12 6.5006 -0.0180 
1 6 13 -4.0291 -0.3977 
1 6 14 -0.1775 -0.0680 
1 6 15 -1.5034 -0.4846 
1 6 16 -0.1146 -0.5789 
1 6 17 1.8023 1.0856 
1 6 18 2.2201 0.0248 
1 6 19 0.2668 -0.7593 
1 6 20 -1.1224 -0.1810 
1 6 21 2.1624 0.4471 
1 6 22 0.6981 0.2275 
1 6 23 0.0936 0.2690 
1 6 24 -1.9136 0.2506 
1 6 25 0.3454 -0.8110 
1 6 26 -1.7136 -0.0299 
1 6 27 0.6786 0.7235 
1 6 28 1.9827 0.1191 
1 6 29 2.3985 -0.7550 
1 6 30 0.7787 0.0839 
1 6 31 3.6208 0.3448 
1 6 32 0.5910 -0.3626 
1 7 1 -4.3089 -0.7674 
1 7 2 -3.2945 -0.8174 
1 7 3 11.3416 0.1234 
1 7 4 3.3949 0.1739 
1 7 5 4.3706 -0.9354 
1 7 6 -0.0739 -0.6646 
1 7 7 8.9032 1.0287 
1 7 8 -7.8311 -0.0074 
1 7 9 14.4901 0.5543 
1 7 10 -8.6964 -0.0195 
1 7 11 2.9164 -0.6014 
1 7 12 -0.3954 0.2670 
1 7 13 -1.4917 0.7779 
1 7 14 0.6179 0.2223 
1 7 15 -3.3374 -1.0766 
1 7 16 -0.6988 0.0441 
1 7 17 0.7261 0.0826 
1 7 18 0.0318 -0.1185 
1 7 19 -0.4296 0.3918 
1 7 20 1.1101 -0.1968 
1 7 21 -0.5464 -0.7014 
1 7 22 0.4360 -0.1026 
1 7 23 0.3192 0.9019 
1 7 24 -0.2030 -0.0611 
1 7 25 -1.0938 -0.3291 
1 7 26 -2.0432 0.0174 
1 7 27 -1.9703 -0.1024 
1 7 28 -1.3574 -0.1950 
1 7 29 -1.2184 0.2667 
1 7 30 1.3454 0.1704 
1 7 31 -0.0997 -0.9461 
1 7 32 -0.1594 -0.0051 
1 8 1 -10.4753 -0.3894 
1 8 2 -5.9627 -0.1090 
1 8 3 -7.1796 0.0449 
1 8 4 1.0236 0.0595 
1 8 5 -1.7533 -0.3052 
1 8 6 -3.1912 -0.0726 
1 8 7 -8.8024 -1.1079 
1 8 8 0.4850 0.0609 
1 8 9 5.3259 0.9043 
1 8 10 -3.1569 -0.3382 
1 8 11 7.6585 -0.3077 
1 8 12 -4.2735 0.0510 
1 8 13 4.8882 0.4155 
1 8 14 -2.5048 -0.1423 
1 8 15 -0.2732 0.5926 
1 8 16 -0.4817 0.2117 
1 8 17 -1.5005 -0.8721 
1 8 18 0.2084 0.0343 
1 8 19 0.0025 0.6459 
1 8 20 -1.3931 0.1472 
1 8 21 -0.0515 -0.3775 
1 8 22 2.2453 -0.1910 
1 8 23 -0.5294 -0.1465 
1 8 24 2.7438 0.1996 
1 8 25 -0.7711 0.5666 
1 8 26 0.8222 -0.1477 
1 8 27 -1.2550 -0.2211 
1 8 28 -1.9083 0.1388 
1 8 29 -1.3329 0.5268 
1 8 30 0.4554 -0.1766 
1 8 31 0.0297 0.3849 
1 8 32 1.5688 0.4028 
1 9 1 -3.1800 0.8038 
1 9 2 -1.6142 0.4397 
1 9 3 -1.8485 -0.2614 
1 9 4 6.7990 -0.1449 
1 9 5 3.2882 0.8239 
1 9 6 0.7651 0.0866 
1 9 7 -8.7505 -0.4918 
1 9 8 -2.6833 0.0022 
1 9 9 -8.0823 -0.4209 
1 9 10 0.8239 0.1418 
1 9 11 -1.7029 0.2873 
1 9 12 -1.5144 -0.0793 
1 9 13 2.8062 -0.7164 
1 9 14 -1.6432 0.0491 
1 9 15 2.4596 0.7360 
1 9 16 -3.8648 -0.0962 
1 9 17 1.9491 -0.1016 
1 9 18 1.1541 -0.0927 
1 9 19 -2.0237 -0.2786 
1 9 20 -1.6655 0.2204 
1 9 21 -1.1820 0.4915 
1 9 22 -2.0968 -0.1147 
1 9 23 1.4245 -0.6432 
1 9 24 -0.3109 0.1146 
1 9 25 0.4155 0.1339 
1 9 26 3.7666 0.1105 
1 9 27 -1.0474 -0.0678 
1 9 28 -1.1031 0.0632 
1 9 29 -1.6225 -0.0187 
1 9 30 -0.4573 0.1074 
1 9 31 2.5112 0.5207 
1 10 1 -1.4068 0.3182 
1 10 2 0.5498 0.1311 
1 10 3 -3.6858 -0.0087 
1 10 4 5.2387 -0.1883 
1 10 5 9.2027 -0.0540 
1 10 6 10.5563 0.1880 
1 10 7 5.3234 0.7010 
1 10 8 2.2413 -0.3187 
1 10 9 -1.5828 -0.4879 
1 10 10 3.2972 0.0809 
1 10 11 -4.6435 0.2421 
1 10 12 2.4676 -0.1624 
1 10 13 -3.0248 -0.2214 
1 10 14 3.3195 0.0450 
1 10 15 -2.0235 -0.4668 
1 10 16 -1.2235 0.1659 
1 10 17 1.3664 0.5675 
1 10 18 -0.5062 -0.0814 
1 10 19 3.3882 -0.4788 
1 10 20 0.5255 0.0673 
1 10 21 -1.2397 0.3233 
1 10 22 -0.5034 0.0592 
1 10 23 -1.1041 -0.0056 
1 10 24 -2.7010 -0.1105 
1 10 25 2.1293 -0.2383 
1 10 26 -1.5285 0.0356 
1 10 27 1.8510 -0.0989 
1 10 28 0.1184 -0.0839 
1 10 29 -2.8295 -0.2920 
1 10 30 -1.7230 -0.2457 
1 10 31 -0.7017 -0.4021 
1 11 1 -0.5256 -0.4906 
1 11 2 -8.3182 0.0557 
1 11 3 -10.6842 0.3242 
1 11 4 -7.8662 -0.0308 
1 11 5 -4.9130 -0.4230 
1 11 6 2.7477 0.1238 
1 11 7 1.9132 0.3014 
1 11 8 2.2221 0.2350 
1 11 9 2.2016 0.1552 
1 11 10 1.4783 -0.0556 
1 11 11 1.6709 -0.1563 
1 11 12 1.2849 0.1377 
1 11 13 -1.7555 0.4513 
1 11 14 5.0171 -0.2163 
1 11 15 -1.9026 -0.3694 
1 11 16 2.5418 -0.0012 
1 11 17 -5.2592 0.0254 
1 11 18 0.0554 0.1613 
1 11 19 0.4052 0.1524 
1 11 20 1.3025 -0.0750 
1 11 21 1.1772 -0.3016 
1 11 22 -0.3445 0.1545 
1 11 23 1.7605 0.3265 
1 11 24 0.8770 -0.2222 
1 11 25 -1.7068 -0.1243 
1 11 26 -1.0374 -0.0243 
1 11 27 2.7159 0.1033 
1 11 28 -1.9654 -0.0913 
1 11 29 -0.1876 -0.0384 
1 11 30 -4.3182 0.0910 
1 11 31 -0.3743 0.1036 
1 12 1 8.3269 -0.2986 
1 12 2 4.3300 -0.1133 
1 12 3 -0.0123 0.0240 
1 12 4 -7.4640 0.0842 
1 12 5 -3.7130 -0.0097 
1 12 6 -4.4409 -0.2635 
1 12 7 -3.2858 -0.2245 
1 12 8 -1.3438 0.2760 
1 12 9 -2.3808 0.2636 
1 12 10 -0.6707 -0.0749 
1 12 11 0.8741 -0.1573 
1 12 12 -3.7885 0.1790 
1 12 13 1.6085 0.0937 
1 12 14 -0.2113 0.0458 
1 12 15 1.9269 0.1794 
1 12 16 3.7201 -0.2795 
1 12 17 -1.8635 -0.2482 
1 12 18 -0.6125 -0.0873 
1 12 19 -2.5396 0.1710 
1 12 20 -0.0743 -0.1043 
1 12 21 -2.7303 0.0026 
1 12 22 1.3507 0.0979 
1 12 23 -0.5766 -0.0936 
1 12 24 -0.0762 0.0797 
1 12 25 1.8701 0.1671 
1 12 26 2.4207 0.0109 
1 12 27 -1.0651 -0.0462 
1 12 28 2.3047 -0.1842 
1 12 29 -1.7166 0.0867 
1 12 30 -1.5287 0.2599 
1 13 1 11.3937 0.1667 
1 13 2 6.4294 -0.0036 
1 13 3 6.1111 -0.1662 
1 13 4 5.8995 0.0487 
1 13 5 2.8564 0.0810 
1 13 6 -0.3800 -0.2638 
1 13 7 2.6928 -0.1237 
1 13 8 -0.6417 -0.1097 
1 13 9 -0.2247 -0.1680 
1 13 10 0.1616 -0.0818 
1 13 11 -0.6851 0.1261 
1 13 12 -0.3876 -0.1096 
1 13 13 0.6744 -0.1336 
1 13 14 -6.0101 0.0584 
1 13 15 3.7657 0.2175 
1 13 16 1.2047 0.1310 
1 13 17 2.1310 0.0324 
1 13 18 1.7235 -0.1725 
1 13 19 -1.3262 -0.0354 
1 13 20 -0.3837 0.0569 
1 13 21 1.2678 0.2167 
1 13 22 -0.1182 -0.2682 
1 13 23 -3.2193 0.0403 
1 13 24 1.2976 0.1130 
1 13 25 0.3823 0.0939 
1 13 26 1.5480 0.1250 
1 13 27 3.7677 0.0749 
1 13 28 3.3205 0.1649 
1 13 29 -0.3474 -0.1994 
1 13 30 1.1028 -0.6006 
1 14 1 -6.3336 0.0779 
1 14 2 -3.2684 0.0970 
1 14 3 4.3193 0.0651 
1 14 4 -1.1778 0.1199 
1 14 5 0.9182 -0.0238 
1 14 6 2.7906 0.2015 
1 14 7 1.9015 0.2355 
1 14 8 0.6634 -0.1209 
1 14 9 1.6393 -0.0858 
1 14 10 -1.1053 0.1030 
1 14 11 1.7191 -0.1078 
1 14 12 1.5208 0.0299 
1 14 13 -0.5065 -0.0192 
1 14 14 -1.1067 -0.0218 
1 14 15 2.4352 -0.0509 
1 14 16 -3.5827 0.0057 
1 14 17 5.9874 0.0408 
1 14 18 0.2063 0.0668 
1 14 19 0.7164 -0.0434 
1 14 20 -0.0447 0.0279 
1 14 21 -0.0469 -0.1639 
1 14 22 0.9657 0.1083 
1 14 23 1.1046 -0.0739 
1 14 24 -0.9457 -0.3477 
1 14 25 -3.2671 -0.2538 
1 14 26 0.2351 -0.0722 
1 14 27 2.2160 0.0819 
1 14 28 2.4482 0.3029 
1 14 29 3.7369 0.0243 
1 15 1 -8.3058 -0.1956 
1 15 2 1.8324 -0.0518 
1 15 3 -5.5779 -0.0236 
1 15 4 -3.3793 -0.0507 
1 15 5 0.5763 0.0064 
1 15 6 -3.3945 0.0595 
1 15 7 -0.5928 -0.0354 
1 15 8 1.1203 0.1611 
1 15 9 -0.3216 0.2896 
1 15 10 0.4290 -0.1421 
1 15 11 -1.8020 -0.1653 
1 15 12 -2.1943 0.0921 
1 15 13 0.3210 -0.0198 
1 15 14 0.5094 0.1512 
1 15 15 -3.2013 -0.1659 
1 15 16 -1.2038 -0.0177 
1 15 17 2.6631 0.0051 
1 15 18 -0.4758 0.0100 
1 15 19 3.2566 -0.0563 
1 15 20 -2.6939 -0.0478 
1 15 21 -0.3436 0.1604 
1 15 22 -1.4325 0.1824 
1 15 23 1.9274 -0.0355 
1 15 24 1.3697 0.0938 
1 15 25 -1.7844 -0.0208 
1 15 26 -1.9441 -0.2355 
1 15 27 -2.4166 -0.3930 
1 15 28 2.0676 -0.0510 
1 15 29 1.4206 -0.0186 
1 16 1 3.4476 0.0571 
1 16 2 0.4157 -0.0883 
1 16 3 -1.1296 -0.1500 
1 16 4 3.9926 0.0568 
1 16 5 -2.7562 -0.0943 
1 16 6 -1.4415 -0.2111 
1 16 7 -0.0601 -0.0396 
1 16 8 -0.6518 0.0502 
1 16 9 1.2162 0.0421 
1 16 10 2.8063 -0.0017 
1 16 11 -2.4604 0.1551 
1 16 12 2.1251 -0.1633 
1 16 13 -2.7931 0.0246 
1 16 14 -0.5501 0.0106 
1 16 15 -2.4253 -0.0167 
1 16 16 -0.2148 0.1554 
1 16 17 -3.9648 0.0311 
1 16 18 0.5140 -0.0252 
1 16 19 1.6187 -0.0293 
1 16 20 0.3237 0.1639 
1 16 21 -2.1489 0.1199 
1 16 22 -4.1301 -0.0226 
1 16 23 0.6941 0.1845 
1 16 24 -1.2466 0.2112 
1 16 25 3.2443 0.3247 
1 16 26 -0.5038 0.0148 
1 16 27 -0.1403 0.4173 
1 16 28 -0.6043 -0.4525 
1 17 1 1.1186 0.1529 
1 17 2 -0.7429 -0.0220 
1 17 3 2.9825 0.1717 
1 17 4 0.5872 -0.0129 
1 17 5 -0.6651 -0.1706 
1 17 6 0.8627 0.1691 
1 17 7 -1.6205 -0.0526 
1 17 8 -2.0167 -0.1046 
1 17 9 0.3952 -0.0574 
1 17 10 0.4685 0.0809 
1 17 11 2.4963 -0.0489 
1 17 12 1.5597 -0.0219 
1 17 13 -1.4729 0.1005 
1 17 14 3.3525 -0.1125 
1 17 15 0.0386 -0.0779 
1 17 16 0.1262 -0.0420 
1 17 17 -2.1571 -0.0753 
1 17 18 1.2830 -0.0665 
1 17 19 -0.5793 -0.1325 
1 17 20 2.1797 -0.1683 
1 17 21 0.9962 -0.0851 
1 17 22 -0.8889 0.1982 
1 17 23 -4.5189 -0.1304 
1 17 24 -3.7018 -0.1349 
1 17 25 0.2917 -0.2027 
1 17 26 -1.1994 0.4110 
1 17 27 0.7566 0.2285 
1 17 28 -1.5960 0.0099 
1 18 1 -1.3679 -0.1035 
1 18 2 -3.4299 0.0161 
1 18 3 2.2213 0.1618 
1 18 4 -0.1667 -0.0680 
1 18 5 1.9986 0.0872 
1 18 6 -0.6029 -0.1047 
1 18 7 -1.1364 -0.0636 
1 18 8 -1.8646 0.1460 
1 18 9 -0.1932 0.1055 
1 18 10 -1.4082 -0.1791 
1 18 11 -0.4788 -0.1257 
1 18 12 -1.2074 0.0519 
1 18 13 0.4092 0.0075 
1 18 14 0.1577 0.0337 
1 18 15 -0.3092 0.1014 
1 18 16 1.8361 -0.0300 
1 18 17 0.7649 -0.0415 
1 18 18 -1.2054 0.2022 
1 18 19 -0.6892 -0.0460 
1 18 20 3.1621 -0.2904 
1 18 21 1.4815 -0.0762 
1 18 22 3.5210 0.0516 
1 18 23 -0.0072 0.0982 
1 18 24 -0.5917 -0.0349 
1 18 25 -1.8018 -0.1529 
1 18 26 -1.8576 -0.0841 
1 18 27 -1.6686 -0.0054 
1 19 1 -4.1007 -0.0647 
1 19 2 1.1371 -0.0992 
1 19 3 -1.4069 -0.0934 
1 19 4 3.1462 0.2251 
1 19 5 2.8340 0.1319 
1 19 6 1.6835 -0.1183 
1 19 7 -0.6434 -0.0841 
1 19 8 0.7539 0.1446 
1 19 9 1.0485 0.1771 
1 19 10 -0.1575 0.0754 
1 19 11 2.1327 0.1819 
1 19 12 0.0193 -0.2348 
1 19 13 -1.4726 -0.0382 
1 19 14 -0.8928 0.1471 
1 19 15 0.2749 0.1745 
1 19 16 0.8540 -0.1649 
1 19 17 -1.5626 0.0777 
1 19 18 -0.2845 0.2446 
1 19 19 -0.6013 0.1422 
1 19 20 -2.3805 0.1170 
1 19 21 -0.4575 -0.1116 
1 19 22 1.8823 -0.1275 
1 19 23 -0.5967 0.1414 
1 19 24 3.7053 -0.0014 
1 19 25 -1.3309 -0.2757 
1 19 26 0.4058 -0.2066 
1 20 1 0.5693 0.1483 
1 20 2 -1.5896 -0.1564 
1 20 3 -3.9465 -0.1619 
1 20 4 0.9323 0.0079 
1 20 5 0.7604 0.1042 
1 20 6 3.5889 0.1107 
1 20 7 -0.7779 -0.1274 
1 20 8 -1.1219 -0.0614 
1 20 9 -2.2587 -0.0877 
1 20 10 1.5867 0.3853 
1 20 11 2.1446 0.0068 
1 20 12 -0.9917 -0.1371 
1 20 13 1.8591 0.0467 
1 20 14 0.2064 -0.0986 
1 20 15 0.6300 -0.0910 
1 20 16 0.5104 -0.0693 
1 20 17 2.8808 0.0212 
1 20 18 0.3092 -0.3633 
1 20 19 -0.9526 -0.0053 
1 20 20 -0.5549 0.2011 
1 20 21 -0.3818 -0.0502 
1 20 22 -2.6943 -0.0910 
1 20 23 0.2119 0.0776 
1 20 24 -1.1377 0.0866 
1 20 25 -3.4615 -0.0850 
1 21 1 1.5835 0.1170 
1 21 2 -1.8855 0.0649 
1 21 3 -2.1367 0.1104 
1 21 4 -4.8649 -0.3144 
1 21 5 0.5469 -0.0827 
1 21 6 1.2241 0.0273 
1 21 7 0.7199 0.0281 
1 21 8 -1.5428 -0.2082 
1 21 9 -1.5133 -0.1509 
1 21 10 -1.9634 0.0524 
1 21 11 -1.4788 -0.0854 
1 21 12 -0.4367 0.2894 
1 21 13 -0.2292 -0.0392 
1 21 14 -3.2892 -0.1368 
1 21 15 -0.3436 0.0618 
1 21 16 0.9989 0.1699 
1 21 17 1.9340 0.0150 
1 21 18 1.5091 -0.2271 
1 21 19 3.9258 0.1631 
1 21 20 -0.4885 -0.1216 
1 21 21 1.7468 -0.0157 
1 21 22 1.0484 -0.0270 
1 21 23 1.0627 0.1385 
1 21 24 -2.0116 0.1495 
1 21 25 1.9776 0.3202 
1 22 1 2.8788 -0.1917 
1 22 2 0.9335 0.2524 
1 22 3 1.6705 0.1201 
1 22 4 -1.7183 -0.0188 
1 22 5 -0.4315 0.0195 
1 22 6 -0.3553 -0.0752 
1 22 7 2.7228 0.0658 
1 22 8 1.0110 0.0160 
1 22 9 -0.9875 -0.0162 
1 22 10 -0.0216 -0.1604 
1 22 11 2.3604 -0.0194 
1 22 12 0.2800 0.1162 
1 22 13 -0.8458 -0.0798 
1 22 14 -0.3054 0.2191 
1 22 15 -1.3670 0.0114 
1 22 16 -2.7632 0.0139 
1 22 17 -1.9428 -0.0462 
1 22 18 2.3893 0.2664 
1 22 19 -0.1740 0.0277 
1 22 20 2.2743 -0.2171 
1 22 21 2.4427 0.1014 
1 22 22 -0.3569 0.0075 
1 22 23 1.0184 -0.1942 
1 22 24 0.3187 -0.1296 
1 23 1 -3.0658 -0.1566 
1 23 2 2.4651 -0.1714 
1 23 3 0.7571 -0.1613 
1 23 4 -0.0636 0.2606 
1 23 5 0.2935 0.0633 
1 23 6 0.6944 -0.1217 
1 23 7 2.6036 -0.0251 
1 23 8 -0.9661 0.0556 
1 23 9 -0.9801 0.1365 
1 23 10 0.2967 -0.0308 
1 23 11 0.2357 -0.0414 
1 23 12 0.7878 -0.2619 
1 23 13 1.8061 -0.0447 
1 23 14 0.5848 0.0875 
1 23 15 1.0965 -0.0810 
1 23 16 0.5095 -0.0349 
1 23 17 -1.3015 -0.1106 
1 23 18 -2.9368 0.1729 
1 23 19 -1.3815 -0.1880 
1 23 20 1.9185 0.1412 
1 23 21 -1.7786 -0.0879 
1 23 22 2.8332 -0.0531 
1 23 23 1.6518 -0.0409 
1 24 1 -0.0527 0.0342 
1 24 2 -0.6941 -0.1146 
1 24 3 -2.5097 -0.0671 
1 24 4 2.2215 -0.0328 
1 24 5 -2.5636 0.0093 
1 24 6 1.3978 -0.0168 
1 24 7 1.5407 -0.0468 
1 24 8 1.6678 -0.1919 
1 24 9 -0.8418 0.0506 
1 24 10 -3.2124 0.0906 
1 24 11 -1.2767 0.0838 
1 24 12 -0.2570 -0.1245 
1 24 13 -2.1926 -0.0459 
1 24 14 -2.6097 -0.1622 
1 24 15 -0.5204 0.1138 
1 24 16 1.8662 0.0672 
1 24 17 1.3653 0.0097 
1 24 18 -0.2332 -0.0645 
1 24 19 -0.2886 0.1905 
1 24 20 -3.7521 0.2980 
1 24 21 0.2810 -0.0912 
1 24 22 1.0534 -0.0779 
1 25 1 0.0601 0.0821 
1 25 2 -2.5215 0.2122 
1 25 3 2.6855 -0.0170 
1 25 4 -1.3781 -0.1026 
1 25 5 -2.7486 0.0275 
1 25 6 1.1836 0.1483 
1 25 7 0.2210 -0.0024 
1 25 8 4.5949 -0.0641 
1 25 9 0.7107 -0.0612 
1 25 10 0.8016 0.0466 
1 25 11 -1.0133 0.1660 
1 25 12 1.6544 0.1437 
1 25 13 1.1786 -0.1109 
1 25 14 -3.8939 -0.1099 
1 25 15 -3.5601 0.0766 
1 25 16 -1.1634 0.0857 
1 25 17 -0.3316 -0.0654 
1 25 18 3.1740 -0.1147 
1 25 19 -1.6852 0.0116 
1 25 20 0.0477 0.0746 
1 26 1 0.0340 0.0451 
1 26 2 -0.0517 -0.0248 
1 26 3 -0.2616 0.0337 
1 26 4 -3.2871 0.1251 
1 26 5 1.7883 0.0330 
1 26 6 -3.4505 0.0009 
1 26 7 -1.5022 0.0811 
1 26 8 2.6302 -0.0107 
1 26 9 2.2654 -0.1116 
1 26 10 1.0361 0.0419 
1 26 11 0.3171 0.0068 
1 26 12 4.0233 0.0570 
1 26 13 2.0445 -0.0283 
1 26 14 2.3796 -0.0391 
1 26 15 1.1356 -0.1471 
1 26 16 -5.8448 -0.0995 
1 26 17 1.2068 0.1216 
1 26 18 -0.2050 -0.0199 
1 26 19 -0.0039 -0.1878 
1 27 1 1.7725 -0.0726 
1 27 2 1.1289 -0.0396 
1 27 3 -1.7673 -0.0326 
1 27 4 1.2847 0.1630 
1 27 5 0.9049 -0.0500 
1 27 6 -3.6866 0.2856 
1 27 7 -0.1467 -0.0387 
1 27 8 -1.5525 0.0084 
1 27 9 -1.0387 0.0575 
1 27 10 0.2134 -0.0740 
1 27 11 -1.7459 -0.0963 
1 27 12 -2.3465 0.0436 
1 27 13 1.8963 0.0648 
1 27 14 5.0175 -0.0473 
1 27 15 -1.2668 -0.1605 
1 27 16 -0.3593 -0.0624 
1 27 17 0.5135 0.0735 
1 27 18 -2.5484 -0.1032 
1 28 1 0.8866 0.0725 
1 28 2 0.6020 -0.0992 
1 28 3 -1.2272 -0.1415 
1 28 4 2.0528 -0.1957 
1 28 5 -2.8106 -0.0448 
1 28 6 -0.3538 0.0726 
1 28 7 0.1342 -0.0287 
1 28 8 -1.0943 0.2989 
1 28 9 1.9370 -0.0551 
1 28 10 0.3855 0.0420 
1 28 11 -3.7190 0.1743 
1 28 12 -0.9698 0.1050 
1 28 13 -1.5147 -0.0567 
1 28 14 -0.5146 0.0325 
1 28 15 1.5404 0.1148 
1 28 16 1.9737 0.0123 
1 29 1 -0.1551 0.0576 
1 29 2 -1.2567 -0.0482 
1 29 3 2.9793 0.0822 
1 29 4 0.5185 -0.1134 
1 29 5 -1.7860 -0.0201 
1 29 6 -0.2439 -0.3076 
1 29 7 -2.7052 0.1599 
1 29 8 -2.1950 -0.1372 
1 29 9 2.5491 -0.0382 
1 29 10 1.4931 -0.0083 
1 29 11 2.9163 0.2279 
1 29 12 -0.2747 -0.0641 
1 29 13 -2.6953 0.0908 
1 29 14 1.2602 -0.0149 
1 30 1 -0.9383 0.1177 
1 30 2 1.3563 -0.1161 
1 30 3 2.3585 -0.0347 
1 30 4 0.2212 0.0559 
1 30 5 6.9920 0.1165 
1 30 6 3.6007 0.0928 
1 30 7 -2.1962 0.0367 
1 30 8 -2.7120 -0.1218 
1 30 9 -0.1498 0.0240 
1 30 10 -0.9933 -0.0478 
1 30 11 1.7608 -0.1769 
1 30 12 -0.6161 0.0190 
1 31 1 -0.2427 0.1372 
1 31 2 -0.5434 -0.1575 
1 31 3 -4.9286 -0.1090 
1 31 4 -0.9637 -0.5565 
1 31 5 2.5788 -0.1041 
1 31 6 1.0776 0.0791 
1 31 7 3.9997 -0.0259 
1 31 8 3.1303 0.1066 
1 31 9 -1.9038 0.1406 
1 32 1 -0.4802 -0.0189 
1 32 2 -0.0973 0.7153 
1 32 3 -0.6747 0.1295 
1 32 4 -2.1472 -0.2768 
1 32 5 -6.9106 -0.2153 
2 0 2 -37.0319 -2.1109 
2 0 6 -12.4620 -0.0575 
2 0 8 -14.8313 -1.5430 
2 0 10 -8.5200 0.9186 
2 0 12 -7.7593 0.0792 
2 0 14 -2.8338 0.3446 
2 0 16 0.7624 1.0441 
2 0 18 1.8657 -1.1738 
2 0 20 1.6169 0.2199 
2 0 22 -1.3077 -0.3078 
2 0 24 1.4565 -0.4883 
2 0 26 -0.1240 0.8366 
2 0 28 0.1306 -0.3493 
2 0 30 2.2471 0.3931 
2 0 32 -0.6510 -0.0086 
2 1 2 73.4021 -0.0261 
2 1 3 -20.2728 1.8247 
2 1 4 12.1486 -0.7304 
2 1 5 16.4955 -1.7150 
2 1 6 2.7632 -0.4873 
2 1 7 5.7819 0.4784 
2 1 8 1.3794 -0.4085 
2 1 9 1.3618 0.2389 
2 1 10 -0.5823 -1.4704 
2 1 11 1.8935 -0.6976 
2 1 12 -1.3504 0.8771 
2 1 13 1.5902 1.4225 
2 1 14 -2.8242 -1.1076 
2 1 15 2.2304 -0.8461 
2 1 16 -2.8851 1.0493 
2 1 17 -0.7913 0.2223 
2 1 18 -0.9570 0.5052 
2 1 19 -0.2897 0.2215 
2 1 20 1.4838 -0.8068 
2 1 21 -3.1134 -0.9701 
2 1 22 1.7203 0.8990 
2 1 23 -2.1536 0.7224 
2 1 24 -0.0084 -1.0545 
2 1 25 0.7882 -0.3336 
2 1 26 1.4937 0.0722 
2 1 27 -0.4881 0.1483 
2 1 28 -0.8227 0.2304 
2 1 29 -1.3520 0.7648 
2 1 30 0.4368 -0.3673 
2 1 31 -1.0303 -0.5518 
2 1 32 1.9388 0.5775 
2 2 2 5.6111 0.9912 
2 2 3 -41.8986 1.5613 
2 2 4 35.3955 1.5341 
2 2 5 -27.6164 1.0398 
2 2 6 18.9192 -0.2918 
2 2 7 2.2247 -1.6247 
2 2 8 2.7064 1.7149 
2 2 9 -0.1917 0.3620 
2 2 10 4.7937 -1.2675 
2 2 11 0.2771 -1.1936 
2 2 12 2.3912 0.2485 
2 2 13 -0.0501 -0.0812 
2 2 14 4.7784 -0.1285 
2 2 15 3.1560 0.7259 
2 2 16 1.7485 -1.2765 
2 2 17 1.2607 -0.6154 
2 2 18 -1.2770 1.2513 
2 2 19 1.9809 0.8435 
2 2 20 -3.1287 -0.6188 
2 2 21 2.5456 -0.4147 
2 2 22 -0.9056 0.2495 
2 2 23 -2.5641 -0.3825 
2 2 24 0.1870 0.5470 
2 2 25 -1.2498 0.2732 
2 2 26 -0.0870 -0.8557 
2 2 27 2.1057 -0.8330 
2 2 28 1.1469 0.5307 
2 2 29 0.6545 0.6806 
2 2 30 -0.5173 -0.3452 
2 2 31 -0.6622 0.0154 
2 2 32 -0.0567 -0.2678 
2 3 2 -41.3293 -0.3010 
2 3 3 29.2117 -2.0715 
2 3 4 -27.6353 0.5490 
2 3 5 -15.9293 2.2497 
2 3 6 16.3261 -0.2569 
2 3 7 -20.9679 0.0601 
2 3 8 6.8603 0.1472 
2 3 9 -8.4443 -0.0302 
2 3 10 0.1880 1.2641 
2 3 11 -3.7397 0.0978 
2 3 12 -1.3647 -1.1842 
2 3 13 -3.5823 -1.2573 
2 3 14 -0.1950 1.3995 
2 3 15 -0.0479 0.2054 
2 3 16 3.6496 -0.9157 
2 3 17 0.5786 -0.1661 
2 3 18 2.2127 -0.3194 
2 3 19 -0.4838 0.0681 
2 3 20 2.4413 0.7890 
2 3 21 2.6872 0.7406 
2 3 22 -2.7894 -1.0185 
2 3 23 4.1869 -0.3574 
2 3 24 -0.5285 0.9602 
2 3 25 -0.8286 0.2301 
2 3 26 -2.0379 -0.2943 
2 3 27 -0.5193 -0.2738 
2 3 28 -0.7169 -0.1706 
2 3 29 4.0037 -0.5930 
2 3 30 0.8757 0.5330 
2 3 31 0.1954 0.1453 
2 3 32 -0.8623 -0.4801 
2 4 2 20.8182 -0.2861 
2 4 3 23.0989 -1.9239 
2 4 4 -23.9874 -0.2781 
2 4 5 32.9878 -0.7975 
2 4 6 -17.3434 1.2082 
2 4 7 12.8641 1.0692 
2 4 8 5.4925 -1.6641 
2 4 9 -7.5409 0.3220 
2 4 10 5.3302 1.2786 
2 4 11 -3.5977 0.9589 
2 4 12 1.5677 -0.6029 
2 4 13 -3.0618 0.2902 
2 4 14 -1.9450 -0.1646 
2 4 15 -0.2414 -0.6065 
2 4 16 0.4714 1.0189 
2 4 17 -0.5723 0.0974 
2 4 18 -2.1828 -1.1607 
2 4 19 -0.2186 -0.6722 
2 4 20 1.7406 0.6544 
2 4 21 -1.8750 0.2556 
2 4 22 1.4369 -0.1732 
2 4 23 0.7241 0.3051 
2 4 24 -0.0169 -0.4527 
2 4 25 3.6425 -0.1451 
2 4 26 -1.3663 0.8055 
2 4 27 -3.4392 0.4959 
2 4 28 -3.7694 -0.7377 
2 4 29 -0.4057 -0.5272 
2 4 30 -0.9275 0.3625 
2 4 31 1.7414 -0.0164 
2 4 32 -1.3147 -0.1311 
2 5 2 8.1332 -0.0144 
2 5 3 -7.7943 1.4403 
2 5 4 8.9596 -1.2313 
2 5 5 -5.3899 -1.3509 
2 5 6 -9.8039 0.7923 
2 5 7 24.5039 -0.1578 
2 5 8 -13.0558 0.1784 
2 5 9 13.9574 -0.3088 
2 5 10 -3.9250 -0.6336 
2 5 11 3.2759 0.0645 
2 5 12 2.1714 1.2007 
2 5 13 -1.9013 0.7725 
2 5 14 -0.3307 -1.2096 
2 5 15 1.4926 0.1265 
2 5 16 1.6347 0.6231 
2 5 17 1.2220 0.0826 
2 5 18 -0.6810 0.1575 
2 5 19 -1.5352 -0.1660 
2 5 20 -2.6122 -0.8642 
2 5 21 1.1465 -0.5356 
2 5 22 0.3321 0.9950 
2 5 23 -2.9878 0.0900 
2 5 24 2.3737 -0.8333 
2 5 25 1.8722 0.0214 
2 5 26 4.5504 0.4472 
2 5 27 2.3601 0.1389 
2 5 28 -1.7071 0.0993 
2 5 29 -2.3389 0.4326 
2 5 30 0.1057 -0.1935 
2 5 31 1.7678 -0.1787 
2 6 2 3.4068 0.4042 
2 6 3 1.4277 0.7590 
2 6 4 0.8786 -0.0828 
2 6 5 -18.6322 0.2947 
2 6 6 5.8078 -1.3904 
2 6 7 -10.7500 -0.0897 
2 6 8 0.1075 0.9351 
2 6 9 4.6101 -0.3792 
2 6 10 -11.4611 -0.9619 
2 6 11 7.6248 -0.3299 
2 6 12 -5.3881 0.6869 
2 6 13 2.0022 -0.3251 
2 6 14 -3.0950 0.5043 
2 6 15 -1.4713 0.4193 
2 6 16 1.2343 -0.7728 
2 6 17 3.1945 0.0185 
2 6 18 1.5791 1.1448 
2 6 19 -1.5358 0.4031 
2 6 20 -0.1977 -0.6957 
2 6 21 -1.1625 -0.1338 
2 6 22 -0.6145 -0.0535 
2 6 23 -0.7328 -0.2434 
2 6 24 -1.8474 0.3775 
2 6 25 -2.3396 -0.0139 
2 6 26 5.8047 -0.6237 
2 6 27 0.4594 -0.2128 
2 6 28 5.1883 0.6643 
2 6 29 -0.2401 0.4076 
2 6 30 1.3989 -0.3829 
2 6 31 0.3523 0.1430 
2 7 2 5.8375 -0.1879 
2 7 3 4.1571 -0.6827 
2 7 4 8.1043 1.1950 
2 7 5 1.3935 0.5351 
2 7 6 0.2224 -0.2982 
2 7 7 -6.9822 0.0089 
2 7 8 14.4091 -0.2303 
2 7 9 -6.5225 0.1103 
2 7 10 3.3852 0.2118 
2 7 11 -3.8058 -0.0342 
2 7 12 -1.8603 -1.0960 
2 7 13 2.7422 -0.2204 
2 7 14 -4.6976 0.9170 
2 7 15 -0.7152 -0.1025 
2 7 16 -1.0532 -0.3656 
2 7 17 1.1481 -0.1344 
2 7 18 1.8521 -0.0430 
2 7 19 1.3625 0.2458 
2 7 20 0.0056 0.8951 
2 7 21 -0.2231 0.0412 
2 7 22 0.1512 -0.9082 
2 7 23 -1.2800 0.1864 
2 7 24 -2.5122 0.4435 
2 7 25 -1.0308 -0.1833 
2 7 26 -4.9380 -0.4093 
2 7 27 0.0116 0.0501 
2 7 28 1.9578 -0.1616 
2 7 29 -2.0492 -0.4804 
2 7 30 0.7928 0.1717 
2 7 31 -0.2989 0.5252 
2 8 2 -8.1643 -0.3976 
2 8 3 0.5687 -0.4450 
2 8 4 3.0026 -0.2492 
2 8 5 -1.1092 0.1582 
2 8 6 -7.1736 0.9884 
2 8 7 -1.7743 -0.0124 
2 8 8 3.5189 -0.5470 
2 8 9 1.2055 0.1890 
2 8 10 9.5974 0.6475 
2 8 11 -5.1110 -0.1571 
2 8 12 5.5464 -0.4315 
2 8 13 -3.4051 0.1931 
2 8 14 1.1120 -0.6031 
2 8 15 -1.8794 0.0605 
2 8 16 -2.0459 0.5578 
2 8 17 0.7702 -0.0514 
2 8 18 -0.1463 -0.8298 
2 8 19 -0.2168 -0.0282 
2 8 20 1.5286 0.7181 
2 8 21 1.4160 0.0420 
2 8 22 0.0513 0.1996 
2 8 23 2.4590 -0.0650 
2 8 24 0.3922 -0.2503 
2 8 25 -0.6386 0.1073 
2 8 26 -1.5828 0.4799 
2 8 27 0.7195 0.0735 
2 8 28 -4.7654 -0.4637 
2 8 29 1.7300 0.0040 
2 8 30 -1.2352 0.3788 
2 8 31 -0.4986 -0.2008 
2 9 2 -0.7877 0.3960 
2 9 3 0.9739 0.2080 
2 9 4 2.9484 -0.9458 
2 9 5 3.5505 -0.2724 
2 9 6 -4.6661 0.2769 
2 9 7 -5.5643 0.1850 
2 9 8 -9.9057 0.1172 
2 9 9 0.6360 0.0433 
2 9 10 0.2213 -0.2592 
2 9 11 -0.1409 0.0810 
2 9 12 2.4080 0.8872 
2 9 13 -2.4422 -0.2281 
2 9 14 3.7880 -0.6358 
2 9 15 -4.4621 0.0088 
2 9 16 1.0317 0.1946 
2 9 17 -1.1505 0.2219 
2 9 18 -0.3381 -0.2077 
2 9 19 -0.3362 -0.1568 
2 9 20 -2.9830 -0.5290 
2 9 21 -2.0780 0.3202 
2 9 22 1.3843 0.5669 
2 9 23 0.0228 -0.2901 
2 9 24 -0.8692 -0.1574 
2 9 25 2.7544 0.0660 
2 9 26 0.4298 0.1927 
2 9 27 -0.8058 -0.1460 
2 9 28 -0.2218 0.4163 
2 9 29 0.4138 0.2017 
2 9 30 -1.3723 -0.1617 
2 9 31 1.4951 0.0319 
2 10 2 -4.8777 0.4837 
2 10 3 2.1582 0.1790 
2 10 4 7.0200 0.1450 
2 10 5 9.6152 -0.2717 
2 10 6 7.7539 -0.5288 
2 10 7 3.3123 0.1824 
2 10 8 -2.2224 0.4448 
2 10 9 1.6195 -0.2944 
2 10 10 -3.7392 -0.4824 
2 10 11 3.4430 0.3132 
2 10 12 -3.8063 0.1931 
2 10 13 2.9950 -0.0908 
2 10 14 -0.7173 0.4145 
2 10 15 -0.9425 -0.2875 
2 10 16 -0.9462 -0.3629 
2 10 17 -0.9207 0.0157 
2 10 18 3.6311 0.5646 
2 10 19 0.7826 -0.1068 
2 10 20 -0.7370 -0.5518 
2 10 21 -0.1710 0.0912 
2 10 22 -2.4513 -0.1043 
2 10 23 -1.3520 0.1952 
2 10 24 0.7431 0.0103 
2 10 25 -1.9023 -0.0933 
2 10 26 0.6901 -0.3022 
2 10 27 1.3593 0.0108 
2 10 28 -0.3096 0.0123 
2 10 29 -2.3520 -0.1837 
2 10 30 -0.0825 0.0279 
2 11 2 -10.3488 -0.3536 
2 11 3 -6.6589 -0.0415 
2 11 4 -6.7726 0.5986 
2 11 5 0.1856 -0.0813 
2 11 6 1.9189 -0.1342 
2 11 7 3.0977 0.1313 
2 11 8 2.8099 -0.0537 
2 11 9 1.5454 0.0004 
2 11 10 1.9850 0.2065 
2 11 11 2.8272 -0.1904 
2 11 12 -0.4204 -0.4510 
2 11 13 5.5442 0.3970 
2 11 14 -1.5459 0.4589 
2 11 15 3.9709 -0.0513 
2 11 16 -2.6272 -0.1945 
2 11 17 -1.0187 0.0056 
2 11 18 -1.3626 0.1084 
2 11 19 2.1208 0.1957 
2 11 20 4.0487 0.3610 
2 11 21 -0.1247 -0.1389 
2 11 22 1.9731 -0.2706 
2 11 23 1.1769 0.1836 
2 11 24 -1.4024 0.0466 
2 11 25 -0.1638 0.0514 
2 11 26 1.1994 -0.1073 
2 11 27 -1.7516 0.0510 
2 11 28 2.5294 -0.3045 
2 11 29 -2.3405 0.1164 
2 11 30 0.4733 -0.0737 
2 12 2 0.4093 -0.2478 
2 12 3 -6.1593 -0.1123 
2 12 4 -3.7477 -0.1319 
2 12 5 -5.3102 -0.0042 
2 12 6 -3.9075 0.3802 
2 12 7 -2.8712 -0.1855 
2 12 8 -2.7537 -0.0958 
2 12 9 -2.7231 0.3466 
2 12 10 -1.1266 0.0351 
2 12 11 -2.8585 -0.2343 
2 12 12 1.1483 -0.0450 
2 12 13 -1.5616 -0.0925 
2 12 14 0.7755 -0.1558 
2 12 15 6.0090 0.1162 
2 12 16 0.1037 0.3243 
2 12 17 0.1695 -0.3839 
2 12 18 -2.8955 -0.3913 
2 12 19 -1.4349 0.1137 
2 12 20 -1.8948 0.2178 
2 12 21 0.3750 -0.0331 
2 12 22 2.0871 0.0221 
2 12 23 -1.6649 0.0573 
2 12 24 3.4101 -0.0590 
2 12 25 0.4709 0.0259 
2 12 26 -3.3107 0.1061 
2 12 27 1.6152 0.1373 
2 12 28 -1.3897 0.0525 
2 12 29 -0.0693 -0.1281 
2 13 2 6.5766 0.1356 
2 13 3 4.7580 0.0378 
2 13 4 1.5357 -0.3318 
2 13 5 2.4986 -0.0292 
2 13 6 3.0410 -0.0537 
2 13 7 0.0951 -0.1482 
2 13 8 1.0005 0.2250 
2 13 9 -0.3445 -0.1055 
2 13 10 -0.3606 -0.1190 
2 13 11 -1.7459 0.2323 
2 13 12 -1.7434 0.0295 
2 13 13 -6.6848 -0.1694 
2 13 14 0.6825 -0.2345 
2 13 15 -2.7590 0.0208 
2 13 16 1.1306 0.0857 
2 13 17 4.3152 -0.0796 
2 13 18 -0.2229 0.1359 
2 13 19 -0.4968 -0.4364 
2 13 20 -2.3848 -0.1120 
2 13 21 -0.4897 -0.1001 
2 13 22 -2.7074 0.2830 
2 13 23 1.2231 -0.2795 
2 13 24 2.9369 -0.0318 
2 13 25 -0.7288 -0.0535 
2 13 26 4.6884 0.0766 
2 13 27 0.3829 0.0475 
2 13 28 -1.8729 0.0624 
2 13 29 2.7944 -0.0206 
2 14 2 3.6442 -0.0423 
2 14 3 -2.6733 0.2935 
2 14 4 -0.2511 0.0161 
2 14 5 1.4927 0.0007 
2 14 6 -0.7692 -0.2645 
2 14 7 2.5554 0.1627 
2 14 8 1.9973 0.0437 
2 14 9 1.9649 -0.1294 
2 14 10 3.8717 0.0314 
2 14 11 2.1093 0.0334 
2 14 12 2.8381 0.0926 
2 14 13 1.1623 0.3386 
2 14 14 0.2211 -0.0267 
2 14 15 -5.8242 -0.0055 
2 14 16 3.0072 -0.1285 
2 14 17 -0.7356 0.3485 
2 14 18 2.3240 0.0226 
2 14 19 1.9595 0.0567 
2 14 20 0.2466 0.0194 
2 14 21 0.2870 0.0476 
2 14 22 -2.7090 -0.0607 
2 14 23 1.4474 -0.1834 
2 14 24 -3.3462 0.1765 
2 14 25 3.5803 -0.2692 
2 14 26 3.0842 -0.0705 
2 14 27 0.9575 -0.3589 
2 14 28 3.6630 0.1139 
2 14 29 -1.5249 0.2275 
2 15 2 -2.8559 0.0423 
2 15 3 0.9456 0.0274 
2 15 4 -0.2353 0.0749 
2 15 5 -7.0374 0.0390 
2 15 6 -1.3886 0.0465 
2 15 7 -1.6427 0.0214 
2 15 8 -3.6045 -0.0744 
2 15 9 -0.3012 0.0803 
2 15 10 -2.4359 -0.0464 
2 15 11 0.2784 -0.2381 
2 15 12 2.0176 -0.0685 
2 15 13 1.6132 0.0508 
2 15 14 1.0525 0.0802 
2 15 15 1.0553 0.1510 
2 15 16 0.4741 -0.0583 
2 15 17 -2.3381 -0.1045 
2 15 18 2.1626 -0.0709 
2 15 19 0.4485 0.2257 
2 15 20 1.3234 -0.0265 
2 15 21 -1.1786 0.1064 
2 15 22 0.2123 -0.1076 
2 15 23 -1.6346 0.2573 
2 15 24 -3.3056 -0.0810 
2 15 25 1.4494 0.1138 
2 15 26 -3.4939 -0.0320 
2 15 27 4.0661 -0.0945 
2 15 28 -1.5006 -0.1838 
2 16 2 2.6604 0.0508 
2 16 3 6.0965 -0.1824 
2 16 4 -0.3506 -0.0094 
2 16 5 2.5049 0.0511 
2 16 6 1.3168 0.1051 
2 16 7 -2.7961 -0.1588 
2 16 8 0.6676 0.1508 
2 16 9 -0.6197 0.0509 
2 16 10 -2.6582 0.0425 
2 16 11 -0.2303 -0.1221 
2 16 12 -4.9224 -0.0819 
2 16 13 -0.2785 -0.1990 
2 16 14 -1.1561 0.0046 
2 16 15 -0.2526 0.0623 
2 16 16 -2.5189 -0.1032 
2 16 17 -0.9599 0.0825 
2 16 18 0.4948 0.1153 
2 16 19 -0.5859 -0.1300 
2 16 20 -0.3950 -0.0326 
2 16 21 -0.2208 0.1523 
2 16 22 -0.5172 0.1604 
2 16 23 -3.3643 -0.0188 
2 16 24 1.8765 -0.1156 
2 16 25 -3.0898 0.1792 
2 16 26 1.6420 0.2197 
2 16 27 1.0003 0.4274 
2 17 2 -0.6931 -0.1995 
2 17 3 -1.8913 0.0209 
2 17 4 3.7642 0.0046 
2 17 5 3.3994 -0.0012 
2 17 6 -1.6000 -0.2365 
2 17 7 1.0805 0.1837 
2 17 8 2.1057 0.1408 
2 17 9 0.8016 -0.0722 
2 17 10 2.2344 0.1148 
2 17 11 0.5181 0.0388 
2 17 12 0.7627 0.0460 
2 17 13 1.4525 -0.0945 
2 17 14 -0.9827 0.1135 
2 17 15 0.8633 -0.2262 
2 17 16 -1.4293 -0.1294 
2 17 17 -0.4365 0.1515 
2 17 18 -1.3477 -0.1105 
2 17 19 0.1142 -0.0013 
2 17 20 2.2687 -0.0524 
2 17 21 -0.8963 0.0264 
2 17 22 -1.4378 -0.0033 
2 17 23 -1.4333 0.1495 
2 17 24 -2.4017 -0.0980 
2 17 25 -3.7448 -0.2379 
2 17 26 1.1732 -0.0318 
2 17 27 -1.4805 0.2252 
2 18 2 -3.0708 -0.0561 
2 18 3 -1.9350 0.0356 
2 18 4 1.6406 0.0371 
2 18 5 -2.1010 -0.1380 
2 18 6 0.0849 -0.0696 
2 18 7 -1.0265 0.0603 
2 18 8 -1.4446 -0.2029 
2 18 9 -0.9471 0.2288 
2 18 10 -0.4170 0.0831 
2 18 11 0.7680 -0.0762 
2 18 12 0.0302 -0.0289 
2 18 13 0.4493 0.0794 
2 18 14 2.2156 0.1161 
2 18 15 2.6739 -0.1090 
2 18 16 1.5289 0.1313 
2 18 17 -0.1463 -0.3356 
2 18 18 -0.5959 -0.0519 
2 18 19 1.6901 0.1827 
2 18 20 0.7261 0.0034 
2 18 21 2.8797 -0.2414 
2 18 22 1.6693 -0.0098 
2 18 23 -0.4927 0.2626 
2 18 24 -1.5241 -0.0154 
2 18 25 -2.4596 -0.0382 
2 18 26 -4.1017 -0.1570 
2 19 2 -1.2139 0.1533 
2 19 3 1.5329 -0.1350 
2 19 4 -0.8941 -0.0074 
2 19 5 3.2217 0.1625 
2 19 6 1.8160 0.0911 
2 19 7 -0.5866 -0.3016 
2 19 8 -0.8269 -0.0143 
2 19 9 0.5068 0.1306 
2 19 10 0.4424 -0.0830 
2 19 11 -1.6648 0.1581 
2 19 12 -2.9024 0.0318 
2 19 13 -0.0246 0.0145 
2 19 14 -1.8031 0.0132 
2 19 15 0.9381 0.3587 
2 19 16 1.0454 0.1580 
2 19 17 1.1179 -0.2024 
2 19 18 -0.8842 0.0224 
2 19 19 -2.2422 0.0064 
2 19 20 1.1935 0.1647 
2 19 21 2.4410 -0.0135 
2 19 22 -0.2341 0.1302 
2 19 23 3.2931 -0.1795 
2 19 24 -0.2420 0.1486 
2 19 25 1.7896 0.1093 
2 20 2 -0.4789 0.0329 
2 20 3 -1.5234 -0.0834 
2 20 4 -1.2447 -0.0128 
2 20 5 2.9358 0.1155 
2 20 6 0.2685 0.0569 
2 20 7 0.4316 0.1754 
2 20 8 0.4726 0.0307 
2 20 9 0.8873 -0.2260 
2 20 10 1.3029 0.0326 
2 20 11 0.4331 0.0451 
2 20 12 0.9412 -0.1608 
2 20 13 -1.6209 -0.0685 
2 20 14 -1.8091 -0.1013 
2 20 15 0.5720 0.0932 
2 20 16 0.6867 0.0132 
2 20 17 1.1939 0.2229 
2 20 18 -0.6350 -0.1451 
2 20 19 -1.5950 -0.2686 
2 20 20 -0.7589 -0.1710 
2 20 21 -1.5664 0.1229 
2 20 22 2.5280 -0.0738 
2 20 23 -0.7890 -0.1353 
2 20 24 -1.6747 0.1728 
2 20 25 2.3610 -0.2702 
2 21 2 -1.0992 -0.0342 
2 21 3 -3.0111 0.0449 
2 21 4 -1.4596 -0.0767 
2 21 5 -2.5014 -0.1803 
2 21 6 -0.0002 -0.0338 
2 21 7 0.1357 0.1619 
2 21 8 -1.5240 -0.0003 
2 21 9 -2.6246 0.1535 
2 21 10 1.5651 0.0552 
2 21 11 -0.1046 -0.1756 
2 21 12 0.1380 0.0099 
2 21 13 -2.0474 -0.0391 
2 21 14 0.5084 -0.1237 
2 21 15 -1.0435 -0.2904 
2 21 16 0.1361 -0.0223 
2 21 17 2.6339 0.1986 
2 21 18 2.3503 0.1388 
2 21 19 0.2849 -0.0438 
2 21 20 -1.1253 -0.0716 
2 21 21 -0.8564 -0.0668 
2 21 22 2.3731 -0.1035 
2 21 23 -0.6523 0.1460 
2 21 24 1.3637 0.0738 
2 22 2 2.4519 0.0556 
2 22 3 0.9532 -0.0086 
2 22 4 -0.1456 0.0594 
2 22 5 -0.6599 -0.1216 
2 22 6 1.0470 -0.1580 
2 22 7 -0.3491 -0.1294 
2 22 8 -0.9939 -0.0231 
2 22 9 -0.1619 0.1752 
2 22 10 0.3596 0.0064 
2 22 11 -0.4462 0.1105 
2 22 12 0.9441 0.0834 
2 22 13 -0.8785 0.0687 
2 22 14 -1.3479 0.0904 
2 22 15 -1.3394 0.0120 
2 22 16 -0.8482 -0.0536 
2 22 17 -0.1594 -0.2017 
2 22 18 0.9152 0.1607 
2 22 19 3.8391 0.2044 
2 22 20 -0.7651 0.1298 
2 22 21 0.7887 -0.1154 
2 22 22 -0.0395 0.0113 
2 22 23 0.4551 -0.0098 
2 23 2 0.3379 -0.0010 
2 23 3 1.4602 -0.1638 
2 23 4 2.6044 0.0375 
2 23 5 1.7456 -0.0375 
2 23 6 1.3833 0.1275 
2 23 7 1.0068 -0.1416 
2 23 8 0.6811 -0.1179 
2 23 9 -0.9469 -0.0700 
2 23 10 -0.0330 0.0555 
2 23 11 1.2450 0.1080 
2 23 12 1.9023 -0.0386 
2 23 13 -1.7185 -0.1592 
2 23 14 1.0464 0.1004 
2 23 15 0.2934 0.2423 
2 23 16 -0.6634 -0.0952 
2 23 17 -0.8746 -0.1517 
2 23 18 -1.1172 -0.0681 
2 23 19 -0.7219 -0.0113 
2 23 20 0.9502 0.0087 
2 23 21 3.0468 -0.0975 
2 23 22 -2.2484 -0.1584 
2 24 2 -2.3278 -0.0559 
2 24 3 -0.6168 0.0024 
2 24 4 -2.2276 -0.0889 
2 24 5 1.4000 -0.0984 
2 24 6 2.0973 0.1234 
2 24 7 2.8140 -0.1197 
2 24 8 -0.7598 0.0400 
2 24 9 0.0337 -0.2065 
2 24 10 -1.1881 -0.0227 
2 24 11 0.4758 0.0322 
2 24 12 -0.7713 -0.0382 
2 24 13 -0.7685 -0.1225 
2 24 14 -1.5453 -0.0009 
2 24 15 -2.5156 -0.1155 
2 24 16 2.8797 0.1270 
2 24 17 0.7976 0.1720 
2 24 18 -0.7546 -0.0899 
2 24 19 -1.3463 0.1145 
2 24 20 0.6953 0.2906 
2 24 21 -2.1345 0.2624 
2 25 2 1.4019 -0.0376 
2 25 3 -2.8539 0.2585 
2 25 4 -2.4571 -0.0191 
2 25 5 -0.6728 -0.0114 
2 25 6 -0.8699 -0.1195 
2 25 7 2.3805 0.0585 
2 25 8 1.6978 0.1487 
2 25 9 1.5117 -0.0201 
2 25 10 -1.7338 -0.1117 
2 25 11 1.5134 -0.0863 
2 25 12 0.6833 0.0466 
2 25 13 0.4675 0.1532 
2 25 14 -3.3485 -0.2493 
2 25 15 -1.8760 -0.1341 
2 25 16 -3.1793 0.0799 
2 25 17 -0.0592 0.0128 
2 25 18 2.0726 -0.2160 
2 25 19 0.4699 0.0352 
2 25 20 -2.6407 0.1330 
2 26 2 0.3271 0.0235 
2 26 3 -0.1364 0.0493 
2 26 4 1.2834 0.0504 
2 26 5 -4.7766 0.0493 
2 26 6 -1.9800 -0.0781 
2 26 7 0.7580 0.0183 
2 26 8 1.4168 0.1605 
2 26 9 1.0752 0.1646 
2 26 10 0.7244 0.0636 
2 26 11 1.5315 0.0949 
2 26 12 1.4441 -0.0058 
2 26 13 2.2234 0.0851 
2 26 14 2.5898 -0.0547 
2 26 15 -2.4905 0.0206 
2 26 16 -1.5088 -0.1667 
2 26 17 -1.0501 -0.1378 
2 26 18 -0.5855 -0.1565 
2 27 2 -2.3172 0.0890 
2 27 3 2.0603 0.0173 
2 27 4 0.1394 0.0190 
2 27 5 -1.9994 0.1201 
2 27 6 -0.2424 -0.0318 
2 27 7 -3.3237 -0.0112 
2 27 8 -0.0545 -0.1705 
2 27 9 0.4341 0.0237 
2 27 10 -0.9018 0.3366 
2 27 11 0.6223 0.0266 
2 27 12 0.4775 -0.0665 
2 27 13 2.3240 0.1079 
2 27 14 -0.0781 0.2099 
2 27 15 1.0053 0.1174 
2 27 16 1.4047 -0.0484 
2 27 17 -2.4028 0.0029 
2 28 2 -0.5936 -0.1059 
2 28 3 1.3155 0.1525 
2 28 4 -1.8582 -0.1116 
2 28 5 2.4846 0.1209 
2 28 6 -1.6067 -0.0438 
2 28 7 -2.0650 0.0003 
2 28 8 0.3068 -0.3244 
2 28 9 -1.8560 0.1063 
2 28 10 0.0050 -0.0855 
2 28 11 -1.3473 -0.0399 
2 28 12 -0.7967 0.1113 
2 28 13 2.1719 -0.1253 
2 28 14 0.1649 0.0062 
2 28 15 1.1154 0.0583 
2 29 2 4.0672 -0.1010 
2 29 3 -2.2599 -0.1242 
2 29 4 0.5672 -0.0352 
2 29 5 1.3332 0.0762 
2 29 6 -1.2585 -0.1004 
2 29 7 -1.3130 -0.0623 
2 29 8 -1.2072 0.0906 
2 29 9 1.0079 -0.1284 
2 29 10 0.3804 -0.2854 
2 29 11 -3.8050 0.2195 
2 29 12 1.0746 0.1262 
2 29 13 0.1519 -0.1815 
2 30 2 1.5022 0.1182 
2 30 3 -0.0847 -0.1530 
2 30 4 3.5178 0.0939 
2 30 5 1.5925 -0.0178 
2 30 6 1.9559 0.1315 
2 30 7 0.6806 0.1425 
2 30 8 0.4012 0.1706 
2 30 9 -0.6802 -0.2636 
2 30 10 -0.4188 0.1293 
2 30 11 1.9331 0.0464 
2 31 2 -0.7104 0.5409 
2 31 3 0.7810 -0.3068 
2 31 4 -0.7928 -0.0788 
2 31 5 -0.8697 -0.4108 
2 31 6 3.3655 0.1513 
2 31 7 3.5324 0.0994 
2 31 8 -0.4845 -0.0605 
2 32 2 -1.2609 0.1779 
3 0 3 -27.4571 -1.8087 
3 0 9 -6.9049 -0.4172 
3 0 11 -6.7291 0.5464 
3 0 13 -1.2705 -0.4643 
3 0 15 0.9993 -1.2824 
3 0 17 -0.0315 0.6190 
3 0 19 -0.0221 -0.6347 
3 0 21 1.6671 0.4907 
3 0 23 0.4697 0.6253 
3 0 25 0.3570 -0.4916 
3 0 27 1.7824 0.5817 
3 0 29 0.9572 -0.6707 
3 0 31 -1.2768 -0.0726 
3 1 3 10.1186 -3.7298 
3 1 4 12.1806 2.4031 
3 1 5 3.1471 -1.7312 
3 1 7 0.5193 -0.6868 
3 1 8 0.2521 0.7214 
3 1 9 -0.6526 1.0344 
3 1 10 1.3854 0.6479 
3 1 11 -2.0898 -0.4436 
3 1 12 1.0649 -1.2394 
3 1 13 -1.9223 1.6386 
3 1 14 2.9161 0.8747 
3 1 15 -0.0506 -0.7972 
3 1 16 0.1498 -0.7654 
3 1 17 0.0164 -0.3109 
3 1 18 -0.8534 -0.1729 
3 1 19 -0.0008 0.1959 
3 1 20 -2.5972 0.6360 
3 1 21 1.2455 -1.0893 
3 1 22 -2.6666 -0.8012 
3 1 23 2.5162 0.8249 
3 1 24 -0.3898 0.7590 
3 1 25 0.4984 -0.2242 
3 1 26 -0.2936 -0.1677 
3 1 27 0.7143 0.0762 
3 1 28 -1.1756 -0.4688 
3 1 29 1.8211 0.6681 
3 1 30 -0.9274 0.8095 
3 1 31 0.7184 -0.7376 
3 2 3 25.1905 1.4486 
3 2 4 -21.0306 -0.9908 
3 2 5 16.0679 0.8916 
3 2 6 3.8112 0.7039 
3 2 7 3.5140 -1.8208 
3 2 8 1.1177 -0.8922 
3 2 9 3.0247 0.7862 
3 2 10 -0.1194 1.4046 
3 2 11 1.3899 -0.8612 
3 2 12 -0.8228 -0.1088 
3 2 13 1.2695 0.4419 
3 2 14 3.0745 -0.2721 
3 2 15 2.9500 1.0959 
3 2 16 2.7948 0.5832 
3 2 17 -0.1775 -0.8634 
3 2 18 1.1286 -1.1779 
3 2 19 -1.7255 0.7310 
3 2 20 1.6646 0.4123 
3 2 21 -3.3274 -0.5427 
3 2 22 -1.8870 -0.1845 
3 2 23 -0.1686 -0.5774 
3 2 24 -1.9602 -0.4758 
3 2 25 0.0317 0.5402 
3 2 26 -0.5512 0.8163 
3 2 27 -0.6055 -0.7398 
3 2 28 -0.3063 -0.6029 
3 2 29 0.1384 0.5658 
3 2 30 -2.1504 0.3458 
3 2 31 0.2382 0.1164 
3 3 3 -22.4873 -0.2590 
3 3 4 -10.9676 -1.7891 
3 3 5 9.5185 1.4216 
3 3 6 -14.2729 0.2022 
3 3 7 8.5125 0.2706 
3 3 8 -6.6850 -1.2914 
3 3 9 0.4516 -0.5462 
3 3 10 -1.5569 -0.6033 
3 3 11 -0.2907 0.6824 
3 3 12 -5.2111 0.8334 
3 3 13 -1.6760 -1.4842 
3 3 14 -1.7832 -0.3352 
3 3 15 2.3345 0.9466 
3 3 16 2.2053 0.7083 
3 3 17 2.2225 -0.0199 
3 3 18 0.4139 0.1715 
3 3 19 2.0989 -0.4318 
3 3 20 1.9246 -0.5041 
3 3 21 -0.8548 1.1054 
3 3 22 3.1679 0.5172 
3 3 23 -1.7878 -0.8524 
3 3 24 1.9137 -0.6980 
3 3 25 -0.5817 0.3482 
3 3 26 0.9745 0.0563 
3 3 27 -0.5371 -0.0243 
3 3 28 3.0798 0.1385 
3 3 29 0.4131 -0.4626 
3 3 30 1.2297 -0.1867 
3 3 31 -0.0281 0.5479 
3 4 3 -13.0225 -0.1490 
3 4 4 18.3028 0.9032 
3 4 5 -13.6263 -1.1038 
3 4 6 11.0625 0.5065 
3 4 7 3.2356 1.2825 
3 4 8 -5.9188 0.3816 
3 4 9 5.5289 -1.2139 
3 4 10 -2.7415 -0.8400 
3 4 11 2.2215 0.8953 
3 4 12 -1.6161 -0.3376 
3 4 13 -1.3977 -0.1694 
3 4 14 -2.6929 0.2595 
3 4 15 0.8153 -0.8228 
3 4 16 -0.4605 -0.3555 
3 4 17 0.7331 1.0647 
3 4 18 0.6551 0.8351 
3 4 19 0.1130 -0.9848 
3 4 20 -0.3814 -0.1325 
3 4 21 2.2045 0.3343 
3 4 22 0.2446 0.1982 
3 4 23 -0.2599 0.3173 
3 4 24 2.1481 0.2985 
3 4 25 -0.6815 -0.5617 
3 4 26 0.8445 -0.7157 
3 4 27 -3.1271 0.6604 
3 4 28 0.2444 0.3652 
3 4 29 0.4757 -0.3971 
3 4 30 3.7505 -0.5645 
3 4 31 -0.6770 0.1243 
3 5 3 4.6903 0.9148 
3 5 4 -5.7432 0.6299 
3 5 5 -5.0563 -0.3700 
3 5 6 13.9574 0.2188 
3 5 7 -6.8738 0.3712 
3 5 8 13.0107 0.9194 
3 5 9 -4.3227 0.2321 
3 5 10 1.6526 0.5059 
3 5 11 2.6736 -1.0463 
3 5 12 -0.6621 -0.4492 
3 5 13 -0.9551 1.0119 
3 5 14 0.1917 -0.0253 
3 5 15 0.2626 -0.7495 
3 5 16 1.2507 -0.5591 
3 5 17 1.1810 0.1165 
3 5 18 -1.1809 -0.2334 
3 5 19 -1.2210 0.6637 
3 5 20 -0.0621 0.1223 
3 5 21 -0.4913 -1.0024 
3 5 22 -1.6381 -0.2384 
3 5 23 1.4485 0.7976 
3 5 24 -1.2382 0.4275 
3 5 25 3.3125 -0.5838 
3 5 26 0.7606 -0.0569 
3 5 27 -2.4972 -0.1262 
3 5 28 -0.8045 -0.1841 
3 5 29 -2.5394 0.2387 
3 5 30 0.6242 0.2273 
3 6 3 -0.5400 -0.6611 
3 6 4 -8.7515 -0.6740 
3 6 5 -3.5492 0.4951 
3 6 6 -9.5019 -0.3947 
3 6 7 2.8988 -0.6022 
3 6 8 3.0290 -0.1496 
3 6 9 -7.4462 1.2686 
3 6 10 5.3439 0.2495 
3 6 11 -5.4587 -0.3981 
3 6 12 2.3621 0.3917 
3 6 13 -3.9752 -0.2459 
3 6 14 -2.8796 0.0190 
3 6 15 -1.3404 0.6597 
3 6 16 1.8354 0.2210 
3 6 17 0.4755 -1.0079 
3 6 18 0.1536 -0.4477 
3 6 19 0.3285 1.0003 
3 6 20 -1.3062 -0.0901 
3 6 21 -0.7561 -0.1335 
3 6 22 -0.6305 -0.1359 
3 6 23 -1.0247 -0.0859 
3 6 24 -1.3754 -0.2380 
3 6 25 4.0942 0.7899 
3 6 26 -2.1177 0.3806 
3 6 27 7.3658 -0.6152 
3 6 28 -1.3194 -0.3857 
3 6 29 -0.9140 0.3373 
3 6 30 0.8933 0.4711 
3 7 3 9.1219 -0.8009 
3 7 4 0.2050 -0.5166 
3 7 5 -2.3137 0.1204 
3 7 6 -4.0028 0.1279 
3 7 7 4.7813 -0.4179 
3 7 8 -2.3014 -0.2841 
3 7 9 5.3183 -0.2659 
3 7 10 -3.5779 -0.3460 
3 7 11 -1.0420 1.1804 
3 7 12 2.7034 0.0735 
3 7 13 -3.5493 -0.6106 
3 7 14 -0.1303 -0.0800 
3 7 15 -3.8430 0.5665 
3 7 16 -0.0442 0.4735 
3 7 17 0.5871 -0.2277 
3 7 18 1.3698 0.1495 
3 7 19 -0.4298 -0.7569 
3 7 20 0.2889 0.1589 
3 7 21 -0.3436 0.7825 
3 7 22 -0.9386 0.0003 
3 7 23 -1.2112 -0.7590 
3 7 24 -0.3803 0.0855 
3 7 25 -4.4412 0.4835 
3 7 26 1.1922 0.0667 
3 7 27 1.2711 0.3192 
3 7 28 -3.7417 0.0444 
3 7 29 3.6335 -0.0764 
3 7 30 -1.4170 -0.1966 
3 8 3 1.5504 0.4416 
3 8 4 0.5021 0.0506 
3 8 5 -0.3952 -0.4949 
3 8 6 -5.1980 0.1366 
3 8 7 -0.2553 0.5274 
3 8 8 2.6664 0.1404 
3 8 9 7.7553 -1.2146 
3 8 10 -0.9244 0.0752 
3 8 11 5.2452 0.0865 
3 8 12 -3.1398 -0.0477 
3 8 13 4.7063 0.2528 
3 8 14 -0.5840 -0.1437 
3 8 15 -1.4681 -0.4895 
3 8 16 -0.3291 -0.0508 
3 8 17 0.8024 0.9449 
3 8 18 0.9009 0.0235 
3 8 19 0.8939 -0.7797 
3 8 20 0.4615 0.1927 
3 8 21 -0.0557 -0.0549 
3 8 22 2.3084 -0.0164 
3 8 23 -0.5697 0.0577 
3 8 24 -0.9012 0.0658 
3 8 25 1.0240 -0.7387 
3 8 26 1.3903 0.0585 
3 8 27 -4.7020 0.3356 
3 8 28 2.0827 0.2805 
3 8 29 -2.9519 -0.2579 
3 8 30 -2.4529 -0.2894 
3 9 3 3.4358 0.8159 
3 9 4 5.2025 0.1165 
3 9 5 -3.4399 -0.2816 
3 9 6 -4.3482 -0.0868 
3 9 7 -7.6139 0.3431 
3 9 8 -3.8617 0.0092 
3 9 9 -0.5102 0.3565 
3 9 10 1.4912 -0.0283 
3 9 11 0.5207 -0.8577 
3 9 12 -1.9998 0.0996 
3 9 13 3.5362 0.4865 
3 9 14 -3.0301 0.1444 
3 9 15 1.9566 -0.5133 
3 9 16 -2.0981 -0.0932 
3 9 17 0.2052 0.1489 
3 9 18 -0.5194 0.1836 
3 9 19 -0.0136 0.6126 
3 9 20 -1.5448 -0.2862 
3 9 21 0.6033 -0.4076 
3 9 22 -0.5275 0.1772 
3 9 23 -1.6321 0.3794 
3 9 24 2.3503 -0.3426 
3 9 25 -1.2430 -0.1380 
3 9 26 0.1446 -0.0240 
3 9 27 3.1253 -0.2279 
3 9 28 1.5033 -0.1403 
3 9 29 -2.2845 0.1232 
3 10 3 6.4615 -0.1930 
3 10 4 5.6670 0.1237 
3 10 5 6.8313 0.5143 
3 10 6 6.1588 -0.1072 
3 10 7 -2.0406 -0.3747 
3 10 8 0.0707 0.2918 
3 10 9 -3.1742 0.6397 
3 10 10 1.6306 -0.1909 
3 10 11 -2.1253 -0.0004 
3 10 12 1.6626 -0.1624 
3 10 13 -4.0302 -0.0613 
3 10 14 -0.3932 -0.0569 
3 10 15 0.4662 0.3350 
3 10 16 -1.3009 -0.2737 
3 10 17 -1.0077 -0.5303 
3 10 18 0.7079 0.1370 
3 10 19 0.2437 0.3593 
3 10 20 -0.1325 -0.0175 
3 10 21 -2.8733 0.1201 
3 10 22 -1.4555 0.0763 
3 10 23 0.6635 -0.1200 
3 10 24 -1.7038 0.0734 
3 10 25 -2.5987 0.3877 
3 10 26 0.3393 0.0401 
3 10 27 -0.9518 -0.1402 
3 10 28 0.6778 -0.0486 
3 10 29 1.7935 0.0631 
3 11 3 -7.1444 -0.5575 
3 11 4 -0.8527 -0.0731 
3 11 5 3.7112 0.0746 
3 11 6 1.4309 -0.1046 
3 11 7 3.2326 0.0605 
3 11 8 3.2729 0.0244 
3 11 9 0.9911 -0.3414 
3 11 10 3.7700 0.2124 
3 11 11 3.2139 0.3781 
3 11 12 3.8094 0.0539 
3 11 13 -0.8827 -0.2679 
3 11 14 3.9435 -0.0008 
3 11 15 -1.4666 0.3011 
3 11 16 0.1922 0.0060 
3 11 17 0.4280 -0.0780 
3 11 18 1.1203 -0.2643 
3 11 19 2.1048 -0.1261 
3 11 20 1.7075 0.1681 
3 11 21 2.1005 0.2233 
3 11 22 0.6146 -0.0802 
3 11 23 -1.2998 -0.0617 
3 11 24 1.4271 0.1641 
3 11 25 1.4382 -0.1575 
3 11 26 -2.0412 0.1797 
3 11 27 0.5542 0.2579 
3 11 28 -1.2100 0.2708 
3 11 29 1.5248 -0.4109 
3 12 3 -5.0047 0.1582 
3 12 4 -3.7672 -0.1868 
3 12 5 -3.8181 -0.2925 
3 12 6 -5.3107 0.0257 
3 12 7 -1.4229 0.2384 
3 12 8 -4.0855 -0.2350 
3 12 9 -2.3975 -0.1759 
3 12 10 -1.7601 0.0018 
3 12 11 -0.7120 -0.1242 
3 12 12 0.7648 0.0925 
3 12 13 2.9068 0.1331 
3 12 14 1.8080 0.0369 
3 12 15 -0.5167 -0.1786 
3 12 16 3.7082 0.1738 
3 12 17 -0.2316 0.1742 
3 12 18 -1.7089 -0.0713 
3 12 19 -0.4170 -0.2566 
3 12 20 0.8956 -0.0551 
3 12 21 4.0530 -0.0465 
3 12 22 -1.9266 -0.0783 
3 12 23 2.9331 0.1152 
3 12 24 -0.5393 -0.1781 
3 12 25 -0.5872 -0.1509 
3 12 26 2.4064 -0.0867 
3 12 27 -1.5313 -0.0149 
3 12 28 -1.4507 0.3096 
3 13 3 2.0676 0.2440 
3 13 4 2.0356 0.1779 
3 13 5 0.6368 0.0156 
3 13 6 1.7887 0.0446 
3 13 7 1.1702 -0.0470 
3 13 8 -2.1332 0.0869 
3 13 9 0.1517 0.2600 
3 13 10 -3.8556 -0.1711 
3 13 11 -3.3975 -0.3623 
3 13 12 -3.1983 0.0467 
3 13 13 -2.3968 0.0472 
3 13 14 -4.2578 -0.0862 
3 13 15 0.1939 -0.1001 
3 13 16 0.4395 -0.1031 
3 13 17 -0.6285 0.0153 
3 13 18 0.8401 0.0628 
3 13 19 -2.5888 0.0093 
3 13 20 -1.6837 -0.1180 
3 13 21 -2.1249 -0.1627 
3 13 22 0.8725 -0.0982 
3 13 23 2.5464 -0.0895 
3 13 24 -3.7028 -0.1687 
3 13 25 4.4213 0.1094 
3 13 26 -0.8650 -0.5012 
3 13 27 -0.9909 -0.0670 
3 13 28 1.5185 -0.0428 
3 14 3 1.0134 -0.2827 
3 14 4 -0.5377 0.0029 
3 14 5 -0.2944 0.1294 
3 14 6 4.7041 -0.0135 
3 14 7 0.3861 -0.0932 
3 14 8 3.3571 0.1824 
3 14 9 4.5607 0.1155 
3 14 10 1.6024 0.0041 
3 14 11 3.8950 0.1087 
3 14 12 -0.0650 -0.0336 
3 14 13 0.5019 -0.1596 
3 14 14 -1.2121 0.3253 
3 14 15 -0.9634 0.0164 
3 14 16 -3.4418 -0.0863 
3 14 17 1.6219 0.0415 
3 14 18 1.9541 0.1575 
3 14 19 0.7762 0.0959 
3 14 20 -0.8726 0.1496 
3 14 21 -2.4919 0.1994 
3 14 22 1.9005 0.1856 
3 14 23 -3.1250 -0.0298 
3 14 24 3.5518 0.0401 
3 14 25 1.4829 -0.0139 
3 14 26 -0.4412 -0.1030 
3 14 27 4.3543 -0.0082 
3 15 3 -1.3083 -0.2452 
3 15 4 -4.8288 -0.0565 
3 15 5 -0.9021 -0.1481 
3 15 6 -5.1050 -0.1292 
3 15 7 -3.6399 0.1060 
3 15 8 0.9120 -0.1016 
3 15 9 -2.4416 -0.0059 
3 15 10 1.0307 0.0564 
3 15 11 1.4959 0.0672 
3 15 12 0.8830 -0.2388 
3 15 13 3.8447 0.1249 
3 15 14 1.5407 -0.0528 
3 15 15 0.8392 -0.1291 
3 15 16 -0.6920 0.1339 
3 15 17 -0.2928 0.0041 
3 15 18 1.6389 -0.1466 
3 15 19 0.6989 -0.0747 
3 15 20 1.7051 0.0007 
3 15 21 0.0980 0.0227 
3 15 22 -2.2946 0.1536 
3 15 23 -1.5870 0.1437 
3 15 24 2.5014 0.1424 
3 15 25 -4.7360 0.0404 
3 15 26 4.9499 0.5287 
3 15 27 -1.3382 0.0630 
3 16 3 2.0827 0.2791 
3 16 4 6.1853 0.0193 
3 16 5 -0.9506 -0.1434 
3 16 6 -3.1674 0.0583 
3 16 7 1.5923 -0.0625 
3 16 8 -2.8476 -0.0683 
3 16 9 -2.3462 0.0979 
3 16 10 -0.4300 -0.0099 
3 16 11 -2.7394 0.0088 
3 16 12 -0.6585 0.0264 
3 16 13 -1.7231 0.0093 
3 16 14 -0.5323 -0.1895 
3 16 15 0.7501 0.1077 
3 16 16 -1.9494 -0.1171 
3 16 17 -0.3503 -0.1597 
3 16 18 -2.4115 0.0309 
3 16 19 0.2281 0.0929 
3 16 20 2.4098 -0.2600 
3 16 21 -2.9009 -0.2550 
3 16 22 -0.7243 -0.0538 
3 16 23 0.3878 -0.0619 
3 16 24 -4.6717 -0.2192 
3 16 25 1.9488 -0.1346 
3 16 26 1.3130 0.1822 
3 17 3 4.5610 -0.0212 
3 17 4 2.4700 0.0209 
3 17 5 1.2391 0.2159 
3 17 6 4.7267 0.0242 
3 17 7 -0.4465 -0.1117 
3 17 8 0.0341 0.0304 
3 17 9 1.8491 -0.0159 
3 17 10 1.1204 0.0520 
3 17 11 0.7351 0.0462 
3 17 12 0.9253 -0.0090 
3 17 13 -0.1684 -0.0062 
3 17 14 1.0186 0.2766 
3 17 15 -0.1467 0.1523 
3 17 16 0.0979 -0.0667 
3 17 17 -1.1696 -0.0108 
3 17 18 -3.0366 0.2067 
3 17 19 2.8058 0.0977 
3 17 20 -2.7706 0.0479 
3 17 21 1.3745 0.0705 
3 17 22 0.0130 0.0596 
3 17 23 -4.1805 0.0040 
3 17 24 -1.6304 0.0701 
3 17 25 1.2496 -0.3485 
3 17 26 -3.6240 -0.5433 
3 18 3 -2.4573 -0.2040 
3 18 4 -2.7757 0.0390 
3 18 5 3.4370 0.0047 
3 18 6 -1.7169 0.0800 
3 18 7 -2.0394 0.1035 
3 18 8 0.1982 0.0005 
3 18 9 -1.2962 -0.0574 
3 18 10 -0.5985 0.0240 
3 18 11 -1.2534 0.0188 
3 18 12 1.9989 -0.1551 
3 18 13 0.4108 -0.1207 
3 18 14 2.1438 -0.0967 
3 18 15 1.4648 -0.0181 
3 18 16 2.7153 0.1182 
3 18 17 0.2481 0.0668 
3 18 18 1.4362 -0.0811 
3 18 19 -1.4065 0.0350 
3 18 20 1.2454 0.2324 
3 18 21 3.4532 -0.0086 
3 18 22 -2.3738 -0.0989 
3 18 23 0.0137 0.2536 
3 18 24 -1.2081 0.3554 
3 18 25 -4.9046 -0.0060 
3 19 3 -2.2012 0.0024 
3 19 4 2.4613 -0.1948 
3 19 5 -0.0154 -0.2293 
3 19 6 0.3301 0.1665 
3 19 7 1.5093 0.0254 
3 19 8 -0.3158 0.0275 
3 19 9 -1.3464 -0.0270 
3 19 10 -1.0609 0.1198 
3 19 11 -2.0319 0.0354 
3 19 12 -1.2614 0.1748 
3 19 13 -1.7771 0.0821 
3 19 14 0.6909 -0.2646 
3 19 15 -1.0374 -0.1270 
3 19 16 1.7520 0.0509 
3 19 17 1.4093 -0.0789 
3 19 18 0.3669 -0.1102 
3 19 19 -0.0868 0.1098 
3 19 20 2.6724 0.1118 
3 19 21 -0.1537 0.0588 
3 19 22 3.1654 -0.0127 
3 19 23 0.4039 0.0251 
3 19 24 -0.4529 0.0098 
3 20 3 -0.0540 0.1377 
3 20 4 0.1605 -0.0540 
3 20 5 -0.3152 -0.0085 
3 20 6 2.4982 -0.1224 
3 20 7 1.3348 -0.0607 
3 20 8 -0.0284 0.1715 
3 20 9 2.5126 0.0056 
3 20 10 0.4474 -0.1538 
3 20 11 -0.3686 -0.1096 
3 20 12 -1.0988 0.3404 
3 20 13 -0.6421 0.0064 
3 20 14 -0.3784 0.1414 
3 20 15 -0.4829 0.0592 
3 20 16 -0.0461 -0.1355 
3 20 17 -1.0939 -0.1344 
3 20 18 -0.3472 0.0215 
3 20 19 1.0246 -0.1768 
3 20 20 -1.4906 -0.1803 
3 20 21 2.4022 0.0128 
3 20 22 2.2061 -0.0550 
3 20 23 0.2643 -0.0632 
3 21 3 -0.6038 0.0554 
3 21 4 -1.9491 0.1710 
3 21 5 -0.7644 0.0702 
3 21 6 -1.1628 -0.1493 
3 21 7 -1.3275 0.0878 
3 21 8 0.1581 0.0317 
3 21 9 0.6437 0.0568 
3 21 10 -1.6428 -0.0257 
3 21 11 2.0243 0.0288 
3 21 12 -2.8244 -0.3041 
3 21 13 -0.4721 -0.1009 
3 21 14 -0.8206 0.3454 
3 21 15 1.4507 -0.0957 
3 21 16 -0.1714 -0.1157 
3 21 17 -0.6786 -0.0072 
3 21 18 0.3661 0.1087 
3 21 19 -1.8463 -0.0851 
3 21 20 -2.0713 -0.0215 
3 21 21 2.0482 -0.1244 
3 21 22 -0.3931 -0.2937 
3 21 23 1.9853 -0.1896 
3 22 3 0.9652 -0.1934 
3 22 4 -0.5818 -0.0847 
3 22 5 0.3963 -0.0016 
3 22 6 -1.3630 0.1104 
3 22 7 0.4417 -0.1739 
3 22 8 -0.1946 -0.1626 
3 22 9 -0.6644 0.0874 
3 22 10 1.5942 0.1273 
3 22 11 -0.4554 0.0268 
3 22 12 -1.1287 -0.2765 
3 22 13 -0.3414 0.1772 
3 22 14 -1.8881 -0.1066 
3 22 15 0.2633 0.0841 
3 22 16 0.4077 0.1013 
3 22 17 2.5144 0.0278 
3 22 18 0.1024 -0.1221 
3 22 19 -2.1084 0.0626 
3 22 20 1.7467 0.4295 
3 22 21 -1.7082 0.0723 
3 22 22 -1.3159 0.1359 
3 23 3 0.2000 -0.0064 
3 23 4 2.2788 -0.2651 
3 23 5 2.0867 -0.0643 
3 23 6 0.7960 -0.0045 
3 23 7 0.1518 0.0057 
3 23 8 -0.6429 0.0729 
3 23 9 3.2189 -0.1489 
3 23 10 0.0409 -0.0073 
3 23 11 1.0530 0.0650 
3 23 12 0.7840 0.0985 
3 23 13 -0.1875 -0.0427 
3 23 14 -0.8444 -0.3859 
3 23 15 -1.0936 0.1990 
3 23 16 1.9263 0.0531 
3 23 17 0.9044 0.1206 
3 23 18 -0.0576 -0.2989 
3 23 19 1.9402 0.1773 
3 23 20 0.4992 -0.1977 
3 23 21 -2.4437 -0.1106 
3 24 3 -1.6520 0.1635 
3 24 4 1.9505 -0.1324 
3 24 5 0.5886 -0.0789 
3 24 6 2.3780 -0.1675 
3 24 7 -1.0628 0.1803 
3 24 8 1.1261 0.0532 
3 24 9 -1.3951 -0.0674 
3 24 10 1.8743 -0.0031 
3 24 11 1.2775 0.0595 
3 24 12 -1.0440 0.2293 
3 24 13 -0.6697 -0.0807 
3 24 14 -1.6491 -0.0242 
3 24 15 -0.4764 -0.1305 
3 24 16 -1.2372 -0.2111 
3 24 17 -0.3887 -0.0229 
3 24 18 3.1613 0.1911 
3 24 19 -0.1720 0.3245 
3 25 3 -0.3946 -0.0222 
3 25 4 -3.1065 0.1314 
3 25 5 -1.0899 0.0463 
3 25 6 1.8553 -0.1439 
3 25 7 0.8837 -0.0111 
3 25 8 -0.7189 -0.0999 
3 25 9 -2.1105 0.0463 
3 25 10 2.3249 0.0112 
3 25 11 -0.4628 -0.1591 
3 25 12 1.4803 -0.0486 
3 25 13 -1.7727 0.1539 
3 25 14 -0.3479 0.3198 
3 25 15 -2.3151 -0.2563 
3 25 16 -2.7456 -0.0856 
3 25 17 -0.7121 -0.3685 
3 25 18 0.1495 -0.0117 
3 26 3 0.1446 -0.1018 
3 26 4 -2.9809 0.0112 
3 26 5 -0.5420 0.0304 
3 26 6 -0.8709 0.1206 
3 26 7 0.7828 -0.0667 
3 26 8 0.6725 -0.0102 
3 26 9 0.5728 0.2838 
3 26 10 -0.8542 0.0602 
3 26 11 1.6458 -0.1504 
3 26 12 1.1667 0.1438 
3 26 13 0.6399 0.1115 
3 26 14 -0.2153 0.0375 
3 26 15 0.7387 0.1691 
3 26 16 -0.5962 0.1147 
3 26 17 -1.5897 -0.3259 
3 27 3 -1.1838 0.1460 
3 27 4 0.7448 -0.0884 
3 27 5 -0.5448 -0.0319 
3 27 6 -2.9788 -0.1264 
3 27 7 -0.3648 0.0308 
3 27 8 1.0730 0.1842 
3 27 9 -0.0449 -0.0844 
3 27 10 0.9334 -0.0930 
3 27 11 0.8096 0.2971 
3 27 12 1.6866 0.1591 
3 27 13 0.6358 -0.1231 
3 27 14 -1.1141 0.3670 
3 27 15 0.5335 0.4007 
3 28 3 -1.8930 0.0689 
3 28 4 2.0914 0.2066 
3 28 5 -1.1150 -0.2355 
3 28 6 -0.4896 -0.0992 
3 28 7 -1.1664 0.0864 
3 28 8 -2.7836 -0.2216 
3 28 9 -0.4324 -0.2554 
3 28 10 -0.8437 0.0491 
3 28 11 -0.1998 -0.1417 
3 28 12 2.7834 -0.5221 
3 28 13 0.4312 -0.0545 
3 29 3 1.0785 -0.2239 
3 29 4 -1.2315 0.0979 
3 29 5 0.6601 -0.1391 
3 29 6 1.9332 0.2419 
3 29 7 -0.6300 -0.3230 
3 29 8 -1.0828 -0.0074 
3 29 9 -0.5913 0.2201 
3 29 10 -2.5241 0.0551 
3 29 11 0.5498 -0.2563 
3 30 3 1.3850 0.0119 
3 30 4 -1.3177 0.0706 
3 30 5 1.3193 -0.0218 
3 30 6 0.7205 -0.0677 
3 30 7 1.6437 -0.0155 
3 30 8 1.1964 0.1939 
3 30 9 -0.1741 0.0764 
3 31 3 1.7163 0.6638 
3 31 4 0.0547 0.1066 
3 31 5 -0.5900 -0.1140 
4 0 10 -2.4925 -1.6927 
4 0 12 -3.5904 0.1138 
4 0 14 1.2435 0.4670 
4 0 16 0.1892 -0.5254 
4 0 18 0.5859 1.1835 
4 0 20 0.1664 -0.4117 
4 0 22 0.2347 -0.2607 
4 0 24 -1.3061 0.3172 
4 0 26 4.0743 -0.8856 
4 0 28 0.9712 0.7185 
4 0 30 -1.3327 -0.2281 
4 1 4 -4.0909 0.9097 
4 1 7 0.3054 -1.0020 
4 1 8 -1.9407 -0.3068 
4 1 9 1.3282 -0.5655 
4 1 10 1.4216 0.5047 
4 1 11 -0.8380 0.6946 
4 1 12 -1.4756 -1.6044 
4 1 13 0.6202 -1.1249 
4 1 14 0.0401 0.6897 
4 1 15 1.3928 0.8710 
4 1 16 -0.3152 -0.5164 
4 1 17 0.8286 -0.0141 
4 1 18 1.0265 -0.2338 
4 1 19 -1.3611 -0.3993 
4 1 20 0.9164 1.2255 
4 1 21 -2.2998 0.8263 
4 1 22 2.6006 -0.8759 
4 1 23 -2.1059 -0.9138 
4 1 24 -0.5626 0.7022 
4 1 25 -0.5354 0.2408 
4 1 26 0.2877 -0.4258 
4 1 27 0.3897 -0.4332 
4 1 28 3.1515 -0.3863 
4 1 29 -0.2871 -0.3402 
4 1 30 0.2252 0.6647 
4 2 4 11.4121 -1.7028 
4 2 5 2.1586 1.3247 
4 2 6 1.5884 1.9591 
4 2 7 3.8816 1.5693 
4 2 8 0.0023 -0.6106 
4 2 9 1.7095 -0.7721 
4 2 10 -0.1893 1.6064 
4 2 11 1.0894 0.2466 
4 2 12 0.9927 -0.2584 
4 2 13 0.5012 -0.2040 
4 2 14 1.5414 -0.4103 
4 2 15 1.1078 -0.8615 
4 2 16 1.0522 0.7736 
4 2 17 1.0878 0.7963 
4 2 18 -2.2763 -1.2405 
4 2 19 2.5174 -0.4174 
4 2 20 -1.6212 0.5129 
4 2 21 0.3101 0.4588 
4 2 22 -1.2841 0.2048 
4 2 23 -1.2357 0.3959 
4 2 24 -0.5923 -0.5853 
4 2 25 -2.9528 -0.5592 
4 2 26 -2.1095 0.9753 
4 2 27 -1.8063 0.5858 
4 2 28 -0.2108 -1.1017 
4 2 29 -1.3691 -0.9886 
4 2 30 0.7453 0.5448 
4 3 4 4.5899 -1.1829 
4 3 5 -11.6918 -1.7931 
4 3 6 7.4561 0.1190 
4 3 7 -3.8967 1.0027 
4 3 8 1.6597 0.1368 
4 3 9 -0.1818 0.6644 
4 3 10 -1.8985 -0.6635 
4 3 11 -1.2437 -0.3620 
4 3 12 -0.8601 1.2832 
4 3 13 -1.4845 0.7421 
4 3 14 0.5090 -0.8729 
4 3 15 0.9311 -0.9066 
4 3 16 2.6283 0.4965 
4 3 17 -0.7051 -0.3179 
4 3 18 0.9114 0.2294 
4 3 19 0.0467 0.0254 
4 3 20 -0.3462 -1.0411 
4 3 21 2.7905 -0.4304 
4 3 22 -0.1981 0.9709 
4 3 23 3.1377 0.6281 
4 3 24 -0.3349 -0.6587 
4 3 25 2.7215 -0.0435 
4 3 26 -1.4734 0.2991 
4 3 27 1.3367 0.1650 
4 3 28 -0.2775 0.4841 
4 3 29 0.0149 0.2939 
4 4 4 -9.7881 -0.0231 
4 4 5 6.2398 -0.6936 
4 4 6 1.1175 -1.2242 
4 4 7 -3.8969 -1.1659 
4 4 8 5.5300 1.2276 
4 4 9 -4.0020 0.3056 
4 4 10 2.1305 -1.1433 
4 4 11 -0.2835 0.1855 
4 4 12 -1.8455 0.2026 
4 4 13 -0.3647 0.3529 
4 4 14 0.6804 0.3262 
4 4 15 -0.3914 0.9460 
4 4 16 1.3531 -0.9358 
4 4 17 0.8809 -0.6010 
4 4 18 1.7663 1.0951 
4 4 19 -1.5043 0.1402 
4 4 20 0.5246 -0.5870 
4 4 21 -0.9321 -0.4258 
4 4 22 1.1537 -0.2096 
4 4 23 1.6849 -0.3835 
4 4 24 1.3190 0.6122 
4 4 25 1.4362 0.2662 
4 4 26 -0.9983 -0.8319 
4 4 27 3.2221 -0.1578 
4 4 28 0.2616 0.6728 
4 4 29 2.5241 0.3451 
4 5 4 -1.7242 0.5327 
4 5 5 4.9792 1.2803 
4 5 6 -2.8845 -0.7350 
4 5 7 8.4060 -0.1572 
4 5 8 -2.8878 -0.2405 
4 5 9 0.9450 -0.7746 
4 5 10 2.7291 0.9247 
4 5 11 -3.5593 0.0499 
4 5 12 -0.1302 -0.9714 
4 5 13 0.2852 -0.6218 
4 5 14 -0.1014 0.9461 
4 5 15 2.1881 0.6364 
4 5 16 0.3645 -0.5552 
4 5 17 0.6812 0.2984 
4 5 18 0.6841 -0.3746 
4 5 19 0.0998 0.0310 
4 5 20 -0.7949 0.9214 
4 5 21 -3.1831 0.2266 
4 5 22 0.2423 -0.9552 
4 5 23 -1.9550 -0.4691 
4 5 24 2.2844 0.4325 
4 5 25 -1.0845 -0.2215 
4 5 26 -0.7241 -0.0152 
4 5 27 -1.0985 -0.2935 
4 5 28 -3.1908 -0.5160 
4 5 29 1.8041 0.1726 
4 6 4 -5.3563 -0.2444 
4 6 5 -5.2046 0.0766 
4 6 6 0.8690 1.0197 
4 6 7 0.0683 0.7361 
4 6 8 -1.4625 -1.3842 
4 6 9 4.5861 0.0636 
4 6 10 -5.1340 0.4297 
4 6 11 0.5963 -0.2617 
4 6 12 -3.8943 -0.0722 
4 6 13 -4.8120 -0.1871 
4 6 14 -1.8429 -0.3425 
4 6 15 0.0337 -0.6048 
4 6 16 0.5747 1.1675 
4 6 17 1.1543 0.1528 
4 6 18 -0.3193 -0.9643 
4 6 19 1.1022 -0.0922 
4 6 20 0.1511 0.6203 
4 6 21 -0.1487 0.2353 
4 6 22 -2.3867 0.2225 
4 6 23 -2.3339 0.1934 
4 6 24 2.5455 -0.5371 
4 6 25 -1.1482 -0.2531 
4 6 26 5.1895 0.6857 
4 6 27 -3.0722 -0.1719 
4 6 28 0.4538 0.0114 
4 6 29 0.4149 -0.5498 
4 7 4 -1.5683 -0.4016 
4 7 5 -1.5474 -0.6156 
4 7 6 -1.9276 0.6833 
4 7 7 0.3594 0.1938 
4 7 8 4.5836 0.7182 
4 7 9 -1.0816 0.3069 
4 7 10 2.3775 -0.7982 
4 7 11 2.5086 -0.0146 
4 7 12 -3.6378 0.7321 
4 7 13 -0.4373 0.2651 
4 7 14 -5.8848 -0.9129 
4 7 15 -1.6633 -0.1156 
4 7 16 -0.8682 0.3214 
4 7 17 0.5283 0.1222 
4 7 18 -0.8203 0.2799 
4 7 19 0.4796 -0.0764 
4 7 20 -0.0643 -0.6530 
4 7 21 1.6030 0.1273 
4 7 22 -0.9037 0.8578 
4 7 23 -0.4904 0.3020 
4 7 24 -3.2733 -0.3609 
4 7 25 1.2273 0.2321 
4 7 26 0.4558 -0.0799 
4 7 27 -1.4772 0.2474 
4 7 28 3.3560 0.5801 
4 7 29 -2.1909 -0.0917 
4 8 4 0.2936 0.1955 
4 8 5 -5.2670 -0.2470 
4 8 6 -0.4692 -0.8262 
4 8 7 0.6487 0.0258 
4 8 8 2.0003 0.8317 
4 8 9 2.4501 0.0666 
4 8 10 6.8050 -0.1468 
4 8 11 -0.2183 0.0631 
4 8 12 6.7643 0.0619 
4 8 13 0.2745 -0.0189 
4 8 14 0.2752 0.3856 
4 8 15 -1.1112 -0.1150 
4 8 16 -0.6781 -0.9362 
4 8 17 0.5604 0.1059 
4 8 18 1.3101 0.5033 
4 8 19 -0.2130 0.0055 
4 8 20 -1.2943 -0.6682 
4 8 21 1.2961 0.1121 
4 8 22 -0.4093 -0.1698 
4 8 23 1.0039 0.0247 
4 8 24 0.0475 0.3931 
4 8 25 -0.3720 0.2217 
4 8 26 -1.4199 -0.6372 
4 8 27 1.9065 -0.0903 
4 8 28 -2.8255 -0.1864 
4 8 29 -1.8285 0.4471 
4 9 4 -1.7929 0.3974 
4 9 5 -1.8693 0.0829 
4 9 6 -5.0769 -0.3717 
4 9 7 -5.4454 -0.1365 
4 9 8 -3.3387 -0.3740 
4 9 9 -0.6408 0.0206 
4 9 10 -1.4897 0.4484 
4 9 11 0.5540 0.1337 
4 9 12 2.9206 -0.4806 
4 9 13 -1.0194 0.1339 
4 9 14 4.4513 0.7410 
4 9 15 -1.1693 0.0169 
4 9 16 0.0004 -0.0398 
4 9 17 -1.6165 -0.2531 
4 9 18 2.6845 -0.0641 
4 9 19 -0.1572 0.0293 
4 9 20 1.6372 0.3593 
4 9 21 -2.2129 -0.1777 
4 9 22 -0.4047 -0.6241 
4 9 23 2.1419 0.0558 
4 9 24 -2.7319 0.0793 
4 9 25 0.7892 0.0722 
4 9 26 1.9415 0.0793 
4 9 27 1.2291 -0.3003 
4 9 28 0.0200 -0.6496 
4 10 4 6.6066 -0.0746 
4 10 5 5.0511 -0.0691 
4 10 6 -1.3237 0.5757 
4 10 7 1.2773 0.0636 
4 10 8 -1.9968 -0.4307 
4 10 9 -1.1316 0.0269 
4 10 10 -3.3429 0.1294 
4 10 11 -0.1871 -0.0945 
4 10 12 -5.2746 0.0122 
4 10 13 -0.1305 -0.0097 
4 10 14 -0.3765 -0.2864 
4 10 15 -0.1982 0.3053 
4 10 16 -0.7041 0.6324 
4 10 17 -0.5887 -0.2641 
4 10 18 -2.7945 -0.1813 
4 10 19 -0.0116 0.0128 
4 10 20 -0.3918 0.3815 
4 10 21 -0.9531 -0.2076 
4 10 22 0.3751 0.3112 
4 10 23 -2.6157 0.0172 
4 10 24 -0.2565 -0.2753 
4 10 25 0.1532 0.2185 
4 10 26 -4.1240 0.3988 
4 10 27 0.4073 0.7270 
4 10 28 1.1719 -0.1558 
4 11 4 3.7004 -0.4354 
4 11 5 0.3332 -0.1047 
4 11 6 3.3582 0.1191 
4 11 7 3.8754 -0.1837 
4 11 8 2.5288 0.3413 
4 11 9 4.0313 0.0837 
4 11 10 3.8886 -0.5445 
4 11 11 2.3717 -0.0183 
4 11 12 0.6289 0.2743 
4 11 13 1.1770 -0.1952 
4 11 14 -3.4018 -0.4189 
4 11 15 2.2344 0.0205 
4 11 16 2.8250 -0.0276 
4 11 17 0.7695 0.1877 
4 11 18 -0.4392 0.0919 
4 11 19 0.8860 -0.2536 
4 11 20 0.0785 -0.1921 
4 11 21 0.8595 -0.0327 
4 11 22 -2.8459 0.2997 
4 11 23 1.1765 -0.2140 
4 11 24 2.9179 0.1535 
4 11 25 -0.5379 -0.2709 
4 11 26 0.3282 0.0253 
4 11 27 -1.4420 0.5924 
4 12 4 -4.8144 0.2124 
4 12 5 -4.2716 0.0132 
4 12 6 -0.4382 -0.5193 
4 12 7 -4.9187 -0.0342 
4 12 8 -3.0061 0.3873 
4 12 9 0.1306 -0.0873 
4 12 10 0.0795 0.0325 
4 12 11 2.4250 0.0766 
4 12 12 3.2917 -0.1766 
4 12 13 0.0646 0.1999 
4 12 14 -0.1218 0.1316 
4 12 15 1.7394 -0.1785 
4 12 16 -0.8374 -0.2141 
4 12 17 3.0718 0.3500 
4 12 18 3.0793 0.0521 
4 12 19 1.1089 0.0150 
4 12 20 2.8257 -0.0207 
4 12 21 -0.0082 -0.0554 
4 12 22 1.4093 -0.2549 
4 12 23 -0.8008 -0.1444 
4 12 24 -1.1912 0.2531 
4 12 25 3.3537 -0.4095 
4 12 26 2.6722 -0.2760 
4 12 27 -0.3078 -0.5709 
4 13 4 -0.2904 0.1303 
4 13 5 1.4587 0.1709 
4 13 6 -0.8366 0.0456 
4 13 7 -4.0590 0.0161 
4 13 8 -0.6119 -0.3452 
4 13 9 -3.7120 0.0719 
4 13 10 -4.1182 0.3603 
4 13 11 -1.2509 -0.1084 
4 13 12 -1.7996 -0.1241 
4 13 13 -0.5963 0.1159 
4 13 14 -0.4275 0.0190 
4 13 15 -4.7438 0.0136 
4 13 16 -1.8835 -0.1011 
4 13 17 0.2967 0.0158 
4 13 18 -1.4651 -0.1637 
4 13 19 -0.3349 0.2188 
4 13 20 0.0128 0.0087 
4 13 21 0.8405 0.0845 
4 13 22 1.9493 -0.1520 
4 13 23 -4.4119 -0.1173 
4 13 24 -0.2871 -0.0323 
4 13 25 -1.0611 0.1369 
4 13 26 0.6674 0.3072 
4 13 27 1.0927 -0.7713 
4 14 4 3.1638 -0.1448 
4 14 5 3.3602 0.0739 
4 14 6 -0.0946 0.1988 
4 14 7 4.1597 0.0043 
4 14 8 3.4417 -0.1216 
4 14 9 -1.5869 -0.0379 
4 14 10 1.9607 -0.1778 
4 14 11 0.0958 -0.0586 
4 14 12 0.7539 0.1236 
4 14 13 0.9898 -0.1261 
4 14 14 0.0454 0.0017 
4 14 15 -1.2151 0.0150 
4 14 16 -0.2485 0.0734 
4 14 17 -3.4021 -0.0779 
4 14 18 0.1255 0.0050 
4 14 19 -1.0821 0.0781 
4 14 20 -0.4901 -0.1848 
4 14 21 0.4473 0.3430 
4 14 22 -0.1338 0.0427 
4 14 23 0.8947 0.0984 
4 14 24 -0.5515 -0.3993 
4 14 25 -2.9114 0.2875 
4 14 26 1.6336 0.2674 
4 15 4 -0.4845 0.0201 
4 15 5 -3.6674 -0.2484 
4 15 6 0.1917 -0.0146 
4 15 7 1.1839 -0.0036 
4 15 8 -2.2043 0.3111 
4 15 9 0.1022 -0.0659 
4 15 10 2.0544 -0.0383 
4 15 11 -1.6153 -0.1101 
4 15 12 0.5739 -0.0967 
4 15 13 0.9911 -0.1388 
4 15 14 2.5276 0.1508 
4 15 15 2.2339 -0.1330 
4 15 16 -0.4928 -0.0217 
4 15 17 1.3193 -0.0282 
4 15 18 -0.3079 0.3211 
4 15 19 1.2690 -0.2269 
4 15 20 0.0081 -0.0742 
4 15 21 -0.4277 -0.1083 
4 15 22 1.5971 0.1410 
4 15 23 2.8178 0.2155 
4 15 24 -2.0755 -0.2885 
4 15 25 1.5093 -0.0084 
4 15 26 -1.8853 -0.1449 
4 16 4 -1.7578 0.0854 
4 16 5 -0.3482 0.1115 
4 16 6 0.6955 -0.0579 
4 16 7 -3.6979 -0.0803 
4 16 8 0.0202 -0.0168 
4 16 9 1.0540 0.1813 
4 16 10 -0.9309 0.3627 
4 16 11 -2.5949 -0.0399 
4 16 12 0.6695 -0.0915 
4 16 13 -2.0859 0.0423 
4 16 14 -0.4211 -0.0341 
4 16 15 -1.4211 -0.1830 
4 16 16 1.2670 -0.0027 
4 16 17 -0.9546 -0.0713 
4 16 18 -1.3280 0.0072 
4 16 19 1.7215 0.0643 
4 16 20 -3.4121 0.1454 
4 16 21 0.7589 -0.3564 
4 16 22 -1.0725 -0.0123 
4 16 23 -0.7518 -0.2546 
4 16 24 2.6885 -0.0390 
4 16 25 -0.1897 -0.4663 
4 17 4 2.2067 -0.2239 
4 17 5 4.0608 0.1157 
4 17 6 -1.6529 0.1552 
4 17 7 2.0661 -0.0440 
4 17 8 1.6757 -0.2326 
4 17 9 1.2011 0.0644 
4 17 10 -1.0390 -0.0443 
4 17 11 3.5602 0.2607 
4 17 12 1.0991 0.2621 
4 17 13 -0.2311 0.0109 
4 17 14 0.6367 -0.1170 
4 17 15 -0.1000 0.3152 
4 17 16 1.0744 0.0821 
4 17 17 -2.8092 -0.2104 
4 17 18 2.1538 -0.0317 
4 17 19 -2.5316 0.2152 
4 17 20 1.0182 0.1810 
4 17 21 -0.8201 0.2076 
4 17 22 -4.5786 0.2020 
4 17 23 0.2037 0.2100 
4 17 24 0.6663 0.0501 
4 18 4 0.7469 -0.1849 
4 18 5 -2.2966 -0.0261 
4 18 6 -0.2848 -0.0339 
4 18 7 0.4984 0.0941 
4 18 8 -2.1239 0.0990 
4 18 9 -0.8677 -0.2383 
4 18 10 -0.2523 -0.2568 
4 18 11 1.4765 0.1760 
4 18 12 -3.4779 -0.1184 
4 18 13 3.5838 -0.0154 
4 18 14 -1.0900 0.0293 
4 18 15 2.5082 0.1133 
4 18 16 -0.7575 -0.1297 
4 18 17 2.0375 0.2200 
4 18 18 0.0608 0.0380 
4 18 19 -0.1545 -0.2356 
4 18 20 3.1774 -0.1665 
4 18 21 -1.1769 0.0157 
4 18 22 0.2328 0.1900 
4 18 23 -2.8444 0.3954 
4 18 24 -3.3094 0.4283 
4 19 4 -1.3274 0.1899 
4 19 5 0.8311 -0.0759 
4 19 6 0.0742 -0.1910 
4 19 7 -1.3038 0.1727 
4 19 8 -1.6165 0.1175 
4 19 9 0.0505 -0.0415 
4 19 10 -0.2430 0.1675 
4 19 11 -2.3132 -0.2011 
4 19 12 0.7841 -0.0986 
4 19 13 -0.0330 0.1398 
4 19 14 -1.7868 -0.0691 
4 19 15 1.2216 -0.1902 
4 19 16 -1.6314 -0.1012 
4 19 17 1.8855 0.3502 
4 19 18 -1.1774 -0.0274 
4 19 19 1.4572 0.1759 
4 19 20 0.1501 -0.0503 
4 19 21 2.8901 -0.1654 
4 19 22 1.2947 -0.3238 
4 19 23 -1.1433 -0.0179 
4 20 4 1.4272 -0.0255 
4 20 5 1.0321 0.0288 
4 20 6 0.1341 0.0384 
4 20 7 1.0794 -0.0193 
4 20 8 1.5573 -0.1813 
4 20 9 -0.8763 0.2192 
4 20 10 -1.5727 0.1445 
4 20 11 0.7571 -0.1071 
4 20 12 1.3401 0.1878 
4 20 13 -0.4795 -0.0893 
4 20 14 2.6096 0.0228 
4 20 15 -0.1174 -0.1086 
4 20 16 0.3709 0.0424 
4 20 17 0.1539 -0.1732 
4 20 18 -0.0720 -0.0101 
4 20 19 -0.1136 0.2923 
4 20 20 0.7712 0.0098 
4 20 21 1.4076 -0.0160 
4 20 22 2.3492 -0.0934 
4 21 4 0.6383 -0.0903 
4 21 5 -1.0334 0.1220 
4 21 6 -0.5854 0.0832 
4 21 7 0.2918 -0.0941 
4 21 8 0.5287 -0.0057 
4 21 9 -1.1446 0.0181 
4 21 10 -0.9336 -0.2011 
4 21 11 -4.0465 0.2671 
4 21 12 -1.3061 0.0876 
4 21 13 -1.2576 -0.0949 
4 21 14 0.4543 -0.0762 
4 21 15 -0.6579 -0.0911 
4 21 16 1.6999 -0.0902 
4 21 17 -0.8789 -0.2280 
4 21 18 -1.2464 0.0722 
4 21 19 -0.5278 -0.0847 
4 21 20 0.0705 -0.0442 
4 21 21 -0.7703 -0.2580 
4 22 4 2.1414 -0.0152 
4 22 5 0.0376 -0.2361 
4 22 6 0.5467 -0.0557 
4 22 7 -0.7189 0.1369 
4 22 8 1.9253 0.0109 
4 22 9 2.6497 -0.3204 
4 22 10 -0.2894 -0.0526 
4 22 11 -1.3975 0.0294 
4 22 12 -1.8601 -0.0425 
4 22 13 -2.5015 0.2026 
4 22 14 -0.1508 0.0585 
4 22 15 -1.1989 -0.0797 
4 22 16 1.4879 -0.1075 
4 22 17 -1.1162 -0.0685 
4 22 18 0.5069 0.0509 
4 22 19 -1.2295 0.3101 
4 22 20 -1.2859 0.2698 
4 23 4 0.3661 -0.1316 
4 23 5 0.0194 -0.1539 
4 23 6 1.9235 0.0181 
4 23 7 -0.6470 -0.0622 
4 23 8 1.3513 -0.0442 
4 23 9 2.3382 0.0932 
4 23 10 4.8564 -0.0186 
4 23 11 0.5193 -0.3649 
4 23 12 -1.0453 0.0259 
4 23 13 1.1171 0.0557 
4 23 14 -0.0968 0.0318 
4 23 15 0.3923 -0.0635 
4 23 16 0.7669 -0.0544 
4 23 17 2.0824 -0.2520 
4 23 18 2.1359 0.0795 
4 23 19 -1.0793 -0.1318 
4 24 4 -2.2501 0.0773 
4 24 5 2.2914 0.2278 
4 24 6 -0.1039 -0.1517 
4 24 7 -1.5489 -0.0047 
4 24 8 -1.2740 0.1573 
4 24 9 2.0792 0.2204 
4 24 10 0.6850 -0.0244 
4 24 11 1.8173 0.0525 
4 24 12 0.0667 0.1460 
4 24 13 -1.6818 0.0130 
4 24 14 -2.0782 0.0306 
4 24 15 0.8743 -0.0495 
4 24 16 -1.4847 -0.2146 
4 24 17 1.4967 -0.1645 
4 24 18 0.1937 -0.1257 
4 25 4 0.1696 0.1491 
4 25 5 0.6748 -0.1285 
4 25 6 -2.6121 0.1075 
4 25 7 0.7046 0.0037 
4 25 8 -0.6960 0.0036 
4 25 9 -2.3669 0.0376 
4 25 10 0.2410 -0.0042 
4 25 11 3.5810 0.1549 
4 25 12 -1.3793 0.0747 
4 25 13 -1.0970 0.0626 
4 25 14 -1.4075 0.2913 
4 25 15 -0.9651 0.2648 
4 25 16 -3.4868 -0.1971 
4 26 4 0.8449 -0.1462 
4 26 5 -1.8218 -0.1811 
4 26 6 0.1498 0.1264 
4 26 7 0.0452 -0.0502 
4 26 8 -2.0242 -0.0600 
4 26 9 -0.5773 -0.1740 
4 26 10 1.5531 0.1880 
4 26 11 -0.7931 0.2263 
4 26 12 1.8335 -0.2118 
4 26 13 1.1353 0.1105 
4 26 14 0.5854 0.4075 
4 26 15 -1.3117 0.0739 
4 27 4 -0.0798 -0.0579 
4 27 5 1.5641 -0.1340 
4 27 6 1.2627 0.1225 
4 27 7 -1.7294 -0.0295 
4 27 8 -1.1049 -0.2652 
4 27 9 0.9295 -0.0355 
4 27 10 -0.3653 -0.0937 
4 27 11 0.1135 -0.2028 
4 27 12 1.5996 0.1075 
4 27 13 -0.4021 0.5432 
4 28 4 -1.1506 -0.0136 
4 28 5 1.9405 0.0188 
4 28 6 1.2457 -0.0773 
4 28 7 0.0649 -0.1084 
4 28 8 -1.0276 0.4262 
4 28 9 -1.3559 -0.1442 
4 28 10 -1.1049 -0.7647 
4 28 11 1.3206 -0.3520 
4 29 4 -1.8294 -0.2662 
4 29 5 -0.6665 -0.1516 
4 29 6 0.8579 -0.3018 
4 29 7 2.7292 0.3809 
4 29 8 1.2343 0.2313 
4 29 9 -2.0998 -0.0283 
4 30 4 -1.1196 -0.3288 
4 30 5 -2.8478 0.0306 
5 0 7 0.5584 -0.7401 
5 0 9 0.9271 1.4761 
5 0 11 -1.4193 -0.1798 
5 0 13 -0.1492 0.3927 
5 0 15 1.1040 0.6353 
5 0 17 1.4952 -1.3483 
5 0 19 -2.4472 0.2946 
5 0 21 1.9627 -0.2615 
5 0 23 0.0396 -0.4107 
5 0 25 2.5552 1.0027 
5 0 27 0.8699 -0.6335 
5 1 5 -5.1356 0.4274 
5 1 6 3.0425 0.6247 
5 1 7 2.1766 -0.6867 
5 1 8 -0.3579 -0.0024 
5 1 9 -0.7196 -0.7130 
5 1 10 -1.0400 -0.4196 
5 1 11 1.4071 0.7811 
5 1 12 -1.9645 1.0940 
5 1 13 -1.0081 -0.5771 
5 1 14 1.0919 -0.8750 
5 1 15 -0.1679 1.0802 
5 1 16 2.4924 0.2227 
5 1 17 0.7031 0.3278 
5 1 18 -0.6005 0.2387 
5 1 19 0.8024 -0.8232 
5 1 20 -2.5003 -0.7046 
5 1 21 -1.2679 0.7870 
5 1 22 -1.2553 0.7247 
5 1 23 1.6318 -1.0819 
5 1 24 -1.3014 -0.5483 
5 1 25 0.2665 0.3126 
5 1 26 1.3115 0.2068 
5 1 27 2.8430 0.1521 
5 1 28 -0.0429 -0.2261 
5 2 5 -1.9806 -0.0353 
5 2 6 6.8801 -1.1796 
5 2 7 -1.5503 1.7079 
5 2 8 3.7077 0.3115 
5 2 9 -0.8756 -1.4891 
5 2 10 1.7749 -0.6562 
5 2 11 -0.6286 0.2519 
5 2 12 -0.2953 0.5636 
5 2 13 0.6800 -0.2927 
5 2 14 -1.3296 0.7837 
5 2 15 0.8234 -0.5659 
5 2 16 1.2497 -0.4598 
5 2 17 -1.5245 1.3737 
5 2 18 4.6429 0.7075 
5 2 19 -0.4978 -0.4539 
5 2 20 -0.0295 -0.3522 
5 2 21 -2.1777 0.2656 
5 2 22 0.0517 -0.1933 
5 2 23 -2.4955 0.4106 
5 2 24 -2.2351 0.3539 
5 2 25 -1.8718 -0.9786 
5 2 26 -1.4533 -0.3756 
5 2 27 0.8053 0.3027 
5 2 28 -0.1762 0.5987 
5 3 5 7.8530 -1.2752 
5 3 6 -6.6499 0.4058 
5 3 7 0.7225 0.8315 
5 3 8 4.2615 -0.3243 
5 3 9 -0.9633 0.7256 
5 3 10 1.6130 -0.4126 
5 3 11 -1.4113 -0.6071 
5 3 12 0.8928 -1.2501 
5 3 13 0.1679 0.6815 
5 3 14 -0.9553 0.4015 
5 3 15 1.3311 -0.9648 
5 3 16 -2.0834 -0.2077 
5 3 17 2.0307 -0.2526 
5 3 18 0.3881 -0.0215 
5 3 19 -0.7054 0.8160 
5 3 20 2.9068 0.4660 
5 3 21 0.5754 -0.9359 
5 3 22 1.6148 -0.5843 
5 3 23 -0.9112 1.0766 
5 3 24 2.2357 0.2302 
5 3 25 -3.1208 -0.1445 
5 3 26 1.4868 -0.4152 
5 3 27 -0.8043 0.1685 
5 3 28 -0.0708 0.2190 
5 4 5 -1.9539 0.4688 
5 4 6 -5.0091 1.1839 
5 4 7 5.3867 -1.4721 
5 4 8 -5.4468 0.6066 
5 4 9 2.7110 0.9125 
5 4 10 0.9357 0.4199 
5 4 11 -1.4502 -0.5576 
5 4 12 2.2043 -0.2517 
5 4 13 -0.9231 0.0410 
5 4 14 0.7249 -0.7047 
5 4 15 -0.0196 0.7308 
5 4 16 -0.7664 0.0890 
5 4 17 2.2218 -1.1374 
5 4 18 -2.4866 -0.5331 
5 4 19 2.1410 0.6415 
5 4 20 -0.6498 0.2444 
5 4 21 1.0262 -0.2573 
5 4 22 1.0200 -0.0116 
5 4 23 2.3187 -0.5582 
5 4 24 0.8664 -0.3195 
5 4 25 -0.2987 0.7919 
5 4 26 1.4417 0.2884 
5 4 27 -0.4314 -0.7592 
5 4 28 3.7371 -0.7586 
5 5 5 -3.0162 0.7072 
5 5 6 6.3893 -0.5704 
5 5 7 -3.2377 0.0938 
5 5 8 -1.3195 0.4029 
5 5 9 2.8094 -0.2568 
5 5 10 -5.2073 0.0677 
5 5 11 2.3650 0.7244 
5 5 12 -0.8031 0.9328 
5 5 13 0.9283 -0.9694 
5 5 14 2.9129 -0.1547 
5 5 15 -0.8156 0.4142 
5 5 16 1.5766 0.3450 
5 5 17 -1.3486 0.0936 
5 5 18 -0.0248 -0.1090 
5 5 19 0.7231 -0.6598 
5 5 20 -2.8650 -0.0958 
5 5 21 0.3269 1.0748 
5 5 22 -2.7899 0.2906 
5 5 23 3.3535 -0.8435 
5 5 24 -0.2860 -0.2750 
5 5 25 0.0961 0.5372 
5 5 26 -3.3475 0.0624 
5 5 27 -2.0571 -0.0218 
5 5 28 1.6305 0.0400 
5 6 5 0.9446 -1.2460 
5 6 6 -1.3503 -0.5278 
5 6 7 -0.8837 0.7422 
5 6 8 4.0961 -0.1788 
5 6 9 -4.7316 -0.7299 
5 6 10 -0.2272 -0.3537 
5 6 11 -3.6540 0.5592 
5 6 12 -4.6914 -0.0643 
5 6 13 0.3971 0.4994 
5 6 14 -1.1036 0.1130 
5 6 15 2.2088 -0.8635 
5 6 16 0.4429 -0.0459 
5 6 17 -0.3410 0.7423 
5 6 18 1.7426 0.1695 
5 6 19 -0.9172 -0.8898 
5 6 20 0.8414 -0.0973 
5 6 21 -2.4227 0.0905 
5 6 22 -1.9668 -0.0280 
5 6 23 0.5079 0.4135 
5 6 24 -0.9711 0.2154 
5 6 25 5.1328 -0.5884 
5 6 26 -1.9301 -0.2462 
5 6 27 -0.5154 1.5798 
5 6 28 -3.1319 -0.0789 
5 7 5 -1.6676 -0.3747 
5 7 6 0.0357 0.2349 
5 7 7 3.5092 -0.1602 
5 7 8 0.0082 -0.0500 
5 7 9 3.1174 0.3200 
5 7 10 2.6134 0.2016 
5 7 11 -4.2833 -1.0370 
5 7 12 -0.8961 -0.3508 
5 7 13 -6.1098 1.1092 
5 7 14 -0.4042 0.1816 
5 7 15 -1.9648 -0.1365 
5 7 16 -0.0228 -0.2765 
5 7 17 0.4311 0.0754 
5 7 18 -0.5076 0.2411 
5 7 19 -0.2719 0.5561 
5 7 20 1.8330 0.0174 
5 7 21 0.3234 -0.9805 
5 7 22 0.7278 0.0792 
5 7 23 -4.1714 0.3619 
5 7 24 0.6941 0.0241 
5 7 25 1.2499 -0.5949 
5 7 26 1.4337 0.2394 
5 7 27 1.8466 -0.2050 
5 8 5 -1.1761 0.9913 
5 8 6 0.2157 0.1433 
5 8 7 0.5838 -0.6175 
5 8 8 1.2357 0.0817 
5 8 9 6.7588 0.7601 
5 8 10 2.0674 0.0720 
5 8 11 6.6174 -0.3849 
5 8 12 -0.3251 -0.0508 
5 8 13 0.2548 -0.5300 
5 8 14 -0.9817 0.1956 
5 8 15 -1.0209 0.7355 
5 8 16 1.2424 -0.2754 
5 8 17 -0.7638 -0.5396 
5 8 18 0.1577 0.0838 
5 8 19 -1.1026 0.7072 
5 8 20 -0.6871 -0.0410 
5 8 21 -0.8713 0.2744 
5 8 22 1.5385 0.2179 
5 8 23 -0.1778 -0.4801 
5 8 24 -0.4691 0.0132 
5 8 25 -1.5383 0.4619 
5 8 26 1.3822 -0.1247 
5 8 27 0.4045 -1.2154 
5 9 5 -4.5329 0.3803 
5 9 6 -3.2140 -0.0906 
5 9 7 -4.6347 0.2826 
5 9 8 -1.2961 0.1314 
5 9 9 -2.3835 -0.4062 
5 9 10 0.1454 0.0037 
5 9 11 3.9723 0.8833 
5 9 12 0.7171 -0.1139 
5 9 13 3.4827 -0.6858 
5 9 14 -1.3318 0.0223 
5 9 15 2.1182 0.2181 
5 9 16 -1.1179 0.1333 
5 9 17 2.1614 -0.0721 
5 9 18 1.1546 -0.3057 
5 9 19 2.3030 -0.4670 
5 9 20 -1.2712 0.1141 
5 9 21 -0.4535 0.6442 
5 9 22 -0.5534 -0.1857 
5 9 23 -1.0586 -0.1373 
5 9 24 1.5027 0.1104 
5 9 25 -1.3146 -0.0674 
5 9 26 0.3097 -0.0550 
5 9 27 0.8808 0.2249 
5 10 5 -0.0422 -0.6957 
5 10 6 0.0673 -0.0755 
5 10 7 -1.3634 0.5208 
5 10 8 -0.2673 0.0932 
5 10 9 -5.1185 -0.3478 
5 10 10 -1.4061 0.1962 
5 10 11 -3.9234 0.0671 
5 10 12 -0.4721 0.2110 
5 10 13 -0.7248 0.2990 
5 10 14 -0.6450 -0.2308 
5 10 15 0.0664 -0.2785 
5 10 16 -0.7693 0.2902 
5 10 17 -1.6114 0.3281 
5 10 18 -1.0379 -0.2667 
5 10 19 0.7127 -0.2813 
5 10 20 1.3143 0.0426 
5 10 21 0.5407 -0.2756 
5 10 22 -2.6786 0.0908 
5 10 23 1.3178 0.5983 
5 10 24 -0.9848 -0.0425 
5 10 25 -2.1202 -0.5290 
5 10 26 -0.4531 0.6522 
5 11 5 3.8121 -0.2441 
5 11 6 2.2381 -0.2109 
5 11 7 2.5757 -0.3199 
5 11 8 2.5518 -0.1068 
5 11 9 4.5351 0.2909 
5 11 10 2.3955 -0.1537 
5 11 11 -0.9493 -0.5702 
5 11 12 0.1085 0.1699 
5 11 13 -1.9380 0.2057 
5 11 14 0.7217 0.0461 
5 11 15 0.3409 -0.1956 
5 11 16 0.8328 -0.0007 
5 11 17 0.4041 -0.1309 
5 11 18 -0.5927 0.0685 
5 11 19 -1.9885 0.1214 
5 11 20 -0.1600 -0.3216 
5 11 21 -1.1378 -0.4027 
5 11 22 0.9351 -0.0398 
5 11 23 -0.4315 0.1810 
5 11 24 -0.7009 -0.0743 
5 11 25 2.8327 0.4971 
5 11 26 -0.8111 -0.2578 
5 12 5 -0.2552 0.4380 
5 12 6 -2.9633 0.1108 
5 12 7 -3.1457 -0.2754 
5 12 8 0.8882 0.0164 
5 12 9 0.7692 0.2032 
5 12 10 2.4680 -0.0057 
5 12 11 2.4541 -0.0413 
5 12 12 1.7093 -0.1818 
5 12 13 -0.3734 -0.1724 
5 12 14 0.3585 0.3016 
5 12 15 -1.4901 0.2802 
5 12 16 3.0728 0.0184 
5 12 17 2.6467 0.0171 
5 12 18 2.8250 0.2194 
5 12 19 0.9823 0.0045 
5 12 20 1.7960 0.1457 
5 12 21 0.4934 0.1045 
5 12 22 0.5773 -0.1922 
5 12 23 -1.8672 -0.4515 
5 12 24 2.3920 0.0947 
5 12 25 2.6218 0.2942 
5 13 5 -2.4524 -0.0312 
5 13 6 -2.9406 0.0245 
5 13 7 -0.7147 0.1676 
5 13 8 -3.9687 0.0021 
5 13 9 -5.0250 -0.1414 
5 13 10 0.7311 0.2237 
5 13 11 -0.0280 0.2495 
5 13 12 0.1764 -0.1412 
5 13 13 -1.0416 -0.2031 
5 13 14 -1.1515 -0.0368 
5 13 15 -2.1003 -0.0542 
5 13 16 -2.1729 0.2478 
5 13 17 -1.5354 0.2473 
5 13 18 0.7383 -0.1514 
5 13 19 2.0106 -0.0051 
5 13 20 0.4360 0.1033 
5 13 21 0.1896 0.2726 
5 13 22 -0.1076 0.1343 
5 13 23 -1.1749 0.0275 
5 13 24 -0.1693 0.2505 
5 13 25 -1.4407 0.1287 
5 14 5 1.9637 -0.3029 
5 14 6 3.0323 -0.0990 
5 14 7 1.3816 0.0671 
5 14 8 -2.8335 -0.1689 
5 14 9 1.3115 -0.0246 
5 14 10 -0.3272 -0.1529 
5 14 11 -0.2006 -0.0245 
5 14 12 0.5394 0.0389 
5 14 13 2.8539 0.0387 
5 14 14 -0.2288 -0.4630 
5 14 15 0.1320 -0.1821 
5 14 16 -2.9776 0.0101 
5 14 17 -1.4180 -0.1010 
5 14 18 -2.5784 0.0009 
5 14 19 0.4421 -0.0774 
5 14 20 -2.3760 -0.3834 
5 14 21 1.5672 -0.1498 
5 14 22 -2.1113 -0.0947 
5 14 23 -0.4339 -0.1016 
5 14 24 -3.5921 -0.1269 
5 14 25 -1.5415 0.2238 
5 15 5 1.9924 0.0801 
5 15 6 0.2766 -0.0610 
5 15 7 0.0758 -0.1468 
5 15 8 0.6463 0.0607 
5 15 9 0.4986 0.1759 
5 15 10 -3.9393 -0.1446 
5 15 11 -0.2511 0.1075 
5 15 12 1.5047 -0.0044 
5 15 13 0.0524 0.0646 
5 15 14 0.4594 -0.0240 
5 15 15 3.3206 0.1392 
5 15 16 1.7305 -0.2689 
5 15 17 0.2036 0.0251 
5 15 18 -0.3675 0.1918 
5 15 19 0.4171 -0.0315 
5 15 20 0.9073 -0.0615 
5 15 21 2.3062 -0.0376 
5 15 22 0.2347 -0.2309 
5 15 23 0.8010 -0.3889 
5 15 24 -1.6477 -0.4114 
5 16 5 -0.4784 0.2446 
5 16 6 -1.7617 0.0844 
5 16 7 2.5424 -0.0291 
5 16 8 -0.6206 -0.0421 
5 16 9 -0.9149 -0.1497 
5 16 10 -2.4400 0.2217 
5 16 11 1.5619 0.1055 
5 16 12 -3.3516 -0.0472 
5 16 13 -1.9839 0.0049 
5 16 14 -0.6740 0.1814 
5 16 15 -0.3086 0.0157 
5 16 16 0.2110 0.0692 
5 16 17 -0.0795 0.2333 
5 16 18 1.3968 0.0558 
5 16 19 -1.9075 -0.0215 
5 16 20 1.2841 0.2330 
5 16 21 -0.0179 0.0357 
5 16 22 1.6938 0.0530 
5 16 23 2.2891 0.1244 
5 17 5 -0.9902 -0.0026 
5 17 6 3.3673 0.0938 
5 17 7 1.5127 0.2929 
5 17 8 1.7222 -0.0839 
5 17 9 1.7211 -0.0466 
5 17 10 2.7311 -0.0188 
5 17 11 -0.8938 -0.1295 
5 17 12 0.6283 0.1321 
5 17 13 2.4269 0.0137 
5 17 14 -0.5007 -0.1500 
5 17 15 -0.9791 -0.2697 
5 17 16 -1.8138 0.1992 
5 17 17 1.6478 0.1187 
5 17 18 -0.5749 0.0915 
5 17 19 -1.6912 0.1568 
5 17 20 -0.0278 0.0378 
5 17 21 -3.0001 0.0497 
5 17 22 0.2835 0.4539 
5 17 23 0.5588 0.2772 
5 18 5 -2.3072 -0.3224 
5 18 6 0.0973 -0.0853 
5 18 7 -2.2568 -0.0567 
5 18 8 2.5044 0.2591 
5 18 9 1.3406 0.1571 
5 18 10 0.0602 -0.0949 
5 18 11 -1.7295 -0.0482 
5 18 12 2.5668 0.1843 
5 18 13 -2.2042 0.0024 
5 18 14 2.8046 -0.0780 
5 18 15 -1.6716 -0.0822 
5 18 16 1.6195 -0.2155 
5 18 17 -0.3072 -0.2030 
5 18 18 -0.6390 0.1449 
5 18 19 2.4122 0.0376 
5 18 20 0.5202 -0.2047 
5 18 21 -1.7549 0.0111 
5 18 22 -1.1274 0.0452 
5 19 5 -1.2865 0.1110 
5 19 6 -3.3236 -0.1749 
5 19 7 -2.1943 -0.1618 
5 19 8 -0.1212 -0.0232 
5 19 9 -2.5199 0.0121 
5 19 10 0.1790 0.1680 
5 19 11 3.0034 0.1273 
5 19 12 -2.2145 -0.0620 
5 19 13 -0.8808 -0.0171 
5 19 14 -0.2108 0.3742 
5 19 15 -0.2966 0.1241 
5 19 16 0.8829 -0.1039 
5 19 17 -3.6514 -0.0290 
5 19 18 0.2762 0.1127 
5 19 19 1.1564 0.0298 
5 19 20 0.3419 0.1417 
5 19 21 1.8175 -0.2073 
5 20 5 -0.0177 0.0721 
5 20 6 0.7786 0.2077 
5 20 7 1.0823 0.0495 
5 20 8 -1.6813 -0.3565 
5 20 9 -1.9680 -0.0009 
5 20 10 0.7142 -0.0151 
5 20 11 -0.0133 0.1259 
5 20 12 1.4733 -0.2002 
5 20 13 2.9006 0.0433 
5 20 14 -0.4275 -0.1364 
5 20 15 2.2188 0.0431 
5 20 16 0.5467 0.2421 
5 20 17 1.0165 0.1522 
5 20 18 -0.5999 -0.0705 
5 20 19 -1.7360 0.0441 
5 20 20 -0.0074 0.2366 
5 21 5 0.4368 -0.1461 
5 21 6 0.6024 0.2599 
5 21 7 -1.2698 -0.1193 
5 21 8 1.3145 0.0762 
5 21 9 0.0462 -0.0870 
5 21 10 -3.7490 -0.1730 
5 21 11 -3.8699 -0.0104 
5 21 12 0.3786 0.1096 
5 21 13 0.8641 -0.0007 
5 21 14 -1.0955 -0.5247 
5 21 15 -0.3547 -0.2088 
5 21 16 1.2018 -0.0432 
5 21 17 1.8060 0.0572 
5 21 18 0.3830 0.0213 
5 21 19 -1.5788 -0.0810 
5 22 5 3.6711 -0.0138 
5 22 6 -1.6790 -0.1648 
5 22 7 0.4456 -0.1462 
5 22 8 1.5495 0.3288 
5 22 9 2.6002 -0.1702 
5 22 10 -1.1350 -0.0712 
5 22 11 -2.6786 -0.1182 
5 22 12 -2.1048 0.2214 
5 22 13 -0.4779 -0.0296 
5 22 14 -0.6320 -0.0671 
5 22 15 0.0478 -0.1402 
5 22 16 -2.6852 -0.5116 
5 22 17 0.7093 0.0903 
5 22 18 -0.5443 0.5195 
5 23 5 1.7754 0.0443 
5 23 6 0.0112 -0.2259 
5 23 7 1.3754 0.1153 
5 23 8 1.2480 -0.0845 
5 23 9 3.0037 -0.1227 
5 23 10 2.1385 0.1742 
5 23 11 2.6153 0.0172 
5 23 12 -3.3581 -0.0133 
5 23 13 -0.2701 -0.1649 
5 23 14 2.3728 0.2990 
5 23 15 2.3011 -0.4241 
5 23 16 -0.5293 -0.5145 
5 23 17 0.7880 -0.1573 
5 24 5 -1.9908 -0.0105 
5 24 6 -0.6448 0.2751 
5 24 7 1.4171 0.0623 
5 24 8 -1.3465 -0.1832 
5 24 9 -1.2756 0.1129 
5 24 10 5.5533 0.0766 
5 24 11 -0.6179 0.1990 
5 24 12 -1.1147 0.2103 
5 24 13 -2.2392 0.4613 
5 24 14 -0.5632 0.2055 
5 24 15 -0.4597 -0.3712 
5 24 16 1.5714 0.0310 
5 25 5 -1.5348 0.1282 
5 25 6 0.5570 0.0359 
5 25 7 -1.9032 0.1000 
5 25 8 -1.9754 0.1243 
5 25 9 2.9666 0.1332 
5 25 10 -0.7778 -0.2029 
5 25 11 -0.4047 0.0052 
5 25 12 3.9252 0.1034 
5 25 13 -2.9948 0.8069 
5 25 14 -2.4220 0.3117 
5 26 5 0.9558 0.0945 
5 26 6 -2.7562 -0.1835 
5 26 7 -3.5813 -0.0990 
5 26 8 1.5712 -0.0270 
5 26 9 -0.5003 0.0248 
5 26 10 -1.7019 0.0049 
5 26 11 3.5354 -0.1919 
5 26 12 0.4637 -0.1193 
5 26 13 1.2283 -0.0368 
5 27 5 0.8439 0.0992 
5 27 6 0.5309 -0.1708 
5 27 7 -0.6621 0.0909 
5 27 8 -3.5156 -0.2142 
5 27 9 -1.7962 -0.5582 
5 27 10 1.8408 -0.0618 
5 27 11 -0.2371 0.0391 
5 28 5 2.8342 -0.3409 
5 28 6 4.6891 0.2292 
5 28 7 0.4240 0.4284 
5 28 8 -1.6542 -0.1460 
5 29 5 -0.3738 -0.1581 
6 0 6 5.3892 6.2304 
6 0 8 0.1120 -0.5797 
6 0 10 4.2637 0.2855 
6 0 12 0.1632 -0.8913 
6 0 14 0.6355 -0.5428 
6 0 16 0.1254 0.8141 
6 0 18 -1.2305 -0.7127 
6 0 20 1.2540 0.5592 
6 0 22 4.6166 0.3433 
6 0 24 -1.2576 -0.6552 
6 0 26 -0.0462 0.1619 
6 1 6 1.8142 1.7009 
6 1 7 -0.6640 0.6384 
6 1 8 -0.4299 2.3023 
6 1 9 0.0210 0.1327 
6 1 10 -0.0388 0.3207 
6 1 11 -1.5616 -1.1050 
6 1 12 2.2672 0.9072 
6 1 13 -0.6859 0.6172 
6 1 14 0.3397 -1.0267 
6 1 15 1.5906 -0.6110 
6 1 16 0.2861 -0.1964 
6 1 17 0.0798 0.0125 
6 1 18 -0.2448 0.4046 
6 1 19 -2.5751 0.6814 
6 1 20 -3.1609 -0.9686 
6 1 21 0.1391 -0.6630 
6 1 22 2.2199 1.2776 
6 1 23 -1.4516 0.9264 
6 1 24 2.6132 -0.2388 
6 1 25 0.2375 -0.0534 
6 1 26 0.9672 0.6987 
6 2 6 -4.8448 -3.0584 
6 2 7 3.8857 0.5194 
6 2 8 1.2219 0.7112 
6 2 9 -0.1074 0.9819 
6 2 10 -3.0505 -0.6241 
6 2 11 1.5497 0.2915 
6 2 12 -0.7920 0.4685 
6 2 13 -1.4090 -0.0874 
6 2 14 0.3412 0.7078 
6 2 15 0.6263 0.6013 
6 2 16 0.2306 -0.8976 
6 2 17 3.7316 -0.8745 
6 2 18 -0.7493 0.6688 
6 2 19 0.0628 0.3607 
6 2 20 -1.2015 -0.5974 
6 2 21 -0.7775 -0.2727 
6 2 22 -3.9505 -0.3120 
6 2 23 1.3351 -0.3813 
6 2 24 -0.3564 0.5522 
6 2 25 -1.6223 0.7754 
6 2 26 1.4733 -0.8528 
6 3 6 0.9723 -0.7959 
6 3 7 3.5792 -0.5261 
6 3 8 -1.9304 -0.2301 
6 3 9 2.8315 -0.4525 
6 3 10 0.6384 0.3362 
6 3 11 0.6573 0.8066 
6 3 12 -1.2459 -0.7975 
6 3 13 0.4100 -0.3912 
6 3 14 0.3009 0.5231 
6 3 15 -1.6942 0.7040 
6 3 16 1.2070 0.0326 
6 3 17 0.8901 -0.0222 
6 3 18 0.0340 -0.3979 
6 3 19 3.5492 -0.5469 
6 3 20 -1.0369 0.8588 
6 3 21 -1.1098 0.2231 
6 3 22 -0.1271 -0.9774 
6 3 23 1.9229 -0.8931 
6 3 24 -3.2284 0.8041 
6 3 25 1.8261 -0.4450 
6 3 26 -1.4501 -0.0934 
6 4 6 4.3510 0.4084 
6 4 7 -6.3499 0.3965 
6 4 8 2.0969 -0.9351 
6 4 9 1.8198 -0.9878 
6 4 10 -0.8751 0.5666 
6 4 11 1.8066 -0.4385 
6 4 12 -0.6681 0.1636 
6 4 13 1.5165 -0.0855 
6 4 14 -0.9501 -0.6552 
6 4 15 -0.9847 -0.4470 
6 4 16 0.7731 0.7577 
6 4 17 -2.3964 0.7198 
6 4 18 3.1663 -0.9581 
6 4 19 0.2607 -0.2374 
6 4 20 -0.4053 0.4242 
6 4 21 1.2026 0.0082 
6 4 22 0.2662 0.0545 
6 4 23 -0.8004 0.2934 
6 4 24 0.1977 -0.5915 
6 4 25 0.5898 -0.5714 
6 4 26 -0.5867 0.7456 
6 5 6 -3.6908 0.5214 
6 5 7 0.1530 0.3494 
6 5 8 2.1830 -0.0074 
6 5 9 -5.2990 0.7677 
6 5 10 2.7353 -0.9842 
6 5 11 -0.8886 -0.8693 
6 5 12 1.5685 0.9545 
6 5 13 0.9774 0.2446 
6 5 14 -0.2362 -0.4569 
6 5 15 1.7792 -0.4969 
6 5 16 -1.7129 0.2998 
6 5 17 -0.1181 0.1960 
6 5 18 0.1554 0.3565 
6 5 19 -2.3330 0.5160 
6 5 20 2.7398 -0.9141 
6 5 21 -1.3723 -0.0338 
6 5 22 0.9940 0.7915 
6 5 23 -0.6726 0.4829 
6 5 24 1.1954 -0.3783 
6 5 25 -2.0820 0.1953 
6 5 26 -1.6683 -0.0092 
6 6 6 0.1597 -0.6463 
6 6 7 2.2913 -0.4423 
6 6 8 -4.6196 1.2755 
6 6 9 0.3734 0.6885 
6 6 10 -1.8411 -0.6663 
6 6 11 -2.7247 0.2023 
6 6 12 0.5105 -0.3942 
6 6 13 -1.0749 -0.0764 
6 6 14 2.1794 0.5096 
6 6 15 -0.9559 -0.1846 
6 6 16 1.7179 -0.8509 
6 6 17 0.8833 -0.3404 
6 6 18 -1.3326 0.9005 
6 6 19 0.9505 -0.0818 
6 6 20 -0.7491 -0.4272 
6 6 21 -1.6379 0.0505 
6 6 22 -0.2864 -0.3061 
6 6 23 -0.7665 0.0090 
6 6 24 3.4890 0.5783 
6 6 25 -1.3604 0.5608 
6 6 26 -0.4407 0.0063 
6 7 6 2.0602 -0.2266 
6 7 7 -0.9042 -0.0275 
6 7 8 2.0128 -0.0489 
6 7 9 1.1469 -0.2328 
6 7 10 -3.6316 1.1090 
6 7 11 -0.3487 0.3304 
6 7 12 -3.0926 -0.7263 
6 7 13 0.9872 0.1008 
6 7 14 -2.7892 0.5139 
6 7 15 0.4519 0.0846 
6 7 16 -0.5405 -0.2599 
6 7 17 -1.4481 -0.1160 
6 7 18 2.1195 -0.3199 
6 7 19 0.7319 -0.1419 
6 7 20 0.0586 0.6552 
6 7 21 0.5629 -0.0909 
6 7 22 -1.1878 -0.8039 
6 7 23 -0.1800 -0.4363 
6 7 24 -0.8518 0.0965 
6 7 25 1.1514 0.3335 
6 7 26 1.9866 -0.2226 
6 8 6 0.2451 0.5380 
6 8 7 2.3171 0.1154 
6 8 8 5.0157 -0.7172 
6 8 9 0.3077 -0.1097 
6 8 10 2.8561 0.4578 
6 8 11 -0.0935 0.0910 
6 8 12 0.4100 0.3721 
6 8 13 -0.5257 -0.0152 
6 8 14 0.9696 -0.0874 
6 8 15 1.8638 0.2380 
6 8 16 -3.2758 0.7886 
6 8 17 1.0409 -0.2256 
6 8 18 -1.3172 -0.3016 
6 8 19 -1.3118 0.1095 
6 8 20 -0.0211 0.4416 
6 8 21 1.0576 -0.0409 
6 8 22 0.1780 0.3661 
6 8 23 -0.1072 0.0556 
6 8 24 -0.7325 -0.4027 
6 8 25 0.8176 -0.3499 
6 9 6 -3.4977 0.0064 
6 9 7 -0.4873 0.0322 
6 9 8 -0.6131 0.1469 
6 9 9 0.2262 0.0169 
6 9 10 2.8554 -0.6712 
6 9 11 -1.0555 -0.1252 
6 9 12 0.3952 0.3399 
6 9 13 -0.5096 0.0330 
6 9 14 2.2392 -0.2917 
6 9 15 0.2760 0.1637 
6 9 16 2.3934 0.0170 
6 9 17 1.4406 0.0581 
6 9 18 -1.3045 0.2972 
6 9 19 1.2083 -0.1332 
6 9 20 0.3421 -0.4721 
6 9 21 -1.4812 -0.2422 
6 9 22 -0.8371 0.5984 
6 9 23 1.4743 -0.0478 
6 9 24 -0.1853 -0.3176 
6 9 25 1.0478 -0.1644 
6 10 6 -2.7337 -0.4717 
6 10 7 -1.6184 -0.1131 
6 10 8 -2.9427 0.4762 
6 10 9 1.1392 0.2707 
6 10 10 -1.4484 -0.2434 
6 10 11 -2.4451 -0.1098 
6 10 12 -0.0883 -0.3095 
6 10 13 -2.5346 0.0408 
6 10 14 -0.4830 0.1375 
6 10 15 -0.4432 -0.1276 
6 10 16 1.4302 -0.4097 
6 10 17 -0.6908 0.3633 
6 10 18 -0.0188 0.0019 
6 10 19 1.4151 0.1493 
6 10 20 -0.5087 -0.1494 
6 10 21 -0.0439 0.1093 
6 10 22 0.3359 -0.4438 
6 10 23 -1.8388 -0.2743 
6 10 24 0.7436 0.1830 
6 10 25 0.1465 -0.1700 
6 11 6 1.1814 -0.0651 
6 11 7 0.2596 -0.1811 
6 11 8 2.1417 -0.3138 
6 11 9 2.1220 -0.0409 
6 11 10 0.1353 0.5335 
6 11 11 1.8152 0.0694 
6 11 12 -0.5578 -0.3344 
6 11 13 -1.8817 0.0037 
6 11 14 -0.4179 -0.0310 
6 11 15 -1.6252 -0.0052 
6 11 16 1.2038 0.0610 
6 11 17 -0.0229 -0.1775 
6 11 18 0.0175 -0.4102 
6 11 19 -1.9290 0.2925 
6 11 20 -1.0108 0.1808 
6 11 21 0.0694 0.2881 
6 11 22 -1.8737 -0.3586 
6 11 23 -1.6776 0.1687 
6 11 24 -0.2640 0.3121 
6 12 6 -0.0424 0.4508 
6 12 7 0.9450 0.1582 
6 12 8 -2.0098 -0.3425 
6 12 9 1.2954 -0.0794 
6 12 10 1.7023 0.0029 
6 12 11 3.5100 0.1274 
6 12 12 -1.2093 0.2490 
6 12 13 2.0068 -0.0818 
6 12 14 -1.0447 -0.1072 
6 12 15 -0.4426 0.2859 
6 12 16 -0.0302 0.1732 
6 12 17 1.9238 -0.1089 
6 12 18 1.9069 0.0988 
6 12 19 2.8160 0.0006 
6 12 20 -0.6236 -0.1489 
6 12 21 1.9379 0.4414 
6 12 22 0.0892 0.1017 
6 12 23 -0.1068 0.3958 
6 12 24 -1.2234 -0.3641 
6 13 6 -0.3214 -0.1778 
6 13 7 -2.7916 0.0860 
6 13 8 -3.0942 0.2882 
6 13 9 0.3135 -0.0142 
6 13 10 -1.3528 -0.3423 
6 13 11 0.2908 0.0456 
6 13 12 -1.0028 0.0467 
6 13 13 2.9636 -0.0378 
6 13 14 -2.1119 0.1393 
6 13 15 0.4852 -0.0548 
6 13 16 -2.1348 0.0147 
6 13 17 -1.5829 0.0222 
6 13 18 1.8874 0.3051 
6 13 19 0.2257 -0.4232 
6 13 20 0.8664 0.1421 
6 13 21 3.2741 -0.0541 
6 13 22 -0.5804 0.2572 
6 13 23 3.4562 0.5396 
6 14 6 0.8632 -0.1780 
6 14 7 -0.7548 -0.2084 
6 14 8 1.2462 0.0211 
6 14 9 -1.9622 0.0234 
6 14 10 0.4260 0.1241 
6 14 11 -0.1387 -0.2003 
6 14 12 2.4594 -0.2974 
6 14 13 -2.0889 -0.0774 
6 14 14 1.4881 0.0184 
6 14 15 1.9955 -0.1945 
6 14 16 -1.7552 0.1462 
6 14 17 -1.9024 -0.2313 
6 14 18 -1.3721 -0.0353 
6 14 19 -3.6593 -0.4758 
6 14 20 1.8685 0.2679 
6 14 21 -5.1492 -1.0163 
6 14 22 0.0029 -0.1658 
6 15 6 2.2789 0.2693 
6 15 7 0.7844 -0.0970 
6 15 8 -1.0978 -0.0719 
6 15 9 -1.9705 0.0748 
6 15 10 0.2105 0.2769 
6 15 11 0.3694 0.0652 
6 15 12 -0.3966 0.1250 
6 15 13 -1.7792 -0.0990 
6 15 14 3.2283 -0.3280 
6 15 15 -0.7421 0.1948 
6 15 16 3.4227 0.1489 
6 15 17 1.1798 0.1239 
6 15 18 -0.0167 -0.1620 
6 15 19 0.5235 0.0959 
6 15 20 0.4648 0.2786 
6 15 21 -2.7943 -0.1562 
6 15 22 1.1338 0.1161 
6 16 6 1.4657 -0.1212 
6 16 7 -1.5642 0.1331 
6 16 8 0.8773 0.0090 
6 16 9 -1.9317 -0.2055 
6 16 10 -2.1255 -0.1878 
6 16 11 -1.5908 0.2839 
6 16 12 -0.6851 0.2816 
6 16 13 -0.2851 -0.0301 
6 16 14 -3.1652 -0.1261 
6 16 15 -1.5661 0.1553 
6 16 16 1.4891 -0.1570 
6 16 17 1.5019 0.4670 
6 16 18 1.5969 -0.2854 
6 16 19 1.6034 0.1435 
6 16 20 1.5103 -0.5059 
6 16 21 2.1849 0.8653 
6 17 6 1.5484 -0.0182 
6 17 7 2.4989 0.0423 
6 17 8 4.7104 0.1065 
6 17 9 -0.9173 -0.1530 
6 17 10 0.0250 -0.0118 
6 17 11 1.1772 -0.1617 
6 17 12 -0.5493 -0.2012 
6 17 13 1.6666 0.1541 
6 17 14 -1.4591 0.1476 
6 17 15 -1.1115 -0.1718 
6 17 16 -2.4302 -0.1215 
6 17 17 -0.2638 0.4778 
6 17 18 -1.4036 0.0520 
6 17 19 1.9049 -0.0357 
6 17 20 -0.6724 -0.6725 
6 17 21 1.3223 -0.0419 
6 18 6 -3.7943 0.0688 
6 18 7 4.3997 -0.1139 
6 18 8 1.1030 -0.0583 
6 18 9 1.4831 0.3295 
6 18 10 4.3724 0.3062 
6 18 11 -1.7888 -0.1994 
6 18 12 -0.3622 0.0572 
6 18 13 2.5144 0.0165 
6 18 14 -0.7592 -0.0153 
6 18 15 3.0222 -0.2026 
6 18 16 -2.7697 0.2415 
6 18 17 -1.1457 -0.0037 
6 18 18 -0.3734 0.2533 
6 18 19 1.4144 0.4076 
6 18 20 -2.3829 0.0269 
6 19 6 -2.9766 0.1758 
6 19 7 -1.9941 -0.0915 
6 19 8 -4.8994 -0.0821 
6 19 9 3.0464 -0.0273 
6 19 10 -0.4136 -0.1311 
6 19 11 -1.4830 0.3063 
6 19 12 3.1742 0.3955 
6 19 13 -4.2296 -0.2655 
6 19 14 2.1486 -0.0179 
6 19 15 -0.3216 0.0917 
6 19 16 -0.2756 0.2382 
6 19 17 -0.5123 -0.2716 
6 19 18 -1.2945 0.4757 
6 19 19 -1.4407 0.1373 
6 20 6 1.4606 -0.1059 
6 20 7 -3.6699 0.1434 
6 20 8 1.0887 0.2114 
6 20 9 -1.0810 -0.3819 
6 20 10 -4.0838 -0.2893 
6 20 11 3.0431 0.1509 
6 20 12 0.2240 -0.1189 
6 20 13 -0.2460 -0.0352 
6 20 14 0.1783 0.1038 
6 20 15 -1.1582 -0.3308 
6 20 16 4.4318 -0.0298 
6 20 17 -1.7091 0.1706 
6 20 18 -0.8511 0.3110 
6 21 6 -3.6495 -0.4556 
6 21 7 3.2685 0.1354 
6 21 8 0.9714 -0.0193 
6 21 9 -0.9154 0.0150 
6 21 10 -0.6180 0.0488 
6 21 11 0.5069 -0.3352 
6 21 12 -1.1258 -0.3313 
6 21 13 1.8887 0.4077 
6 21 14 -1.7496 -0.3694 
6 21 15 1.2236 -0.2555 
6 21 16 -1.4676 -0.2975 
6 21 17 2.7076 -0.0590 
6 22 6 1.4977 -0.0510 
6 22 7 -0.0115 -0.1072 
6 22 8 -1.5272 -0.3204 
6 22 9 1.0282 0.3177 
6 22 10 1.0680 0.1162 
6 22 11 -1.9643 -0.2514 
6 22 12 -0.8341 0.0240 
6 22 13 2.5850 -0.2569 
6 22 14 1.7138 -0.0840 
6 22 15 -2.1516 0.1189 
6 22 16 -1.7430 -0.3276 
6 23 6 3.1605 0.1003 
6 23 7 -0.5310 -0.0242 
6 23 8 0.8396 -0.1016 
6 23 9 1.2323 0.1334 
6 23 10 0.9688 -0.0245 
6 23 11 -3.8919 0.4052 
6 23 12 1.4424 -0.0477 
6 23 13 -1.2540 -0.3233 
6 23 14 2.3397 -0.2956 
6 24 6 -0.7515 0.2099 
6 24 7 -1.0395 0.2518 
6 24 8 1.6480 -0.0241 
6 24 9 2.1282 -0.0366 
6 24 10 -2.2824 0.0788 
6 24 11 2.6406 0.5526 
6 24 12 -2.2845 0.5765 
6 24 13 -4.1074 0.6058 
6 25 6 -1.5820 0.3792 
6 25 7 -1.0532 -0.3124 
6 25 8 1.4786 0.3165 
6 25 9 -1.9586 -0.1504 
6 25 10 2.5387 0.0383 
6 25 11 2.4268 -0.1234 
6 26 6 0.4691 -0.3787 
6 26 7 -1.0603 -0.0657 
6 26 8 -2.3847 -0.0691 
6 26 9 1.1250 -0.2881 
6 27 6 -0.8362 0.3442 
7 0 7 1.5550 1.6045 
7 0 9 2.5121 -0.9741 
7 0 11 2.7109 0.6276 
7 0 13 -0.2210 0.3365 
7 0 15 0.2968 0.0553 
7 0 17 -1.9340 1.2141 
7 0 19 0.6105 -0.8741 
7 0 21 1.7868 0.1765 
7 0 23 0.1302 -0.2811 
7 1 7 2.3850 3.1459 
7 1 8 1.2783 -1.1734 
7 1 9 -0.1560 0.0571 
7 1 10 0.3070 0.6478 
7 1 11 2.5089 -0.2654 
7 1 12 -1.2734 -0.9780 
7 1 13 2.1862 0.0651 
7 1 14 0.0786 0.8210 
7 1 15 1.5001 -0.3840 
7 1 16 -0.1136 -0.0242 
7 1 17 0.2721 0.1870 
7 1 18 -0.8823 -0.3836 
7 1 19 -1.3804 1.1091 
7 1 20 -0.1098 0.8791 
7 1 21 0.0133 -0.6705 
7 1 22 -1.1518 -0.7076 
7 1 23 1.7259 1.6804 
7 1 24 -0.8908 0.5772 
7 2 7 0.1059 -0.9143 
7 2 8 -1.3224 -0.8032 
7 2 9 0.0948 0.8888 
7 2 10 1.2872 -0.2263 
7 2 11 -2.6370 -0.7136 
7 2 12 0.3354 0.0765 
7 2 13 0.2019 -0.5715 
7 2 14 -0.5758 -0.3363 
7 2 15 -0.1958 0.0003 
7 2 16 1.3747 0.9397 
7 2 17 0.8403 -1.3766 
7 2 18 -0.4763 -0.4618 
7 2 19 -0.1111 0.5694 
7 2 20 -0.0566 0.0467 
7 2 21 -0.4134 -0.1956 
7 2 22 1.7547 0.1273 
7 2 23 -0.9138 -0.3034 
7 2 24 -1.1748 -0.6547 
7 3 7 -4.0463 -0.9394 
7 3 8 1.0224 2.2106 
7 3 9 0.6822 0.1004 
7 3 10 0.2216 -0.6304 
7 3 11 -0.1704 0.7564 
7 3 12 0.8102 0.5101 
7 3 13 -1.1168 -0.4032 
7 3 14 -0.3304 -0.6330 
7 3 15 -0.1978 0.2916 
7 3 16 0.9038 0.2149 
7 3 17 -1.0396 0.0178 
7 3 18 2.0565 0.3234 
7 3 19 -2.1029 -1.1770 
7 3 20 -1.1195 -0.3929 
7 3 21 0.5563 0.7389 
7 3 22 0.7176 0.3882 
7 3 23 -0.3014 -0.7769 
7 3 24 2.6803 -1.0696 
7 4 7 0.8927 0.6132 
7 4 8 -0.3727 0.7489 
7 4 9 -1.5250 -0.7700 
7 4 10 2.2676 0.4690 
7 4 11 0.4326 0.2243 
7 4 12 1.1135 0.0657 
7 4 13 -0.5557 0.3422 
7 4 14 0.5803 0.1295 
7 4 15 0.5228 -0.6791 
7 4 16 -1.9664 -0.5507 
7 4 17 1.2422 0.9355 
7 4 18 1.1436 0.1614 
7 4 19 -0.6969 -0.5489 
7 4 20 1.2962 -0.2413 
7 4 21 -3.8786 -0.1635 
7 4 22 -1.0453 0.5214 
7 4 23 0.8236 0.4382 
7 4 24 0.1331 0.9606 
7 5 7 0.8631 0.1282 
7 5 8 -2.8843 -1.3089 
7 5 9 1.2813 0.3268 
7 5 10 -1.7291 0.1399 
7 5 11 0.9068 -0.4672 
7 5 12 0.6486 -0.5823 
7 5 13 0.6374 0.7266 
7 5 14 1.6025 0.4946 
7 5 15 -0.1580 -0.3065 
7 5 16 0.2042 -0.0179 
7 5 17 -0.2943 -0.3716 
7 5 18 -2.0348 0.0440 
7 5 19 3.0351 0.5719 
7 5 20 -0.3209 0.0356 
7 5 21 0.1588 -0.9629 
7 5 22 1.0139 -0.5695 
7 5 23 -1.0836 0.6916 
7 5 24 -0.7715 0.9967 
7 6 7 -1.1101 -0.6762 
7 6 8 0.7474 -0.3013 
7 6 9 -2.4259 0.5025 
7 6 10 -1.7773 0.0610 
7 6 11 0.3757 -0.1637 
7 6 12 -0.6545 -0.2695 
7 6 13 -0.3381 -0.0263 
7 6 14 -1.2506 -0.3482 
7 6 15 2.4030 1.0804 
7 6 16 1.4975 0.1221 
7 6 17 0.4044 -0.5899 
7 6 18 -0.5657 -0.1681 
7 6 19 -1.5021 0.4883 
7 6 20 -1.7847 0.0843 
7 6 21 1.7844 -0.1463 
7 6 22 -1.2541 -0.2365 
7 6 23 0.6086 -0.5761 
7 6 24 0.9635 -0.2800 
7 7 7 2.7416 0.1297 
7 7 8 -1.2384 0.5531 
7 7 9 -1.5036 -0.3325 
7 7 10 -0.5444 -0.2163 
7 7 11 -0.1700 0.4822 
7 7 12 0.5477 0.3469 
7 7 13 -1.6192 -0.8295 
7 7 14 -0.1751 -0.1569 
7 7 15 -2.1913 0.3649 
7 7 16 -0.4041 0.0239 
7 7 17 3.6718 0.4651 
7 7 18 0.0938 -0.0363 
7 7 19 0.4776 -0.4221 
7 7 20 -0.8231 -0.2722 
7 7 21 -1.0222 0.9867 
7 7 22 -2.7711 -0.0468 
7 7 23 0.4476 -0.5210 
7 8 7 0.9873 0.8155 
7 8 8 2.7142 0.2945 
7 8 9 1.3013 -0.2285 
7 8 10 -1.8203 0.1171 
7 8 11 -0.5467 0.1792 
7 8 12 0.7414 0.0236 
7 8 13 3.8888 0.3469 
7 8 14 0.9070 -0.1019 
7 8 15 -2.6309 -0.6580 
7 8 16 0.5738 0.1865 
7 8 17 -1.0357 0.6627 
7 8 18 0.8475 0.0144 
7 8 19 2.9323 -0.2818 
7 8 20 -0.3821 -0.0155 
7 8 21 -0.9723 0.1113 
7 8 22 -0.2072 -0.1200 
7 8 23 0.1154 0.9880 
7 9 7 0.2138 -0.3052 
7 9 8 2.6231 -0.1872 
7 9 9 0.8474 0.4351 
7 9 10 -1.4624 0.2177 
7 9 11 -3.0274 -0.4682 
7 9 12 -0.8329 0.2532 
7 9 13 0.2252 0.3383 
7 9 14 2.0393 -0.0757 
7 9 15 1.4502 -0.0884 
7 9 16 0.7998 -0.0233 
7 9 17 -2.9308 -0.3459 
7 9 18 3.0270 0.1400 
7 9 19 1.1406 0.1897 
7 9 20 1.1347 -0.0913 
7 9 21 1.5030 -1.0704 
7 9 22 0.4960 -0.1703 
7 9 23 -1.4703 0.2200 
7 10 7 -1.5265 -0.5427 
7 10 8 -1.1955 -0.1901 
7 10 9 2.0678 0.0493 
7 10 10 0.0367 -0.0286 
7 10 11 -0.2491 0.0095 
7 10 12 -5.0942 -0.0955 
7 10 13 -1.4152 -0.3156 
7 10 14 -0.7346 0.3350 
7 10 15 0.9115 0.3282 
7 10 16 0.3022 -0.2079 
7 10 17 -2.2210 -0.1927 
7 10 18 0.1098 0.2724 
7 10 19 -2.5776 0.0903 
7 10 20 3.8796 0.0943 
7 10 21 1.8434 -0.2970 
7 10 22 -0.1197 -0.2714 
7 11 7 -1.9273 0.1845 
7 11 8 -0.0517 -0.0371 
7 11 9 1.5208 -0.2075 
7 11 10 2.9588 -0.1068 
7 11 11 1.7094 0.2835 
7 11 12 -1.4339 -0.2413 
7 11 13 0.1828 -0.0726 
7 11 14 -3.8619 0.0072 
7 11 15 2.5262 0.0030 
7 11 16 -0.7701 0.0959 
7 11 17 0.9087 0.4071 
7 11 18 -2.4754 -0.0094 
7 11 19 -3.5595 -0.1836 
7 11 20 -1.3243 0.4308 
7 11 21 -1.9642 0.5313 
7 11 22 0.2878 0.1933 
7 12 7 -0.9808 0.2191 
7 12 8 0.8695 0.2119 
7 12 9 -1.7509 -0.1297 
7 12 10 2.3826 0.0037 
7 12 11 -0.0515 -0.1290 
7 12 12 3.4646 0.1514 
7 12 13 -0.7348 -0.0149 
7 12 14 -0.8123 -0.2742 
7 12 15 -0.1068 -0.2250 
7 12 16 -1.2334 0.2630 
7 12 17 3.8807 0.1704 
7 12 18 1.4497 0.0043 
7 12 19 -0.7138 0.2243 
7 12 20 -0.4087 0.2276 
7 12 21 -2.0512 -0.2816 
7 13 7 0.3240 -0.2775 
7 13 8 -0.4592 0.0319 
7 13 9 -1.7586 0.1443 
7 13 10 0.0938 0.0296 
7 13 11 -1.7336 -0.1093 
7 13 12 2.8075 0.1499 
7 13 13 -1.4457 -0.2197 
7 13 14 3.4569 -0.0425 
7 13 15 -1.9161 -0.1261 
7 13 16 -1.1067 -0.3053 
7 13 17 1.6955 -0.3791 
7 13 18 -0.4005 0.1205 
7 13 19 3.8197 0.4081 
7 13 20 1.4748 -0.2719 
7 13 21 -0.3458 0.0406 
7 14 7 0.1797 -0.1659 
7 14 8 -1.3545 -0.0910 
7 14 9 1.5196 -0.1647 
7 14 10 -0.6499 0.1596 
7 14 11 0.9188 0.2216 
7 14 12 -2.2677 -0.0937 
7 14 13 0.4069 0.1620 
7 14 14 2.4874 0.2022 
7 14 15 -0.6740 0.1142 
7 14 16 2.0929 -0.3727 
7 14 17 -2.4758 0.1591 
7 14 18 -1.7274 -0.5565 
7 14 19 1.9390 0.0406 
7 14 20 -3.0801 -0.3450 
7 15 7 0.2098 0.3277 
7 15 8 -0.1291 -0.0560 
7 15 9 -0.8682 -0.1256 
7 15 10 0.1281 0.0537 
7 15 11 1.0874 -0.1619 
7 15 12 -1.9467 0.1138 
7 15 13 0.1439 0.1699 
7 15 14 -3.3142 0.0083 
7 15 15 2.7352 -0.0084 
7 15 16 1.1252 0.4110 
7 15 17 -0.2091 0.1636 
7 15 18 0.7432 -0.2922 
7 15 19 -1.2686 0.5090 
7 16 7 1.6049 -0.0150 
7 16 8 -1.6304 -0.0137 
7 16 9 -2.7552 0.2679 
7 16 10 0.2445 -0.2956 
7 16 11 -0.4152 -0.2629 
7 16 12 0.4783 0.0410 
7 16 13 -1.3063 -0.2647 
7 16 14 -2.0821 -0.0656 
7 16 15 -0.8854 -0.2314 
7 16 16 -1.0995 0.0569 
7 16 17 3.0757 -0.7694 
7 16 18 1.0792 0.2254 
7 16 19 1.3474 -0.6154 
7 17 7 3.6356 -0.1496 
7 17 8 -0.7510 -0.0701 
7 17 9 1.8729 0.2898 
7 17 10 -0.9553 -0.0842 
7 17 11 -2.5857 0.3520 
7 17 12 3.4034 -0.1587 
7 17 13 -0.0202 -0.0917 
7 17 14 0.9089 0.3290 
7 17 15 -2.7034 0.1078 
7 17 16 -0.3014 0.2816 
7 17 17 -1.7344 -0.3289 
7 17 18 1.7581 -0.0281 
7 18 7 0.8207 0.1787 
7 18 8 3.2701 -0.1646 
7 18 9 5.0189 -0.2222 
7 18 10 -3.1871 0.3199 
7 18 11 2.2782 0.5168 
7 18 12 -0.2064 -0.1530 
7 18 13 -1.5079 0.2705 
7 18 14 3.5080 -0.0066 
7 18 15 -0.6319 0.5251 
7 18 16 0.5946 0.6819 
7 18 17 -2.8691 0.7441 
7 19 7 -4.6269 0.2258 
7 19 8 1.9476 -0.2101 
7 19 9 -1.8067 -0.0629 
7 19 10 1.1707 -0.1806 
7 19 11 3.2201 -0.1490 
7 19 12 -4.9460 -0.0074 
7 19 13 2.2757 0.2669 
7 19 14 -2.6786 -0.6283 
7 19 15 1.5149 0.0695 
7 19 16 -0.1990 -0.0573 
7 20 7 0.9339 -0.2398 
7 20 8 -2.9721 0.4024 
7 20 9 -1.8017 -0.0441 
7 20 10 1.3189 -0.3467 
7 20 11 -2.1364 -0.3244 
7 20 12 0.7832 0.0487 
7 20 13 -0.0112 -0.1035 
7 20 14 -2.5895 -0.5627 
7 20 15 1.4544 -0.0838 
7 21 7 -0.9513 -0.2095 
7 21 8 1.4948 0.1019 
7 21 9 1.2609 -0.3852 
7 21 10 0.8176 0.3997 
7 21 11 -0.4261 -0.2584 
7 21 12 2.1377 0.1935 
7 21 13 -0.6732 -0.6789 
7 21 14 1.2493 0.4048 
7 22 7 -2.0827 0.1638 
7 22 8 1.0430 -0.2055 
7 22 9 -1.0338 0.0967 
7 22 10 0.9427 -0.0915 
7 22 11 1.0232 0.0113 
7 22 12 3.0363 -0.0330 
7 22 13 1.1591 -0.0597 
7 23 7 1.3469 -0.0173 
7 23 8 -0.1976 0.2781 
7 23 9 -1.4505 0.3575 
7 23 10 -2.3961 -0.2964 
7 23 11 0.4268 0.1202 
7 24 7 0.5507 -0.4990 
7 24 8 0.7758 0.4394 
7 24 9 0.2686 0.0822 
7 25 7 -0.4151 0.5530 
8 0 8 -0.4724 4.0426 
8 0 10 0.9901 0.5025 
8 0 12 1.3814 0.0565 
8 0 14 -0.9662 0.4718 
8 0 16 -1.0972 -0.9413 
8 0 18 -2.9067 1.0783 
8 0 20 -1.3588 -0.4287 
8 0 22 -0.7696 -0.1053 
8 1 8 1.9729 1.1373 
8 1 9 1.2527 -0.5763 
8 1 10 0.4436 1.6828 
8 1 11 0.8503 0.6656 
8 1 12 3.4784 0.2169 
8 1 13 -0.5967 -0.7202 
8 1 14 1.9276 0.7976 
8 1 15 -0.1615 0.0835 
8 1 16 2.9080 0.1095 
8 1 17 0.0225 0.2051 
8 1 18 0.0095 -0.8528 
8 1 19 0.4873 -0.5196 
8 1 20 -0.1717 0.9679 
8 1 21 -1.8101 0.3597 
8 1 22 -2.5299 -0.0017 
8 2 8 1.7586 -2.1869 
8 2 9 -0.5426 -0.1492 
8 2 10 -0.5153 -0.6436 
8 2 11 0.0416 0.2884 
8 2 12 -0.7670 -0.3354 
8 2 13 1.3065 0.7686 
8 2 14 0.9871 -1.0281 
8 2 15 -1.0654 -0.2172 
8 2 16 -0.0039 1.0021 
8 2 17 -0.7954 0.5149 
8 2 18 2.5217 -0.9726 
8 2 19 0.4211 -0.2900 
8 2 20 1.6562 -0.0942 
8 2 21 1.7511 0.3141 
8 2 22 0.8356 -0.1206 
8 3 8 -1.3313 -0.0033 
8 3 9 0.0017 0.5149 
8 3 10 -0.3164 -0.3044 
8 3 11 -2.4067 -0.8810 
8 3 12 -1.4386 0.2981 
8 3 13 0.8211 0.8170 
8 3 14 -0.1745 -0.5977 
8 3 15 0.8518 0.1661 
8 3 16 -2.1672 -0.3956 
8 3 17 0.6657 0.3122 
8 3 18 -2.4814 0.4948 
8 3 19 -2.1022 0.2847 
8 3 20 -0.3383 -1.1863 
8 3 21 0.9380 -0.1415 
8 3 22 1.9787 0.6221 
8 4 8 -1.4670 0.2687 
8 4 9 1.8643 0.9054 
8 4 10 0.0545 -0.2651 
8 4 11 2.2823 -0.2787 
8 4 12 -0.8641 -0.2494 
8 4 13 -1.6639 -0.4585 
8 4 14 0.6933 0.8945 
8 4 15 0.6642 0.1722 
8 4 16 1.4299 -0.8723 
8 4 17 0.7803 -0.3192 
8 4 18 -1.0898 0.8340 
8 4 19 1.7917 0.1169 
8 4 20 -4.0397 -0.5426 
8 4 21 -1.5928 0.2609 
8 4 22 -1.5006 -0.2571 
8 5 8 0.1537 -0.0023 
8 5 9 -2.2798 -0.5972 
8 5 10 2.1716 0.5121 
8 5 11 2.7633 0.5796 
8 5 12 -0.4455 -1.0522 
8 5 13 1.0208 -0.6298 
8 5 14 0.3070 0.3001 
8 5 15 0.5784 0.1587 
8 5 16 0.1645 -0.0474 
8 5 17 -2.0484 -0.3375 
8 5 18 2.3296 -0.3438 
8 5 19 1.0115 -0.3212 
8 5 20 1.2830 0.7841 
8 5 21 1.3288 -0.5843 
8 6 8 -2.4500 -0.2228 
8 6 9 -2.2270 -0.3217 
8 6 10 -0.8883 0.9545 
8 6 11 -1.5659 0.1902 
8 6 12 0.0375 0.5641 
8 6 13 0.9986 -0.0328 
8 6 14 0.0349 -0.5097 
8 6 15 1.2417 0.2428 
8 6 16 0.7601 0.7224 
8 6 17 0.1765 0.0096 
8 6 18 -2.2001 -0.6440 
8 6 19 -2.7676 -0.2490 
8 6 20 1.0687 0.6799 
8 6 21 -0.5841 -0.2104 
8 7 8 1.7323 0.0880 
8 7 9 -1.4986 0.1979 
8 7 10 -2.0942 -0.4563 
8 7 11 -1.3816 -0.1942 
8 7 12 1.1312 0.9864 
8 7 13 -0.9933 0.0275 
8 7 14 -2.5725 -0.1161 
8 7 15 -0.2415 0.2416 
8 7 16 3.7858 0.2320 
8 7 17 0.9106 0.4062 
8 7 18 0.3085 -0.0113 
8 7 19 -1.7064 -0.0854 
8 7 20 -1.8777 -0.2921 
8 7 21 -2.8436 -0.1137 
8 8 8 2.4142 0.2192 
8 8 9 -0.1194 0.1204 
8 8 10 0.3704 -0.4589 
8 8 11 -0.0406 -0.1259 
8 8 12 2.6009 -0.3651 
8 8 13 -0.0959 -0.2368 
8 8 14 0.2938 0.5285 
8 8 15 0.6106 -0.1540 
8 8 16 -0.1905 -0.2920 
8 8 17 0.3884 0.3990 
8 8 18 4.7482 0.1979 
8 8 19 -0.6047 0.0615 
8 8 20 -0.4605 -0.6474 
8 8 21 -1.9319 -0.2932 
8 9 8 -1.1985 -0.3027 
8 9 9 3.0399 0.1358 
8 9 10 -1.6987 0.4459 
8 9 11 -2.0411 0.2242 
8 9 12 -2.2860 -0.6062 
8 9 13 1.8668 -0.0002 
8 9 14 1.0909 0.0335 
8 9 15 1.0038 -0.2456 
8 9 16 -2.9609 0.2535 
8 9 17 4.3203 0.2595 
8 9 18 2.1113 -0.5507 
8 9 19 2.3661 0.3089 
8 9 20 2.8870 -0.5459 
8 10 8 1.8829 -0.1955 
8 10 9 0.2182 -0.2099 
8 10 10 -0.1466 0.0570 
8 10 11 -2.7071 0.2770 
8 10 12 -1.7581 0.3603 
8 10 13 -2.4756 -0.2273 
8 10 14 -1.4105 -0.3730 
8 10 15 -0.8804 -0.0559 
8 10 16 -2.6445 0.7462 
8 10 17 1.1597 -0.2972 
8 10 18 -3.4110 0.3371 
8 10 19 5.5241 0.1656 
8 10 20 2.8944 -0.2726 
8 11 8 -0.9029 0.3372 
8 11 9 -0.1273 -0.3736 
8 11 10 2.9315 -0.1480 
8 11 11 1.3535 -0.0303 
8 11 12 0.8347 0.2638 
8 11 13 -3.0462 -0.1513 
8 11 14 1.6049 0.1441 
8 11 15 -2.2904 -0.2179 
8 11 16 0.2164 0.0329 
8 11 17 -3.1446 -0.1963 
8 11 18 -4.6079 0.9489 
8 11 19 -0.8366 -0.3219 
8 12 8 -2.4946 -0.0312 
8 12 9 1.3060 0.2262 
8 12 10 -0.5914 -0.0879 
8 12 11 1.8569 -0.1608 
8 12 12 0.5162 -0.3350 
8 12 13 0.7957 0.2729 
8 12 14 0.8514 -0.0556 
8 12 15 -1.4007 -0.0504 
8 12 16 3.1909 -0.1197 
8 12 17 -1.8299 0.1660 
8 12 18 -0.3041 0.0704 
8 12 19 -2.3532 -0.0576 
8 13 8 1.1486 -0.3457 
8 13 9 0.0700 0.1865 
8 13 10 -1.7863 -0.0448 
8 13 11 0.7518 0.1860 
8 13 12 -0.9988 -0.3128 
8 13 13 1.9633 0.1319 
8 13 14 0.2229 -0.7277 
8 13 15 0.7386 0.2154 
8 13 16 1.7289 -0.1100 
8 13 17 -0.6446 0.2760 
8 13 18 4.6924 -0.2592 
8 14 8 1.1890 -0.0136 
8 14 9 0.1610 0.0544 
8 14 10 1.2362 -0.1292 
8 14 11 -0.5767 0.3847 
8 14 12 -1.2986 0.3472 
8 14 13 1.2928 0.0683 
8 14 14 -0.4508 -0.2851 
8 14 15 2.4436 0.1323 
8 14 16 -0.2217 -0.1757 
8 14 17 1.8470 0.1338 
8 14 18 1.7453 0.3252 
8 15 8 -1.3800 0.2808 
8 15 9 0.2312 -0.1985 
8 15 10 0.7763 -0.0217 
8 15 11 -0.3392 0.0274 
8 15 12 -0.8776 0.0692 
8 15 13 -2.3852 0.0837 
8 15 14 -1.7551 0.3778 
8 15 15 0.0015 -0.2294 
8 15 16 -0.4477 -0.3605 
8 16 8 -1.4469 -0.1879 
8 16 9 -0.3564 -0.1000 
8 16 10 -0.3341 0.1762 
8 16 11 1.3897 -0.5560 
8 16 12 0.7775 -0.1293 
8 16 13 -1.6049 -0.1654 
8 16 14 -1.9786 -0.1235 
8 16 15 -1.9671 -0.6590 
8 16 16 -0.4080 -0.5202 
8 17 8 1.5479 0.1032 
8 17 9 -2.0218 -0.0935 
8 17 10 -1.2698 0.0882 
8 17 11 2.1281 0.1503 
8 17 12 1.5528 0.4808 
8 17 13 2.2049 0.1379 
8 17 14 0.9388 0.1075 
8 17 15 0.3390 0.5396 
8 18 8 3.1254 0.3089 
8 18 9 -0.9289 -0.0627 
8 18 10 0.5962 -0.0811 
8 18 11 -2.6850 0.1268 
8 18 12 -0.9179 0.3609 
8 18 13 2.0920 0.4488 
8 18 14 1.1717 0.7800 
8 19 8 0.5125 0.4086 
8 19 9 2.2516 -0.1163 
8 19 10 0.5260 -0.0445 
8 19 11 -2.1950 -0.5949 
8 19 12 -0.2798 -0.3966 
8 19 13 -2.8005 -0.3494 
8 20 8 -0.3485 -0.6572 
8 20 9 -1.6205 0.1421 
8 20 10 1.7497 0.4241 
8 20 11 0.7787 -0.3460 
8 20 12 -0.3145 -0.4647 
8 21 8 -2.2304 -0.9312 
8 21 9 1.3644 0.3887 
8 21 10 1.4604 -0.5620 
8 22 8 -0.8035 0.6274 
8 22 9 2.4244 -0.5384 
9 0 9 -1.8265 0.5495 
9 0 11 0.7265 -0.7180 
9 0 13 -1.2917 -0.1308 
9 0 15 -1.1066 0.6765 
9 0 17 -2.8032 0.0087 
9 0 19 -2.7598 1.6014 
9 1 9 0.7315 2.9383 
9 1 10 1.8746 -1.8447 
9 1 11 1.5630 0.2607 
9 1 12 1.3867 0.8367 
9 1 13 2.6236 -0.0644 
9 1 14 -1.3727 -0.7932 
9 1 15 1.0040 0.0186 
9 1 16 0.7150 -0.0079 
9 1 17 2.2079 -0.8356 
9 1 18 -0.0007 0.3173 
9 1 19 -1.0986 -0.5056 
9 2 9 0.5302 -0.3824 
9 2 10 -1.4926 -0.0673 
9 2 11 0.7265 -0.0980 
9 2 12 3.8492 -0.4762 
9 2 13 1.7800 0.3066 
9 2 14 -0.1437 0.7160 
9 2 15 0.4704 -0.4665 
9 2 16 -1.4146 -0.5591 
9 2 17 1.6341 0.7361 
9 2 18 0.4928 0.9517 
9 2 19 1.9919 -1.8659 
9 3 9 -1.8092 -0.0436 
9 3 10 -3.8194 2.0934 
9 3 11 -2.0595 -0.5265 
9 3 12 -1.7905 -0.4970 
9 3 13 0.2526 0.2893 
9 3 14 4.3150 0.5711 
9 3 15 -1.0282 -0.1181 
9 3 16 -1.1716 -0.2306 
9 3 17 -2.2894 0.1690 
9 3 18 -1.0915 -0.3621 
9 3 19 -0.7877 0.4830 
9 4 9 0.1264 0.1586 
9 4 10 1.6883 0.3003 
9 4 11 -2.9243 -0.0219 
9 4 12 -4.3416 0.2979 
9 4 13 1.4026 -0.6122 
9 4 14 0.4501 0.2325 
9 4 15 0.8155 0.6878 
9 4 16 2.1899 0.0555 
9 4 17 0.0726 -0.7310 
9 4 18 1.3613 -0.8578 
9 4 19 -2.4624 0.6341 
9 5 9 2.5488 -0.3089 
9 5 10 3.0101 -1.0483 
9 5 11 -0.3441 0.2921 
9 5 12 2.1263 0.0619 
9 5 13 -0.9882 -0.6000 
9 5 14 -2.0557 -0.0855 
9 5 15 2.0229 0.2909 
9 5 16 -0.5563 0.3271 
9 5 17 0.7400 0.2605 
9 5 18 0.1415 -0.2382 
9 6 9 -0.2636 0.0282 
9 6 10 -2.1963 0.0390 
9 6 11 1.7270 0.1339 
9 6 12 1.4190 0.0339 
9 6 13 -2.7394 0.1023 
9 6 14 2.5765 0.2804 
9 6 15 1.4662 -0.4502 
9 6 16 -0.1457 0.4550 
9 6 17 -2.3663 0.6641 
9 6 18 -1.7616 0.0850 
9 7 9 -3.1245 0.4563 
9 7 10 -1.6418 0.5162 
9 7 11 0.3372 -0.1478 
9 7 12 -3.3211 -0.2996 
9 7 13 -0.7575 0.1861 
9 7 14 0.5739 0.2575 
9 7 15 1.5947 -0.4698 
9 7 16 0.6284 0.6522 
9 7 17 1.8885 -0.7213 
9 7 18 0.4027 0.4220 
9 8 9 1.9850 0.1299 
9 8 10 0.4129 -0.0568 
9 8 11 -0.7548 0.2258 
9 8 12 0.5571 -0.3213 
9 8 13 0.8622 -0.0484 
9 8 14 -1.4033 -0.3417 
9 8 15 -0.9380 0.2683 
9 8 16 1.1434 0.0296 
9 8 17 4.9151 -0.7858 
9 8 18 -2.6634 0.1584 
9 9 9 0.8108 -0.3591 
9 9 10 -0.8919 -0.1314 
9 9 11 0.2695 0.4958 
9 9 12 1.3656 -0.1799 
9 9 13 -1.0961 0.1712 
9 9 14 0.2398 0.0101 
9 9 15 -1.3310 0.6072 
9 9 16 5.1038 0.1169 
9 9 17 -0.6652 0.0305 
9 10 9 -0.0156 -0.0109 
9 10 10 0.4305 0.1533 
9 10 11 -0.2601 -0.1283 
9 10 12 -3.8251 -0.4363 
9 10 13 -0.7921 0.4699 
9 10 14 -0.9394 -0.5221 
9 10 15 -1.4138 0.8032 
9 10 16 -0.4937 -0.0196 
9 10 17 -2.0191 1.2022 
9 11 9 1.4693 0.1899 
9 11 10 0.9642 0.0071 
9 11 11 -0.3423 -0.2350 
9 11 12 -0.3804 0.0410 
9 11 13 1.3596 -0.5091 
9 11 14 -2.2892 -0.9578 
9 11 15 -1.3387 0.4272 
9 11 16 -3.1575 -0.5626 
9 12 9 -2.4513 -0.4229 
9 12 10 0.1902 0.3193 
9 12 11 1.0934 0.2470 
9 12 12 1.5659 0.3204 
9 12 13 -0.1165 -0.7334 
9 12 14 -0.5370 0.1997 
9 12 15 1.6045 -0.4790 
9 12 16 -1.0043 -0.2923 
9 13 9 -0.6961 -0.2637 
9 13 10 0.0406 0.3722 
9 13 11 -0.4560 -0.2864 
9 13 12 -0.9439 0.5853 
9 13 13 0.8969 0.0021 
9 13 14 -0.2560 0.5609 
9 13 15 1.8667 -0.7138 
9 14 9 2.0165 0.0500 
9 14 10 1.1118 -0.0036 
9 14 11 -1.4168 -0.3430 
9 14 12 1.0863 0.4719 
9 14 13 -0.5438 -0.3445 
9 14 14 0.4029 0.4208 
9 15 9 1.2567 0.2564 
9 15 10 1.0780 -0.1893 
9 15 11 -0.6191 0.3771 
9 15 12 0.3490 -0.2412 
9 15 13 -2.8192 -0.4630 
9 16 9 -0.8180 -0.3122 
9 16 10 0.7371 -0.5144 
9 16 11 1.6037 0.9250 
9 16 12 -0.5668 -0.5494 
9 17 9 -1.3212 -0.3046 
9 17 10 0.5031 -0.1698 
9 17 11 2.6610 0.1038 
9 18 9 -0.2079 0.3936 
9 18 10 -2.8738 -0.2236 
9 19 9 0.2042 0.4803 
10 0 10 -1.3005 0.5989 
10 0 12 -0.3940 0.5518 
10 0 14 -0.6739 0.0117 
10 0 16 -0.5567 1.4373 
10 1 10 -0.3286 -0.4201 
10 1 11 2.5724 -0.6853 
10 1 12 0.2010 0.8283 
10 1 13 -0.7829 0.6306 
10 1 14 0.0310 -0.6265 
10 1 15 -0.7345 -0.6619 
10 2 10 0.4252 -0.3900 
10 2 11 2.7629 -0.4663 
10 2 12 2.9553 -0.5633 
10 2 13 3.5491 0.2989 
10 2 14 0.3870 1.1742 
10 2 15 -1.4654 0.9368 
10 3 10 -3.4351 0.6623 
10 3 11 -2.7496 0.1605 
10 3 12 0.7120 -0.6941 
10 3 13 4.3537 -0.9029 
10 3 14 -0.6013 1.1022 
10 3 15 1.5312 -0.0849 
10 4 10 -1.5320 0.0383 
10 4 11 -5.6520 0.5258 
10 4 12 -0.7071 -0.3482 
10 4 13 -1.4159 -0.1887 
10 4 14 1.4734 -0.8213 
10 4 15 2.5141 -0.6283 
10 5 10 -0.4959 -0.0860 
10 5 11 0.0887 -0.0455 
10 5 12 -1.6881 0.5789 
10 5 13 -1.8743 0.5946 
10 5 14 3.9764 -0.5649 
10 5 15 -2.4128 0.4726 
10 6 10 2.1016 -0.2298 
10 6 11 1.1890 0.3026 
10 6 12 -3.3081 -0.1132 
10 6 13 2.1966 0.7925 
10 6 14 0.6241 0.5238 
10 6 15 0.4146 0.9457 
10 7 10 1.4151 -0.0310 
10 7 11 -2.1376 -0.1701 
10 7 12 -0.4047 -1.1991 
10 7 13 -2.0597 0.2870 
10 7 14 -0.4232 -0.5624 
10 8 10 -1.5910 0.4956 
10 8 11 1.9377 -0.6302 
10 8 12 -0.7539 0.2192 
10 8 13 -2.5218 -0.5605 
10 8 14 -0.6576 -0.7181 
10 9 10 0.9954 0.4265 
10 9 11 0.3696 -0.3049 
10 9 12 -0.8179 1.0069 
10 9 13 1.9507 -0.4141 
10 10 10 0.5659 0.4503 
10 10 11 -2.8297 -0.3965 
10 10 12 2.0678 0.2395 
10 10 13 -1.2093 -0.7734 
10 11 10 0.8287 -0.1581 
10 11 11 0.8359 -0.0291 
10 11 12 -0.3401 -0.6145 
10 12 10 0.4437 -0.6861 
10 12 11 0.8999 0.6131 
10 13 10 -1.3986 -0.1008 
10 14 10 -0.7452 0.4439 
11 0 11 0.6804 0.0123 
11 1 11 -1.1974 0.6950 
11 2 11 1.8222 -0.2878 
11 3 11 -1.4522 0.4502 
0 0 0 0.0 0.0 
;
_shelx_fab_checksum              58977
loop_
_space_group_symop_operation_xyz
'x, y, z'
'-x+1/2, y+1/2, -z+1/2'
'-x, -y, -z'
'x-1/2, -y-1/2, z-1/2'
loop_
_atom_site_label
_atom_site_type_symbol
_atom_site_fract_x
_atom_site_fract_y
_atom_site_fract_z
_atom_site_U_iso_or_equiv
_atom_site_adp_type
_atom_site_occupancy
_atom_site_site_symmetry_order
_atom_site_calc_flag
_atom_site_refinement_flags_posn
_atom_site_refinement_flags_adp
_atom_site_refinement_flags_occupancy
_atom_site_disorder_assembly
_atom_site_disorder_group
W2 W 1.26811(3) 0.45821(2) 0.80596(2) 0.04599(9) Uani 1 1 d . . . . .
W1 W -0.10688(3) 0.19336(2) 0.55656(2) 0.04530(9) Uani 1 1 d . . . . .
N13 N 0.5222(4) 0.45124(17) 0.55565(16) 0.0447(11) Uani 1 1 d . . . . .
H13 H 0.514650 0.471977 0.532820 0.054 Uiso 0.5 1 calc R U P . .
N9 N 1.3187(5) 0.38339(18) 0.82967(16) 0.0451(11) Uani 1 1 d . . . . .
N7 N 1.4117(5) 0.4781(2) 0.87110(18) 0.0552(13) Uani 1 1 d . . . . .
N8 N 1.5248(5) 0.4523(2) 0.88145(18) 0.0574(14) Uani 1 1 d . . . . .
N11 N 1.4443(5) 0.4508(2) 0.77455(17) 0.0547(14) Uani 1 1 d . . . . .
N14 N 0.6702(5) 0.5310(2) 0.52917(18) 0.0532(13) Uani 1 1 d . . . . .
H14 H 0.594987 0.519441 0.519339 0.064 Uiso 0.5 1 calc R U P . .
O2 O 0.1377(5) 0.1495(2) 0.5228(2) 0.0764(15) Uani 1 1 d . . . . .
N4 N -0.2023(5) 0.1287(2) 0.63428(18) 0.0531(13) Uani 1 1 d . . . . .
N2 N -0.3192(5) 0.11119(19) 0.55314(19) 0.0536(13) Uani 1 1 d . . . . .
N1 N -0.2282(5) 0.12738(18) 0.52827(17) 0.0507(12) Uani 1 1 d . . . . .
N5 N -0.2892(5) 0.21897(19) 0.57547(18) 0.0499(12) Uani 1 1 d . . . . .
N6 N -0.3695(4) 0.1871(2) 0.59460(18) 0.0507(12) Uani 1 1 d . . . . .
N3 N -0.0962(5) 0.1546(2) 0.62493(17) 0.0510(12) Uani 1 1 d . . . . .
O4 O 1.0388(5) 0.4701(2) 0.86205(19) 0.0763(15) Uani 1 1 d . . . . .
N10 N 1.4437(5) 0.3708(2) 0.84733(18) 0.0528(13) Uani 1 1 d . . . . .
O1 O -0.1519(6) 0.2439(2) 0.45703(18) 0.0785(15) Uani 1 1 d . . . . .
O3 O 1.2212(6) 0.5686(2) 0.7792(2) 0.093(2) Uani 1 1 d . . . . .
N12 N 1.5521(5) 0.4293(2) 0.79964(19) 0.0608(15) Uani 1 1 d . . . . .
C23 C 1.0352(5) 0.4561(2) 0.71688(19) 0.0425(12) Uani 1 1 d . . . . .
C20 C 0.8334(5) 0.4687(2) 0.6403(2) 0.0454(13) Uani 1 1 d . . . . .
C14 C 0.6230(5) 0.4476(2) 0.5919(2) 0.0441(13) Uani 1 1 d . . . . .
C11 C 0.4356(6) 0.4161(2) 0.5622(2) 0.0444(13) Uani 1 1 d . . . . .
C13 C 0.5982(5) 0.4086(2) 0.6228(2) 0.0448(13) Uani 1 1 d . . . . .
H13A H 0.651191 0.398641 0.650282 0.054 Uiso 1 1 calc R U . . .
C7 C 0.2416(5) 0.3643(2) 0.5446(2) 0.0460(14) Uani 1 1 d . . . . .
C15 C 0.7316(6) 0.4773(2) 0.5984(2) 0.0473(14) Uani 1 1 d . . . . .
C26 C 1.1417(6) 0.4509(2) 0.75536(19) 0.0459(13) Uani 1 1 d . . . . .
C3 C 0.0473(7) 0.1635(2) 0.5359(3) 0.0600(17) Uani 1 1 d . . . . .
C28 C 1.1238(7) 0.4648(2) 0.8418(2) 0.0566(16) Uani 1 1 d . . . . .
C10 C 0.3197(6) 0.4062(2) 0.5326(2) 0.0520(15) Uani 1 1 d . . . . .
C24 C 0.9611(6) 0.4984(2) 0.7119(2) 0.0560(16) Uani 1 1 d . . . . .
H24 H 0.979179 0.523096 0.734379 0.067 Uiso 1 1 calc R U . . .
C12 C 0.4839(6) 0.3893(2) 0.6044(2) 0.0494(14) Uani 1 1 d . . . . .
H12 H 0.443532 0.363289 0.616795 0.059 Uiso 1 1 calc R U . . .
C25 C 0.8613(6) 0.5049(2) 0.6746(2) 0.0548(16) Uani 1 1 d . . . . .
H25 H 0.812908 0.533420 0.672446 0.066 Uiso 1 1 calc R U . . .
C5 C 0.1566(7) 0.2835(3) 0.5250(3) 0.0610(18) Uani 1 1 d . . . . .
H5 H 0.152734 0.255883 0.505996 0.073 Uiso 1 1 calc R U . . .
C35 C 0.0003(6) 0.1446(3) 0.6595(2) 0.0576(16) Uani 1 1 d . . . . .
C4 C 0.0875(6) 0.2855(2) 0.5615(2) 0.0465(13) Uani 1 1 d . . . . .
C6 C 0.2330(7) 0.3234(3) 0.5165(2) 0.0660(19) Uani 1 1 d . . . . .
H6 H 0.278637 0.322011 0.491430 0.079 Uiso 1 1 calc R U . . .
C16 C 0.7533(6) 0.5153(3) 0.5684(2) 0.0587(18) Uani 1 1 d . . . . .
C30 C -0.2418(7) 0.1025(2) 0.4878(2) 0.0573(16) Uani 1 1 d . . . . .
C1 C -0.0007(6) 0.2456(2) 0.5680(2) 0.0496(14) Uani 1 1 d . . . . .
C50 C 1.2483(6) 0.3434(2) 0.8323(2) 0.0532(15) Uani 1 1 d . . . . .
C22 C 1.0041(6) 0.4203(3) 0.6829(2) 0.0556(16) Uani 1 1 d . . . . .
H22 H 1.050612 0.391322 0.685402 0.067 Uiso 1 1 calc R U . . .
C2 C -0.1387(7) 0.2238(3) 0.4928(2) 0.0595(17) Uani 1 1 d . . . . .
C8 C 0.1748(6) 0.3655(2) 0.5817(2) 0.0563(16) Uani 1 1 d . . . . .
H8 H 0.181628 0.392765 0.601394 0.068 Uiso 1 1 calc R U . . .
C21 C 0.9053(6) 0.4265(3) 0.6452(2) 0.0559(16) Uani 1 1 d . . . . .
H21 H 0.887199 0.401788 0.622801 0.067 Uiso 1 1 calc R U . . .
C32 C -0.3910(7) 0.0762(3) 0.5280(3) 0.0644(18) Uani 1 1 d . . . . .
C45 C 1.4181(7) 0.5130(3) 0.9042(2) 0.0623(18) Uani 1 1 d . . . . .
C47 C 1.5999(7) 0.4713(3) 0.9205(3) 0.074(2) Uani 1 1 d . . . . .
C31 C -0.3438(8) 0.0704(3) 0.4867(3) 0.069(2) Uani 1 1 d . . . . .
H31 H -0.374535 0.048932 0.462309 0.083 Uiso 1 1 calc R U . . .
C36 C -0.0401(8) 0.1116(3) 0.6909(3) 0.072(2) Uani 1 1 d . . . . .
H36 H 0.009009 0.098438 0.717888 0.087 Uiso 1 1 calc R U . . .
C55 C 1.4752(8) 0.4669(3) 0.7337(3) 0.069(2) Uani 1 1 d . . . . .
C37 C -0.1669(8) 0.1024(3) 0.6742(3) 0.073(2) Uani 1 1 d . . . . .
C39 C -0.2945(8) 0.3052(3) 0.5484(3) 0.073(2) Uani 1 1 d . . . . .
H39A H -0.215088 0.313707 0.568115 0.109 Uiso 1 1 calc R U . . .
H39B H -0.352748 0.332265 0.546927 0.109 Uiso 1 1 calc R U . . .
H39C H -0.278988 0.297595 0.517166 0.109 Uiso 1 1 calc R U . . .
C17 C 0.8674(7) 0.5433(3) 0.5724(3) 0.082(3) Uani 1 1 d . . . . .
H17 H 0.938866 0.540081 0.595935 0.099 Uiso 1 1 calc R U . . .
C42 C -0.4781(7) 0.2105(3) 0.5982(3) 0.0660(19) Uani 1 1 d . . . . .
C27 C 1.2420(7) 0.5282(3) 0.7900(3) 0.0663(19) Uani 1 1 d . . . . .
C19 C 0.7279(6) 0.5683(3) 0.5084(2) 0.0603(18) Uani 1 1 d . . . . .
C29 C -0.1594(9) 0.1089(3) 0.4515(2) 0.074(2) Uani 1 1 d . . . . .
H29A H -0.166049 0.141938 0.440073 0.110 Uiso 1 1 calc R U . . .
H29B H -0.186381 0.086896 0.425677 0.110 Uiso 1 1 calc R U . . .
H29C H -0.072028 0.102067 0.465014 0.110 Uiso 1 1 calc R U . . .
C49 C 1.1061(7) 0.3435(3) 0.8159(3) 0.0663(19) Uani 1 1 d . . . . .
H49A H 1.066206 0.365384 0.835197 0.100 Uiso 1 1 calc R U . . .
H49B H 1.073102 0.311092 0.818401 0.100 Uiso 1 1 calc R U . . .
H49C H 1.088066 0.354011 0.783510 0.100 Uiso 1 1 calc R U . . .
C40 C -0.3515(7) 0.2617(3) 0.5688(3) 0.0627(18) Uani 1 1 d . . . . .
C56 C 1.6025(9) 0.4565(3) 0.7335(3) 0.082(3) Uani 1 1 d . . . . .
H56 H 1.648658 0.463949 0.709488 0.099 Uiso 1 1 calc R U . . .
C52 C 1.4480(6) 0.3237(3) 0.8607(2) 0.0561(16) Uani 1 1 d . . . . .
C34 C 0.1286(7) 0.1669(3) 0.6608(3) 0.072(2) Uani 1 1 d . . . . .
H34A H 0.175119 0.148892 0.640410 0.108 Uiso 1 1 calc R U . . .
H34B H 0.174689 0.165932 0.692610 0.108 Uiso 1 1 calc R U . . .
H34C H 0.119069 0.200155 0.650318 0.108 Uiso 1 1 calc R U . . .
C41 C -0.4700(7) 0.2575(3) 0.5834(3) 0.070(2) Uani 1 1 d . . . . .
H41 H -0.531375 0.281887 0.583061 0.085 Uiso 1 1 calc R U . . .
C9 C 0.0973(7) 0.3268(2) 0.5905(2) 0.0573(16) Uani 1 1 d . . . . .
H9 H 0.051910 0.328345 0.615578 0.069 Uiso 1 1 calc R U . . .
C46 C 1.5332(8) 0.5101(3) 0.9352(3) 0.077(2) Uani 1 1 d . . . . .
H46 H 1.560259 0.530449 0.960899 0.092 Uiso 1 1 calc R U . . .
C51 C 1.3270(7) 0.3053(3) 0.8516(2) 0.0626(17) Uani 1 1 d . . . . .
H51 H 1.301945 0.273523 0.857102 0.075 Uiso 1 1 calc R U . . .
B1 B -0.3308(7) 0.1323(3) 0.6015(3) 0.0537(18) Uani 1 1 d . . . . .
C44 C 1.3141(9) 0.5474(3) 0.9063(3) 0.078(2) Uani 1 1 d . . . . .
H44A H 1.290464 0.562910 0.876097 0.117 Uiso 1 1 calc R U . . .
H44B H 1.341669 0.571781 0.929943 0.117 Uiso 1 1 calc R U . . .
H44C H 1.241505 0.530279 0.914376 0.117 Uiso 1 1 calc R U . . .
C43 C -0.5852(7) 0.1854(3) 0.6173(4) 0.090(3) Uani 1 1 d . . . . .
H43A H -0.625835 0.162237 0.594498 0.135 Uiso 1 1 calc R U . . .
H43B H -0.646864 0.209214 0.623548 0.135 Uiso 1 1 calc R U . . .
H43C H -0.551309 0.168670 0.646136 0.135 Uiso 1 1 calc R U . . .
C18 C 0.8540(7) 0.5757(3) 0.5361(3) 0.086(3) Uani 1 1 d . . . . .
H18 H 0.914631 0.598394 0.530058 0.104 Uiso 1 1 calc R U . . .
C33 C -0.5034(9) 0.0533(3) 0.5452(3) 0.094(3) Uani 1 1 d . . . . .
H33A H -0.474773 0.036383 0.574332 0.141 Uiso 1 1 calc R U . . .
H33B H -0.544192 0.030599 0.521905 0.141 Uiso 1 1 calc R U . . .
H33C H -0.563442 0.078257 0.550238 0.141 Uiso 1 1 calc R U . . .
C48 C 1.7288(9) 0.4506(4) 0.9398(3) 0.106(3) Uani 1 1 d . . . . .
H48A H 1.720568 0.416287 0.945673 0.159 Uiso 1 1 calc R U . . .
H48B H 1.762920 0.466855 0.968774 0.159 Uiso 1 1 calc R U . . .
H48C H 1.785443 0.455223 0.917216 0.159 Uiso 1 1 calc R U . . .
C57 C 1.6482(7) 0.4332(3) 0.7749(3) 0.073(2) Uani 1 1 d . . . . .
B2 B 1.5510(7) 0.4095(3) 0.8497(3) 0.0577(19) Uani 1 1 d . . . . .
C38 C -0.2600(9) 0.0690(4) 0.6934(3) 0.107(4) Uani 1 1 d . . . . .
H38A H -0.325542 0.088178 0.704090 0.161 Uiso 1 1 calc R U . . .
H38B H -0.215100 0.050423 0.719384 0.161 Uiso 1 1 calc R U . . .
H38C H -0.298386 0.047146 0.668892 0.161 Uiso 1 1 calc R U . . .
C54 C 1.3812(9) 0.4907(3) 0.6967(3) 0.086(3) Uani 1 1 d . . . . .
H54A H 1.308901 0.469544 0.687992 0.130 Uiso 1 1 calc R U . . .
H54B H 1.420561 0.497201 0.669502 0.130 Uiso 1 1 calc R U . . .
H54C H 1.353205 0.520900 0.708730 0.130 Uiso 1 1 calc R U . . .
C53 C 1.5698(8) 0.2991(3) 0.8834(3) 0.085(3) Uani 1 1 d . . . . .
H53A H 1.630593 0.299643 0.861979 0.128 Uiso 1 1 calc R U . . .
H53B H 1.552017 0.265903 0.890868 0.128 Uiso 1 1 calc R U . . .
H53C H 1.604705 0.316172 0.911920 0.128 Uiso 1 1 calc R U . . .
C58 C 1.7813(8) 0.4136(4) 0.7928(4) 0.104(3) Uani 1 1 d . . . . .
H58A H 1.822354 0.433762 0.818294 0.156 Uiso 1 1 calc R U . . .
H58B H 1.830726 0.413812 0.767618 0.156 Uiso 1 1 calc R U . . .
H58C H 1.774962 0.380751 0.803997 0.156 Uiso 1 1 calc R U . . .
C79 C 0.4354(18) 0.3209(7) 0.7279(5) 0.191(6) Uani 1 1 d D U . . .
H79A H 0.462283 0.351975 0.716642 0.229 Uiso 1 1 calc R U . . .
H79B H 0.446636 0.323049 0.762127 0.229 Uiso 1 1 calc R U . . .
C80 C 0.2978(18) 0.3163(7) 0.7108(5) 0.206(8) Uani 1 1 d D U . . .
H80A H 0.283440 0.310926 0.677189 0.309 Uiso 1 1 calc R U . . .
H80B H 0.255250 0.345734 0.717676 0.309 Uiso 1 1 calc R U . . .
H80C H 0.264383 0.289180 0.726154 0.309 Uiso 1 1 calc R U . . .
C74 C 0.9192(19) 0.2807(6) 0.6935(6) 0.222(8) Uani 1 1 d D U . . .
H74A H 0.900552 0.266546 0.662495 0.333 Uiso 1 1 calc R U . . .
H74B H 1.010339 0.283030 0.703031 0.333 Uiso 1 1 calc R U . . .
H74C H 0.882114 0.312747 0.692987 0.333 Uiso 1 1 calc R U . . .
C76 C 0.724(2) 0.2461(8) 0.7161(9) 0.273(7) Uani 1 1 d D U . . .
H76A H 0.695463 0.240114 0.682637 0.327 Uiso 1 1 calc R U . . .
H76B H 0.696544 0.219126 0.733873 0.327 Uiso 1 1 calc R U . . .
C77 C 0.672(2) 0.2916(8) 0.7301(9) 0.255(7) Uani 1 1 d D U . . .
H77A H 0.700358 0.319018 0.713028 0.306 Uiso 1 1 calc R U . . .
H77B H 0.696008 0.297185 0.763772 0.306 Uiso 1 1 calc R U . . .
C75 C 0.867(2) 0.2508(7) 0.7261(7) 0.243(7) Uani 1 1 d D U . . .
H75A H 0.891533 0.264255 0.757644 0.291 Uiso 1 1 calc R U . . .
H75B H 0.904264 0.218475 0.726017 0.291 Uiso 1 1 calc R U . . .
C78 C 0.525(2) 0.2842(7) 0.7165(7) 0.221(7) Uani 1 1 d D U . . .
H78A H 0.507206 0.279175 0.682587 0.265 Uiso 1 1 calc R U . . .
H78B H 0.504656 0.253812 0.731059 0.265 Uiso 1 1 calc R U . . .
C62 C 0.3018(17) 0.1057(6) 0.8972(6) 0.199(6) Uani 1 1 d D U . . .
H62A H 0.222389 0.095507 0.877684 0.238 Uiso 1 1 calc R U . . .
H62B H 0.361263 0.078458 0.899615 0.238 Uiso 1 1 calc R U . . .
C60 C 0.2770(19) 0.1194(6) 0.9455(6) 0.209(6) Uani 1 1 d D U . . .
H60A H 0.352607 0.134155 0.963806 0.251 Uiso 1 1 calc R U . . .
H60B H 0.206781 0.142499 0.943177 0.251 Uiso 1 1 calc R U . . .
C64 C 0.367(2) 0.1396(9) 0.8234(7) 0.267(8) Uani 1 1 d D U . . .
H64A H 0.294434 0.153405 0.802528 0.321 Uiso 1 1 calc R U . . .
H64B H 0.369322 0.104619 0.817966 0.321 Uiso 1 1 calc R U . . .
C59 C 0.244(2) 0.0738(6) 0.9682(7) 0.251(9) Uani 1 1 d D U . . .
H59A H 0.298404 0.070190 0.998299 0.376 Uiso 1 1 calc R U . . .
H59B H 0.256201 0.046511 0.948349 0.376 Uiso 1 1 calc R U . . .
H59C H 0.156220 0.075036 0.972641 0.376 Uiso 1 1 calc R U . . .
C63 C 0.359(2) 0.1502(7) 0.8737(6) 0.234(7) Uani 1 1 d D U . . .
H63A H 0.305629 0.178672 0.875403 0.281 Uiso 1 1 calc R U . . .
H63B H 0.443996 0.157379 0.890775 0.281 Uiso 1 1 calc R U . . .
C65 C 0.489(3) 0.1630(10) 0.8157(8) 0.281(9) Uani 1 1 d D U . . .
H65A H 0.477804 0.198148 0.816671 0.337 Uiso 1 1 calc R U . . .
H65B H 0.555269 0.154154 0.841804 0.337 Uiso 1 1 calc R U . . .
C66 C 0.533(2) 0.1501(9) 0.7709(8) 0.291(11) Uani 1 1 d D U . . .
H66A H 0.507036 0.175179 0.747838 0.436 Uiso 1 1 calc R U . . .
H66B H 0.495053 0.119566 0.759399 0.436 Uiso 1 1 calc R U . . .
H66C H 0.624237 0.147190 0.776315 0.436 Uiso 1 1 calc R U . . .
H2 H 1.640(5) 0.3940(19) 0.8638(18) 0.034(14) Uiso 1 1 d . . . . .
H1 H -0.410(7) 0.115(3) 0.618(2) 0.07(2) Uiso 1 1 d . . . . .
loop_
_atom_site_aniso_label
_atom_site_aniso_U_11
_atom_site_aniso_U_22
_atom_site_aniso_U_33
_atom_site_aniso_U_23
_atom_site_aniso_U_13
_atom_site_aniso_U_12
W2 0.03994(15) 0.05315(17) 0.04147(14) -0.00065(12) -0.00331(10) -0.00152(12)
W1 0.04424(15) 0.03950(14) 0.05390(16) -0.00049(12) 0.01323(11) -0.01118(11)
N13 0.039(3) 0.047(3) 0.046(2) 0.013(2) -0.002(2) -0.012(2)
N9 0.042(3) 0.048(3) 0.042(2) 0.003(2) -0.003(2) 0.006(2)
N7 0.050(3) 0.058(3) 0.054(3) -0.003(3) -0.001(2) 0.000(2)
N8 0.048(3) 0.072(4) 0.046(3) 0.000(3) -0.012(2) -0.008(3)
N11 0.034(3) 0.084(4) 0.047(3) -0.009(3) 0.011(2) -0.010(3)
N14 0.040(3) 0.062(3) 0.052(3) 0.021(2) -0.008(2) -0.019(2)
O2 0.067(3) 0.068(3) 0.104(4) 0.004(3) 0.043(3) 0.011(3)
N4 0.047(3) 0.059(3) 0.057(3) 0.011(3) 0.016(2) -0.015(2)
N2 0.054(3) 0.046(3) 0.060(3) -0.005(2) 0.008(2) -0.019(2)
N1 0.058(3) 0.043(3) 0.052(3) 0.003(2) 0.011(2) -0.018(2)
N5 0.040(3) 0.048(3) 0.063(3) -0.008(2) 0.013(2) -0.001(2)
N6 0.031(2) 0.064(3) 0.061(3) -0.009(3) 0.018(2) -0.013(2)
N3 0.047(3) 0.057(3) 0.050(3) 0.001(2) 0.012(2) -0.005(2)
O4 0.052(3) 0.105(4) 0.075(3) -0.015(3) 0.019(3) 0.008(3)
N10 0.047(3) 0.059(3) 0.050(3) -0.003(2) -0.001(2) 0.012(2)
O1 0.110(5) 0.067(3) 0.058(3) 0.007(3) 0.013(3) -0.012(3)
O3 0.102(5) 0.054(3) 0.108(4) 0.017(3) -0.026(4) -0.005(3)
N12 0.039(3) 0.084(4) 0.059(3) -0.012(3) 0.008(2) -0.007(3)
C23 0.038(3) 0.052(3) 0.036(3) 0.001(2) 0.002(2) -0.004(2)
C20 0.034(3) 0.051(3) 0.049(3) 0.005(3) -0.002(2) -0.011(2)
C14 0.041(3) 0.044(3) 0.046(3) 0.011(2) 0.002(2) -0.004(2)
C11 0.043(3) 0.042(3) 0.047(3) 0.006(2) 0.005(2) -0.003(2)
C13 0.039(3) 0.048(3) 0.043(3) 0.005(3) -0.002(2) -0.003(2)
C7 0.036(3) 0.052(3) 0.045(3) 0.007(3) -0.005(2) -0.015(3)
C15 0.040(3) 0.056(4) 0.043(3) 0.011(3) -0.003(2) -0.007(3)
C26 0.044(3) 0.054(3) 0.037(3) 0.001(3) 0.000(2) -0.002(3)
C3 0.065(4) 0.040(3) 0.078(5) 0.002(3) 0.022(4) -0.010(3)
C28 0.060(4) 0.053(4) 0.050(3) -0.003(3) -0.011(3) 0.001(3)
C10 0.048(3) 0.056(4) 0.050(3) 0.012(3) 0.000(3) -0.015(3)
C24 0.051(4) 0.056(4) 0.055(4) -0.008(3) -0.007(3) -0.005(3)
C12 0.052(4) 0.045(3) 0.048(3) 0.012(3) 0.000(3) -0.007(3)
C25 0.045(3) 0.043(3) 0.071(4) 0.007(3) -0.007(3) -0.002(3)
C5 0.061(4) 0.052(4) 0.077(4) -0.016(3) 0.032(3) -0.026(3)
C35 0.044(3) 0.063(4) 0.067(4) 0.004(3) 0.011(3) -0.004(3)
C4 0.047(3) 0.040(3) 0.051(3) 0.006(3) 0.004(3) -0.009(3)
C6 0.065(4) 0.077(5) 0.060(4) 0.001(4) 0.022(3) -0.027(4)
C16 0.039(3) 0.076(5) 0.056(4) 0.021(3) -0.008(3) -0.022(3)
C30 0.073(4) 0.043(3) 0.057(4) -0.003(3) 0.011(3) -0.014(3)
C1 0.046(3) 0.053(4) 0.052(3) -0.002(3) 0.015(3) -0.007(3)
C50 0.052(4) 0.052(4) 0.054(3) -0.001(3) 0.004(3) 0.000(3)
C22 0.045(3) 0.060(4) 0.057(4) -0.004(3) -0.005(3) 0.012(3)
C2 0.069(4) 0.050(4) 0.062(4) -0.007(3) 0.016(3) -0.011(3)
C8 0.056(4) 0.045(3) 0.068(4) -0.005(3) 0.011(3) -0.016(3)
C21 0.046(3) 0.063(4) 0.053(3) -0.015(3) -0.008(3) 0.003(3)
C32 0.067(5) 0.055(4) 0.070(4) 0.000(3) 0.007(4) -0.024(3)
C45 0.070(5) 0.064(4) 0.050(4) -0.016(3) 0.003(3) -0.013(4)
C47 0.057(4) 0.094(6) 0.060(4) -0.004(4) -0.020(3) -0.011(4)
C31 0.085(5) 0.056(4) 0.063(4) -0.008(3) 0.003(4) -0.022(4)
C36 0.067(5) 0.078(5) 0.070(4) 0.019(4) 0.004(4) -0.003(4)
C55 0.068(5) 0.085(5) 0.059(4) -0.012(4) 0.023(4) -0.021(4)
C37 0.068(5) 0.075(5) 0.083(5) 0.028(4) 0.026(4) -0.008(4)
C39 0.068(5) 0.052(4) 0.100(6) 0.001(4) 0.021(4) 0.007(3)
C17 0.046(4) 0.108(7) 0.080(5) 0.045(5) -0.023(4) -0.038(4)
C42 0.047(4) 0.070(5) 0.084(5) -0.009(4) 0.021(3) -0.010(3)
C27 0.057(4) 0.069(5) 0.063(4) -0.002(4) -0.019(3) -0.010(3)
C19 0.046(4) 0.071(4) 0.058(4) 0.022(3) -0.008(3) -0.028(3)
C29 0.112(7) 0.055(4) 0.057(4) 0.000(3) 0.024(4) -0.012(4)
C49 0.054(4) 0.067(5) 0.075(4) -0.003(4) 0.001(3) -0.015(3)
C40 0.052(4) 0.062(4) 0.074(4) -0.014(4) 0.011(3) 0.000(3)
C56 0.084(6) 0.093(6) 0.078(5) -0.020(5) 0.036(5) -0.031(5)
C52 0.055(4) 0.057(4) 0.054(4) -0.007(3) 0.003(3) 0.013(3)
C34 0.047(4) 0.081(5) 0.083(5) 0.014(4) -0.002(4) -0.005(4)
C41 0.052(4) 0.068(5) 0.092(5) -0.010(4) 0.015(4) 0.003(3)
C9 0.060(4) 0.054(4) 0.062(4) -0.007(3) 0.023(3) -0.024(3)
C46 0.085(6) 0.084(6) 0.053(4) -0.020(4) -0.011(4) -0.020(5)
C51 0.069(5) 0.057(4) 0.060(4) -0.003(3) 0.007(3) 0.002(3)
B1 0.044(4) 0.058(4) 0.060(4) 0.003(4) 0.013(3) -0.019(3)
C44 0.095(6) 0.072(5) 0.063(4) -0.013(4) 0.005(4) -0.003(4)
C43 0.043(4) 0.102(7) 0.132(8) -0.029(6) 0.034(5) -0.011(4)
C18 0.055(4) 0.109(7) 0.084(5) 0.050(5) -0.019(4) -0.047(4)
C33 0.085(6) 0.079(6) 0.114(7) -0.005(5) 0.004(5) -0.051(5)
C48 0.072(6) 0.124(9) 0.104(7) -0.019(6) -0.036(5) -0.013(6)
C57 0.060(5) 0.080(5) 0.085(5) -0.018(4) 0.028(4) -0.021(4)
B2 0.037(4) 0.073(5) 0.059(4) -0.003(4) -0.002(3) 0.004(3)
C38 0.110(8) 0.117(8) 0.097(7) 0.061(6) 0.019(6) -0.033(6)
C54 0.105(7) 0.101(7) 0.055(4) 0.011(4) 0.019(4) -0.011(5)
C53 0.070(5) 0.078(6) 0.099(6) 0.011(5) -0.011(5) 0.022(4)
C58 0.057(5) 0.133(9) 0.131(8) -0.009(7) 0.038(5) 0.002(5)
C79 0.274(16) 0.197(14) 0.100(9) -0.018(10) 0.032(10) -0.002(13)
C80 0.252(17) 0.27(2) 0.080(8) 0.004(10) -0.009(10) 0.030(16)
C74 0.35(2) 0.136(14) 0.188(16) -0.034(12) 0.064(16) -0.062(15)
C76 0.281(16) 0.228(15) 0.294(15) -0.037(14) 0.004(16) -0.029(14)
C77 0.297(15) 0.195(15) 0.254(14) -0.030(13) -0.011(15) -0.026(14)
C75 0.284(16) 0.185(15) 0.267(17) -0.036(12) 0.071(16) -0.089(13)
C78 0.294(16) 0.186(14) 0.173(12) -0.041(11) 0.016(13) 0.004(13)
C62 0.187(13) 0.238(15) 0.179(12) 0.008(11) 0.052(10) 0.109(11)
C60 0.231(15) 0.202(15) 0.216(13) 0.039(11) 0.102(12) 0.057(12)
C64 0.33(2) 0.286(17) 0.195(12) -0.075(12) 0.080(14) -0.015(16)
C59 0.29(2) 0.188(17) 0.32(2) 0.080(16) 0.187(18) -0.002(16)
C63 0.268(16) 0.258(16) 0.184(12) -0.025(12) 0.061(12) 0.037(14)
C65 0.35(2) 0.283(19) 0.227(16) -0.070(15) 0.084(15) -0.027(17)
C66 0.35(3) 0.27(2) 0.27(2) -0.04(2) 0.100(19) 0.00(2)
loop_
_atom_type_symbol
_atom_type_description
_atom_type_scat_dispersion_real
_atom_type_scat_dispersion_imag
_atom_type_scat_source
C C 0.0181 0.0091 'International Tables Vol C Tables 4.2.6.8 and 6.1.1.4'
H H 0.0000 0.0000 'International Tables Vol C Tables 4.2.6.8 and 6.1.1.4'
B B 0.0090 0.0039 'International Tables Vol C Tables 4.2.6.8 and 6.1.1.4'
N N 0.0311 0.0180 'International Tables Vol C Tables 4.2.6.8 and 6.1.1.4'
O O 0.0492 0.0322 'International Tables Vol C Tables 4.2.6.8 and 6.1.1.4'
W W -5.4734 5.5774 'International Tables Vol C Tables 4.2.6.8 and 6.1.1.4'
loop_
_geom_angle_atom_site_label_1
_geom_angle_atom_site_label_2
_geom_angle_atom_site_label_3
_geom_angle
_geom_angle_site_symmetry_1
_geom_angle_site_symmetry_3
_geom_angle_publ_flag
C26 W2 C27 82.3(3) . . ?
C26 W2 C28 84.0(3) . . ?
C27 W2 C28 86.6(3) . . ?
C26 W2 N9 104.8(2) . . ?
C27 W2 N9 172.8(2) . . ?
C28 W2 N9 95.4(2) . . ?
C26 W2 N11 103.0(2) . . ?
C27 W2 N11 95.2(3) . . ?
C28 W2 N11 173.0(2) . . ?
N9 W2 N11 82.0(2) . . ?
C26 W2 N7 171.4(2) . . ?
C27 W2 N7 90.3(2) . . ?
C28 W2 N7 91.1(2) . . ?
N9 W2 N7 82.75(19) . . ?
N11 W2 N7 82.05(19) . . ?
C1 W1 C2 80.9(3) . . ?
C1 W1 C3 82.2(3) . . ?
C2 W1 C3 85.5(3) . . ?
C1 W1 N5 104.2(2) . . ?
C2 W1 N5 94.0(3) . . ?
C3 W1 N5 173.4(2) . . ?
C1 W1 N3 106.1(2) . . ?
C2 W1 N3 172.4(2) . . ?
C3 W1 N3 98.1(2) . . ?
N5 W1 N3 81.58(19) . . ?
C1 W1 N1 169.0(2) . . ?
C2 W1 N1 90.3(2) . . ?
C3 W1 N1 90.6(2) . . ?
N5 W1 N1 82.84(19) . . ?
N3 W1 N1 83.07(18) . . ?
C11 N13 C14 107.6(4) . . ?
C11 N13 H13 126.2 . . ?
C14 N13 H13 126.2 . . ?
C50 N9 N10 106.5(5) . . ?
C50 N9 W2 132.3(4) . . ?
N10 N9 W2 121.1(4) . . ?
C45 N7 N8 105.8(5) . . ?
C45 N7 W2 134.6(5) . . ?
N8 N7 W2 119.5(4) . . ?
C47 N8 N7 110.4(6) . . ?
C47 N8 B2 129.7(6) . . ?
N7 N8 B2 119.9(5) . . ?
C55 N11 N12 107.2(6) . . ?
C55 N11 W2 132.0(5) . . ?
N12 N11 W2 120.6(4) . . ?
C19 N14 C16 108.4(5) . . ?
C19 N14 H14 125.8 . . ?
C16 N14 H14 125.8 . . ?
C37 N4 N3 108.4(5) . . ?
C37 N4 B1 130.6(6) . . ?
N3 N4 B1 121.0(5) . . ?
C32 N2 N1 109.6(5) . . ?
C32 N2 B1 129.0(6) . . ?
N1 N2 B1 121.4(5) . . ?
C30 N1 N2 107.7(5) . . ?
C30 N1 W1 133.4(4) . . ?
N2 N1 W1 118.4(4) . . ?
C40 N5 N6 106.5(5) . . ?
C40 N5 W1 132.3(5) . . ?
N6 N5 W1 120.9(4) . . ?
C42 N6 N5 108.6(6) . . ?
C42 N6 B1 131.6(5) . . ?
N5 N6 B1 119.2(5) . . ?
C35 N3 N4 107.3(5) . . ?
C35 N3 W1 132.8(4) . . ?
N4 N3 W1 119.3(4) . . ?
C52 N10 N9 109.2(5) . . ?
C52 N10 B2 130.9(6) . . ?
N9 N10 B2 119.8(5) . . ?
C57 N12 N11 109.1(6) . . ?
C57 N12 B2 130.4(7) . . ?
N11 N12 B2 120.4(5) . . ?
C22 C23 C24 117.0(5) . . ?
C22 C23 C26 122.1(6) . . ?
C24 C23 C26 120.9(5) . . ?
C21 C20 C25 118.4(5) . . ?
C21 C20 C15 121.8(6) . . ?
C25 C20 C15 119.7(6) . . ?
N13 C14 C15 125.6(5) . . ?
N13 C14 C13 108.9(5) . . ?
C15 C14 C13 125.5(5) . . ?
N13 C11 C10 126.6(5) . . ?
N13 C11 C12 108.8(5) . . ?
C10 C11 C12 124.5(5) . . ?
C12 C13 C14 107.2(5) . . ?
C12 C13 H13A 126.4 . . ?
C14 C13 H13A 126.4 . . ?
C8 C7 C6 118.8(6) . . ?
C8 C7 C10 122.5(6) . . ?
C6 C7 C10 118.7(6) . . ?
C16 C15 C14 124.7(5) . . ?
C16 C15 C20 116.3(5) . . ?
C14 C15 C20 119.0(5) . . ?
C23 C26 W2 167.6(5) . . ?
O2 C3 W1 175.2(6) . . ?
O4 C28 W2 177.8(6) . . ?
C19 C10 C11 125.1(6) 3_666 . ?
C19 C10 C7 116.5(5) 3_666 . ?
C11 C10 C7 118.4(5) . . ?
C25 C24 C23 122.0(6) . . ?
C25 C24 H24 119.0 . . ?
C23 C24 H24 119.0 . . ?
C13 C12 C11 107.5(5) . . ?
C13 C12 H12 126.3 . . ?
C11 C12 H12 126.3 . . ?
C24 C25 C20 120.0(6) . . ?
C24 C25 H25 120.0 . . ?
C20 C25 H25 120.0 . . ?
C4 C5 C6 119.9(6) . . ?
C4 C5 H5 120.1 . . ?
C6 C5 H5 120.1 . . ?
N3 C35 C36 109.6(6) . . ?
N3 C35 C34 121.5(6) . . ?
C36 C35 C34 128.9(7) . . ?
C5 C4 C9 119.2(6) . . ?
C5 C4 C1 119.9(6) . . ?
C9 C4 C1 120.8(6) . . ?
C7 C6 C5 121.1(6) . . ?
C7 C6 H6 119.5 . . ?
C5 C6 H6 119.5 . . ?
N14 C16 C15 126.1(5) . . ?
N14 C16 C17 108.6(5) . . ?
C15 C16 C17 125.3(6) . . ?
N1 C30 C31 108.4(6) . . ?
N1 C30 C29 124.2(6) . . ?
C31 C30 C29 127.4(6) . . ?
C4 C1 W1 161.9(5) . . ?
N9 C50 C51 109.6(6) . . ?
N9 C50 C49 121.4(6) . . ?
C51 C50 C49 129.0(7) . . ?
C21 C22 C23 121.6(6) . . ?
C21 C22 H22 119.2 . . ?
C23 C22 H22 119.2 . . ?
O1 C2 W1 175.4(6) . . ?
C7 C8 C9 121.1(6) . . ?
C7 C8 H8 119.5 . . ?
C9 C8 H8 119.5 . . ?
C20 C21 C22 121.1(6) . . ?
C20 C21 H21 119.5 . . ?
C22 C21 H21 119.5 . . ?
N2 C32 C31 106.8(6) . . ?
N2 C32 C33 121.9(7) . . ?
C31 C32 C33 131.2(7) . . ?
N7 C45 C46 110.4(7) . . ?
N7 C45 C44 122.6(6) . . ?
C46 C45 C44 126.9(7) . . ?
N8 C47 C46 106.6(7) . . ?
N8 C47 C48 122.0(8) . . ?
C46 C47 C48 131.4(7) . . ?
C32 C31 C30 107.5(6) . . ?
C32 C31 H31 126.3 . . ?
C30 C31 H31 126.3 . . ?
C37 C36 C35 106.3(6) . . ?
C37 C36 H36 126.8 . . ?
C35 C36 H36 126.8 . . ?
N11 C55 C56 108.4(8) . . ?
N11 C55 C54 122.6(7) . . ?
C56 C55 C54 129.0(7) . . ?
N4 C37 C36 108.4(6) . . ?
N4 C37 C38 121.6(7) . . ?
C36 C37 C38 130.0(8) . . ?
C40 C39 H39A 109.5 . . ?
C40 C39 H39B 109.5 . . ?
H39A C39 H39B 109.5 . . ?
C40 C39 H39C 109.5 . . ?
H39A C39 H39C 109.5 . . ?
H39B C39 H39C 109.5 . . ?
C18 C17 C16 108.0(6) . . ?
C18 C17 H17 126.0 . . ?
C16 C17 H17 126.0 . . ?
N6 C42 C41 109.3(6) . . ?
N6 C42 C43 121.3(7) . . ?
C41 C42 C43 129.4(7) . . ?
O3 C27 W2 176.6(6) . . ?
N14 C19 C10 128.0(5) . 3_666 ?
N14 C19 C18 107.5(5) . . ?
C10 C19 C18 124.5(6) 3_666 . ?
C30 C29 H29A 109.5 . . ?
C30 C29 H29B 109.5 . . ?
H29A C29 H29B 109.5 . . ?
C30 C29 H29C 109.5 . . ?
H29A C29 H29C 109.5 . . ?
H29B C29 H29C 109.5 . . ?
C50 C49 H49A 109.5 . . ?
C50 C49 H49B 109.5 . . ?
H49A C49 H49B 109.5 . . ?
C50 C49 H49C 109.5 . . ?
H49A C49 H49C 109.5 . . ?
H49B C49 H49C 109.5 . . ?
N5 C40 C41 109.4(7) . . ?
N5 C40 C39 121.9(6) . . ?
C41 C40 C39 128.7(7) . . ?
C57 C56 C55 107.4(7) . . ?
C57 C56 H56 126.3 . . ?
C55 C56 H56 126.3 . . ?
N10 C52 C51 108.3(6) . . ?
N10 C52 C53 122.5(7) . . ?
C51 C52 C53 129.1(7) . . ?
C35 C34 H34A 109.5 . . ?
C35 C34 H34B 109.5 . . ?
H34A C34 H34B 109.5 . . ?
C35 C34 H34C 109.5 . . ?
H34A C34 H34C 109.5 . . ?
H34B C34 H34C 109.5 . . ?
C42 C41 C40 106.1(7) . . ?
C42 C41 H41 126.9 . . ?
C40 C41 H41 126.9 . . ?
C8 C9 C4 120.0(6) . . ?
C8 C9 H9 120.0 . . ?
C4 C9 H9 120.0 . . ?
C47 C46 C45 106.8(6) . . ?
C47 C46 H46 126.6 . . ?
C45 C46 H46 126.6 . . ?
C52 C51 C50 106.4(7) . . ?
C52 C51 H51 126.8 . . ?
C50 C51 H51 126.8 . . ?
N4 B1 N2 109.8(6) . . ?
N4 B1 N6 109.3(5) . . ?
N2 B1 N6 107.9(6) . . ?
N4 B1 H1 111(3) . . ?
N2 B1 H1 113(3) . . ?
N6 B1 H1 105(4) . . ?
C45 C44 H44A 109.5 . . ?
C45 C44 H44B 109.5 . . ?
H44A C44 H44B 109.5 . . ?
C45 C44 H44C 109.5 . . ?
H44A C44 H44C 109.5 . . ?
H44B C44 H44C 109.5 . . ?
C42 C43 H43A 109.5 . . ?
C42 C43 H43B 109.5 . . ?
H43A C43 H43B 109.5 . . ?
C42 C43 H43C 109.5 . . ?
H43A C43 H43C 109.5 . . ?
H43B C43 H43C 109.5 . . ?
C17 C18 C19 107.4(6) . . ?
C17 C18 H18 126.3 . . ?
C19 C18 H18 126.3 . . ?
C32 C33 H33A 109.5 . . ?
C32 C33 H33B 109.5 . . ?
H33A C33 H33B 109.5 . . ?
C32 C33 H33C 109.5 . . ?
H33A C33 H33C 109.5 . . ?
H33B C33 H33C 109.5 . . ?
C47 C48 H48A 109.5 . . ?
C47 C48 H48B 109.5 . . ?
H48A C48 H48B 109.5 . . ?
C47 C48 H48C 109.5 . . ?
H48A C48 H48C 109.5 . . ?
H48B C48 H48C 109.5 . . ?
N12 C57 C56 107.9(8) . . ?
N12 C57 C58 122.5(8) . . ?
C56 C57 C58 129.7(8) . . ?
N12 B2 N8 108.2(6) . . ?
N12 B2 N10 108.6(5) . . ?
N8 B2 N10 110.2(6) . . ?
N12 B2 H2 111(3) . . ?
N8 B2 H2 109(3) . . ?
N10 B2 H2 110(3) . . ?
C37 C38 H38A 109.5 . . ?
C37 C38 H38B 109.5 . . ?
H38A C38 H38B 109.5 . . ?
C37 C38 H38C 109.5 . . ?
H38A C38 H38C 109.5 . . ?
H38B C38 H38C 109.5 . . ?
C55 C54 H54A 109.5 . . ?
C55 C54 H54B 109.5 . . ?
H54A C54 H54B 109.5 . . ?
C55 C54 H54C 109.5 . . ?
H54A C54 H54C 109.5 . . ?
H54B C54 H54C 109.5 . . ?
C52 C53 H53A 109.5 . . ?
C52 C53 H53B 109.5 . . ?
H53A C53 H53B 109.5 . . ?
C52 C53 H53C 109.5 . . ?
H53A C53 H53C 109.5 . . ?
H53B C53 H53C 109.5 . . ?
C57 C58 H58A 109.5 . . ?
C57 C58 H58B 109.5 . . ?
H58A C58 H58B 109.5 . . ?
C57 C58 H58C 109.5 . . ?
H58A C58 H58C 109.5 . . ?
H58B C58 H58C 109.5 . . ?
C78 C79 C80 121.1(19) . . ?
C78 C79 H79A 107.1 . . ?
C80 C79 H79A 107.1 . . ?
C78 C79 H79B 107.1 . . ?
C80 C79 H79B 107.1 . . ?
H79A C79 H79B 106.8 . . ?
C79 C80 H80A 109.5 . . ?
C79 C80 H80B 109.5 . . ?
H80A C80 H80B 109.5 . . ?
C79 C80 H80C 109.5 . . ?
H80A C80 H80C 109.5 . . ?
H80B C80 H80C 109.5 . . ?
C75 C74 H74A 109.5 . . ?
C75 C74 H74B 109.5 . . ?
H74A C74 H74B 109.5 . . ?
C75 C74 H74C 109.5 . . ?
H74A C74 H74C 109.5 . . ?
H74B C74 H74C 109.5 . . ?
C77 C76 C75 107.1(19) . . ?
C77 C76 H76A 110.3 . . ?
C75 C76 H76A 110.3 . . ?
C77 C76 H76B 110.3 . . ?
C75 C76 H76B 110.3 . . ?
H76A C76 H76B 108.6 . . ?
C76 C77 C78 103.4(17) . . ?
C76 C77 H77A 111.1 . . ?
C78 C77 H77A 111.1 . . ?
C76 C77 H77B 111.1 . . ?
C78 C77 H77B 111.1 . . ?
H77A C77 H77B 109.1 . . ?
C74 C75 C76 114.4(17) . . ?
C74 C75 H75A 108.7 . . ?
C76 C75 H75A 108.7 . . ?
C74 C75 H75B 108.7 . . ?
C76 C75 H75B 108.7 . . ?
H75A C75 H75B 107.6 . . ?
C79 C78 C77 121.1(19) . . ?
C79 C78 H78A 107.1 . . ?
C77 C78 H78A 107.1 . . ?
C79 C78 H78B 107.1 . . ?
C77 C78 H78B 107.1 . . ?
H78A C78 H78B 106.8 . . ?
C60 C62 C63 110.0(13) . . ?
C60 C62 H62A 109.7 . . ?
C63 C62 H62A 109.7 . . ?
C60 C62 H62B 109.7 . . ?
C63 C62 H62B 109.7 . . ?
H62A C62 H62B 108.2 . . ?
C59 C60 C62 106.6(16) . . ?
C59 C60 H60A 110.4 . . ?
C62 C60 H60A 110.4 . . ?
C59 C60 H60B 110.4 . . ?
C62 C60 H60B 110.4 . . ?
H60A C60 H60B 108.6 . . ?
C63 C64 C65 104.4(19) . . ?
C63 C64 H64A 110.9 . . ?
C65 C64 H64A 110.9 . . ?
C63 C64 H64B 110.9 . . ?
C65 C64 H64B 110.9 . . ?
H64A C64 H64B 108.9 . . ?
C60 C59 H59A 109.5 . . ?
C60 C59 H59B 109.5 . . ?
H59A C59 H59B 109.5 . . ?
C60 C59 H59C 109.5 . . ?
H59A C59 H59C 109.5 . . ?
H59B C59 H59C 109.5 . . ?
C64 C63 C62 110.7(18) . . ?
C64 C63 H63A 109.5 . . ?
C62 C63 H63A 109.5 . . ?
C64 C63 H63B 109.5 . . ?
C62 C63 H63B 109.5 . . ?
H63A C63 H63B 108.1 . . ?
C66 C65 C64 115(2) . . ?
C66 C65 H65A 108.4 . . ?
C64 C65 H65A 108.4 . . ?
C66 C65 H65B 108.4 . . ?
C64 C65 H65B 108.4 . . ?
H65A C65 H65B 107.5 . . ?
C65 C66 H66A 109.5 . . ?
C65 C66 H66B 109.5 . . ?
H66A C66 H66B 109.5 . . ?
C65 C66 H66C 109.5 . . ?
H66A C66 H66C 109.5 . . ?
H66B C66 H66C 109.5 . . ?
loop_
_geom_bond_atom_site_label_1
_geom_bond_atom_site_label_2
_geom_bond_distance
_geom_bond_site_symmetry_2
_geom_bond_publ_flag
W2 C26 1.814(5) . ?
W2 C27 1.979(8) . ?
W2 C28 1.985(8) . ?
W2 N9 2.196(5) . ?
W2 N11 2.210(5) . ?
W2 N7 2.271(5) . ?
W1 C1 1.816(6) . ?
W1 C2 1.985(7) . ?
W1 C3 2.000(7) . ?
W1 N5 2.203(5) . ?
W1 N3 2.214(5) . ?
W1 N1 2.285(5) . ?
N13 C11 1.363(7) . ?
N13 C14 1.365(7) . ?
N13 H13 0.8600 . ?
N9 C50 1.334(8) . ?
N9 N10 1.380(7) . ?
N7 C45 1.341(8) . ?
N7 N8 1.379(8) . ?
N8 C47 1.364(8) . ?
N8 B2 1.537(10) . ?
N11 C55 1.340(9) . ?
N11 N12 1.376(8) . ?
N14 C19 1.375(7) . ?
N14 C16 1.376(7) . ?
N14 H14 0.8600 . ?
O2 C3 1.150(8) . ?
N4 C37 1.352(9) . ?
N4 N3 1.391(7) . ?
N4 B1 1.523(9) . ?
N2 C32 1.354(8) . ?
N2 N1 1.364(7) . ?
N2 B1 1.526(9) . ?
N1 C30 1.331(8) . ?
N5 C40 1.341(9) . ?
N5 N6 1.393(7) . ?
N6 C42 1.335(9) . ?
N6 B1 1.558(10) . ?
N3 C35 1.329(8) . ?
O4 C28 1.157(8) . ?
N10 C52 1.344(9) . ?
N10 B2 1.547(10) . ?
O1 C2 1.153(8) . ?
O3 C27 1.160(9) . ?
N12 C57 1.338(9) . ?
N12 B2 1.536(10) . ?
C23 C22 1.384(8) . ?
C23 C24 1.393(9) . ?
C23 C26 1.448(8) . ?
C20 C21 1.377(9) . ?
C20 C25 1.394(9) . ?
C20 C15 1.493(7) . ?
C14 C15 1.395(8) . ?
C14 C13 1.437(8) . ?
C11 C10 1.398(8) . ?
C11 C12 1.436(8) . ?
C13 C12 1.346(8) . ?
C13 H13A 0.9300 . ?
C7 C8 1.373(9) . ?
C7 C6 1.374(9) . ?
C7 C10 1.486(8) . ?
C15 C16 1.395(8) . ?
C10 C19 1.387(8) 3_666 ?
C24 C25 1.385(8) . ?
C24 H24 0.9300 . ?
C12 H12 0.9300 . ?
C25 H25 0.9300 . ?
C5 C4 1.372(9) . ?
C5 C6 1.403(9) . ?
C5 H5 0.9300 . ?
C35 C36 1.393(10) . ?
C35 C34 1.483(9) . ?
C4 C9 1.396(9) . ?
C4 C1 1.468(8) . ?
C6 H6 0.9300 . ?
C16 C17 1.419(9) . ?
C30 C31 1.389(10) . ?
C30 C29 1.475(10) . ?
C50 C51 1.391(9) . ?
C50 C49 1.501(9) . ?
C22 C21 1.384(8) . ?
C22 H22 0.9300 . ?
C8 C9 1.389(8) . ?
C8 H8 0.9300 . ?
C21 H21 0.9300 . ?
C32 C31 1.368(10) . ?
C32 C33 1.498(10) . ?
C45 C46 1.385(10) . ?
C45 C44 1.458(11) . ?
C47 C46 1.379(12) . ?
C47 C48 1.497(12) . ?
C31 H31 0.9300 . ?
C36 C37 1.371(11) . ?
C36 H36 0.9300 . ?
C55 C56 1.379(12) . ?
C55 C54 1.480(11) . ?
C37 C38 1.514(10) . ?
C39 C40 1.498(10) . ?
C39 H39A 0.9600 . ?
C39 H39B 0.9600 . ?
C39 H39C 0.9600 . ?
C17 C18 1.357(10) . ?
C17 H17 0.9300 . ?
C42 C41 1.363(11) . ?
C42 C43 1.504(10) . ?
C19 C18 1.450(9) . ?
C29 H29A 0.9600 . ?
C29 H29B 0.9600 . ?
C29 H29C 0.9600 . ?
C49 H49A 0.9600 . ?
C49 H49B 0.9600 . ?
C49 H49C 0.9600 . ?
C40 C41 1.390(10) . ?
C56 C57 1.362(12) . ?
C56 H56 0.9300 . ?
C52 C51 1.360(10) . ?
C52 C53 1.504(9) . ?
C34 H34A 0.9600 . ?
C34 H34B 0.9600 . ?
C34 H34C 0.9600 . ?
C41 H41 0.9300 . ?
C9 H9 0.9300 . ?
C46 H46 0.9300 . ?
C51 H51 0.9300 . ?
B1 H1 1.14(7) . ?
C44 H44A 0.9600 . ?
C44 H44B 0.9600 . ?
C44 H44C 0.9600 . ?
C43 H43A 0.9600 . ?
C43 H43B 0.9600 . ?
C43 H43C 0.9600 . ?
C18 H18 0.9300 . ?
C33 H33A 0.9600 . ?
C33 H33B 0.9600 . ?
C33 H33C 0.9600 . ?
C48 H48A 0.9600 . ?
C48 H48B 0.9600 . ?
C48 H48C 0.9600 . ?
C57 C58 1.515(12) . ?
B2 H2 1.05(5) . ?
C38 H38A 0.9600 . ?
C38 H38B 0.9600 . ?
C38 H38C 0.9600 . ?
C54 H54A 0.9600 . ?
C54 H54B 0.9600 . ?
C54 H54C 0.9600 . ?
C53 H53A 0.9600 . ?
C53 H53B 0.9600 . ?
C53 H53C 0.9600 . ?
C58 H58A 0.9600 . ?
C58 H58B 0.9600 . ?
C58 H58C 0.9600 . ?
C79 C78 1.457(15) . ?
C79 C80 1.464(15) . ?
C79 H79A 0.9700 . ?
C79 H79B 0.9700 . ?
C80 H80A 0.9600 . ?
C80 H80B 0.9600 . ?
C80 H80C 0.9600 . ?
C74 C75 1.422(15) . ?
C74 H74A 0.9600 . ?
C74 H74B 0.9600 . ?
C74 H74C 0.9600 . ?
C76 C77 1.448(16) . ?
C76 C75 1.496(16) . ?
C76 H76A 0.9700 . ?
C76 H76B 0.9700 . ?
C77 C78 1.547(16) . ?
C77 H77A 0.9700 . ?
C77 H77B 0.9700 . ?
C75 H75A 0.9700 . ?
C75 H75B 0.9700 . ?
C78 H78A 0.9700 . ?
C78 H78B 0.9700 . ?
C62 C60 1.500(14) . ?
C62 C63 1.563(16) . ?
C62 H62A 0.9700 . ?
C62 H62B 0.9700 . ?
C60 C59 1.474(14) . ?
C60 H60A 0.9700 . ?
C60 H60B 0.9700 . ?
C64 C63 1.485(15) . ?
C64 C65 1.486(17) . ?
C64 H64A 0.9700 . ?
C64 H64B 0.9700 . ?
C59 H59A 0.9600 . ?
C59 H59B 0.9600 . ?
C59 H59C 0.9600 . ?
C63 H63A 0.9700 . ?
C63 H63B 0.9700 . ?
C65 C66 1.481(16) . ?
C65 H65A 0.9700 . ?
C65 H65B 0.9700 . ?
C66 H66A 0.9600 . ?
C66 H66B 0.9600 . ?
C66 H66C 0.9600 . ?
loop_
_geom_torsion_atom_site_label_1
_geom_torsion_atom_site_label_2
_geom_torsion_atom_site_label_3
_geom_torsion_atom_site_label_4
_geom_torsion
_geom_torsion_site_symmetry_1
_geom_torsion_site_symmetry_2
_geom_torsion_site_symmetry_3
_geom_torsion_site_symmetry_4
_geom_torsion_publ_flag
C45 N7 N8 C47 -0.2(8) . . . . ?
W2 N7 N8 C47 177.2(5) . . . . ?
C45 N7 N8 B2 -179.1(6) . . . . ?
W2 N7 N8 B2 -1.7(8) . . . . ?
C32 N2 N1 C30 -0.4(8) . . . . ?
B1 N2 N1 C30 -179.9(6) . . . . ?
C32 N2 N1 W1 172.4(5) . . . . ?
B1 N2 N1 W1 -7.0(8) . . . . ?
C40 N5 N6 C42 1.2(7) . . . . ?
W1 N5 N6 C42 -173.8(5) . . . . ?
C40 N5 N6 B1 173.5(6) . . . . ?
W1 N5 N6 B1 -1.4(7) . . . . ?
C37 N4 N3 C35 -1.3(8) . . . . ?
B1 N4 N3 C35 179.5(6) . . . . ?
C37 N4 N3 W1 170.6(5) . . . . ?
B1 N4 N3 W1 -8.6(8) . . . . ?
C50 N9 N10 C52 -0.3(7) . . . . ?
W2 N9 N10 C52 178.0(4) . . . . ?
C50 N9 N10 B2 -179.4(6) . . . . ?
W2 N9 N10 B2 -1.1(7) . . . . ?
C55 N11 N12 C57 1.2(8) . . . . ?
W2 N11 N12 C57 -174.4(5) . . . . ?
C55 N11 N12 B2 176.5(6) . . . . ?
W2 N11 N12 B2 1.0(8) . . . . ?
C11 N13 C14 C15 -179.5(6) . . . . ?
C11 N13 C14 C13 -0.4(7) . . . . ?
C14 N13 C11 C10 -178.3(6) . . . . ?
C14 N13 C11 C12 0.1(7) . . . . ?
N13 C14 C13 C12 0.6(7) . . . . ?
C15 C14 C13 C12 179.7(6) . . . . ?
N13 C14 C15 C16 -0.2(11) . . . . ?
C13 C14 C15 C16 -179.2(7) . . . . ?
N13 C14 C15 C20 179.6(6) . . . . ?
C13 C14 C15 C20 0.6(10) . . . . ?
C21 C20 C15 C16 -114.1(8) . . . . ?
C25 C20 C15 C16 63.0(9) . . . . ?
C21 C20 C15 C14 66.1(9) . . . . ?
C25 C20 C15 C14 -116.7(7) . . . . ?
C22 C23 C26 W2 170.8(19) . . . . ?
C24 C23 C26 W2 -8(3) . . . . ?
C27 W2 C26 C23 -20(2) . . . . ?
C28 W2 C26 C23 68(2) . . . . ?
N9 W2 C26 C23 162(2) . . . . ?
N11 W2 C26 C23 -113(2) . . . . ?
N13 C11 C10 C19 -1.6(12) . . . 3_666 ?
C12 C11 C10 C19 -179.8(7) . . . 3_666 ?
N13 C11 C10 C7 176.7(6) . . . . ?
C12 C11 C10 C7 -1.6(10) . . . . ?
C8 C7 C10 C19 -108.8(8) . . . 3_666 ?
C6 C7 C10 C19 69.3(9) . . . 3_666 ?
C8 C7 C10 C11 72.8(9) . . . . ?
C6 C7 C10 C11 -109.1(7) . . . . ?
C22 C23 C24 C25 -0.5(10) . . . . ?
C26 C23 C24 C25 177.9(6) . . . . ?
C14 C13 C12 C11 -0.5(7) . . . . ?
N13 C11 C12 C13 0.2(7) . . . . ?
C10 C11 C12 C13 178.7(6) . . . . ?
C23 C24 C25 C20 -0.7(10) . . . . ?
C21 C20 C25 C24 1.4(10) . . . . ?
C15 C20 C25 C24 -175.9(6) . . . . ?
N4 N3 C35 C36 1.3(8) . . . . ?
W1 N3 C35 C36 -169.2(5) . . . . ?
N4 N3 C35 C34 -179.2(7) . . . . ?
W1 N3 C35 C34 10.3(11) . . . . ?
C6 C5 C4 C9 -1.7(11) . . . . ?
C6 C5 C4 C1 174.9(7) . . . . ?
C8 C7 C6 C5 0.7(11) . . . . ?
C10 C7 C6 C5 -177.4(7) . . . . ?
C4 C5 C6 C7 0.9(12) . . . . ?
C19 N14 C16 C15 -178.4(8) . . . . ?
C19 N14 C16 C17 -0.3(10) . . . . ?
C14 C15 C16 N14 2.9(13) . . . . ?
C20 C15 C16 N14 -176.8(7) . . . . ?
C14 C15 C16 C17 -174.8(8) . . . . ?
C20 C15 C16 C17 5.4(12) . . . . ?
N2 N1 C30 C31 0.7(8) . . . . ?
W1 N1 C30 C31 -170.6(5) . . . . ?
N2 N1 C30 C29 -178.9(7) . . . . ?
W1 N1 C30 C29 9.7(11) . . . . ?
C5 C4 C1 W1 -22(2) . . . . ?
C9 C4 C1 W1 154.9(14) . . . . ?
C2 W1 C1 C4 -30.8(16) . . . . ?
C3 W1 C1 C4 55.8(16) . . . . ?
N5 W1 C1 C4 -122.7(16) . . . . ?
N3 W1 C1 C4 152.1(16) . . . . ?
N1 W1 C1 C4 6(3) . . . . ?
N10 N9 C50 C51 0.0(7) . . . . ?
W2 N9 C50 C51 -178.0(4) . . . . ?
N10 N9 C50 C49 -179.7(6) . . . . ?
W2 N9 C50 C49 2.3(10) . . . . ?
C24 C23 C22 C21 1.1(10) . . . . ?
C26 C23 C22 C21 -177.3(6) . . . . ?
C6 C7 C8 C9 -1.5(10) . . . . ?
C10 C7 C8 C9 176.5(6) . . . . ?
C25 C20 C21 C22 -0.8(10) . . . . ?
C15 C20 C21 C22 176.4(6) . . . . ?
C23 C22 C21 C20 -0.4(11) . . . . ?
N1 N2 C32 C31 0.0(9) . . . . ?
B1 N2 C32 C31 179.4(7) . . . . ?
N1 N2 C32 C33 -176.7(7) . . . . ?
B1 N2 C32 C33 2.7(13) . . . . ?
N8 N7 C45 C46 0.5(8) . . . . ?
W2 N7 C45 C46 -176.3(5) . . . . ?
N8 N7 C45 C44 -178.1(7) . . . . ?
W2 N7 C45 C44 5.0(12) . . . . ?
N7 N8 C47 C46 -0.1(9) . . . . ?
B2 N8 C47 C46 178.6(7) . . . . ?
N7 N8 C47 C48 -179.8(8) . . . . ?
B2 N8 C47 C48 -1.2(13) . . . . ?
N2 C32 C31 C30 0.4(9) . . . . ?
C33 C32 C31 C30 176.7(9) . . . . ?
N1 C30 C31 C32 -0.7(9) . . . . ?
C29 C30 C31 C32 178.9(8) . . . . ?
N3 C35 C36 C37 -0.8(9) . . . . ?
C34 C35 C36 C37 179.8(8) . . . . ?
N12 N11 C55 C56 -1.0(8) . . . . ?
W2 N11 C55 C56 173.8(5) . . . . ?
N12 N11 C55 C54 177.9(7) . . . . ?
W2 N11 C55 C54 -7.2(11) . . . . ?
N3 N4 C37 C36 0.8(9) . . . . ?
B1 N4 C37 C36 179.9(7) . . . . ?
N3 N4 C37 C38 -178.3(8) . . . . ?
B1 N4 C37 C38 0.8(14) . . . . ?
C35 C36 C37 N4 -0.1(10) . . . . ?
C35 C36 C37 C38 179.0(10) . . . . ?
N14 C16 C17 C18 -0.1(11) . . . . ?
C15 C16 C17 C18 178.0(9) . . . . ?
N5 N6 C42 C41 -1.9(8) . . . . ?
B1 N6 C42 C41 -173.0(7) . . . . ?
N5 N6 C42 C43 179.3(7) . . . . ?
B1 N6 C42 C43 8.3(12) . . . . ?
C16 N14 C19 C10 178.1(8) . . . 3_666 ?
C16 N14 C19 C18 0.6(10) . . . . ?
N6 N5 C40 C41 0.0(8) . . . . ?
W1 N5 C40 C41 174.1(5) . . . . ?
N6 N5 C40 C39 -179.8(6) . . . . ?
W1 N5 C40 C39 -5.7(10) . . . . ?
N11 C55 C56 C57 0.5(10) . . . . ?
C54 C55 C56 C57 -178.3(8) . . . . ?
N9 N10 C52 C51 0.5(7) . . . . ?
B2 N10 C52 C51 179.4(6) . . . . ?
N9 N10 C52 C53 -177.3(6) . . . . ?
B2 N10 C52 C53 1.7(11) . . . . ?
N6 C42 C41 C40 1.8(9) . . . . ?
C43 C42 C41 C40 -179.5(8) . . . . ?
N5 C40 C41 C42 -1.1(9) . . . . ?
C39 C40 C41 C42 178.7(8) . . . . ?
C7 C8 C9 C4 0.7(11) . . . . ?
C5 C4 C9 C8 0.9(10) . . . . ?
C1 C4 C9 C8 -175.7(6) . . . . ?
N8 C47 C46 C45 0.4(10) . . . . ?
C48 C47 C46 C45 -179.9(10) . . . . ?
N7 C45 C46 C47 -0.5(10) . . . . ?
C44 C45 C46 C47 178.0(8) . . . . ?
N10 C52 C51 C50 -0.4(8) . . . . ?
C53 C52 C51 C50 177.1(7) . . . . ?
N9 C50 C51 C52 0.2(8) . . . . ?
C49 C50 C51 C52 180.0(7) . . . . ?
C37 N4 B1 N2 -114.3(8) . . . . ?
N3 N4 B1 N2 64.7(8) . . . . ?
C37 N4 B1 N6 127.5(8) . . . . ?
N3 N4 B1 N6 -53.5(8) . . . . ?
C32 N2 B1 N4 126.5(7) . . . . ?
N1 N2 B1 N4 -54.2(8) . . . . ?
C32 N2 B1 N6 -114.5(7) . . . . ?
N1 N2 B1 N6 64.8(7) . . . . ?
C42 N6 B1 N4 -130.3(7) . . . . ?
N5 N6 B1 N4 59.4(7) . . . . ?
C42 N6 B1 N2 110.4(8) . . . . ?
N5 N6 B1 N2 -59.9(7) . . . . ?
C16 C17 C18 C19 0.4(12) . . . . ?
N14 C19 C18 C17 -0.6(11) . . . . ?
C10 C19 C18 C17 -178.2(9) 3_666 . . . ?
N11 N12 C57 C56 -0.8(9) . . . . ?
B2 N12 C57 C56 -175.6(7) . . . . ?
N11 N12 C57 C58 179.5(8) . . . . ?
B2 N12 C57 C58 4.7(13) . . . . ?
C55 C56 C57 N12 0.2(10) . . . . ?
C55 C56 C57 C58 179.8(9) . . . . ?
C57 N12 B2 N8 112.7(8) . . . . ?
N11 N12 B2 N8 -61.6(8) . . . . ?
C57 N12 B2 N10 -127.7(8) . . . . ?
N11 N12 B2 N10 58.1(8) . . . . ?
C47 N8 B2 N12 -117.5(8) . . . . ?
N7 N8 B2 N12 61.1(8) . . . . ?
C47 N8 B2 N10 123.8(8) . . . . ?
N7 N8 B2 N10 -57.6(8) . . . . ?
C52 N10 B2 N12 123.1(7) . . . . ?
N9 N10 B2 N12 -58.0(8) . . . . ?
C52 N10 B2 N8 -118.5(7) . . . . ?
N9 N10 B2 N8 60.4(7) . . . . ?
C75 C76 C77 C78 177.8(17) . . . . ?
C77 C76 C75 C74 -75(3) . . . . ?
C80 C79 C78 C77 173.4(19) . . . . ?
C76 C77 C78 C79 175.7(19) . . . . ?
C63 C62 C60 C59 -170.7(17) . . . . ?
C65 C64 C63 C62 -143(2) . . . . ?
C60 C62 C63 C64 -172.0(18) . . . . ?
C63 C64 C65 C66 169(2) . . . . ?
