#------------------------------------------------------------------------------
#$Date: 2020-09-06 12:35:46 +0300 (Sun, 06 Sep 2020) $
#$Revision: 256078 $
#$URL: file:///home/coder/svn-repositories/cod/cif/7/70/50/7705000.cif $
#------------------------------------------------------------------------------
#
# This file is available in the Crystallography Open Database (COD),
# http://www.crystallography.net/
#
# All data on this site have been placed in the public domain by the
# contributors.
#
data_7705000
loop_
_publ_author_name
'Alanazi, Abdulaziz A.'
'Wojtas, Lukasz'
'Mayers, Jacob M.'
'Miksovska, Jaroslava'
'Larsen, Randy W.'
_publ_section_title
;
 Framework induced deformation modulates the photophysical properties of
 ZnTetra(4-pyridyl)porphyrin incorporated within a new metal organic
 framework, RWLAA-1.
;
_journal_issue                   33
_journal_name_full
'Dalton transactions (Cambridge, England : 2003)'
_journal_page_first              11668
_journal_page_last               11674
_journal_paper_doi               10.1039/d0dt02050h
_journal_volume                  49
_journal_year                    2020
_chemical_formula_moiety
'C307.5 H172.5 N49.5 O48 Zn18, 6(C3 H7 N O), 1.5(O)'
_chemical_formula_sum            'C325.5 H217.5 N55.5 O55.5 Zn18'
_chemical_formula_weight         6970.70
_space_group_crystal_system      hexagonal
_space_group_IT_number           175
_space_group_name_Hall           '-P 6'
_space_group_name_H-M_alt        'P 6/m'
_atom_sites_solution_hydrogens   geom
_audit_creation_date             2018-11-19
_audit_creation_method
;
Olex2 1.2
(compiled 2018.05.29 svn.r3508 for OlexSys, GUI svn.r5506)
;
_audit_update_record
;
2020-06-08 deposited with the CCDC.	2020-08-03 downloaded from the CCDC.
;
_cell_angle_alpha                90
_cell_angle_beta                 90
_cell_angle_gamma                120
_cell_formula_units_Z            1
_cell_length_a                   26.8343(9)
_cell_length_b                   26.8343(9)
_cell_length_c                   14.8769(5)
_cell_measurement_reflns_used    9930
_cell_measurement_temperature    100(2)
_cell_measurement_theta_max      66.641
_cell_measurement_theta_min      2.971
_cell_volume                     9277.3(5)
_computing_cell_refinement       'SAINT V8.38A (?, 2016)'
_computing_data_reduction        'SAINT V8.38A (?, 2016)'
_computing_molecular_graphics    'Olex2 (Dolomanov et al., 2009)'
_computing_publication_material  'Olex2 (Dolomanov et al., 2009)'
_computing_structure_refinement  'XL (Sheldrick, 2008)'
_diffrn_ambient_temperature      100.0
_diffrn_measured_fraction_theta_full 0.999
_diffrn_measured_fraction_theta_max 0.998
_diffrn_measurement_device_type  'Bruker D8 Venture PHOTON II CPAD'
_diffrn_measurement_method       '\f and \w scans'
_diffrn_radiation_type           CuK\a
_diffrn_radiation_wavelength     1.54178
_diffrn_reflns_av_R_equivalents  0.0941
_diffrn_reflns_av_unetI/netI     0.0382
_diffrn_reflns_Laue_measured_fraction_full 0.999
_diffrn_reflns_Laue_measured_fraction_max 0.998
_diffrn_reflns_limit_h_max       31
_diffrn_reflns_limit_h_min       -31
_diffrn_reflns_limit_k_max       31
_diffrn_reflns_limit_k_min       -31
_diffrn_reflns_limit_l_max       17
_diffrn_reflns_limit_l_min       -17
_diffrn_reflns_number            71805
_diffrn_reflns_point_group_measured_fraction_full 0.999
_diffrn_reflns_point_group_measured_fraction_max 0.998
_diffrn_reflns_theta_full        66.722
_diffrn_reflns_theta_max         66.722
_diffrn_reflns_theta_min         3.527
_diffrn_standards_number         0
_exptl_absorpt_coefficient_mu    1.823
_exptl_absorpt_correction_T_max  1.0000
_exptl_absorpt_correction_T_min  0.8050
_exptl_absorpt_correction_type   multi-scan
_exptl_absorpt_process_details
;
SADABS-2016/2 (Bruker,2016/2) was used for absorption correction.
wR2(int) was 0.1382 before and 0.0924 after correction.
The Ratio of minimum to maximum transmission is 0.8050.
The \l/2 correction factor is Not present.
;
_exptl_crystal_density_diffrn    1.248
_exptl_crystal_description       rods
_exptl_crystal_F_000             3543
_refine_diff_density_max         1.104
_refine_diff_density_min         -0.933
_refine_diff_density_rms         0.109
_refine_ls_extinction_method     none
_refine_ls_goodness_of_fit_ref   1.162
_refine_ls_hydrogen_treatment    constr
_refine_ls_matrix_type           full
_refine_ls_number_parameters     588
_refine_ls_number_reflns         5721
_refine_ls_number_restraints     1362
_refine_ls_restrained_S_all      1.058
_refine_ls_R_factor_all          0.1112
_refine_ls_R_factor_gt           0.1024
_refine_ls_shift/su_max          0.001
_refine_ls_shift/su_mean         0.000
_refine_ls_structure_factor_coef Fsqd
_refine_ls_weighting_details
'w=1/[\s^2^(Fo^2^)+(0.1430P)^2^+27.4051P] where P=(Fo^2^+2Fc^2^)/3'
_refine_ls_weighting_scheme      calc
_refine_ls_wR_factor_gt          0.2904
_refine_ls_wR_factor_ref         0.2974
_reflns_Friedel_coverage         0.000
_reflns_number_gt                4962
_reflns_number_total             5721
_reflns_threshold_expression     'I > 2\s(I)'
_cod_data_source_file            d0dt02050h2.cif
_cod_data_source_block           RWLAA-1
_cod_depositor_comments          'Adding full bibliography for 7705000.cif.'
_cod_original_cell_volume        9277.3(7)
_cod_original_formula_sum        'C325.50 H217.50 N55.50 O55.50 Zn18'
_cod_database_code               7705000
_shelx_shelxl_version_number     2017/1
_shelx_space_group_comment
;
The symmetry employed for this shelxl refinement is uniquely defined
by the following loop, which should always be used as a source of
symmetry information in preference to the above space-group names.
They are only intended as comments.
;
_olex2_refinement_description
;
1. Fixed Uiso
 At 1.2 times of:
  All C(H) groups
 At 1.5 times of:
  All C(H,H,H) groups
2. Restrained distances
 O91-C92 = O56-C57
 1.26 with sigma of 0.02
 N58-C57 = N93-C92
 1.29 with sigma of 0.02
 N93-C95 = N93-C94 = N58-C60 = N58-C59
 1.48 with sigma of 0.02
 H95C-H80
 -2.2 with sigma of 0.02
 O56-N58 = O91-N93
 2.22 with sigma of 0.04
 C57-C60 = C57-C59 = C92-C95 = C92-C94
 2.42 with sigma of 0.04
 C95-C94 = C60-C59
 2.54 with sigma of 0.04
 C79-C76 \\sim C79-C46
 with sigma of 0.02
 C63-C62 \\sim C64-C63 \\sim C65-C64 \\sim C66-C65 \\sim C33-C32 \\sim C34-C33
\\sim C35-C34 \\sim C36-C35
 \\sim C84-C83 \\sim C84-C79 \\sim C80-C79 \\sim C81-C80
 with sigma of 0.02
 N61-C66 \\sim N61-C62 \\sim N31-C36 \\sim N31-C32 \\sim N82-C83 \\sim N82-C81
 with sigma of 0.02
 Zn30-N37 \\sim Zn60-N67 \\sim Zn60-N75 \\sim Zn30-N45 \\sim Zn60-N347 \\sim
Zn30-N55
 with sigma of 0.02
 N55-C47 \\sim N347-C77 \\sim N45-C44 \\sim N75-C74 \\sim N75-C71 \\sim N45-C41
\\sim N67-C68 \\sim N37-C38
 with sigma of 0.02
 C39-C38 \\sim C69-C68 \\sim C42-C41 \\sim C72-C71 \\sim C74-C73 \\sim C44-C43
\\sim C78-C77 \\sim C48-C47
 with sigma of 0.02
 C43-C42 \\sim C73-C72 \\sim C78-C78_$1 \\sim C48-C48_$1 \\sim C69-C69_$1 \\sim
C39-C39_$1
 with sigma of 0.02
 C70-C64 \\sim C40-C34 \\sim C79-C76 \\sim C79-C46
 with sigma of 0.02
3. Restrained planarity
 O56, C57, N58, C60, C59
 with sigma of 0.1
 O91, C92, N93, C95, C94
 with sigma of 0.1
4. Uiso/Uaniso restraints and constraints
Zn30 \\sim N31 \\sim C32 \\sim C33 \\sim C34 \\sim C35 \\sim C36 \\sim N37
\\sim C38 \\sim C39 \\sim C40 \\sim N45 \\sim C41 \\sim C42 \\sim C43 \\sim C44
\\sim C46 \\sim C47 \\sim C48 \\sim N55 \\sim Zn60 \\sim N61 \\sim C62 \\sim
C63 \\sim C64 \\sim C65 \\sim C66 \\sim N67 \\sim C68 \\sim C69 \\sim C70 \\sim
N75 \\sim C74 \\sim C73 \\sim C72 \\sim C71 \\sim C76 \\sim C77 \\sim C78 \\sim
C79 \\sim C80 \\sim C81 \\sim N82 \\sim C83 \\sim C84 \\sim O85 \\sim N347
\\sim O56 \\sim C57 \\sim N58 \\sim C60 \\sim C59 \\sim O92: within 2A with
sigma of 0.04 and sigma for terminal atoms of 0.08
O91 \\sim C92 \\sim N93 \\sim C94 \\sim C95: within 2A with sigma of 0.02 and
sigma for terminal atoms of 0.04
5. Rigid body (RIGU) restrains
 Zn30, N31, C32, C33, C34, C35, C36, N37, C38, C39, C40, N45, C41, C42, C43,
 C44, C46, C47, C48, N55, Zn60, N61, C62, C63, C64, C65, C66, N67, C68, C69,
 C70, N75, C74, C73, C72, C71, C76, C77, C78, C79, C80, C81, N82, C83, C84, O85,
  N347, O56, C57, N58, C60, C59, O92
 with sigma for 1-2 distances of 0.004 and sigma for 1-3 distances of 0.004
 O91, C92, N93, C94, C95
 with sigma for 1-2 distances of 0.002 and sigma for 1-3 distances of 0.002
6. Others
 Fixed Sof: Zn1(0.25) Zn3(0.25) O21(0.25) C22(0.25) O23(0.25) Zn30(0.25)
 N31(0.5) C32(0.5) H32(0.5) C33(0.5) H33(0.5) C34(0.5) C35(0.5) H35(0.5)
 C36(0.5) H36(0.5) N37(0.25) C38(0.5) C39(0.5) H39(0.5) C40(0.5) N45(0.5)
 C41(0.5) C42(0.5) H42(0.5) C43(0.5) H43(0.5) C44(0.5) C46(0.5) C47(0.5)
 C48(0.5) H48(0.5) N55(0.25) O56(0.25) Zn60(0.25) N61(0.5) C62(0.5) H62(0.5)
 C63(0.5) H63(0.5) C64(0.5) C65(0.5) H65(0.5) C66(0.5) H66(0.5) N67(0.25)
 C68(0.5) C69(0.5) H69(0.5) C70(0.5) N75(0.5) C74(0.5) C73(0.5) H73(0.5)
 C72(0.5) H72(0.5) C71(0.5) C76(0.5) C77(0.5) C78(0.5) H78(0.5) O85(0.25)
 C57(0.125) H57(0.125) N58(0.125) C60(0.125) H60A(0.125) H60B(0.125)
 H60C(0.125) C59(0.125) H59C(0.125) H59B(0.125) H59A(0.125) N347(0.25) O91(0.5)
 C92(0.5) H92(0.5) N93(0.5) C94(0.5) H94A(0.5) H94B(0.5) H94C(0.5) C95(0.5)
 H95A(0.5) H95B(0.5) H95C(0.5) O92(0.125)
7.a Me refined with riding coordinates:
 C60(H60A,H60B,H60C), C59(H59C,H59B,H59A), C94(H94A,H94B,H94C), C95(H95A,H95B,
 H95C)
7.b Aromatic/amide H refined with riding coordinates:
 C13(H13), C15(H15), C17(H17), C32(H32), C33(H33), C35(H35), C36(H36),
 C39(H39), C42(H42), C43(H43), C48(H48), C62(H62), C63(H63), C65(H65), C66(H66),
  C69(H69), C73(H73), C72(H72), C78(H78), C80(H80), C81(H81), C83(H83),
 C84(H84), C57(H57), C92(H92)
7.c Fitted pentagon refined as free rotating group:
 N45(C41,C42,C43,C44), N75(C74,C73,C72,C71)
;
_shelx_res_file
;
TITL aa_0220_mom_12_0m_a.res in P6/m
    aa_0220_mom_12_0m_sq.res
    created by SHELXL-2017/1 at 15:08:31 on 19-Nov-2018
REM Old TITL AA_0220_MOM_12_0m in P6/m
REM SHELXT solution in P6/m
REM R1 0.590, Rweak 0.089, Alpha 0.132, Orientation as input
REM Formula found by SHELXT: C165 N25 O27 Zn9
CELL 1.54178 26.8343 26.8343 14.8769 90 90 120
ZERR 1 0.0009 0.0009 0.0005 0 0 0
LATT 1
SYMM -Y,+X-Y,+Z
SYMM +Y-X,-X,+Z
SYMM -X,-Y,+Z
SYMM +Y,-X+Y,+Z
SYMM -Y+X,+X,+Z
SFAC C H N O Zn
UNIT 325.5 217.5 55.5 55.5 18
EQIV $1 +X,+Y,-Z
DFIX 1.26 O91 C92 O56 C57
DFIX 1.29 N58 C57 N93 C92
DFIX 1.48 N93 C95 N93 C94 N58 C60 N58 C59
DFIX -2.2 H95c H80
SADI C79 C76 C79 C46
SADI C63 C62 C64 C63 C65 C64 C66 C65 C33 C32 C34 C33 C35 C34 C36 C35 C84 =
 C83 C84 C79 C80 C79 C81 C80
SADI N61 C66 N61 C62 N31 C36 N31 C32 N82 C83 N82 C81
SADI Zn30 N37 Zn60 N67 Zn60 N75 Zn30 N45 Zn60 N347 Zn30 N55
SADI N55 C47 N347 C77 N45 C44 N75 C74 N75 C71 N45 C41 N67 C68 N37 C38
SADI C39 C38 C69 C68 C42 C41 C72 C71 C74 C73 C44 C43 C78 C77 C48 C47
SADI C43 C42 C73 C72 C78 C78_$1 C48 C48_$1 C69 C69_$1 C39 C39_$1
SADI C70 C64 C40 C34 C79 C76 C79 C46
DANG 2.22 O56 N58 O91 N93
DANG 2.42 C57 C60 C57 C59 C92 C95 C92 C94
DANG 2.54 C95 C94 C60 C59
FLAT O56 C57 N58 C60 C59
FLAT O91 C92 N93 C95 C94
SIMU Zn30 N31 C32 C33 C34 C35 C36 N37 C38 C39 C40 N45 C41 C42 C43 C44 C46 =
 C47 C48 N55 ZN60 N61 C62 C63 C64 C65 C66 N67 C68 C69 C70 N75 C74 C73 C72 =
 C71 C76 C77 C78 C79 C80 C81 N82 C83 C84 O85 N347 O56 C57 N58 C60 C59 O92
SIMU 0.02 0.04 2 O91 C92 N93 C94 C95
RIGU Zn30 N31 C32 C33 C34 C35 C36 N37 C38 C39 C40 N45 C41 C42 C43 C44 C46 =
 C47 C48 N55 ZN60 N61 C62 C63 C64 C65 C66 N67 C68 C69 C70 N75 C74 C73 C72 =
 C71 C76 C77 C78 C79 C80 C81 N82 C83 C84 O85 N347 O56 C57 N58 C60 C59 O92
RIGU 0.002 0.002 O91 C92 N93 C94 C95

L.S. 5 0 14
PLAN  99
TEMP -173.15
BOND $H
ABIN
fmap 2
acta
REM <olex2.extras>
REM <HklSrc "%.\\AA_0220_MOM_12_0m_sq.hkl">
REM </olex2.extras>

WGHT    0.143000   27.405098
FVAR       0.08126
PART 1
ZN1   5    0.990272    0.202031    0.500000    10.25000    0.03099    0.02933 =
         0.05701    0.00000    0.00000    0.01617
PART 0
ZN2   5    1.130084    0.617527    0.500000    10.50000    0.04947    0.03480 =
         0.06202    0.00000    0.00000    0.02163

PART 2
ZN3   5    0.824264    0.017256    0.500000    10.25000    0.06818    0.04275 =
         0.04880    0.00000    0.00000    0.03629

PART 0
O3    4    1.165486    0.569092    0.500000    10.50000    0.05329    0.03272 =
         0.08998    0.00000    0.00000    0.01965
C4    1    1.122542    0.517155    0.500000    10.50000    0.05211    0.03193 =
         0.06058    0.00000    0.00000    0.02554
O5    4    1.072423    0.506765    0.500000    10.50000    0.04798    0.03630 =
         0.07431    0.00000    0.00000    0.02561
O6    4    1.305633    0.506100    0.500000    10.50000    0.04302    0.03978 =
         0.08459    0.00000    0.00000    0.01368
C7    1    1.268179    0.453577    0.500000    10.50000    0.04099    0.04798 =
         0.07606    0.00000    0.00000    0.02118
O8    4    1.277998    0.412735    0.500000    10.50000    0.04057    0.04483 =
         0.10954    0.00000    0.00000    0.01983
O9    4    1.074153    0.269346    0.500000    10.50000    0.05549    0.02785 =
         0.05023    0.00000    0.00000    0.01711
C10   1    1.058717    0.308431    0.500000    10.50000    0.04034    0.03496 =
         0.04372    0.00000    0.00000    0.01338
O11   4    1.007681    0.295798    0.500000    10.50000    0.03853    0.03886 =
         0.06370    0.00000    0.00000    0.01174
C12   1    1.137523    0.470334    0.500000    10.50000    0.03906    0.02509 =
         0.05508    0.00000    0.00000    0.01710
C13   1    1.193613    0.483349    0.500000    10.50000    0.04128    0.02743 =
         0.06554    0.00000    0.00000    0.01013
AFIX  43
H13   2    1.223586    0.522409    0.500000    10.50000   -1.20000
AFIX   0
C14   1    1.206784    0.440057    0.500000    10.50000    0.03846    0.03553 =
         0.07356    0.00000    0.00000    0.01992
C15   1    1.162840    0.382630    0.500000    10.50000    0.03354    0.03461 =
         0.05790    0.00000    0.00000    0.01328
AFIX  43
H15   2    1.171922    0.352653    0.500000    10.50000   -1.20000
AFIX   0
C16   1    1.105614    0.369454    0.500000    10.50000    0.03264    0.03472 =
         0.04683    0.00000    0.00000    0.01789
C17   1    1.093022    0.413915    0.500000    10.50000    0.03471    0.03120 =
         0.04936    0.00000    0.00000    0.01030
AFIX  43
H17   2    1.054178    0.405525    0.500000    10.50000   -1.20000
AFIX   0
O21   4    1.005610    0.136822    0.500000    10.25000    0.07079    0.02414 =
         0.06640    0.00000    0.00000    0.01477
C22   1    0.962337    0.080411    0.500000    10.25000    0.02785    0.05201 =
         0.05632    0.00000    0.00000    0.01062
O23   4    0.910016    0.066938    0.500000    10.25000    0.05360    0.06510 =
         0.10545    0.00000    0.00000    0.03145
C24   1    0.981424    0.040530    0.500000    10.50000    0.04401    0.04800 =
         0.07863    0.00000    0.00000    0.01799
PART 1
ZN30  5    0.726377    0.077305    0.000000    10.25000    0.05530    0.09484 =
         0.05063    0.00000    0.00000    0.02567
N31   3    0.949125    0.189591    0.385521    10.50000    0.03918    0.04554 =
         0.05736   -0.01103   -0.00942    0.02285
C32   1    0.911445    0.208834    0.372406    10.50000    0.03690    0.05568 =
         0.04555   -0.00178    0.00035    0.02433
AFIX  43
H32   2    0.910081    0.234044    0.415904    10.50000   -1.20000
AFIX   0
C33   1    0.874724    0.193541    0.298549    10.50000    0.04095    0.06363 =
         0.05870   -0.00688   -0.01046    0.02925
AFIX  43
H33   2    0.849156    0.208125    0.291800    10.50000   -1.20000
AFIX   0
C34   1    0.876395    0.156629    0.235326    10.50000    0.05142    0.06295 =
         0.05250   -0.00247   -0.00335    0.02684
C35   1    0.917448    0.139981    0.243588    10.50000    0.06418    0.07297 =
         0.05977   -0.01989   -0.01000    0.04033
AFIX  43
H35   2    0.922707    0.118678    0.197254    10.50000   -1.20000
AFIX   0
C36   1    0.950740    0.155116    0.321083    10.50000    0.05505    0.06482 =
         0.05941   -0.01769   -0.00838    0.03793
AFIX  43
H36   2    0.976063    0.140345    0.329116    10.50000   -1.20000
AFIX   0
N37   3    0.814672    0.125912    0.000000    10.25000    0.06073    0.08402 =
         0.04423    0.00000    0.00000    0.02575
C38   1    0.851917    0.150443    0.073445    10.50000    0.06029    0.07186 =
         0.05148   -0.00233   -0.00267    0.02420
C39   1    0.908513    0.190582    0.046568    10.50000    0.06941    0.06819 =
         0.05267    0.00453    0.00241    0.02333
AFIX  43
H39   2    0.940344    0.213157    0.084791    10.50000   -1.20000
AFIX   0
C40   1    0.832234    0.132355    0.161336    10.50000    0.05051    0.07347 =
         0.04864   -0.00523   -0.00099    0.01971
AFIX  56
N45   3    0.729144    0.065572    0.135682    10.50000    0.04706    0.08089 =
         0.05152   -0.00660   -0.00089    0.02403
C41   1    0.779153    0.091967    0.190472    10.50000    0.04584    0.07797 =
         0.04667   -0.00601   -0.00267    0.01282
C42   1    0.762446    0.072327    0.279999    10.50000    0.04332    0.07268 =
         0.04944   -0.00411    0.00442    0.02271
AFIX  43
H42   2    0.787275    0.083079    0.330640    10.50000   -1.20000
AFIX  55
C43   1    0.702112    0.033793    0.280541    10.50000    0.05150    0.06904 =
         0.06022    0.00664    0.00919    0.02143
AFIX  43
H43   2    0.679490    0.014239    0.331608    10.50000   -1.20000
AFIX  55
C44   1    0.681530    0.029618    0.191348    10.50000    0.05712    0.08435 =
         0.06561    0.00389    0.00253    0.02600
AFIX   0
C46   1    0.630283    0.000401    0.160090    10.50000    0.06290
C47   1    0.607669   -0.010395    0.075537    10.50000    0.07003    0.08628 =
         0.04810   -0.00398    0.01231    0.02455
C48   1    0.550173   -0.042552    0.046801    10.50000    0.06966    0.09602 =
         0.06292    0.01104    0.00353    0.03326
AFIX  43
H48   2    0.517240   -0.060971    0.084469    10.50000   -1.20000
AFIX   0
N55   3    0.643793    0.008333    0.000000    10.25000    0.05777    0.09184 =
         0.04498    0.00000    0.00000    0.02107
O56   4    0.711792    0.150494    0.000000    10.25000    0.11917    0.09999 =
         0.10142    0.00000    0.00000    0.05802

PART 0
PART 2
ZN60  5    0.744605    0.072721    0.000000    10.25000    0.05647    0.06786 =
         0.04806    0.00000    0.00000    0.02289

N61   3    0.968614    0.173054    0.388775    10.50000    0.04904    0.06407 =
         0.06316   -0.00413   -0.00008    0.01466
C62   1    0.931900    0.192998    0.376028    10.50000    0.04826    0.06042 =
         0.06332   -0.01321   -0.01073    0.01094
AFIX  43
H62   2    0.931103    0.217568    0.421282    10.50000   -1.20000
AFIX   0

C63   1    0.894841    0.181103    0.302741    10.50000    0.04754    0.08403 =
         0.06568   -0.00915   -0.00626    0.01633
AFIX  43
H63   2    0.871456    0.198237    0.296431    10.50000   -1.20000
AFIX   0

C64   1    0.894476    0.142391    0.239468    10.50000    0.05216    0.08362 =
         0.04994   -0.00616   -0.00455    0.01719
C65   1    0.931872    0.120833    0.250691    10.50000    0.06765    0.10112 =
         0.06113   -0.01436   -0.00830    0.03218
AFIX  43
H65   2    0.931333    0.093721    0.209064    10.50000   -1.20000
AFIX   0

C66   1    0.970132    0.139195    0.323287    10.50000    0.06552    0.08967 =
         0.06663   -0.02116   -0.01122    0.03307
AFIX  43
H66   2    0.998083    0.127396    0.326484    10.50000   -1.20000
AFIX   0

N67   3    0.833057    0.111778    0.000000    10.25000    0.05810    0.08907 =
         0.03596    0.00000    0.00000    0.00635
C68   1    0.870491    0.134562    0.073956    10.50000    0.06296    0.08850 =
         0.05115   -0.01976   -0.00509    0.01634
C69   1    0.928516    0.169566    0.046790    10.50000    0.06765    0.11968 =
         0.06978    0.00462    0.00115    0.01176
AFIX  43
H69   2    0.961056    0.189195    0.084965    10.50000   -1.20000
AFIX   0

C70   1    0.850583    0.120498    0.164575    10.50000    0.05521    0.08486 =
         0.05528   -0.00480   -0.00664    0.01330
AFIX  56
N75   3    0.746655    0.062027    0.136225    10.50000    0.04314    0.07774 =
         0.05561    0.00490    0.00424    0.03020
C74   1    0.698246    0.029549    0.192525    10.50000    0.04152    0.06117 =
         0.04667   -0.00156    0.00225    0.01962
C73   1    0.718216    0.035310    0.282411    10.50000    0.04416    0.04870 =
         0.04506   -0.00141    0.00098    0.01877
AFIX  43
H73   2    0.695007    0.018079    0.333990    10.50000   -1.20000
AFIX  55
C72   1    0.778967    0.071348    0.281664    10.50000    0.05471    0.06284 =
         0.06154   -0.00057   -0.00325    0.02617
AFIX  43
H72   2    0.803537    0.082461    0.332656    10.50000   -1.20000
AFIX  55
C71   1    0.796543    0.087861    0.191316    10.50000    0.05609    0.07847 =
         0.05905   -0.00745   -0.00191    0.01731
AFIX   0

C76   1    0.639317   -0.008334    0.165107    10.50000    0.06318
C77   1    0.620304   -0.016433    0.071006    10.50000    0.06480    0.09039 =
         0.06090    0.00450    0.00998    0.04375
C78   1    0.562114   -0.051000    0.046630    10.50000    0.06635    0.10181 =
         0.04386    0.00179    0.01234    0.04255
AFIX  43
H78   2    0.529887   -0.070144    0.085536    10.50000   -1.20000
AFIX   0

PART 0
C79   1    0.592225   -0.034427    0.236213    11.00000    0.07970    0.07242 =
         0.05418   -0.00147   -0.00202    0.02964
C80   1    0.581244   -0.004922    0.301215    11.00000    0.09024    0.06425 =
         0.05974    0.00185    0.00053    0.03566
AFIX  43
H80   2    0.597913    0.035642    0.296745    11.00000   -1.20000
AFIX   0
C81   1    0.545814   -0.034154    0.373619    11.00000    0.06649    0.06280 =
         0.06089   -0.00589   -0.00392    0.03533
AFIX  43
H81   2    0.538370   -0.012962    0.417472    11.00000   -1.20000
AFIX   0
N82   3    0.522076   -0.090620    0.383485    11.00000    0.05613    0.06362 =
         0.05404   -0.00621    0.00052    0.03492
C83   1    0.531175   -0.120164    0.318485    11.00000    0.07732    0.05791 =
         0.07311   -0.00838    0.00626    0.03026
AFIX  43
H83   2    0.513109   -0.160849    0.323176    11.00000   -1.20000
AFIX   0
C84   1    0.565769   -0.093242    0.245686    11.00000    0.08461    0.07242 =
         0.06526   -0.00872    0.00928    0.03741
AFIX  43
H84   2    0.571493   -0.115424    0.201446    11.00000   -1.20000
AFIX   0

PART 2
O85   4    0.733978    0.145579    0.000000    10.25000    0.11681    0.07865 =
         0.07355    0.00000    0.00000    0.05045

PART 0
PART 1
C57   1    0.756379    0.199883    0.000000    10.12500    0.13888    0.10788 =
         0.13256    0.00000    0.00000    0.04539
AFIX  43
H57   2    0.793657    0.203993    0.000000    10.12500   -1.20000
AFIX   0
N58   3    0.750107    0.244547    0.000000    10.12500    0.13696    0.09858 =
         0.16955    0.00000    0.00000    0.03781
C60   1    0.691992    0.238493    0.000000    10.12500    0.13726    0.11708 =
         0.24510    0.00000    0.00000    0.04386
AFIX  33
H60A  2    0.695734    0.276740    0.000000    10.12500   -1.50000
H60B  2    0.670943    0.217371   -0.053786    10.12500   -1.50000
H60C  2    0.670943    0.217371    0.053786    10.12500   -1.50000
AFIX   0
C59   1    0.799481    0.303578    0.000000    10.12500    0.13905    0.11497 =
         0.21326    0.00000    0.00000    0.01787
AFIX  33
H59C  2    0.785542    0.331077    0.000000    10.12500   -1.50000
H59B  2    0.822889    0.309484    0.053786    10.12500   -1.50000
H59A  2    0.822889    0.309483   -0.053786    10.12500   -1.50000
AFIX   0

PART 0
PART 2
N347  3    0.659506    0.009123    0.000000    10.25000    0.05791    0.07827 =
         0.05055    0.00000    0.00000    0.03769

PART 0
O91   4    0.770243    0.225774    0.236921    10.50000    0.19764    0.18801 =
         0.24671   -0.03573   -0.03931    0.09804
C92   1    0.720450    0.183362    0.235605    10.50000    0.19717    0.15213 =
         0.11998   -0.02436   -0.04960    0.10721
AFIX  43
H92   2    0.711864    0.145005    0.224539    10.50000   -1.20000
AFIX   0
N93   3    0.682382    0.197711    0.250929    10.50000    0.19972    0.16898 =
         0.14754   -0.01277   -0.05026    0.11630
C94   1    0.697763    0.257103    0.277658    10.50000    0.28630    0.19095 =
         0.22834   -0.02455   -0.06634    0.16937
AFIX  33
H94A  2    0.662563    0.259059    0.286117    10.50000   -1.50000
H94B  2    0.719578    0.267234    0.334016    10.50000   -1.50000
H94C  2    0.721287    0.284162    0.230460    10.50000   -1.50000
AFIX   0
C95   1    0.621596    0.153903    0.244286    10.50000    0.19635    0.21045 =
         0.19540    0.04749   -0.04905    0.10309
AFIX  33
H95A  2    0.597850    0.171269    0.257770    10.50000   -1.50000
H95B  2    0.613220    0.138061    0.183243    10.50000   -1.50000
H95C  2    0.612948    0.122997    0.287389    10.50000   -1.50000
AFIX   0

PART 3
O92   4    0.640566    0.146656    0.000000    10.12500    0.16846    0.13649 =
         0.09415    0.00000    0.00000    0.06325
HKLF 4




REM  aa_0220_mom_12_0m_a.res in P6/m
REM R1 =  0.1024 for    4962 Fo > 4sig(Fo)  and  0.1112 for all    5721 data
REM    588 parameters refined using   1362 restraints

END

WGHT      0.1429     27.4389

REM Highest difference peak  1.104,  deepest hole -0.933,  1-sigma level  0.109
Q1    1   1.1159  0.6143  0.4466  11.00000  0.05    1.10
Q2    1   0.9825  0.1946  0.5582  11.00000  0.05    0.86
Q3    1   0.8505  0.2562  0.0000  10.50000  0.05    0.67
Q4    1   0.8121  0.2469  0.0603  11.00000  0.05    0.63
Q5    1   0.8196  0.2580  0.0000  10.50000  0.05    0.56
Q6    1   0.9883  0.1057  0.5000  10.50000  0.05    0.53
Q7    1   0.7752  0.2201  0.1600  11.00000  0.05    0.49
Q8    1   0.7929  0.2527  0.0000  10.50000  0.05    0.49
Q9    1   1.1399  0.5996  0.5000  10.50000  0.05    0.48
Q10   1   0.5842  0.1399  0.0970  11.00000  0.05    0.48
Q11   1   0.5963  0.1218  0.0522  11.00000  0.05    0.47
Q12   1   0.6245  0.2151  0.3140  11.00000  0.05    0.46
Q13   1   0.7640  0.2858  0.1905  11.00000  0.05    0.46
Q14   1   0.9775  0.2162  0.5000  10.50000  0.05    0.46
Q15   1   1.0997  0.3870  0.5000  10.50000  0.05    0.44
Q16   1   1.1321  0.4929  0.5000  10.50000  0.05    0.44
Q17   1   0.7309  0.3072  0.3375  11.00000  0.05    0.43
Q18   1   1.0136  0.2250  0.5000  10.50000  0.05    0.43
Q19   1   0.8292  0.0155  0.4418  11.00000  0.05    0.43
Q20   1   1.1330  0.3713  0.5000  10.50000  0.05    0.43
Q21   1   0.6181  0.1337  0.1332  11.00000  0.05    0.40
Q22   1   0.7051  0.3008  0.3426  11.00000  0.05    0.39
Q23   1   0.7924  0.3080  0.1383  11.00000  0.05    0.39
Q24   1   1.1183  0.4476  0.5000  10.50000  0.05    0.39
Q25   1   0.7854  0.3089  0.1010  11.00000  0.05    0.38
Q26   1   1.0719  0.2926  0.5000  10.50000  0.05    0.37
Q27   1   0.7390  0.0794  0.0715  11.00000  0.05    0.37
Q28   1   1.0376  0.1543  0.5000  10.50000  0.05    0.36
Q29   1   0.9147  0.2444  0.5000  10.50000  0.05    0.35
Q30   1   1.0796  0.3394  0.5000  10.50000  0.05    0.34
Q31   1   0.6397  0.1464  0.2155  11.00000  0.05    0.34
Q32   1   0.8703  0.2518  0.0500  11.00000  0.05    0.34
Q33   1   1.1062  0.5915  0.5000  10.50000  0.05    0.33
Q34   1   0.8864  0.2579  0.0000  10.50000  0.05    0.33
Q35   1   0.9859  0.2303  0.0000  10.50000  0.05    0.33
Q36   1   1.1509  0.6416  0.5000  10.50000  0.05    0.32
Q37   1   0.5356 -0.0386  0.5000  10.50000  0.05    0.32
Q38   1   0.6105  0.0992  0.0000  10.50000  0.05    0.32
Q39   1   1.3125  0.4965  0.5411  11.00000  0.05    0.31
Q40   1   0.6481  0.1801  0.0000  10.50000  0.05    0.31
Q41   1   1.1764  0.4123  0.5000  10.50000  0.05    0.30
Q42   1   1.2483  0.4997  0.5000  10.50000  0.05    0.30
Q43   1   1.1712  0.4796  0.5000  10.50000  0.05    0.30
Q44   1   1.0051  0.2925  0.5511  11.00000  0.05    0.29
Q45   1   0.6354 -0.0277  0.3259  11.00000  0.05    0.29
Q46   1   0.6712  0.1393  0.0000  10.50000  0.05    0.29
Q47   1   0.6310  0.1183  0.1702  11.00000  0.05    0.28
Q48   1   0.7344  0.0277  0.0000  10.50000  0.05    0.28
Q49   1   0.5123 -0.0532  0.2423  11.00000  0.05    0.27
Q50   1   0.5576 -0.0055  0.2432  11.00000  0.05    0.27
Q51   1   0.6007 -0.0437  0.0000  10.50000  0.05    0.27
Q52   1   1.2074  0.4297  0.4600  11.00000  0.05    0.27
Q53   1   0.5878 -0.0406  0.3871  11.00000  0.05    0.27
Q54   1   0.9632  0.3030  0.5000  10.50000  0.05    0.27
Q55   1   0.8194  0.0362  0.0000  10.50000  0.05    0.26
Q56   1   1.3008  0.4776  0.5000  10.50000  0.05    0.26
Q57   1   0.6115  0.0227  0.0000  10.50000  0.05    0.26
Q58   1   0.6078  0.2609  0.3127  11.00000  0.05    0.26
Q59   1   1.2775  0.4063  0.5679  11.00000  0.05    0.25
Q60   1   0.8312  0.4018  0.0000  10.50000  0.05    0.25
Q61   1   0.5860  0.0721  0.1707  11.00000  0.05    0.25
Q62   1   0.9085  0.2312  0.3676  11.00000  0.05    0.25
Q63   1   0.8223  0.2011  0.2466  11.00000  0.05    0.25
Q64   1   1.2478  0.5537  0.5000  10.50000  0.05    0.25
Q65   1   0.6168 -0.0044  0.2994  11.00000  0.05    0.24
Q66   1   1.1723  0.3194  0.5000  10.50000  0.05    0.24
Q67   1   1.2924  0.5176  0.5000  10.50000  0.05    0.24
Q68   1   0.9716  0.1729  0.0000  10.50000  0.05    0.23
Q69   1   0.4957 -0.0685  0.3184  11.00000  0.05    0.23
Q70   1   0.7972  0.3506  0.0411  11.00000  0.05    0.23
Q71   1   1.0339  0.1413  0.0000  10.50000  0.05    0.23
Q72   1   0.6517  0.1221 -0.0596  11.00000  0.05    0.23
Q73   1   0.7414  0.2399  0.2364  11.00000  0.05    0.23
Q74   1   1.1682  0.3680  0.5398  11.00000  0.05    0.22
Q75   1   0.5708 -0.0415  0.5000  10.50000  0.05    0.22
Q76   1   0.9611  0.1927  0.0000  10.50000  0.05    0.22
Q77   1   0.6802  0.1141  0.0000  10.50000  0.05    0.22
Q78   1   0.9207  0.1353  0.0000  10.50000  0.05    0.22
Q79   1   1.1594  0.5676  0.5566  11.00000  0.05    0.22
Q80   1   0.6630  0.0110  0.2549  11.00000  0.05    0.22
Q81   1   0.6935  0.3126  0.0326  11.00000  0.05    0.21
Q82   1   0.9218  0.2412  0.0000  10.50000  0.05    0.21
Q83   1   0.5991 -0.0311  0.2973  11.00000  0.05    0.21
Q84   1   0.8720  0.0917  0.0000  10.50000  0.05    0.21
Q85   1   0.6987  0.1232  0.2698  11.00000  0.05    0.21
Q86   1   1.0000  0.0000  0.2657  10.16667  0.05    0.21
Q87   1   0.5000  0.0000  0.5000  10.25000  0.05    0.21
Q88   1   0.7760  0.2619  0.1188  11.00000  0.05    0.21
Q89   1   1.0237  0.3245  0.5715  11.00000  0.05    0.21
Q90   1   0.5463  0.0158  0.0269  11.00000  0.05    0.20
Q91   1   0.9199  0.1938  0.0000  10.50000  0.05    0.20
Q92   1   0.5254 -0.0687  0.3757  11.00000  0.05    0.19
Q93   1   0.5762  0.0994  0.1521  11.00000  0.05    0.19
Q94   1   0.7009  0.0797  0.2822  11.00000  0.05    0.19
Q95   1   0.8834  0.1815  0.2516  11.00000  0.05    0.19
Q96   1   0.8389  0.0605  0.1801  11.00000  0.05    0.19
Q97   1   0.9004  0.1159  0.5000  10.50000  0.05    0.19
Q98   1   0.9363  0.2160  0.5000  10.50000  0.05    0.19
Q99   1   0.9431  0.1929  0.2205  11.00000  0.05    0.19
;
_shelx_res_checksum              82361
_shelx_fab_file
;
    0    2    0     33.18      0.00
   -2    3    0     11.08      0.00
   -1    3    0     18.65      0.00
    0    3    0     67.78      0.00
   -3    4    0      1.84      0.00
   -2    4    0     47.83      0.00
    0    4    0    -12.09      0.00
   -4    5    0     20.12      0.00
   -3    5    0    -24.93      0.00
   -2    5    0     -5.93      0.00
   -1    5    0     14.32      0.00
    0    5    0    -15.24      0.00
   -5    6    0    -19.21      0.00
   -4    6    0     -0.25      0.00
   -3    6    0      6.02      0.00
   -2    6    0    -33.53      0.00
   -1    6    0    -17.09      0.00
    0    6    0      8.60      0.00
   -6    7    0     -1.11      0.00
   -5    7    0     11.88      0.00
   -4    7    0    -26.40      0.00
   -3    7    0     -7.71      0.00
   -2    7    0     -4.53      0.00
   -1    7    0    -23.69      0.00
    0    7    0    -14.46      0.00
   -7    8    0     16.12      0.00
   -6    8    0    -10.79      0.00
   -5    8    0      4.09      0.00
   -4    8    0     -1.74      0.00
   -3    8    0    -29.93      0.00
   -2    8    0    -16.78      0.00
   -1    8    0      3.91      0.00
    0    8    0     -9.95      0.00
   -8    9    0     -8.72      0.00
   -7    9    0      2.05      0.00
   -6    9    0      9.70      0.00
   -5    9    0    -15.46      0.00
   -4    9    0     -8.63      0.00
   -3    9    0     -6.98      0.00
   -2    9    0    -21.01      0.00
   -1    9    0    -14.18      0.00
    0    9    0     10.77      0.00
   -9   10    0     -6.05      0.00
   -8   10    0     11.26      0.00
   -7   10    0     -6.44      0.00
   -6   10    0     -1.62      0.00
   -5   10    0     -4.38      0.00
   -4   10    0    -15.37      0.00
   -3   10    0    -13.25      0.00
   -2   10    0      1.41      0.00
   -1   10    0    -10.84      0.00
    0   10    0     -8.59      0.00
  -10   11    0      5.65      0.00
   -9   11    0     -7.20      0.00
   -8   11    0     -2.28      0.00
   -7   11    0      0.54      0.00
   -6   11    0     -6.01      0.00
   -5   11    0     -7.58      0.00
   -4   11    0     -4.27      0.00
   -3   11    0     -7.63      0.00
   -2   11    0     -6.43      0.00
   -1   11    0      4.94      0.00
    0   11    0     -6.02      0.00
  -11   12    0     -5.08      0.00
  -10   12    0     -3.04      0.00
   -9   12    0      1.07      0.00
   -8   12    0     -4.73      0.00
   -7   12    0     -3.34      0.00
   -6   12    0     -4.68      0.00
   -5   12    0     -1.11      0.00
   -4   12    0     -2.90      0.00
   -3   12    0      2.75      0.00
   -2   12    0     -3.39      0.00
   -1   12    0     -0.84      0.00
    0   12    0      0.98      0.00
  -12   13    0     -2.98      0.00
  -11   13    0     -0.25      0.00
  -10   13    0     -5.46      0.00
   -9   13    0      0.20      0.00
   -8   13    0     -3.37      0.00
   -7   13    0     -0.55      0.00
   -6   13    0     -1.31      0.00
   -5   13    0      0.95      0.00
   -4   13    0      2.47      0.00
   -3   13    0      3.96      0.00
   -2   13    0      2.61      0.00
   -1   13    0     -3.93      0.00
    0   13    0     -0.06      0.00
  -13   14    0     -0.61      0.00
  -12   14    0     -3.50      0.00
  -11   14    0      1.63      0.00
  -10   14    0     -1.78      0.00
   -9   14    0     -2.94      0.00
   -8   14    0      0.67      0.00
   -7   14    0     -0.36      0.00
   -6   14    0      3.04      0.00
   -5   14    0      4.04      0.00
   -4   14    0      4.90      0.00
   -3   14    0     -0.11      0.00
   -2   14    0      4.76      0.00
   -1   14    0     -0.34      0.00
    0   14    0     -4.17      0.00
  -14   15    0     -1.09      0.00
  -13   15    0     -1.30      0.00
  -12   15    0     -0.48      0.00
  -11   15    0     -3.26      0.00
  -10   15    0      2.92      0.00
   -9   15    0     -0.37      0.00
   -8   15    0     -0.31      0.00
   -7   15    0      1.46      0.00
   -6   15    0      5.64      0.00
   -5   15    0      2.45      0.00
   -4   15    0      6.29      0.00
   -3   15    0      2.56      0.00
   -2   15    0     -3.49      0.00
   -1   15    0      1.94      0.00
    0   15    0      0.66      0.00
  -15   16    0     -4.06      0.00
  -14   16    0      1.53      0.00
  -13   16    0     -2.20      0.00
  -12   16    0      0.81      0.00
  -11   16    0      0.22      0.00
  -10   16    0     -1.29      0.00
   -9   16    0      0.81      0.00
   -8   16    0      4.56      0.00
   -7   16    0      0.66      0.00
   -6   16    0      3.23      0.00
   -5   16    0      6.79      0.00
   -4   16    0     -0.15      0.00
   -3   16    0      3.94      0.00
   -2   16    0      0.25      0.00
   -1   16    0     -4.10      0.00
    0   16    0     -0.23      0.00
  -16   17    0      2.85      0.00
  -15   17    0     -1.24      0.00
  -14   17    0     -3.63      0.00
  -13   17    0      1.11      0.00
  -12   17    0     -0.26      0.00
  -11   17    0     -0.11      0.00
  -10   17    0      3.08      0.00
   -9   17    0     -0.21      0.00
   -8   17    0     -0.20      0.00
   -7   17    0      8.13      0.00
   -6   17    0      0.97      0.00
   -5   17    0      3.59      0.00
   -4   17    0      3.26      0.00
   -3   17    0     -1.65      0.00
   -2   17    0      0.22      0.00
   -1   17    0      0.48      0.00
    0   17    0     -3.60      0.00
  -17   18    0     -0.69      0.00
  -16   18    0     -4.72      0.00
  -15   18    0      2.33      0.00
  -14   18    0     -0.19      0.00
  -13   18    0     -3.53      0.00
  -12   18    0      1.97      0.00
  -11   18    0      1.98      0.00
  -10   18    0     -1.71      0.00
   -9   18    0      6.07      0.00
   -8   18    0      0.37      0.00
   -7   18    0      1.35      0.00
   -6   18    0      6.76      0.00
   -5   18    0      1.20      0.00
   -4   18    0      0.99      0.00
   -3   18    0     -0.46      0.00
   -2   18    0     -2.25      0.00
   -1   18    0     -1.34      0.00
    0   18    0      0.60      0.00
  -18   19    0     -2.76      0.00
  -17   19    0      1.98      0.00
  -16   19    0     -0.59      0.00
  -15   19    0     -5.58      0.00
  -14   19    0      1.59      0.00
  -13   19    0      2.90      0.00
  -12   19    0     -3.27      0.00
  -11   19    0      3.46      0.00
  -10   19    0      1.80      0.00
   -9   19    0     -0.84      0.00
   -8   19    0      6.33      0.00
   -7   19    0      1.69      0.00
   -6   19    0      2.00      0.00
   -5   19    0      1.92      0.00
   -4   19    0      0.13      0.00
   -3   19    0     -1.85      0.00
   -2   19    0     -1.96      0.00
   -1   19    0     -2.36      0.00
    0   19    0     -0.01      0.00
  -19   20    0     -0.05      0.00
  -18   20    0      0.58      0.00
  -17   20    0     -3.57      0.00
  -16   20    0      1.47      0.00
  -15   20    0      0.89      0.00
  -14   20    0     -4.72      0.00
  -13   20    0      2.14      0.00
  -12   20    0      3.73      0.00
  -11   20    0     -2.44      0.00
  -10   20    0      3.22      0.00
   -9   20    0      1.26      0.00
   -8   20    0      1.92      0.00
   -7   20    0      3.66      0.00
   -6   20    0      1.90      0.00
   -5   20    0     -0.02      0.00
   -4   20    0     -1.78      0.00
   -3   20    0     -1.53      0.00
   -2   20    0     -1.55      0.00
   -1   20    0     -1.98      0.00
    0   20    0     -1.56      0.00
  -20   21    0      2.50      0.00
  -19   21    0     -0.58      0.00
  -18   21    0      1.15      0.00
  -17   21    0     -0.12      0.00
  -16   21    0     -3.44      0.00
  -15   21    0      1.84      0.00
  -14   21    0      2.44      0.00
  -13   21    0     -3.42      0.00
  -12   21    0      1.36      0.00
  -11   21    0      1.48      0.00
  -10   21    0      0.05      0.00
   -9   21    0      2.12      0.00
   -8   21    0      1.86      0.00
   -7   21    0      2.76      0.00
   -6   21    0      0.55      0.00
   -5   21    0      0.01      0.00
   -4   21    0     -1.33      0.00
   -3   21    0     -2.30      0.00
   -2   21    0     -2.22      0.00
   -1   21    0      0.87      0.00
    0   21    0     -1.04      0.00
  -21   22    0      0.30      0.00
  -20   22    0      0.93      0.00
  -19   22    0      1.79      0.00
  -18   22    0     -0.39      0.00
  -17   22    0      1.91      0.00
  -16   22    0     -0.20      0.00
  -15   22    0     -2.40      0.00
  -14   22    0      1.76      0.00
  -13   22    0      0.73      0.00
  -12   22    0     -2.49      0.00
  -11   22    0     -0.14      0.00
  -10   22    0      0.70      0.00
   -9   22    0      3.03      0.00
   -8   22    0      1.47      0.00
   -7   22    0      1.30      0.00
   -6   22    0      1.34      0.00
   -5   22    0     -0.26      0.00
   -4   22    0     -1.84      0.00
   -3   22    0     -0.51      0.00
   -2   22    0     -1.73      0.00
   -1   22    0     -1.42      0.00
    0   22    0      2.96      0.00
  -22   23    0      1.25      0.00
  -21   23    0      3.51      0.00
  -20   23    0      0.82      0.00
  -19   23    0      2.07      0.00
  -18   23    0     -0.38      0.00
  -17   23    0      0.17      0.00
  -16   23    0      2.73      0.00
  -15   23    0     -1.04      0.00
  -14   23    0     -2.78      0.00
  -13   23    0     -0.09      0.00
  -12   23    0     -1.30      0.00
  -11   23    0     -0.28      0.00
  -10   23    0      0.35      0.00
   -9   23    0      1.57      0.00
   -8   23    0      3.44      0.00
   -7   23    0      1.46      0.00
   -6   23    0     -0.70      0.00
   -5   23    0      0.36      0.00
   -4   23    0      0.12      0.00
   -3   23    0     -2.17      0.00
   -2   23    0      0.48      0.00
   -1   23    0     -0.62      0.00
    0   23    0      0.57      0.00
  -23   24    0      3.24      0.00
  -22   24    0      0.70      0.00
  -21   24    0      2.54      0.00
  -20   24    0      1.06      0.00
  -19   24    0      0.81      0.00
  -18   24    0      2.57      0.00
  -17   24    0     -1.67      0.00
  -16   24    0     -0.15      0.00
  -15   24    0      1.88      0.00
  -14   24    0     -3.04      0.00
  -13   24    0     -3.45      0.00
  -12   24    0     -0.53      0.00
  -11   24    0      0.01      0.00
  -10   24    0      1.84      0.00
   -9   24    0      1.55      0.00
   -8   24    0      0.75      0.00
   -7   24    0      1.92      0.00
   -6   24    0      1.77      0.00
   -5   24    0     -1.92      0.00
   -4   24    0     -0.17      0.00
   -3   24    0     -0.26      0.00
   -2   24    0     -0.49      0.00
   -1   24    0      1.38      0.00
    0   24    0      1.58      0.00
  -24   25    0      1.88      0.00
  -23   25    0      3.39      0.00
  -22   25    0      2.02      0.00
  -21   25    0     -0.54      0.00
  -20   25    0      1.75      0.00
  -19   25    0     -1.35      0.00
  -18   25    0      1.23      0.00
  -17   25    0      2.72      0.00
  -16   25    0     -2.68      0.00
  -15   25    0     -2.35      0.00
  -14   25    0      0.43      0.00
  -13   25    0     -2.65      0.00
  -12   25    0     -2.27      0.00
  -11   25    0      0.96      0.00
  -10   25    0      1.45      0.00
   -9   25    0      1.59      0.00
   -8   25    0      1.53      0.00
   -7   25    0     -1.08      0.00
   -6   25    0      0.68      0.00
   -5   25    0      1.12      0.00
   -4   25    0     -1.25      0.00
   -3   25    0     -0.64      0.00
   -2   25    0     -0.03      0.00
   -1   25    0      2.05      0.00
    0   25    0      2.07      0.00
  -25   26    0      2.81      0.00
  -24   26    0      2.38      0.00
  -23   26    0      0.04      0.00
  -22   26    0      2.39      0.00
  -21   26    0     -1.07      0.00
  -20   26    0     -0.79      0.00
  -19   26    0      1.08      0.00
  -18   26    0     -1.47      0.00
  -17   26    0      0.66      0.00
  -16   26    0      1.86      0.00
  -15   26    0     -3.24      0.00
  -14   26    0     -3.85      0.00
  -13   26    0      0.86      0.00
  -12   26    0      0.04      0.00
  -11   26    0     -1.06      0.00
  -10   26    0      1.04      0.00
   -9   26    0      0.34      0.00
   -8   26    0      0.58      0.00
   -7   26    0      0.62      0.00
   -6   26    0     -1.55      0.00
   -5   26    0     -0.35      0.00
   -4   26    0     -0.02      0.00
   -3   26    0      0.89      0.00
   -2   26    0     -0.17      0.00
   -1   26    0      0.84      0.00
    0   26    0      2.48      0.00
  -26   27    0      1.60      0.00
  -25   27    0      1.82      0.00
  -24   27    0      3.48      0.00
  -23   27    0      0.00      0.00
  -22   27    0     -1.67      0.00
  -21   27    0      0.11      0.00
  -20   27    0     -1.57      0.00
  -19   27    0      0.39      0.00
  -18   27    0      1.05      0.00
  -17   27    0     -1.28      0.00
  -16   27    0     -1.32      0.00
  -15   27    0      1.28      0.00
  -14   27    0     -1.95      0.00
  -13   27    0     -3.33      0.00
  -12   27    0      1.39      0.00
  -11   27    0      1.06      0.00
  -10   27    0     -0.95      0.00
   -9   27    0     -0.58      0.00
   -8   27    0     -1.09      0.00
   -7   27    0      0.16      0.00
   -6   27    0     -0.47      0.00
   -5   27    0     -0.54      0.00
   -4   27    0     -0.97      0.00
   -3   27    0     -0.22      0.00
   -2   27    0      1.98      0.00
   -1   27    0      0.35      0.00
    0   27    0      0.44      0.00
  -27   28    0      1.06      0.00
  -26   28    0      1.92      0.00
  -25   28    0      1.01      0.00
  -24   28    0      0.63      0.00
  -23   28    0      1.78      0.00
  -22   28    0     -1.56      0.00
  -21   28    0     -1.31      0.00
  -20   28    0     -0.82      0.00
  -19   28    0     -0.15      0.00
  -18   28    0      0.60      0.00
  -17   28    0      0.82      0.00
  -16   28    0     -1.67      0.00
  -15   28    0     -2.50      0.00
  -14   28    0      1.64      0.00
  -13   28    0     -0.17      0.00
  -12   28    0     -2.44      0.00
  -11   28    0      0.05      0.00
  -10   28    0      0.19      0.00
   -9   28    0     -0.62      0.00
   -8   28    0     -1.90      0.00
   -7   28    0     -1.39      0.00
   -6   28    0     -0.44      0.00
   -5   28    0     -0.78      0.00
   -4   28    0      0.50      0.00
   -3   28    0     -0.86      0.00
   -2   28    0     -0.43      0.00
   -1   28    0      0.59      0.00
  -26   29    0      1.59      0.00
  -25   29    0      2.46      0.00
  -24   29    0     -0.40      0.00
  -23   29    0      0.01      0.00
  -22   29    0     -0.19      0.00
  -21   29    0     -0.59      0.00
  -20   29    0     -0.27      0.00
  -19   29    0     -0.81      0.00
  -18   29    0     -0.14      0.00
  -17   29    0     -0.37      0.00
  -16   29    0      0.90      0.00
  -15   29    0     -1.58      0.00
  -14   29    0     -2.28      0.00
  -13   29    0      1.40      0.00
  -12   29    0      0.49      0.00
  -11   29    0     -1.65      0.00
  -10   29    0     -1.64      0.00
   -9   29    0     -0.63      0.00
   -8   29    0     -0.43      0.00
   -7   29    0     -2.08      0.00
   -6   29    0     -1.16      0.00
   -5   29    0     -0.93      0.00
   -4   29    0     -0.32      0.00
   -3   29    0      0.14      0.00
  -24   30    0      1.49      0.00
  -23   30    0     -0.60      0.00
  -22   30    0     -0.18      0.00
  -21   30    0     -1.12      0.00
  -20   30    0      0.25      0.00
  -19   30    0     -0.22      0.00
  -18   30    0     -0.60      0.00
  -17   30    0     -1.27      0.00
  -16   30    0     -0.78      0.00
  -15   30    0      1.36      0.00
  -14   30    0     -0.84      0.00
  -13   30    0     -1.74      0.00
  -12   30    0      0.40      0.00
  -11   30    0      0.66      0.00
  -10   30    0     -0.92      0.00
   -9   30    0     -2.27      0.00
   -8   30    0     -1.25      0.00
   -7   30    0     -0.89      0.00
   -6   30    0     -1.06      0.00
  -22   31    0     -0.06      0.00
  -21   31    0     -0.70      0.00
  -20   31    0     -1.26      0.00
  -19   31    0     -0.37      0.00
  -18   31    0     -0.17      0.00
  -17   31    0      0.15      0.00
  -16   31    0     -1.56      0.00
  -15   31    0     -0.69      0.00
  -14   31    0      1.46      0.00
  -13   31    0      0.28      0.00
  -12   31    0     -1.20      0.00
  -11   31    0     -0.26      0.00
  -10   31    0      0.50      0.00
   -9   31    0     -0.93      0.00
    0    1    1     65.56      0.00
    0    2    1     42.22      0.00
   -2    3    1     24.10      0.00
   -1    3    1     27.00      0.00
    0    3    1    -18.03      0.00
   -3    4    1      9.38      0.00
   -2    4    1    -26.79      0.00
   -1    4    1      2.95      0.00
    0    4    1      1.83      0.00
   -4    5    1    -29.57      0.00
   -3    5    1     -4.07      0.00
   -2    5    1      0.13      0.00
   -1    5    1    -35.05      0.00
    0    5    1     -3.84      0.00
   -5    6    1      1.16      0.00
   -4    6    1      2.92      0.00
   -3    6    1    -30.93      0.00
   -2    6    1    -12.16      0.00
   -1    6    1     -5.82      0.00
    0    6    1    -17.43      0.00
   -6    7    1      4.82      0.00
   -5    7    1    -10.06      0.00
   -4    7    1     -1.46      0.00
   -3    7    1     -4.90      0.00
   -2    7    1    -25.73      0.00
   -1    7    1     -7.77      0.00
    0    7    1      2.15      0.00
   -7    8    1      4.89      0.00
   -6    8    1     11.32      0.00
   -5    8    1      4.05      0.00
   -4    8    1    -14.37      0.00
   -3    8    1     -7.53      0.00
   -2    8    1     -9.02      0.00
   -1    8    1     -7.02      0.00
    0    8    1     -0.58      0.00
   -8    9    1      7.97      0.00
   -7    9    1      4.13      0.00
   -6    9    1      3.39      0.00
   -5    9    1      6.63      0.00
   -4    9    1     -7.73      0.00
   -3    9    1    -12.87      0.00
   -2    9    1     -5.26      0.00
   -1    9    1     -3.02      0.00
    0    9    1      4.90      0.00
   -9   10    1     -1.28      0.00
   -8   10    1      7.70      0.00
   -7   10    1     11.65      0.00
   -6   10    1     -2.88      0.00
   -5   10    1     -5.69      0.00
   -4   10    1      1.66      0.00
   -3   10    1     -9.23      0.00
   -2   10    1     -2.73      0.00
   -1   10    1     -1.41      0.00
    0   10    1      1.78      0.00
  -10   11    1      2.63      0.00
   -9   11    1      5.78      0.00
   -8   11    1     -2.41      0.00
   -7   11    1      0.78      0.00
   -6   11    1      8.74      0.00
   -5   11    1     -8.31      0.00
   -4   11    1     -5.12      0.00
   -3   11    1      3.24      0.00
   -2   11    1     -1.60      0.00
   -1   11    1      0.89      0.00
    0   11    1     -0.72      0.00
  -11   12    1      2.30      0.00
  -10   12    1     -1.18      0.00
   -9   12    1      0.63      0.00
   -8   12    1      6.97      0.00
   -7   12    1     -5.45      0.00
   -6   12    1     -3.71      0.00
   -5   12    1      8.36      0.00
   -4   12    1     -2.88      0.00
   -3   12    1     -0.50      0.00
   -2   12    1      3.28      0.00
   -1   12    1      2.83      0.00
    0   12    1     -2.58      0.00
  -12   13    1      0.94      0.00
  -11   13    1     -2.12      0.00
  -10   13    1      2.97      0.00
   -9   13    1     -0.92      0.00
   -8   13    1     -2.68      0.00
   -7   13    1      7.18      0.00
   -6   13    1     -3.37      0.00
   -5   13    1     -1.19      0.00
   -4   13    1      8.01      0.00
   -3   13    1      3.63      0.00
   -2   13    1     -2.10      0.00
   -1   13    1      0.98      0.00
    0   13    1      2.80      0.00
  -13   14    1     -3.92      0.00
  -12   14    1      1.63      0.00
  -11   14    1      3.23      0.00
  -10   14    1     -2.43      0.00
   -9   14    1      3.32      0.00
   -8   14    1     -1.07      0.00
   -7   14    1     -2.07      0.00
   -6   14    1      7.09      0.00
   -5   14    1      2.09      0.00
   -4   14    1     -0.39      0.00
   -3   14    1      3.83      0.00
   -2   14    1      4.37      0.00
   -1   14    1     -4.82      0.00
    0   14    1      0.92      0.00
  -14   15    1      1.69      0.00
  -13   15    1      3.51      0.00
  -12   15    1     -2.68      0.00
  -11   15    1      1.37      0.00
  -10   15    1      3.45      0.00
   -9   15    1     -2.16      0.00
   -8   15    1      2.78      0.00
   -7   15    1      0.23      0.00
   -6   15    1      0.21      0.00
   -5   15    1      4.70      0.00
   -4   15    1      4.46      0.00
   -3   15    1     -3.21      0.00
   -2   15    1      0.41      0.00
   -1   15    1      2.61      0.00
    0   15    1     -3.05      0.00
  -15   16    1      2.06      0.00
  -14   16    1     -1.86      0.00
  -13   16    1      0.92      0.00
  -12   16    1      4.84      0.00
  -11   16    1     -1.95      0.00
  -10   16    1      0.88      0.00
   -9   16    1      1.75      0.00
   -8   16    1     -0.29      0.00
   -7   16    1      1.67      0.00
   -6   16    1      2.29      0.00
   -5   16    1      0.02      0.00
   -4   16    1      1.75      0.00
   -3   16    1      3.09      0.00
   -2   16    1     -3.97      0.00
   -1   16    1      0.41      0.00
    0   16    1      1.29      0.00
  -16   17    1     -0.29      0.00
  -15   17    1      0.82      0.00
  -14   17    1      2.80      0.00
  -13   17    1     -1.79      0.00
  -12   17    1      1.04      0.00
  -11   17    1      3.88      0.00
  -10   17    1     -0.63      0.00
   -9   17    1     -0.23      0.00
   -8   17    1      1.01      0.00
   -7   17    1      1.40      0.00
   -6   17    1      1.28      0.00
   -5   17    1      2.92      0.00
   -4   17    1     -1.70      0.00
   -3   17    1      0.57      0.00
   -2   17    1      0.74      0.00
   -1   17    1     -1.88      0.00
    0   17    1      1.14      0.00
  -17   18    1      0.35      0.00
  -16   18    1      1.24      0.00
  -15   18    1     -0.94      0.00
  -14   18    1      0.71      0.00
  -13   18    1      2.79      0.00
  -12   18    1     -1.02      0.00
  -11   18    1      1.12      0.00
  -10   18    1      2.13      0.00
   -9   18    1      0.77      0.00
   -8   18    1     -0.50      0.00
   -7   18    1      2.00      0.00
   -6   18    1      1.30      0.00
   -5   18    1      1.55      0.00
   -4   18    1      1.02      0.00
   -3   18    1     -2.52      0.00
   -2   18    1      0.49      0.00
   -1   18    1     -0.62      0.00
    0   18    1     -0.43      0.00
  -18   19    1      1.00      0.00
  -17   19    1     -0.30      0.00
  -16   19    1      0.06      0.00
  -15   19    1      0.56      0.00
  -14   19    1     -1.48      0.00
  -13   19    1      2.01      0.00
  -12   19    1      2.64      0.00
  -11   19    1     -0.11      0.00
  -10   19    1      0.07      0.00
   -9   19    1      1.70      0.00
   -8   19    1      1.45      0.00
   -7   19    1      0.89      0.00
   -6   19    1      2.08      0.00
   -5   19    1     -0.41      0.00
   -4   19    1      1.04      0.00
   -3   19    1     -1.45      0.00
   -2   19    1     -1.94      0.00
   -1   19    1      0.52      0.00
    0   19    1     -0.40      0.00
  -19   20    1     -0.53      0.00
  -18   20    1      0.41      0.00
  -17   20    1      0.35      0.00
  -16   20    1     -1.43      0.00
  -15   20    1      0.70      0.00
  -14   20    1      1.11      0.00
  -13   20    1     -0.76      0.00
  -12   20    1      2.01      0.00
  -11   20    1      2.01      0.00
  -10   20    1     -0.26      0.00
   -9   20    1     -0.18      0.00
   -8   20    1      2.60      0.00
   -7   20    1      1.11      0.00
   -6   20    1      1.70      0.00
   -5   20    1     -0.06      0.00
   -4   20    1     -1.56      0.00
   -3   20    1      0.18      0.00
   -2   20    1     -1.86      0.00
   -1   20    1     -1.16      0.00
    0   20    1      0.75      0.00
  -20   21    1      1.25      0.00
  -19   21    1      1.29      0.00
  -18   21    1     -0.78      0.00
  -17   21    1      0.01      0.00
  -16   21    1      0.18      0.00
  -15   21    1     -1.20      0.00
  -14   21    1      1.86      0.00
  -13   21    1      1.51      0.00
  -12   21    1     -1.33      0.00
  -11   21    1      0.15      0.00
  -10   21    1      2.11      0.00
   -9   21    1     -0.11      0.00
   -8   21    1      1.13      0.00
   -7   21    1      2.33      0.00
   -6   21    1      0.30      0.00
   -5   21    1      0.87      0.00
   -4   21    1     -1.65      0.00
   -3   21    1     -1.07      0.00
   -2   21    1     -0.10      0.00
   -1   21    1     -0.52      0.00
    0   21    1     -0.58      0.00
  -21   22    1      1.35      0.00
  -20   22    1     -0.14      0.00
  -19   22    1      1.27      0.00
  -18   22    1      0.96      0.00
  -17   22    1     -0.96      0.00
  -16   22    1      0.46      0.00
  -15   22    1      0.86      0.00
  -14   22    1     -1.19      0.00
  -13   22    1      0.59      0.00
  -12   22    1      0.81      0.00
  -11   22    1     -2.22      0.00
  -10   22    1      0.04      0.00
   -9   22    1      3.15      0.00
   -8   22    1      0.74      0.00
   -7   22    1      1.55      0.00
   -6   22    1      0.67      0.00
   -5   22    1      0.45      0.00
   -4   22    1     -0.02      0.00
   -3   22    1     -1.39      0.00
   -2   22    1     -0.53      0.00
   -1   22    1      0.38      0.00
    0   22    1      1.23      0.00
  -22   23    1      0.33      0.00
  -21   23    1      2.29      0.00
  -20   23    1      1.31      0.00
  -19   23    1     -0.37      0.00
  -18   23    1      0.41      0.00
  -17   23    1      1.11      0.00
  -16   23    1     -0.49      0.00
  -15   23    1      0.35      0.00
  -14   23    1      0.06      0.00
  -13   23    1     -2.77      0.00
  -12   23    1     -0.96      0.00
  -11   23    1      1.30      0.00
  -10   23    1     -0.91      0.00
   -9   23    1      1.47      0.00
   -8   23    1      2.89      0.00
   -7   23    1      1.46      0.00
   -6   23    1      0.63      0.00
   -5   23    1     -0.29      0.00
   -4   23    1      0.92      0.00
   -3   23    1     -0.17      0.00
   -2   23    1     -0.55      0.00
   -1   23    1     -0.13      0.00
    0   23    1      1.57      0.00
  -23   24    1      2.25      0.00
  -22   24    1      1.12      0.00
  -21   24    1      0.12      0.00
  -20   24    1      1.05      0.00
  -19   24    1      0.71      0.00
  -18   24    1     -0.40      0.00
  -17   24    1      0.33      0.00
  -16   24    1      0.86      0.00
  -15   24    1     -1.35      0.00
  -14   24    1     -1.21      0.00
  -13   24    1     -1.10      0.00
  -12   24    1     -2.80      0.00
  -11   24    1      0.25      0.00
  -10   24    1      2.53      0.00
   -9   24    1      0.83      0.00
   -8   24    1      1.27      0.00
   -7   24    1      1.47      0.00
   -6   24    1      1.84      0.00
   -5   24    1     -0.09      0.00
   -4   24    1     -0.55      0.00
   -3   24    1      0.51      0.00
   -2   24    1      0.81      0.00
   -1   24    1      0.75      0.00
    0   24    1      0.81      0.00
  -24   25    1      1.95      0.00
  -23   25    1      0.95      0.00
  -22   25    1      1.48      0.00
  -21   25    1     -0.51      0.00
  -20   25    1     -1.13      0.00
  -19   25    1      0.04      0.00
  -18   25    1      0.93      0.00
  -17   25    1     -0.17      0.00
  -16   25    1     -0.05      0.00
  -15   25    1     -0.87      0.00
  -14   25    1     -2.67      0.00
  -13   25    1     -1.27      0.00
  -12   25    1     -0.23      0.00
  -11   25    1     -0.87      0.00
  -10   25    1      1.38      0.00
   -9   25    1      2.12      0.00
   -8   25    1      1.07      0.00
   -7   25    1     -0.04      0.00
   -6   25    1      0.57      0.00
   -5   25    1      1.45      0.00
   -4   25    1      0.20      0.00
   -3   25    1     -0.38      0.00
   -2   25    1      0.42      0.00
   -1   25    1      2.35      0.00
    0   25    1      1.84      0.00
  -25   26    1      1.12      0.00
  -24   26    1      1.99      0.00
  -23   26    1      0.05      0.00
  -22   26    1     -0.73      0.00
  -21   26    1     -0.50      0.00
  -20   26    1     -1.13      0.00
  -19   26    1     -1.22      0.00
  -18   26    1      0.71      0.00
  -17   26    1      0.75      0.00
  -16   26    1     -0.88      0.00
  -15   26    1     -0.87      0.00
  -14   26    1     -1.82      0.00
  -13   26    1     -2.06      0.00
  -12   26    1      0.31      0.00
  -11   26    1      0.89      0.00
  -10   26    1     -0.22      0.00
   -9   26    1      0.22      0.00
   -8   26    1      1.07      0.00
   -7   26    1      0.61      0.00
   -6   26    1     -0.49      0.00
   -5   26    1      0.19      0.00
   -4   26    1      0.74      0.00
   -3   26    1      1.44      0.00
   -2   26    1      0.51      0.00
   -1   26    1      0.58      0.00
    0   26    1      2.16      0.00
  -26   27    1      1.52      0.00
  -25   27    1      1.38      0.00
  -24   27    1      0.67      0.00
  -23   27    1      0.24      0.00
  -22   27    1     -1.82      0.00
  -21   27    1     -2.21      0.00
  -20   27    1     -0.30      0.00
  -19   27    1     -0.02      0.00
  -18   27    1     -0.50      0.00
  -17   27    1      0.95      0.00
  -16   27    1     -0.48      0.00
  -15   27    1     -1.51      0.00
  -14   27    1     -0.68      0.00
  -13   27    1     -0.90      0.00
  -12   27    1     -1.04      0.00
  -11   27    1      0.38      0.00
  -10   27    1      0.74      0.00
   -9   27    1     -1.00      0.00
   -8   27    1     -1.13      0.00
   -7   27    1      0.76      0.00
   -6   27    1      0.25      0.00
   -5   27    1      0.09      0.00
   -4   27    1      0.22      0.00
   -3   27    1      0.46      0.00
   -2   27    1      1.81      0.00
   -1   27    1      0.85      0.00
    0   27    1     -0.33      0.00
  -27   28    1      0.50      0.00
  -26   28    1      0.26      0.00
  -25   28    1      1.19      0.00
  -24   28    1      0.09      0.00
  -23   28    1     -0.73      0.00
  -22   28    1     -0.71      0.00
  -21   28    1     -1.61      0.00
  -20   28    1     -1.74      0.00
  -19   28    1      1.18      0.00
  -18   28    1      0.48      0.00
  -17   28    1     -0.53      0.00
  -16   28    1      0.04      0.00
  -15   28    1     -0.99      0.00
  -14   28    1     -1.17      0.00
  -13   28    1     -0.26      0.00
  -12   28    1      0.03      0.00
  -11   28    1     -1.40      0.00
  -10   28    1     -0.93      0.00
   -9   28    1      0.62      0.00
   -8   28    1     -1.31      0.00
   -7   28    1     -1.34      0.00
   -6   28    1      0.62      0.00
   -5   28    1      0.29      0.00
   -4   28    1      0.62      0.00
   -3   28    1      0.31      0.00
   -2   28    1     -0.28      0.00
   -1   28    1      0.27      0.00
  -26   29    1      0.76      0.00
  -25   29    1      0.45      0.00
  -24   29    1      0.37      0.00
  -23   29    1     -0.60      0.00
  -22   29    1     -1.33      0.00
  -21   29    1      0.21      0.00
  -20   29    1     -0.55      0.00
  -19   29    1     -0.86      0.00
  -18   29    1      1.00      0.00
  -17   29    1     -0.09      0.00
  -16   29    1     -0.79      0.00
  -15   29    1     -0.75      0.00
  -14   29    1     -0.36      0.00
  -13   29    1     -0.96      0.00
  -12   29    1     -0.66      0.00
  -11   29    1      0.42      0.00
  -10   29    1     -1.82      0.00
   -9   29    1     -1.70      0.00
   -8   29    1      0.64      0.00
   -7   29    1     -0.82      0.00
   -6   29    1     -1.06      0.00
   -5   29    1      0.38      0.00
   -4   29    1      0.34      0.00
   -3   29    1      0.03      0.00
  -24   30    1      0.18      0.00
  -23   30    1      0.26      0.00
  -22   30    1     -0.67      0.00
  -21   30    1     -1.00      0.00
  -20   30    1      0.69      0.00
  -19   30    1     -0.43      0.00
  -18   30    1     -0.70      0.00
  -17   30    1     -0.41      0.00
  -16   30    1     -0.16      0.00
  -15   30    1     -0.65      0.00
  -14   30    1     -1.04      0.00
  -13   30    1      0.30      0.00
  -12   30    1     -0.98      0.00
  -11   30    1     -1.02      0.00
  -10   30    1      0.65      0.00
   -9   30    1     -1.38      0.00
   -8   30    1     -1.91      0.00
   -7   30    1      0.28      0.00
   -6   30    1      0.03      0.00
  -22   31    1      0.32      0.00
  -21   31    1     -0.99      0.00
  -20   31    1     -0.69      0.00
  -19   31    1     -0.15      0.00
  -18   31    1     -0.38      0.00
  -17   31    1     -0.52      0.00
  -16   31    1     -1.14      0.00
  -15   31    1      0.30      0.00
  -14   31    1     -0.36      0.00
  -13   31    1     -0.84      0.00
  -12   31    1      0.68      0.00
  -11   31    1     -0.50      0.00
  -10   31    1     -1.10      0.00
   -9   31    1      0.34      0.00
    0    0    2     33.82      0.00
    0    1    2      3.51      0.00
   -1    2    2     17.97      0.00
    0    2    2    -10.74      0.00
   -1    3    2    -20.47      0.00
    0    3    2      1.29      0.00
   -3    4    2    -26.75      0.00
   -2    4    2     -2.51      0.00
   -1    4    2    -26.74      0.00
    0    4    2    -26.13      0.00
   -4    5    2     -0.60      0.00
   -3    5    2    -22.79      0.00
   -2    5    2    -28.38      0.00
   -1    5    2     -5.09      0.00
    0    5    2    -19.69      0.00
   -5    6    2     -8.81      0.00
   -4    6    2    -15.29      0.00
   -3    6    2     -0.60      0.00
   -2    6    2    -20.23      0.00
   -1    6    2    -17.81      0.00
    0    6    2      5.61      0.00
   -6    7    2      1.74      0.00
   -5    7    2     12.21      0.00
   -4    7    2     -6.14      0.00
   -3    7    2    -13.67      0.00
   -2    7    2     -0.14      0.00
   -1    7    2     -7.69      0.00
    0    7    2      1.49      0.00
   -7    8    2     14.55      0.00
   -6    8    2      7.94      0.00
   -5    8    2      3.48      0.00
   -4    8    2      7.57      0.00
   -3    8    2     -7.65      0.00
   -2    8    2     -5.89      0.00
   -1    8    2      5.65      0.00
    0    8    2      5.51      0.00
   -8    9    2      7.98      0.00
   -7    9    2     11.24      0.00
   -6    9    2     14.68      0.00
   -5    9    2      2.30      0.00
   -4    9    2     -0.28      0.00
   -3    9    2      2.96      0.00
   -2    9    2     -2.47      0.00
   -1    9    2      3.13      0.00
    0    9    2      7.40      0.00
   -9   10    2      6.42      0.00
   -8   10    2     10.15      0.00
   -7   10    2      6.05      0.00
   -6   10    2      7.41      0.00
   -5   10    2      7.18      0.00
   -4   10    2     -2.79      0.00
   -3   10    2      1.42      0.00
   -2   10    2      4.00      0.00
   -1   10    2      2.64      0.00
    0   10    2      2.88      0.00
  -10   11    2      4.01      0.00
   -9   11    2      2.14      0.00
   -8   11    2      5.95      0.00
   -7   11    2      7.29      0.00
   -6   11    2     -0.37      0.00
   -5   11    2      3.77      0.00
   -4   11    2      4.29      0.00
   -3   11    2     -0.24      0.00
   -2   11    2      3.31      0.00
   -1   11    2      3.92      0.00
    0   11    2      1.27      0.00
  -11   12    2     -1.18      0.00
  -10   12    2      1.23      0.00
   -9   12    2      3.97      0.00
   -8   12    2     -0.68      0.00
   -7   12    2      3.06      0.00
   -6   12    2      4.30      0.00
   -5   12    2     -1.28      0.00
   -4   12    2      4.25      0.00
   -3   12    2      4.72      0.00
   -2   12    2      1.11      0.00
   -1   12    2     -0.05      0.00
    0   12    2      2.50      0.00
  -12   13    2     -1.01      0.00
  -11   13    2      2.80      0.00
  -10   13    2     -1.22      0.00
   -9   13    2      0.12      0.00
   -8   13    2      2.91      0.00
   -7   13    2     -2.07      0.00
   -6   13    2      2.55      0.00
   -5   13    2      4.17      0.00
   -4   13    2      0.74      0.00
   -3   13    2      1.97      0.00
   -2   13    2      2.98      0.00
   -1   13    2     -1.11      0.00
    0   13    2     -2.19      0.00
  -13   14    2      2.98      0.00
  -12   14    2     -0.84      0.00
  -11   14    2     -1.04      0.00
  -10   14    2      2.95      0.00
   -9   14    2     -1.47      0.00
   -8   14    2     -0.71      0.00
   -7   14    2      2.03      0.00
   -6   14    2     -0.67      0.00
   -5   14    2      1.96      0.00
   -4   14    2      3.06      0.00
   -3   14    2     -0.49      0.00
   -2   14    2     -2.15      0.00
   -1   14    2      1.78      0.00
    0   14    2     -1.34      0.00
  -14   15    2      0.05      0.00
  -13   15    2     -0.40      0.00
  -12   15    2      3.67      0.00
  -11   15    2      0.25      0.00
  -10   15    2     -1.71      0.00
   -9   15    2      1.74      0.00
   -8   15    2     -1.27      0.00
   -7   15    2     -0.87      0.00
   -6   15    2      1.16      0.00
   -5   15    2     -0.02      0.00
   -4   15    2     -0.79      0.00
   -3   15    2      1.15      0.00
   -2   15    2     -2.23      0.00
   -1   15    2     -1.95      0.00
    0   15    2      2.94      0.00
  -15   16    2      0.63      0.00
  -14   16    2      3.71      0.00
  -13   16    2      1.38      0.00
  -12   16    2     -0.65      0.00
  -11   16    2      3.09      0.00
  -10   16    2      0.24      0.00
   -9   16    2     -2.41      0.00
   -8   16    2     -0.13      0.00
   -7   16    2     -0.46      0.00
   -6   16    2     -1.16      0.00
   -5   16    2      0.48      0.00
   -4   16    2     -1.02      0.00
   -3   16    2     -2.04      0.00
   -2   16    2      1.29      0.00
   -1   16    2     -1.15      0.00
    0   16    2      1.04      0.00
  -16   17    2      3.31      0.00
  -15   17    2      1.92      0.00
  -14   17    2      0.54      0.00
  -13   17    2      3.19      0.00
  -12   17    2      1.64      0.00
  -11   17    2     -1.13      0.00
  -10   17    2      1.41      0.00
   -9   17    2     -0.01      0.00
   -8   17    2     -2.58      0.00
   -7   17    2     -0.73      0.00
   -6   17    2      0.36      0.00
   -5   17    2     -0.95      0.00
   -4   17    2      0.71      0.00
   -3   17    2     -1.66      0.00
   -2   17    2     -0.35      0.00
   -1   17    2      2.41      0.00
    0   17    2      0.49      0.00
  -17   18    2      1.63      0.00
  -16   18    2      0.92      0.00
  -15   18    2      2.20      0.00
  -14   18    2      1.45      0.00
  -13   18    2      0.09      0.00
  -12   18    2      2.87      0.00
  -11   18    2      1.53      0.00
  -10   18    2     -1.71      0.00
   -9   18    2     -0.21      0.00
   -8   18    2      0.47      0.00
   -7   18    2     -1.49      0.00
   -6   18    2      0.43      0.00
   -5   18    2      0.27      0.00
   -4   18    2     -0.02      0.00
   -3   18    2      1.16      0.00
   -2   18    2     -1.23      0.00
   -1   18    2      1.10      0.00
    0   18    2      2.27      0.00
  -18   19    2      0.38      0.00
  -17   19    2      1.64      0.00
  -16   19    2      0.63      0.00
  -15   19    2     -0.18      0.00
  -14   19    2      1.79      0.00
  -13   19    2      1.74      0.00
  -12   19    2      0.27      0.00
  -11   19    2      2.08      0.00
  -10   19    2      0.97      0.00
   -9   19    2     -2.07      0.00
   -8   19    2      0.02      0.00
   -7   19    2      1.37      0.00
   -6   19    2      0.20      0.00
   -5   19    2      1.14      0.00
   -4   19    2     -0.69      0.00
   -3   19    2      0.74      0.00
   -2   19    2      1.16      0.00
   -1   19    2     -0.61      0.00
    0   19    2      0.47      0.00
  -19   20    2      1.47      0.00
  -18   20    2      0.02      0.00
  -17   20    2     -0.49      0.00
  -16   20    2      0.29      0.00
  -15   20    2      0.31      0.00
  -14   20    2      0.07      0.00
  -13   20    2      2.62      0.00
  -12   20    2      1.79      0.00
  -11   20    2     -0.71      0.00
  -10   20    2      0.90      0.00
   -9   20    2      0.89      0.00
   -8   20    2     -1.05      0.00
   -7   20    2      1.26      0.00
   -6   20    2      1.18      0.00
   -5   20    2      1.10      0.00
   -4   20    2      0.58      0.00
   -3   20    2     -1.13      0.00
   -2   20    2      0.64      0.00
   -1   20    2      0.95      0.00
    0   20    2     -0.26      0.00
  -20   21    2     -0.42      0.00
  -19   21    2     -0.07      0.00
  -18   21    2      0.48      0.00
  -17   21    2     -0.64      0.00
  -16   21    2     -1.24      0.00
  -15   21    2      0.96      0.00
  -14   21    2      1.27      0.00
  -13   21    2      0.20      0.00
  -12   21    2      2.01      0.00
  -11   21    2      0.63      0.00
  -10   21    2     -1.67      0.00
   -9   21    2      1.21      0.00
   -8   21    2      1.54      0.00
   -7   21    2      0.58      0.00
   -6   21    2      1.16      0.00
   -5   21    2      0.32      0.00
   -4   21    2      1.31      0.00
   -3   21    2      0.08      0.00
   -2   21    2     -0.83      0.00
   -1   21    2     -0.09      0.00
    0   21    2      0.96      0.00
  -21   22    2      0.12      0.00
  -20   22    2      0.95      0.00
  -19   22    2     -0.67      0.00
  -18   22    2     -1.08      0.00
  -17   22    2      0.01      0.00
  -16   22    2      0.16      0.00
  -15   22    2     -0.71      0.00
  -14   22    2      1.63      0.00
  -13   22    2      0.69      0.00
  -12   22    2     -1.30      0.00
  -11   22    2      1.08      0.00
  -10   22    2      0.47      0.00
   -9   22    2     -0.52      0.00
   -8   22    2      1.97      0.00
   -7   22    2      1.70      0.00
   -6   22    2      1.55      0.00
   -5   22    2      0.18      0.00
   -4   22    2      0.05      0.00
   -3   22    2      1.00      0.00
   -2   22    2      0.12      0.00
   -1   22    2     -0.44      0.00
    0   22    2     -0.33      0.00
  -22   23    2      0.73      0.00
  -21   23    2     -0.70      0.00
  -20   23    2     -0.21      0.00
  -19   23    2      0.00      0.00
  -18   23    2     -0.50      0.00
  -17   23    2     -1.38      0.00
  -16   23    2      0.86      0.00
  -15   23    2      0.73      0.00
  -14   23    2     -1.23      0.00
  -13   23    2      0.56      0.00
  -12   23    2     -0.62      0.00
  -11   23    2     -1.38      0.00
  -10   23    2      1.92      0.00
   -9   23    2      1.47      0.00
   -8   23    2      1.10      0.00
   -7   23    2      1.24      0.00
   -6   23    2      1.40      0.00
   -5   23    2      1.82      0.00
   -4   23    2     -0.31      0.00
   -3   23    2     -0.14      0.00
   -2   23    2      0.51      0.00
   -1   23    2      0.61      0.00
    0   23    2      0.20      0.00
  -23   24    2     -0.19      0.00
  -22   24    2      0.17      0.00
  -21   24    2     -0.45      0.00
  -20   24    2     -1.24      0.00
  -19   24    2     -1.29      0.00
  -18   24    2      0.15      0.00
  -17   24    2      0.50      0.00
  -16   24    2     -1.12      0.00
  -15   24    2      0.65      0.00
  -14   24    2     -0.59      0.00
  -13   24    2     -2.05      0.00
  -12   24    2      0.49      0.00
  -11   24    2     -0.12      0.00
  -10   24    2      0.43      0.00
   -9   24    2      2.31      0.00
   -8   24    2      1.69      0.00
   -7   24    2      1.49      0.00
   -6   24    2     -0.02      0.00
   -5   24    2      1.01      0.00
   -4   24    2      1.56      0.00
   -3   24    2     -0.01      0.00
   -2   24    2     -0.18      0.00
   -1   24    2      0.69      0.00
    0   24    2      1.05      0.00
  -24   25    2      0.54      0.00
  -23   25    2     -0.29      0.00
  -22   25    2     -1.42      0.00
  -21   25    2     -1.18      0.00
  -20   25    2     -1.44      0.00
  -19   25    2     -0.93      0.00
  -18   25    2     -1.11      0.00
  -17   25    2      1.18      0.00
  -16   25    2      0.49      0.00
  -15   25    2     -1.65      0.00
  -14   25    2     -0.33      0.00
  -13   25    2     -1.45      0.00
  -12   25    2     -0.79      0.00
  -11   25    2      1.72      0.00
  -10   25    2      0.72      0.00
   -9   25    2      1.01      0.00
   -8   25    2      0.87      0.00
   -7   25    2      1.20      0.00
   -6   25    2      1.24      0.00
   -5   25    2     -0.31      0.00
   -4   25    2      0.49      0.00
   -3   25    2      1.51      0.00
   -2   25    2      0.97      0.00
   -1   25    2      0.36      0.00
    0   25    2      0.70      0.00
  -25   26    2      0.57      0.00
  -24   26    2     -0.43      0.00
  -23   26    2     -0.43      0.00
  -22   26    2     -2.24      0.00
  -21   26    2     -2.35      0.00
  -20   26    2     -1.83      0.00
  -19   26    2     -0.12      0.00
  -18   26    2      0.29      0.00
  -17   26    2     -0.48      0.00
  -16   26    2      1.05      0.00
  -15   26    2     -0.74      0.00
  -14   26    2     -1.57      0.00
  -13   26    2      0.05      0.00
  -12   26    2     -0.83      0.00
  -11   26    2      0.49      0.00
  -10   26    2      1.45      0.00
   -9   26    2      0.36      0.00
   -8   26    2      0.08      0.00
   -7   26    2     -0.32      0.00
   -6   26    2      0.88      0.00
   -5   26    2      1.34      0.00
   -4   26    2      0.46      0.00
   -3   26    2      0.41      0.00
   -2   26    2      1.58      0.00
   -1   26    2      1.30      0.00
    0   26    2      0.42      0.00
  -26   27    2     -0.23      0.00
  -25   27    2      0.34      0.00
  -24   27    2     -0.96      0.00
  -23   27    2     -1.63      0.00
  -22   27    2     -1.73      0.00
  -21   27    2     -2.13      0.00
  -20   27    2     -1.50      0.00
  -19   27    2     -0.56      0.00
  -18   27    2      1.81      0.00
  -17   27    2      0.53      0.00
  -16   27    2     -0.61      0.00
  -15   27    2      0.24      0.00
  -14   27    2     -1.27      0.00
  -13   27    2     -0.48      0.00
  -12   27    2      0.69      0.00
  -11   27    2     -0.61      0.00
  -10   27    2     -0.32      0.00
   -9   27    2      0.08      0.00
   -8   27    2      0.07      0.00
   -7   27    2     -0.28      0.00
   -6   27    2     -0.07      0.00
   -5   27    2      0.84      0.00
   -4   27    2      1.74      0.00
   -3   27    2      1.12      0.00
   -2   27    2      0.30      0.00
   -1   27    2      0.44      0.00
    0   27    2      0.32      0.00
  -27   28    2     -0.14      0.00
  -26   28    2     -0.07      0.00
  -25   28    2     -0.46      0.00
  -24   28    2     -0.37      0.00
  -23   28    2     -1.73      0.00
  -22   28    2     -1.73      0.00
  -21   28    2     -1.23      0.00
  -20   28    2      0.26      0.00
  -19   28    2     -0.02      0.00
  -18   28    2      0.42      0.00
  -17   28    2      1.86      0.00
  -16   28    2     -0.24      0.00
  -15   28    2     -0.72      0.00
  -14   28    2     -0.05      0.00
  -13   28    2     -1.04      0.00
  -12   28    2     -0.35      0.00
  -11   28    2      0.24      0.00
  -10   28    2     -0.81      0.00
   -9   28    2     -1.48      0.00
   -8   28    2     -0.33      0.00
   -7   28    2      0.46      0.00
   -6   28    2      0.40      0.00
   -5   28    2      0.55      0.00
   -4   28    2      0.69      0.00
   -3   28    2      1.21      0.00
   -2   28    2      0.42      0.00
   -1   28    2     -0.42      0.00
  -25   29    2     -0.25      0.00
  -24   29    2     -0.28      0.00
  -23   29    2     -0.62      0.00
  -22   29    2     -0.64      0.00
  -21   29    2     -0.75      0.00
  -20   29    2      0.17      0.00
  -19   29    2      1.84      0.00
  -18   29    2      0.21      0.00
  -17   29    2      0.05      0.00
  -16   29    2      0.69      0.00
  -15   29    2     -0.61      0.00
  -14   29    2     -0.61      0.00
  -13   29    2     -0.18      0.00
  -12   29    2     -0.90      0.00
  -11   29    2     -1.26      0.00
  -10   29    2     -0.17      0.00
   -9   29    2     -0.36      0.00
   -8   29    2     -1.33      0.00
   -7   29    2     -0.02      0.00
   -6   29    2      0.80      0.00
   -5   29    2      0.94      0.00
   -4   29    2      0.33      0.00
  -24   30    2      0.12      0.00
  -23   30    2      0.13      0.00
  -22   30    2     -0.03      0.00
  -21   30    2      0.69      0.00
  -20   30    2     -0.26      0.00
  -19   30    2      0.43      0.00
  -18   30    2      1.31      0.00
  -17   30    2     -0.17      0.00
  -16   30    2     -0.52      0.00
  -15   30    2     -0.20      0.00
  -14   30    2     -0.45      0.00
  -13   30    2     -0.79      0.00
  -12   30    2     -0.20      0.00
  -11   30    2     -0.52      0.00
  -10   30    2     -1.58      0.00
   -9   30    2     -0.05      0.00
   -8   30    2      0.32      0.00
   -7   30    2     -0.41      0.00
   -6   30    2     -0.04      0.00
  -21   31    2      0.29      0.00
  -20   31    2      0.70      0.00
  -19   31    2     -0.41      0.00
  -18   31    2     -0.11      0.00
  -17   31    2      0.27      0.00
  -16   31    2     -0.06      0.00
  -15   31    2     -0.65      0.00
  -14   31    2     -0.42      0.00
  -13   31    2     -0.14      0.00
  -12   31    2     -0.87      0.00
  -11   31    2      0.15      0.00
  -10   31    2      0.09      0.00
    0    0    3      8.20      0.00
    0    1    3     23.90      0.00
   -1    2    3      1.44      0.00
    0    2    3     11.16      0.00
   -2    3    3      4.96      0.00
   -1    3    3     -0.24      0.00
    0    3    3     -4.31      0.00
   -3    4    3     -8.71      0.00
   -2    4    3     -5.04      0.00
   -1    4    3     -2.83      0.00
    0    4    3     -6.89      0.00
   -4    5    3     -1.68      0.00
   -3    5    3     -0.11      0.00
   -2    5    3    -14.64      0.00
   -1    5    3     -4.74      0.00
    0    5    3     -3.76      0.00
   -5    6    3      4.41      0.00
   -4    6    3     -7.07      0.00
   -3    6    3     -0.90      0.00
   -2    6    3     -0.13      0.00
   -1    6    3     -7.19      0.00
    0    6    3     -0.43      0.00
   -6    7    3      6.83      0.00
   -5    7    3      4.62      0.00
   -4    7    3      7.44      0.00
   -3    7    3     -7.87      0.00
   -2    7    3     -2.90      0.00
   -1    7    3      4.30      0.00
    0    7    3      6.65      0.00
   -7    8    3     -0.48      0.00
   -6    8    3     11.65      0.00
   -5    8    3      4.67      0.00
   -4    8    3      1.92      0.00
   -3    8    3      3.26      0.00
   -2    8    3     -0.54      0.00
   -1    8    3     -4.71      0.00
    0    8    3      9.76      0.00
   -8    9    3      7.55      0.00
   -7    9    3     10.89      0.00
   -6    9    3      1.53      0.00
   -5    9    3      5.06      0.00
   -4    9    3      2.58      0.00
   -3    9    3     -3.02      0.00
   -2    9    3      3.59      0.00
   -1    9    3      5.64      0.00
    0    9    3     -7.82      0.00
   -9   10    3      5.95      0.00
   -8   10    3     -6.69      0.00
   -7   10    3      3.14      0.00
   -6   10    3      7.28      0.00
   -5   10    3     -0.31      0.00
   -4   10    3     -1.17      0.00
   -3   10    3      5.12      0.00
   -2   10    3     -4.95      0.00
   -1   10    3      4.68      0.00
    0   10    3      1.81      0.00
  -10   11    3     -9.50      0.00
   -9   11    3     -1.08      0.00
   -8   11    3      3.53      0.00
   -7   11    3     -4.08      0.00
   -6   11    3     -3.74      0.00
   -5   11    3      6.27      0.00
   -4   11    3     -0.51      0.00
   -3   11    3      0.18      0.00
   -2   11    3      4.36      0.00
   -1   11    3     -5.52      0.00
    0   11    3      0.63      0.00
  -11   12    3     -3.33      0.00
  -10   12    3     -2.39      0.00
   -9   12    3     -8.18      0.00
   -8   12    3     -4.82      0.00
   -7   12    3      2.48      0.00
   -6   12    3     -0.72      0.00
   -5   12    3     -3.95      0.00
   -4   12    3      6.55      0.00
   -3   12    3      0.16      0.00
   -2   12    3      1.25      0.00
   -1   12    3     -1.72      0.00
    0   12    3     -4.71      0.00
  -12   13    3     -3.39      0.00
  -11   13    3     -6.16      0.00
  -10   13    3     -3.66      0.00
   -9   13    3     -4.12      0.00
   -8   13    3     -4.02      0.00
   -7   13    3     -5.28      0.00
   -6   13    3      4.45      0.00
   -5   13    3      1.80      0.00
   -4   13    3     -0.38      0.00
   -3   13    3      1.73      0.00
   -2   13    3     -0.85      0.00
   -1   13    3     -0.95      0.00
    0   13    3     -3.84      0.00
  -13   14    3     -2.35      0.00
  -12   14    3     -1.65      0.00
  -11   14    3     -6.00      0.00
  -10   14    3     -4.26      0.00
   -9   14    3     -3.31      0.00
   -8   14    3     -1.77      0.00
   -7   14    3     -1.04      0.00
   -6   14    3     -1.91      0.00
   -5   14    3      3.87      0.00
   -4   14    3      1.30      0.00
   -3   14    3      0.06      0.00
   -2   14    3     -3.80      0.00
   -1   14    3     -1.53      0.00
    0   14    3     -1.05      0.00
  -14   15    3      0.29      0.00
  -13   15    3     -2.41      0.00
  -12   15    3     -2.11      0.00
  -11   15    3     -0.30      0.00
  -10   15    3     -5.45      0.00
   -9   15    3     -2.62      0.00
   -8   15    3     -1.63      0.00
   -7   15    3      1.35      0.00
   -6   15    3     -0.81      0.00
   -5   15    3      0.66      0.00
   -4   15    3     -0.22      0.00
   -3   15    3     -0.39      0.00
   -2   15    3     -1.03      0.00
   -1   15    3     -2.64      0.00
    0   15    3     -0.97      0.00
  -15   16    3      1.39      0.00
  -14   16    3     -1.11      0.00
  -13   16    3      1.70      0.00
  -12   16    3     -3.37      0.00
  -11   16    3     -1.35      0.00
  -10   16    3      0.01      0.00
   -9   16    3     -2.08      0.00
   -8   16    3     -3.26      0.00
   -7   16    3      0.63      0.00
   -6   16    3      1.87      0.00
   -5   16    3     -1.07      0.00
   -4   16    3      0.30      0.00
   -3   16    3     -1.91      0.00
   -2   16    3     -0.76      0.00
   -1   16    3      0.03      0.00
    0   16    3      1.85      0.00
  -16   17    3     -0.94      0.00
  -15   17    3      2.84      0.00
  -14   17    3      0.71      0.00
  -13   17    3     -0.99      0.00
  -12   17    3      1.01      0.00
  -11   17    3     -1.56      0.00
  -10   17    3     -1.89      0.00
   -9   17    3      0.41      0.00
   -8   17    3      0.59      0.00
   -7   17    3     -3.50      0.00
   -6   17    3      1.79      0.00
   -5   17    3      1.35      0.00
   -4   17    3     -0.39      0.00
   -3   17    3     -0.82      0.00
   -2   17    3      0.44      0.00
   -1   17    3     -0.45      0.00
    0   17    3      1.53      0.00
  -17   18    3      2.60      0.00
  -16   18    3      2.28      0.00
  -15   18    3     -1.96      0.00
  -14   18    3      0.97      0.00
  -13   18    3      0.93      0.00
  -12   18    3      0.07      0.00
  -11   18    3      0.37      0.00
  -10   18    3      0.65      0.00
   -9   18    3     -3.24      0.00
   -8   18    3      1.21      0.00
   -7   18    3      1.74      0.00
   -6   18    3     -1.36      0.00
   -5   18    3      0.89      0.00
   -4   18    3      1.68      0.00
   -3   18    3      0.02      0.00
   -2   18    3     -0.82      0.00
   -1   18    3      2.13      0.00
    0   18    3     -0.39      0.00
  -18   19    3      1.17      0.00
  -17   19    3     -1.45      0.00
  -16   19    3      0.82      0.00
  -15   19    3      1.49      0.00
  -14   19    3     -1.11      0.00
  -13   19    3     -0.24      0.00
  -12   19    3      2.78      0.00
  -11   19    3      0.13      0.00
  -10   19    3      0.10      0.00
   -9   19    3      0.79      0.00
   -8   19    3     -2.44      0.00
   -7   19    3      1.57      0.00
   -6   19    3      2.27      0.00
   -5   19    3      0.41      0.00
   -4   19    3     -0.76      0.00
   -3   19    3      1.97      0.00
   -2   19    3     -0.24      0.00
   -1   19    3     -0.31      0.00
    0   19    3      0.76      0.00
  -19   20    3      0.33      0.00
  -18   20    3      0.24      0.00
  -17   20    3      0.61      0.00
  -16   20    3     -2.38      0.00
  -15   20    3     -0.88      0.00
  -14   20    3      2.64      0.00
  -13   20    3      1.14      0.00
  -12   20    3     -0.29      0.00
  -11   20    3      2.31      0.00
  -10   20    3     -0.69      0.00
   -9   20    3      0.24      0.00
   -8   20    3      0.39      0.00
   -7   20    3     -0.16      0.00
   -6   20    3      0.76      0.00
   -5   20    3      2.18      0.00
   -4   20    3     -0.04      0.00
   -3   20    3     -1.10      0.00
   -2   20    3      0.86      0.00
   -1   20    3     -0.08      0.00
    0   20    3      0.03      0.00
  -20   21    3     -1.03      0.00
  -19   21    3      0.35      0.00
  -18   21    3     -0.81      0.00
  -17   21    3     -0.64      0.00
  -16   21    3      0.31      0.00
  -15   21    3     -0.87      0.00
  -14   21    3     -0.46      0.00
  -13   21    3      3.49      0.00
  -12   21    3      1.39      0.00
  -11   21    3     -0.64      0.00
  -10   21    3     -0.03      0.00
   -9   21    3     -0.09      0.00
   -8   21    3      0.73      0.00
   -7   21    3      0.65      0.00
   -6   21    3      0.18      0.00
   -5   21    3      0.13      0.00
   -4   21    3      1.39      0.00
   -3   21    3     -0.94      0.00
   -2   21    3     -0.47      0.00
   -1   21    3     -0.82      0.00
    0   21    3      0.87      0.00
  -21   22    3      0.51      0.00
  -20   22    3      0.91      0.00
  -19   22    3     -0.63      0.00
  -18   22    3     -0.56      0.00
  -17   22    3     -1.43      0.00
  -16   22    3     -0.09      0.00
  -15   22    3      1.63      0.00
  -14   22    3      0.62      0.00
  -13   22    3     -0.34      0.00
  -12   22    3      1.51      0.00
  -11   22    3      0.65      0.00
  -10   22    3     -0.33      0.00
   -9   22    3     -0.64      0.00
   -8   22    3      0.67      0.00
   -7   22    3      1.15      0.00
   -6   22    3      0.88      0.00
   -5   22    3     -1.32      0.00
   -4   22    3      0.48      0.00
   -3   22    3      0.17      0.00
   -2   22    3     -0.62      0.00
   -1   22    3     -0.07      0.00
    0   22    3     -1.20      0.00
  -22   23    3      0.90      0.00
  -21   23    3     -1.24      0.00
  -20   23    3      0.21      0.00
  -19   23    3     -0.46      0.00
  -18   23    3      0.15      0.00
  -17   23    3     -0.50      0.00
  -16   23    3     -0.62      0.00
  -15   23    3      0.75      0.00
  -14   23    3      1.68      0.00
  -13   23    3      0.00      0.00
  -12   23    3     -0.88      0.00
  -11   23    3      0.07      0.00
  -10   23    3      1.12      0.00
   -9   23    3      0.85      0.00
   -8   23    3      0.10      0.00
   -7   23    3     -0.62      0.00
   -6   23    3      1.57      0.00
   -5   23    3      0.54      0.00
   -4   23    3     -2.11      0.00
   -3   23    3      0.40      0.00
   -2   23    3     -0.40      0.00
   -1   23    3      0.59      0.00
    0   23    3      0.08      0.00
  -23   24    3     -0.79      0.00
  -22   24    3      0.60      0.00
  -21   24    3     -0.59      0.00
  -20   24    3     -0.83      0.00
  -19   24    3     -0.86      0.00
  -18   24    3     -0.80      0.00
  -17   24    3      1.42      0.00
  -16   24    3      0.46      0.00
  -15   24    3     -0.73      0.00
  -14   24    3     -0.08      0.00
  -13   24    3      0.78      0.00
  -12   24    3     -0.18      0.00
  -11   24    3     -0.26      0.00
  -10   24    3      0.80      0.00
   -9   24    3      0.89      0.00
   -8   24    3      1.52      0.00
   -7   24    3      0.00      0.00
   -6   24    3     -2.45      0.00
   -5   24    3      1.43      0.00
   -4   24    3      0.22      0.00
   -3   24    3     -1.04      0.00
   -2   24    3     -0.30      0.00
   -1   24    3      0.23      0.00
    0   24    3      1.15      0.00
  -24   25    3      0.21      0.00
  -23   25    3     -0.63      0.00
  -22   25    3     -1.38      0.00
  -21   25    3     -0.46      0.00
  -20   25    3     -1.80      0.00
  -19   25    3      0.11      0.00
  -18   25    3     -0.54      0.00
  -17   25    3     -0.14      0.00
  -16   25    3      1.48      0.00
  -15   25    3      0.70      0.00
  -14   25    3     -1.66      0.00
  -13   25    3     -0.87      0.00
  -12   25    3      1.47      0.00
  -11   25    3      0.68      0.00
  -10   25    3      0.59      0.00
   -9   25    3      0.67      0.00
   -8   25    3     -1.04      0.00
   -7   25    3      1.29      0.00
   -6   25    3     -0.68      0.00
   -5   25    3     -2.35      0.00
   -4   25    3      0.41      0.00
   -3   25    3      0.84      0.00
   -2   25    3      0.89      0.00
   -1   25    3     -0.64      0.00
    0   25    3      0.51      0.00
  -25   26    3      0.63      0.00
  -24   26    3     -0.47      0.00
  -23   26    3     -0.10      0.00
  -22   26    3     -2.69      0.00
  -21   26    3     -1.48      0.00
  -20   26    3     -1.12      0.00
  -19   26    3     -0.60      0.00
  -18   26    3      1.25      0.00
  -17   26    3      0.56      0.00
  -16   26    3     -0.45      0.00
  -15   26    3      0.25      0.00
  -14   26    3      1.11      0.00
  -13   26    3     -1.38      0.00
  -12   26    3     -0.52      0.00
  -11   26    3      2.00      0.00
  -10   26    3      0.29      0.00
   -9   26    3      0.32      0.00
   -8   26    3     -1.20      0.00
   -7   26    3     -2.19      0.00
   -6   26    3      0.66      0.00
   -5   26    3     -0.28      0.00
   -4   26    3     -0.37      0.00
   -3   26    3     -0.47      0.00
   -2   26    3      1.42      0.00
   -1   26    3      1.66      0.00
    0   26    3     -0.53      0.00
  -26   27    3     -0.17      0.00
  -25   27    3     -0.05      0.00
  -24   27    3     -1.35      0.00
  -23   27    3     -0.85      0.00
  -22   27    3     -1.01      0.00
  -21   27    3     -2.26      0.00
  -20   27    3     -0.55      0.00
  -19   27    3      0.03      0.00
  -18   27    3      1.16      0.00
  -17   27    3      1.35      0.00
  -16   27    3      1.04      0.00
  -15   27    3     -1.33      0.00
  -14   27    3     -0.36      0.00
  -13   27    3      1.87      0.00
  -12   27    3     -0.63      0.00
  -11   27    3     -0.44      0.00
  -10   27    3      0.11      0.00
   -9   27    3     -0.87      0.00
   -8   27    3     -0.19      0.00
   -7   27    3     -2.22      0.00
   -6   27    3     -1.19      0.00
   -5   27    3      0.21      0.00
   -4   27    3      0.96      0.00
   -3   27    3      1.18      0.00
   -2   27    3     -0.76      0.00
   -1   27    3      0.35      0.00
    0   27    3      1.16      0.00
  -26   28    3      0.48      0.00
  -25   28    3      0.21      0.00
  -24   28    3     -0.41      0.00
  -23   28    3     -2.04      0.00
  -22   28    3     -0.54      0.00
  -21   28    3     -0.53      0.00
  -20   28    3      0.38      0.00
  -19   28    3      0.57      0.00
  -18   28    3      1.20      0.00
  -17   28    3      1.09      0.00
  -16   28    3      0.88      0.00
  -15   28    3      1.10      0.00
  -14   28    3     -1.60      0.00
  -13   28    3     -0.26      0.00
  -12   28    3      1.20      0.00
  -11   28    3     -0.59      0.00
  -10   28    3     -0.85      0.00
   -9   28    3     -2.26      0.00
   -8   28    3     -0.88      0.00
   -7   28    3     -0.01      0.00
   -6   28    3     -1.15      0.00
   -5   28    3      0.21      0.00
   -4   28    3     -0.01      0.00
   -3   28    3      0.87      0.00
   -2   28    3      0.94      0.00
  -25   29    3     -0.14      0.00
  -24   29    3      0.95      0.00
  -23   29    3     -0.47      0.00
  -22   29    3     -0.59      0.00
  -21   29    3      0.14      0.00
  -20   29    3      0.87      0.00
  -19   29    3      1.97      0.00
  -18   29    3      1.03      0.00
  -17   29    3      1.08      0.00
  -16   29    3     -0.17      0.00
  -15   29    3      0.88      0.00
  -14   29    3      0.82      0.00
  -13   29    3     -1.44      0.00
  -12   29    3     -0.38      0.00
  -11   29    3     -0.69      0.00
  -10   29    3     -0.51      0.00
   -9   29    3     -0.70      0.00
   -8   29    3     -2.52      0.00
   -7   29    3     -0.18      0.00
   -6   29    3      0.48      0.00
   -5   29    3      0.12      0.00
   -4   29    3      0.19      0.00
  -23   30    3      1.37      0.00
  -22   30    3      0.38      0.00
  -21   30    3      0.91      0.00
  -20   30    3      0.45      0.00
  -19   30    3      1.29      0.00
  -18   30    3      1.40      0.00
  -17   30    3      1.36      0.00
  -16   30    3      0.36      0.00
  -15   30    3     -1.10      0.00
  -14   30    3      0.97      0.00
  -13   30    3      0.13      0.00
  -12   30    3     -1.06      0.00
  -11   30    3     -0.57      0.00
  -10   30    3     -1.68      0.00
   -9   30    3     -0.11      0.00
   -8   30    3      0.04      0.00
   -7   30    3     -1.14      0.00
  -20   31    3      0.94      0.00
  -19   31    3      0.67      0.00
  -18   31    3      0.63      0.00
  -17   31    3      0.24      0.00
  -16   31    3      1.74      0.00
  -15   31    3     -0.10      0.00
  -14   31    3     -1.30      0.00
  -13   31    3      0.59      0.00
  -12   31    3     -0.32      0.00
  -11   31    3     -0.54      0.00
    0    0    4      0.00      0.00
    0    1    4     33.29      0.00
   -1    2    4     -3.22      0.00
    0    2    4     22.59      0.00
   -2    3    4     17.14      0.00
   -1    3    4     12.45      0.00
    0    3    4     -4.96      0.00
   -3    4    4      3.11      0.00
   -2    4    4     -4.64      0.00
   -1    4    4      8.90      0.00
    0    4    4      4.12      0.00
   -4    5    4     -0.88      0.00
   -3    5    4      9.06      0.00
   -2    5    4     -4.21      0.00
   -1    5    4     -2.74      0.00
    0    5    4      2.41      0.00
   -5    6    4      7.66      0.00
   -4    6    4     -2.97      0.00
   -3    6    4      0.57      0.00
   -2    6    4      6.16      0.00
   -1    6    4     -2.03      0.00
    0    6    4      0.89      0.00
   -6    7    4      3.37      0.00
   -5    7    4      4.24      0.00
   -4    7    4      9.27      0.00
   -3    7    4     -6.01      0.00
   -2    7    4      0.15      0.00
   -1    7    4      4.55      0.00
    0    7    4      4.93      0.00
   -7    8    4      0.37      0.00
   -6    8    4      8.58      0.00
   -5    8    4     -0.86      0.00
   -4    8    4      3.46      0.00
   -3    8    4      4.27      0.00
   -2    8    4     -2.06      0.00
   -1    8    4     -1.16      0.00
    0    8    4      3.95      0.00
   -8    9    4      3.33      0.00
   -7    9    4      1.56      0.00
   -6    9    4      1.94      0.00
   -5    9    4      3.59      0.00
   -4    9    4     -2.83      0.00
   -3    9    4      1.18      0.00
   -2    9    4      2.06      0.00
   -1    9    4      1.69      0.00
    0    9    4     -3.94      0.00
   -9   10    4     -1.08      0.00
   -8   10    4     -4.43      0.00
   -7   10    4      0.28      0.00
   -6   10    4     -1.83      0.00
   -5   10    4      2.54      0.00
   -4   10    4     -1.12      0.00
   -3   10    4     -0.20      0.00
   -2   10    4      0.06      0.00
   -1   10    4      1.19      0.00
    0   10    4     -1.20      0.00
  -10   11    4     -5.37      0.00
   -9   11    4     -3.24      0.00
   -8   11    4     -4.80      0.00
   -7   11    4     -1.58      0.00
   -6   11    4     -3.75      0.00
   -5   11    4     -0.87      0.00
   -4   11    4      3.85      0.00
   -3   11    4     -0.32      0.00
   -2   11    4     -0.01      0.00
   -1   11    4     -0.90      0.00
    0   11    4     -1.92      0.00
  -11   12    4     -4.44      0.00
  -10   12    4     -6.62      0.00
   -9   12    4     -5.02      0.00
   -8   12    4     -5.09      0.00
   -7   12    4     -4.22      0.00
   -6   12    4      2.83      0.00
   -5   12    4     -2.81      0.00
   -4   12    4      1.05      0.00
   -3   12    4      4.11      0.00
   -2   12    4      0.56      0.00
   -1   12    4     -3.94      0.00
    0   12    4     -0.99      0.00
  -12   13    4     -3.55      0.00
  -11   13    4     -2.71      0.00
  -10   13    4     -4.18      0.00
   -9   13    4     -8.19      0.00
   -8   13    4     -0.95      0.00
   -7   13    4     -3.83      0.00
   -6   13    4     -0.24      0.00
   -5   13    4      5.10      0.00
   -4   13    4      0.25      0.00
   -3   13    4     -1.90      0.00
   -2   13    4      2.05      0.00
   -1   13    4     -0.46      0.00
    0   13    4     -4.93      0.00
  -13   14    4      0.44      0.00
  -12   14    4     -2.38      0.00
  -11   14    4     -6.86      0.00
  -10   14    4     -1.52      0.00
   -9   14    4     -2.88      0.00
   -8   14    4     -4.40      0.00
   -7   14    4      1.88      0.00
   -6   14    4     -0.51      0.00
   -5   14    4      0.48      0.00
   -4   14    4      3.49      0.00
   -3   14    4      0.68      0.00
   -2   14    4     -5.93      0.00
   -1   14    4      0.41      0.00
    0   14    4      0.41      0.00
  -14   15    4     -1.11      0.00
  -13   15    4     -1.24      0.00
  -12   15    4      0.60      0.00
  -11   15    4     -1.03      0.00
  -10   15    4     -6.17      0.00
   -9   15    4     -0.34      0.00
   -8   15    4     -0.70      0.00
   -7   15    4     -0.39      0.00
   -6   15    4      1.26      0.00
   -5   15    4      1.28      0.00
   -4   15    4     -2.76      0.00
   -3   15    4      0.71      0.00
   -2   15    4      0.06      0.00
   -1   15    4     -4.70      0.00
    0   15    4      0.58      0.00
  -15   16    4      2.55      0.00
  -14   16    4      1.26      0.00
  -13   16    4      0.31      0.00
  -12   16    4     -2.88      0.00
  -11   16    4      0.64      0.00
  -10   16    4     -0.27      0.00
   -9   16    4     -2.55      0.00
   -8   16    4     -1.63      0.00
   -7   16    4      1.00      0.00
   -6   16    4      0.20      0.00
   -5   16    4     -0.02      0.00
   -4   16    4      0.69      0.00
   -3   16    4     -4.47      0.00
   -2   16    4     -0.27      0.00
   -1   16    4      1.03      0.00
    0   16    4     -0.47      0.00
  -16   17    4      0.57      0.00
  -15   17    4      1.11      0.00
  -14   17    4      1.29      0.00
  -13   17    4      1.16      0.00
  -12   17    4     -0.12      0.00
  -11   17    4     -1.62      0.00
  -10   17    4     -0.77      0.00
   -9   17    4      0.28      0.00
   -8   17    4     -0.24      0.00
   -7   17    4     -2.68      0.00
   -6   17    4      1.50      0.00
   -5   17    4     -0.78      0.00
   -4   17    4     -0.02      0.00
   -3   17    4     -0.40      0.00
   -2   17    4     -2.48      0.00
   -1   17    4      0.17      0.00
    0   17    4      1.77      0.00
  -17   18    4      1.16      0.00
  -16   18    4      2.30      0.00
  -15   18    4      0.06      0.00
  -14   18    4     -0.41      0.00
  -13   18    4      0.71      0.00
  -12   18    4      1.25      0.00
  -11   18    4     -0.02      0.00
  -10   18    4     -0.04      0.00
   -9   18    4     -3.01      0.00
   -8   18    4      0.65      0.00
   -7   18    4      0.25      0.00
   -6   18    4     -1.06      0.00
   -5   18    4      0.45      0.00
   -4   18    4     -1.11      0.00
   -3   18    4      0.37      0.00
   -2   18    4     -0.62      0.00
   -1   18    4     -0.17      0.00
    0   18    4      0.49      0.00
  -18   19    4      0.87      0.00
  -17   19    4      0.06      0.00
  -16   19    4     -0.07      0.00
  -15   19    4      1.01      0.00
  -14   19    4      0.29      0.00
  -13   19    4     -0.72      0.00
  -12   19    4      1.89      0.00
  -11   19    4      0.29      0.00
  -10   19    4      0.12      0.00
   -9   19    4     -0.54      0.00
   -8   19    4     -2.82      0.00
   -7   19    4      0.56      0.00
   -6   19    4      0.09      0.00
   -5   19    4      0.79      0.00
   -4   19    4     -1.12      0.00
   -3   19    4     -0.79      0.00
   -2   19    4      0.39      0.00
   -1   19    4     -0.46      0.00
    0   19    4      0.18      0.00
  -19   20    4      1.14      0.00
  -18   20    4      0.37      0.00
  -17   20    4      0.21      0.00
  -16   20    4     -0.95      0.00
  -15   20    4     -1.21      0.00
  -14   20    4      1.71      0.00
  -13   20    4      1.63      0.00
  -12   20    4      0.44      0.00
  -11   20    4      0.98      0.00
  -10   20    4     -1.31      0.00
   -9   20    4     -0.05      0.00
   -8   20    4     -1.41      0.00
   -7   20    4     -0.52      0.00
   -6   20    4     -0.45      0.00
   -5   20    4     -0.34      0.00
   -4   20    4      0.83      0.00
   -3   20    4     -1.47      0.00
   -2   20    4     -0.63      0.00
   -1   20    4      0.50      0.00
    0   20    4      0.01      0.00
  -20   21    4      0.03      0.00
  -19   21    4      0.26      0.00
  -18   21    4      0.37      0.00
  -17   21    4     -0.34      0.00
  -16   21    4     -0.15      0.00
  -15   21    4     -0.14      0.00
  -14   21    4      0.31      0.00
  -13   21    4      2.34      0.00
  -12   21    4      1.28      0.00
  -11   21    4      0.62      0.00
  -10   21    4     -1.57      0.00
   -9   21    4     -1.10      0.00
   -8   21    4     -0.32      0.00
   -7   21    4     -1.45      0.00
   -6   21    4      0.54      0.00
   -5   21    4     -1.12      0.00
   -4   21    4     -0.59      0.00
   -3   21    4      0.07      0.00
   -2   21    4     -0.68      0.00
   -1   21    4     -0.49      0.00
    0   21    4      1.07      0.00
  -21   22    4      0.86      0.00
  -20   22    4      1.59      0.00
  -19   22    4      0.31      0.00
  -18   22    4     -0.41      0.00
  -17   22    4     -0.54      0.00
  -16   22    4      0.50      0.00
  -15   22    4      1.08      0.00
  -14   22    4      0.92      0.00
  -13   22    4      1.55      0.00
  -12   22    4      0.30      0.00
  -11   22    4      0.14      0.00
  -10   22    4      0.33      0.00
   -9   22    4     -2.34      0.00
   -8   22    4     -0.02      0.00
   -7   22    4     -0.63      0.00
   -6   22    4     -1.08      0.00
   -5   22    4     -0.19      0.00
   -4   22    4     -0.59      0.00
   -3   22    4     -0.42      0.00
   -2   22    4     -0.15      0.00
   -1   22    4      0.35      0.00
    0   22    4      0.15      0.00
  -22   23    4      0.92      0.00
  -21   23    4      0.02      0.00
  -20   23    4      0.76      0.00
  -19   23    4      0.51      0.00
  -18   23    4      0.69      0.00
  -17   23    4     -0.27      0.00
  -16   23    4     -0.22      0.00
  -15   23    4      2.05      0.00
  -14   23    4      0.98      0.00
  -13   23    4      0.26      0.00
  -12   23    4      1.24      0.00
  -11   23    4     -1.22      0.00
  -10   23    4      0.39      0.00
   -9   23    4      0.22      0.00
   -8   23    4     -1.55      0.00
   -7   23    4     -0.34      0.00
   -6   23    4     -0.59      0.00
   -5   23    4     -0.65      0.00
   -4   23    4     -1.07      0.00
   -3   23    4      0.06      0.00
   -2   23    4      0.40      0.00
   -1   23    4      0.26      0.00
    0   23    4      0.95      0.00
  -23   24    4      0.41      0.00
  -22   24    4      1.36      0.00
  -21   24    4      0.23      0.00
  -20   24    4     -0.33      0.00
  -19   24    4     -0.10      0.00
  -18   24    4     -0.18      0.00
  -17   24    4      1.88      0.00
  -16   24    4      0.42      0.00
  -15   24    4     -0.38      0.00
  -14   24    4      1.82      0.00
  -13   24    4     -0.15      0.00
  -12   24    4     -0.01      0.00
  -11   24    4      0.98      0.00
  -10   24    4     -0.51      0.00
   -9   24    4      0.55      0.00
   -8   24    4     -0.36      0.00
   -7   24    4     -1.19      0.00
   -6   24    4     -1.57      0.00
   -5   24    4     -0.41      0.00
   -4   24    4      0.13      0.00
   -3   24    4     -0.89      0.00
   -2   24    4      0.25      0.00
   -1   24    4      1.44      0.00
    0   24    4      0.28      0.00
  -24   25    4      0.75      0.00
  -23   25    4     -0.52      0.00
  -22   25    4     -0.99      0.00
  -21   25    4      0.56      0.00
  -20   25    4     -0.73      0.00
  -19   25    4      0.03      0.00
  -18   25    4     -0.04      0.00
  -17   25    4      0.03      0.00
  -16   25    4      2.20      0.00
  -15   25    4      0.16      0.00
  -14   25    4     -1.04      0.00
  -13   25    4      0.91      0.00
  -12   25    4      0.28      0.00
  -11   25    4      0.75      0.00
  -10   25    4      0.39      0.00
   -9   25    4     -0.22      0.00
   -8   25    4     -0.73      0.00
   -7   25    4     -1.27      0.00
   -6   25    4     -1.20      0.00
   -5   25    4     -1.85      0.00
   -4   25    4     -0.33      0.00
   -3   25    4      1.51      0.00
   -2   25    4      0.01      0.00
   -1   25    4      0.09      0.00
    0   25    4      1.39      0.00
  -25   26    4     -0.06      0.00
  -24   26    4     -0.18      0.00
  -23   26    4      0.70      0.00
  -22   26    4     -1.68      0.00
  -21   26    4     -1.88      0.00
  -20   26    4     -0.17      0.00
  -19   26    4     -0.09      0.00
  -18   26    4      1.00      0.00
  -17   26    4      0.37      0.00
  -16   26    4     -0.20      0.00
  -15   26    4      1.16      0.00
  -14   26    4      0.06      0.00
  -13   26    4     -0.65      0.00
  -12   26    4      0.38      0.00
  -11   26    4      1.05      0.00
  -10   26    4      0.56      0.00
   -9   26    4     -1.21      0.00
   -8   26    4     -1.40      0.00
   -7   26    4     -1.81      0.00
   -6   26    4     -1.54      0.00
   -5   26    4     -0.19      0.00
   -4   26    4     -0.71      0.00
   -3   26    4     -0.14      0.00
   -2   26    4      2.24      0.00
   -1   26    4      0.41      0.00
    0   26    4     -0.21      0.00
  -26   27    4      0.43      0.00
  -25   27    4      0.19      0.00
  -24   27    4     -1.14      0.00
  -23   27    4     -1.48      0.00
  -22   27    4      0.08      0.00
  -21   27    4     -1.28      0.00
  -20   27    4     -1.32      0.00
  -19   27    4      0.29      0.00
  -18   27    4      1.16      0.00
  -17   27    4      1.23      0.00
  -16   27    4      0.27      0.00
  -15   27    4     -0.61      0.00
  -14   27    4      0.25      0.00
  -13   27    4      0.68      0.00
  -12   27    4      0.09      0.00
  -11   27    4     -0.68      0.00
  -10   27    4      0.07      0.00
   -9   27    4     -0.49      0.00
   -8   27    4     -2.36      0.00
   -7   27    4     -1.92      0.00
   -6   27    4     -1.23      0.00
   -5   27    4     -0.66      0.00
   -4   27    4      1.37      0.00
   -3   27    4      0.32      0.00
   -2   27    4     -0.16      0.00
   -1   27    4      1.31      0.00
  -25   28    4     -0.14      0.00
  -24   28    4      0.24      0.00
  -23   28    4     -1.42      0.00
  -22   28    4     -1.74      0.00
  -21   28    4      0.25      0.00
  -20   28    4      0.75      0.00
  -19   28    4     -0.12      0.00
  -18   28    4      0.78      0.00
  -17   28    4      1.37      0.00
  -16   28    4      0.82      0.00
  -15   28    4      0.13      0.00
  -14   28    4     -0.55      0.00
  -13   28    4     -0.34      0.00
  -12   28    4      0.70      0.00
  -11   28    4      0.09      0.00
  -10   28    4     -1.97      0.00
   -9   28    4     -1.40      0.00
   -8   28    4     -0.72      0.00
   -7   28    4     -1.63      0.00
   -6   28    4     -0.69      0.00
   -5   28    4     -0.09      0.00
   -4   28    4      0.29      0.00
   -3   28    4      1.47      0.00
  -24   29    4     -0.37      0.00
  -23   29    4      0.41      0.00
  -22   29    4     -0.14      0.00
  -21   29    4     -1.00      0.00
  -20   29    4      0.97      0.00
  -19   29    4      2.20      0.00
  -18   29    4      0.63      0.00
  -17   29    4      0.53      0.00
  -16   29    4      0.83      0.00
  -15   29    4      0.45      0.00
  -14   29    4      0.13      0.00
  -13   29    4     -0.37      0.00
  -12   29    4     -1.08      0.00
  -11   29    4     -0.04      0.00
  -10   29    4     -0.09      0.00
   -9   29    4     -1.99      0.00
   -8   29    4     -1.41      0.00
   -7   29    4     -0.12      0.00
   -6   29    4      0.08      0.00
   -5   29    4      0.44      0.00
  -22   30    4      0.97      0.00
  -21   30    4      1.30      0.00
  -20   30    4     -0.21      0.00
  -19   30    4      1.07      0.00
  -18   30    4      2.22      0.00
  -17   30    4      0.92      0.00
  -16   30    4      0.04      0.00
  -15   30    4      0.23      0.00
  -14   30    4      0.01      0.00
  -13   30    4      0.20      0.00
  -12   30    4     -0.34      0.00
  -11   30    4     -1.53      0.00
  -10   30    4     -0.42      0.00
   -9   30    4      0.08      0.00
   -8   30    4     -0.63      0.00
  -18   31    4      0.55      0.00
  -17   31    4      1.54      0.00
  -16   31    4      0.78      0.00
  -15   31    4     -0.08      0.00
  -14   31    4     -0.26      0.00
  -13   31    4     -0.58      0.00
    0    0    5      9.45      0.00
    0    1    5     -1.97      0.00
   -1    2    5      4.12      0.00
    0    2    5     -5.25      0.00
   -2    3    5     -7.04      0.00
   -1    3    5     -7.15      0.00
    0    3    5     -1.44      0.00
   -3    4    5     -6.69      0.00
   -2    4    5     -2.67      0.00
   -1    4    5     -7.35      0.00
    0    4    5     -6.60      0.00
   -4    5    5     -2.24      0.00
   -3    5    5     -5.61      0.00
   -2    5    5     -5.53      0.00
   -1    5    5     -3.50      0.00
    0    5    5     -1.78      0.00
   -5    6    5      0.01      0.00
   -4    6    5      0.49      0.00
   -3    6    5     -2.26      0.00
   -2    6    5     -3.00      0.00
   -1    6    5     -0.86      0.00
    0    6    5     -0.63      0.00
   -6    7    5      6.15      0.00
   -5    7    5      0.84      0.00
   -4    7    5      0.18      0.00
   -3    7    5      1.71      0.00
   -2    7    5     -2.03      0.00
   -1    7    5      2.56      0.00
    0    7    5      4.45      0.00
   -7    8    5      0.74      0.00
   -6    8    5      3.84      0.00
   -5    8    5      6.60      0.00
   -4    8    5     -0.47      0.00
   -3    8    5      0.34      0.00
   -2    8    5      3.83      0.00
   -1    8    5     -0.52      0.00
    0    8    5      5.86      0.00
   -8    9    5      4.27      0.00
   -7    9    5      6.90      0.00
   -6    9    5      0.06      0.00
   -5    9    5      1.02      0.00
   -4    9    5      5.19      0.00
   -3    9    5     -1.10      0.00
   -2    9    5      2.40      0.00
   -1    9    5      5.18      0.00
    0    9    5     -0.59      0.00
   -9   10    5      3.54      0.00
   -8   10    5     -1.93      0.00
   -7   10    5      1.30      0.00
   -6   10    5      5.55      0.00
   -5   10    5     -0.90      0.00
   -4   10    5     -0.01      0.00
   -3   10    5      4.93      0.00
   -2   10    5     -0.03      0.00
   -1   10    5      3.12      0.00
    0   10    5      3.80      0.00
  -10   11    5     -1.77      0.00
   -9   11    5      1.45      0.00
   -8   11    5      2.61      0.00
   -7   11    5     -2.27      0.00
   -6   11    5     -0.62      0.00
   -5   11    5      4.82      0.00
   -4   11    5      0.14      0.00
   -3   11    5      1.14      0.00
   -2   11    5      4.30      0.00
   -1   11    5      0.19      0.00
    0   11    5      1.46      0.00
  -11   12    5      2.60      0.00
  -10   12    5      0.51      0.00
   -9   12    5     -2.92      0.00
   -8   12    5     -0.36      0.00
   -7   12    5      3.05      0.00
   -6   12    5     -0.55      0.00
   -5   12    5     -0.10      0.00
   -4   12    5      4.15      0.00
   -3   12    5      0.94      0.00
   -2   12    5      1.03      0.00
   -1   12    5      2.48      0.00
    0   12    5      0.07      0.00
  -12   13    5      0.99      0.00
  -11   13    5     -0.40      0.00
  -10   13    5      1.49      0.00
   -9   13    5      0.60      0.00
   -8   13    5     -1.72      0.00
   -7   13    5     -0.13      0.00
   -6   13    5      3.69      0.00
   -5   13    5      0.76      0.00
   -4   13    5      0.03      0.00
   -3   13    5      1.66      0.00
   -2   13    5     -0.25      0.00
   -1   13    5      0.16      0.00
    0   13    5      2.05      0.00
  -13   14    5      1.61      0.00
  -12   14    5      3.55      0.00
  -11   14    5      0.65      0.00
  -10   14    5     -0.54      0.00
   -9   14    5      0.90      0.00
   -8   14    5      2.00      0.00
   -7   14    5     -0.39      0.00
   -6   14    5     -0.20      0.00
   -5   14    5      1.94      0.00
   -4   14    5     -0.36      0.00
   -3   14    5     -1.21      0.00
   -2   14    5     -0.79      0.00
   -1   14    5     -0.96      0.00
    0   14    5      1.29      0.00
  -14   15    5      3.30      0.00
  -13   15    5      2.23      0.00
  -12   15    5      2.30      0.00
  -11   15    5      2.73      0.00
  -10   15    5      0.91      0.00
   -9   15    5     -0.55      0.00
   -8   15    5      0.16      0.00
   -7   15    5      1.72      0.00
   -6   15    5     -0.89      0.00
   -5   15    5     -1.38      0.00
   -4   15    5     -0.95      0.00
   -3   15    5     -2.28      0.00
   -2   15    5     -1.28      0.00
   -1   15    5     -0.39      0.00
    0   15    5      0.42      0.00
  -15   16    5      2.67      0.00
  -14   16    5      3.04      0.00
  -13   16    5      3.51      0.00
  -12   16    5      1.45      0.00
  -11   16    5      1.54      0.00
  -10   16    5      1.29      0.00
   -9   16    5      0.90      0.00
   -8   16    5     -1.68      0.00
   -7   16    5     -1.30      0.00
   -6   16    5      0.22      0.00
   -5   16    5     -1.77      0.00
   -4   16    5     -1.89      0.00
   -3   16    5     -2.19      0.00
   -2   16    5     -2.48      0.00
   -1   16    5      0.69      0.00
    0   16    5      1.46      0.00
  -16   17    5      1.28      0.00
  -15   17    5      2.78      0.00
  -14   17    5      1.90      0.00
  -13   17    5      2.83      0.00
  -12   17    5      1.91      0.00
  -11   17    5      1.02      0.00
  -10   17    5     -0.10      0.00
   -9   17    5     -0.62      0.00
   -8   17    5      0.01      0.00
   -7   17    5     -2.28      0.00
   -6   17    5     -1.57      0.00
   -5   17    5     -0.43      0.00
   -4   17    5     -1.96      0.00
   -3   17    5     -0.93      0.00
   -2   17    5     -1.18      0.00
   -1   17    5     -1.22      0.00
    0   17    5      1.75      0.00
  -17   18    5      1.71      0.00
  -16   18    5      1.51      0.00
  -15   18    5      1.71      0.00
  -14   18    5      0.96      0.00
  -13   18    5      0.87      0.00
  -12   18    5      2.11      0.00
  -11   18    5      0.81      0.00
  -10   18    5      0.34      0.00
   -9   18    5     -1.96      0.00
   -8   18    5     -1.75      0.00
   -7   18    5      0.20      0.00
   -6   18    5     -1.17      0.00
   -5   18    5     -0.60      0.00
   -4   18    5     -0.51      0.00
   -3   18    5     -1.72      0.00
   -2   18    5      0.40      0.00
   -1   18    5      0.24      0.00
    0   18    5     -0.68      0.00
  -18   19    5      0.73      0.00
  -17   19    5      0.16      0.00
  -16   19    5      0.37      0.00
  -15   19    5     -0.10      0.00
  -14   19    5      1.40      0.00
  -13   19    5      0.44      0.00
  -12   19    5      1.23      0.00
  -11   19    5      0.95      0.00
  -10   19    5     -0.45      0.00
   -9   19    5     -0.31      0.00
   -8   19    5     -2.01      0.00
   -7   19    5     -1.05      0.00
   -6   19    5      0.98      0.00
   -5   19    5     -0.29      0.00
   -4   19    5      0.16      0.00
   -3   19    5     -0.49      0.00
   -2   19    5     -1.42      0.00
   -1   19    5      0.67      0.00
    0   19    5      0.72      0.00
  -19   20    5     -0.65      0.00
  -18   20    5      0.80      0.00
  -17   20    5     -0.41      0.00
  -16   20    5     -0.36      0.00
  -15   20    5     -1.00      0.00
  -14   20    5      0.47      0.00
  -13   20    5      2.19      0.00
  -12   20    5      0.97      0.00
  -11   20    5      0.81      0.00
  -10   20    5     -0.73      0.00
   -9   20    5     -1.16      0.00
   -8   20    5      0.28      0.00
   -7   20    5     -0.73      0.00
   -6   20    5     -0.10      0.00
   -5   20    5      0.68      0.00
   -4   20    5     -0.31      0.00
   -3   20    5      0.55      0.00
   -2   20    5     -0.28      0.00
   -1   20    5     -1.25      0.00
    0   20    5      0.36      0.00
  -20   21    5      0.85      0.00
  -19   21    5     -0.07      0.00
  -18   21    5     -0.53      0.00
  -17   21    5     -0.60      0.00
  -16   21    5     -0.62      0.00
  -15   21    5      0.43      0.00
  -14   21    5      0.15      0.00
  -13   21    5      1.71      0.00
  -12   21    5      1.78      0.00
  -11   21    5      0.35      0.00
  -10   21    5      0.08      0.00
   -9   21    5     -1.26      0.00
   -8   21    5     -0.78      0.00
   -7   21    5      0.83      0.00
   -6   21    5      0.04      0.00
   -5   21    5      0.39      0.00
   -4   21    5      0.02      0.00
   -3   21    5     -0.44      0.00
   -2   21    5      0.73      0.00
   -1   21    5      0.14      0.00
    0   21    5     -0.68      0.00
  -21   22    5      0.30      0.00
  -20   22    5     -0.12      0.00
  -19   22    5      0.60      0.00
  -18   22    5     -0.55      0.00
  -17   22    5     -0.65      0.00
  -16   22    5     -0.62      0.00
  -15   22    5      1.10      0.00
  -14   22    5      1.67      0.00
  -13   22    5      0.84      0.00
  -12   22    5      1.14      0.00
  -11   22    5      0.25      0.00
  -10   22    5     -0.11      0.00
   -9   22    5      0.40      0.00
   -8   22    5     -0.77      0.00
   -7   22    5     -0.26      0.00
   -6   22    5      0.46      0.00
   -5   22    5      0.38      0.00
   -4   22    5      0.88      0.00
   -3   22    5     -0.15      0.00
   -2   22    5     -0.40      0.00
   -1   22    5      0.89      0.00
    0   22    5      0.60      0.00
  -22   23    5     -0.12      0.00
  -21   23    5      0.75      0.00
  -20   23    5     -0.27      0.00
  -19   23    5     -0.26      0.00
  -18   23    5     -0.11      0.00
  -17   23    5      0.29      0.00
  -16   23    5      0.24      0.00
  -15   23    5      0.22      0.00
  -14   23    5      1.65      0.00
  -13   23    5      1.08      0.00
  -12   23    5      0.42      0.00
  -11   23    5      0.62      0.00
  -10   23    5     -0.33      0.00
   -9   23    5      0.20      0.00
   -8   23    5      0.57      0.00
   -7   23    5     -0.22      0.00
   -6   23    5      0.07      0.00
   -5   23    5     -0.10      0.00
   -4   23    5      0.55      0.00
   -3   23    5      1.23      0.00
   -2   23    5      0.08      0.00
   -1   23    5     -0.12      0.00
    0   23    5      0.70      0.00
  -23   24    5      0.41      0.00
  -22   24    5     -0.25      0.00
  -21   24    5     -0.10      0.00
  -20   24    5      0.01      0.00
  -19   24    5     -0.56      0.00
  -18   24    5     -0.34      0.00
  -17   24    5      0.12      0.00
  -16   24    5      1.45      0.00
  -15   24    5      0.44      0.00
  -14   24    5     -0.12      0.00
  -13   24    5      0.76      0.00
  -12   24    5      0.17      0.00
  -11   24    5      0.79      0.00
  -10   24    5      0.90      0.00
   -9   24    5     -0.28      0.00
   -8   24    5      0.04      0.00
   -7   24    5     -0.19      0.00
   -6   24    5      0.16      0.00
   -5   24    5      0.36      0.00
   -4   24    5     -0.36      0.00
   -3   24    5      0.55      0.00
   -2   24    5      1.28      0.00
   -1   24    5      0.29      0.00
    0   24    5     -0.16      0.00
  -24   25    5     -0.40      0.00
  -23   25    5     -0.49      0.00
  -22   25    5     -0.29      0.00
  -21   25    5     -1.30      0.00
  -20   25    5     -0.58      0.00
  -19   25    5     -0.28      0.00
  -18   25    5      0.31      0.00
  -17   25    5     -0.12      0.00
  -16   25    5      0.01      0.00
  -15   25    5      1.03      0.00
  -14   25    5     -0.40      0.00
  -13   25    5     -0.22      0.00
  -12   25    5      0.47      0.00
  -11   25    5      0.07      0.00
  -10   25    5      1.12      0.00
   -9   25    5      0.35      0.00
   -8   25    5     -0.46      0.00
   -7   25    5     -0.66      0.00
   -6   25    5     -1.07      0.00
   -5   25    5      0.48      0.00
   -4   25    5      0.84      0.00
   -3   25    5     -0.12      0.00
   -2   25    5      0.49      0.00
   -1   25    5      0.67      0.00
    0   25    5      0.03      0.00
  -25   26    5     -0.85      0.00
  -24   26    5     -0.26      0.00
  -23   26    5     -1.44      0.00
  -22   26    5     -0.87      0.00
  -21   26    5     -1.02      0.00
  -20   26    5     -1.34      0.00
  -19   26    5     -0.57      0.00
  -18   26    5      0.25      0.00
  -17   26    5      1.05      0.00
  -16   26    5     -0.62      0.00
  -15   26    5     -0.67      0.00
  -14   26    5      0.02      0.00
  -13   26    5     -0.73      0.00
  -12   26    5      0.64      0.00
  -11   26    5      0.37      0.00
  -10   26    5     -0.17      0.00
   -9   26    5      0.19      0.00
   -8   26    5     -0.95      0.00
   -7   26    5     -0.48      0.00
   -6   26    5     -0.65      0.00
   -5   26    5     -0.99      0.00
   -4   26    5      1.03      0.00
   -3   26    5      1.32      0.00
   -2   26    5      0.06      0.00
   -1   26    5     -0.01      0.00
    0   26    5     -0.41      0.00
  -26   27    5     -0.11      0.00
  -25   27    5     -1.31      0.00
  -24   27    5     -1.09      0.00
  -23   27    5     -0.89      0.00
  -22   27    5     -1.90      0.00
  -21   27    5     -0.93      0.00
  -20   27    5     -0.41      0.00
  -19   27    5     -0.09      0.00
  -18   27    5     -0.44      0.00
  -17   27    5      0.36      0.00
  -16   27    5      0.67      0.00
  -15   27    5     -1.29      0.00
  -14   27    5     -0.55      0.00
  -13   27    5     -0.50      0.00
  -12   27    5     -0.55      0.00
  -11   27    5      0.96      0.00
  -10   27    5     -0.27      0.00
   -9   27    5     -0.57      0.00
   -8   27    5     -0.76      0.00
   -7   27    5     -1.38      0.00
   -6   27    5      0.40      0.00
   -5   27    5      0.65      0.00
   -4   27    5     -0.20      0.00
   -3   27    5      1.20      0.00
   -2   27    5      0.91      0.00
   -1   27    5     -0.21      0.00
  -24   28    5     -1.51      0.00
  -23   28    5     -1.02      0.00
  -22   28    5     -0.75      0.00
  -21   28    5     -0.99      0.00
  -20   28    5     -0.40      0.00
  -19   28    5      0.82      0.00
  -18   28    5      0.94      0.00
  -17   28    5     -0.76      0.00
  -16   28    5      0.13      0.00
  -15   28    5     -0.19      0.00
  -14   28    5     -1.31      0.00
  -13   28    5      0.17      0.00
  -12   28    5     -0.62      0.00
  -11   28    5     -0.41      0.00
  -10   28    5      0.53      0.00
   -9   28    5     -0.56      0.00
   -8   28    5     -0.18      0.00
   -7   28    5     -0.10      0.00
   -6   28    5     -0.53      0.00
   -5   28    5      1.54      0.00
   -4   28    5      1.65      0.00
  -23   29    5     -0.82      0.00
  -22   29    5     -0.39      0.00
  -21   29    5      0.48      0.00
  -20   29    5      0.50      0.00
  -19   29    5     -0.17      0.00
  -18   29    5      1.44      0.00
  -17   29    5      0.98      0.00
  -16   29    5     -1.01      0.00
  -15   29    5      0.11      0.00
  -14   29    5     -0.78      0.00
  -13   29    5     -0.86      0.00
  -12   29    5      0.73      0.00
  -11   29    5     -0.16      0.00
  -10   29    5     -0.12      0.00
   -9   29    5      0.54      0.00
   -8   29    5      0.04      0.00
   -7   29    5      0.99      0.00
   -6   29    5      1.33      0.00
  -20   30    5      1.58      0.00
  -19   30    5      1.30      0.00
  -18   30    5     -0.28      0.00
  -17   30    5      1.32      0.00
  -16   30    5      0.33      0.00
  -15   30    5     -0.86      0.00
  -14   30    5      0.30      0.00
  -13   30    5     -0.53      0.00
  -12   30    5     -0.34      0.00
  -11   30    5      1.05      0.00
  -10   30    5      0.67      0.00
    0    0    6     -7.55      0.00
    0    1    6     -2.99      0.00
   -1    2    6    -11.59      0.00
    0    2    6     -4.63      0.00
   -2    3    6     -6.00      0.00
   -1    3    6     -4.47      0.00
    0    3    6    -14.67      0.00
   -3    4    6     -3.42      0.00
   -2    4    6    -14.70      0.00
   -1    4    6     -6.04      0.00
    0    4    6     -3.92      0.00
   -4    5    6    -10.53      0.00
   -3    5    6     -5.09      0.00
   -2    5    6     -1.22      0.00
   -1    5    6    -11.57      0.00
    0    5    6     -0.91      0.00
   -5    6    6     -0.32      0.00
   -4    6    6      2.15      0.00
   -3    6    6     -8.52      0.00
   -2    6    6     -2.98      0.00
   -1    6    6      0.53      0.00
    0    6    6     -2.41      0.00
   -6    7    6      3.99      0.00
   -5    7    6     -0.74      0.00
   -4    7    6     -0.53      0.00
   -3    7    6      2.29      0.00
   -2    7    6     -3.86      0.00
   -1    7    6      1.65      0.00
    0    7    6      1.85      0.00
   -7    8    6      5.14      0.00
   -6    8    6      1.98      0.00
   -5    8    6      3.76      0.00
   -4    8    6     -0.77      0.00
   -3    8    6      0.89      0.00
   -2    8    6      0.97      0.00
   -1    8    6      2.72      0.00
    0    8    6      3.59      0.00
   -8    9    6      1.27      0.00
   -7    9    6      3.06      0.00
   -6    9    6      3.99      0.00
   -5    9    6      1.90      0.00
   -4    9    6      0.67      0.00
   -3    9    6      0.53      0.00
   -2    9    6      2.94      0.00
   -1    9    6      0.48      0.00
    0    9    6      5.62      0.00
   -9   10    6      2.15      0.00
   -8   10    6      5.22      0.00
   -7   10    6      1.06      0.00
   -6   10    6      0.85      0.00
   -5   10    6      1.67      0.00
   -4   10    6      2.89      0.00
   -3   10    6     -1.30      0.00
   -2   10    6      2.98      0.00
   -1   10    6      3.14      0.00
    0   10    6      0.87      0.00
  -10   11    6      3.91      0.00
   -9   11    6      0.14      0.00
   -8   11    6      1.11      0.00
   -7   11    6      2.89      0.00
   -6   11    6      2.15      0.00
   -5   11    6     -1.32      0.00
   -4   11    6      1.26      0.00
   -3   11    6      3.38      0.00
   -2   11    6     -0.54      0.00
   -1   11    6      3.26      0.00
    0   11    6      2.37      0.00
  -11   12    6      1.80      0.00
  -10   12    6      2.39      0.00
   -9   12    6      2.44      0.00
   -8   12    6      0.28      0.00
   -7   12    6      0.62      0.00
   -6   12    6      1.70      0.00
   -5   12    6      3.11      0.00
   -4   12    6     -2.05      0.00
   -3   12    6      1.30      0.00
   -2   12    6      2.07      0.00
   -1   12    6      1.16      0.00
    0   12    6      1.99      0.00
  -12   13    6      2.98      0.00
  -11   13    6      2.36      0.00
  -10   13    6      0.59      0.00
   -9   13    6      3.07      0.00
   -8   13    6      1.65      0.00
   -7   13    6      1.59      0.00
   -6   13    6     -0.58      0.00
   -5   13    6      1.15      0.00
   -4   13    6      1.65      0.00
   -3   13    6     -1.54      0.00
   -2   13    6      0.07      0.00
   -1   13    6      0.75      0.00
    0   13    6      2.29      0.00
  -13   14    6      2.35      0.00
  -12   14    6      2.67      0.00
  -11   14    6      4.60      0.00
  -10   14    6      1.56      0.00
   -9   14    6      0.40      0.00
   -8   14    6      2.60      0.00
   -7   14    6      1.51      0.00
   -6   14    6      0.78      0.00
   -5   14    6     -2.31      0.00
   -4   14    6     -0.11      0.00
   -3   14    6     -0.78      0.00
   -2   14    6     -0.87      0.00
   -1   14    6     -0.49      0.00
    0   14    6      1.11      0.00
  -14   15    6      2.51      0.00
  -13   15    6      3.61      0.00
  -12   15    6      2.61      0.00
  -11   15    6      1.36      0.00
  -10   15    6      4.81      0.00
   -9   15    6      1.11      0.00
   -8   15    6     -0.28      0.00
   -7   15    6     -0.38      0.00
   -6   15    6      0.97      0.00
   -5   15    6     -1.22      0.00
   -4   15    6     -2.93      0.00
   -3   15    6     -1.51      0.00
   -2   15    6     -1.46      0.00
   -1   15    6     -0.25      0.00
    0   15    6      1.17      0.00
  -15   16    6      1.35      0.00
  -14   16    6      3.25      0.00
  -13   16    6      2.18      0.00
  -12   16    6      4.14      0.00
  -11   16    6      1.34      0.00
  -10   16    6      0.32      0.00
   -9   16    6      2.21      0.00
   -8   16    6      0.67      0.00
   -7   16    6     -1.90      0.00
   -6   16    6     -2.47      0.00
   -5   16    6      0.59      0.00
   -4   16    6     -1.58      0.00
   -3   16    6     -2.66      0.00
   -2   16    6     -1.42      0.00
   -1   16    6     -0.34      0.00
    0   16    6      0.41      0.00
  -16   17    6      2.22      0.00
  -15   17    6      1.38      0.00
  -14   17    6      1.45      0.00
  -13   17    6      1.89      0.00
  -12   17    6      1.28      0.00
  -11   17    6      3.07      0.00
  -10   17    6      0.29      0.00
   -9   17    6     -1.23      0.00
   -8   17    6     -1.04      0.00
   -7   17    6      1.13      0.00
   -6   17    6     -1.39      0.00
   -5   17    6     -2.03      0.00
   -4   17    6      0.21      0.00
   -3   17    6     -0.55      0.00
   -2   17    6     -2.01      0.00
   -1   17    6     -0.08      0.00
    0   17    6      0.11      0.00
  -17   18    6      0.42      0.00
  -16   18    6     -0.24      0.00
  -15   18    6      1.69      0.00
  -14   18    6      0.43      0.00
  -13   18    6      0.97      0.00
  -12   18    6      0.47      0.00
  -11   18    6      1.07      0.00
  -10   18    6      0.70      0.00
   -9   18    6     -0.07      0.00
   -8   18    6     -1.65      0.00
   -7   18    6     -1.10      0.00
   -6   18    6      2.26      0.00
   -5   18    6      0.63      0.00
   -4   18    6     -1.57      0.00
   -3   18    6     -0.24      0.00
   -2   18    6      0.09      0.00
   -1   18    6     -0.93      0.00
    0   18    6      0.03      0.00
  -18   19    6     -0.74      0.00
  -17   19    6      0.60      0.00
  -16   19    6     -0.33      0.00
  -15   19    6     -1.27      0.00
  -14   19    6     -0.05      0.00
  -13   19    6      1.18      0.00
  -12   19    6      1.00      0.00
  -11   19    6     -0.08      0.00
  -10   19    6      0.31      0.00
   -9   19    6     -0.52      0.00
   -8   19    6      0.88      0.00
   -7   19    6      0.21      0.00
   -6   19    6      0.20      0.00
   -5   19    6      2.05      0.00
   -4   19    6      1.25      0.00
   -3   19    6     -1.55      0.00
   -2   19    6     -0.57      0.00
   -1   19    6     -0.49      0.00
    0   19    6      0.05      0.00
  -19   20    6     -0.99      0.00
  -18   20    6      0.21      0.00
  -17   20    6     -1.30      0.00
  -16   20    6     -0.65      0.00
  -15   20    6     -0.66      0.00
  -14   20    6     -0.43      0.00
  -13   20    6     -0.02      0.00
  -12   20    6      2.28      0.00
  -11   20    6      0.53      0.00
  -10   20    6     -0.43      0.00
   -9   20    6      0.10      0.00
   -8   20    6      0.44      0.00
   -7   20    6      1.79      0.00
   -6   20    6      1.49      0.00
   -5   20    6     -0.02      0.00
   -4   20    6      1.03      0.00
   -3   20    6      0.37      0.00
   -2   20    6     -0.86      0.00
   -1   20    6     -1.21      0.00
    0   20    6     -1.22      0.00
  -20   21    6      0.66      0.00
  -19   21    6     -0.94      0.00
  -18   21    6     -0.81      0.00
  -17   21    6     -0.85      0.00
  -16   21    6     -0.86      0.00
  -15   21    6     -0.72      0.00
  -14   21    6      1.09      0.00
  -13   21    6      0.85      0.00
  -12   21    6      0.00      0.00
  -11   21    6      1.64      0.00
  -10   21    6      0.34      0.00
   -9   21    6     -0.24      0.00
   -8   21    6      0.67      0.00
   -7   21    6      0.92      0.00
   -6   21    6      1.71      0.00
   -5   21    6      0.94      0.00
   -4   21    6     -0.41      0.00
   -3   21    6      0.33      0.00
   -2   21    6     -0.66      0.00
   -1   21    6      0.11      0.00
    0   21    6     -1.33      0.00
  -21   22    6     -0.90      0.00
  -20   22    6     -0.76      0.00
  -19   22    6      0.23      0.00
  -18   22    6     -0.35      0.00
  -17   22    6     -0.86      0.00
  -16   22    6     -0.59      0.00
  -15   22    6      0.87      0.00
  -14   22    6      0.17      0.00
  -13   22    6      1.68      0.00
  -12   22    6      0.53      0.00
  -11   22    6     -0.64      0.00
  -10   22    6      0.98      0.00
   -9   22    6      0.68      0.00
   -8   22    6      0.19      0.00
   -7   22    6      0.49      0.00
   -6   22    6      0.35      0.00
   -5   22    6      1.72      0.00
   -4   22    6      0.04      0.00
   -3   22    6     -0.07      0.00
   -2   22    6     -0.33      0.00
   -1   22    6     -0.81      0.00
    0   22    6      0.62      0.00
  -22   23    6     -0.35      0.00
  -21   23    6      0.60      0.00
  -20   23    6     -0.59      0.00
  -19   23    6     -0.34      0.00
  -18   23    6     -0.65      0.00
  -17   23    6      1.03      0.00
  -16   23    6     -0.08      0.00
  -15   23    6      0.17      0.00
  -14   23    6      0.98      0.00
  -13   23    6     -0.15      0.00
  -12   23    6      0.91      0.00
  -11   23    6     -0.01      0.00
  -10   23    6     -0.70      0.00
   -9   23    6      0.80      0.00
   -8   23    6      0.42      0.00
   -7   23    6      0.76      0.00
   -6   23    6     -0.27      0.00
   -5   23    6      0.18      0.00
   -4   23    6      1.50      0.00
   -3   23    6     -0.30      0.00
   -2   23    6      0.17      0.00
   -1   23    6     -0.57      0.00
    0   23    6     -0.43      0.00
  -23   24    6      0.16      0.00
  -22   24    6     -0.79      0.00
  -21   24    6      0.38      0.00
  -20   24    6     -0.39      0.00
  -19   24    6      0.05      0.00
  -18   24    6     -0.13      0.00
  -17   24    6     -0.61      0.00
  -16   24    6      1.70      0.00
  -15   24    6      0.03      0.00
  -14   24    6     -0.42      0.00
  -13   24    6     -0.54      0.00
  -12   24    6     -0.65      0.00
  -11   24    6      0.96      0.00
  -10   24    6     -0.16      0.00
   -9   24    6     -0.33      0.00
   -8   24    6      0.03      0.00
   -7   24    6     -0.02      0.00
   -6   24    6      1.19      0.00
   -5   24    6     -0.71      0.00
   -4   24    6      0.19      0.00
   -3   24    6      0.57      0.00
   -2   24    6     -0.02      0.00
   -1   24    6      0.02      0.00
    0   24    6     -0.39      0.00
  -24   25    6     -0.63      0.00
  -23   25    6      0.40      0.00
  -22   25    6     -0.51      0.00
  -21   25    6     -1.16      0.00
  -20   25    6      0.27      0.00
  -19   25    6     -0.97      0.00
  -18   25    6      0.99      0.00
  -17   25    6     -0.08      0.00
  -16   25    6     -0.91      0.00
  -15   25    6      0.21      0.00
  -14   25    6     -0.71      0.00
  -13   25    6     -0.68      0.00
  -12   25    6     -1.48      0.00
  -11   25    6     -0.43      0.00
  -10   25    6      1.10      0.00
   -9   25    6     -0.38      0.00
   -8   25    6     -0.16      0.00
   -7   25    6     -1.09      0.00
   -6   25    6     -0.02      0.00
   -5   25    6      0.85      0.00
   -4   25    6     -0.37      0.00
   -3   25    6      0.11      0.00
   -2   25    6     -0.21      0.00
   -1   25    6     -0.01      0.00
    0   25    6     -0.28      0.00
  -25   26    6     -0.59      0.00
  -24   26    6     -0.72      0.00
  -23   26    6     -1.27      0.00
  -22   26    6      0.77      0.00
  -21   26    6     -1.40      0.00
  -20   26    6     -0.86      0.00
  -19   26    6     -0.12      0.00
  -18   26    6     -0.67      0.00
  -17   26    6      0.92      0.00
  -16   26    6     -0.73      0.00
  -15   26    6     -1.69      0.00
  -14   26    6     -1.75      0.00
  -13   26    6     -0.78      0.00
  -12   26    6      0.16      0.00
  -11   26    6     -1.48      0.00
  -10   26    6     -0.29      0.00
   -9   26    6      0.21      0.00
   -8   26    6     -0.21      0.00
   -7   26    6     -0.31      0.00
   -6   26    6     -1.37      0.00
   -5   26    6      0.38      0.00
   -4   26    6      0.45      0.00
   -3   26    6      0.36      0.00
   -2   26    6      0.12      0.00
   -1   26    6     -0.66      0.00
    0   26    6     -0.70      0.00
  -25   27    6     -1.07      0.00
  -24   27    6      0.17      0.00
  -23   27    6     -1.49      0.00
  -22   27    6     -1.43      0.00
  -21   27    6      0.45      0.00
  -20   27    6     -0.96      0.00
  -19   27    6      0.00      0.00
  -18   27    6     -0.61      0.00
  -17   27    6     -0.70      0.00
  -16   27    6     -0.35      0.00
  -15   27    6     -1.14      0.00
  -14   27    6     -1.64      0.00
  -13   27    6     -2.52      0.00
  -12   27    6     -0.22      0.00
  -11   27    6      0.76      0.00
  -10   27    6     -0.62      0.00
   -9   27    6     -0.43      0.00
   -8   27    6     -0.73      0.00
   -7   27    6      0.67      0.00
   -6   27    6     -0.03      0.00
   -5   27    6     -0.28      0.00
   -4   27    6      1.00      0.00
   -3   27    6      0.43      0.00
   -2   27    6      0.19      0.00
  -23   28    6      0.57      0.00
  -22   28    6     -1.47      0.00
  -21   28    6     -0.69      0.00
  -20   28    6      0.10      0.00
  -19   28    6      0.19      0.00
  -18   28    6      0.36      0.00
  -17   28    6     -0.99      0.00
  -16   28    6     -1.10      0.00
  -15   28    6     -1.53      0.00
  -14   28    6     -0.60      0.00
  -13   28    6     -0.81      0.00
  -12   28    6     -1.73      0.00
  -11   28    6      0.40      0.00
  -10   28    6      0.82      0.00
   -9   28    6      1.00      0.00
   -8   28    6     -0.22      0.00
   -7   28    6     -0.43      0.00
   -6   28    6      1.81      0.00
   -5   28    6      0.97      0.00
  -21   29    6     -0.14      0.00
  -20   29    6      0.21      0.00
  -19   29    6     -0.20      0.00
  -18   29    6      0.67      0.00
  -17   29    6      0.14      0.00
  -16   29    6     -0.66      0.00
  -15   29    6     -1.34      0.00
  -14   29    6     -1.72      0.00
  -13   29    6      0.57      0.00
  -12   29    6      0.32      0.00
  -11   29    6      0.33      0.00
  -10   29    6      0.86      0.00
   -9   29    6      0.93      0.00
   -8   29    6      2.45      0.00
  -16   30    6     -0.22      0.00
  -15   30    6      0.29      0.00
  -14   30    6     -1.01      0.00
    0    0    7      8.53      0.00
    0    1    7      7.76      0.00
   -1    2    7      2.93      0.00
    0    2    7      4.52      0.00
   -2    3    7      2.25      0.00
   -1    3    7      3.77      0.00
    0    3    7     -3.29      0.00
   -3    4    7      1.30      0.00
   -2    4    7     -4.81      0.00
   -1    4    7     -1.08      0.00
    0    4    7      1.53      0.00
   -4    5    7     -4.71      0.00
   -3    5    7     -1.09      0.00
   -2    5    7      2.41      0.00
   -1    5    7     -5.63      0.00
    0    5    7     -1.27      0.00
   -5    6    7      1.44      0.00
   -4    6    7      1.46      0.00
   -3    6    7     -4.78      0.00
   -2    6    7     -2.42      0.00
   -1    6    7      2.39      0.00
    0    6    7     -1.25      0.00
   -6    7    7     -0.29      0.00
   -5    7    7     -0.19      0.00
   -4    7    7     -0.03      0.00
   -3    7    7      1.90      0.00
   -2    7    7     -3.32      0.00
   -1    7    7     -1.59      0.00
    0    7    7      1.96      0.00
   -7    8    7      3.32      0.00
   -6    8    7      1.57      0.00
   -5    8    7      0.26      0.00
   -4    8    7     -1.67      0.00
   -3    8    7     -0.44      0.00
   -2    8    7      0.84      0.00
   -1    8    7      0.50      0.00
    0    8    7     -1.45      0.00
   -8    9    7      0.32      0.00
   -7    9    7     -1.82      0.00
   -6    9    7      2.05      0.00
   -5    9    7      1.34      0.00
   -4    9    7     -0.91      0.00
   -3    9    7     -2.18      0.00
   -2    9    7     -0.10      0.00
   -1    9    7      0.35      0.00
    0    9    7      2.65      0.00
   -9   10    7     -1.99      0.00
   -8   10    7      2.99      0.00
   -7   10    7      0.12      0.00
   -6   10    7     -2.17      0.00
   -5   10    7     -0.97      0.00
   -4   10    7      1.90      0.00
   -3   10    7     -1.34      0.00
   -2   10    7     -0.62      0.00
   -1   10    7     -0.29      0.00
    0   10    7      0.53      0.00
  -10   11    7      1.70      0.00
   -9   11    7     -1.33      0.00
   -8   11    7     -2.15      0.00
   -7   11    7      0.92      0.00
   -6   11    7      1.69      0.00
   -5   11    7     -2.23      0.00
   -4   11    7     -2.14      0.00
   -3   11    7      1.85      0.00
   -2   11    7      0.35      0.00
   -1   11    7      0.48      0.00
    0   11    7     -0.40      0.00
  -11   12    7      0.41      0.00
  -10   12    7     -0.45      0.00
   -9   12    7      0.85      0.00
   -8   12    7     -0.97      0.00
   -7   12    7     -1.12      0.00
   -6   12    7     -0.53      0.00
   -5   12    7      2.79      0.00
   -4   12    7     -1.28      0.00
   -3   12    7     -1.60      0.00
   -2   12    7      0.64      0.00
   -1   12    7      1.99      0.00
    0   12    7      0.36      0.00
  -12   13    7      0.53      0.00
  -11   13    7      0.61      0.00
  -10   13    7     -1.73      0.00
   -9   13    7      0.98      0.00
   -8   13    7      0.51      0.00
   -7   13    7      1.03      0.00
   -6   13    7     -0.96      0.00
   -5   13    7     -1.02      0.00
   -4   13    7      1.51      0.00
   -3   13    7      0.50      0.00
   -2   13    7     -1.26      0.00
   -1   13    7     -0.59      0.00
    0   13    7      1.53      0.00
  -13   14    7      0.75      0.00
  -12   14    7     -0.20      0.00
  -11   14    7      2.09      0.00
  -10   14    7      0.29      0.00
   -9   14    7     -1.27      0.00
   -8   14    7      1.29      0.00
   -7   14    7      0.61      0.00
   -6   14    7      0.85      0.00
   -5   14    7     -1.19      0.00
   -4   14    7     -1.18      0.00
   -3   14    7     -0.55      0.00
   -2   14    7      1.01      0.00
   -1   14    7     -0.96      0.00
    0   14    7     -0.60      0.00
  -14   15    7     -0.13      0.00
  -13   15    7      1.04      0.00
  -12   15    7      0.59      0.00
  -11   15    7     -1.51      0.00
  -10   15    7      2.84      0.00
   -9   15    7      0.66      0.00
   -8   15    7     -0.93      0.00
   -7   15    7     -0.76      0.00
   -6   15    7      0.53      0.00
   -5   15    7     -0.42      0.00
   -4   15    7     -0.55      0.00
   -3   15    7     -1.41      0.00
   -2   15    7     -1.44      0.00
   -1   15    7     -0.22      0.00
    0   15    7      0.49      0.00
  -15   16    7      0.00      0.00
  -14   16    7      1.38      0.00
  -13   16    7     -1.30      0.00
  -12   16    7      1.62      0.00
  -11   16    7      0.00      0.00
  -10   16    7     -1.42      0.00
   -9   16    7      0.89      0.00
   -8   16    7      0.89      0.00
   -7   16    7     -1.59      0.00
   -6   16    7     -1.42      0.00
   -5   16    7      0.79      0.00
   -4   16    7     -0.42      0.00
   -3   16    7     -0.55      0.00
   -2   16    7     -1.20      0.00
   -1   16    7     -0.64      0.00
    0   16    7     -1.30      0.00
  -16   17    7      1.47      0.00
  -15   17    7     -1.64      0.00
  -14   17    7     -0.40      0.00
  -13   17    7     -0.10      0.00
  -12   17    7     -1.40      0.00
  -11   17    7      1.00      0.00
  -10   17    7      0.05      0.00
   -9   17    7     -1.91      0.00
   -8   17    7     -1.25      0.00
   -7   17    7      1.72      0.00
   -6   17    7     -0.34      0.00
   -5   17    7      0.03      0.00
   -4   17    7      0.49      0.00
   -3   17    7      0.13      0.00
   -2   17    7     -1.45      0.00
   -1   17    7     -0.16      0.00
    0   17    7      0.57      0.00
  -17   18    7     -1.36      0.00
  -16   18    7     -0.08      0.00
  -15   18    7      0.53      0.00
  -14   18    7     -2.24      0.00
  -13   18    7     -1.12      0.00
  -12   18    7     -0.78      0.00
  -11   18    7     -0.65      0.00
  -10   18    7     -0.47      0.00
   -9   18    7      0.55      0.00
   -8   18    7     -1.50      0.00
   -7   18    7      0.00      0.00
   -6   18    7      2.67      0.00
   -5   18    7      1.55      0.00
   -4   18    7      0.14      0.00
   -3   18    7     -0.38      0.00
   -2   18    7      0.48      0.00
   -1   18    7     -1.60      0.00
    0   18    7      0.13      0.00
  -18   19    7      0.82      0.00
  -17   19    7      0.60      0.00
  -16   19    7     -2.06      0.00
  -15   19    7     -1.77      0.00
  -14   19    7     -1.02      0.00
  -13   19    7     -0.78      0.00
  -12   19    7     -0.96      0.00
  -11   19    7     -0.30      0.00
  -10   19    7     -0.74      0.00
   -9   19    7     -0.37      0.00
   -8   19    7      1.75      0.00
   -7   19    7      0.61      0.00
   -6   19    7      1.80      0.00
   -5   19    7      1.75      0.00
   -4   19    7      1.38      0.00
   -3   19    7     -0.89      0.00
   -2   19    7     -0.72      0.00
   -1   19    7      0.43      0.00
    0   19    7     -0.82      0.00
  -19   20    7     -0.54      0.00
  -18   20    7     -0.49      0.00
  -17   20    7      0.10      0.00
  -16   20    7     -0.45      0.00
  -15   20    7     -1.71      0.00
  -14   20    7     -1.90      0.00
  -13   20    7     -0.49      0.00
  -12   20    7      0.64      0.00
  -11   20    7     -0.56      0.00
  -10   20    7      0.18      0.00
   -9   20    7     -0.55      0.00
   -8   20    7      1.48      0.00
   -7   20    7      2.08      0.00
   -6   20    7      1.26      0.00
   -5   20    7      1.07      0.00
   -4   20    7      0.31      0.00
   -3   20    7      0.18      0.00
   -2   20    7     -1.05      0.00
   -1   20    7     -0.90      0.00
    0   20    7      0.25      0.00
  -20   21    7      0.57      0.00
  -19   21    7      0.91      0.00
  -18   21    7     -0.26      0.00
  -17   21    7     -0.78      0.00
  -16   21    7     -0.68      0.00
  -15   21    7     -0.22      0.00
  -14   21    7      0.27      0.00
  -13   21    7     -0.98      0.00
  -12   21    7      0.10      0.00
  -11   21    7      0.14      0.00
  -10   21    7      0.33      0.00
   -9   21    7      0.51      0.00
   -8   21    7     -0.15      0.00
   -7   21    7      1.86      0.00
   -6   21    7      1.13      0.00
   -5   21    7      0.03      0.00
   -4   21    7     -0.14      0.00
   -3   21    7      0.02      0.00
   -2   21    7     -0.51      0.00
   -1   21    7     -0.51      0.00
    0   21    7     -0.70      0.00
  -21   22    7      0.33      0.00
  -20   22    7     -0.34      0.00
  -19   22    7      1.01      0.00
  -18   22    7      0.91      0.00
  -17   22    7      0.09      0.00
  -16   22    7     -0.01      0.00
  -15   22    7     -0.36      0.00
  -14   22    7      0.77      0.00
  -13   22    7      0.68      0.00
  -12   22    7     -0.72      0.00
  -11   22    7     -0.19      0.00
  -10   22    7     -0.55      0.00
   -9   22    7      1.06      0.00
   -8   22    7      0.31      0.00
   -7   22    7     -0.76      0.00
   -6   22    7      0.68      0.00
   -5   22    7      0.90      0.00
   -4   22    7     -0.84      0.00
   -3   22    7     -0.62      0.00
   -2   22    7      0.05      0.00
   -1   22    7     -0.26      0.00
    0   22    7      0.23      0.00
  -22   23    7      0.38      0.00
  -21   23    7      1.74      0.00
  -20   23    7      0.73      0.00
  -19   23    7      0.02      0.00
  -18   23    7      0.91      0.00
  -17   23    7      0.85      0.00
  -16   23    7      1.09      0.00
  -15   23    7      0.64      0.00
  -14   23    7     -0.68      0.00
  -13   23    7      0.38      0.00
  -12   23    7     -0.35      0.00
  -11   23    7     -0.50      0.00
  -10   23    7     -0.44      0.00
   -9   23    7     -0.85      0.00
   -8   23    7      0.57      0.00
   -7   23    7      0.16      0.00
   -6   23    7     -1.43      0.00
   -5   23    7     -0.25      0.00
   -4   23    7      1.10      0.00
   -3   23    7     -0.76      0.00
   -2   23    7     -1.10      0.00
   -1   23    7      0.19      0.00
    0   23    7      0.54      0.00
  -23   24    7      0.93      0.00
  -22   24    7      0.39      0.00
  -21   24    7      0.54      0.00
  -20   24    7      1.83      0.00
  -19   24    7      0.49      0.00
  -18   24    7      0.42      0.00
  -17   24    7      0.95      0.00
  -16   24    7      0.42      0.00
  -15   24    7      1.06      0.00
  -14   24    7     -0.30      0.00
  -13   24    7     -1.56      0.00
  -12   24    7     -0.42      0.00
  -11   24    7     -0.57      0.00
  -10   24    7     -0.27      0.00
   -9   24    7     -0.66      0.00
   -8   24    7     -1.26      0.00
   -7   24    7     -0.31      0.00
   -6   24    7      0.35      0.00
   -5   24    7     -1.40      0.00
   -4   24    7     -1.23      0.00
   -3   24    7      0.59      0.00
   -2   24    7     -0.03      0.00
   -1   24    7     -1.22      0.00
    0   24    7      0.42      0.00
  -24   25    7      0.57      0.00
  -23   25    7      0.93      0.00
  -22   25    7      1.81      0.00
  -21   25    7     -0.37      0.00
  -20   25    7      0.06      0.00
  -19   25    7      1.31      0.00
  -18   25    7      0.26      0.00
  -17   25    7      0.58      0.00
  -16   25    7      0.25      0.00
  -15   25    7     -0.89      0.00
  -14   25    7     -0.06      0.00
  -13   25    7     -0.99      0.00
  -12   25    7     -1.55      0.00
  -11   25    7     -0.72      0.00
  -10   25    7     -0.26      0.00
   -9   25    7     -0.46      0.00
   -8   25    7     -1.01      0.00
   -7   25    7     -1.60      0.00
   -6   25    7     -1.08      0.00
   -5   25    7      0.03      0.00
   -4   25    7     -0.84      0.00
   -3   25    7     -2.03      0.00
   -2   25    7      0.05      0.00
   -1   25    7      0.63      0.00
    0   25    7     -0.67      0.00
  -24   26    7      0.78      0.00
  -23   26    7     -0.17      0.00
  -22   26    7      0.65      0.00
  -21   26    7      1.43      0.00
  -20   26    7     -1.04      0.00
  -19   26    7     -0.42      0.00
  -18   26    7      0.86      0.00
  -17   26    7     -0.15      0.00
  -16   26    7     -0.10      0.00
  -15   26    7     -0.89      0.00
  -14   26    7     -1.67      0.00
  -13   26    7     -0.71      0.00
  -12   26    7     -0.41      0.00
  -11   26    7     -0.93      0.00
  -10   26    7     -1.08      0.00
   -9   26    7     -0.34      0.00
   -8   26    7     -0.69      0.00
   -7   26    7     -1.45      0.00
   -6   26    7     -1.54      0.00
   -5   26    7     -1.61      0.00
   -4   26    7     -0.25      0.00
   -3   26    7      0.13      0.00
   -2   26    7     -1.61      0.00
  -23   27    7      1.02      0.00
  -22   27    7     -1.18      0.00
  -21   27    7     -0.16      0.00
  -20   27    7      1.06      0.00
  -19   27    7     -0.86      0.00
  -18   27    7     -0.75      0.00
  -17   27    7      0.13      0.00
  -16   27    7     -0.52      0.00
  -15   27    7     -0.77      0.00
  -14   27    7     -1.13      0.00
  -13   27    7     -1.24      0.00
  -12   27    7     -0.74      0.00
  -11   27    7      0.44      0.00
  -10   27    7     -0.20      0.00
   -9   27    7     -1.52      0.00
   -8   27    7     -0.66      0.00
   -7   27    7     -0.68      0.00
   -6   27    7     -1.27      0.00
   -5   27    7     -0.68      0.00
   -4   27    7     -1.09      0.00
  -21   28    7     -1.28      0.00
  -20   28    7     -0.57      0.00
  -19   28    7      0.95      0.00
  -18   28    7     -0.19      0.00
  -17   28    7     -0.97      0.00
  -16   28    7     -0.56      0.00
  -15   28    7     -0.28      0.00
  -14   28    7     -0.74      0.00
  -13   28    7     -0.41      0.00
  -12   28    7     -0.14      0.00
  -11   28    7     -0.44      0.00
  -10   28    7      0.95      0.00
   -9   28    7      0.52      0.00
   -8   28    7     -1.43      0.00
   -7   28    7     -0.56      0.00
  -18   29    7      0.66      0.00
  -17   29    7      0.67      0.00
  -16   29    7     -0.82      0.00
  -15   29    7     -0.76      0.00
  -14   29    7      0.35      0.00
  -13   29    7     -0.02      0.00
  -12   29    7      0.78      0.00
  -11   29    7      1.05      0.00
    0    0    8     15.84      0.00
    0    1    8      7.61      0.00
   -1    2    8     10.84      0.00
    0    2    8      4.10      0.00
   -2    3    8      1.65      0.00
   -1    3    8      2.43      0.00
    0    3    8      4.76      0.00
   -3    4    8     -0.13      0.00
   -2    4    8      3.03      0.00
   -1    4    8     -1.45      0.00
    0    4    8     -0.55      0.00
   -4    5    8      1.31      0.00
   -3    5    8     -1.95      0.00
   -2    5    8     -0.14      0.00
   -1    5    8      0.66      0.00
    0    5    8     -1.83      0.00
   -5    6    8     -0.68      0.00
   -4    6    8      0.06      0.00
   -3    6    8      0.44      0.00
   -2    6    8     -2.65      0.00
   -1    6    8     -0.25      0.00
    0    6    8      1.30      0.00
   -6    7    8      0.14      0.00
   -5    7    8      1.85      0.00
   -4    7    8     -1.10      0.00
   -3    7    8      0.51      0.00
   -2    7    8     -0.19      0.00
   -1    7    8     -1.46      0.00
    0    7    8     -0.15      0.00
   -7    8    8      2.10      0.00
   -6    8    8     -0.24      0.00
   -5    8    8      1.14      0.00
   -4    8    8      0.27      0.00
   -3    8    8     -1.12      0.00
   -2    8    8      0.02      0.00
   -1    8    8      0.48      0.00
    0    8    8     -0.26      0.00
   -8    9    8     -1.18      0.00
   -7    9    8      0.45      0.00
   -6    9    8      1.30      0.00
   -5    9    8     -0.17      0.00
   -4    9    8      0.56      0.00
   -3    9    8     -1.11      0.00
   -2    9    8     -0.50      0.00
   -1    9    8     -0.36      0.00
    0    9    8      0.80      0.00
   -9   10    8     -0.16      0.00
   -8   10    8      0.62      0.00
   -7   10    8     -1.39      0.00
   -6   10    8      0.60      0.00
   -5   10    8     -0.63      0.00
   -4   10    8      0.16      0.00
   -3   10    8     -0.03      0.00
   -2   10    8     -0.77      0.00
   -1   10    8      0.10      0.00
    0   10    8     -0.54      0.00
  -10   11    8     -0.03      0.00
   -9   11    8     -2.42      0.00
   -8   11    8     -0.08      0.00
   -7   11    8     -0.22      0.00
   -6   11    8     -0.18      0.00
   -5   11    8      0.23      0.00
   -4   11    8     -1.48      0.00
   -3   11    8      0.40      0.00
   -2   11    8      0.57      0.00
   -1   11    8      0.15      0.00
    0   11    8      0.06      0.00
  -11   12    8     -0.64      0.00
  -10   12    8     -0.16      0.00
   -9   12    8     -0.77      0.00
   -8   12    8     -1.92      0.00
   -7   12    8      0.35      0.00
   -6   12    8     -0.53      0.00
   -5   12    8      0.58      0.00
   -4   12    8      0.10      0.00
   -3   12    8     -0.87      0.00
   -2   12    8      0.17      0.00
   -1   12    8      1.19      0.00
    0   12    8      0.22      0.00
  -12   13    8     -0.48      0.00
  -11   13    8     -0.69      0.00
  -10   13    8     -2.04      0.00
   -9   13    8      0.29      0.00
   -8   13    8     -0.19      0.00
   -7   13    8     -0.23      0.00
   -6   13    8     -0.29      0.00
   -5   13    8     -0.70      0.00
   -4   13    8      0.07      0.00
   -3   13    8      0.67      0.00
   -2   13    8     -0.14      0.00
   -1   13    8     -0.85      0.00
    0   13    8      0.70      0.00
  -13   14    8     -0.23      0.00
  -12   14    8     -0.55      0.00
  -11   14    8     -0.13      0.00
  -10   14    8     -0.83      0.00
   -9   14    8     -1.12      0.00
   -8   14    8      0.00      0.00
   -7   14    8      0.20      0.00
   -6   14    8     -0.28      0.00
   -5   14    8     -1.09      0.00
   -4   14    8     -0.53      0.00
   -3   14    8     -0.79      0.00
   -2   14    8      0.70      0.00
   -1   14    8     -0.21      0.00
    0   14    8     -1.74      0.00
  -14   15    8     -0.12      0.00
  -13   15    8     -1.28      0.00
  -12   15    8     -1.22      0.00
  -11   15    8     -0.97      0.00
  -10   15    8      0.07      0.00
   -9   15    8      0.00      0.00
   -8   15    8     -0.73      0.00
   -7   15    8     -1.87      0.00
   -6   15    8     -0.11      0.00
   -5   15    8     -0.57      0.00
   -4   15    8     -0.60      0.00
   -3   15    8     -0.36      0.00
   -2   15    8     -1.56      0.00
   -1   15    8     -0.10      0.00
    0   15    8     -0.08      0.00
  -15   16    8     -1.44      0.00
  -14   16    8     -0.68      0.00
  -13   16    8     -0.84      0.00
  -12   16    8     -1.17      0.00
  -11   16    8     -1.33      0.00
  -10   16    8     -0.62      0.00
   -9   16    8     -1.18      0.00
   -8   16    8      0.03      0.00
   -7   16    8     -0.98      0.00
   -6   16    8     -2.09      0.00
   -5   16    8      0.34      0.00
   -4   16    8      0.09      0.00
   -3   16    8     -0.25      0.00
   -2   16    8     -0.51      0.00
   -1   16    8     -1.34      0.00
    0   16    8     -0.38      0.00
  -16   17    8      0.43      0.00
  -15   17    8     -0.78      0.00
  -14   17    8     -2.05      0.00
  -13   17    8     -2.24      0.00
  -12   17    8     -0.96      0.00
  -11   17    8     -1.07      0.00
  -10   17    8     -0.71      0.00
   -9   17    8     -0.97      0.00
   -8   17    8     -2.28      0.00
   -7   17    8      0.49      0.00
   -6   17    8      0.82      0.00
   -5   17    8     -0.27      0.00
   -4   17    8      0.47      0.00
   -3   17    8      0.29      0.00
   -2   17    8     -0.52      0.00
   -1   17    8     -0.11      0.00
    0   17    8     -0.01      0.00
  -17   18    8     -0.17      0.00
  -16   18    8     -0.49      0.00
  -15   18    8     -1.12      0.00
  -14   18    8     -1.80      0.00
  -13   18    8     -2.31      0.00
  -12   18    8     -2.10      0.00
  -11   18    8     -0.63      0.00
  -10   18    8     -1.16      0.00
   -9   18    8     -0.13      0.00
   -8   18    8     -0.08      0.00
   -7   18    8     -0.69      0.00
   -6   18    8      1.60      0.00
   -5   18    8      2.61      0.00
   -4   18    8      0.35      0.00
   -3   18    8     -0.32      0.00
   -2   18    8      0.19      0.00
   -1   18    8     -0.29      0.00
    0   18    8      0.48      0.00
  -18   19    8      0.99      0.00
  -17   19    8      0.57      0.00
  -16   19    8     -1.29      0.00
  -15   19    8     -1.85      0.00
  -14   19    8     -2.34      0.00
  -13   19    8     -1.47      0.00
  -12   19    8     -1.09      0.00
  -11   19    8     -0.87      0.00
  -10   19    8     -0.48      0.00
   -9   19    8     -0.47      0.00
   -8   19    8      1.10      0.00
   -7   19    8      2.35      0.00
   -6   19    8      1.01      0.00
   -5   19    8      1.01      0.00
   -4   19    8      1.88      0.00
   -3   19    8     -0.12      0.00
   -2   19    8     -0.52      0.00
   -1   19    8      0.31      0.00
    0   19    8      0.25      0.00
  -19   20    8      0.65      0.00
  -18   20    8      0.09      0.00
  -17   20    8      0.56      0.00
  -16   20    8     -0.57      0.00
  -15   20    8     -2.03      0.00
  -14   20    8     -1.53      0.00
  -13   20    8     -1.27      0.00
  -12   20    8     -0.65      0.00
  -11   20    8      0.13      0.00
  -10   20    8      0.15      0.00
   -9   20    8      0.51      0.00
   -8   20    8      0.80      0.00
   -7   20    8      1.61      0.00
   -6   20    8      2.77      0.00
   -5   20    8      0.55      0.00
   -4   20    8     -0.33      0.00
   -3   20    8      0.39      0.00
   -2   20    8      0.06      0.00
   -1   20    8     -0.08      0.00
    0   20    8      0.29      0.00
  -20   21    8      0.91      0.00
  -19   21    8      1.34      0.00
  -18   21    8      0.77      0.00
  -17   21    8     -0.85      0.00
  -16   21    8     -0.11      0.00
  -15   21    8     -0.38      0.00
  -14   21    8     -1.21      0.00
  -13   21    8      0.02      0.00
  -12   21    8     -0.14      0.00
  -11   21    8     -0.52      0.00
  -10   21    8      0.64      0.00
   -9   21    8      0.91      0.00
   -8   21    8      1.45      0.00
   -7   21    8      0.59      0.00
   -6   21    8      0.53      0.00
   -5   21    8      1.12      0.00
   -4   21    8      0.03      0.00
   -3   21    8     -0.36      0.00
   -2   21    8     -0.44      0.00
   -1   21    8      0.57      0.00
    0   21    8      0.61      0.00
  -21   22    8      0.43      0.00
  -20   22    8      0.96      0.00
  -19   22    8      0.78      0.00
  -18   22    8      1.44      0.00
  -17   22    8      0.77      0.00
  -16   22    8     -0.98      0.00
  -15   22    8      0.38      0.00
  -14   22    8      0.55      0.00
  -13   22    8     -0.79      0.00
  -12   22    8      0.43      0.00
  -11   22    8      0.18      0.00
  -10   22    8     -0.26      0.00
   -9   22    8      0.31      0.00
   -8   22    8      0.82      0.00
   -7   22    8      0.91      0.00
   -6   22    8     -0.35      0.00
   -5   22    8     -0.09      0.00
   -4   22    8     -0.17      0.00
   -3   22    8      0.20      0.00
   -2   22    8      0.24      0.00
   -1   22    8     -0.64      0.00
    0   22    8      1.15      0.00
  -22   23    8      1.49      0.00
  -21   23    8      1.74      0.00
  -20   23    8      1.27      0.00
  -19   23    8      0.82      0.00
  -18   23    8      0.04      0.00
  -17   23    8      1.26      0.00
  -16   23    8      1.29      0.00
  -15   23    8     -0.62      0.00
  -14   23    8      0.48      0.00
  -13   23    8      0.37      0.00
  -12   23    8     -1.05      0.00
  -11   23    8     -0.05      0.00
  -10   23    8      0.50      0.00
   -9   23    8      0.03      0.00
   -8   23    8     -0.68      0.00
   -7   23    8      0.20      0.00
   -6   23    8      0.01      0.00
   -5   23    8     -0.49      0.00
   -4   23    8      0.04      0.00
   -3   23    8     -0.92      0.00
   -2   23    8      0.05      0.00
   -1   23    8      0.83      0.00
    0   23    8     -0.13      0.00
  -23   24    8      1.30      0.00
  -22   24    8      0.68      0.00
  -21   24    8      1.13      0.00
  -20   24    8      1.22      0.00
  -19   24    8      1.11      0.00
  -18   24    8      0.59      0.00
  -17   24    8     -0.37      0.00
  -16   24    8      0.97      0.00
  -15   24    8      1.10      0.00
  -14   24    8     -0.88      0.00
  -13   24    8     -0.28      0.00
  -12   24    8      0.12      0.00
  -11   24    8     -0.70      0.00
  -10   24    8     -0.62      0.00
   -9   24    8      0.49      0.00
   -8   24    8     -0.09      0.00
   -7   24    8     -1.31      0.00
   -6   24    8     -0.33      0.00
   -5   24    8     -0.72      0.00
   -4   24    8     -0.81      0.00
   -3   24    8     -0.10      0.00
   -2   24    8     -1.16      0.00
   -1   24    8     -0.16      0.00
    0   24    8      1.27      0.00
  -24   25    8      0.27      0.00
  -23   25    8      1.69      0.00
  -22   25    8      1.73      0.00
  -21   25    8      0.58      0.00
  -20   25    8     -0.13      0.00
  -19   25    8     -0.03      0.00
  -18   25    8      0.67      0.00
  -17   25    8      0.51      0.00
  -16   25    8     -0.59      0.00
  -15   25    8      0.16      0.00
  -14   25    8      0.35      0.00
  -13   25    8     -0.91      0.00
  -12   25    8     -0.61      0.00
  -11   25    8      0.47      0.00
  -10   25    8     -0.11      0.00
   -9   25    8     -1.18      0.00
   -8   25    8     -0.25      0.00
   -7   25    8     -0.56      0.00
   -6   25    8     -1.66      0.00
   -5   25    8     -1.08      0.00
   -4   25    8     -1.47      0.00
   -3   25    8     -1.34      0.00
   -2   25    8     -0.08      0.00
   -1   25    8     -0.64      0.00
  -23   26    8      0.44      0.00
  -22   26    8      0.61      0.00
  -21   26    8      0.73      0.00
  -20   26    8     -0.08      0.00
  -19   26    8     -0.98      0.00
  -18   26    8     -0.73      0.00
  -17   26    8      0.31      0.00
  -16   26    8      0.29      0.00
  -15   26    8     -0.67      0.00
  -14   26    8     -0.31      0.00
  -13   26    8      0.31      0.00
  -12   26    8     -0.24      0.00
  -11   26    8     -0.52      0.00
  -10   26    8      0.38      0.00
   -9   26    8     -0.07      0.00
   -8   26    8     -1.67      0.00
   -7   26    8     -1.45      0.00
   -6   26    8     -1.36      0.00
   -5   26    8     -1.90      0.00
   -4   26    8     -1.35      0.00
   -3   26    8     -1.37      0.00
  -21   27    8     -0.86      0.00
  -20   27    8     -0.35      0.00
  -19   27    8     -0.25      0.00
  -18   27    8     -0.85      0.00
  -17   27    8     -0.68      0.00
  -16   27    8      0.19      0.00
  -15   27    8      0.32      0.00
  -14   27    8     -0.27      0.00
  -13   27    8      0.00      0.00
  -12   27    8      0.70      0.00
  -11   27    8      0.36      0.00
  -10   27    8     -0.58      0.00
   -9   27    8     -0.45      0.00
   -8   27    8     -0.62      0.00
   -7   27    8     -1.84      0.00
   -6   27    8     -2.00      0.00
  -18   28    8      0.12      0.00
  -17   28    8     -0.16      0.00
  -16   28    8     -0.24      0.00
  -15   28    8      0.50      0.00
  -14   28    8      0.70      0.00
  -13   28    8      0.34      0.00
  -12   28    8      0.42      0.00
  -11   28    8      0.84      0.00
  -10   28    8      0.46      0.00
    0    0    9      2.14      0.00
    0    1    9      2.61      0.00
   -1    2    9      0.12      0.00
    0    2    9      0.25      0.00
   -2    3    9     -1.20      0.00
   -1    3    9     -1.66      0.00
    0    3    9     -1.56      0.00
   -3    4    9     -2.70      0.00
   -2    4    9     -1.65      0.00
   -1    4    9     -2.17      0.00
    0    4    9     -2.96      0.00
   -4    5    9     -0.51      0.00
   -3    5    9     -1.68      0.00
   -2    5    9     -3.31      0.00
   -1    5    9     -0.77      0.00
    0    5    9     -1.28      0.00
   -5    6    9     -0.32      0.00
   -4    6    9     -1.31      0.00
   -3    6    9      0.32      0.00
   -2    6    9     -0.65      0.00
   -1    6    9     -2.16      0.00
    0    6    9      1.45      0.00
   -6    7    9      1.15      0.00
   -5    7    9      2.03      0.00
   -4    7    9      1.21      0.00
   -3    7    9     -1.29      0.00
   -2    7    9      1.30      0.00
   -1    7    9      0.73      0.00
    0    7    9     -0.07      0.00
   -7    8    9      2.04      0.00
   -6    8    9      1.83      0.00
   -5    8    9      1.13      0.00
   -4    8    9      2.08      0.00
   -3    8    9      1.31      0.00
   -2    8    9     -0.89      0.00
   -1    8    9      1.73      0.00
    0    8    9      1.89      0.00
   -8    9    9      0.22      0.00
   -7    9    9      2.04      0.00
   -6    9    9      1.91      0.00
   -5    9    9      2.14      0.00
   -4    9    9      0.36      0.00
   -3    9    9      1.52      0.00
   -2    9    9      1.11      0.00
   -1    9    9     -0.49      0.00
    0    9    9      1.11      0.00
   -9   10    9      2.12      0.00
   -8   10    9      0.57      0.00
   -7   10    9      0.83      0.00
   -6   10    9      1.47      0.00
   -5   10    9      1.41      0.00
   -4   10    9      1.04      0.00
   -3   10    9     -0.23      0.00
   -2   10    9      0.98      0.00
   -1   10    9      1.80      0.00
    0   10    9     -0.71      0.00
  -10   11    9      0.45      0.00
   -9   11    9     -1.04      0.00
   -8   11    9      1.43      0.00
   -7   11    9      0.48      0.00
   -6   11    9      0.78      0.00
   -5   11    9      0.66      0.00
   -4   11    9      0.58      0.00
   -3   11    9      0.36      0.00
   -2   11    9     -0.29      0.00
   -1   11    9      0.98      0.00
    0   11    9      2.76      0.00
  -11   12    9     -0.97      0.00
  -10   12    9      2.14      0.00
   -9   12    9     -0.24      0.00
   -8   12    9     -0.56      0.00
   -7   12    9      0.91      0.00
   -6   12    9      0.48      0.00
   -5   12    9     -0.32      0.00
   -4   12    9     -0.06      0.00
   -3   12    9      0.15      0.00
   -2   12    9      1.00      0.00
   -1   12    9     -0.34      0.00
    0   12    9      0.94      0.00
  -12   13    9      2.71      0.00
  -11   13    9      0.14      0.00
  -10   13    9     -1.15      0.00
   -9   13    9      1.16      0.00
   -8   13    9      0.34      0.00
   -7   13    9     -0.48      0.00
   -6   13    9      0.08      0.00
   -5   13    9     -0.52      0.00
   -4   13    9     -1.20      0.00
   -3   13    9     -0.32      0.00
   -2   13    9      0.38      0.00
   -1   13    9      1.48      0.00
    0   13    9     -0.46      0.00
  -13   14    9      0.19      0.00
  -12   14    9     -0.54      0.00
  -11   14    9      2.04      0.00
  -10   14    9      0.09      0.00
   -9   14    9     -0.50      0.00
   -8   14    9      0.38      0.00
   -7   14    9     -0.06      0.00
   -6   14    9     -1.87      0.00
   -5   14    9     -0.77      0.00
   -4   14    9     -1.02      0.00
   -3   14    9     -0.97      0.00
   -2   14    9     -0.40      0.00
   -1   14    9      0.30      0.00
    0   14    9      1.10      0.00
  -14   15    9     -0.04      0.00
  -13   15    9      2.01      0.00
  -12   15    9     -0.56      0.00
  -11   15    9     -0.24      0.00
  -10   15    9      1.12      0.00
   -9   15    9      0.57      0.00
   -8   15    9     -1.17      0.00
   -7   15    9     -0.83      0.00
   -6   15    9     -1.37      0.00
   -5   15    9     -2.41      0.00
   -4   15    9     -0.41      0.00
   -3   15    9     -0.42      0.00
   -2   15    9     -0.86      0.00
   -1   15    9     -0.32      0.00
    0   15    9     -0.09      0.00
  -15   16    9      1.00      0.00
  -14   16    9     -0.95      0.00
  -13   16    9      0.04      0.00
  -12   16    9      1.28      0.00
  -11   16    9     -0.26      0.00
  -10   16    9     -0.16      0.00
   -9   16    9      0.22      0.00
   -8   16    9     -0.30      0.00
   -7   16    9     -2.34      0.00
   -6   16    9     -0.66      0.00
   -5   16    9     -0.84      0.00
   -4   16    9     -1.52      0.00
   -3   16    9      0.23      0.00
   -2   16    9     -0.06      0.00
   -1   16    9     -0.79      0.00
    0   16    9      0.36      0.00
  -16   17    9     -0.12      0.00
  -15   17    9      0.52      0.00
  -14   17    9      0.83      0.00
  -13   17    9     -1.96      0.00
  -12   17    9     -0.04      0.00
  -11   17    9      0.90      0.00
  -10   17    9      0.37      0.00
   -9   17    9     -1.08      0.00
   -8   17    9     -0.19      0.00
   -7   17    9     -0.49      0.00
   -6   17    9     -1.32      0.00
   -5   17    9      1.09      0.00
   -4   17    9      0.46      0.00
   -3   17    9     -1.31      0.00
   -2   17    9      0.30      0.00
   -1   17    9      0.09      0.00
    0   17    9     -0.01      0.00
  -17   18    9      0.72      0.00
  -16   18    9      0.93      0.00
  -15   18    9     -1.65      0.00
  -14   18    9     -0.15      0.00
  -13   18    9     -0.01      0.00
  -12   18    9     -1.12      0.00
  -11   18    9     -0.09      0.00
  -10   18    9      1.09      0.00
   -9   18    9      0.49      0.00
   -8   18    9     -1.03      0.00
   -7   18    9      1.18      0.00
   -6   18    9      1.09      0.00
   -5   18    9     -0.06      0.00
   -4   18    9      1.61      0.00
   -3   18    9      0.40      0.00
   -2   18    9     -1.45      0.00
   -1   18    9      0.23      0.00
    0   18    9      0.46      0.00
  -18   19    9      0.72      0.00
  -17   19    9      0.24      0.00
  -16   19    9      0.47      0.00
  -15   19    9     -0.37      0.00
  -14   19    9     -2.37      0.00
  -13   19    9     -0.28      0.00
  -12   19    9      0.76      0.00
  -11   19    9      0.42      0.00
  -10   19    9     -0.33      0.00
   -9   19    9      1.59      0.00
   -8   19    9      1.35      0.00
   -7   19    9      0.39      0.00
   -6   19    9      2.38      0.00
   -5   19    9      1.46      0.00
   -4   19    9     -0.76      0.00
   -3   19    9      0.69      0.00
   -2   19    9     -0.01      0.00
   -1   19    9     -0.90      0.00
    0   19    9      0.00      0.00
  -19   20    9      0.84      0.00
  -18   20    9      0.58      0.00
  -17   20    9      0.57      0.00
  -16   20    9     -0.90      0.00
  -15   20    9     -0.14      0.00
  -14   20    9     -0.80      0.00
  -13   20    9     -0.89      0.00
  -12   20    9      0.13      0.00
  -11   20    9      1.76      0.00
  -10   20    9      1.20      0.00
   -9   20    9     -0.05      0.00
   -8   20    9      2.13      0.00
   -7   20    9      2.06      0.00
   -6   20    9      0.43      0.00
   -5   20    9      1.58      0.00
   -4   20    9      0.25      0.00
   -3   20    9     -1.49      0.00
   -2   20    9      0.02      0.00
   -1   20    9      0.19      0.00
    0   20    9     -0.20      0.00
  -20   21    9      0.16      0.00
  -19   21    9      0.89      0.00
  -18   21    9      0.89      0.00
  -17   21    9      0.52      0.00
  -16   21    9     -0.82      0.00
  -15   21    9     -0.81      0.00
  -14   21    9      0.27      0.00
  -13   21    9      0.32      0.00
  -12   21    9      0.34      0.00
  -11   21    9     -0.10      0.00
  -10   21    9      1.73      0.00
   -9   21    9      1.63      0.00
   -8   21    9      0.20      0.00
   -7   21    9      1.61      0.00
   -6   21    9      1.10      0.00
   -5   21    9     -0.71      0.00
   -4   21    9      0.58      0.00
   -3   21    9     -0.30      0.00
   -2   21    9     -1.17      0.00
   -1   21    9     -0.03      0.00
    0   21    9      0.75      0.00
  -21   22    9      0.52      0.00
  -20   22    9      1.15      0.00
  -19   22    9      0.66      0.00
  -18   22    9      0.34      0.00
  -17   22    9      0.55      0.00
  -16   22    9      0.54      0.00
  -15   22    9     -1.06      0.00
  -14   22    9     -0.03      0.00
  -13   22    9      0.42      0.00
  -12   22    9      0.66      0.00
  -11   22    9      0.38      0.00
  -10   22    9     -0.56      0.00
   -9   22    9      1.13      0.00
   -8   22    9      1.48      0.00
   -7   22    9     -0.30      0.00
   -6   22    9      0.67      0.00
   -5   22    9     -0.08      0.00
   -4   22    9     -1.00      0.00
   -3   22    9      0.37      0.00
   -2   22    9      0.00      0.00
   -1   22    9     -0.55      0.00
    0   22    9      0.58      0.00
  -22   23    9      1.15      0.00
  -21   23    9      0.89      0.00
  -20   23    9      1.08      0.00
  -19   23    9      0.99      0.00
  -18   23    9      0.46      0.00
  -17   23    9     -0.94      0.00
  -16   23    9      0.53      0.00
  -15   23    9      0.84      0.00
  -14   23    9     -0.83      0.00
  -13   23    9     -0.39      0.00
  -12   23    9     -0.44      0.00
  -11   23    9      0.25      0.00
  -10   23    9      0.55      0.00
   -9   23    9     -0.75      0.00
   -8   23    9      0.53      0.00
   -7   23    9      0.63      0.00
   -6   23    9     -0.60      0.00
   -5   23    9      0.40      0.00
   -4   23    9     -0.48      0.00
   -3   23    9     -0.88      0.00
   -2   23    9      0.33      0.00
   -1   23    9      0.51      0.00
    0   23    9      0.19      0.00
  -23   24    9      1.02      0.00
  -22   24    9      1.18      0.00
  -21   24    9      0.99      0.00
  -20   24    9      0.55      0.00
  -19   24    9      0.04      0.00
  -18   24    9      0.39      0.00
  -17   24    9      0.16      0.00
  -16   24    9     -1.62      0.00
  -15   24    9      0.06      0.00
  -14   24    9      0.41      0.00
  -13   24    9     -0.99      0.00
  -12   24    9     -0.85      0.00
  -11   24    9     -1.06      0.00
  -10   24    9      0.28      0.00
   -9   24    9      0.79      0.00
   -8   24    9     -0.70      0.00
   -7   24    9      0.18      0.00
   -6   24    9     -0.33      0.00
   -5   24    9     -0.64      0.00
   -4   24    9      0.08      0.00
   -3   24    9     -0.63      0.00
   -2   24    9     -0.86      0.00
   -1   24    9      0.38      0.00
  -22   25    9      1.02      0.00
  -21   25    9      1.01      0.00
  -20   25    9     -0.12      0.00
  -19   25    9     -0.71      0.00
  -18   25    9     -1.43      0.00
  -17   25    9      0.00      0.00
  -16   25    9      0.11      0.00
  -15   25    9     -1.84      0.00
  -14   25    9     -0.84      0.00
  -13   25    9     -0.39      0.00
  -12   25    9     -0.51      0.00
  -11   25    9     -0.26      0.00
  -10   25    9     -0.98      0.00
   -9   25    9      0.41      0.00
   -8   25    9      0.27      0.00
   -7   25    9     -0.60      0.00
   -6   25    9     -0.34      0.00
   -5   25    9     -1.26      0.00
   -4   25    9     -1.02      0.00
   -3   25    9     -0.35      0.00
  -20   26    9     -0.34      0.00
  -19   26    9     -0.96      0.00
  -18   26    9     -1.46      0.00
  -17   26    9     -2.05      0.00
  -16   26    9     -0.20      0.00
  -15   26    9      0.02      0.00
  -14   26    9     -1.36      0.00
  -13   26    9     -0.94      0.00
  -12   26    9     -0.69      0.00
  -11   26    9      0.51      0.00
  -10   26    9      0.26      0.00
   -9   26    9     -0.74      0.00
   -8   26    9     -0.10      0.00
   -7   26    9     -0.87      0.00
   -6   26    9     -0.79      0.00
  -18   27    9     -0.60      0.00
  -17   27    9     -1.17      0.00
  -16   27    9     -1.74      0.00
  -15   27    9     -0.25      0.00
  -14   27    9     -0.09      0.00
  -13   27    9     -0.04      0.00
  -12   27    9     -0.32      0.00
  -11   27    9     -0.56      0.00
  -10   27    9      0.78      0.00
   -9   27    9     -0.11      0.00
    0    0   10      2.06      0.00
    0    1   10      1.35      0.00
   -1    2   10      0.48      0.00
    0    2   10     -0.35      0.00
   -2    3   10     -1.51      0.00
   -1    3   10     -1.45      0.00
    0    3   10     -0.83      0.00
   -3    4   10     -1.72      0.00
   -2    4   10     -0.83      0.00
   -1    4   10     -1.76      0.00
    0    4   10     -2.08      0.00
   -4    5   10      0.00      0.00
   -3    5   10     -1.37      0.00
   -2    5   10     -2.06      0.00
   -1    5   10      0.03      0.00
    0    5   10     -0.94      0.00
   -5    6   10      0.39      0.00
   -4    6   10     -0.46      0.00
   -3    6   10      0.90      0.00
   -2    6   10     -0.79      0.00
   -1    6   10     -0.76      0.00
    0    6   10      1.63      0.00
   -6    7   10      0.15      0.00
   -5    7   10      1.70      0.00
   -4    7   10      0.99      0.00
   -3    7   10     -0.28      0.00
   -2    7   10      2.14      0.00
   -1    7   10     -0.84      0.00
    0    7   10      1.56      0.00
   -7    8   10      1.46      0.00
   -6    8   10      2.60      0.00
   -5    8   10      0.40      0.00
   -4    8   10      2.47      0.00
   -3    8   10     -0.32      0.00
   -2    8   10      0.47      0.00
   -1    8   10      2.33      0.00
    0    8   10     -1.62      0.00
   -8    9   10      2.25      0.00
   -7    9   10     -1.15      0.00
   -6    9   10      1.39      0.00
   -5    9   10      1.50      0.00
   -4    9   10      0.30      0.00
   -3    9   10      2.73      0.00
   -2    9   10     -2.07      0.00
   -1    9   10      1.29      0.00
    0    9   10      1.55      0.00
   -9   10   10     -2.35      0.00
   -8   10   10      0.38      0.00
   -7   10   10      2.14      0.00
   -6   10   10     -1.12      0.00
   -5   10   10      1.93      0.00
   -4   10   10     -1.05      0.00
   -3   10   10      0.39      0.00
   -2   10   10      2.19      0.00
   -1   10   10     -2.15      0.00
    0   10   10      1.47      0.00
  -10   11   10      1.67      0.00
   -9   11   10      1.56      0.00
   -8   11   10     -3.31      0.00
   -7   11   10      0.39      0.00
   -6   11   10      0.69      0.00
   -5   11   10     -0.65      0.00
   -4   11   10      1.66      0.00
   -3   11   10     -2.38      0.00
   -2   11   10      0.54      0.00
   -1   11   10      2.16      0.00
    0   11   10     -0.60      0.00
  -11   12   10      1.24      0.00
  -10   12   10     -2.43      0.00
   -9   12   10      0.64      0.00
   -8   12   10      1.23      0.00
   -7   12   10     -2.88      0.00
   -6   12   10      0.71      0.00
   -5   12   10     -1.17      0.00
   -4   12   10     -0.48      0.00
   -3   12   10      0.95      0.00
   -2   12   10     -1.06      0.00
   -1   12   10      0.59      0.00
    0   12   10      2.96      0.00
  -12   13   10      0.68      0.00
  -11   13   10      2.64      0.00
  -10   13   10      1.16      0.00
   -9   13   10     -3.86      0.00
   -8   13   10      0.65      0.00
   -7   13   10      0.48      0.00
   -6   13   10     -1.91      0.00
   -5   13   10     -0.44      0.00
   -4   13   10     -1.68      0.00
   -3   13   10     -0.61      0.00
   -2   13   10      1.27      0.00
   -1   13   10      0.99      0.00
    0   13   10      0.58      0.00
  -13   14   10      3.14      0.00
  -12   14   10      1.11      0.00
  -11   14   10     -1.53      0.00
  -10   14   10      2.01      0.00
   -9   14   10      1.10      0.00
   -8   14   10     -3.32      0.00
   -7   14   10     -0.25      0.00
   -6   14   10     -0.72      0.00
   -5   14   10     -1.69      0.00
   -4   14   10     -1.20      0.00
   -3   14   10     -0.27      0.00
   -2   14   10     -0.55      0.00
   -1   14   10      1.97      0.00
    0   14   10      1.77      0.00
  -14   15   10      0.67      0.00
  -13   15   10      1.27      0.00
  -12   15   10      2.86      0.00
  -11   15   10      0.89      0.00
  -10   15   10     -2.75      0.00
   -9   15   10      1.51      0.00
   -8   15   10      0.58      0.00
   -7   15   10     -2.61      0.00
   -6   15   10     -2.01      0.00
   -5   15   10     -0.57      0.00
   -4   15   10     -1.18      0.00
   -3   15   10     -0.14      0.00
   -2   15   10      0.88      0.00
   -1   15   10     -0.34      0.00
    0   15   10      1.95      0.00
  -15   16   10      1.81      0.00
  -14   16   10      2.23      0.00
  -13   16   10      0.56      0.00
  -12   16   10     -0.66      0.00
  -11   16   10      2.51      0.00
  -10   16   10      0.79      0.00
   -9   16   10     -2.36      0.00
   -8   16   10     -0.12      0.00
   -7   16   10      0.14      0.00
   -6   16   10     -1.76      0.00
   -5   16   10     -1.46      0.00
   -4   16   10      0.93      0.00
   -3   16   10     -0.49      0.00
   -2   16   10      0.85      0.00
   -1   16   10      0.82      0.00
    0   16   10     -0.10      0.00
  -16   17   10      1.51      0.00
  -15   17   10      0.50      0.00
  -14   17   10      0.92      0.00
  -13   17   10      1.56      0.00
  -12   17   10     -0.18      0.00
  -11   17   10     -1.15      0.00
  -10   17   10      2.26      0.00
   -9   17   10      0.73      0.00
   -8   17   10     -1.71      0.00
   -7   17   10     -0.91      0.00
   -6   17   10      1.46      0.00
   -5   17   10     -0.16      0.00
   -4   17   10      0.54      0.00
   -3   17   10      1.18      0.00
   -2   17   10     -0.70      0.00
   -1   17   10      0.85      0.00
    0   17   10      0.66      0.00
  -17   18   10     -0.24      0.00
  -16   18   10      1.34      0.00
  -15   18   10      0.90      0.00
  -14   18   10     -0.64      0.00
  -13   18   10     -0.50      0.00
  -12   18   10      1.85      0.00
  -11   18   10      0.04      0.00
  -10   18   10     -0.40      0.00
   -9   18   10      1.45      0.00
   -8   18   10      1.41      0.00
   -7   18   10     -0.50      0.00
   -6   18   10      0.66      0.00
   -5   18   10      2.80      0.00
   -4   18   10      0.20      0.00
   -3   18   10      0.88      0.00
   -2   18   10      0.20      0.00
   -1   18   10     -1.46      0.00
    0   18   10      0.74      0.00
  -18   19   10      0.71      0.00
  -17   19   10      1.30      0.00
  -16   19   10     -0.08      0.00
  -15   19   10     -0.02      0.00
  -14   19   10      0.15      0.00
  -13   19   10     -1.36      0.00
  -12   19   10      0.13      0.00
  -11   19   10      2.62      0.00
  -10   19   10      0.75      0.00
   -9   19   10     -0.03      0.00
   -8   19   10      1.38      0.00
   -7   19   10      2.96      0.00
   -6   19   10      0.45      0.00
   -5   19   10      1.62      0.00
   -4   19   10      1.91      0.00
   -3   19   10     -1.18      0.00
   -2   19   10      0.14      0.00
   -1   19   10     -0.23      0.00
    0   19   10     -1.91      0.00
  -19   20   10      0.95      0.00
  -18   20   10     -0.34      0.00
  -17   20   10      0.68      0.00
  -16   20   10      0.48      0.00
  -15   20   10     -1.26      0.00
  -14   20   10     -0.60      0.00
  -13   20   10      1.09      0.00
  -12   20   10     -0.59      0.00
  -11   20   10      1.00      0.00
  -10   20   10      2.34      0.00
   -9   20   10      1.55      0.00
   -8   20   10      0.02      0.00
   -7   20   10      1.95      0.00
   -6   20   10      3.26      0.00
   -5   20   10     -0.32      0.00
   -4   20   10      0.62      0.00
   -3   20   10      0.45      0.00
   -2   20   10     -2.25      0.00
   -1   20   10     -0.03      0.00
    0   20   10      0.12      0.00
  -20   21   10     -1.01      0.00
  -19   21   10      0.87      0.00
  -18   21   10      1.48      0.00
  -17   21   10     -0.13      0.00
  -16   21   10     -0.56      0.00
  -15   21   10      0.06      0.00
  -14   21   10     -1.37      0.00
  -13   21   10      0.56      0.00
  -12   21   10      1.76      0.00
  -11   21   10     -0.06      0.00
  -10   21   10      0.39      0.00
   -9   21   10      1.87      0.00
   -8   21   10      2.29      0.00
   -7   21   10     -0.34      0.00
   -6   21   10      1.45      0.00
   -5   21   10      2.01      0.00
   -4   21   10     -1.46      0.00
   -3   21   10     -0.20      0.00
   -2   21   10      0.03      0.00
   -1   21   10     -1.83      0.00
    0   21   10      0.30      0.00
  -21   22   10      0.79      0.00
  -20   22   10      1.12      0.00
  -19   22   10      0.28      0.00
  -18   22   10      0.44      0.00
  -17   22   10      0.88      0.00
  -16   22   10     -0.70      0.00
  -15   22   10     -0.59      0.00
  -14   22   10      0.46      0.00
  -13   22   10     -0.90      0.00
  -12   22   10      0.69      0.00
  -11   22   10      1.04      0.00
  -10   22   10      0.13      0.00
   -9   22   10     -0.42      0.00
   -8   22   10      1.80      0.00
   -7   22   10      2.24      0.00
   -6   22   10     -0.92      0.00
   -5   22   10      0.48      0.00
   -4   22   10      0.98      0.00
   -3   22   10     -1.36      0.00
   -2   22   10     -0.12      0.00
   -1   22   10      0.25      0.00
    0   22   10     -0.20      0.00
  -22   23   10      0.41      0.00
  -21   23   10      0.65      0.00
  -20   23   10      1.29      0.00
  -19   23   10      1.31      0.00
  -18   23   10      0.19      0.00
  -17   23   10     -0.69      0.00
  -16   23   10      0.22      0.00
  -15   23   10     -0.72      0.00
  -14   23   10      0.01      0.00
  -13   23   10     -0.09      0.00
  -12   23   10     -1.15      0.00
  -11   23   10     -0.27      0.00
  -10   23   10      0.91      0.00
   -9   23   10      0.69      0.00
   -8   23   10     -0.60      0.00
   -7   23   10      1.59      0.00
   -6   23   10      1.59      0.00
   -5   23   10     -0.93      0.00
   -4   23   10      0.12      0.00
   -3   23   10      0.35      0.00
   -2   23   10     -0.43      0.00
   -1   23   10      0.06      0.00
  -21   24   10      0.75      0.00
  -20   24   10      0.91      0.00
  -19   24   10      0.31      0.00
  -18   24   10      0.32      0.00
  -17   24   10     -0.54      0.00
  -16   24   10     -0.95      0.00
  -15   24   10     -0.43      0.00
  -14   24   10     -0.84      0.00
  -13   24   10     -0.38      0.00
  -12   24   10     -0.74      0.00
  -11   24   10     -1.07      0.00
  -10   24   10     -0.42      0.00
   -9   24   10      1.78      0.00
   -8   24   10      1.04      0.00
   -7   24   10     -0.59      0.00
   -6   24   10      1.09      0.00
   -5   24   10      0.68      0.00
   -4   24   10     -0.58      0.00
   -3   24   10     -0.07      0.00
  -19   25   10     -0.30      0.00
  -18   25   10     -1.07      0.00
  -17   25   10     -0.62      0.00
  -16   25   10     -0.63      0.00
  -15   25   10     -0.88      0.00
  -14   25   10     -1.31      0.00
  -13   25   10     -1.20      0.00
  -12   25   10     -0.65      0.00
  -11   25   10      0.22      0.00
  -10   25   10     -0.34      0.00
   -9   25   10     -0.11      0.00
   -8   25   10      2.13      0.00
   -7   25   10      0.60      0.00
   -6   25   10     -0.79      0.00
  -16   26   10     -1.05      0.00
  -15   26   10     -0.47      0.00
  -14   26   10     -1.01      0.00
  -13   26   10     -1.24      0.00
  -12   26   10     -0.99      0.00
  -11   26   10     -0.10      0.00
  -10   26   10      1.58      0.00
    0    0   11      8.16      0.00
    0    1   11      1.18      0.00
   -1    2   11      5.69      0.00
    0    2   11      0.12      0.00
   -2    3   11     -1.15      0.00
   -1    3   11     -0.78      0.00
    0    3   11      2.60      0.00
   -3    4   11     -0.04      0.00
   -2    4   11      1.76      0.00
   -1    4   11     -0.46      0.00
    0    4   11     -1.91      0.00
   -4    5   11      0.31      0.00
   -3    5   11     -1.33      0.00
   -2    5   11     -0.97      0.00
   -1    5   11      0.45      0.00
    0    5   11      1.45      0.00
   -5    6   11     -1.04      0.00
   -4    6   11      1.56      0.00
   -3    6   11      0.14      0.00
   -2    6   11      0.39      0.00
   -1    6   11     -1.12      0.00
    0    6   11     -0.53      0.00
   -6    7   11      2.96      0.00
   -5    7   11     -0.93      0.00
   -4    7   11     -0.14      0.00
   -3    7   11      0.59      0.00
   -2    7   11      0.04      0.00
   -1    7   11      1.77      0.00
    0    7   11     -0.38      0.00
   -7    8   11     -2.46      0.00
   -6    8   11     -0.13      0.00
   -5    8   11      2.37      0.00
   -4    8   11     -0.38      0.00
   -3    8   11      0.41      0.00
   -2    8   11      0.05      0.00
   -1    8   11     -0.97      0.00
    0    8   11      1.81      0.00
   -8    9   11     -0.13      0.00
   -7    9   11      1.95      0.00
   -6    9   11     -2.51      0.00
   -5    9   11     -0.20      0.00
   -4    9   11      1.40      0.00
   -3    9   11     -0.09      0.00
   -2    9   11      0.59      0.00
   -1    9   11      0.10      0.00
    0    9   11     -2.47      0.00
   -9   10   11      1.44      0.00
   -8   10   11     -4.06      0.00
   -7   10   11     -0.54      0.00
   -6   10   11      1.44      0.00
   -5   10   11     -1.16      0.00
   -4   10   11     -0.44      0.00
   -3   10   11      0.78      0.00
   -2   10   11     -0.86      0.00
   -1   10   11      1.23      0.00
    0   10   11      0.73      0.00
  -10   11   11     -2.53      0.00
   -9   11   11     -0.04      0.00
   -8   11   11      0.30      0.00
   -7   11   11     -3.59      0.00
   -6   11   11     -0.79      0.00
   -5   11   11      1.57      0.00
   -4   11   11     -0.58      0.00
   -3   11   11     -0.20      0.00
   -2   11   11      0.65      0.00
   -1   11   11     -1.23      0.00
    0   11   11      2.59      0.00
  -11   12   11      1.59      0.00
  -10   12   11      1.26      0.00
   -9   12   11     -3.91      0.00
   -8   12   11     -0.88      0.00
   -7   12   11      0.68      0.00
   -6   12   11     -1.93      0.00
   -5   12   11     -0.88      0.00
   -4   12   11      1.21      0.00
   -3   12   11     -1.19      0.00
   -2   12   11      1.13      0.00
   -1   12   11      1.41      0.00
    0   12   11     -0.43      0.00
  -12   13   11      3.33      0.00
  -11   13   11     -1.42      0.00
  -10   13   11      0.23      0.00
   -9   13   11     -0.13      0.00
   -8   13   11     -3.37      0.00
   -7   13   11     -1.00      0.00
   -6   13   11      1.56      0.00
   -5   13   11     -1.82      0.00
   -4   13   11     -0.85      0.00
   -3   13   11      0.73      0.00
   -2   13   11     -1.14      0.00
   -1   13   11      2.55      0.00
    0   13   11      2.56      0.00
  -13   14   11      0.12      0.00
  -12   14   11      2.19      0.00
  -11   14   11      1.43      0.00
  -10   14   11     -2.59      0.00
   -9   14   11     -0.88      0.00
   -8   14   11      0.60      0.00
   -7   14   11     -2.58      0.00
   -6   14   11     -1.43      0.00
   -5   14   11      1.11      0.00
   -4   14   11     -2.24      0.00
   -3   14   11     -0.11      0.00
   -2   14   11      1.31      0.00
   -1   14   11     -0.48      0.00
    0   14   11      2.48      0.00
  -14   15   11      3.11      0.00
  -13   15   11      2.86      0.00
  -12   15   11     -0.79      0.00
  -11   15   11      0.19      0.00
  -10   15   11      0.24      0.00
   -9   15   11     -2.45      0.00
   -8   15   11     -1.31      0.00
   -7   15   11      1.14      0.00
   -6   15   11     -2.76      0.00
   -5   15   11     -1.69      0.00
   -4   15   11      1.05      0.00
   -3   15   11     -1.37      0.00
   -2   15   11      0.29      0.00
   -1   15   11      2.22      0.00
    0   15   11     -0.44      0.00
  -15   16   11      1.50      0.00
  -14   16   11     -0.28      0.00
  -13   16   11      1.84      0.00
  -12   16   11      1.09      0.00
  -11   16   11     -1.62      0.00
  -10   16   11     -0.95      0.00
   -9   16   11      0.71      0.00
   -8   16   11     -2.26      0.00
   -7   16   11     -1.88      0.00
   -6   16   11      1.15      0.00
   -5   16   11     -1.68      0.00
   -4   16   11     -1.00      0.00
   -3   16   11      1.90      0.00
   -2   16   11     -0.72      0.00
   -1   16   11     -0.49      0.00
    0   16   11      2.43      0.00
  -16   17   11     -0.70      0.00
  -15   17   11      2.81      0.00
  -14   17   11      1.36      0.00
  -13   17   11     -1.41      0.00
  -12   17   11     -0.37      0.00
  -11   17   11      0.51      0.00
  -10   17   11     -1.15      0.00
   -9   17   11     -1.24      0.00
   -8   17   11      0.91      0.00
   -7   17   11     -1.69      0.00
   -6   17   11     -1.44      0.00
   -5   17   11      2.25      0.00
   -4   17   11      0.19      0.00
   -3   17   11     -1.04      0.00
   -2   17   11      1.81      0.00
   -1   17   11     -1.17      0.00
    0   17   11     -1.21      0.00
  -17   18   11      1.82      0.00
  -16   18   11      0.36      0.00
  -15   18   11     -1.23      0.00
  -14   18   11      0.74      0.00
  -13   18   11      0.09      0.00
  -12   18   11     -1.41      0.00
  -11   18   11     -0.80      0.00
  -10   18   11      1.07      0.00
   -9   18   11     -0.66      0.00
   -8   18   11     -1.35      0.00
   -7   18   11      1.45      0.00
   -6   18   11      0.33      0.00
   -5   18   11     -0.36      0.00
   -4   18   11      2.77      0.00
   -3   18   11      0.06      0.00
   -2   18   11     -2.01      0.00
   -1   18   11      0.54      0.00
    0   18   11     -1.31      0.00
  -18   19   11     -0.89      0.00
  -17   19   11     -0.54      0.00
  -16   19   11      1.78      0.00
  -15   19   11     -0.23      0.00
  -14   19   11     -2.36      0.00
  -13   19   11     -0.90      0.00
  -12   19   11      0.65      0.00
  -11   19   11     -0.05      0.00
  -10   19   11     -0.60      0.00
   -9   19   11      1.02      0.00
   -8   19   11     -0.04      0.00
   -7   19   11     -0.50      0.00
   -6   19   11      2.58      0.00
   -5   19   11      1.39      0.00
   -4   19   11     -0.56      0.00
   -3   19   11      1.20      0.00
   -2   19   11     -1.19      0.00
   -1   19   11     -2.07      0.00
    0   19   11     -0.67      0.00
  -19   20   11     -0.29      0.00
  -18   20   11      0.96      0.00
  -17   20   11     -0.07      0.00
  -16   20   11     -1.41      0.00
  -15   20   11     -0.19      0.00
  -14   20   11     -0.51      0.00
  -13   20   11     -1.43      0.00
  -12   20   11     -0.52      0.00
  -11   20   11      1.45      0.00
  -10   20   11      0.35      0.00
   -9   20   11     -0.68      0.00
   -8   20   11      1.20      0.00
   -7   20   11      0.91      0.00
   -6   20   11      0.43      0.00
   -5   20   11      2.28      0.00
   -4   20   11      0.21      0.00
   -3   20   11     -1.13      0.00
   -2   20   11     -0.65      0.00
   -1   20   11     -1.25      0.00
    0   20   11     -0.81      0.00
  -20   21   11     -0.77      0.00
  -19   21   11      0.26      0.00
  -18   21   11      0.51      0.00
  -17   21   11      0.80      0.00
  -16   21   11     -0.63      0.00
  -15   21   11     -2.09      0.00
  -14   21   11     -0.90      0.00
  -13   21   11      0.96      0.00
  -12   21   11      0.00      0.00
  -11   21   11     -0.45      0.00
  -10   21   11      1.02      0.00
   -9   21   11      0.18      0.00
   -8   21   11      0.00      0.00
   -7   21   11      1.79      0.00
   -6   21   11      0.81      0.00
   -5   21   11      0.50      0.00
   -4   21   11      0.82      0.00
   -3   21   11     -0.80      0.00
   -2   21   11     -0.58      0.00
   -1   21   11     -1.20      0.00
    0   21   11     -0.21      0.00
  -21   22   11      0.77      0.00
  -20   22   11      1.07      0.00
  -19   22   11      0.34      0.00
  -18   22   11      0.43      0.00
  -17   22   11     -0.20      0.00
  -16   22   11     -0.49      0.00
  -15   22   11     -0.07      0.00
  -14   22   11     -1.08      0.00
  -13   22   11     -0.55      0.00
  -12   22   11      1.56      0.00
  -11   22   11     -0.08      0.00
  -10   22   11     -0.62      0.00
   -9   22   11      1.06      0.00
   -8   22   11      0.51      0.00
   -7   22   11      1.01      0.00
   -6   22   11      1.69      0.00
   -5   22   11      0.00      0.00
   -4   22   11      0.55      0.00
   -3   22   11      0.06      0.00
   -2   22   11     -0.53      0.00
   -1   22   11      0.42      0.00
  -20   23   11      1.41      0.00
  -19   23   11      1.78      0.00
  -18   23   11     -0.06      0.00
  -17   23   11     -0.12      0.00
  -16   23   11     -0.74      0.00
  -15   23   11     -0.75      0.00
  -14   23   11      1.29      0.00
  -13   23   11     -0.43      0.00
  -12   23   11     -0.85      0.00
  -11   23   11      1.12      0.00
  -10   23   11      0.06      0.00
   -9   23   11      0.43      0.00
   -8   23   11      1.78      0.00
   -7   23   11      0.71      0.00
   -6   23   11      1.32      0.00
   -5   23   11      1.19      0.00
   -4   23   11     -0.23      0.00
   -3   23   11      0.73      0.00
  -18   24   11      0.90      0.00
  -17   24   11     -1.00      0.00
  -16   24   11      0.37      0.00
  -15   24   11     -0.40      0.00
  -14   24   11     -0.67      0.00
  -13   24   11      1.41      0.00
  -12   24   11     -0.38      0.00
  -11   24   11     -0.53      0.00
  -10   24   11      1.51      0.00
   -9   24   11      1.14      0.00
   -8   24   11      1.45      0.00
   -7   24   11      1.79      0.00
   -6   24   11      0.45      0.00
  -13   25   11     -0.75      0.00
  -12   25   11      1.11      0.00
    0    0   12      1.41      0.00
    0    1   12      2.36      0.00
   -1    2   12      0.26      0.00
    0    2   12      1.25      0.00
   -2    3   12      0.42      0.00
   -1    3   12      0.33      0.00
    0    3   12     -0.75      0.00
   -3    4   12     -0.35      0.00
   -2    4   12     -0.91      0.00
   -1    4   12     -0.21      0.00
    0    4   12     -0.52      0.00
   -4    5   12     -0.58      0.00
   -3    5   12     -0.49      0.00
   -2    5   12     -0.68      0.00
   -1    5   12     -0.54      0.00
    0    5   12     -0.37      0.00
   -5    6   12     -0.26      0.00
   -4    6   12     -0.61      0.00
   -3    6   12     -0.05      0.00
   -2    6   12     -0.47      0.00
   -1    6   12     -0.40      0.00
    0    6   12      0.36      0.00
   -6    7   12     -0.91      0.00
   -5    7   12      0.45      0.00
   -4    7   12     -0.49      0.00
   -3    7   12     -0.52      0.00
   -2    7   12      0.86      0.00
   -1    7   12     -0.58      0.00
    0    7   12     -0.22      0.00
   -7    8   12      0.57      0.00
   -6    8   12     -0.52      0.00
   -5    8   12     -1.07      0.00
   -4    8   12      1.30      0.00
   -3    8   12     -0.56      0.00
   -2    8   12     -0.23      0.00
   -1    8   12      1.24      0.00
    0    8   12     -1.44      0.00
   -8    9   12     -0.46      0.00
   -7    9   12     -2.23      0.00
   -6    9   12      0.75      0.00
   -5    9   12     -0.72      0.00
   -4    9   12     -0.58      0.00
   -3    9   12      2.02      0.00
   -2    9   12     -0.76      0.00
   -1    9   12     -0.26      0.00
    0    9   12      1.25      0.00
   -9   10   12     -1.99      0.00
   -8   10   12      0.41      0.00
   -7   10   12     -1.07      0.00
   -6   10   12     -1.76      0.00
   -5   10   12      1.88      0.00
   -4   10   12     -0.31      0.00
   -3   10   12     -0.34      0.00
   -2   10   12      1.92      0.00
   -1   10   12     -0.79      0.00
    0   10   12      0.03      0.00
  -10   11   12      1.96      0.00
   -9   11   12     -0.52      0.00
   -8   11   12     -2.81      0.00
   -7   11   12      0.58      0.00
   -6   11   12     -0.41      0.00
   -5   11   12     -0.42      0.00
   -4   11   12      2.25      0.00
   -3   11   12     -0.14      0.00
   -2   11   12     -0.61      0.00
   -1   11   12      2.11      0.00
    0   11   12      0.27      0.00
  -11   12   12      0.65      0.00
  -10   12   12     -1.22      0.00
   -9   12   12      0.62      0.00
   -8   12   12     -0.99      0.00
   -7   12   12     -1.43      0.00
   -6   12   12      1.54      0.00
   -5   12   12      0.49      0.00
   -4   12   12     -0.60      0.00
   -3   12   12      1.38      0.00
   -2   12   12      0.22      0.00
   -1   12   12     -0.31      0.00
    0   12   12      3.11      0.00
  -12   13   12      1.54      0.00
  -11   13   12      2.85      0.00
  -10   13   12     -0.51      0.00
   -9   13   12     -1.94      0.00
   -8   13   12      0.24      0.00
   -7   13   12      0.10      0.00
   -6   13   12     -0.14      0.00
   -5   13   12      0.97      0.00
   -4   13   12      0.17      0.00
   -3   13   12     -1.75      0.00
   -2   13   12      1.11      0.00
   -1   13   12      1.24      0.00
    0   13   12      0.13      0.00
  -13   14   12      3.74      0.00
  -12   14   12      0.45      0.00
  -11   14   12      0.00      0.00
  -10   14   12      0.96      0.00
   -9   14   12     -0.98      0.00
   -8   14   12     -0.75      0.00
   -7   14   12      0.22      0.00
   -6   14   12      0.44      0.00
   -5   14   12     -1.26      0.00
   -4   14   12     -0.31      0.00
   -3   14   12     -0.06      0.00
   -2   14   12     -2.00      0.00
   -1   14   12      1.63      0.00
    0   14   12      1.81      0.00
  -14   15   12     -0.12      0.00
  -13   15   12      2.09      0.00
  -12   15   12      3.14      0.00
  -11   15   12     -1.06      0.00
  -10   15   12     -0.92      0.00
   -9   15   12     -0.05      0.00
   -8   15   12     -0.19      0.00
   -7   15   12     -0.60      0.00
   -6   15   12     -0.72      0.00
   -5   15   12     -0.28      0.00
   -4   15   12     -2.44      0.00
   -3   15   12     -0.23      0.00
   -2   15   12      0.17      0.00
   -1   15   12     -1.88      0.00
    0   15   12      1.83      0.00
  -15   16   12      1.47      0.00
  -14   16   12      3.51      0.00
  -13   16   12     -0.49      0.00
  -12   16   12      0.36      0.00
  -11   16   12      1.25      0.00
  -10   16   12     -1.12      0.00
   -9   16   12     -0.75      0.00
   -8   16   12     -0.65      0.00
   -7   16   12     -0.27      0.00
   -6   16   12     -1.75      0.00
   -5   16   12     -0.62      0.00
   -4   16   12     -0.24      0.00
   -3   16   12     -2.43      0.00
   -2   16   12      0.12      0.00
   -1   16   12     -0.27      0.00
    0   16   12     -1.92      0.00
  -16   17   12      1.63      0.00
  -15   17   12     -0.49      0.00
  -14   17   12      1.30      0.00
  -13   17   12      2.45      0.00
  -12   17   12     -1.53      0.00
  -11   17   12     -0.69      0.00
  -10   17   12      0.45      0.00
   -9   17   12     -0.29      0.00
   -8   17   12     -1.54      0.00
   -7   17   12     -0.89      0.00
   -6   17   12     -0.31      0.00
   -5   17   12     -1.67      0.00
   -4   17   12      0.57      0.00
   -3   17   12     -0.39      0.00
   -2   17   12     -2.81      0.00
   -1   17   12     -0.30      0.00
    0   17   12     -1.00      0.00
  -17   18   12     -1.48      0.00
  -16   18   12      0.60      0.00
  -15   18   12      2.24      0.00
  -14   18   12     -1.21      0.00
  -13   18   12     -0.42      0.00
  -12   18   12      1.26      0.00
  -11   18   12     -0.50      0.00
  -10   18   12     -1.17      0.00
   -9   18   12     -0.10      0.00
   -8   18   12     -0.33      0.00
   -7   18   12     -2.10      0.00
   -6   18   12      0.40      0.00
   -5   18   12      0.32      0.00
   -4   18   12     -1.45      0.00
   -3   18   12      0.37      0.00
   -2   18   12     -1.54      0.00
   -1   18   12     -3.33      0.00
    0   18   12     -0.60      0.00
  -18   19   12     -0.88      0.00
  -17   19   12      1.11      0.00
  -16   19   12     -0.40      0.00
  -15   19   12     -0.13      0.00
  -14   19   12      0.82      0.00
  -13   19   12     -1.23      0.00
  -12   19   12     -0.98      0.00
  -11   19   12      1.22      0.00
  -10   19   12      0.49      0.00
   -9   19   12     -2.40      0.00
   -8   19   12     -0.38      0.00
   -7   19   12     -0.09      0.00
   -6   19   12     -1.31      0.00
   -5   19   12      1.40      0.00
   -4   19   12     -0.08      0.00
   -3   19   12     -2.54      0.00
   -2   19   12     -0.80      0.00
   -1   19   12     -2.07      0.00
    0   19   12     -2.74      0.00
  -19   20   12     -0.09      0.00
  -18   20   12     -0.44      0.00
  -17   20   12      0.06      0.00
  -16   20   12      0.55      0.00
  -15   20   12     -1.05      0.00
  -14   20   12     -1.20      0.00
  -13   20   12      0.63      0.00
  -12   20   12      0.55      0.00
  -11   20   12     -1.46      0.00
  -10   20   12      0.44      0.00
   -9   20   12      0.07      0.00
   -8   20   12     -2.70      0.00
   -7   20   12      0.25      0.00
   -6   20   12      0.45      0.00
   -5   20   12     -1.13      0.00
   -4   20   12      0.60      0.00
   -3   20   12     -1.01      0.00
   -2   20   12     -3.16      0.00
   -1   20   12     -1.04      0.00
    0   20   12     -1.22      0.00
  -19   21   12     -0.06      0.00
  -18   21   12      0.75      0.00
  -17   21   12      0.23      0.00
  -16   21   12     -0.70      0.00
  -15   21   12     -0.66      0.00
  -14   21   12     -0.37      0.00
  -13   21   12     -0.90      0.00
  -12   21   12      1.07      0.00
  -11   21   12      1.07      0.00
  -10   21   12     -2.59      0.00
   -9   21   12     -0.53      0.00
   -8   21   12      0.08      0.00
   -7   21   12     -1.61      0.00
   -6   21   12      0.55      0.00
   -5   21   12      0.32      0.00
   -4   21   12     -1.72      0.00
   -3   21   12     -0.19      0.00
   -2   21   12     -0.76      0.00
  -18   22   12      0.32      0.00
  -17   22   12     -0.24      0.00
  -16   22   12     -0.20      0.00
  -15   22   12     -0.84      0.00
  -14   22   12     -0.12      0.00
  -13   22   12      1.01      0.00
  -12   22   12     -1.09      0.00
  -11   22   12      0.23      0.00
  -10   22   12      0.46      0.00
   -9   22   12     -2.24      0.00
   -8   22   12     -0.40      0.00
   -7   22   12      0.69      0.00
   -6   22   12     -0.82      0.00
   -5   22   12      0.28      0.00
   -4   22   12      0.30      0.00
  -15   23   12      0.36      0.00
  -14   23   12     -0.09      0.00
  -13   23   12      0.46      0.00
  -12   23   12      0.93      0.00
  -11   23   12     -1.48      0.00
  -10   23   12     -0.32      0.00
   -9   23   12      0.90      0.00
   -8   23   12     -0.60      0.00
    0    0   13      2.47      0.00
    0    1   13      2.39      0.00
   -1    2   13      1.38      0.00
    0    2   13      1.50      0.00
   -2    3   13      1.16      0.00
   -1    3   13      1.10      0.00
    0    3   13      0.18      0.00
   -3    4   13      0.30      0.00
   -2    4   13     -0.26      0.00
   -1    4   13      0.32      0.00
    0    4   13      0.96      0.00
   -4    5   13     -0.67      0.00
   -3    5   13      0.50      0.00
   -2    5   13      0.68      0.00
   -1    5   13     -0.82      0.00
    0    5   13     -0.01      0.00
   -5    6   13      0.71      0.00
   -4    6   13      0.14      0.00
   -3    6   13     -0.95      0.00
   -2    6   13      0.25      0.00
   -1    6   13      1.20      0.00
    0    6   13     -1.19      0.00
   -6    7   13     -0.42      0.00
   -5    7   13     -1.10      0.00
   -4    7   13      0.27      0.00
   -3    7   13      0.74      0.00
   -2    7   13     -1.27      0.00
   -1    7   13      0.12      0.00
    0    7   13      0.70      0.00
   -7    8   13     -1.53      0.00
   -6    8   13     -0.17      0.00
   -5    8   13     -0.40      0.00
   -4    8   13     -1.29      0.00
   -3    8   13      0.44      0.00
   -2    8   13      0.93      0.00
   -1    8   13     -1.51      0.00
    0    8   13     -0.78      0.00
   -8    9   13      0.01      0.00
   -7    9   13     -1.59      0.00
   -6    9   13     -1.71      0.00
   -5    9   13     -0.01      0.00
   -4    9   13      0.21      0.00
   -3    9   13     -1.30      0.00
   -2    9   13      0.25      0.00
   -1    9   13      0.58      0.00
    0    9   13     -1.29      0.00
   -9   10   13     -1.46      0.00
   -8   10   13     -1.89      0.00
   -7   10   13     -0.53      0.00
   -6   10   13     -1.19      0.00
   -5   10   13     -1.21      0.00
   -4   10   13      0.79      0.00
   -3   10   13      0.36      0.00
   -2   10   13     -1.13      0.00
   -1   10   13     -0.53      0.00
    0   10   13      1.44      0.00
  -10   11   13     -0.64      0.00
   -9   11   13      0.79      0.00
   -8   11   13     -2.12      0.00
   -7   11   13     -1.88      0.00
   -6   11   13      0.53      0.00
   -5   11   13     -0.09      0.00
   -4   11   13     -0.73      0.00
   -3   11   13      0.32      0.00
   -2   11   13      0.62      0.00
   -1   11   13     -0.45      0.00
    0   11   13     -0.44      0.00
  -11   12   13      3.29      0.00
  -10   12   13     -1.05      0.00
   -9   12   13     -1.81      0.00
   -8   12   13      0.32      0.00
   -7   12   13     -1.02      0.00
   -6   12   13     -0.75      0.00
   -5   12   13      1.18      0.00
   -4   12   13      0.01      0.00
   -3   12   13     -0.93      0.00
   -2   12   13     -0.65      0.00
   -1   12   13      2.23      0.00
    0   12   13      0.40      0.00
  -12   13   13      0.71      0.00
  -11   13   13     -0.07      0.00
  -10   13   13      1.90      0.00
   -9   13   13     -1.44      0.00
   -8   13   13     -1.78      0.00
   -7   13   13      1.11      0.00
   -6   13   13      0.15      0.00
   -5   13   13     -0.57      0.00
   -4   13   13     -0.26      0.00
   -3   13   13      0.13      0.00
   -2   13   13     -1.05      0.00
   -1   13   13     -0.27      0.00
    0   13   13      3.72      0.00
  -13   14   13      0.75      0.00
  -12   14   13      3.91      0.00
  -11   14   13      0.05      0.00
  -10   14   13     -1.56      0.00
   -9   14   13      0.78      0.00
   -8   14   13     -0.28      0.00
   -7   14   13     -0.91      0.00
   -6   14   13      0.57      0.00
   -5   14   13     -0.03      0.00
   -4   14   13     -1.41      0.00
   -3   14   13     -1.35      0.00
   -2   14   13      1.25      0.00
   -1   14   13     -0.92      0.00
    0   14   13      0.95      0.00
  -14   15   13      3.51      0.00
  -13   15   13      1.78      0.00
  -12   15   13      0.40      0.00
  -11   15   13      1.70      0.00
  -10   15   13     -0.30      0.00
   -9   15   13     -1.71      0.00
   -8   15   13      0.47      0.00
   -7   15   13      0.44      0.00
   -6   15   13     -1.02      0.00
   -5   15   13     -0.96      0.00
   -4   15   13      0.29      0.00
   -3   15   13     -1.76      0.00
   -2   15   13     -0.76      0.00
   -1   15   13      1.71      0.00
    0   15   13     -0.69      0.00
  -15   16   13      1.61      0.00
  -14   16   13      1.23      0.00
  -13   16   13      2.70      0.00
  -12   16   13      1.00      0.00
  -11   16   13     -0.84      0.00
  -10   16   13      0.30      0.00
   -9   16   13      0.43      0.00
   -8   16   13     -1.28      0.00
   -7   16   13     -0.57      0.00
   -6   16   13      0.67      0.00
   -5   16   13     -1.00      0.00
   -4   16   13     -0.85      0.00
   -3   16   13      1.08      0.00
   -2   16   13     -1.95      0.00
   -1   16   13     -0.08      0.00
    0   16   13      0.96      0.00
  -16   17   13     -0.17      0.00
  -15   17   13      2.12      0.00
  -14   17   13      2.10      0.00
  -13   17   13      0.88      0.00
  -12   17   13      0.58      0.00
  -11   17   13      0.74      0.00
  -10   17   13     -0.90      0.00
   -9   17   13     -0.33      0.00
   -8   17   13      0.73      0.00
   -7   17   13     -1.01      0.00
   -6   17   13     -0.84      0.00
   -5   17   13      1.80      0.00
   -4   17   13     -0.53      0.00
   -3   17   13     -0.14      0.00
   -2   17   13      0.39      0.00
   -1   17   13     -2.23      0.00
    0   17   13     -0.08      0.00
  -17   18   13      0.35      0.00
  -16   18   13      1.59      0.00
  -15   18   13      1.33      0.00
  -14   18   13      0.72      0.00
  -13   18   13      1.26      0.00
  -12   18   13      0.17      0.00
  -11   18   13      0.00      0.00
  -10   18   13      1.03      0.00
   -9   18   13     -0.88      0.00
   -8   18   13     -1.16      0.00
   -7   18   13      1.27      0.00
   -6   18   13     -0.01      0.00
   -5   18   13      0.25      0.00
   -4   18   13      1.98      0.00
   -3   18   13     -1.14      0.00
   -2   18   13     -0.63      0.00
   -1   18   13     -0.98      0.00
    0   18   13     -1.94      0.00
  -18   19   13     -0.09      0.00
  -17   19   13      0.30      0.00
  -16   19   13      0.64      0.00
  -15   19   13      1.54      0.00
  -14   19   13      0.60      0.00
  -13   19   13     -0.47      0.00
  -12   19   13      1.25      0.00
  -11   19   13      0.25      0.00
  -10   19   13     -0.42      0.00
   -9   19   13      0.63      0.00
   -8   19   13     -0.96      0.00
   -7   19   13     -0.98      0.00
   -6   19   13      2.20      0.00
   -5   19   13      0.51      0.00
   -4   19   13      0.37      0.00
   -3   19   13      0.12      0.00
   -2   19   13     -2.17      0.00
   -1   19   13     -1.32      0.00
  -17   20   13      1.24      0.00
  -16   20   13      0.56      0.00
  -15   20   13     -0.82      0.00
  -14   20   13      0.96      0.00
  -13   20   13      0.39      0.00
  -12   20   13     -0.10      0.00
  -11   20   13      1.09      0.00
  -10   20   13     -0.43      0.00
   -9   20   13     -1.49      0.00
   -8   20   13      0.56      0.00
   -7   20   13     -0.46      0.00
   -6   20   13     -0.22      0.00
   -5   20   13      1.56      0.00
   -4   20   13     -0.41      0.00
   -3   20   13     -0.56      0.00
  -15   21   13     -0.38      0.00
  -14   21   13     -1.10      0.00
  -13   21   13      1.19      0.00
  -12   21   13      0.55      0.00
  -11   21   13     -0.57      0.00
  -10   21   13      0.07      0.00
   -9   21   13     -1.35      0.00
   -8   21   13     -1.66      0.00
   -7   21   13      0.87      0.00
   -6   21   13     -0.28      0.00
    0    0   14      2.56      0.00
    0    1   14      1.52      0.00
   -1    2   14      1.66      0.00
    0    2   14      0.77      0.00
   -2    3   14      0.46      0.00
   -1    3   14      0.55      0.00
    0    3   14      0.75      0.00
   -3    4   14     -0.02      0.00
   -2    4   14      0.35      0.00
   -1    4   14     -0.40      0.00
    0    4   14      0.50      0.00
   -4    5   14      0.14      0.00
   -3    5   14     -0.24      0.00
   -2    5   14      0.75      0.00
   -1    5   14     -0.11      0.00
    0    5   14     -0.18      0.00
   -5    6   14     -0.12      0.00
   -4    6   14      0.71      0.00
   -3    6   14     -0.30      0.00
   -2    6   14     -0.33      0.00
   -1    6   14      1.03      0.00
    0    6   14     -0.30      0.00
   -6    7   14      0.70      0.00
   -5    7   14     -0.22      0.00
   -4    7   14     -0.54      0.00
   -3    7   14      1.47      0.00
   -2    7   14     -0.84      0.00
   -1    7   14      0.38      0.00
    0    7   14     -0.31      0.00
   -7    8   14     -0.26      0.00
   -6    8   14     -1.55      0.00
   -5    8   14      1.21      0.00
   -4    8   14     -1.12      0.00
   -3    8   14      0.15      0.00
   -2    8   14      0.90      0.00
   -1    8   14     -0.75      0.00
    0    8   14      0.85      0.00
   -8    9   14     -2.06      0.00
   -7    9   14      0.85      0.00
   -6    9   14     -1.08      0.00
   -5    9   14     -0.95      0.00
   -4    9   14      1.29      0.00
   -3    9   14     -1.49      0.00
   -2    9   14      0.87      0.00
   -1    9   14     -0.57      0.00
    0    9   14      0.16      0.00
   -9   10   14      1.27      0.00
   -8   10   14     -0.49      0.00
   -7   10   14     -2.39      0.00
   -6   10   14      0.92      0.00
   -5   10   14     -1.66      0.00
   -4   10   14      0.46      0.00
   -3   10   14      0.32      0.00
   -2   10   14     -0.62      0.00
   -1   10   14      1.02      0.00
    0   10   14     -0.73      0.00
  -10   11   14      1.07      0.00
   -9   11   14     -1.88      0.00
   -8   11   14      0.75      0.00
   -7   11   14     -1.47      0.00
   -6   11   14     -0.71      0.00
   -5   11   14      0.69      0.00
   -4   11   14     -1.26      0.00
   -3   11   14      0.68      0.00
   -2   11   14     -0.36      0.00
   -1   11   14      1.05      0.00
    0   11   14      1.28      0.00
  -11   12   14      0.43      0.00
  -10   12   14      1.48      0.00
   -9   12   14     -0.55      0.00
   -8   12   14     -1.69      0.00
   -7   12   14      0.52      0.00
   -6   12   14     -1.23      0.00
   -5   12   14      0.48      0.00
   -4   12   14     -0.27      0.00
   -3   12   14     -0.32      0.00
   -2   12   14      0.13      0.00
   -1   12   14      0.49      0.00
    0   12   14      2.20      0.00
  -12   13   14      1.82      0.00
  -11   13   14      1.32      0.00
  -10   13   14     -0.60      0.00
   -9   13   14      0.43      0.00
   -8   13   14     -1.38      0.00
   -7   13   14     -0.23      0.00
   -6   13   14      0.00      0.00
   -5   13   14     -0.72      0.00
   -4   13   14     -0.36      0.00
   -3   13   14     -0.60      0.00
   -2   13   14      0.70      0.00
   -1   13   14      0.23      0.00
    0   13   14      1.66      0.00
  -13   14   14      2.32      0.00
  -12   14   14      1.48      0.00
  -11   14   14      1.14      0.00
  -10   14   14     -0.72      0.00
   -9   14   14     -0.78      0.00
   -8   14   14     -0.27      0.00
   -7   14   14     -1.00      0.00
   -6   14   14     -0.12      0.00
   -5   14   14     -0.83      0.00
   -4   14   14     -0.33      0.00
   -3   14   14     -1.11      0.00
   -2   14   14      0.19      0.00
   -1   14   14      1.27      0.00
    0   14   14      0.80      0.00
  -14   15   14      1.87      0.00
  -13   15   14      1.64      0.00
  -12   15   14      1.22      0.00
  -11   15   14      0.23      0.00
  -10   15   14     -0.34      0.00
   -9   15   14     -1.52      0.00
   -8   15   14     -0.36      0.00
   -7   15   14     -0.89      0.00
   -6   15   14     -0.58      0.00
   -5   15   14     -0.81      0.00
   -4   15   14     -0.43      0.00
   -3   15   14      0.32      0.00
   -2   15   14     -0.60      0.00
   -1   15   14      0.70      0.00
    0   15   14      1.54      0.00
  -15   16   14      0.97      0.00
  -14   16   14      2.47      0.00
  -13   16   14      1.61      0.00
  -12   16   14      0.44      0.00
  -11   16   14     -0.67      0.00
  -10   16   14     -0.28      0.00
   -9   16   14     -1.20      0.00
   -8   16   14     -1.29      0.00
   -7   16   14     -0.44      0.00
   -6   16   14     -0.61      0.00
   -5   16   14      0.41      0.00
   -4   16   14     -0.18      0.00
   -3   16   14      0.52      0.00
   -2   16   14      0.65      0.00
   -1   16   14     -0.13      0.00
    0   16   14      0.65      0.00
  -16   17   14      1.81      0.00
  -15   17   14      1.65      0.00
  -14   17   14      1.07      0.00
  -13   17   14      1.28      0.00
  -12   17   14      0.56      0.00
  -11   17   14     -0.91      0.00
  -10   17   14     -1.33      0.00
   -9   17   14     -0.15      0.00
   -8   17   14     -1.30      0.00
   -7   17   14     -0.39      0.00
   -6   17   14      0.35      0.00
   -5   17   14      1.04      0.00
   -4   17   14      1.54      0.00
   -3   17   14      0.56      0.00
   -2   17   14      0.39      0.00
   -1   17   14      0.48      0.00
  -15   18   14      2.35      0.00
  -14   18   14      1.09      0.00
  -13   18   14     -0.26      0.00
  -12   18   14     -0.16      0.00
  -11   18   14      0.61      0.00
  -10   18   14     -1.43      0.00
   -9   18   14     -1.17      0.00
   -8   18   14      0.19      0.00
   -7   18   14     -0.05      0.00
   -6   18   14      1.36      0.00
   -5   18   14      1.78      0.00
   -4   18   14      1.79      0.00
   -3   18   14      1.25      0.00
  -13   19   14      0.75      0.00
  -12   19   14     -1.08      0.00
  -11   19   14     -0.54      0.00
  -10   19   14      0.90      0.00
   -9   19   14     -1.38      0.00
   -8   19   14     -0.39      0.00
   -7   19   14      1.17      0.00
   -6   19   14      1.58      0.00
    0    0   15      0.31      0.00
    0    1   15      0.44      0.00
   -1    2   15     -0.47      0.00
    0    2   15     -0.52      0.00
   -2    3   15     -0.86      0.00
   -1    3   15     -0.97      0.00
    0    3   15     -0.92      0.00
   -3    4   15     -1.75      0.00
   -2    4   15     -0.97      0.00
   -1    4   15     -1.80      0.00
    0    4   15     -0.92      0.00
   -4    5   15     -0.19      0.00
   -3    5   15     -1.07      0.00
   -2    5   15     -1.03      0.00
   -1    5   15     -0.44      0.00
    0    5   15     -1.73      0.00
   -5    6   15     -0.02      0.00
   -4    6   15     -1.03      0.00
   -3    6   15      0.04      0.00
   -2    6   15     -1.24      0.00
   -1    6   15     -0.08      0.00
    0    6   15      0.78      0.00
   -6    7   15     -0.80      0.00
   -5    7   15      1.09      0.00
   -4    7   15     -0.02      0.00
   -3    7   15     -0.05      0.00
   -2    7   15      0.42      0.00
   -1    7   15     -0.80      0.00
    0    7   15      0.34      0.00
   -7    8   15      1.64      0.00
   -6    8   15      0.33      0.00
   -5    8   15     -0.17      0.00
   -4    8   15      0.68      0.00
   -3    8   15      0.05      0.00
   -2    8   15      0.40      0.00
   -1    8   15      1.12      0.00
    0    8   15     -0.12      0.00
   -8    9   15      0.21      0.00
   -7    9   15     -0.17      0.00
   -6    9   15      1.11      0.00
   -5    9   15      0.55      0.00
   -4    9   15      0.26      0.00
   -3    9   15      0.50      0.00
   -2    9   15      0.24      0.00
   -1    9   15      0.50      0.00
    0    9   15      1.77      0.00
   -9   10   15      0.67      0.00
   -8   10   15      1.45      0.00
   -7   10   15      0.15      0.00
   -6   10   15      0.00      0.00
   -5   10   15      0.48      0.00
   -4   10   15      0.73      0.00
   -3   10   15      0.41      0.00
   -2   10   15      1.06      0.00
   -1   10   15      0.65      0.00
    0   10   15      0.86      0.00
  -10   11   15      1.88      0.00
   -9   11   15      0.29      0.00
   -8   11   15      0.30      0.00
   -7   11   15      0.73      0.00
   -6   11   15      0.66      0.00
   -5   11   15      0.14      0.00
   -4   11   15      0.42      0.00
   -3   11   15      0.51      0.00
   -2   11   15      0.72      0.00
   -1   11   15      1.70      0.00
    0   11   15      1.26      0.00
  -11   12   15      1.20      0.00
  -10   12   15      1.32      0.00
   -9   12   15      1.03      0.00
   -8   12   15      0.20      0.00
   -7   12   15      0.05      0.00
   -6   12   15      0.56      0.00
   -5   12   15      0.58      0.00
   -4   12   15      0.07      0.00
   -3   12   15      0.61      0.00
   -2   12   15      0.27      0.00
   -1   12   15      1.11      0.00
    0   12   15      1.60      0.00
  -12   13   15      1.63      0.00
  -11   13   15      1.31      0.00
  -10   13   15      0.54      0.00
   -9   13   15      0.47      0.00
   -8   13   15      0.55      0.00
   -7   13   15      0.34      0.00
   -6   13   15     -0.32      0.00
   -5   13   15      0.30      0.00
   -4   13   15     -0.38      0.00
   -3   13   15      0.00      0.00
   -2   13   15      0.50      0.00
   -1   13   15      0.37      0.00
    0   13   15      1.06      0.00
  -13   14   15      0.91      0.00
  -12   14   15      1.22      0.00
  -11   14   15      1.26      0.00
  -10   14   15      0.35      0.00
   -9   14   15     -0.05      0.00
   -8   14   15     -0.46      0.00
   -7   14   15      0.29      0.00
   -6   14   15     -0.47      0.00
   -5   14   15     -0.82      0.00
   -4   14   15     -0.20      0.00
   -3   14   15     -0.89      0.00
   -2   14   15     -0.14      0.00
   -1   14   15      0.08      0.00
    0   14   15      0.66      0.00
  -14   15   15      0.78      0.00
  -13   15   15      1.52      0.00
  -12   15   15      0.50      0.00
  -11   15   15      0.35      0.00
  -10   15   15     -0.11      0.00
   -9   15   15     -0.30      0.00
   -8   15   15     -0.82      0.00
   -7   15   15     -1.27      0.00
   -6   15   15     -0.26      0.00
   -5   15   15     -1.11      0.00
   -4   15   15     -0.80      0.00
   -3   15   15     -0.47      0.00
   -2   15   15     -0.51      0.00
   -1   15   15     -0.45      0.00
  -13   16   15      0.94      0.00
  -12   16   15      0.73      0.00
  -11   16   15     -0.56      0.00
  -10   16   15     -0.82      0.00
   -9   16   15     -1.28      0.00
   -8   16   15     -0.80      0.00
   -7   16   15     -1.43      0.00
   -6   16   15     -1.12      0.00
   -5   16   15     -0.18      0.00
   -4   16   15     -0.36      0.00
   -3   16   15     -0.67      0.00
   -9   17   15     -1.69      0.00
   -8   17   15     -1.46      0.00
    0    0   16      1.07      0.00
    0    1   16      1.55      0.00
   -1    2   16     -0.33      0.00
    0    2   16      0.32      0.00
   -2    3   16     -0.43      0.00
   -1    3   16     -0.40      0.00
    0    3   16     -1.59      0.00
   -3    4   16     -0.87      0.00
   -2    4   16     -1.78      0.00
   -1    4   16     -0.92      0.00
    0    4   16     -0.91      0.00
   -4    5   16     -1.33      0.00
   -3    5   16     -0.52      0.00
   -2    5   16     -1.01      0.00
   -1    5   16     -1.58      0.00
    0    5   16     -0.53      0.00
   -5    6   16      0.35      0.00
   -4    6   16     -0.21      0.00
   -3    6   16     -0.95      0.00
   -2    6   16     -0.17      0.00
   -1    6   16     -0.45      0.00
    0    6   16     -0.49      0.00
   -6    7   16      0.40      0.00
   -5    7   16     -0.01      0.00
   -4    7   16      0.99      0.00
   -3    7   16     -0.20      0.00
   -2    7   16     -0.58      0.00
   -1    7   16      0.19      0.00
    0    7   16      0.64      0.00
   -7    8   16      0.06      0.00
   -6    8   16      1.43      0.00
   -5    8   16      0.37      0.00
   -4    8   16     -0.02      0.00
   -3    8   16      0.75      0.00
   -2    8   16      0.08      0.00
   -1    8   16     -0.22      0.00
    0    8   16      0.30      0.00
   -8    9   16      1.03      0.00
   -7    9   16      0.21      0.00
   -6    9   16      0.15      0.00
   -5    9   16      1.32      0.00
   -4    9   16      0.09      0.00
   -3    9   16     -0.24      0.00
   -2    9   16      0.41      0.00
   -1    9   16      0.72      0.00
    0    9   16     -0.10      0.00
   -9   10   16     -0.01      0.00
   -8   10   16     -0.09      0.00
   -7   10   16      1.06      0.00
   -6   10   16     -0.04      0.00
   -5   10   16     -0.02      0.00
   -4   10   16      0.69      0.00
   -3   10   16      0.38      0.00
   -2   10   16     -0.16      0.00
   -1   10   16      0.33      0.00
    0   10   16      0.93      0.00
  -10   11   16      0.05      0.00
   -9   11   16      0.75      0.00
   -8   11   16     -0.35      0.00
   -7   11   16      0.13      0.00
   -6   11   16      0.83      0.00
   -5   11   16      0.07      0.00
   -4   11   16     -0.10      0.00
   -3   11   16      0.37      0.00
   -2   11   16      0.92      0.00
   -1   11   16      0.03      0.00
    0   11   16     -0.02      0.00
  -11   12   16      0.78      0.00
  -10   12   16     -0.43      0.00
   -9   12   16      0.34      0.00
   -8   12   16      0.74      0.00
   -7   12   16     -0.27      0.00
   -6   12   16      0.37      0.00
   -5   12   16      0.50      0.00
   -4   12   16      0.46      0.00
   -3   12   16     -0.16      0.00
   -2   12   16      0.04      0.00
   -1   12   16      0.71      0.00
  -10   13   16      0.79      0.00
   -9   13   16     -0.59      0.00
   -8   13   16      0.81      0.00
   -7   13   16      0.72      0.00
   -6   13   16     -0.08      0.00
   -5   13   16      0.06      0.00
   -4   13   16      0.04      0.00
   -3   13   16      0.35      0.00
    0    0   17      1.59      0.00
    0    1   17     -0.51      0.00
   -1    2   17      0.48      0.00
    0    2   17     -1.36      0.00
   -2    3   17     -2.03      0.00
   -1    3   17     -2.05      0.00
    0    3   17     -0.34      0.00
   -3    4   17     -1.60      0.00
   -2    4   17     -0.29      0.00
   -1    4   17     -1.66      0.00
    0    4   17     -2.21      0.00
   -4    5   17      0.48      0.00
   -3    5   17     -1.36      0.00
   -2    5   17     -1.82      0.00
   -1    5   17      0.23      0.00
    0    5   17     -0.08      0.00
   -5    6   17     -0.42      0.00
   -4    6   17      0.31      0.00
   -3    6   17      1.11      0.00
   -2    6   17     -0.29      0.00
   -1    6   17     -1.16      0.00
    0    6   17      1.17      0.00
   -6    7   17      1.87      0.00
   -5    7   17      1.78      0.00
   -4    7   17      0.32      0.00
   -3    7   17      0.00      0.00
   -2    7   17      1.31      0.00
   -1    7   17      0.80      0.00
    0    7   17      0.03      0.00
   -7    8   17      0.73      0.00
   -6    8   17      0.46      0.00
   -5    8   17      1.80      0.00
   -4    8   17      1.87      0.00
   -3    8   17      0.15      0.00
   -2    8   17     -0.04      0.00
   -1    8   17      0.71      0.00
   -5    9   17     -0.21      0.00
   -4    9   17      0.93      0.00
    0    1    0     57.91      0.00
   -1    2    0    128.40      0.00
   -1    4    0    -12.09      0.00
    0   28    0      0.21      0.00
  -28   29    0     -0.42      0.00
  -27   29    0      0.61      0.00
   -2   29    0     -0.68      0.00
   -1   29    0     -0.97      0.00
    0   29    0     -0.68      0.00
  -29   30    0      0.11      0.00
  -28   30    0      0.21      0.00
  -27   30    0      0.69      0.00
  -26   30    0      0.15      0.00
  -25   30    0      1.87      0.00
   -5   30    0     -0.88      0.00
   -4   30    0     -0.82      0.00
   -3   30    0     -0.17      0.00
   -2   30    0     -0.71      0.00
   -1   30    0     -0.40      0.00
    0   30    0     -0.44      0.00
  -29   31    0     -0.01      0.00
  -28   31    0      0.13      0.00
  -27   31    0      1.12      0.00
  -26   31    0      0.89      0.00
  -25   31    0     -0.40      0.00
  -24   31    0      1.43      0.00
  -23   31    0      0.31      0.00
   -8   31    0     -1.82      0.00
   -7   31    0     -1.49      0.00
   -6   31    0     -0.94      0.00
   -5   31    0      0.19      0.00
   -4   31    0     -0.60      0.00
   -3   31    0     -0.53      0.00
   -2   31    0     -0.06      0.00
  -28   32    0     -0.06      0.00
  -27   32    0     -0.39      0.00
  -26   32    0      1.40      0.00
  -25   32    0      0.49      0.00
  -24   32    0     -0.31      0.00
  -23   32    0      0.26      0.00
  -22   32    0     -0.27      0.00
  -21   32    0     -0.02      0.00
  -20   32    0     -0.76      0.00
  -19   32    0     -0.64      0.00
  -18   32    0     -0.77      0.00
  -17   32    0      0.39      0.00
  -16   32    0      0.94      0.00
  -15   32    0     -0.77      0.00
  -14   32    0     -0.86      0.00
  -13   32    0      1.35      0.00
  -12   32    0      1.36      0.00
  -11   32    0     -0.86      0.00
  -10   32    0     -0.55      0.00
   -9   32    0     -0.14      0.00
   -8   32    0     -1.11      0.00
   -7   32    0     -0.70      0.00
   -6   32    0     -0.92      0.00
   -5   32    0     -0.47      0.00
   -4   32    0      0.56      0.00
    0    0    1     43.33      0.00
   -1    2    1     14.87      0.00
    0   28    1      0.36      0.00
  -28   29    1     -1.06      0.00
  -27   29    1      0.66      0.00
   -2   29    1     -0.04      0.00
   -1   29    1     -1.22      0.00
    0   29    1     -0.93      0.00
  -29   30    1      0.06      0.00
  -28   30    1     -0.35      0.00
  -27   30    1     -0.39      0.00
  -26   30    1      0.69      0.00
  -25   30    1      0.80      0.00
   -5   30    1     -0.79      0.00
   -4   30    1      0.15      0.00
   -3   30    1     -0.10      0.00
   -2   30    1     -0.80      0.00
   -1   30    1     -0.16      0.00
    0   30    1     -0.86      0.00
  -29   31    1     -0.58      0.00
  -28   31    1      0.32      0.00
  -27   31    1      0.18      0.00
  -26   31    1     -0.03      0.00
  -25   31    1      0.49      0.00
  -24   31    1      0.44      0.00
  -23   31    1      0.01      0.00
   -8   31    1     -0.58      0.00
   -7   31    1     -1.70      0.00
   -6   31    1      0.05      0.00
   -5   31    1      0.61      0.00
   -4   31    1     -0.56      0.00
   -3   31    1     -0.03      0.00
   -2   31    1     -0.30      0.00
  -28   32    1     -0.59      0.00
  -27   32    1      0.17      0.00
  -26   32    1      0.30      0.00
  -25   32    1      0.12      0.00
  -24   32    1      0.31      0.00
  -23   32    1     -0.36      0.00
  -22   32    1      0.02      0.00
  -21   32    1     -0.15      0.00
  -20   32    1     -1.06      0.00
  -19   32    1     -0.32      0.00
  -18   32    1     -0.67      0.00
  -17   32    1      0.27      0.00
  -16   32    1     -0.17      0.00
  -15   32    1     -0.97      0.00
  -14   32    1      0.50      0.00
  -13   32    1      0.17      0.00
  -12   32    1     -0.29      0.00
  -11   32    1      0.67      0.00
  -10   32    1      0.06      0.00
   -9   32    1     -1.21      0.00
   -8   32    1     -0.15      0.00
   -7   32    1      0.18      0.00
   -6   32    1     -0.91      0.00
   -5   32    1      0.08      0.00
   -4   32    1      0.51      0.00
   -2    3    2    -18.96      0.00
    0   28    2     -1.07      0.00
  -28   29    2     -0.55      0.00
  -27   29    2     -0.86      0.00
  -26   29    2      0.13      0.00
   -3   29    2     -0.01      0.00
   -2   29    2     -0.32      0.00
   -1   29    2     -0.61      0.00
    0   29    2     -0.68      0.00
  -29   30    2     -1.08      0.00
  -28   30    2     -0.21      0.00
  -27   30    2     -0.18      0.00
  -26   30    2     -0.09      0.00
  -25   30    2      0.08      0.00
   -5   30    2      0.61      0.00
   -4   30    2      0.53      0.00
   -3   30    2     -0.41      0.00
   -2   30    2     -0.59      0.00
   -1   30    2     -0.92      0.00
    0   30    2     -0.56      0.00
  -29   31    2     -0.45      0.00
  -28   31    2     -0.67      0.00
  -27   31    2     -0.10      0.00
  -26   31    2      0.26      0.00
  -25   31    2      0.57      0.00
  -24   31    2      0.11      0.00
  -23   31    2      0.51      0.00
  -22   31    2      0.08      0.00
   -9   31    2     -1.05      0.00
   -8   31    2     -0.11      0.00
   -7   31    2      0.60      0.00
   -6   31    2      0.26      0.00
   -5   31    2     -0.32      0.00
   -4   31    2      0.14      0.00
   -3   31    2     -0.03      0.00
   -2   31    2     -0.44      0.00
  -28   32    2     -0.28      0.00
  -27   32    2     -0.19      0.00
  -26   32    2     -0.19      0.00
  -25   32    2      0.52      0.00
  -24   32    2      0.62      0.00
  -23   32    2      0.15      0.00
  -22   32    2      0.19      0.00
  -21   32    2     -0.37      0.00
  -20   32    2      0.12      0.00
  -19   32    2      0.17      0.00
  -18   32    2     -0.17      0.00
  -17   32    2     -0.34      0.00
  -16   32    2     -0.20      0.00
  -15   32    2      0.22      0.00
  -14   32    2     -0.51      0.00
  -13   32    2     -0.08      0.00
  -12   32    2      0.22      0.00
  -11   32    2     -0.51      0.00
  -10   32    2      0.32      0.00
   -9   32    2      0.44      0.00
   -8   32    2     -0.33      0.00
   -7   32    2     -0.35      0.00
   -6   32    2      0.53      0.00
   -5   32    2      0.42      0.00
   -4   32    2     -0.25      0.00
  -27   28    3     -0.18      0.00
   -1   28    3     -0.59      0.00
    0   28    3     -1.02      0.00
  -28   29    3      0.59      0.00
  -27   29    3     -0.31      0.00
  -26   29    3     -0.04      0.00
   -3   29    3     -0.25      0.00
   -2   29    3     -0.50      0.00
   -1   29    3      0.25      0.00
    0   29    3      0.07      0.00
  -29   30    3     -0.66      0.00
  -28   30    3      0.33      0.00
  -27   30    3      0.74      0.00
  -26   30    3      0.88      0.00
  -25   30    3     -0.30      0.00
  -24   30    3      0.08      0.00
   -6   30    3     -0.26      0.00
   -5   30    3      0.49      0.00
   -4   30    3      0.05      0.00
   -3   30    3     -0.43      0.00
   -2   30    3     -0.15      0.00
   -1   30    3     -0.87      0.00
    0   30    3      0.04      0.00
  -28   31    3     -0.11      0.00
  -27   31    3     -0.02      0.00
  -26   31    3      0.78      0.00
  -25   31    3      1.69      0.00
  -24   31    3     -0.17      0.00
  -23   31    3      0.41      0.00
  -22   31    3      1.00      0.00
  -21   31    3      1.08      0.00
  -10   31    3     -0.40      0.00
   -9   31    3     -1.08      0.00
   -8   31    3     -0.12      0.00
   -7   31    3      0.53      0.00
   -6   31    3     -0.11      0.00
   -5   31    3     -0.79      0.00
   -4   31    3      0.20      0.00
   -3   31    3     -0.20      0.00
  -27   32    3      0.46      0.00
  -26   32    3     -0.46      0.00
  -25   32    3      0.66      0.00
  -24   32    3      1.55      0.00
  -23   32    3      0.31      0.00
  -22   32    3     -0.04      0.00
  -21   32    3      0.43      0.00
  -20   32    3      1.01      0.00
  -19   32    3      0.41      0.00
  -18   32    3      1.12      0.00
  -17   32    3     -0.06      0.00
  -16   32    3     -0.38      0.00
  -15   32    3      1.56      0.00
  -14   32    3     -0.04      0.00
  -13   32    3     -1.06      0.00
  -12   32    3      0.00      0.00
  -11   32    3     -0.04      0.00
  -10   32    3     -0.17      0.00
   -9   32    3     -0.02      0.00
   -8   32    3     -0.08      0.00
   -7   32    3     -0.49      0.00
   -6   32    3      0.40      0.00
   -5   32    3      0.20      0.00
    0   27    4      0.49      0.00
  -27   28    4     -0.14      0.00
  -26   28    4      0.34      0.00
   -2   28    4      0.31      0.00
   -1   28    4     -0.21      0.00
    0   28    4      0.17      0.00
  -28   29    4      0.98      0.00
  -27   29    4      0.17      0.00
  -26   29    4      0.11      0.00
  -25   29    4     -0.12      0.00
   -4   29    4     -0.04      0.00
   -3   29    4      0.38      0.00
   -2   29    4      0.42      0.00
   -1   29    4      0.30      0.00
    0   29    4      0.08      0.00
  -29   30    4      0.06      0.00
  -28   30    4      0.22      0.00
  -27   30    4      1.01      0.00
  -26   30    4      0.28      0.00
  -25   30    4      0.21      0.00
  -24   30    4     -0.02      0.00
  -23   30    4     -0.22      0.00
   -7   30    4     -0.46      0.00
   -6   30    4     -0.07      0.00
   -5   30    4      0.86      0.00
   -4   30    4      0.28      0.00
   -3   30    4     -0.40      0.00
   -2   30    4      0.26      0.00
   -1   30    4      0.08      0.00
  -28   31    4      0.02      0.00
  -27   31    4      0.10      0.00
  -26   31    4      0.61      0.00
  -25   31    4      0.37      0.00
  -24   31    4      0.49      0.00
  -23   31    4      0.40      0.00
  -22   31    4     -0.14      0.00
  -21   31    4      1.19      0.00
  -20   31    4      1.73      0.00
  -19   31    4      0.33      0.00
  -12   31    4      0.33      0.00
  -11   31    4     -0.36      0.00
  -10   31    4     -1.14      0.00
   -9   31    4     -0.13      0.00
   -8   31    4      0.19      0.00
   -7   31    4      0.56      0.00
   -6   31    4     -0.10      0.00
   -5   31    4     -0.59      0.00
   -4   31    4      0.64      0.00
   -3   31    4      0.15      0.00
  -26   32    4     -0.05      0.00
  -25   32    4      0.22      0.00
  -24   32    4      0.24      0.00
  -23   32    4      0.68      0.00
  -22   32    4      0.43      0.00
  -21   32    4     -0.17      0.00
  -20   32    4      0.91      0.00
  -19   32    4      1.59      0.00
  -18   32    4      0.47      0.00
  -17   32    4      0.03      0.00
  -16   32    4      0.73      0.00
  -15   32    4      0.24      0.00
  -14   32    4      0.23      0.00
  -13   32    4     -0.71      0.00
  -12   32    4     -1.01      0.00
  -11   32    4      0.45      0.00
  -10   32    4     -0.15      0.00
   -9   32    4     -0.25      0.00
   -8   32    4      0.10      0.00
   -7   32    4     -0.04      0.00
   -6   32    4      0.67      0.00
    0   27    5     -0.55      0.00
  -27   28    5     -0.81      0.00
  -26   28    5     -0.94      0.00
  -25   28    5     -0.18      0.00
   -3   28    5     -0.09      0.00
   -2   28    5      0.46      0.00
   -1   28    5      0.11      0.00
    0   28    5     -0.22      0.00
  -28   29    5     -0.42      0.00
  -27   29    5      0.31      0.00
  -26   29    5     -0.97      0.00
  -25   29    5     -0.92      0.00
  -24   29    5     -0.32      0.00
   -5   29    5      0.02      0.00
   -4   29    5      1.40      0.00
   -3   29    5      1.21      0.00
   -2   29    5     -0.45      0.00
   -1   29    5     -0.16      0.00
    0   29    5     -0.06      0.00
  -28   30    5     -0.33      0.00
  -27   30    5     -0.42      0.00
  -26   30    5      0.22      0.00
  -25   30    5     -0.55      0.00
  -24   30    5     -0.56      0.00
  -23   30    5      0.19      0.00
  -22   30    5      0.42      0.00
  -21   30    5      0.14      0.00
   -9   30    5      0.47      0.00
   -8   30    5      1.20      0.00
   -7   30    5      0.53      0.00
   -6   30    5      1.46      0.00
   -5   30    5      1.50      0.00
   -4   30    5     -0.43      0.00
   -3   30    5      0.40      0.00
   -2   30    5      0.53      0.00
  -27   31    5     -0.35      0.00
  -26   31    5     -0.52      0.00
  -25   31    5      0.07      0.00
  -24   31    5      0.33      0.00
  -23   31    5     -0.03      0.00
  -22   31    5      0.91      0.00
  -21   31    5      1.12      0.00
  -20   31    5      0.12      0.00
  -19   31    5      1.86      0.00
  -18   31    5      1.17      0.00
  -17   31    5     -0.34      0.00
  -16   31    5      0.73      0.00
  -15   31    5     -0.20      0.00
  -14   31    5     -0.52      0.00
  -13   31    5      0.57      0.00
  -12   31    5      0.25      0.00
  -11   31    5     -0.12      0.00
  -10   31    5      1.20      0.00
   -9   31    5      1.13      0.00
   -8   31    5      0.96      0.00
   -7   31    5      1.30      0.00
   -6   31    5      0.00      0.00
   -5   31    5      0.71      0.00
   -4   31    5      0.72      0.00
  -25   32    5     -0.40      0.00
  -24   32    5      0.19      0.00
  -23   32    5      0.85      0.00
  -22   32    5      0.07      0.00
  -21   32    5      1.20      0.00
  -20   32    5      1.06      0.00
  -19   32    5     -0.02      0.00
  -18   32    5      1.27      0.00
  -17   32    5      0.49      0.00
  -16   32    5     -0.32      0.00
  -15   32    5      0.24      0.00
  -14   32    5     -0.15      0.00
  -13   32    5     -0.51      0.00
  -12   32    5      0.61      0.00
  -11   32    5      0.70      0.00
  -10   32    5      0.04      0.00
   -9   32    5      1.05      0.00
   -8   32    5      0.76      0.00
   -7   32    5      0.75      0.00
  -26   27    6     -0.37      0.00
   -1   27    6      0.18      0.00
    0   27    6     -0.80      0.00
  -27   28    6     -0.98      0.00
  -26   28    6     -0.66      0.00
  -25   28    6     -0.91      0.00
  -24   28    6     -0.90      0.00
   -4   28    6      0.65      0.00
   -3   28    6      1.10      0.00
   -2   28    6      0.20      0.00
   -1   28    6     -0.60      0.00
    0   28    6      0.36      0.00
  -28   29    6     -0.19      0.00
  -27   29    6      0.18      0.00
  -26   29    6     -0.55      0.00
  -25   29    6     -0.22      0.00
  -24   29    6     -1.48      0.00
  -23   29    6     -0.18      0.00
  -22   29    6      0.84      0.00
   -7   29    6      0.74      0.00
   -6   29    6      0.53      0.00
   -5   29    6      2.03      0.00
   -4   29    6      1.38      0.00
   -3   29    6      0.15      0.00
   -2   29    6      0.62      0.00
   -1   29    6      0.10      0.00
  -27   30    6     -0.23      0.00
  -26   30    6     -0.53      0.00
  -25   30    6      0.20      0.00
  -24   30    6      0.31      0.00
  -23   30    6     -0.97      0.00
  -22   30    6      0.67      0.00
  -21   30    6      0.96      0.00
  -20   30    6      1.15      0.00
  -19   30    6      0.59      0.00
  -18   30    6     -0.17      0.00
  -17   30    6      0.27      0.00
  -13   30    6     -0.61      0.00
  -12   30    6      1.60      0.00
  -11   30    6      1.31      0.00
  -10   30    6      2.12      0.00
   -9   30    6      1.10      0.00
   -8   30    6      1.14      0.00
   -7   30    6      2.59      0.00
   -6   30    6      1.42      0.00
   -5   30    6      0.41      0.00
   -4   30    6      0.99      0.00
   -3   30    6      0.87      0.00
  -26   31    6     -0.32      0.00
  -25   31    6     -1.05      0.00
  -24   31    6      1.06      0.00
  -23   31    6      0.99      0.00
  -22   31    6      0.15      0.00
  -21   31    6      0.76      0.00
  -20   31    6      0.79      0.00
  -19   31    6      1.48      0.00
  -18   31    6      0.55      0.00
  -17   31    6      0.22      0.00
  -16   31    6     -0.51      0.00
  -15   31    6     -0.26      0.00
  -14   31    6      1.31      0.00
  -13   31    6     -0.07      0.00
  -12   31    6      0.77      0.00
  -11   31    6      1.64      0.00
  -10   31    6      1.64      0.00
   -9   31    6      2.36      0.00
   -8   31    6      1.10      0.00
   -7   31    6      0.75      0.00
   -6   31    6      1.23      0.00
   -5   31    6      0.93      0.00
  -24   32    6     -0.78      0.00
  -23   32    6      1.19      0.00
  -22   32    6      1.22      0.00
  -21   32    6      0.85      0.00
  -20   32    6      0.34      0.00
  -19   32    6      0.60      0.00
  -18   32    6      0.83      0.00
  -17   32    6      0.29      0.00
  -16   32    6      0.64      0.00
  -15   32    6     -0.79      0.00
  -14   32    6      0.10      0.00
  -13   32    6      1.50      0.00
  -12   32    6      0.64      0.00
  -11   32    6      1.04      0.00
  -10   32    6      0.92      0.00
   -9   32    6      1.27      0.00
   -8   32    6      1.25      0.00
  -25   26    7     -0.14      0.00
   -1   26    7     -0.34      0.00
    0   26    7      0.55      0.00
  -26   27    7      0.23      0.00
  -25   27    7      0.24      0.00
  -24   27    7      0.30      0.00
   -3   27    7      0.08      0.00
   -2   27    7      0.58      0.00
   -1   27    7     -0.36      0.00
    0   27    7     -0.77      0.00
  -27   28    7      0.31      0.00
  -26   28    7     -0.75      0.00
  -25   28    7      0.61      0.00
  -24   28    7     -0.35      0.00
  -23   28    7      0.25      0.00
  -22   28    7      0.83      0.00
   -6   28    7     -0.04      0.00
   -5   28    7      0.04      0.00
   -4   28    7      0.30      0.00
   -3   28    7      0.04      0.00
   -2   28    7      0.10      0.00
   -1   28    7      0.29      0.00
    0   28    7      0.82      0.00
  -27   29    7      1.07      0.00
  -26   29    7      0.27      0.00
  -25   29    7     -0.45      0.00
  -24   29    7      0.38      0.00
  -23   29    7     -0.63      0.00
  -22   29    7      0.31      0.00
  -21   29    7      1.01      0.00
  -20   29    7     -0.51      0.00
  -19   29    7     -0.65      0.00
  -10   29    7     -0.02      0.00
   -9   29    7      0.97      0.00
   -8   29    7      1.01      0.00
   -7   29    7     -0.33      0.00
   -6   29    7     -0.03      0.00
   -5   29    7      0.80      0.00
   -4   29    7      1.03      0.00
   -3   29    7      0.27      0.00
   -2   29    7      0.69      0.00
  -26   30    7      0.71      0.00
  -25   30    7      0.01      0.00
  -24   30    7      0.05      0.00
  -23   30    7      0.38      0.00
  -22   30    7     -0.22      0.00
  -21   30    7      0.49      0.00
  -20   30    7      1.14      0.00
  -19   30    7      0.46      0.00
  -18   30    7     -0.55      0.00
  -17   30    7      0.24      0.00
  -16   30    7      1.27      0.00
  -15   30    7     -0.28      0.00
  -14   30    7     -0.29      0.00
  -13   30    7      1.06      0.00
  -12   30    7      0.98      0.00
  -11   30    7      1.61      0.00
  -10   30    7      1.49      0.00
   -9   30    7      0.33      0.00
   -8   30    7      0.64      0.00
   -7   30    7      1.14      0.00
   -6   30    7      0.84      0.00
   -5   30    7     -0.04      0.00
   -4   30    7      0.82      0.00
  -24   31    7      0.14      0.00
  -23   31    7      0.83      0.00
  -22   31    7      0.58      0.00
  -21   31    7      0.19      0.00
  -20   31    7      0.38      0.00
  -19   31    7      0.99      0.00
  -18   31    7      1.20      0.00
  -17   31    7     -0.43      0.00
  -16   31    7     -0.13      0.00
  -15   31    7      1.37      0.00
  -14   31    7      0.59      0.00
  -13   31    7      0.53      0.00
  -12   31    7      1.18      0.00
  -11   31    7      1.24      0.00
  -10   31    7      1.37      0.00
   -9   31    7      0.99      0.00
   -8   31    7      0.54      0.00
   -7   31    7      0.03      0.00
  -21   32    7      0.57      0.00
  -20   32    7      0.39      0.00
  -19   32    7      0.03      0.00
  -18   32    7      0.69      0.00
  -17   32    7      1.32      0.00
  -16   32    7     -0.22      0.00
  -15   32    7     -0.15      0.00
  -14   32    7      1.03      0.00
  -13   32    7      1.06      0.00
  -12   32    7      0.74      0.00
  -11   32    7      0.39      0.00
    0   25    8     -0.29      0.00
  -25   26    8      0.96      0.00
  -24   26    8      0.65      0.00
   -2   26    8     -1.13      0.00
   -1   26    8      0.12      0.00
    0   26    8     -0.05      0.00
  -26   27    8     -0.56      0.00
  -25   27    8      0.32      0.00
  -24   27    8      1.04      0.00
  -23   27    8      0.72      0.00
  -22   27    8     -0.16      0.00
   -5   27    8     -1.55      0.00
   -4   27    8     -1.16      0.00
   -3   27    8     -0.63      0.00
   -2   27    8     -0.60      0.00
   -1   27    8     -0.63      0.00
    0   27    8      0.06      0.00
  -27   28    8      0.33      0.00
  -26   28    8      0.45      0.00
  -25   28    8     -0.22      0.00
  -24   28    8      0.08      0.00
  -23   28    8      0.27      0.00
  -22   28    8      0.27      0.00
  -21   28    8     -0.44      0.00
  -20   28    8     -1.25      0.00
  -19   28    8     -0.57      0.00
   -9   28    8     -0.77      0.00
   -8   28    8     -1.17      0.00
   -7   28    8     -1.11      0.00
   -6   28    8     -0.99      0.00
   -5   28    8     -1.06      0.00
   -4   28    8     -0.82      0.00
   -3   28    8     -0.03      0.00
   -2   28    8     -0.08      0.00
   -1   28    8     -0.09      0.00
  -26   29    8      0.42      0.00
  -25   29    8      0.50      0.00
  -24   29    8     -0.09      0.00
  -23   29    8     -0.25      0.00
  -22   29    8     -0.24      0.00
  -21   29    8      0.12      0.00
  -20   29    8     -0.08      0.00
  -19   29    8     -0.62      0.00
  -18   29    8     -0.20      0.00
  -17   29    8      0.67      0.00
  -16   29    8      0.50      0.00
  -15   29    8      0.24      0.00
  -14   29    8      0.87      0.00
  -13   29    8      1.21      0.00
  -12   29    8      0.87      0.00
  -11   29    8      0.48      0.00
  -10   29    8      0.65      0.00
   -9   29    8      0.04      0.00
   -8   29    8     -0.55      0.00
   -7   29    8     -0.86      0.00
   -6   29    8     -0.86      0.00
   -5   29    8      0.43      0.00
   -4   29    8      0.08      0.00
   -3   29    8     -0.29      0.00
  -24   30    8      0.39      0.00
  -23   30    8      0.22      0.00
  -22   30    8     -0.07      0.00
  -21   30    8     -0.09      0.00
  -20   30    8      0.23      0.00
  -19   30    8      0.43      0.00
  -18   30    8      0.13      0.00
  -17   30    8      0.24      0.00
  -16   30    8      0.95      0.00
  -15   30    8      0.88      0.00
  -14   30    8      0.64      0.00
  -13   30    8      0.93      0.00
  -12   30    8      1.61      0.00
  -11   30    8      0.87      0.00
  -10   30    8      0.16      0.00
   -9   30    8      0.32      0.00
   -8   30    8     -0.43      0.00
   -7   30    8      0.22      0.00
   -6   30    8     -0.02      0.00
  -22   31    8      0.53      0.00
  -21   31    8      0.18      0.00
  -20   31    8      0.15      0.00
  -19   31    8      0.39      0.00
  -18   31    8      0.68      0.00
  -17   31    8      0.44      0.00
  -16   31    8      0.49      0.00
  -15   31    8      0.79      0.00
  -14   31    8      1.21      0.00
  -13   31    8      0.78      0.00
  -12   31    8      0.45      0.00
  -11   31    8      1.36      0.00
  -10   31    8      0.19      0.00
   -9   31    8     -0.10      0.00
    0   24    9      0.93      0.00
  -24   25    9      0.53      0.00
  -23   25    9      1.22      0.00
   -2   25    9     -0.40      0.00
   -1   25    9     -0.48      0.00
    0   25    9      0.19      0.00
  -25   26    9      0.89      0.00
  -24   26    9      0.51      0.00
  -23   26    9      1.04      0.00
  -22   26    9      0.32      0.00
  -21   26    9     -0.23      0.00
   -5   26    9     -0.91      0.00
   -4   26    9     -1.52      0.00
   -3   26    9     -0.97      0.00
   -2   26    9     -0.31      0.00
   -1   26    9      0.08      0.00
    0   26    9     -0.14      0.00
  -26   27    9     -0.42      0.00
  -25   27    9      0.29      0.00
  -24   27    9      0.88      0.00
  -23   27    9      0.25      0.00
  -22   27    9      0.56      0.00
  -21   27    9     -0.90      0.00
  -20   27    9     -1.71      0.00
  -19   27    9     -1.36      0.00
   -8   27    9     -0.63      0.00
   -7   27    9     -0.87      0.00
   -6   27    9     -1.54      0.00
   -5   27    9     -0.72      0.00
   -4   27    9     -0.57      0.00
   -3   27    9     -0.82      0.00
   -2   27    9     -0.38      0.00
   -1   27    9     -0.23      0.00
  -25   28    9     -0.35      0.00
  -24   28    9      0.31      0.00
  -23   28    9      0.13      0.00
  -22   28    9     -0.52      0.00
  -21   28    9     -0.19      0.00
  -20   28    9     -0.99      0.00
  -19   28    9     -2.09      0.00
  -18   28    9     -1.39      0.00
  -17   28    9      0.28      0.00
  -16   28    9     -0.57      0.00
  -15   28    9     -0.75      0.00
  -14   28    9     -0.12      0.00
  -13   28    9     -0.04      0.00
  -12   28    9      1.10      0.00
  -11   28    9      0.09      0.00
  -10   28    9     -0.34      0.00
   -9   28    9      0.12      0.00
   -8   28    9     -0.65      0.00
   -7   28    9     -0.38      0.00
   -6   28    9     -0.67      0.00
   -5   28    9     -1.00      0.00
   -4   28    9     -0.08      0.00
   -3   28    9      0.18      0.00
  -24   29    9     -0.20      0.00
  -23   29    9      0.07      0.00
  -22   29    9     -0.36      0.00
  -21   29    9     -1.06      0.00
  -20   29    9     -0.42      0.00
  -19   29    9      0.05      0.00
  -18   29    9     -1.58      0.00
  -17   29    9     -0.88      0.00
  -16   29    9      0.68      0.00
  -15   29    9     -0.12      0.00
  -14   29    9      0.46      0.00
  -13   29    9      0.09      0.00
  -12   29    9      0.18      0.00
  -11   29    9      1.19      0.00
  -10   29    9      0.16      0.00
   -9   29    9     -0.11      0.00
   -8   29    9     -0.29      0.00
   -7   29    9     -0.47      0.00
   -6   29    9      0.18      0.00
   -5   29    9      0.35      0.00
  -22   30    9      0.01      0.00
  -21   30    9     -0.03      0.00
  -20   30    9     -1.18      0.00
  -19   30    9     -0.28      0.00
  -18   30    9      0.94      0.00
  -17   30    9     -0.96      0.00
  -16   30    9     -0.23      0.00
  -15   30    9      0.51      0.00
  -14   30    9      0.29      0.00
  -13   30    9      1.15      0.00
  -12   30    9      0.33      0.00
  -11   30    9      0.31      0.00
  -10   30    9      0.53      0.00
   -9   30    9      0.21      0.00
   -8   30    9      0.10      0.00
  -17   31    9      0.96      0.00
  -16   31    9     -0.35      0.00
  -15   31    9      0.34      0.00
  -14   31    9      0.31      0.00
    0   23   10      0.68      0.00
  -23   24   10      1.20      0.00
  -22   24   10      1.36      0.00
   -2   24   10     -0.09      0.00
   -1   24   10      0.48      0.00
    0   24   10      0.03      0.00
  -24   25   10      0.58      0.00
  -23   25   10      0.21      0.00
  -22   25   10      1.59      0.00
  -21   25   10      1.33      0.00
  -20   25   10      0.06      0.00
   -5   25   10      0.38      0.00
   -4   25   10     -0.28      0.00
   -3   25   10     -0.32      0.00
   -2   25   10     -0.19      0.00
   -1   25   10      0.02      0.00
    0   25   10      0.60      0.00
  -25   26   10      0.03      0.00
  -24   26   10      1.25      0.00
  -23   26   10      1.10      0.00
  -22   26   10     -0.13      0.00
  -21   26   10      0.72      0.00
  -20   26   10      0.02      0.00
  -19   26   10     -1.08      0.00
  -18   26   10     -1.18      0.00
  -17   26   10     -1.44      0.00
   -9   26   10     -0.07      0.00
   -8   26   10     -0.45      0.00
   -7   26   10      1.43      0.00
   -6   26   10     -0.18      0.00
   -5   26   10     -1.03      0.00
   -4   26   10     -0.15      0.00
   -3   26   10     -0.44      0.00
   -2   26   10     -0.17      0.00
   -1   26   10     -0.08      0.00
    0   26   10      0.23      0.00
  -24   27   10     -0.07      0.00
  -23   27   10      1.25      0.00
  -22   27   10      0.82      0.00
  -21   27   10     -1.00      0.00
  -20   27   10     -0.72      0.00
  -19   27   10     -1.03      0.00
  -18   27   10     -1.26      0.00
  -17   27   10     -0.77      0.00
  -16   27   10     -1.34      0.00
  -15   27   10     -1.18      0.00
  -14   27   10     -0.39      0.00
  -13   27   10     -0.63      0.00
  -12   27   10     -0.11      0.00
  -11   27   10     -0.61      0.00
  -10   27   10      0.09      0.00
   -9   27   10      1.75      0.00
   -8   27   10     -0.31      0.00
   -7   27   10     -1.04      0.00
   -6   27   10      0.58      0.00
   -5   27   10     -0.30      0.00
   -4   27   10     -0.84      0.00
   -3   27   10     -0.12      0.00
  -23   28   10     -0.42      0.00
  -22   28   10      0.58      0.00
  -21   28   10      0.07      0.00
  -20   28   10     -1.38      0.00
  -19   28   10     -1.04      0.00
  -18   28   10     -1.16      0.00
  -17   28   10     -0.77      0.00
  -16   28   10     -0.13      0.00
  -15   28   10     -1.17      0.00
  -14   28   10     -0.89      0.00
  -13   28   10     -0.26      0.00
  -12   28   10      0.06      0.00
  -11   28   10      0.70      0.00
  -10   28   10     -0.54      0.00
   -9   28   10     -0.35      0.00
   -8   28   10      1.22      0.00
   -7   28   10     -0.14      0.00
   -6   28   10     -0.99      0.00
   -5   28   10      0.31      0.00
  -21   29   10     -0.01      0.00
  -20   29   10     -0.28      0.00
  -19   29   10     -0.78      0.00
  -18   29   10     -0.47      0.00
  -17   29   10     -1.13      0.00
  -16   29   10     -0.53      0.00
  -15   29   10      0.12      0.00
  -14   29   10     -0.58      0.00
  -13   29   10     -0.41      0.00
  -12   29   10     -0.20      0.00
  -11   29   10      0.32      0.00
  -10   29   10      0.79      0.00
   -9   29   10     -0.30      0.00
   -8   29   10     -0.51      0.00
  -16   30   10     -1.02      0.00
  -15   30   10     -0.53      0.00
  -14   30   10      0.25      0.00
    0   22   11     -0.72      0.00
  -22   23   11      0.54      0.00
  -21   23   11     -0.51      0.00
   -2   23   11      0.08      0.00
   -1   23   11     -0.05      0.00
    0   23   11      0.97      0.00
  -23   24   11     -0.38      0.00
  -22   24   11      1.51      0.00
  -21   24   11      1.82      0.00
  -20   24   11     -0.26      0.00
  -19   24   11      0.82      0.00
   -5   24   11      0.93      0.00
   -4   24   11      0.81      0.00
   -3   24   11     -0.16      0.00
   -2   24   11      0.56      0.00
   -1   24   11      0.18      0.00
    0   24   11      0.04      0.00
  -24   25   11      0.66      0.00
  -23   25   11      0.71      0.00
  -22   25   11     -0.37      0.00
  -21   25   11      1.61      0.00
  -20   25   11      1.90      0.00
  -19   25   11     -1.24      0.00
  -18   25   11     -0.10      0.00
  -17   25   11      0.17      0.00
  -16   25   11     -0.87      0.00
  -15   25   11      1.09      0.00
  -14   25   11     -0.23      0.00
  -11   25   11      0.68      0.00
  -10   25   11      0.70      0.00
   -9   25   11      1.92      0.00
   -8   25   11      1.52      0.00
   -7   25   11      1.13      0.00
   -6   25   11      1.02      0.00
   -5   25   11      0.01      0.00
   -4   25   11      0.21      0.00
   -3   25   11      0.41      0.00
   -2   25   11     -0.20      0.00
   -1   25   11      0.29      0.00
    0   25   11     -0.04      0.00
  -23   26   11      1.16      0.00
  -22   26   11      1.40      0.00
  -21   26   11     -0.92      0.00
  -20   26   11      0.54      0.00
  -19   26   11      0.83      0.00
  -18   26   11     -1.68      0.00
  -17   26   11      0.09      0.00
  -16   26   11      0.25      0.00
  -15   26   11     -0.38      0.00
  -14   26   11      0.86      0.00
  -13   26   11      0.17      0.00
  -12   26   11     -0.17      0.00
  -11   26   11      1.26      0.00
  -10   26   11      1.77      0.00
   -9   26   11      1.01      0.00
   -8   26   11      1.13      0.00
   -7   26   11      0.81      0.00
   -6   26   11      0.18      0.00
   -5   26   11      0.18      0.00
   -4   26   11     -0.33      0.00
   -3   26   11     -0.19      0.00
  -22   27   11      1.09      0.00
  -21   27   11      1.08      0.00
  -20   27   11     -1.75      0.00
  -19   27   11     -0.27      0.00
  -18   27   11      0.40      0.00
  -17   27   11     -0.75      0.00
  -16   27   11      0.38      0.00
  -15   27   11      0.38      0.00
  -14   27   11     -0.12      0.00
  -13   27   11      0.44      0.00
  -12   27   11      1.02      0.00
  -11   27   11      0.39      0.00
  -10   27   11      0.84      0.00
   -9   27   11      1.43      0.00
   -8   27   11      0.35      0.00
   -7   27   11      0.02      0.00
   -6   27   11      0.03      0.00
   -5   27   11     -0.23      0.00
  -20   28   11      0.43      0.00
  -19   28   11     -1.32      0.00
  -18   28   11     -0.13      0.00
  -17   28   11      0.60      0.00
  -16   28   11      0.09      0.00
  -15   28   11     -0.03      0.00
  -14   28   11      0.53      0.00
  -13   28   11      0.11      0.00
  -12   28   11      0.19      0.00
  -11   28   11      1.12      0.00
  -10   28   11      0.21      0.00
   -9   28   11     -0.05      0.00
   -8   28   11      0.52      0.00
  -20   21   12     -1.26      0.00
   -1   21   12     -2.29      0.00
    0   21   12     -0.49      0.00
  -21   22   12      0.14      0.00
  -20   22   12      0.44      0.00
  -19   22   12      0.54      0.00
   -3   22   12     -1.45      0.00
   -2   22   12     -0.05      0.00
   -1   22   12      0.17      0.00
    0   22   12     -1.01      0.00
  -22   23   12     -0.12      0.00
  -21   23   12     -0.23      0.00
  -20   23   12      0.80      0.00
  -19   23   12      0.84      0.00
  -18   23   12      0.74      0.00
  -17   23   12     -0.29      0.00
  -16   23   12     -0.99      0.00
   -7   23   12      0.03      0.00
   -6   23   12      0.87      0.00
   -5   23   12     -0.46      0.00
   -4   23   12      0.38      0.00
   -3   23   12      0.73      0.00
   -2   23   12     -0.59      0.00
   -1   23   12      0.03      0.00
    0   23   12      0.62      0.00
  -23   24   12     -0.46      0.00
  -22   24   12      0.74      0.00
  -21   24   12      0.77      0.00
  -20   24   12      0.74      0.00
  -19   24   12      0.46      0.00
  -18   24   12     -0.21      0.00
  -17   24   12      0.28      0.00
  -16   24   12     -0.04      0.00
  -15   24   12     -0.27      0.00
  -14   24   12      0.87      0.00
  -13   24   12     -0.05      0.00
  -12   24   12      0.23      0.00
  -11   24   12      0.86      0.00
  -10   24   12     -0.39      0.00
   -9   24   12      0.23      0.00
   -8   24   12      1.48      0.00
   -7   24   12      0.28      0.00
   -6   24   12      0.18      0.00
   -5   24   12      0.71      0.00
   -4   24   12     -0.03      0.00
   -3   24   12      0.45      0.00
   -2   24   12      0.80      0.00
   -1   24   12     -0.05      0.00
  -22   25   12      0.10      0.00
  -21   25   12      0.81      0.00
  -20   25   12      0.77      0.00
  -19   25   12      0.37      0.00
  -18   25   12     -0.30      0.00
  -17   25   12     -0.68      0.00
  -16   25   12      0.57      0.00
  -15   25   12      0.68      0.00
  -14   25   12      0.34      0.00
  -13   25   12      0.64      0.00
  -12   25   12      0.04      0.00
  -11   25   12      0.53      0.00
  -10   25   12      1.57      0.00
   -9   25   12      0.78      0.00
   -8   25   12      0.44      0.00
   -7   25   12      0.95      0.00
   -6   25   12      0.25      0.00
   -5   25   12      0.18      0.00
   -4   25   12      0.41      0.00
   -3   25   12      0.18      0.00
  -21   26   12      0.26      0.00
  -20   26   12     -0.08      0.00
  -19   26   12     -0.21      0.00
  -18   26   12      0.06      0.00
  -17   26   12      0.06      0.00
  -16   26   12     -0.02      0.00
  -15   26   12      0.74      0.00
  -14   26   12      0.71      0.00
  -13   26   12      0.55      0.00
  -12   26   12      0.82      0.00
  -11   26   12      0.67      0.00
  -10   26   12      0.88      0.00
   -9   26   12      1.39      0.00
   -8   26   12      0.62      0.00
   -7   26   12      0.05      0.00
   -6   26   12      0.08      0.00
   -5   26   12      0.06      0.00
  -18   27   12     -0.37      0.00
  -17   27   12      0.56      0.00
  -16   27   12      0.70      0.00
  -15   27   12      0.43      0.00
  -14   27   12      0.48      0.00
  -13   27   12      0.53      0.00
  -12   27   12      0.78      0.00
  -11   27   12      0.98      0.00
  -10   27   12      0.62      0.00
   -9   27   12      0.35      0.00
    0   19   13     -1.37      0.00
  -19   20   13     -0.94      0.00
  -18   20   13      0.04      0.00
   -2   20   13     -1.45      0.00
   -1   20   13     -2.12      0.00
    0   20   13     -1.14      0.00
  -20   21   13     -0.99      0.00
  -19   21   13      0.21      0.00
  -18   21   13      0.37      0.00
  -17   21   13     -0.16      0.00
  -16   21   13      1.04      0.00
   -5   21   13     -0.19      0.00
   -4   21   13     -0.15      0.00
   -3   21   13     -1.07      0.00
   -2   21   13     -0.74      0.00
   -1   21   13     -1.58      0.00
    0   21   13     -1.32      0.00
  -21   22   13     -0.42      0.00
  -20   22   13     -0.12      0.00
  -19   22   13      0.03      0.00
  -18   22   13      1.22      0.00
  -17   22   13     -0.22      0.00
  -16   22   13     -1.24      0.00
  -15   22   13      0.87      0.00
  -14   22   13     -0.10      0.00
  -13   22   13     -0.56      0.00
  -12   22   13      0.78      0.00
  -11   22   13     -0.37      0.00
  -10   22   13     -1.61      0.00
   -9   22   13     -0.14      0.00
   -8   22   13     -1.32      0.00
   -7   22   13     -1.01      0.00
   -6   22   13      0.40      0.00
   -5   22   13     -0.44      0.00
   -4   22   13     -0.12      0.00
   -3   22   13     -0.90      0.00
   -2   22   13     -0.74      0.00
   -1   22   13     -0.24      0.00
    0   22   13     -1.25      0.00
  -22   23   13     -0.44      0.00
  -21   23   13     -0.74      0.00
  -20   23   13      0.69      0.00
  -19   23   13      0.43      0.00
  -18   23   13     -0.24      0.00
  -17   23   13      1.01      0.00
  -16   23   13     -0.91      0.00
  -15   23   13     -1.22      0.00
  -14   23   13      1.12      0.00
  -13   23   13      0.26      0.00
  -12   23   13     -1.04      0.00
  -11   23   13      0.05      0.00
  -10   23   13     -1.09      0.00
   -9   23   13     -1.32      0.00
   -8   23   13      0.33      0.00
   -7   23   13     -0.90      0.00
   -6   23   13     -0.42      0.00
   -5   23   13     -0.32      0.00
   -4   23   13     -0.12      0.00
   -3   23   13      0.41      0.00
   -2   23   13     -0.82      0.00
   -1   23   13     -0.38      0.00
  -20   24   13      0.01      0.00
  -19   24   13      1.07      0.00
  -18   24   13     -0.41      0.00
  -17   24   13     -0.93      0.00
  -16   24   13      0.95      0.00
  -15   24   13     -0.31      0.00
  -14   24   13     -1.04      0.00
  -13   24   13      0.78      0.00
  -12   24   13     -0.16      0.00
  -11   24   13     -1.22      0.00
  -10   24   13      0.38      0.00
   -9   24   13     -0.84      0.00
   -8   24   13     -0.44      0.00
   -7   24   13      0.14      0.00
   -6   24   13     -0.44      0.00
   -5   24   13      0.11      0.00
   -4   24   13     -0.51      0.00
  -18   25   13      0.57      0.00
  -17   25   13     -0.77      0.00
  -16   25   13     -0.94      0.00
  -15   25   13      1.15      0.00
  -14   25   13      0.16      0.00
  -13   25   13     -1.29      0.00
  -12   25   13      0.53      0.00
  -11   25   13     -0.28      0.00
  -10   25   13     -0.32      0.00
   -9   25   13      0.66      0.00
   -8   25   13     -0.50      0.00
   -7   25   13     -0.14      0.00
  -14   26   13      0.93      0.00
  -13   26   13      0.02      0.00
  -12   26   13     -0.86      0.00
    0   17   14     -0.34      0.00
  -17   18   14      0.69      0.00
  -16   18   14      0.64      0.00
   -2   18   14     -0.14      0.00
   -1   18   14     -0.11      0.00
    0   18   14      0.29      0.00
  -18   19   14     -0.66      0.00
  -17   19   14      1.71      0.00
  -16   19   14      1.03      0.00
  -15   19   14      0.22      0.00
  -14   19   14      0.96      0.00
   -5   19   14      2.20      0.00
   -4   19   14      1.51      0.00
   -3   19   14      0.83      0.00
   -2   19   14      0.06      0.00
   -1   19   14     -1.26      0.00
    0   19   14     -0.10      0.00
  -19   20   14      0.26      0.00
  -18   20   14      0.59      0.00
  -17   20   14      0.18      0.00
  -16   20   14      1.40      0.00
  -15   20   14      0.39      0.00
  -14   20   14     -0.89      0.00
  -13   20   14      0.07      0.00
  -12   20   14      1.50      0.00
  -11   20   14     -1.44      0.00
  -10   20   14     -0.75      0.00
   -9   20   14      0.73      0.00
   -8   20   14     -0.55      0.00
   -7   20   14      0.71      0.00
   -6   20   14      1.60      0.00
   -5   20   14      1.61      0.00
   -4   20   14      1.19      0.00
   -3   20   14     -0.05      0.00
   -2   20   14      0.03      0.00
   -1   20   14     -0.64      0.00
    0   20   14     -1.65      0.00
  -20   21   14     -0.05      0.00
  -19   21   14     -0.64      0.00
  -18   21   14      1.07      0.00
  -17   21   14      0.48      0.00
  -16   21   14     -0.32      0.00
  -15   21   14      0.05      0.00
  -14   21   14      0.71      0.00
  -13   21   14     -1.34      0.00
  -12   21   14     -0.03      0.00
  -11   21   14      1.54      0.00
  -10   21   14     -1.75      0.00
   -9   21   14     -0.79      0.00
   -8   21   14      0.58      0.00
   -7   21   14      0.31      0.00
   -6   21   14      0.83      0.00
   -5   21   14      0.74      0.00
   -4   21   14      0.71      0.00
   -3   21   14     -0.03      0.00
   -2   21   14     -0.94      0.00
   -1   21   14     -0.11      0.00
    0   21   14     -0.58      0.00
  -20   22   14      0.26      0.00
  -19   22   14      0.38      0.00
  -18   22   14      0.20      0.00
  -17   22   14      0.27      0.00
  -16   22   14      0.10      0.00
  -15   22   14     -1.13      0.00
  -14   22   14     -0.17      0.00
  -13   22   14      1.50      0.00
  -12   22   14     -1.71      0.00
  -11   22   14     -0.41      0.00
  -10   22   14      0.74      0.00
   -9   22   14     -1.28      0.00
   -8   22   14     -0.53      0.00
   -7   22   14      0.30      0.00
   -6   22   14      0.37      0.00
   -5   22   14      0.16      0.00
   -4   22   14      0.02      0.00
   -3   22   14      0.37      0.00
   -2   22   14     -0.39      0.00
  -18   23   14      0.33      0.00
  -17   23   14     -0.22      0.00
  -16   23   14     -0.53      0.00
  -15   23   14      0.54      0.00
  -14   23   14     -1.47      0.00
  -13   23   14      0.12      0.00
  -12   23   14      1.23      0.00
  -11   23   14     -1.77      0.00
  -10   23   14     -0.70      0.00
   -9   23   14      0.30      0.00
   -8   23   14     -0.44      0.00
   -7   23   14     -0.53      0.00
   -6   23   14      0.05      0.00
   -5   23   14      0.24      0.00
  -15   24   14     -0.14      0.00
  -14   24   14      0.86      0.00
  -13   24   14     -1.59      0.00
  -12   24   14     -0.02      0.00
  -11   24   14      0.68      0.00
  -10   24   14     -0.90      0.00
   -9   24   14     -0.68      0.00
    0   15   15     -0.01      0.00
  -15   16   15      1.04      0.00
  -14   16   15      0.62      0.00
   -2   16   15     -0.52      0.00
   -1   16   15      0.05      0.00
    0   16   15     -0.41      0.00
  -16   17   15      0.27      0.00
  -15   17   15      0.69      0.00
  -14   17   15      1.28      0.00
  -13   17   15     -0.02      0.00
  -12   17   15     -0.09      0.00
  -11   17   15     -0.50      0.00
  -10   17   15     -1.27      0.00
   -7   17   15     -0.62      0.00
   -6   17   15     -0.43      0.00
   -5   17   15     -0.07      0.00
   -4   17   15      0.38      0.00
   -3   17   15      0.52      0.00
   -2   17   15     -0.85      0.00
   -1   17   15     -0.39      0.00
    0   17   15      0.36      0.00
  -17   18   15     -0.05      0.00
  -16   18   15      1.14      0.00
  -15   18   15      0.55      0.00
  -14   18   15      0.45      0.00
  -13   18   15      0.42      0.00
  -12   18   15     -0.91      0.00
  -11   18   15     -1.04      0.00
  -10   18   15     -0.97      0.00
   -9   18   15     -1.38      0.00
   -8   18   15     -1.35      0.00
   -7   18   15     -0.30      0.00
   -6   18   15      0.57      0.00
   -5   18   15      1.24      0.00
   -4   18   15      0.27      0.00
   -3   18   15      0.35      0.00
   -2   18   15      0.45      0.00
   -1   18   15     -0.77      0.00
    0   18   15     -0.21      0.00
  -18   19   15      0.48      0.00
  -17   19   15      0.44      0.00
  -16   19   15      0.40      0.00
  -15   19   15      0.88      0.00
  -14   19   15     -0.21      0.00
  -13   19   15     -0.32      0.00
  -12   19   15     -0.08      0.00
  -11   19   15     -1.16      0.00
  -10   19   15     -1.36      0.00
   -9   19   15     -0.52      0.00
   -8   19   15     -0.60      0.00
   -7   19   15      0.17      0.00
   -6   19   15      0.79      0.00
   -5   19   15      1.30      0.00
   -4   19   15      1.45      0.00
   -3   19   15     -0.22      0.00
   -2   19   15     -0.14      0.00
   -1   19   15      0.02      0.00
    0   19   15     -0.32      0.00
  -18   20   15      0.13      0.00
  -17   20   15      0.86      0.00
  -16   20   15      0.29      0.00
  -15   20   15     -0.10      0.00
  -14   20   15      0.23      0.00
  -13   20   15     -0.60      0.00
  -12   20   15     -0.58      0.00
  -11   20   15      0.06      0.00
  -10   20   15     -1.01      0.00
   -9   20   15     -0.99      0.00
   -8   20   15      0.26      0.00
   -7   20   15      0.52      0.00
   -6   20   15      1.04      0.00
   -5   20   15      0.56      0.00
   -4   20   15      0.82      0.00
   -3   20   15      0.62      0.00
   -2   20   15     -0.32      0.00
  -17   21   15      0.14      0.00
  -16   21   15      0.39      0.00
  -15   21   15     -0.29      0.00
  -14   21   15     -0.37      0.00
  -13   21   15      0.19      0.00
  -12   21   15     -0.47      0.00
  -11   21   15     -0.67      0.00
  -10   21   15      0.24      0.00
   -9   21   15     -0.53      0.00
   -8   21   15     -0.42      0.00
   -7   21   15      0.41      0.00
   -6   21   15      0.80      0.00
   -5   21   15      0.64      0.00
   -4   21   15      0.04      0.00
  -14   22   15     -0.25      0.00
  -13   22   15     -0.23      0.00
  -12   22   15      0.36      0.00
  -11   22   15     -0.39      0.00
  -10   22   15     -0.74      0.00
   -9   22   15      0.27      0.00
   -8   22   15     -0.03      0.00
    0   12   16      0.16      0.00
  -12   13   16     -0.84      0.00
  -11   13   16      0.55      0.00
   -2   13   16     -0.47      0.00
   -1   13   16     -0.86      0.00
    0   13   16      0.16      0.00
  -13   14   16      0.21      0.00
  -12   14   16      0.79      0.00
  -11   14   16     -0.87      0.00
  -10   14   16      0.91      0.00
   -9   14   16      0.84      0.00
   -8   14   16     -0.67      0.00
   -7   14   16      0.54      0.00
   -6   14   16      0.28      0.00
   -5   14   16     -0.21      0.00
   -4   14   16     -0.66      0.00
   -3   14   16     -0.70      0.00
   -2   14   16     -0.35      0.00
   -1   14   16     -0.69      0.00
    0   14   16     -1.64      0.00
  -14   15   16      0.40      0.00
  -13   15   16     -1.24      0.00
  -12   15   16      0.76      0.00
  -11   15   16      1.00      0.00
  -10   15   16     -1.15      0.00
   -9   15   16      0.62      0.00
   -8   15   16      0.41      0.00
   -7   15   16     -0.93      0.00
   -6   15   16     -0.42      0.00
   -5   15   16     -0.15      0.00
   -4   15   16     -0.48      0.00
   -3   15   16     -1.18      0.00
   -2   15   16     -1.56      0.00
   -1   15   16     -0.61      0.00
    0   15   16     -0.47      0.00
  -15   16   16     -1.47      0.00
  -14   16   16      0.38      0.00
  -13   16   16      1.07      0.00
  -12   16   16     -1.23      0.00
  -11   16   16      0.46      0.00
  -10   16   16      0.58      0.00
   -9   16   16     -1.55      0.00
   -8   16   16     -0.41      0.00
   -7   16   16      0.04      0.00
   -6   16   16     -0.75      0.00
   -5   16   16     -0.92      0.00
   -4   16   16     -0.37      0.00
   -3   16   16     -0.56      0.00
   -2   16   16     -1.18      0.00
   -1   16   16     -1.81      0.00
    0   16   16     -0.05      0.00
  -16   17   16     -0.13      0.00
  -15   17   16      0.82      0.00
  -14   17   16     -1.00      0.00
  -13   17   16      0.38      0.00
  -12   17   16      0.93      0.00
  -11   17   16     -1.53      0.00
  -10   17   16     -0.46      0.00
   -9   17   16     -0.02      0.00
   -8   17   16     -1.37      0.00
   -7   17   16     -0.94      0.00
   -6   17   16      0.48      0.00
   -5   17   16     -0.03      0.00
   -4   17   16     -0.81      0.00
   -3   17   16     -0.74      0.00
   -2   17   16     -0.23      0.00
   -1   17   16     -0.82      0.00
    0   17   16     -1.25      0.00
  -16   18   16     -0.71      0.00
  -15   18   16      0.25      0.00
  -14   18   16      0.99      0.00
  -13   18   16     -1.01      0.00
  -12   18   16     -0.19      0.00
  -11   18   16      0.34      0.00
  -10   18   16     -1.43      0.00
   -9   18   16     -1.12      0.00
   -8   18   16      0.23      0.00
   -7   18   16     -0.25      0.00
   -6   18   16     -0.50      0.00
   -5   18   16      0.81      0.00
   -4   18   16      0.49      0.00
   -3   18   16     -0.68      0.00
   -2   18   16     -1.02      0.00
  -14   19   16      0.08      0.00
  -13   19   16      0.64      0.00
  -12   19   16     -0.88      0.00
  -11   19   16     -0.69      0.00
  -10   19   16      0.09      0.00
   -9   19   16     -0.62      0.00
   -8   19   16     -0.84      0.00
   -7   19   16      0.99      0.00
   -6   19   16      0.73      0.00
   -5   19   16     -0.13      0.00
    0    8   17      1.45      0.00
   -8    9   17     -0.29      0.00
   -7    9   17      2.07      0.00
   -6    9   17      1.05      0.00
   -3    9   17      1.11      0.00
   -2    9   17      0.30      0.00
   -1    9   17      0.08      0.00
    0    9   17     -0.65      0.00
   -9   10   17      1.42      0.00
   -8   10   17     -0.72      0.00
   -7   10   17     -0.91      0.00
   -6   10   17      1.67      0.00
   -5   10   17      0.91      0.00
   -4   10   17     -0.88      0.00
   -3   10   17      0.53      0.00
   -2   10   17      0.12      0.00
   -1   10   17      0.94      0.00
    0   10   17     -0.73      0.00
  -10   11   17     -1.42      0.00
   -9   11   17     -1.52      0.00
   -8   11   17      1.54      0.00
   -7   11   17     -0.18      0.00
   -6   11   17     -1.64      0.00
   -5   11   17      1.18      0.00
   -4   11   17      0.55      0.00
   -3   11   17     -0.14      0.00
   -2   11   17      0.08      0.00
   -1   11   17     -0.76      0.00
    0   11   17      1.09      0.00
  -11   12   17     -1.85      0.00
  -10   12   17      1.16      0.00
   -9   12   17     -1.02      0.00
   -8   12   17     -1.79      0.00
   -7   12   17      1.63      0.00
   -6   12   17      0.31      0.00
   -5   12   17     -1.28      0.00
   -4   12   17      0.76      0.00
   -3   12   17      0.11      0.00
   -2   12   17      0.84      0.00
   -1   12   17     -1.23      0.00
    0   12   17     -0.99      0.00
  -12   13   17      0.78      0.00
  -11   13   17     -0.95      0.00
  -10   13   17     -1.63      0.00
   -9   13   17      1.57      0.00
   -8   13   17     -0.10      0.00
   -7   13   17     -1.57      0.00
   -6   13   17      1.35      0.00
   -5   13   17      0.36      0.00
   -4   13   17     -0.02      0.00
   -3   13   17     -0.44      0.00
   -2   13   17     -0.41      0.00
   -1   13   17      0.71      0.00
    0   13   17     -2.09      0.00
  -13   14   17     -0.54      0.00
  -12   14   17     -1.58      0.00
  -11   14   17      1.11      0.00
  -10   14   17     -0.28      0.00
   -9   14   17     -1.16      0.00
   -8   14   17      1.60      0.00
   -7   14   17      0.19      0.00
   -6   14   17     -0.76      0.00
   -5   14   17      0.33      0.00
   -4   14   17      0.03      0.00
   -3   14   17      0.57      0.00
   -2   14   17     -1.94      0.00
   -1   14   17     -0.59      0.00
    0   14   17      0.19      0.00
  -14   15   17     -1.49      0.00
  -13   15   17      0.61      0.00
  -12   15   17     -0.22      0.00
  -11   15   17     -0.71      0.00
  -10   15   17      1.26      0.00
   -9   15   17     -0.08      0.00
   -8   15   17     -0.87      0.00
   -7   15   17      0.79      0.00
   -6   15   17     -0.02      0.00
   -5   15   17      0.18      0.00
   -4   15   17     -1.06      0.00
   -3   15   17     -0.30      0.00
   -2   15   17      0.21      0.00
   -1   15   17     -2.07      0.00
  -13   16   17     -0.40      0.00
  -12   16   17      0.74      0.00
  -11   16   17     -0.21      0.00
  -10   16   17     -0.48      0.00
   -9   16   17      0.71      0.00
   -8   16   17     -0.43      0.00
   -7   16   17     -0.33      0.00
   -6   16   17     -0.18      0.00
   -5   16   17     -0.05      0.00
   -4   16   17      0.49      0.00
   -3   16   17     -1.69      0.00
   -9   17   17     -0.54      0.00
   -8   17   17      0.10      0.00
    0    0   18     -1.45      0.00
    0    1   18     -1.28      0.00
   -1    2   18     -1.92      0.00
    0    2   18     -1.72      0.00
   -2    3   18     -1.83      0.00
   -1    3   18     -2.27      0.00
    0    3   18     -1.83      0.00
   -3    4   18     -1.79      0.00
   -2    4   18     -1.44      0.00
   -1    4   18     -1.23      0.00
    0    4   18     -1.56      0.00
   -4    5   18     -0.02      0.00
   -3    5   18     -0.17      0.00
   -2    5   18     -1.76      0.00
   -1    5   18     -0.30      0.00
    0    5   18      0.04      0.00
   -5    6   18      1.19      0.00
   -4    6   18     -0.22      0.00
   -3    6   18      0.92      0.00
   -2    6   18      0.72      0.00
   -1    6   18     -0.45      0.00
    0    6   18      1.16      0.00
   -6    7   18      0.87      0.00
   -5    7   18      1.98      0.00
   -4    7   18      2.04      0.00
   -3    7   18     -0.33      0.00
   -2    7   18      1.40      0.00
   -1    7   18      1.01      0.00
    0    7   18      1.34      0.00
   -7    8   18      1.21      0.00
   -6    8   18      2.47      0.00
   -5    8   18      0.44      0.00
   -4    8   18      2.28      0.00
   -3    8   18      1.41      0.00
   -2    8   18      0.20      0.00
   -1    8   18      1.07      0.00
    0    8   18      0.45      0.00
   -8    9   18      1.73      0.00
   -7    9   18      0.00      0.00
   -6    9   18      1.76      0.00
   -5    9   18      1.69      0.00
   -4    9   18     -0.16      0.00
   -3    9   18      1.60      0.00
   -2    9   18      0.56      0.00
   -1    9   18      0.98      0.00
    0    9   18      0.03      0.00
   -9   10   18     -0.90      0.00
   -8   10   18      0.16      0.00
   -7   10   18      1.32      0.00
   -6   10   18     -0.56      0.00
   -5   10   18      1.60      0.00
   -4   10   18      0.39      0.00
   -3   10   18      0.12      0.00
   -2   10   18      0.67      0.00
   -1   10   18     -0.08      0.00
    0   10   18      0.84      0.00
  -10   11   18     -0.62      0.00
   -9   11   18      0.80      0.00
   -8   11   18     -1.23      0.00
   -7   11   18      0.68      0.00
   -6   11   18      0.19      0.00
   -5   11   18     -0.60      0.00
   -4   11   18      1.08      0.00
   -3   11   18      0.10      0.00
   -2   11   18      0.58      0.00
   -1   11   18     -0.15      0.00
    0   11   18     -0.80      0.00
  -10   12   18     -1.51      0.00
   -9   12   18     -0.10      0.00
   -8   12   18      0.33      0.00
   -7   12   18     -0.98      0.00
   -6   12   18      0.84      0.00
   -5   12   18     -0.23      0.00
   -4   12   18     -0.05      0.00
   -3   12   18      0.55      0.00
   -2   12   18      0.06      0.00
   -8   13   18      0.52      0.00
   -7   13   18     -0.14      0.00
   -6   13   18     -0.49      0.00
   -5   13   18      0.62      0.00
    0    0    0      0.00      0.00
# SQUEEZE RESULTS (Version = 200618)
# Note: Data are Listed for all Voids in the P1 Unit Cell
# i.e. Centre of Gravity, Solvent Accessible Volume,
# Recovered number of Electrons in the Void and
# Details about the Squeezed Material
loop_
  _platon_squeeze_void_nr
  _platon_squeeze_void_average_x
  _platon_squeeze_void_average_y
  _platon_squeeze_void_average_z
  _platon_squeeze_void_volume
  _platon_squeeze_void_count_electrons
  _platon_squeeze_void_content
   1  0.000  0.000  0.000       434        96 ' '
   2  0.333  0.667  0.142        60         4 ' '
   3  0.333  0.667  0.858        59         4 ' '
   4  0.333  0.667  0.500        78        21 ' '
   5  0.667  0.333  0.142        60         4 ' '
   6  0.667  0.333  0.858        59         4 ' '
   7  0.667  0.333  0.500        78        21 ' '
# Missing Reflections Below sin(th)/lambda = 0.25
loop_
  _platon_missing_refln_index_h
  _platon_missing_refln_index_k
  _platon_missing_refln_index_l
  _platon_missing_refln_theta
    0    1    0     1.901
   -1    2    0     3.294
   -1    4    0     6.869
    0    0    1     2.970
   -1    2    1     4.437
   -2    3    2     7.805
_platon_squeeze_void_probe_radius                  1.20
_platon_squeeze_details
)
TITL aa_0220_mom_12_0m_a.res in P6/m
CELL   26.8343   26.8343   14.8769     90.00     90.00    120.00
SPGR P6/m
# Solvent Accessible Volume =       837
# Electrons Found in S.A.V. =       153
# Note: Atoms in Void are Labelled as Cxxx and Qxxx for all Others
C101 0.333 0.664 0.507 !       2.39 eA-3
C102 0.667 0.334 0.415 !       1.43 eA-3
Q103 0.384 0.497 0.564 !       1.36 eA-3
C104 0.984 0.859-0.002 !       1.30 eA-3
Q105 0.685 0.464 0.142 !       1.14 eA-3
C106 0.014 0.102 0.005 !       1.11 eA-3
C107 0.960 0.078 0.002 !       1.11 eA-3
Q108 0.194 0.212 0.441 !       1.06 eA-3
C109 0.969 0.018 0.249 !       1.05 eA-3
C110 0.861 0.908 0.984 !       0.93 eA-3
Q111 0.178 0.109 0.005 !       0.86 eA-3
C112 0.679 0.374 0.448 !       0.83 eA-3
Q113 0.623 0.305 0.369 !       0.79 eA-3
C114 0.968 0.049 0.890 !       0.78 eA-3
Q115 0.408 0.156-0.008 !       0.76 eA-3
Q116 0.719 0.109 0.493 !       0.75 eA-3
C117 0.913 0.919 0.101 !       0.75 eA-3
C118 0.978 0.897 0.873 !       0.70 eA-3
Q119 0.085 0.758 0.500 !       0.69 eA-3
Q120 0.454 0.269 0.263 !       0.69 eA-3
Q121 0.544 0.141 0.505 !       0.68 eA-3
Q122 0.261 0.445 0.001 !       0.67 eA-3
Q123 0.217 0.984 0.504 !       0.67 eA-3
Q124 0.334 0.266 0.495 !       0.66 eA-3
Q125 0.752 0.563 0.058 !       0.66 eA-3
Q126 0.260 0.631 0.358 !       0.66 eA-3
C127 0.053 0.965 0.953 !       0.65 eA-3
Q128 0.984 0.227 0.499 !       0.64 eA-3
C129 1.000 1.000 0.000 !       0.64 eA-3
Q130 0.601 0.273 0.497 !       0.62 eA-3
C131 0.667 0.337 0.884 !       0.61 eA-3
Q132 0.883 0.039 0.493 !       0.61 eA-3
C133 0.082 0.064 0.841 !       0.61 eA-3
Q134 0.687 0.484 0.508 !       0.59 eA-3
Q135 0.817 0.094 0.502 !       0.59 eA-3
Q136 0.429 0.828 0.000 !       0.59 eA-3
C137 0.649 0.431 0.827 !       0.57 eA-3
Q138 0.955 0.359-0.001 !       0.55 eA-3
C139 0.024 0.934 0.924 !       0.54 eA-3
Q140 0.593 0.116 0.053 !       0.54 eA-3
Q141 0.515 0.414 0.003 !       0.54 eA-3
Q142 0.284 0.477 0.498 !       0.53 eA-3
Q143 0.665 0.333 0.334 !       0.53 eA-3
Q144 1.001 0.117 0.498 !       0.52 eA-3
Q145 0.760 0.211 0.491 !       0.52 eA-3
Q146 0.306 0.568 0.676 !       0.51 eA-3
Q147 0.766 0.141 0.502 !       0.51 eA-3
Q148 0.108 0.750 0.002 !       0.50 eA-3
)
;
_shelx_fab_checksum              88591
_olex2_submission_special_instructions 'No special instructions were received'
loop_
_space_group_symop_operation_xyz
'x, y, z'
'-y, x-y, z'
'-x+y, -x, z'
'-x, -y, z'
'y, -x+y, z'
'x-y, x, z'
'-x, -y, -z'
'y, -x+y, -z'
'x-y, x, -z'
'x, y, -z'
'-y, x-y, -z'
'-x+y, -x, -z'
loop_
_atom_site_label
_atom_site_type_symbol
_atom_site_fract_x
_atom_site_fract_y
_atom_site_fract_z
_atom_site_U_iso_or_equiv
_atom_site_adp_type
_atom_site_occupancy
_atom_site_site_symmetry_order
_atom_site_calc_flag
_atom_site_refinement_flags_posn
_atom_site_refinement_flags_adp
_atom_site_refinement_flags_occupancy
_atom_site_disorder_assembly
_atom_site_disorder_group
Zn1 Zn 0.99027(10) 0.20203(8) 0.500000 0.0386(5) Uani 0.5 2 d S T P A 1
Zn2 Zn 1.13008(5) 0.61753(4) 0.500000 0.0485(4) Uani 1 2 d S T P . .
Zn3 Zn 0.82426(15) 0.01726(12) 0.500000 0.0494(6) Uani 0.5 2 d S T P A 2
O3 O 1.1655(3) 0.5691(2) 0.500000 0.0595(17) Uani 1 2 d S T P . .
C4 C 1.1225(4) 0.5172(3) 0.500000 0.0462(19) Uani 1 2 d S T P . .
O5 O 1.0724(3) 0.5068(2) 0.500000 0.0508(14) Uani 1 2 d S T P . .
O6 O 1.3056(3) 0.5061(2) 0.500000 0.0589(16) Uani 1 2 d S T P . .
C7 C 1.2682(4) 0.4536(4) 0.500000 0.055(2) Uani 1 2 d S T P . .
O8 O 1.2780(3) 0.4127(3) 0.500000 0.0657(19) Uani 1 2 d S T P . .
O9 O 1.0742(3) 0.2693(2) 0.500000 0.0462(13) Uani 1 2 d S T P . .
C10 C 1.0587(3) 0.3084(3) 0.500000 0.0421(17) Uani 1 2 d S T P A .
O11 O 1.0077(2) 0.2958(2) 0.500000 0.0504(14) Uani 1 2 d S T P . .
C12 C 1.1375(3) 0.4703(3) 0.500000 0.0393(16) Uani 1 2 d S T P . .
C13 C 1.1936(3) 0.4833(3) 0.500000 0.0479(19) Uani 1 2 d S T P . .
H13 H 1.223586 0.522409 0.500000 0.057 Uiso 1 2 calc RS T P . .
C14 C 1.2068(3) 0.4401(3) 0.500000 0.049(2) Uani 1 2 d S T P . .
C15 C 1.1628(3) 0.3826(3) 0.500000 0.0437(18) Uani 1 2 d S T P A .
H15 H 1.171922 0.352653 0.500000 0.052 Uiso 1 2 calc RS T P . .
C16 C 1.1056(3) 0.3695(3) 0.500000 0.0376(16) Uani 1 2 d S T P . .
C17 C 1.0930(3) 0.4139(3) 0.500000 0.0412(17) Uani 1 2 d S T P A .
H17 H 1.054178 0.405525 0.500000 0.049 Uiso 1 2 calc RS T P . .
O21 O 1.0056(6) 0.1368(5) 0.500000 0.058(3) Uani 0.5 2 d S T P . .
C22 C 0.9623(6) 0.0804(8) 0.500000 0.050(4) Uani 0.5 2 d S T P A .
O23 O 0.9100(6) 0.0669(6) 0.500000 0.074(4) Uani 0.5 2 d S T P . .
C24 C 0.9814(4) 0.0405(4) 0.500000 0.059(2) Uani 1 2 d S T P . .
Zn30 Zn 0.7264(2) 0.0773(3) 0.000000 0.0722(15) Uani 0.5 2 d DS TU P A 1
N31 N 0.9491(6) 0.1896(6) 0.3855(10) 0.047(3) Uani 0.5 1 d D U . A 1
C32 C 0.9114(5) 0.2088(6) 0.3724(8) 0.046(2) Uani 0.5 1 d D U . A 1
H32 H 0.910081 0.234044 0.415904 0.055 Uiso 0.5 1 calc R . . A 1
C33 C 0.8747(6) 0.1935(6) 0.2985(8) 0.053(3) Uani 0.5 1 d D U . A 1
H33 H 0.849156 0.208125 0.291800 0.064 Uiso 0.5 1 calc R . . A 1
C34 C 0.8764(6) 0.1566(6) 0.2353(10) 0.056(3) Uani 0.5 1 d D U . A 1
C35 C 0.9174(7) 0.1400(8) 0.2436(11) 0.063(4) Uani 0.5 1 d D U . A 1
H35 H 0.922707 0.118678 0.197254 0.076 Uiso 0.5 1 calc R . . A 1
C36 C 0.9507(6) 0.1551(6) 0.3211(9) 0.056(3) Uani 0.5 1 d D U . A 1
H36 H 0.976063 0.140345 0.329116 0.067 Uiso 0.5 1 calc R . . A 1
N37 N 0.8147(6) 0.1259(9) 0.000000 0.068(5) Uani 0.5 2 d DS TU P A 1
C38 C 0.8519(6) 0.1504(7) 0.0734(9) 0.065(4) Uani 0.5 1 d D U . A 1
C39 C 0.9085(7) 0.1906(7) 0.0466(5) 0.068(4) Uani 0.5 1 d D U . A 1
H39 H 0.940344 0.213157 0.084791 0.082 Uiso 0.5 1 calc R . . A 1
C40 C 0.8322(7) 0.1324(8) 0.1613(11) 0.063(4) Uani 0.5 1 d D U . A 1
N45 N 0.7291(6) 0.0656(9) 0.1357(7) 0.063(4) Uani 0.5 1 d D U . A 1
C41 C 0.7792(5) 0.0920(9) 0.1905(9) 0.065(4) Uani 0.5 1 d DG U . A 1
C42 C 0.7624(7) 0.0723(12) 0.2800(7) 0.058(5) Uani 0.5 1 d DG U . A 1
H42 H 0.787275 0.083079 0.330640 0.070 Uiso 0.5 1 calc R . . A 1
C43 C 0.7021(8) 0.0338(13) 0.2805(10) 0.064(6) Uani 0.5 1 d DG U . A 1
H43 H 0.679490 0.014239 0.331608 0.077 Uiso 0.5 1 calc R . . A 1
C44 C 0.6815(5) 0.0296(10) 0.1913(11) 0.073(5) Uani 0.5 1 d DG U . A 1
C46 C 0.6303(7) 0.0004(7) 0.1601(11) 0.063(4) Uiso 0.5 1 d D U . A 1
C47 C 0.6077(10) -0.0104(13) 0.0755(13) 0.075(7) Uani 0.5 1 d D U . A 1
C48 C 0.5502(11) -0.0426(16) 0.0468(5) 0.080(9) Uani 0.5 1 d D U . A 1
H48 H 0.517240 -0.060971 0.084469 0.096 Uiso 0.5 1 calc R . . A 1
N55 N 0.6438(8) 0.0083(13) 0.000000 0.072(8) Uani 0.5 2 d DS TU P A 1
O56 O 0.7118(13) 0.1505(12) 0.000000 0.105(7) Uani 0.5 2 d DS TU P A 1
Zn60 Zn 0.7446(2) 0.0727(3) 0.000000 0.0611(12) Uani 0.5 2 d DS TU P A 2
N61 N 0.9686(5) 0.1731(6) 0.3888(9) 0.065(3) Uani 0.5 1 d D U . A 2
C62 C 0.9319(8) 0.1930(10) 0.3760(13) 0.065(4) Uani 0.5 1 d D U . A 2
H62 H 0.931103 0.217568 0.421282 0.077 Uiso 0.5 1 calc R . . A 2
C63 C 0.8948(7) 0.1811(8) 0.3027(10) 0.073(4) Uani 0.5 1 d D U . A 2
H63 H 0.871456 0.198237 0.296431 0.088 Uiso 0.5 1 calc R . . A 2
C64 C 0.8945(7) 0.1424(8) 0.2395(11) 0.069(4) Uani 0.5 1 d D U . A 2
C65 C 0.9319(7) 0.1208(9) 0.2507(11) 0.081(4) Uani 0.5 1 d D U . A 2
H65 H 0.931333 0.093721 0.209064 0.097 Uiso 0.5 1 calc R . . A 2
C66 C 0.9701(7) 0.1392(8) 0.3233(10) 0.076(4) Uani 0.5 1 d D U . A 2
H66 H 0.998083 0.127396 0.326484 0.092 Uiso 0.5 1 calc R . . A 2
N67 N 0.8331(5) 0.1118(10) 0.000000 0.075(6) Uani 0.5 2 d DS TU P A 2
C68 C 0.8705(6) 0.1346(8) 0.0740(9) 0.077(5) Uani 0.5 1 d D U . A 2
C69 C 0.9285(7) 0.1696(10) 0.0468(5) 0.101(7) Uani 0.5 1 d D U . A 2
H69 H 0.961056 0.189195 0.084965 0.122 Uiso 0.5 1 calc R . . A 2
C70 C 0.8506(7) 0.1205(9) 0.1646(12) 0.075(5) Uani 0.5 1 d D U . A 2
N75 N 0.7467(5) 0.0620(8) 0.1362(6) 0.059(4) Uani 0.5 1 d D U . A 2
C74 C 0.6982(5) 0.0295(8) 0.1925(9) 0.052(4) Uani 0.5 1 d DG U . A 2
C73 C 0.7182(7) 0.0353(11) 0.2824(8) 0.048(4) Uani 0.5 1 d DG U . A 2
H73 H 0.695007 0.018079 0.333990 0.058 Uiso 0.5 1 calc R . . A 2
C72 C 0.7790(7) 0.0713(11) 0.2817(8) 0.061(5) Uani 0.5 1 d DG U . A 2
H72 H 0.803537 0.082461 0.332656 0.073 Uiso 0.5 1 calc R . . A 2
C71 C 0.7965(5) 0.0879(9) 0.1913(10) 0.072(5) Uani 0.5 1 d DG U . A 2
C76 C 0.6393(7) -0.0083(8) 0.1651(11) 0.063(4) Uiso 0.5 1 d D U . A 2
C77 C 0.6203(9) -0.0164(14) 0.0710(15) 0.070(5) Uani 0.5 1 d D U . A 2
C78 C 0.5621(11) -0.0510(16) 0.0466(5) 0.070(7) Uani 0.5 1 d D U . A 2
H78 H 0.529887 -0.070144 0.085536 0.085 Uiso 0.5 1 calc R . . A 2
C79 C 0.5922(4) -0.0344(3) 0.2362(5) 0.0725(19) Uani 1 1 d D U . . .
C80 C 0.5812(4) -0.0049(3) 0.3012(5) 0.0727(19) Uani 1 1 d D U . . .
H80 H 0.597913 0.035642 0.296745 0.087 Uiso 1 1 calc DR . . . .
C81 C 0.5458(3) -0.0342(3) 0.3736(5) 0.0621(16) Uani 1 1 d D U . . .
H81 H 0.538370 -0.012962 0.417472 0.074 Uiso 1 1 calc R . . . .
N82 N 0.5221(2) -0.0906(2) 0.3835(4) 0.0557(13) Uani 1 1 d D U . . .
C83 C 0.5312(3) -0.1202(3) 0.3185(5) 0.0710(19) Uani 1 1 d D U . . .
H83 H 0.513109 -0.160849 0.323176 0.085 Uiso 1 1 calc R . . . .
C84 C 0.5658(4) -0.0932(3) 0.2457(5) 0.075(2) Uani 1 1 d D U . . .
H84 H 0.571493 -0.115424 0.201446 0.090 Uiso 1 1 calc R . . . .
O85 O 0.7340(11) 0.1456(10) 0.000000 0.089(6) Uani 0.5 2 d S TU P A 2
C57 C 0.7564(18) 0.1999(15) 0.000000 0.134(14) Uani 0.25 2 d DS TU P A 1
H57 H 0.793657 0.203993 0.000000 0.160 Uiso 0.25 2 calc RS T P A 1
N58 N 0.750(2) 0.2445(14) 0.000000 0.144(15) Uani 0.25 2 d DS TU P A 1
C60 C 0.692(2) 0.238(3) 0.000000 0.18(3) Uani 0.25 2 d DS TU P A 1
H60A H 0.695734 0.276740 0.000000 0.263 Uiso 0.25 2 calc RS T P A 1
H60B H 0.670943 0.217371 -0.053786 0.263 Uiso 0.125 1 calc R . . A 1
H60C H 0.670943 0.217371 0.053786 0.263 Uiso 0.125 1 calc R . . A 1
C59 C 0.799(3) 0.3036(17) 0.000000 0.18(3) Uani 0.25 2 d DS TU P A 1
H59C H 0.785542 0.331077 0.000000 0.264 Uiso 0.25 2 calc RS T P A 1
H59B H 0.822889 0.309484 0.053786 0.264 Uiso 0.125 1 calc R . . A 1
H59A H 0.822889 0.309483 -0.053786 0.264 Uiso 0.125 1 calc R . . A 1
N347 N 0.6595(7) 0.0091(12) 0.000000 0.061(5) Uani 0.5 2 d DS TU P A 2
O91 O 0.7702(11) 0.2258(12) 0.2369(19) 0.210(10) Uani 0.5 1 d D U . . .
C92 C 0.7204(11) 0.1834(11) 0.2356(16) 0.148(7) Uani 0.5 1 d D U . . .
H92 H 0.711864 0.145005 0.224539 0.177 Uiso 0.5 1 calc R . . . .
N93 N 0.6824(10) 0.1977(10) 0.2509(15) 0.161(7) Uani 0.5 1 d D U . . .
C94 C 0.6978(16) 0.2571(11) 0.278(3) 0.213(12) Uani 0.5 1 d D U . . .
H94A H 0.662563 0.259059 0.286117 0.319 Uiso 0.5 1 calc R . . . .
H94B H 0.719578 0.267234 0.334016 0.319 Uiso 0.5 1 calc R . . . .
H94C H 0.721287 0.284162 0.230460 0.319 Uiso 0.5 1 calc R . . . .
C95 C 0.6216(11) 0.1539(8) 0.244(2) 0.200(12) Uani 0.5 1 d D U . . .
H95A H 0.597850 0.171269 0.257770 0.300 Uiso 0.5 1 calc R . . . .
H95B H 0.613220 0.138061 0.183243 0.300 Uiso 0.5 1 calc R . . . .
H95C H 0.612948 0.122997 0.287389 0.300 Uiso 0.5 1 calc DR . . . .
O92 O 0.641(3) 0.147(2) 0.000000 0.139(15) Uani 0.25 2 d S TU P B 3
loop_
_atom_site_aniso_label
_atom_site_aniso_U_11
_atom_site_aniso_U_22
_atom_site_aniso_U_33
_atom_site_aniso_U_23
_atom_site_aniso_U_13
_atom_site_aniso_U_12
Zn1 0.0310(10) 0.0293(10) 0.0570(14) 0.000 0.000 0.0162(9)
Zn2 0.0495(7) 0.0348(6) 0.0620(7) 0.000 0.000 0.0216(5)
Zn3 0.0682(17) 0.0428(13) 0.0488(13) 0.000 0.000 0.0363(14)
O3 0.053(3) 0.033(3) 0.090(5) 0.000 0.000 0.020(3)
C4 0.052(5) 0.032(4) 0.061(5) 0.000 0.000 0.026(4)
O5 0.048(3) 0.036(3) 0.074(4) 0.000 0.000 0.026(2)
O6 0.043(3) 0.040(3) 0.085(5) 0.000 0.000 0.014(3)
C7 0.041(4) 0.048(5) 0.076(6) 0.000 0.000 0.021(4)
O8 0.041(3) 0.045(3) 0.110(6) 0.000 0.000 0.020(3)
O9 0.055(3) 0.028(2) 0.050(3) 0.000 0.000 0.017(2)
C10 0.040(4) 0.035(4) 0.044(4) 0.000 0.000 0.013(3)
O11 0.039(3) 0.039(3) 0.064(4) 0.000 0.000 0.012(2)
C12 0.039(4) 0.025(3) 0.055(5) 0.000 0.000 0.017(3)
C13 0.041(4) 0.027(3) 0.066(5) 0.000 0.000 0.010(3)
C14 0.038(4) 0.036(4) 0.074(6) 0.000 0.000 0.020(3)
C15 0.034(4) 0.035(4) 0.058(5) 0.000 0.000 0.013(3)
C16 0.033(3) 0.035(4) 0.047(4) 0.000 0.000 0.018(3)
C17 0.035(4) 0.031(4) 0.049(4) 0.000 0.000 0.010(3)
O21 0.071(8) 0.024(5) 0.066(8) 0.000 0.000 0.015(5)
C22 0.028(7) 0.052(9) 0.056(10) 0.000 0.000 0.011(7)
O23 0.054(8) 0.065(8) 0.105(12) 0.000 0.000 0.031(7)
C24 0.044(5) 0.048(5) 0.079(7) 0.000 0.000 0.018(4)
Zn30 0.055(3) 0.095(3) 0.0506(19) 0.000 0.000 0.026(2)
N31 0.039(8) 0.046(5) 0.057(6) -0.011(5) -0.009(5) 0.023(5)
C32 0.037(5) 0.056(6) 0.046(5) -0.002(5) 0.000(4) 0.024(5)
C33 0.041(6) 0.064(7) 0.059(6) -0.007(5) -0.010(5) 0.029(5)
C34 0.051(7) 0.063(7) 0.053(6) -0.002(5) -0.003(5) 0.027(5)
C35 0.064(9) 0.073(8) 0.060(7) -0.020(6) -0.010(6) 0.040(7)
C36 0.055(7) 0.065(7) 0.059(6) -0.018(5) -0.008(5) 0.038(6)
N37 0.061(7) 0.084(11) 0.044(7) 0.000 0.000 0.026(7)
C38 0.060(7) 0.072(8) 0.051(5) -0.002(6) -0.003(5) 0.024(6)
C39 0.069(7) 0.068(8) 0.053(7) 0.005(6) 0.002(6) 0.023(6)
C40 0.051(6) 0.073(8) 0.049(5) -0.005(5) -0.001(5) 0.020(6)
N45 0.047(7) 0.081(8) 0.052(5) -0.007(5) -0.001(4) 0.024(7)
C41 0.046(6) 0.078(8) 0.047(6) -0.006(6) -0.003(5) 0.013(6)
C42 0.043(9) 0.073(9) 0.049(6) -0.004(6) 0.004(5) 0.023(8)
C43 0.052(10) 0.069(9) 0.060(7) 0.007(7) 0.009(6) 0.021(9)
C44 0.057(8) 0.084(9) 0.066(7) 0.004(7) 0.003(6) 0.026(8)
C47 0.070(10) 0.086(11) 0.048(8) -0.004(7) 0.012(6) 0.025(9)
C48 0.070(10) 0.096(14) 0.063(10) 0.011(9) 0.004(7) 0.033(10)
N55 0.058(9) 0.092(11) 0.045(9) 0.000 0.000 0.021(10)
O56 0.119(17) 0.100(10) 0.101(15) 0.000 0.000 0.058(11)
Zn60 0.056(3) 0.068(2) 0.0481(17) 0.000 0.000 0.023(2)
N61 0.049(6) 0.064(7) 0.063(7) -0.004(5) 0.000(5) 0.015(5)
C62 0.048(10) 0.060(9) 0.063(8) -0.013(7) -0.011(7) 0.011(6)
C63 0.048(7) 0.084(9) 0.066(7) -0.009(6) -0.006(6) 0.016(6)
C64 0.052(8) 0.084(9) 0.050(6) -0.006(6) -0.005(6) 0.017(7)
C65 0.068(9) 0.101(11) 0.061(8) -0.014(8) -0.008(6) 0.032(8)
C66 0.066(8) 0.090(10) 0.067(8) -0.021(7) -0.011(6) 0.033(7)
N67 0.058(7) 0.089(12) 0.036(6) 0.000 0.000 0.006(8)
C68 0.063(7) 0.088(10) 0.051(6) -0.020(6) -0.005(5) 0.016(7)
C69 0.068(8) 0.120(14) 0.070(10) 0.005(10) 0.001(7) 0.012(9)
C70 0.055(7) 0.085(9) 0.055(6) -0.005(6) -0.007(5) 0.013(6)
N75 0.043(7) 0.078(7) 0.056(5) 0.005(5) 0.004(4) 0.030(6)
C74 0.042(7) 0.061(7) 0.047(6) -0.002(5) 0.002(5) 0.020(6)
C73 0.044(9) 0.049(7) 0.045(5) -0.001(5) 0.001(5) 0.019(7)
C72 0.055(10) 0.063(8) 0.062(6) -0.001(6) -0.003(5) 0.026(8)
C71 0.056(7) 0.078(9) 0.059(6) -0.007(6) -0.002(5) 0.017(7)
C77 0.065(8) 0.090(10) 0.061(8) 0.004(7) 0.010(6) 0.044(7)
C78 0.066(9) 0.102(14) 0.044(8) 0.002(8) 0.012(6) 0.043(8)
C79 0.080(5) 0.072(4) 0.054(4) -0.001(3) -0.002(3) 0.030(4)
C80 0.090(5) 0.064(4) 0.060(4) 0.002(3) 0.001(4) 0.036(4)
C81 0.066(4) 0.063(3) 0.061(4) -0.006(3) -0.004(3) 0.035(3)
N82 0.056(3) 0.064(3) 0.054(3) -0.006(2) 0.001(2) 0.035(3)
C83 0.077(5) 0.058(4) 0.073(4) -0.008(3) 0.006(4) 0.030(3)
C84 0.085(5) 0.072(4) 0.065(4) -0.009(3) 0.009(4) 0.037(4)
O85 0.117(17) 0.079(9) 0.074(11) 0.000 0.000 0.050(10)
C57 0.14(2) 0.108(13) 0.13(3) 0.000 0.000 0.045(14)
N58 0.14(3) 0.099(14) 0.17(4) 0.000 0.000 0.038(18)
C60 0.14(3) 0.12(4) 0.25(7) 0.000 0.000 0.04(3)
C59 0.14(4) 0.115(18) 0.21(7) 0.000 0.000 0.02(3)
N347 0.058(8) 0.078(9) 0.051(9) 0.000 0.000 0.038(7)
O91 0.198(16) 0.188(18) 0.25(2) -0.036(19) -0.039(19) 0.098(13)
C92 0.197(16) 0.152(16) 0.120(15) -0.024(14) -0.050(15) 0.107(12)
N93 0.200(16) 0.169(15) 0.148(16) -0.013(13) -0.050(15) 0.116(13)
C94 0.29(3) 0.191(17) 0.23(3) -0.02(2) -0.07(3) 0.169(18)
C95 0.196(16) 0.21(2) 0.20(3) 0.05(2) -0.05(2) 0.103(15)
O92 0.17(3) 0.14(3) 0.09(3) 0.000 0.000 0.06(3)
loop_
_atom_type_symbol
_atom_type_description
_atom_type_scat_dispersion_real
_atom_type_scat_dispersion_imag
_atom_type_scat_source
C C 0.0181 0.0091 'International Tables Vol C Tables 4.2.6.8 and 6.1.1.4'
H H 0.0000 0.0000 'International Tables Vol C Tables 4.2.6.8 and 6.1.1.4'
N N 0.0311 0.0180 'International Tables Vol C Tables 4.2.6.8 and 6.1.1.4'
O O 0.0492 0.0322 'International Tables Vol C Tables 4.2.6.8 and 6.1.1.4'
Zn Zn -1.5491 0.6778 'International Tables Vol C Tables 4.2.6.8 and 6.1.1.4'
loop_
_geom_angle_atom_site_label_1
_geom_angle_atom_site_label_2
_geom_angle_atom_site_label_3
_geom_angle
_geom_angle_site_symmetry_1
_geom_angle_site_symmetry_3
_geom_angle_publ_flag
O9 Zn1 C10 31.4(2) . . ?
O9 Zn1 O11 60.7(2) . . ?
O11 Zn1 C10 29.3(2) . . ?
O21 Zn1 O9 98.9(4) . . ?
O21 Zn1 C10 130.3(4) . . ?
O21 Zn1 O11 159.6(4) . . ?
N31 Zn1 O9 115.0(5) 10_556 . ?
N31 Zn1 O9 115.0(5) . . ?
N31 Zn1 C10 102.9(5) . . ?
N31 Zn1 C10 102.9(5) 10_556 . ?
N31 Zn1 O11 88.6(4) . . ?
N31 Zn1 O11 88.6(4) 10_556 . ?
N31 Zn1 O21 101.3(4) 10_556 . ?
N31 Zn1 O21 101.3(4) . . ?
N31 Zn1 N31 120.1(9) . 10_556 ?
O3 Zn2 C4 28.7(3) . . ?
O3 Zn2 O6 99.5(3) . 3_775 ?
O3 Zn2 N82 111.96(17) . 11_656 ?
O3 Zn2 N82 111.96(17) . 2_655 ?
O6 Zn2 C4 128.2(3) 3_775 . ?
O6 Zn2 N82 105.40(17) 3_775 11_656 ?
O6 Zn2 N82 105.40(17) 3_775 2_655 ?
N82 Zn2 C4 99.70(17) 11_656 . ?
N82 Zn2 C4 99.70(17) 2_655 . ?
N82 Zn2 N82 120.0(3) 2_655 11_656 ?
O9 Zn3 O23 99.0(5) 9_546 . ?
O9 Zn3 N61 111.3(4) 9_546 6_545 ?
O9 Zn3 N61 111.3(4) 9_546 9_546 ?
O21 Zn3 O9 145.5(6) 9_546 9_546 ?
O21 Zn3 O23 46.6(7) 9_546 . ?
O21 Zn3 N61 87.0(5) 9_546 9_546 ?
O21 Zn3 N61 87.0(5) 9_546 6_545 ?
O23 Zn3 N61 111.9(5) . 6_545 ?
O23 Zn3 N61 111.9(5) . 9_546 ?
N61 Zn3 N61 111.0(7) 6_545 9_546 ?
C4 O3 Zn2 104.5(5) . . ?
O3 C4 Zn2 46.8(4) . . ?
O3 C4 C12 115.9(7) . . ?
O5 C4 Zn2 75.2(4) . . ?
O5 C4 O3 122.0(7) . . ?
O5 C4 C12 122.1(7) . . ?
C12 C4 Zn2 162.7(6) . . ?
C7 O6 Zn2 108.2(6) . 2_755 ?
O6 C7 C14 115.9(8) . . ?
O8 C7 O6 125.6(8) . . ?
O8 C7 C14 118.4(8) . . ?
C10 O9 Zn1 93.3(5) . . ?
C10 O9 Zn3 118.3(5) . 8_666 ?
O9 C10 Zn1 55.3(4) . . ?
O9 C10 C16 116.8(7) . . ?
O11 C10 Zn1 66.9(4) . . ?
O11 C10 O9 122.2(7) . . ?
O11 C10 C16 121.0(7) . . ?
C16 C10 Zn1 172.2(6) . . ?
C10 O11 Zn1 83.8(5) . . ?
C13 C12 C4 120.6(7) . . ?
C13 C12 C17 121.2(7) . . ?
C17 C12 C4 118.1(7) . . ?
C12 C13 H13 120.0 . . ?
C12 C13 C14 120.1(7) . . ?
C14 C13 H13 120.0 . . ?
C13 C14 C7 120.8(7) . . ?
C13 C14 C15 120.1(7) . . ?
C15 C14 C7 119.1(7) . . ?
C14 C15 H15 120.1 . . ?
C16 C15 C14 119.7(7) . . ?
C16 C15 H15 120.1 . . ?
C15 C16 C10 119.9(7) . . ?
C15 C16 C17 119.4(7) . . ?
C17 C16 C10 120.6(7) . . ?
C12 C17 C16 119.4(7) . . ?
C12 C17 H17 120.3 . . ?
C16 C17 H17 120.3 . . ?
C22 O21 Zn1 122.5(11) . . ?
C22 O21 Zn3 144.2(13) . 8_666 ?
C22 O21 O23 125.9(13) . 8_666 ?
O23 O21 Zn1 111.6(8) 8_666 . ?
O21 C22 C24 114.4(13) . . ?
O23 C22 O21 121.5(17) . . ?
O23 C22 C24 124.1(15) . . ?
O21 O23 Zn3 43.5(6) 9_546 . ?
C22 O23 Zn3 159.1(14) . . ?
C22 O23 O21 115.6(14) . 9_546 ?
C22 C24 C24 120.6(10) . 8_666 ?
C22 C24 C24 119.4(10) . 9_546 ?
C24 C24 C24 120.008(2) 8_666 9_546 ?
N37 Zn30 N55 162.2(14) . . ?
N37 Zn30 O56 95.6(10) . . ?
N45 Zn30 N37 88.8(4) 10 . ?
N45 Zn30 N37 88.8(4) . . ?
N45 Zn30 N45 159.9(11) 10 . ?
N45 Zn30 N55 88.1(5) . . ?
N45 Zn30 N55 88.1(5) 10 . ?
N45 Zn30 O56 100.0(6) . . ?
N45 Zn30 O56 100.0(6) 10 . ?
N55 Zn30 O56 102.2(14) . . ?
C32 N31 Zn1 121.4(9) . . ?
C36 N31 Zn1 121.7(10) . . ?
C36 N31 C32 116.3(13) . . ?
N31 C32 H32 118.3 . . ?
N31 C32 C33 123.5(12) . . ?
C33 C32 H32 118.3 . . ?
C32 C33 H33 120.8 . . ?
C34 C33 C32 118.4(12) . . ?
C34 C33 H33 120.8 . . ?
C33 C34 C35 119.1(12) . . ?
C33 C34 C40 120.4(12) . . ?
C35 C34 C40 120.4(12) . . ?
C34 C35 H35 120.7 . . ?
C34 C35 C36 118.6(14) . . ?
C36 C35 H35 120.7 . . ?
N31 C36 C35 123.7(13) . . ?
N31 C36 H36 118.2 . . ?
C35 C36 H36 118.2 . . ?
C38 N37 Zn30 128.5(7) . . ?
C38 N37 Zn30 128.5(7) 10 . ?
C38 N37 C38 102.3(15) . 10 ?
N37 C38 C39 112.3(12) . . ?
N37 C38 C40 120.5(11) . . ?
C40 C38 C39 127.1(11) . . ?
C38 C39 H39 126.8 . . ?
C39 C39 C38 106.5(6) 10 . ?
C39 C39 H39 126.8 10 . ?
C38 C40 C34 116.9(13) . . ?
C41 C40 C34 113.3(14) . . ?
C41 C40 C38 129.5(13) . . ?
C41 N45 Zn30 125.9(9) . . ?
C44 N45 Zn30 126.1(9) . . ?
C44 N45 C41 108.0 . . ?
C40 C41 N45 124.5(12) . . ?
C40 C41 C42 127.3(12) . . ?
N45 C41 C42 108.0 . . ?
C41 C42 H42 126.0 . . ?
C43 C42 C41 108.0 . . ?
C43 C42 H42 126.0 . . ?
C42 C43 H43 126.0 . . ?
C44 C43 C42 108.0 . . ?
C44 C43 H43 126.0 . . ?
N45 C44 C43 108.0 . . ?
C46 C44 N45 122.0(13) . . ?
C46 C44 C43 130.0(13) . . ?
C44 C46 C47 133.8(14) . . ?
C44 C46 C79 107.2(14) . . ?
C47 C46 C79 118.2(15) . . ?
C46 C47 C48 130.3(13) . . ?
C46 C47 N55 120.6(17) . . ?
N55 C47 C48 109.0(19) . . ?
C47 C48 H48 126.1 . . ?
C48 C48 C47 107.7(9) 10 . ?
C48 C48 H48 126.1 10 . ?
C47 N55 Zn30 124.2(14) 10 . ?
C47 N55 Zn30 124.2(14) . . ?
C47 N55 C47 106(2) . 10 ?
C57 O56 Zn30 116(3) . . ?
N67 Zn60 O85 100.6(10) . . ?
N75 Zn60 N67 88.1(4) 10 . ?
N75 Zn60 N67 88.1(4) . . ?
N75 Zn60 N75 162.2(11) 10 . ?
N75 Zn60 O85 98.9(5) 10 . ?
N75 Zn60 O85 98.9(5) . . ?
N75 Zn60 N347 88.9(5) . . ?
N75 Zn60 N347 88.9(5) 10 . ?
N347 Zn60 N67 160.2(12) . . ?
N347 Zn60 O85 99.2(13) . . ?
C62 N61 Zn3 121.1(11) . 8_666 ?
C66 N61 Zn3 122.8(12) . 8_666 ?
C66 N61 C62 116.1(16) . . ?
N61 C62 H62 116.7 . . ?
N61 C62 C63 126.5(19) . . ?
C63 C62 H62 116.7 . . ?
C62 C63 H63 122.1 . . ?
C64 C63 C62 115.7(17) . . ?
C64 C63 H63 122.1 . . ?
C63 C64 C70 120.0(16) . . ?
C65 C64 C63 119.2(15) . . ?
C65 C64 C70 120.6(14) . . ?
C64 C65 H65 120.0 . . ?
C64 C65 C66 119.9(17) . . ?
C66 C65 H65 120.0 . . ?
N61 C66 C65 122.1(17) . . ?
N61 C66 H66 118.9 . . ?
C65 C66 H66 118.9 . . ?
C68 N67 Zn60 127.7(8) . . ?
C68 N67 Zn60 127.7(8) 10 . ?
N67 C68 C69 112.0(13) . . ?
N67 C68 C70 122.1(12) . . ?
C69 C68 C70 125.9(11) . . ?
C68 C69 H69 126.7 . . ?
C69 C69 C68 106.6(7) 10 . ?
C69 C69 H69 126.7 10 . ?
C68 C70 C64 118.5(15) . . ?
C71 C70 C64 114.7(15) . . ?
C71 C70 C68 126.7(13) . . ?
C74 N75 Zn60 126.0(8) . . ?
C74 N75 C71 108.0 . . ?
C71 N75 Zn60 125.9(8) . . ?
N75 C74 C76 127.5(11) . . ?
C73 C74 N75 108.0 . . ?
C73 C74 C76 124.2(12) . . ?
C74 C73 H73 126.0 . . ?
C74 C73 C72 108.0 . . ?
C72 C73 H73 126.0 . . ?
C73 C72 H72 126.0 . . ?
C71 C72 C73 108.0 . . ?
C71 C72 H72 126.0 . . ?
C70 C71 N75 127.0(13) . . ?
C70 C71 C72 125.0(13) . . ?
C72 C71 N75 108.0 . . ?
C74 C76 C77 123.3(13) . . ?
C74 C76 C79 119.4(13) . . ?
C77 C76 C79 116.5(14) . . ?
C78 C77 C76 122.1(12) . . ?
N347 C77 C76 121.7(18) . . ?
N347 C77 C78 116(2) . . ?
C77 C78 H78 127.5 . . ?
C78 C78 C77 104.9(9) 10 . ?
C78 C78 H78 127.5 10 . ?
C80 C79 C46 116.7(9) . . ?
C80 C79 C76 126.3(10) . . ?
C80 C79 C84 116.9(7) . . ?
C84 C79 C46 126.3(9) . . ?
C84 C79 C76 115.6(9) . . ?
C79 C80 H80 119.9 . . ?
C79 C80 C81 120.3(7) . . ?
C81 C80 H80 119.9 . . ?
C80 C81 H81 118.9 . . ?
N82 C81 C80 122.2(6) . . ?
N82 C81 H81 118.9 . . ?
C81 N82 Zn2 122.1(5) . 3_665 ?
C81 N82 C83 117.9(6) . . ?
C83 N82 Zn2 118.9(5) . 3_665 ?
N82 C83 H83 119.0 . . ?
N82 C83 C84 122.0(7) . . ?
C84 C83 H83 119.0 . . ?
C79 C84 H84 119.7 . . ?
C83 C84 C79 120.6(7) . . ?
C83 C84 H84 119.7 . . ?
O56 C57 H57 120.7 . . ?
O56 C57 N58 119(3) . . ?
N58 C57 H57 120.7 . . ?
C57 N58 C60 121(3) . . ?
C57 N58 C59 122(3) . . ?
C59 N58 C60 117(3) . . ?
N58 C60 H60A 109.5 . . ?
N58 C60 H60B 109.5 . . ?
N58 C60 H60C 109.5 . . ?
H60A C60 H60B 109.5 . . ?
H60A C60 H60C 109.5 . . ?
H60B C60 H60C 109.5 . . ?
N58 C59 H59C 109.5 . . ?
N58 C59 H59B 109.5 . . ?
N58 C59 H59A 109.5 . . ?
H59C C59 H59B 109.5 . . ?
H59C C59 H59A 109.5 . . ?
H59B C59 H59A 109.5 . . ?
C77 N347 Zn60 130.9(13) 10 . ?
C77 N347 Zn60 130.9(13) . . ?
C77 N347 C77 98(2) 10 . ?
O91 C92 H92 124.0 . . ?
O91 C92 N93 112(2) . . ?
N93 C92 H92 124.0 . . ?
C92 N93 C94 122(2) . . ?
C92 N93 C95 119(2) . . ?
C95 N93 C94 119(2) . . ?
N93 C94 H94A 109.5 . . ?
N93 C94 H94B 109.5 . . ?
N93 C94 H94C 109.5 . . ?
H94A C94 H94B 109.5 . . ?
H94A C94 H94C 109.5 . . ?
H94B C94 H94C 109.5 . . ?
N93 C95 H95A 109.5 . . ?
N93 C95 H95B 109.5 . . ?
N93 C95 H95C 109.5 . . ?
H95A C95 H95B 109.5 . . ?
H95A C95 H95C 109.5 . . ?
H95B C95 H95C 109.5 . . ?
loop_
_geom_bond_atom_site_label_1
_geom_bond_atom_site_label_2
_geom_bond_distance
_geom_bond_site_symmetry_2
_geom_bond_publ_flag
Zn1 O9 2.065(6) . ?
Zn1 C10 2.506(8) . ?
Zn1 O11 2.318(6) . ?
Zn1 O21 1.988(12) . ?
Zn1 N31 1.965(13) . ?
Zn1 N31 1.965(13) 10_556 ?
Zn2 O3 1.956(6) . ?
Zn2 C4 2.598(7) . ?
Zn2 O6 1.981(6) 3_775 ?
Zn2 N82 2.001(6) 11_656 ?
Zn2 N82 2.001(6) 2_655 ?
Zn3 O9 1.844(6) 9_546 ?
Zn3 O21 1.378(11) 9_546 ?
Zn3 O23 2.001(15) . ?
Zn3 N61 2.007(14) 6_545 ?
Zn3 N61 2.007(14) 9_546 ?
O3 C4 1.290(10) . ?
C4 O5 1.229(10) . ?
C4 C12 1.498(10) . ?
O6 C7 1.257(11) . ?
C7 O8 1.249(11) . ?
C7 C14 1.499(11) . ?
O9 C10 1.306(10) . ?
C10 O11 1.235(10) . ?
C10 C16 1.485(10) . ?
C12 C13 1.364(11) . ?
C12 C17 1.382(10) . ?
C13 H13 0.9500 . ?
C13 C14 1.373(11) . ?
C14 C15 1.396(11) . ?
C15 H15 0.9500 . ?
C15 C16 1.393(10) . ?
C16 C17 1.393(11) . ?
C17 H17 0.9500 . ?
O21 C22 1.37(2) . ?
O21 O23 1.45(2) 8_666 ?
C22 O23 1.26(2) . ?
C22 C24 1.40(2) . ?
C24 C24 1.405(9) 8_666 ?
C24 C24 1.405(9) 9_546 ?
Zn30 N37 2.055(13) . ?
Zn30 N45 2.050(10) 10 ?
Zn30 N45 2.050(10) . ?
Zn30 N55 2.058(13) . ?
Zn30 O56 2.19(2) . ?
N31 C32 1.360(12) . ?
N31 C36 1.348(13) . ?
C32 H32 0.9500 . ?
C32 C33 1.394(12) . ?
C33 H33 0.9500 . ?
C33 C34 1.383(12) . ?
C34 C35 1.386(13) . ?
C34 C40 1.506(14) . ?
C35 H35 0.9500 . ?
C35 C36 1.389(13) . ?
C36 H36 0.9500 . ?
N37 C38 1.403(12) 10 ?
N37 C38 1.403(12) . ?
C38 C39 1.411(13) . ?
C38 C40 1.40(2) . ?
C39 C39 1.386(15) 10 ?
C39 H39 0.9500 . ?
C40 C41 1.36(2) . ?
N45 C41 1.4200 . ?
N45 C44 1.4200 . ?
C41 C42 1.4200 . ?
C42 H42 0.9500 . ?
C42 C43 1.4200 . ?
C43 H43 0.9500 . ?
C43 C44 1.4200 . ?
C44 C46 1.28(2) . ?
C46 C47 1.36(3) . ?
C46 C79 1.498(13) . ?
C47 C48 1.406(14) . ?
C47 N55 1.403(13) . ?
C48 C48 1.393(16) 10 ?
C48 H48 0.9500 . ?
O56 C57 1.27(2) . ?
Zn60 N67 2.060(13) . ?
Zn60 N75 2.051(9) . ?
Zn60 N75 2.051(9) 10 ?
Zn60 O85 2.11(2) . ?
Zn60 N347 2.057(13) . ?
N61 C62 1.349(14) . ?
N61 C66 1.347(14) . ?
C62 H62 0.9500 . ?
C62 C63 1.401(14) . ?
C63 H63 0.9500 . ?
C63 C64 1.398(14) . ?
C64 C65 1.396(14) . ?
C64 C70 1.511(15) . ?
C65 H65 0.9500 . ?
C65 C66 1.399(13) . ?
C66 H66 0.9500 . ?
N67 C68 1.407(12) 10 ?
N67 C68 1.407(12) . ?
C68 C69 1.417(14) . ?
C68 C70 1.43(2) . ?
C69 C69 1.392(16) 10 ?
C69 H69 0.9500 . ?
C70 C71 1.33(2) . ?
N75 C74 1.4200 . ?
N75 C71 1.4200 . ?
C74 C73 1.4200 . ?
C74 C76 1.45(2) . ?
C73 H73 0.9500 . ?
C73 C72 1.4200 . ?
C72 H72 0.9500 . ?
C72 C71 1.4200 . ?
C76 C77 1.47(3) . ?
C76 C79 1.524(13) . ?
C77 C78 1.408(14) . ?
C77 N347 1.404(13) . ?
C78 C78 1.387(15) 10 ?
C78 H78 0.9500 . ?
C79 C80 1.372(9) . ?
C79 C84 1.376(9) . ?
C80 H80 0.9500 . ?
C80 C81 1.391(9) . ?
C81 H81 0.9500 . ?
C81 N82 1.326(8) . ?
N82 C83 1.348(8) . ?
C83 H83 0.9500 . ?
C83 C84 1.373(9) . ?
C84 H84 0.9500 . ?
C57 H57 0.9500 . ?
C57 N58 1.291(19) . ?
N58 C60 1.485(19) . ?
N58 C59 1.472(19) . ?
C60 H60A 0.9800 . ?
C60 H60B 0.9800 . ?
C60 H60C 0.9800 . ?
C59 H59C 0.9800 . ?
C59 H59B 0.9800 . ?
C59 H59A 0.9800 . ?
O91 C92 1.249(18) . ?
C92 H92 0.9500 . ?
C92 N93 1.279(17) . ?
N93 C94 1.487(18) . ?
N93 C95 1.461(17) . ?
C94 H94A 0.9800 . ?
C94 H94B 0.9800 . ?
C94 H94C 0.9800 . ?
C95 H95A 0.9800 . ?
C95 H95B 0.9800 . ?
C95 H95C 0.9800 . ?
