#------------------------------------------------------------------------------
#$Date: 2020-10-06 12:03:22 +0300 (Tue, 06 Oct 2020) $
#$Revision: 257566 $
#$URL: file:///home/coder/svn-repositories/cod/cif/7/70/52/7705250.cif $
#------------------------------------------------------------------------------
#
# This file is available in the Crystallography Open Database (COD),
# http://www.crystallography.net/
#
# All data on this site have been placed in the public domain by the
# contributors.
#
data_7705250
loop_
_publ_author_name
'Frogley, Benjamin J.'
'Hill, Anthony F.'
_publ_section_title
;
 Carbyne decorated porphyrins.
;
_journal_issue                   35
_journal_name_full
'Dalton transactions (Cambridge, England : 2003)'
_journal_page_first              12390
_journal_page_last               12400
_journal_paper_doi               10.1039/d0dt02809f
_journal_volume                  49
_journal_year                    2020
_chemical_formula_moiety         'C116 H114 Au4 B4 Cl4 N28 O8 W4'
_chemical_formula_sum            'C116 H114 Au4 B4 Cl4 N28 O8 W4'
_chemical_formula_weight         3736.65
_space_group_crystal_system      triclinic
_space_group_IT_number           2
_space_group_name_Hall           '-P 1'
_space_group_name_H-M_alt        'P -1'
_atom_sites_solution_hydrogens   geom
_atom_sites_solution_primary     dual
_audit_creation_date             2020-04-02
_audit_creation_method
;
Olex2 1.3
(compiled 2020.02.04 svn.rd84adfe8 for OlexSys, GUI svn.r6032)
;
_audit_update_record
;
2020-06-08 deposited with the CCDC.	2020-08-21 downloaded from the CCDC.
;
_cell_angle_alpha                86.793(6)
_cell_angle_beta                 67.571(8)
_cell_angle_gamma                80.675(6)
_cell_formula_units_Z            1
_cell_length_a                   15.2352(12)
_cell_length_b                   15.6101(10)
_cell_length_c                   16.9339(15)
_cell_measurement_reflns_used    2569
_cell_measurement_temperature    150.01(10)
_cell_measurement_theta_max      39.4570
_cell_measurement_theta_min      5.5100
_cell_volume                     3673.3(5)
_computing_cell_refinement       'CrysAlisPro 1.171.40.36a (Rigaku OD, 2018)'
_computing_data_collection       'CrysAlisPro 1.171.40.36a (Rigaku OD, 2018)'
_computing_data_reduction        'CrysAlisPro 1.171.40.36a (Rigaku OD, 2018)'
_computing_molecular_graphics    'Olex2 1.3 (Dolomanov et al., 2009)'
_computing_publication_material  'Olex2 1.3 (Dolomanov et al., 2009)'
_computing_structure_refinement  'SHELXL 2018/3 (Sheldrick, 2015)'
_computing_structure_solution    'SHELXT 2014/5 (Sheldrick, 2014)'
_diffrn_ambient_environment      N~2~
_diffrn_ambient_temperature      150.01(10)
_diffrn_detector                 'CCD plate'
_diffrn_detector_area_resol_mean 8.1297
_diffrn_detector_type            EosS2
_diffrn_measured_fraction_theta_full 0.967
_diffrn_measured_fraction_theta_max 0.967
_diffrn_measurement_details
;
List of Runs (angles in degrees, time in seconds):

  # Type    Start    End  Width  t~exp~   \w     \q     \k     \f   Frames
#--------------------------------------------------------------------------
  1  \w     14.00  74.00   1.00   90.00    --   42.11 -98.00 -93.00   60
  2  \w    -19.00  57.00   1.00   90.00    --   42.11 -38.00-150.00   76
  3  \w     14.00 114.00   1.00   90.00    --   42.11  19.00-150.00  100
  4  \w      7.00  75.00   1.00   90.00    --   42.11 -99.00   0.00   68
  5  \w     32.00  60.00   1.00   90.00    --   42.11-125.00  90.00   28
  6  \w     68.00  96.00   1.00   90.00    --   42.11-125.00  90.00   28
  7  \w    -19.00  69.00   1.00   90.00    --   42.11 -77.00 150.00   88
  8  \w     40.00  72.00   1.00   90.00    --   42.11  57.00   0.00   32
  9  \w     62.00 114.00   1.00   90.00    --   42.11  19.00  60.00   52
 10  \w     32.00  78.00   1.00   90.00    --   42.11  57.00 -30.00   46
 11  \w    -15.00  18.00   1.00   90.00    --   42.11 -77.00  60.00   33
 12  \w     30.00  68.00   1.00   90.00    --   42.11 -77.00  60.00   38
 13  \w   -110.00 -52.00   1.00   90.00    --  -42.81 -57.00  90.00   58
;
_diffrn_measurement_device       'four-circle diffractometer'
_diffrn_measurement_device_type  'SuperNova, Dual, Cu at home/near, EosS2'
_diffrn_measurement_method       '\w scans'
_diffrn_orient_matrix_type
'CrysAlisPro convention (1999,Acta A55,543-557)'
_diffrn_orient_matrix_UB_11      -0.0413761000
_diffrn_orient_matrix_UB_12      0.0119392000
_diffrn_orient_matrix_UB_13      -0.0705967000
_diffrn_orient_matrix_UB_21      -0.0911553000
_diffrn_orient_matrix_UB_22      -0.0350447000
_diffrn_orient_matrix_UB_23      0.0603748000
_diffrn_orient_matrix_UB_31      -0.0472292000
_diffrn_orient_matrix_UB_32      0.0929091000
_diffrn_orient_matrix_UB_33      0.0325267000
_diffrn_radiation_monochromator  mirror
_diffrn_radiation_probe          x-ray
_diffrn_radiation_type           'Cu K\a'
_diffrn_radiation_wavelength     1.54184
_diffrn_reflns_av_R_equivalents  0.0641
_diffrn_reflns_av_unetI/netI     0.0864
_diffrn_reflns_Laue_measured_fraction_full 0.967
_diffrn_reflns_Laue_measured_fraction_max 0.967
_diffrn_reflns_limit_h_max       12
_diffrn_reflns_limit_h_min       -12
_diffrn_reflns_limit_k_max       12
_diffrn_reflns_limit_k_min       -12
_diffrn_reflns_limit_l_max       14
_diffrn_reflns_limit_l_min       -13
_diffrn_reflns_number            9229
_diffrn_reflns_point_group_measured_fraction_full 0.967
_diffrn_reflns_point_group_measured_fraction_max 0.967
_diffrn_reflns_theta_full        40.220
_diffrn_reflns_theta_max         40.220
_diffrn_reflns_theta_min         3.943
_diffrn_source                   'micro-focus sealed X-ray tube'
_diffrn_source_type              'SuperNova (Cu) X-ray Source'
_exptl_absorpt_coefficient_mu    14.039
_exptl_absorpt_correction_T_max  1.00000
_exptl_absorpt_correction_T_min  0.65796
_exptl_absorpt_correction_type   multi-scan
_exptl_absorpt_process_details
;
CrysAlisPro 1.171.40.36a (Rigaku Oxford Diffraction, 2018)
Empirical absorption correction using spherical harmonics,
 implemented in SCALE3 ABSPACK scaling algorithm.
;
_exptl_crystal_colour            orange
_exptl_crystal_colour_primary    orange
_exptl_crystal_density_diffrn    1.689
_exptl_crystal_description       plate
_exptl_crystal_F_000             1770
_exptl_crystal_size_max          0.147
_exptl_crystal_size_mid          0.043
_exptl_crystal_size_min          0.022
_refine_diff_density_max         1.233
_refine_diff_density_min         -0.786
_refine_diff_density_rms         0.118
_refine_ls_extinction_method     none
_refine_ls_goodness_of_fit_ref   1.001
_refine_ls_hydrogen_treatment    constr
_refine_ls_matrix_type           full
_refine_ls_number_parameters     762
_refine_ls_number_reflns         4364
_refine_ls_number_restraints     779
_refine_ls_restrained_S_all      0.925
_refine_ls_R_factor_all          0.0896
_refine_ls_R_factor_gt           0.0608
_refine_ls_shift/su_max          0.000
_refine_ls_shift/su_mean         0.000
_refine_ls_structure_factor_coef Fsqd
_refine_ls_weighting_details
'w=1/[\s^2^(Fo^2^)+(0.0916P)^2^] where P=(Fo^2^+2Fc^2^)/3'
_refine_ls_weighting_scheme      calc
_refine_ls_wR_factor_gt          0.1451
_refine_ls_wR_factor_ref         0.1704
_reflns_Friedel_coverage         0.000
_reflns_number_gt                2920
_reflns_number_total             4364
_reflns_threshold_expression     'I > 2\s(I)'
_cod_data_source_file            d0dt02809f2.cif
_cod_data_source_block           Compound_6
_cod_depositor_comments
'Adding full bibliography for 7705247--7705250.cif.'
_cod_original_cell_volume        3673.4(5)
_cod_database_code               7705250
_shelx_shelxl_version_number     2018/3
_chemical_oxdiff_formula         'C116 H114 Au4 B4 Cl4 N28 O8 W4'
_shelx_space_group_comment
;
The symmetry employed for this shelxl refinement is uniquely defined
by the following loop, which should always be used as a source of
symmetry information in preference to the above space-group names.
They are only intended as comments.
;
_reflns_odcompleteness_completeness 97.96
_reflns_odcompleteness_iscentric 1
_reflns_odcompleteness_theta     39.93
_olex2_refinement_description
;
1. Fixed Uiso
 At 1.2 times of:
  All B(H) groups, All C(H) groups, All N(H) groups
 At 1.5 times of:
  All C(H,H,H) groups
2. Restrained distances
 B2-H2
 1.15 with sigma of 0.02
 B1-H1
 1.15 with sigma of 0.02
 C57-C56
 1.5 with sigma of 0.02
 C56-C55
 1.4 with sigma of 0.02
3. Uiso/Uaniso restraints and constraints
Uanis(C24) = Uanis(C1)
4. Rigid body (RIGU) restrains
 C34, C43, C39, C49, B2, C33, B1, C29, C10, C25, N10, C57, C52, C26, C56, C37,
 C27, C55, C1, C38, C11, C54, C024, C21, C35, C15, C45, C16, C44, O1, N14, C47,
 C20, C46, N4, W1, C14, C40, C6, N3, C3, Au2, C12, O4, N13, Au1, O2, O3, N12,
 Cl2, Cl1, N7, N9, N1, N5, C17, C13, C42, C18, C24, N6, C48, C19, C4, C9, N8,
 W2, C31, C32, C30, C51, C8, C36, C22, N11, C23, C53, C2, C28, C41, C50, C5, N2,
  C7
 with sigma for 1-2 distances of 0.004 and sigma for 1-3 distances of 0.004
5. Others
 Fixed Sof: H13(0.5) H14(0.5)
6.a Ternary CH refined with riding coordinates and stretchable bonds:
 B1(H1), B2(H2)
6.b Me refined with riding coordinates:
 C30(H30A,H30B,H30C), C52(H52A,H52B,H52C), C57(H57A,H57B,H57C)
6.c Aromatic/amide H refined with riding coordinates:
 N13(H13), N14(H14), C19(H19), C20(H20), C10(H10), C23(H23), C7(H7), C6(H6),
 C11(H11), C22(H22), C3(H3), C15(H15), C16(H16), C4(H4), C27(H27), C46(H46),
 C50(H50), C32(H32), C37(H37), C55(H55)
6.d Idealised Me refined as rotating group:
 C44(H44A,H44B,H44C), C48(H48A,H48B,H48C), C53(H53A,H53B,H53C), C35(H35A,H35B,
 H35C), C024(H02A,H02B,H02C), C34(H34A,H34B,H34C), C29(H29A,H29B,H29C),
 C25(H25A,H25B,H25C), C39(H39A,H39B,H39C)
;
_smtbx_masks_void_probe_radius   1.2
_smtbx_masks_void_truncation_radius 1.2
_shelx_res_file
;
TITL exp_1009_scale_a.res in P-1
    exp_1009_scale.res
    created by SHELXL-2018/3 at 12:13:31 on 02-Apr-2020
REM Old TITL exp_1009_scale in P-1
REM SHELXT solution in P-1
REM R1 0.164, Rweak 0.013, Alpha 0.067, Orientation as input
REM Formula found by SHELXT: C56 N9 O10 Cl2 W4
CELL 1.54184 15.2352 15.6101 16.9339 86.793 67.571 80.675
ZERR 1 0.0012 0.001 0.0015 0.006 0.008 0.006
LATT 1
SFAC C H Au B Cl N O W
UNIT 116 114 4 4 4 28 8 4
RIGU C34 C43 C39 C49 B2 C33 B1 C29 C10 C25 N10 C57 C52 C26 C56 C37 C27 C55 =
 C1 C38 C11 C54 C024 C21 C35 C15 C45 C16 C44 O1 N14 C47 C20 C46 N4 W1 C14 =
 C40 C6 N3 C3 AU2 C12 O4 N13 AU1 O2 O3 N12 CL2 CL1 N7 N9 N1 N5 C17 C13 C42 =
 C18 C24 N6 C48 C19 C4 C9 N8 W2 C31 C32 C30 C51 C8 C36 C22 N11 C23 C53 C2 =
 C28 C41 C50 C5 N2 C7
DFIX 1.15 B2 H2
EADP C24 C1
DFIX 1.15 B1 H1
DFIX 1.5 C57 C56
DFIX 1.4 C56 C55

L.S. 12
PLAN  30
CONF
BOND $H
list 4
ABIN
MORE -1
fmap 2
acta
OMIT 2 1 1
OMIT -1 1 2
OMIT -2 -1 1
REM <olex2.extras>
REM <HklSrc "%.\\exp_1009_scale.hkl">
REM </olex2.extras>

WGHT    0.091600
FVAR       0.15405
AU2   3    0.092274    0.569147    0.391766    11.00000    0.09671    0.12386 =
         0.12893    0.01143   -0.05816   -0.00658
W2    8    0.224083    0.666199    0.400735    11.00000    0.10252    0.11942 =
         0.13864    0.02516   -0.06266   -0.01547
AU1   3    1.162940    0.200085    0.173236    11.00000    0.13283    0.15593 =
         0.11848   -0.00398   -0.05086   -0.02804
W1    8    1.127510    0.228074    0.026214    11.00000    0.12412    0.14353 =
         0.11084   -0.00215   -0.04638   -0.02035
CL2   5   -0.046665    0.565168    0.370626    11.00000    0.09261    0.17006 =
         0.17318    0.00591   -0.07798   -0.00828
CL1   5    1.266753    0.207833    0.239952    11.00000    0.16898    0.23603 =
         0.16453   -0.00529   -0.09763   -0.03290
O4    7    0.222244    0.641431    0.582704    11.00000    0.13869    0.13246 =
         0.12645    0.00206   -0.04773   -0.00661
N13   6    0.536571    0.103579    0.427413    11.00000    0.09597    0.09444 =
         0.09141   -0.01867   -0.03257    0.00714
AFIX  43
H13   2    0.519821    0.059236    0.458819    10.50000   -1.20000
AFIX   0
N14   6    0.359360    0.059577    0.548004    11.00000    0.08426    0.10937 =
         0.12700   -0.00892   -0.03768   -0.00860
AFIX  43
H14   2    0.416271    0.030790    0.525530    10.50000   -1.20000
AFIX   0
O2    7    1.131880    0.039728   -0.026559    11.00000    0.11774    0.19053 =
         0.12909    0.00008   -0.01755   -0.00281
C40   1    1.143147    0.105132    0.000361    11.00000    0.11680    0.14733 =
         0.18241    0.01928    0.04696   -0.04526
N9    6    0.084147    0.758712    0.455055    11.00000    0.12844    0.09692 =
         0.20358    0.03549   -0.09225   -0.02644
O3    7    0.434466    0.560938    0.316069    11.00000    0.11049    0.19664 =
         0.15397   -0.03667   -0.02808    0.01254
N3    6    1.284925    0.214625   -0.026277    11.00000    0.12349    0.12965 =
         0.13750    0.05611   -0.06387   -0.04088
N7    6    0.297747    0.780213    0.395428    11.00000    0.10632    0.12039 =
         0.17911    0.01427   -0.06971   -0.01475
C9    1    0.628854    0.116362    0.371603    11.00000    0.10671    0.12030 =
         0.08355   -0.00633   -0.01975    0.00403
N1    6    1.148516    0.269034   -0.104854    11.00000    0.17837    0.15746 =
         0.15302    0.00001   -0.11257    0.01445
N5    6    1.132316    0.360835    0.046046    11.00000    0.18929    0.14200 =
         0.14456    0.01349   -0.09315   -0.01130
C17   1    0.281964    0.030431    0.608609    11.00000    0.07535    0.07000 =
         0.14057   -0.02040   -0.03634   -0.00260
O1    7    0.912476    0.276949    0.053880    11.00000    0.14395    0.21403 =
         0.16266   -0.00960   -0.06764    0.00319
C13   1    0.380373    0.202279    0.472499    11.00000    0.10467    0.10252 =
         0.09760   -0.00895   -0.03299    0.01357
C42   1    0.366057    0.605021    0.346110    11.00000    0.09998    0.14016 =
         0.10088   -0.01949   -0.02028   -0.02442
C18   1    0.335942    0.288076    0.457150    11.00000    0.11700    0.10778 =
         0.10433   -0.00486   -0.05065    0.00756
N6    6    1.203028    0.412416   -0.013621    11.00000    0.23579    0.16630 =
         0.15798    0.04650   -0.12180   -0.03998
C19   1    0.279065    0.304476    0.409437    11.00000    0.14334    0.11078 =
         0.11045   -0.00108   -0.06863    0.00487
AFIX  43
H19   2    0.268023    0.258142    0.384091    11.00000   -1.20000
AFIX   0
C20   1    0.239121    0.385431    0.398482    11.00000    0.12164    0.11247 =
         0.16237    0.00332   -0.07300   -0.00334
AFIX  43
H20   2    0.201710    0.392499    0.365489    11.00000   -1.20000
AFIX   0
N4    6    1.326871    0.278669   -0.071878    11.00000    0.13804    0.17669 =
         0.18392    0.10800   -0.05514   -0.05831
C10   1    0.629195    0.202194    0.330945    11.00000    0.12033    0.12526 =
         0.10797    0.00827   -0.03695   -0.00910
AFIX  43
H10   2    0.681537    0.227354    0.295013    11.00000   -1.20000
AFIX   0
C8    1    0.713617    0.052784    0.356485    11.00000    0.10543    0.08894 =
         0.14525   -0.03227   -0.03888   -0.00406
C12   1    0.477346    0.181144    0.419807    11.00000    0.11663    0.09439 =
         0.08500   -0.00616   -0.02901    0.01242
C23   1    0.346673    0.360825    0.492216    11.00000    0.13195    0.11141 =
         0.12817   -0.01383   -0.06613    0.01492
AFIX  43
H23   2    0.381240    0.351788    0.527651    11.00000   -1.20000
AFIX   0
C7    1    0.938045    0.158989    0.276154    11.00000    0.12810    0.11045 =
         0.14958   -0.00982   -0.06751   -0.02489
AFIX  43
H7    2    0.965154    0.194828    0.299542    11.00000   -1.20000
AFIX   0
C5    1    0.811215    0.080967    0.297496    11.00000    0.10654    0.05512 =
         0.14389   -0.03588   -0.03800    0.00669
C6    1    0.855977    0.127552    0.328013    11.00000    0.13657    0.08673 =
         0.15414   -0.01833   -0.05712   -0.02472
AFIX  43
H6    2    0.831375    0.139521    0.386288    11.00000   -1.20000
AFIX   0
N10   6    0.085512    0.837748    0.416096    11.00000    0.17120    0.10700 =
         0.29678    0.06177   -0.13653   -0.05656
N2    6    1.216537    0.330759   -0.143408    11.00000    0.23044    0.19995 =
         0.16427    0.02357   -0.11621   -0.02502
C2    1    0.984300    0.137242    0.184105    11.00000    0.13963    0.13996 =
         0.14369   -0.01889   -0.06973   -0.05268
C11   1    0.535116    0.235448    0.358498    11.00000    0.11754    0.13751 =
         0.09117    0.01481   -0.04858   -0.01217
AFIX  43
H11   2    0.510956    0.287650    0.339637    11.00000   -1.20000
AFIX   0
C1    1    1.059043    0.181411    0.121332    11.00000    0.06535    0.10849 =
         0.18649   -0.00505   -0.08342   -0.00769
C44   1    0.428299    0.727497    0.445310    11.00000    0.14403    0.17549 =
         0.21941    0.00336   -0.11702   -0.01730
AFIX 137
H44A  2    0.397269    0.716301    0.505126    11.00000   -1.50000
H44B  2    0.487544    0.748370    0.435238    11.00000   -1.50000
H44C  2    0.441323    0.674852    0.413408    11.00000   -1.50000
AFIX   0
C49   1    0.002595    0.755419    0.526815    11.00000    0.12991    0.10780 =
         0.17785    0.00457   -0.08656   -0.00322
C14   1    0.328095    0.148792    0.528066    11.00000    0.11703    0.10189 =
         0.10860   -0.01508   -0.04634   -0.01082
C22   1    0.311593    0.446875    0.480742    11.00000    0.13204    0.10806 =
         0.20867    0.00185   -0.10004    0.00052
AFIX  43
H22   2    0.327483    0.492879    0.502548    11.00000   -1.20000
AFIX   0
C41   1    1.003046    0.268142    0.039818    11.00000    0.16108    0.20898 =
         0.15732   -0.00752   -0.10815    0.00427
C3    1    0.926161    0.096272    0.160743    11.00000    0.10174    0.17144 =
         0.13038   -0.00211   -0.05321   -0.05477
AFIX  43
H3    2    0.944240    0.088780    0.102254    11.00000   -1.20000
AFIX   0
C15   1    0.226155    0.166484    0.581164    11.00000    0.11429    0.11850 =
         0.13958    0.00642   -0.04525    0.00756
AFIX  43
H15   2    0.185177    0.218395    0.584276    11.00000   -1.20000
AFIX   0
C45   1    0.364945    0.793505    0.417901    11.00000    0.10352    0.15009 =
         0.14031    0.00401   -0.04989   -0.02081
C16   1    0.202380    0.093308    0.625007    11.00000    0.09722    0.11564 =
         0.10972   -0.00468   -0.02109    0.02711
AFIX  43
H16   2    0.140460    0.086252    0.661471    11.00000   -1.20000
AFIX   0
C4    1    0.845291    0.064665    0.210741    11.00000    0.13252    0.14831 =
         0.14593   -0.04331   -0.02357   -0.06819
AFIX  43
H4    2    0.813877    0.033193    0.187596    11.00000   -1.20000
AFIX   0
C27   1    1.137519    0.304907   -0.228586    11.00000    0.26530    0.25237 =
         0.13153   -0.00020   -0.10930   -0.01688
AFIX  43
H27   2    1.119372    0.304558   -0.275129    11.00000   -1.20000
AFIX   0
B1    4    1.268974    0.351474   -0.090297    11.00000    0.17709    0.15678 =
         0.15233    0.07561   -0.08754   -0.05327
AFIX  14
H1    2    1.323221    0.393708   -0.133783    11.00000   -1.20000
AFIX   0
N8    6    0.263071    0.854238    0.364865    11.00000    0.15377    0.11555 =
         0.20492    0.02554   -0.09485   -0.02350
C46   1    0.374625    0.880636    0.400913    11.00000    0.14894    0.15398 =
         0.16136    0.00387   -0.07248   -0.04196
AFIX  43
H46   2    0.422590    0.906623    0.406816    11.00000   -1.20000
AFIX   0
C31   1    1.352622    0.147020   -0.020635    11.00000    0.12458    0.13397 =
         0.10214    0.02513   -0.06585   -0.03164
C47   1    0.303775    0.923887    0.374070    11.00000    0.14859    0.13236 =
         0.20582    0.02458   -0.07430   -0.03613
C48   1   -0.013684    0.684284    0.579900    11.00000    0.10628    0.11205 =
         0.20166    0.00963   -0.03157    0.00679
AFIX 137
H48A  2    0.000331    0.632776    0.546139    11.00000   -1.50000
H48B  2   -0.079723    0.691741    0.618477    11.00000   -1.50000
H48C  2    0.027033    0.678926    0.611958    11.00000   -1.50000
AFIX   0
C28   1    1.200866    0.351006   -0.221561    11.00000    0.20134    0.16784 =
         0.13236   -0.00979   -0.08057    0.04231
C30   1    1.339952    0.062292    0.024079    11.00000    0.20941    0.15116 =
         0.13941    0.05761   -0.04516   -0.00911
AFIX  33
H30A  2    1.401795    0.029332    0.015697    11.00000   -1.50000
H30B  2    1.304022    0.072410    0.084048    11.00000   -1.50000
H30C  2    1.305876    0.030531    0.001307    11.00000   -1.50000
AFIX   0
C51   1   -0.006257    0.888337    0.456084    11.00000    0.17585    0.07334 =
         0.38512    0.04613   -0.14480   -0.04295
C53   1    0.277109    0.568575    0.189231    11.00000    0.16717    0.26014 =
         0.13860    0.02441   -0.05817   -0.07285
AFIX 137
H53A  2    0.324770    0.547215    0.212623    11.00000   -1.50000
H53B  2    0.302940    0.556539    0.129001    11.00000   -1.50000
H53C  2    0.221601    0.540438    0.216654    11.00000   -1.50000
AFIX   0
C36   1    1.080569    0.423786    0.108448    11.00000    0.22239    0.14995 =
         0.17187   -0.00126   -0.10891   -0.00701
C50   1   -0.048115    0.831469    0.516108    11.00000    0.10463    0.09740 =
         0.41096    0.05199   -0.13077   -0.04021
AFIX  43
H50   2   -0.112844    0.844770    0.550658    11.00000   -1.20000
AFIX   0
N11   6    0.226555    0.708246    0.277598    11.00000    0.17696    0.18856 =
         0.17017    0.05338   -0.09275   -0.09495
C32   1    1.446489    0.176047   -0.066632    11.00000    0.12583    0.22856 =
         0.17067    0.06867   -0.04743   -0.03648
AFIX  43
H32   2    1.507671    0.149688   -0.071608    11.00000   -1.20000
AFIX   0
C26   1    1.106266    0.261312   -0.159833    11.00000    0.16958    0.16887 =
         0.14280   -0.01406   -0.10336    0.03776
C35   1    1.000283    0.405450    0.181101    11.00000    0.27484    0.13948 =
         0.19306   -0.08171   -0.04349   -0.01697
AFIX 137
H35A  2    1.018441    0.396059    0.229675    11.00000   -1.50000
H35B  2    0.979018    0.354287    0.170308    11.00000   -1.50000
H35C  2    0.949128    0.453611    0.192425    11.00000   -1.50000
AFIX   0
C54   1    0.247189    0.670940    0.204890    11.00000    0.14604    0.24539 =
         0.14602    0.06831   -0.08066   -0.11280
C37   1    1.111001    0.501606    0.087186    11.00000    0.26012    0.15018 =
         0.22058    0.00401   -0.15421   -0.02337
AFIX  43
H37   2    1.081414    0.552172    0.119105    11.00000   -1.20000
AFIX   0
C024  1    0.287477    1.011165    0.342771    11.00000    0.20315    0.12124 =
         0.52794    0.09322   -0.21171   -0.08741
AFIX 137
H02A  2    0.336405    1.017231    0.287482    11.00000   -1.50000
H02B  2    0.289650    1.052475    0.381657    11.00000   -1.50000
H02C  2    0.225601    1.021487    0.338483    11.00000   -1.50000
AFIX   0
C55   1    0.234039    0.741627    0.145699    11.00000    0.34758    0.27362 =
         0.21489    0.13644   -0.17114   -0.20718
AFIX  43
H55   2    0.250400    0.734420    0.087403    11.00000   -1.20000
AFIX   0
C38   1    1.193235    0.496877    0.010575    11.00000    0.26614    0.14175 =
         0.28124    0.04973   -0.12256   -0.03235
C52   1   -0.036874    0.976322    0.431841    11.00000    0.23419    0.09172 =
         0.72144    0.13054   -0.27819   -0.06998
AFIX  33
H52A  2    0.015108    0.995217    0.384503    11.00000   -1.50000
H52B  2   -0.090841    0.976325    0.415730    11.00000   -1.50000
H52C  2   -0.054944    1.015056    0.479410    11.00000   -1.50000
AFIX   0
C34   1    1.496981    0.300861   -0.167680    11.00000    0.15921    0.24703 =
         0.35245    0.12636   -0.01605   -0.08757
AFIX 137
H34A  2    1.494695    0.295829   -0.223081    11.00000   -1.50000
H34B  2    1.559004    0.274618   -0.168914    11.00000   -1.50000
H34C  2    1.485913    0.361085   -0.152415    11.00000   -1.50000
AFIX   0
C43   1    0.220394    0.646745    0.522227    11.00000    0.10027    0.11577 =
         0.11594   -0.03143   -0.03249    0.04953
C29   1    1.265457    0.428393   -0.268047    11.00000    0.34522    0.25761 =
         0.22722    0.09207   -0.16388   -0.05816
AFIX 137
H29A  2    1.259377    0.469872   -0.225794    11.00000   -1.50000
H29B  2    1.242795    0.456896   -0.309917    11.00000   -1.50000
H29C  2    1.331692    0.403332   -0.295413    11.00000   -1.50000
AFIX   0
B2    4    0.170455    0.861485    0.340691    11.00000    0.19020    0.12027 =
         0.26796    0.09969   -0.14719   -0.04909
AFIX  14
H2    2    0.152315    0.930818    0.318490    11.00000   -1.20000
AFIX   0
C57   1    0.160970    0.914270    0.163806    11.00000    0.55631    0.26168 =
         0.43302    0.24570   -0.39096   -0.23671
AFIX  33
H57A  2    0.161661    0.912462    0.106996    11.00000   -1.50000
H57B  2    0.097138    0.935703    0.202668    11.00000   -1.50000
H57C  2    0.204265    0.952018    0.165141    11.00000   -1.50000
AFIX   0
C25   1    1.035907    0.201879   -0.147235    11.00000    0.16119    0.31102 =
         0.16232   -0.04963   -0.06542   -0.02579
AFIX 137
H25A  2    1.069210    0.145825   -0.170634    11.00000   -1.50000
H25B  2    0.993332    0.224598   -0.175609    11.00000   -1.50000
H25C  2    0.999443    0.196580   -0.087270    11.00000   -1.50000
AFIX   0
C39   1    1.259041    0.549608   -0.043293    11.00000    0.33432    0.20588 =
         0.27169    0.08634   -0.17517   -0.10799
AFIX 137
H39A  2    1.314367    0.543607   -0.028154    11.00000   -1.50000
H39B  2    1.228907    0.609161   -0.036643    11.00000   -1.50000
H39C  2    1.278516    0.531849   -0.101647    11.00000   -1.50000
AFIX   0
C33   1    1.417884    0.253814   -0.100445    11.00000    0.13801    0.19040 =
         0.22399    0.08388   -0.05082   -0.06193
N12   6    0.201595    0.796615    0.265761    11.00000    0.22497    0.20187 =
         0.24028    0.09864   -0.17506   -0.10333
C21   1    0.250987    0.460627    0.434553    11.00000    0.06663    0.10734 =
         0.13298   -0.00157   -0.02849    0.00507
C24   1    0.218672    0.545577    0.418258    11.00000    0.06535    0.10849 =
         0.18649   -0.00505   -0.08342   -0.00769
C56   1    0.193059    0.821512    0.190667    11.00000    0.32747    0.25220 =
         0.29761    0.14308   -0.24810   -0.15169
HKLF 4




REM  exp_1009_scale_a.res in P-1
REM wR2 = 0.1704, GooF = S = 1.001, Restrained GooF = 0.925 for all data
REM R1 = 0.0608 for 2920 Fo > 4sig(Fo) and 0.0896 for all 4364 data
REM 762 parameters refined using 779 restraints

END

WGHT      0.0908      0.0000

REM Highest difference peak  1.233,  deepest hole -0.786,  1-sigma level  0.118
Q1    1   0.2334  0.6232  0.3228  11.00000  0.05    1.23
Q2    1   1.1325  0.2683  0.1025  11.00000  0.05    1.03
Q3    1   0.1059  0.6265  0.4675  11.00000  0.05    1.02
Q4    1   1.1594  0.1577  0.0920  11.00000  0.05    0.95
Q5    1   0.1827  0.7335  0.4001  11.00000  0.05    0.76
Q6    1   1.2281  0.1040  0.0985  11.00000  0.05    0.69
Q7    1   0.2619  0.5886  0.4015  11.00000  0.05    0.63
Q8    1   1.0573  0.1988  0.0624  11.00000  0.05    0.62
Q9    1   0.1020  0.5340  0.3062  11.00000  0.05    0.62
Q10   1   1.0853  0.3023  0.0054  11.00000  0.05    0.61
Q11   1   1.1515  0.3012  0.1559  11.00000  0.05    0.60
Q12   1   0.2885  0.6868  0.3427  11.00000  0.05    0.59
Q13   1   0.2248  0.7106  0.4846  11.00000  0.05    0.56
Q14   1   1.2073  0.0979  0.1561  11.00000  0.05    0.56
Q15   1   1.1090  0.1833 -0.0577  11.00000  0.05    0.56
Q16   1   0.0879  0.6869  0.3835  11.00000  0.05    0.55
Q17   1   0.0888  0.4534  0.4221  11.00000  0.05    0.52
Q18   1   0.1632  0.4745  0.2903  11.00000  0.05    0.41
Q19   1   1.1000  0.1019  0.0127  11.00000  0.05    0.40
Q20   1   1.1842  0.0337  0.0354  11.00000  0.05    0.39
Q21   1   0.2533  0.6260  0.5056  11.00000  0.05    0.39
Q22   1   1.2679  0.2364  0.1240  11.00000  0.05    0.38
Q23   1   1.1413  0.3488  0.0006  11.00000  0.05    0.36
Q24   1   1.1322  0.3587  0.0200  11.00000  0.05    0.36
Q25   1   1.1667  0.1989  0.2811  11.00000  0.05    0.36
Q26   1  -0.0358  0.5238  0.4689  11.00000  0.05    0.35
Q27   1   1.2352  0.3237  0.0414  11.00000  0.05    0.35
Q28   1   1.2899  0.2896  0.1792  11.00000  0.05    0.35
Q29   1  -0.0833  0.7114  0.7201  11.00000  0.05    0.35
Q30   1   1.0828  0.1623  0.2188  11.00000  0.05    0.32
;
_shelx_res_checksum              91486
_shelx_fab_file
;
-11 -4 1 -0.6036 -0.5995
-11 -3 1 3.2640 -0.1679
-11 -2 1 3.9349 0.9215
-11 -1 1 0.6773 -0.8355
-11 0 1 3.2280 -0.3183
-11 1 1 -1.9144 0.2968
-10 -7 1 -0.7338 0.4211
-10 -6 1 -3.9733 -0.9259
-10 -6 2 -1.4392 -0.4151
-10 -5 1 -2.8451 0.0485
-10 -5 2 4.3049 0.6826
-10 -4 1 0.1156 0.7625
-10 -4 2 -0.9501 0.1595
-10 -4 3 2.0954 -1.0462
-10 -3 1 -4.6941 -1.1454
-10 -3 2 3.5297 -0.9520
-10 -3 3 7.3790 0.2172
-10 -2 1 -1.0235 -0.4601
-10 -2 2 0.1075 0.5768
-10 -2 3 1.3245 0.6477
-10 -1 1 -3.9908 1.4300
-10 -1 2 -0.9545 0.3882
-10 -1 3 4.4899 -0.2393
-10 0 1 -2.1082 -0.6095
-10 0 2 1.8463 -0.6733
-10 0 3 2.8112 -0.1102
-10 1 1 1.9840 0.0687
-10 1 2 -2.3056 0.3934
-10 1 3 -1.4545 -0.3888
-10 2 1 -3.4657 0.8483
-10 2 2 -1.9447 -0.6781
-10 3 1 -2.7502 -0.9570
-10 3 2 0.1796 1.1902
-10 4 1 0.2109 0.5803
-9 -9 1 -3.6700 0.1333
-9 -8 1 -0.4354 -1.8061
-9 -8 2 -0.0717 -0.5794
-9 -7 1 2.6395 0.5841
-9 -7 2 0.1245 0.3525
-9 -7 3 -3.0402 0.8593
-9 -6 1 1.9182 0.6673
-9 -6 2 -3.5199 -0.5995
-9 -6 3 -4.2151 -0.4507
-9 -6 4 -1.3682 0.2074
-9 -5 1 -2.1083 -1.0524
-9 -5 2 -4.9227 -0.0793
-9 -5 3 -2.5745 0.2405
-9 -5 4 -3.5818 0.1713
-9 -4 1 -0.4084 0.7097
-9 -4 2 0.8201 0.8750
-9 -4 3 -3.3668 0.2609
-9 -4 4 0.1069 -0.2778
-9 -3 1 2.2710 0.4222
-9 -3 2 -4.9086 -0.6434
-9 -3 3 -2.2464 -0.6640
-9 -3 4 0.3719 0.0871
-9 -3 5 -3.6605 -0.1024
-9 -2 1 -0.2790 -1.2098
-9 -2 2 2.2167 -0.2791
-9 -2 3 -2.6638 0.6302
-9 -2 4 -2.4299 0.3745
-9 -2 5 7.3267 -0.1973
-9 -1 1 4.3693 0.3374
-9 -1 2 -2.3350 0.5063
-9 -1 3 -2.1465 -0.1979
-9 -1 4 6.5251 -0.2246
-9 -1 5 2.6363 0.3804
-9 0 1 0.5470 0.6844
-9 0 2 0.0798 -0.5147
-9 0 3 0.6237 -0.3904
-9 0 4 1.1545 -0.1772
-9 0 5 1.6426 -0.3656
-9 1 1 2.1103 -0.5575
-9 1 2 2.9200 -0.1313
-9 1 3 -0.2912 0.7926
-9 1 4 2.0897 0.3543
-9 2 1 2.4013 0.2406
-9 2 2 1.9910 1.5163
-9 2 3 2.5274 0.2005
-9 2 4 -2.2980 -0.2580
-9 3 1 0.5426 0.0169
-9 3 2 -1.9124 -1.1266
-9 3 3 -1.8473 -0.1706
-9 3 4 1.8057 -0.0442
-9 4 1 -2.8458 -1.8930
-9 4 2 -9.1834 -0.4062
-9 4 3 -2.2163 1.0070
-9 5 1 -2.7864 1.2778
-9 5 2 1.3831 -0.5867
-9 6 1 1.7030 -0.5277
-8 -10 1 -1.0052 -0.1976
-8 -9 1 -0.2063 -0.1651
-8 -9 2 0.8502 0.0936
-8 -8 1 8.4477 -0.0945
-8 -8 2 -0.3920 -1.0505
-8 -8 3 -4.3116 0.2768
-8 -8 4 1.5429 0.7412
-8 -7 1 -0.3595 -0.1844
-8 -7 2 1.9530 0.4131
-8 -7 3 2.3612 -0.0333
-8 -7 4 0.4394 0.5324
-8 -6 1 5.9993 1.4352
-8 -6 2 7.8620 0.5035
-8 -6 3 1.3038 -0.8761
-8 -6 4 -0.7877 -0.4373
-8 -6 5 2.9950 -0.2448
-8 -5 1 4.9332 -0.4825
-8 -5 2 3.7457 -0.9944
-8 -5 3 2.6946 -0.0018
-8 -5 4 3.0100 0.3182
-8 -5 5 -2.6523 0.2952
-8 -4 1 -0.5887 -0.8660
-8 -4 2 -1.4717 0.5840
-8 -4 3 -1.6632 0.7123
-8 -4 4 -6.9010 0.2913
-8 -4 5 -7.4396 0.0325
-8 -4 6 3.2965 -0.2094
-8 -3 1 -2.5413 1.2543
-8 -3 2 -0.8744 0.5807
-8 -3 3 -3.4991 -0.8130
-8 -3 4 2.2443 -0.5977
-8 -3 5 5.7948 0.0875
-8 -3 6 -3.0555 -0.2939
-8 -2 1 -4.0131 -0.7680
-8 -2 2 -3.6418 -1.2253
-8 -2 3 5.7442 -0.2242
-8 -2 4 1.3434 0.0418
-8 -2 5 -11.0057 0.3055
-8 -2 6 -5.0386 0.8377
-8 -1 1 -0.3809 -1.1322
-8 -1 2 3.4052 0.6477
-8 -1 3 -4.3767 1.0209
-8 -1 4 -9.1204 -0.1229
-8 -1 5 1.4963 -0.3649
-8 -1 6 4.0395 -0.2490
-8 0 1 0.8064 1.7015
-8 0 2 -3.3583 0.4385
-8 0 3 -1.2942 -0.6004
-8 0 4 1.6760 -0.1796
-8 0 5 1.8022 0.1672
-8 0 6 3.1097 0.1710
-8 1 1 -1.7385 -0.0158
-8 1 2 1.7876 -0.9744
-8 1 3 2.9000 -0.3243
-8 1 4 -2.5317 0.2311
-8 1 5 0.5873 -0.4276
-8 1 6 3.3399 -0.3124
-8 2 1 0.9461 -0.9579
-8 2 2 -0.3671 0.3232
-8 2 3 -1.1547 0.4405
-8 2 4 2.6375 0.2654
-8 2 5 1.1562 0.2723
-8 2 6 1.5975 -0.2464
-8 3 1 0.0981 0.6800
-8 3 2 2.0368 1.0698
-8 3 3 1.8511 -0.4684
-8 3 4 -1.7764 -0.4143
-8 3 5 -0.1329 -0.5561
-8 4 1 1.4700 0.2815
-8 4 2 6.2822 -1.1801
-8 4 3 -0.6238 -0.3114
-8 4 4 -3.3216 -0.9163
-8 4 5 -1.9475 0.4228
-8 5 1 -1.9212 -0.2699
-8 5 2 -2.4233 0.4014
-8 5 3 -0.2592 0.1406
-8 5 4 -4.4802 0.6772
-8 6 1 -5.6449 1.5846
-8 6 2 -3.7392 0.6494
-8 6 3 0.5337 -0.1632
-8 7 1 1.6150 -0.0203
-7 -11 1 -1.6966 1.6379
-7 -10 1 3.6475 -0.2965
-7 -10 2 4.1230 -0.7091
-7 -10 3 -3.8366 -0.9459
-7 -9 1 2.2105 -0.4982
-7 -9 2 1.4942 0.6967
-7 -9 3 -0.3866 0.3888
-7 -9 4 -0.5805 -0.2539
-7 -8 1 -8.2508 0.8044
-7 -8 2 2.8337 -0.0086
-7 -8 3 2.7024 -0.8175
-7 -8 4 -3.9205 -0.8218
-7 -8 5 -4.8966 -0.9013
-7 -7 1 -2.7498 -0.9473
-7 -7 2 -0.0078 -1.0915
-7 -7 3 1.0979 0.3467
-7 -7 4 -1.0786 -0.0651
-7 -7 5 0.0758 -0.2308
-7 -7 6 3.1723 0.5662
-7 -6 1 -9.8324 -0.2960
-7 -6 2 -2.8418 1.6700
-7 -6 3 4.7800 0.6719
-7 -6 4 2.5814 -0.2070
-7 -6 5 -2.8272 0.4249
-7 -6 6 -4.2189 0.2957
-7 -5 1 -4.6821 1.4600
-7 -5 2 -1.4746 -0.4948
-7 -5 3 2.6527 -0.7661
-7 -5 4 1.1353 -0.3072
-7 -5 5 -0.2833 -0.0455
-7 -5 6 2.2604 0.1091
-7 -5 7 1.5475 -0.7026
-7 -4 1 1.9150 -1.2003
-7 -4 2 6.1114 -1.0347
-7 -4 3 6.6184 0.6131
-7 -4 4 5.4895 0.6861
-7 -4 5 2.1042 -0.1353
-7 -4 6 -4.3558 0.1663
-7 -4 7 0.8985 0.2024
-7 -3 1 2.7906 -0.0468
-7 -3 2 0.9813 1.6746
-7 -3 3 1.3798 0.3963
-7 -3 4 -4.3205 -0.2950
-7 -3 5 -3.6880 0.2544
-7 -3 6 2.4530 0.5820
-7 -3 7 -2.1879 0.5008
-7 -2 1 5.8588 1.2605
-7 -2 2 0.8127 -0.2551
-7 -2 3 -4.6140 -0.9876
-7 -2 4 0.5824 -0.2224
-7 -2 5 6.9051 -0.1195
-7 -2 6 -0.4158 -0.7757
-7 -2 7 -1.8757 -0.1600
-7 -1 1 0.8355 -1.1348
-7 -1 2 -2.1554 -1.6192
-7 -1 3 3.8291 0.5930
-7 -1 4 3.4174 0.4917
-7 -1 5 -4.3761 -0.2314
-7 -1 6 -2.6436 0.5051
-7 -1 7 -5.9893 0.8171
-7 0 1 -0.7410 -0.1046
-7 0 2 2.4815 1.1951
-7 0 3 -1.7448 0.4672
-7 0 4 -2.2820 0.0483
-7 0 5 -1.0798 0.0981
-7 0 6 -0.0729 -0.0611
-7 0 7 4.3578 -0.8310
-7 1 1 -0.0811 1.8057
-7 1 2 -0.2631 0.0432
-7 1 3 -0.4708 -1.2049
-7 1 4 3.0652 0.0485
-7 1 5 0.0632 0.3310
-7 1 6 -1.0433 -0.0308
-7 1 7 -0.9661 0.5852
-7 2 1 0.4885 -1.4985
-7 2 2 2.8213 -0.6488
-7 2 3 1.0403 0.2777
-7 2 4 -1.4848 0.1524
-7 2 5 0.1077 0.1716
-7 2 6 -2.5475 0.2927
-7 2 7 0.5329 0.1999
-7 3 1 1.4056 -0.9539
-7 3 2 -0.4618 0.9097
-7 3 3 1.0755 0.7468
-7 3 4 0.3097 -0.5053
-7 3 5 -1.2580 0.4567
-7 3 6 3.8676 0.0335
-7 4 1 3.6002 1.4764
-7 4 2 -2.6905 -0.5706
-7 4 3 -0.3720 -0.6283
-7 4 4 0.4801 -0.0960
-7 4 5 2.3751 -0.7424
-7 4 6 1.4407 -0.3341
-7 5 1 5.5474 -0.4085
-7 5 2 -2.7567 -1.3245
-7 5 3 -4.7914 0.0554
-7 5 4 4.8175 0.3498
-7 5 5 0.9140 -0.4456
-7 6 1 4.7192 -0.2372
-7 6 2 2.1011 1.7625
-7 6 3 -3.3629 0.0261
-7 6 4 -4.7842 0.4172
-7 6 5 0.0005 0.4976
-7 7 1 3.5760 -0.3118
-7 7 2 3.4789 -0.1739
-7 7 3 -3.1231 0.3378
-7 8 1 1.8327 -0.8007
-7 8 2 3.0536 0.1228
-6 -11 1 -1.1617 -0.2077
-6 -11 2 -1.6000 0.0125
-6 -10 1 -0.5998 0.6283
-6 -10 2 -0.2631 -0.2262
-6 -10 3 1.6695 -0.2409
-6 -10 4 0.7028 0.4902
-6 -9 1 -5.0933 -1.1706
-6 -9 2 -5.9706 0.0623
-6 -9 3 0.7086 0.8482
-6 -9 4 1.6783 0.4234
-6 -9 5 -4.5884 0.2352
-6 -8 1 0.8334 0.6179
-6 -8 2 -1.9657 0.8865
-6 -8 3 3.2222 0.3633
-6 -8 4 5.5508 -0.2836
-6 -8 5 3.0374 -0.0949
-6 -8 6 -0.2562 0.1024
-6 -7 1 4.9026 0.5397
-6 -7 2 -3.6002 -1.5453
-6 -7 3 -4.8292 -1.2838
-6 -7 4 1.4985 0.4652
-6 -7 5 0.5816 -0.0699
-6 -7 6 -3.1136 -0.7606
-6 -7 7 -1.3022 -0.1275
-6 -6 1 2.5856 -1.5133
-6 -6 2 -6.7732 -0.2868
-6 -6 3 -7.2841 0.9382
-6 -6 4 -1.3387 0.1537
-6 -6 5 3.1965 -0.0369
-6 -6 6 3.0387 0.0679
-6 -6 7 -2.9021 -0.4552
-6 -5 1 5.1607 1.2365
-6 -5 2 0.4273 1.7716
-6 -5 3 -4.1502 -0.0210
-6 -5 4 0.7781 -0.4586
-6 -5 5 3.8432 -0.1538
-6 -5 6 -0.9240 0.0754
-6 -5 7 -1.9555 0.3489
-6 -5 8 -2.1678 0.4689
-6 -4 1 -1.9243 0.7819
-6 -4 2 -8.5493 -1.5287
-6 -4 3 -6.2452 -1.1704
-6 -4 4 0.4995 0.2664
-6 -4 5 2.9369 -0.3985
-6 -4 6 3.2840 -0.2459
-6 -4 7 -2.6437 0.8407
-6 -4 8 -0.4278 0.1664
-6 -3 1 -0.6786 -1.8420
-6 -3 2 3.6089 0.1691
-6 -3 3 2.1026 0.8075
-6 -3 4 4.8561 0.3532
-6 -3 5 3.8627 0.1265
-6 -3 6 -1.7880 -0.6252
-6 -3 7 0.1549 -0.5373
-6 -3 8 -1.9737 -0.0579
-6 -2 1 -6.0073 0.7197
-6 -2 2 -0.9196 1.5017
-6 -2 3 1.8458 0.1366
-6 -2 4 -0.4690 -0.8749
-6 -2 5 -3.3046 0.5302
-6 -2 6 1.8699 0.3450
-6 -2 7 -0.6038 -0.3884
-6 -2 8 0.3465 0.7542
-6 -1 1 -5.0508 0.6756
-6 -1 2 2.2606 -1.5161
-6 -1 3 -1.3578 -0.6623
-6 -1 4 -0.8737 0.1766
-6 -1 5 0.5771 -0.4056
-6 -1 6 -2.2393 -0.1067
-6 -1 7 3.7698 -0.2706
-6 -1 8 0.9678 -0.3305
-6 -1 9 3.2452 0.6877
-6 0 1 -0.7302 -1.3214
-6 0 2 -0.1193 -0.4758
-6 0 3 0.5976 0.7526
-6 0 4 0.3104 0.2862
-6 0 5 -0.5666 -0.4346
-6 0 6 -3.3273 0.0331
-6 0 7 -4.1452 0.4569
-6 0 8 1.5586 0.4079
-6 1 1 -5.2790 0.5529
-6 1 2 -4.5209 1.9694
-6 1 3 -0.1556 -0.1003
-6 1 4 -1.9567 -0.4100
-6 1 5 0.2161 0.3275
-6 1 6 -1.2361 -0.3362
-6 1 7 -1.2177 -0.4313
-6 1 8 3.3787 0.0920
-6 2 1 -3.3961 0.8839
-6 2 2 -2.6812 -1.0875
-6 2 3 2.2104 -0.7694
-6 2 4 2.5728 0.0954
-6 2 5 0.6945 0.0690
-6 2 6 1.8231 -0.0645
-6 2 7 -1.9566 -0.0304
-6 2 8 -0.5023 0.0651
-6 3 1 -0.0336 -1.5846
-6 3 2 -1.2409 -0.5384
-6 3 3 1.3097 1.2389
-6 3 4 5.0548 0.4540
-6 3 5 2.9793 -0.2127
-6 3 6 -2.5360 0.0460
-6 3 7 -3.1561 -0.7142
-6 3 8 -1.5287 -0.8610
-6 4 1 -1.9301 1.0409
-6 4 2 4.4174 1.5489
-6 4 3 3.7110 0.2700
-6 4 4 3.5348 -0.1829
-6 4 5 -0.0650 0.0113
-6 4 6 0.9863 0.2175
-6 4 7 4.3958 0.4043
-6 5 1 -0.9081 0.8974
-6 5 2 10.0498 -0.6808
-6 5 3 4.0030 -0.8390
-6 5 4 -5.0400 0.2377
-6 5 5 2.2436 0.3568
-6 5 6 4.7301 0.6525
-6 5 7 1.0546 0.0345
-6 6 1 -6.3633 -1.8808
-6 6 2 -0.5152 -0.5439
-6 6 3 4.6342 0.3933
-6 6 4 4.7152 0.1708
-6 6 5 1.0141 0.0167
-6 6 6 -1.3502 -0.7547
-6 7 1 -10.0233 0.2806
-6 7 2 -2.2856 0.8174
-6 7 3 8.7250 -0.2442
-6 7 4 1.5653 -0.9596
-6 7 5 -6.2934 -0.0248
-6 8 1 -2.1414 0.8318
-6 8 2 -0.1401 -1.3399
-6 8 3 2.0540 -0.9273
-6 8 4 0.9950 -0.0922
-6 9 1 2.3068 -0.7572
-6 9 2 1.7036 -0.3507
-5 -12 1 -0.6892 -0.3103
-5 -11 1 1.6528 -0.2552
-5 -11 2 2.5297 0.0611
-5 -11 3 -0.6775 0.0813
-5 -10 1 -3.4769 0.8508
-5 -10 2 -0.7805 1.2684
-5 -10 3 1.1861 0.0083
-5 -10 4 -0.3455 -0.5388
-5 -10 5 -3.8684 -0.5306
-5 -9 1 5.0472 0.0497
-5 -9 2 4.5893 -1.0279
-5 -9 3 -2.4934 -0.5488
-5 -9 4 -3.6973 -0.4515
-5 -9 5 1.4845 -0.3700
-5 -9 6 0.1966 0.2398
-5 -8 1 5.9216 -1.4780
-5 -8 2 -0.3480 0.2063
-5 -8 3 -5.3757 1.1533
-5 -8 4 -1.6250 0.7960
-5 -8 5 1.4573 0.0792
-5 -8 6 -0.1975 -0.0600
-5 -8 7 -3.0059 0.3348
-5 -7 1 -0.9594 1.8410
-5 -7 2 6.3444 1.0373
-5 -7 3 3.7059 -0.5153
-5 -7 4 -1.8059 -0.1780
-5 -7 5 0.1176 0.3197
-5 -7 6 0.7729 -0.1098
-5 -7 7 -1.0275 0.2626
-5 -7 8 -1.1606 0.4492
-5 -6 1 4.7519 -0.7018
-5 -6 2 10.8973 -1.6045
-5 -6 3 5.3204 -0.7434
-5 -6 4 -2.1594 0.0231
-5 -6 5 -3.0520 0.1933
-5 -6 6 1.0396 -0.0719
-5 -6 7 4.9447 -0.2813
-5 -6 8 3.2256 -0.2588
-5 -5 1 -3.4667 -1.1437
-5 -5 2 0.5613 0.7430
-5 -5 3 0.1866 1.2859
-5 -5 4 -4.3938 -0.4523
-5 -5 5 -3.6565 -0.3709
-5 -5 6 2.2459 0.4874
-5 -5 7 1.1301 -0.4654
-5 -5 8 -1.6694 -0.5150
-5 -5 9 -5.7426 0.1925
-5 -4 1 3.0485 1.9442
-5 -4 2 8.1362 0.7696
-5 -4 3 2.7134 -0.7201
-5 -4 4 -2.9395 0.3518
-5 -4 5 -2.8584 0.2827
-5 -4 6 -2.3369 -0.1641
-5 -4 7 2.7722 0.2032
-5 -4 8 -0.5736 -0.0420
-5 -4 9 1.6129 -0.0166
-5 -3 1 -3.1419 -0.7643
-5 -3 2 -2.6102 -1.4975
-5 -3 3 -1.7013 -0.3253
-5 -3 4 -7.8082 0.3204
-5 -3 5 -2.8813 -0.0618
-5 -3 6 6.3959 -0.3165
-5 -3 7 3.7344 0.4051
-5 -3 8 2.3272 0.0749
-5 -3 9 -4.2322 -0.4288
-5 -2 1 6.5356 -1.3661
-5 -2 2 -0.7891 1.1618
-5 -2 3 -1.0452 1.4411
-5 -2 4 0.1898 -0.5736
-5 -2 5 3.7172 -0.0397
-5 -2 6 2.8473 0.4156
-5 -2 7 4.2101 -0.7030
-5 -2 8 -0.7371 -0.4994
-5 -2 9 -0.6389 -0.3631
-5 -1 1 1.8588 2.2638
-5 -1 2 -7.8187 0.5709
-5 -1 3 1.9727 -0.4851
-5 -1 4 3.8338 -0.0885
-5 -1 5 0.2645 0.0253
-5 -1 6 3.0587 0.1263
-5 -1 7 -0.8932 0.1778
-5 -1 8 -0.9552 0.1527
-5 -1 9 -5.4959 -0.3305
-5 0 1 1.3225 -0.4644
-5 0 2 -0.5438 -2.0642
-5 0 3 -2.1746 -0.8257
-5 0 4 -4.8455 1.0803
-5 0 5 -2.1682 -0.2270
-5 0 6 1.3024 -0.1616
-5 0 7 0.5105 0.4146
-5 0 8 -2.2878 -0.4636
-5 0 9 0.8355 -0.0287
-5 1 1 8.6730 -1.8111
-5 1 2 0.2899 0.9127
-5 1 3 -5.5359 0.7316
-5 1 4 -0.9079 -0.2509
-5 1 5 -1.0283 0.1669
-5 1 6 1.7069 0.1061
-5 1 7 1.3274 0.0089
-5 1 8 -4.4164 -0.0318
-5 1 9 -4.1478 0.1761
-5 2 1 -2.0906 1.6240
-5 2 2 -3.5018 1.4210
-5 2 3 -3.4351 -0.6078
-5 2 4 -3.3917 -0.8383
-5 2 5 -1.1412 0.5247
-5 2 6 0.3373 0.2002
-5 2 7 0.3882 0.1218
-5 2 8 -3.7504 0.0931
-5 2 9 -3.5153 -0.2682
-5 3 1 0.4508 -0.0452
-5 3 2 2.1245 -1.7698
-5 3 3 -4.4418 -0.2511
-5 3 4 -4.8052 0.2437
-5 3 5 -1.9566 -0.3466
-5 3 6 -1.8116 0.2039
-5 3 7 -0.3493 0.8177
-5 3 8 1.2152 0.6417
-5 3 9 -0.8357 -0.3132
-5 4 1 -0.9800 -1.4948
-5 4 2 -6.0730 0.2974
-5 4 3 -2.3194 1.1175
-5 4 4 -2.8538 -0.1779
-5 4 5 -3.2752 -0.4249
-5 4 6 -2.6168 -0.0079
-5 4 7 -0.8913 -0.2688
-5 4 8 0.7222 -0.2127
-5 5 1 -5.4202 1.6464
-5 5 2 -7.9727 0.5005
-5 5 3 0.0002 -0.9327
-5 5 4 4.0074 0.2822
-5 5 5 -0.9160 -0.0538
-5 5 6 -0.7312 -0.6873
-5 5 7 1.1194 0.3748
-5 5 8 4.7512 1.0827
-5 6 1 6.9715 -0.4417
-5 6 2 -0.8063 -1.1983
-5 6 3 -2.6637 -0.6046
-5 6 4 -0.0913 0.2694
-5 6 5 1.0941 0.2399
-5 6 6 -0.9082 0.1578
-5 6 7 0.2629 1.1124
-5 7 1 6.9367 -0.5665
-5 7 2 -5.8049 0.9237
-5 7 3 -7.7496 0.6305
-5 7 4 1.8380 -0.2863
-5 7 5 5.6546 0.0178
-5 7 6 4.5772 -0.5285
-5 8 1 0.5279 0.7951
-5 8 2 -2.3310 0.4646
-5 8 3 -2.6463 0.5727
-5 8 4 1.0943 -0.3138
-5 8 5 1.4642 -0.8091
-5 9 1 2.6822 0.0356
-5 9 2 0.5400 -0.4989
-5 9 3 -3.5476 0.0922
-5 9 4 -0.9358 0.8201
-5 10 1 -1.3665 -0.0645
-5 10 2 0.3791 0.0178
-4 -12 1 -1.1726 0.9852
-4 -12 2 -3.6619 -0.1989
-4 -11 1 -3.6092 -0.6061
-4 -11 2 -3.3851 -0.6944
-4 -11 3 2.8942 -0.6831
-4 -11 4 1.3504 -0.0471
-4 -10 1 2.6736 -0.3316
-4 -10 2 2.0629 0.6254
-4 -10 3 0.0800 0.6324
-4 -10 4 -0.5587 -0.1025
-4 -10 5 0.8073 0.1837
-4 -10 6 1.2331 0.2007
-4 -9 1 -0.2842 0.9779
-4 -9 2 -3.3959 0.1268
-4 -9 3 -0.0826 -0.4765
-4 -9 4 1.3067 -0.1422
-4 -9 5 -1.3861 -0.1368
-4 -9 6 -0.5969 0.0335
-4 -9 7 -1.6119 0.2705
-4 -8 1 -10.3206 -1.3101
-4 -8 2 -1.6036 -1.1013
-4 -8 3 3.1517 0.3426
-4 -8 4 -0.3298 0.3552
-4 -8 5 -3.1271 -0.2756
-4 -8 6 -1.0920 0.0357
-4 -8 7 0.6949 -0.1531
-4 -8 8 -3.7826 -0.6533
-4 -7 1 -3.0418 0.3551
-4 -7 2 -2.2860 1.3055
-4 -7 3 2.7357 0.4149
-4 -7 4 3.5712 -0.1861
-4 -7 5 0.8259 0.3410
-4 -7 6 0.1450 -0.2950
-4 -7 7 -0.2551 -0.2755
-4 -7 8 1.9073 0.3213
-4 -6 1 -7.7291 1.8281
-4 -6 2 -8.5646 -0.5018
-4 -6 3 -0.6701 -1.0046
-4 -6 4 4.2702 -0.0578
-4 -6 5 1.6580 0.4283
-4 -6 6 -1.8828 0.1813
-4 -6 7 -3.0568 -0.0883
-4 -6 8 -2.0029 0.5977
-4 -6 9 -3.0193 0.4137
-4 -5 1 -3.2788 -2.3725
-4 -5 2 -4.1104 -1.5118
-4 -5 3 3.7941 0.3892
-4 -5 4 8.5938 0.2404
-4 -5 5 3.6093 -0.5278
-4 -5 6 -1.5251 0.6588
-4 -5 7 0.3674 0.1419
-4 -5 8 1.4657 -0.6564
-4 -5 9 6.5364 0.5841
-4 -4 1 -4.6052 0.3113
-4 -4 2 -4.9393 2.0461
-4 -4 3 2.0142 0.4369
-4 -4 4 4.4829 -0.2822
-4 -4 5 1.0962 -0.2370
-4 -4 6 -2.0643 -0.3536
-4 -4 7 -2.1435 0.0649
-4 -4 8 4.2523 -0.2616
-4 -4 9 -0.7933 0.0034
-4 -4 10 -2.0857 0.5603
-4 -3 1 9.5288 1.9115
-4 -3 2 2.1906 0.1949
-4 -3 3 1.6421 -1.1715
-4 -3 4 5.2796 0.1771
-4 -3 5 -0.6233 0.8131
-4 -3 6 -7.7761 -0.6445
-4 -3 7 -4.1289 0.2558
-4 -3 8 -0.4591 0.8000
-4 -3 9 2.9864 -0.7726
-4 -3 10 -1.0527 -0.5195
-4 -2 1 0.3568 -1.9287
-4 -2 2 0.8768 -1.6770
-4 -2 3 -0.6150 0.5941
-4 -2 4 0.3649 -0.0964
-4 -2 5 -3.8999 -0.1482
-4 -2 6 -3.7454 0.2773
-4 -2 7 -4.7134 -0.3961
-4 -2 8 3.2841 0.2055
-4 -2 9 5.5633 0.3659
-4 -2 10 1.2490 -0.0222
-4 -1 1 9.4985 -0.2239
-4 -1 2 13.5613 1.1337
-4 -1 3 -3.3818 0.9215
-4 -1 4 -2.0123 -0.2579
-4 -1 5 1.1141 -0.3393
-4 -1 6 -3.0084 0.6168
-4 -1 7 0.9243 -0.5805
-4 -1 8 1.2347 -0.5577
-4 -1 9 5.7426 0.8059
-4 -1 10 3.5474 -0.4041
-4 0 1 1.3882 2.3635
-4 0 2 7.9053 0.0425
-4 0 3 3.4482 -1.4323
-4 0 4 6.9758 0.5277
-4 0 5 5.0468 0.2276
-4 0 6 -0.2696 -0.5897
-4 0 7 0.8211 0.6140
-4 0 8 2.2933 -0.1415
-4 0 9 1.3525 -0.4285
-4 0 10 3.3309 0.6523
-4 1 1 -5.3024 -1.7387
-4 1 2 9.0661 -1.0121
-4 1 3 7.5594 0.1095
-4 1 4 -3.9220 -0.0854
-4 1 5 -0.9677 0.0928
-4 1 6 -2.3737 -0.1113
-4 1 7 -0.5981 0.0394
-4 1 8 4.7088 -0.1027
-4 1 9 -0.4785 -0.5596
-4 1 10 -3.4151 -0.1665
-4 2 1 11.2543 -0.3582
-4 2 2 6.2774 1.5343
-4 2 3 0.7340 1.1714
-4 2 4 0.1592 -0.8113
-4 2 5 -1.4827 -0.1368
-4 2 6 0.4155 0.1795
-4 2 7 1.6731 -0.5698
-4 2 8 2.2678 0.6356
-4 2 9 0.1429 0.4078
-4 2 10 -1.1612 -0.0819
-4 3 1 -1.2739 1.6492
-4 3 2 -4.0681 -0.6671
-4 3 3 2.4423 -0.5041
-4 3 4 -0.7647 0.4568
-4 3 5 -1.5237 0.0004
-4 3 6 3.1615 0.2068
-4 3 7 1.5374 0.2202
-4 3 8 -0.4329 -0.2184
-4 3 9 -0.2170 -0.0565
-4 3 10 -5.2737 -0.2225
-4 4 1 4.0341 -1.4404
-4 4 2 5.1143 -1.5437
-4 4 3 -4.6361 0.0742
-4 4 4 -0.5940 1.2074
-4 4 5 3.6994 -0.1392
-4 4 6 2.4235 -0.2872
-4 4 7 -0.9178 -0.2523
-4 4 8 -3.3721 -0.1956
-4 4 9 -2.4159 1.1589
-4 5 1 4.6425 -0.0274
-4 5 2 3.0372 1.6897
-4 5 3 -1.2616 0.0925
-4 5 4 -1.7665 -1.0030
-4 5 5 0.2603 -0.0166
-4 5 6 -2.2567 -0.1585
-4 5 7 -3.5001 -0.2065
-4 5 8 -6.7473 -0.2242
-4 5 9 -3.3745 -0.3587
-4 6 1 -5.8837 1.9129
-4 6 2 3.6327 0.5008
-4 6 3 -0.4517 -0.8874
-4 6 4 -6.9840 -0.3572
-4 6 5 -2.9073 0.6412
-4 6 6 3.1737 0.2620
-4 6 7 0.4416 -0.9137
-4 6 8 -2.1546 -1.2000
-4 7 1 -0.1348 -1.6449
-4 7 2 5.0475 -0.8235
-4 7 3 0.9095 0.9468
-4 7 4 -2.5692 0.0125
-4 7 5 -1.3562 -0.2826
-4 7 6 -2.5655 0.1045
-4 7 7 -1.9968 -0.3162
-4 8 1 -1.4889 -0.0446
-4 8 2 2.4345 0.4207
-4 8 3 3.7283 0.2886
-4 8 4 -0.2865 -0.1407
-4 8 5 -3.8576 -0.2871
-4 8 6 -3.0237 0.2206
-4 9 1 -5.1158 0.4914
-4 9 2 2.0561 -0.6004
-4 9 3 0.7795 -0.6628
-4 9 4 -4.1300 0.4015
-4 9 5 -1.2323 0.1495
-4 10 1 3.6190 -0.6182
-4 10 2 1.6145 0.0499
-4 10 3 0.5701 -0.5265
-4 10 4 -2.0612 -0.3601
-4 11 1 -0.5964 -0.0116
-3 -12 1 5.0242 0.7813
-3 -12 2 3.3758 0.6313
-3 -12 3 2.9358 0.4199
-3 -11 1 2.9195 0.2925
-3 -11 2 1.5010 -0.1157
-3 -11 3 -2.9446 -0.2871
-3 -11 4 -0.4327 -0.2600
-3 -11 5 2.2015 -0.3173
-3 -10 1 -2.3596 -1.7790
-3 -10 2 -1.8703 -0.1547
-3 -10 3 1.1023 0.2325
-3 -10 4 3.7677 -0.2864
-3 -10 5 3.3494 0.0327
-3 -10 6 -0.6138 0.4756
-3 -9 1 -1.7434 0.9808
-3 -9 2 3.3336 1.1384
-3 -9 3 1.9176 0.6185
-3 -9 4 0.6586 -0.0116
-3 -9 5 -0.9844 0.1169
-3 -9 6 -2.7229 0.1435
-3 -9 7 -1.4874 -0.1316
-3 -8 1 9.8031 0.9496
-3 -8 2 0.2292 -1.2616
-3 -8 3 -3.5614 -0.7067
-3 -8 4 -1.2667 0.4009
-3 -8 5 1.7203 -0.3449
-3 -8 6 -0.2818 -0.3581
-3 -8 7 -0.5955 0.7224
-3 -8 8 4.1819 -0.0796
-3 -7 1 3.4127 -2.0334
-3 -7 2 -2.3807 -0.4502
-3 -7 3 -9.3020 0.3348
-3 -7 4 -6.3726 0.0579
-3 -7 5 -0.2818 -0.2155
-3 -7 6 1.1588 -0.1001
-3 -7 7 0.0319 -0.0202
-3 -7 8 -3.3447 0.3069
-3 -7 9 -4.6981 0.0404
-3 -6 1 8.9367 1.4403
-3 -6 2 3.0758 1.7767
-3 -6 3 -3.4609 -0.2153
-3 -6 4 -4.3764 -0.6964
-3 -6 5 1.1727 0.7075
-3 -6 6 5.2566 0.1889
-3 -6 7 2.1283 -0.4980
-3 -6 8 -1.2209 0.2578
-3 -6 9 1.3014 0.0720
-3 -6 10 2.4108 -0.8744
-3 -5 1 6.9250 1.0602
-3 -5 2 5.2408 -0.5775
-3 -5 3 -7.2849 -0.0582
-3 -5 4 -10.8261 0.4887
-3 -5 5 -4.0793 -0.3624
-3 -5 6 2.5997 -0.0101
-3 -5 7 3.0046 0.1313
-3 -5 8 -1.0371 -0.5628
-3 -5 9 -6.1831 -0.1360
-3 -5 10 -1.7583 0.2421
-3 -4 1 4.5180 -2.4490
-3 -4 2 -0.9024 -0.7351
-3 -4 3 -8.4307 0.4583
-3 -4 4 -3.9607 -0.1186
-3 -4 5 3.7512 -0.7428
-3 -4 6 5.0917 0.2676
-3 -4 7 3.2517 0.7995
-3 -4 8 -1.6491 -0.3677
-3 -4 9 0.7490 -0.2149
-3 -4 10 1.6710 0.4850
-3 -3 1 -16.3280 0.6904
-3 -3 2 -0.2206 1.2441
-3 -3 3 5.1931 0.0540
-3 -3 4 0.7992 -0.0136
-3 -3 5 2.4633 0.6788
-3 -3 6 4.7764 -0.5679
-3 -3 7 1.3430 -0.3061
-3 -3 8 0.7500 0.7190
-3 -3 9 -1.1341 -0.2058
-3 -3 10 0.2473 0.1017
-3 -3 11 -0.4035 0.5647
-3 -2 1 0.2886 0.8288
-3 -2 2 9.8191 -1.2326
-3 -2 3 6.3151 -0.0023
-3 -2 4 -2.7065 0.4703
-3 -2 5 -0.2174 0.3083
-3 -2 6 3.1162 0.2686
-3 -2 8 -6.5811 0.2908
-3 -2 9 -3.3821 -0.0368
-3 -2 10 2.0956 -0.6468
-3 -2 11 0.7988 -0.1739
-3 -1 1 -20.7571 -1.6106
-3 -1 2 -19.7869 -1.3732
-3 -1 3 1.7366 0.4071
-3 -1 4 4.3566 0.1771
-3 -1 5 -0.1411 -0.7692
-3 -1 6 0.6723 0.5127
-3 -1 7 0.2007 0.0203
-3 -1 8 -0.2412 -0.7040
-3 -1 9 -3.2658 0.6191
-3 -1 10 0.4936 0.3209
-3 -1 11 -0.4961 -0.4434
-3 0 1 -22.8620 1.6727
-3 0 2 -13.7696 2.1374
-3 0 3 5.8525 -0.8487
-3 0 4 -0.7755 -0.6151
-3 0 5 -3.4614 0.1093
-3 0 6 -1.1744 -0.4036
-3 0 7 -1.0639 0.2022
-3 0 8 -2.2934 0.3446
-3 0 9 -4.5406 -0.2872
-3 0 10 -2.0562 -0.3005
-3 0 11 4.1221 0.0982
-3 1 1 -2.8997 0.6505
-3 1 2 -14.0208 -0.4741
-3 1 3 -2.0538 -1.0790
-3 1 4 8.7303 0.2589
-3 1 5 3.9379 0.5993
-3 1 6 2.6893 -0.4746
-3 1 7 -4.2604 0.0713
-3 1 8 -3.4980 0.3280
-3 1 9 5.4701 -0.3875
-3 1 10 3.2311 0.0684
-3 1 11 -0.2560 0.2109
-3 2 1 -20.5986 -3.7346
-3 2 2 -14.5626 -0.6802
-3 2 3 2.2240 1.8972
-3 2 4 6.5981 -0.2781
-3 2 5 1.4717 -0.6986
-3 2 6 -4.7918 0.3589
-3 2 7 -3.7740 -0.3488
-3 2 8 -0.0791 -0.3398
-3 2 9 2.6437 0.3229
-3 2 10 0.6113 -0.4771
-3 2 11 -2.3409 -0.5353
-3 3 1 4.4004 1.8543
-3 3 2 9.3428 1.2872
-3 3 3 2.4234 -0.2106
-3 3 4 6.3202 -0.2378
-3 3 5 1.9304 0.0853
-3 3 6 -3.8544 0.0960
-3 3 7 -2.4933 -0.1788
-3 3 8 -1.8525 0.0415
-3 3 9 1.7997 0.3333
-3 3 10 5.8105 0.3648
-3 4 1 -2.3689 2.2240
-3 4 2 -0.6124 -1.1962
-3 4 3 6.5580 -1.1481
-3 4 4 1.6581 0.9480
-3 4 5 -0.5463 0.6044
-3 4 6 -4.0219 -0.3608
-3 4 7 -1.8740 0.5940
-3 4 8 2.6873 0.1954
-3 4 9 0.8904 -0.6860
-3 4 10 -3.0992 -0.2512
-3 5 1 -2.9484 -1.4243
-3 5 2 0.2253 0.5033
-3 5 3 1.7797 0.6640
-3 5 4 -1.5589 -0.2100
-3 5 5 -3.6492 -0.1283
-3 5 6 0.4617 0.3136
-3 5 7 2.5023 -0.2112
-3 5 8 3.7001 -0.0836
-3 5 9 -1.6236 0.2229
-3 5 10 1.0515 0.1142
-3 6 1 3.3877 0.0496
-3 6 2 -5.9168 1.2899
-3 6 3 2.5478 0.1130
-3 6 4 7.3253 -0.5482
-3 6 5 2.3388 0.0707
-3 6 6 -2.3167 -0.0343
-3 6 7 -1.3828 0.3279
-3 6 8 -0.3973 0.5494
-3 6 9 3.4352 -0.3332
-3 7 1 -3.5391 -0.1792
-3 7 2 -2.5513 -0.8652
-3 7 3 2.8149 0.3289
-3 7 4 1.4662 0.8234
-3 7 5 -2.7682 0.2243
-3 7 6 -0.8522 0.3139
-3 7 7 -1.1615 0.4706
-3 7 8 1.7309 -0.4360
-3 8 1 1.2667 -0.6849
-3 8 2 -5.0082 -0.6745
-3 8 3 -6.1463 0.2092
-3 8 4 -1.1872 0.1505
-3 8 5 2.1341 0.0685
-3 8 6 1.6006 0.5175
-3 8 7 -1.6800 0.6475
-3 9 1 -1.3939 1.3414
-3 9 2 -3.7332 0.2980
-3 9 3 2.8164 -0.7522
-3 9 4 6.2997 -0.1870
-3 9 5 0.2042 0.0873
-3 9 6 -2.3166 0.2854
-3 10 1 -3.8566 0.3494
-3 10 2 -1.9034 0.4572
-3 10 3 -2.7800 0.2206
-3 10 4 -1.3944 0.2516
-3 10 5 -0.0557 -0.1111
-3 11 1 0.7007 -0.4467
-3 11 2 -0.5311 -0.0759
-3 11 3 0.0012 -0.4713
-2 -12 1 -5.1816 -0.7039
-2 -12 2 1.7803 -0.0802
-2 -12 3 -1.4979 0.0625
-2 -12 4 -2.7329 0.1606
-2 -11 1 3.2271 1.4549
-2 -11 2 2.7118 1.3815
-2 -11 3 1.1672 -0.3655
-2 -11 4 -2.8314 -0.2195
-2 -11 5 -1.3339 0.7120
-2 -10 1 -0.9184 -0.5460
-2 -10 2 -2.5384 -1.3346
-2 -10 3 -2.0494 -0.1302
-2 -10 4 -2.2689 0.0252
-2 -10 5 0.7145 0.1096
-2 -10 6 7.2266 -0.0069
-2 -10 7 6.0269 -0.4176
-2 -9 1 0.0657 -1.7359
-2 -9 2 -2.1273 0.2384
-2 -9 3 0.8351 0.6365
-2 -9 4 2.6565 -0.4225
-2 -9 5 4.4008 -0.9017
-2 -9 6 3.6925 0.2046
-2 -9 7 2.4112 0.1003
-2 -9 8 1.9521 -0.4221
-2 -8 1 -2.7104 1.6351
-2 -8 2 1.0978 0.6807
-2 -8 3 -0.2116 -0.5032
-2 -8 4 0.0264 0.4290
-2 -8 5 -0.8464 0.5401
-2 -8 6 0.8565 -0.2044
-2 -8 7 0.8652 0.2023
-2 -8 8 -3.4346 0.2460
-2 -8 9 -3.9406 -0.2709
-2 -7 1 -1.7840 0.1119
-2 -7 2 2.5013 -1.0743
-2 -7 3 8.7308 0.2631
-2 -7 4 3.7388 0.6101
-2 -7 5 -1.3261 0.2287
-2 -7 6 -2.7716 -0.5095
-2 -7 7 -2.8522 0.0664
-2 -7 8 0.5054 0.1820
-2 -7 9 2.5463 -0.1926
-2 -7 10 3.0619 0.1645
-2 -6 1 -6.5499 -0.6611
-2 -6 2 5.3883 0.4055
-2 -6 3 4.9871 0.1624
-2 -6 4 -1.6402 -0.7166
-2 -6 5 -8.9594 -0.0147
-2 -6 6 -7.9457 0.6246
-2 -6 7 -1.3689 -0.6590
-2 -6 8 2.5713 0.1866
-2 -6 9 1.7787 0.7538
-2 -6 10 -1.5564 -0.0034
-2 -5 1 -5.2032 1.6142
-2 -5 2 -1.4368 0.4173
-2 -5 3 8.4251 -0.7855
-2 -5 4 7.9274 -0.1358
-2 -5 5 0.0478 0.0208
-2 -5 6 -3.9435 0.2073
-2 -5 7 -0.6420 0.0303
-2 -5 8 2.6117 -0.1624
-2 -5 9 2.5354 0.3834
-2 -5 10 -2.4255 0.0062
-2 -5 11 -3.4196 0.1032
-2 -4 1 -4.2464 -1.2956
-2 -4 2 5.1394 -0.7489
-2 -4 3 9.0939 0.2157
-2 -4 4 -0.0814 0.6393
-2 -4 5 -7.3856 -0.5517
-2 -4 6 -8.5466 -0.4295
-2 -4 7 -3.8194 0.7432
-2 -4 8 0.7441 -0.5919
-2 -4 9 -0.9020 -0.5044
-2 -4 10 0.6831 0.7353
-2 -4 11 1.9134 -0.3876
-2 -3 1 12.6514 -2.8416
-2 -3 2 -8.5330 0.1525
-2 -3 3 -10.9561 0.4515
-2 -3 4 -4.4049 -0.6802
-2 -3 5 -0.9737 0.4411
-2 -3 6 -0.8148 -0.0145
-2 -3 7 -1.1015 -0.2220
-2 -3 8 2.4401 0.4546
-2 -3 9 3.4845 -0.3764
-2 -3 10 -0.6712 -0.4196
-2 -3 11 -1.3029 0.0707
-2 -2 1 -8.3601 3.9333
-2 -2 2 -19.6693 1.3346
-2 -2 3 -4.7980 -0.3194
-2 -2 4 7.8141 -0.3548
-2 -2 5 3.3137 0.4880
-2 -2 6 0.5569 -0.0530
-2 -2 7 1.6010 -0.8633
-2 -2 8 4.0667 0.6704
-2 -2 9 0.0801 0.2368
-2 -2 10 -4.4380 -0.5581
-2 -2 11 0.6000 0.8448
-2 -2 12 6.8814 0.4926
-2 -1 2 24.3798 -1.1083
-2 -1 3 -4.0908 -0.3292
-2 -1 4 -4.2283 0.8120
-2 -1 5 1.9746 -0.3302
-2 -1 6 2.1442 0.5020
-2 -1 7 0.1093 0.6449
-2 -1 8 -2.0961 -0.4990
-2 -1 9 -0.0659 0.1795
-2 -1 10 -1.9067 -0.1246
-2 -1 11 -0.6822 -0.4656
-2 -1 12 0.9861 0.2589
-2 0 1 46.1303 -3.8242
-2 0 2 7.2814 0.8985
-2 0 3 -20.9283 0.6432
-2 0 4 -4.3456 -0.0659
-2 0 5 7.2906 -0.2961
-2 0 6 3.9367 0.0916
-2 0 7 2.3260 0.4067
-2 0 8 3.8544 -0.5135
-2 0 9 3.5476 0.3270
-2 0 10 -1.0352 0.7038
-2 0 11 -2.6676 -0.5968
-2 1 1 5.8700 0.5530
-2 1 2 10.5707 1.1313
-2 1 3 -5.5320 -0.2080
-2 1 4 -12.4749 -0.8823
-2 1 5 -2.7842 0.6951
-2 1 6 1.5110 -0.5278
-2 1 7 6.7834 -0.2544
-2 1 8 2.1061 0.7931
-2 1 9 -6.2050 -0.2508
-2 1 10 -2.4944 0.0837
-2 1 11 0.0276 -0.0995
-2 2 1 33.6952 0.0416
-2 2 2 19.7842 -3.0879
-2 2 3 -8.8038 0.2423
-2 2 4 -12.9027 0.6239
-2 2 5 0.1432 -0.4201
-2 2 6 12.6106 0.1920
-2 2 7 7.5847 -0.2259
-2 2 8 -1.5198 -0.3530
-2 2 9 -3.7664 -0.1352
-2 2 10 -0.3422 0.2953
-2 2 11 2.5361 0.1725
-2 3 1 -12.2687 0.7734
-2 3 2 -18.5249 -0.2182
-2 3 3 -10.7838 0.0402
-2 3 4 -5.9574 -0.2278
-2 3 5 3.6188 -1.0088
-2 3 6 4.8844 0.1721
-2 3 7 2.7245 0.0827
-2 3 8 0.3706 -0.3699
-2 3 9 -3.4432 0.2536
-2 3 10 -2.5337 -0.0342
-2 3 11 3.0509 0.0047
-2 4 1 -5.3982 2.0786
-2 4 2 1.8785 1.6866
-2 4 3 1.3198 -1.4655
-2 4 4 0.6434 -0.0754
-2 4 5 -2.7944 0.5609
-2 4 6 3.0009 -0.1724
-2 4 7 3.4766 0.1499
-2 4 8 1.1314 0.0674
-2 4 9 1.3885 -0.3442
-2 4 10 1.6735 -0.0125
-2 4 11 -2.5125 0.3209
-2 5 1 6.9480 -1.9894
-2 5 2 0.7197 0.0893
-2 5 3 -1.6274 0.7464
-2 5 4 1.3623 0.4637
-2 5 5 6.7834 0.4672
-2 5 6 4.9071 -0.2056
-2 5 7 1.3663 -0.0819
-2 5 8 -1.0414 -0.1351
-2 5 9 1.8575 -0.0704
-2 5 10 -6.2388 0.1020
-2 6 1 -0.8771 -2.6486
-2 6 2 3.3516 -0.2818
-2 6 3 -1.2311 1.1085
-2 6 4 -0.6991 -0.7514
-2 6 5 -0.6829 -0.5377
-2 6 6 -1.3131 0.2812
-2 6 7 -1.9376 -0.2714
-2 6 8 -0.6710 0.1590
-2 6 9 -4.1349 0.6914
-2 6 10 0.7558 -0.0509
-2 7 1 9.2501 1.8209
-2 7 2 4.0984 -0.8595
-2 7 3 -2.9981 -0.9156
-2 7 4 -2.2850 -0.1921
-2 7 5 1.3194 -0.0282
-2 7 6 1.4311 0.0792
-2 7 7 3.0621 0.1336
-2 7 8 -2.1556 0.3927
-2 7 9 0.8982 0.1187
-2 8 1 2.5617 1.4726
-2 8 2 3.5332 -0.5109
-2 8 3 0.6971 -0.1586
-2 8 4 1.8253 0.5439
-2 8 5 2.2099 -0.3720
-2 8 6 -0.4923 -0.5619
-2 8 7 -0.3022 -0.4158
-2 8 8 4.5292 -0.1402
-2 9 1 2.5743 -0.8019
-2 9 2 1.9263 1.0094
-2 9 3 -4.8795 0.1683
-2 9 4 -6.4263 -0.2006
-2 9 5 -2.2645 -0.4457
-2 9 6 -4.0547 -0.3269
-2 9 7 -2.2708 0.3494
-2 10 1 3.7303 -0.3652
-2 10 2 3.6247 0.3886
-2 10 3 1.6515 -0.2176
-2 10 4 -2.6353 -0.1012
-2 10 5 -0.9973 0.5069
-2 10 6 1.1336 -0.0139
-2 11 1 0.9994 -0.5441
-2 11 2 -1.0434 -0.1595
-2 11 3 -2.8374 1.0087
-2 11 4 -4.2262 0.8886
-2 12 1 2.8638 0.0893
-1 -12 1 -0.0822 -0.4119
-1 -12 2 -4.2198 -0.9636
-1 -12 3 0.3532 -0.0973
-1 -12 4 0.9623 0.3802
-1 -11 1 -6.2735 -0.1935
-1 -11 2 -1.6455 0.8062
-1 -11 3 0.9728 -0.1586
-1 -11 4 2.2742 0.0493
-1 -11 5 0.2179 0.3958
-1 -11 6 -0.6488 -0.2312
-1 -10 1 4.6714 1.0497
-1 -10 2 4.4538 0.4235
-1 -10 3 4.2612 -0.3831
-1 -10 4 0.7836 -0.2248
-1 -10 5 -5.7424 0.4088
-1 -10 6 -8.0885 0.4882
-1 -10 7 -2.3945 0.0577
-1 -9 1 1.5456 -1.9326
-1 -9 2 1.4161 -1.3322
-1 -9 3 -2.2176 0.6401
-1 -9 4 -4.2179 0.0375
-1 -9 5 -4.6075 -0.5606
-1 -9 6 0.1189 0.0695
-1 -9 7 2.5792 0.1941
-1 -9 8 2.1245 -0.2547
-1 -8 1 -0.8189 0.0669
-1 -8 2 0.4598 0.5817
-1 -8 3 3.3681 -0.0202
-1 -8 4 2.7401 -0.6550
-1 -8 5 2.6086 -0.4168
-1 -8 6 -0.4670 -0.0362
-1 -8 7 1.4704 0.2081
-1 -8 8 5.5175 0.1195
-1 -8 9 3.8579 -0.1460
-1 -7 1 -1.3813 2.4880
-1 -7 2 0.4778 0.0290
-1 -7 3 -3.5101 -0.6770
-1 -7 4 -0.7299 0.8818
-1 -7 5 0.7305 0.5273
-1 -7 6 1.8917 -0.5741
-1 -7 7 1.7458 -0.3871
-1 -7 8 1.0429 0.2072
-1 -7 9 -0.1254 -0.6705
-1 -7 10 -3.1858 -0.4960
-1 -6 1 -0.1735 -0.8129
-1 -6 2 -9.2987 -0.0253
-1 -6 3 -0.2319 0.7073
-1 -6 4 7.8808 -0.0405
-1 -6 5 10.0983 -0.4117
-1 -6 6 3.8444 -0.0353
-1 -6 7 -2.7334 -0.0946
-1 -6 8 -3.4045 -0.0129
-1 -6 9 -0.5314 0.5054
-1 -6 10 0.6353 -0.3149
-1 -6 11 -1.3807 -0.4560
-1 -5 1 -3.4529 -3.0142
-1 -5 2 -2.0627 0.8113
-1 -5 3 -1.9125 -0.0282
-1 -5 4 0.5933 -0.5902
-1 -5 5 0.3388 0.4987
-1 -5 6 -1.1405 0.9536
-1 -5 7 -2.7771 -0.0116
-1 -5 8 -4.7474 -0.2137
-1 -5 9 -1.4310 0.7053
-1 -5 10 2.9053 -0.0350
-1 -5 11 1.0004 -0.6937
-1 -4 1 3.9321 1.6497
-1 -4 2 -6.1942 -0.3515
-1 -4 3 -6.4635 -0.3008
-1 -4 4 3.7899 0.5202
-1 -4 5 10.3879 0.2219
-1 -4 6 6.9416 -0.7427
-1 -4 7 -0.8524 0.2767
-1 -4 8 -1.8079 0.1803
-1 -4 9 -0.8918 -0.4207
-1 -4 10 0.2434 0.7339
-1 -4 11 -0.4707 0.3275
-1 -3 1 -3.6872 1.3640
-1 -3 2 3.4375 -2.0599
-1 -3 3 4.6319 -0.1975
-1 -3 4 5.2746 -0.1111
-1 -3 5 1.6751 -0.8129
-1 -3 6 -3.5004 -0.3679
-1 -3 7 -4.2696 0.1635
-1 -3 8 -4.1885 0.1154
-1 -3 9 -0.2937 -0.4696
-1 -3 10 1.7755 0.3845
-1 -3 11 2.2779 0.7448
-1 -3 12 1.4216 0.0514
-1 -2 1 8.3098 -1.8951
-1 -2 2 18.8145 -0.0423
-1 -2 3 -0.6377 -0.2328
-1 -2 4 -12.2360 -0.5584
-1 -2 5 -7.9733 0.0150
-1 -2 6 -0.7399 0.5023
-1 -2 7 -1.1285 -0.6314
-1 -2 8 -2.1573 0.1368
-1 -2 9 2.7423 0.5030
-1 -2 10 4.4246 -0.9090
-1 -2 11 -2.2074 0.2088
-1 -2 12 -4.0333 0.4954
-1 -1 1 -33.2495 3.6679
-1 -1 2 -8.4366 2.2374
-1 -1 3 1.1811 -0.0411
-1 -1 4 -4.8885 0.4427
-1 -1 5 -2.8538 -0.0803
-1 -1 6 -0.5549 -0.1421
-1 -1 7 1.7379 0.0170
-1 -1 8 -0.7804 -0.3722
-1 -1 9 0.3532 0.4126
-1 -1 10 5.4827 0.1215
-1 -1 11 1.4866 -0.5863
-1 -1 12 -2.1890 0.1119
-1 0 1 -46.1333 -0.1033
-1 0 2 10.4299 -0.7951
-1 0 3 30.3100 0.6091
-1 0 4 4.7708 0.8598
-1 0 5 -8.5938 0.3821
-1 0 6 -5.5327 -0.3088
-1 0 7 -1.5368 0.3527
-1 0 8 -1.1911 -0.3728
-1 0 9 -2.9054 -0.3285
-1 0 10 2.7541 0.6696
-1 0 11 0.0532 -0.4866
-1 0 12 -8.6705 -0.0843
-1 1 1 -4.0386 -2.2131
-1 1 4 10.1042 -1.0382
-1 1 5 -6.6783 0.1139
-1 1 6 -2.4802 0.4788
-1 1 7 -3.5154 -0.3704
-1 1 8 0.6412 0.5020
-1 1 9 4.4640 -0.0807
-1 1 10 0.4293 -0.1582
-1 1 11 0.7215 0.8251
-1 1 12 -0.5847 -0.2530
-1 2 1 -32.3549 2.9608
-1 2 2 -12.0313 -0.1494
-1 2 3 13.9667 -1.2093
-1 2 4 9.9777 -0.0873
-1 2 5 -10.1053 0.2586
-1 2 6 -17.0581 0.3186
-1 2 7 -4.9742 0.0036
-1 2 8 4.2408 0.2408
-1 2 9 4.7996 0.0262
-1 2 10 -1.1272 -0.2843
-1 2 11 -2.7853 0.8003
-1 2 12 -1.3386 0.1267
-1 3 1 13.1414 -3.6898
-1 3 2 18.9081 -0.6651
-1 3 3 13.0826 0.8405
-1 3 4 3.6821 1.0065
-1 3 5 -10.9472 -0.9047
-1 3 6 -6.5055 -0.4791
-1 3 7 3.2545 0.3900
-1 3 8 4.6842 -0.5165
-1 3 9 2.1185 -0.0247
-1 3 10 0.3565 0.0475
-1 3 11 -0.2175 -0.1007
-1 3 12 4.6259 0.8603
-1 4 1 4.9492 -1.3758
-1 4 2 -3.7678 2.1832
-1 4 3 -9.5285 0.0255
-1 4 4 -5.5069 -1.0992
-1 4 5 4.7442 0.2180
-1 4 6 -1.8880 -0.4372
-1 4 7 -3.3073 -0.1029
-1 4 8 -0.6062 0.3989
-1 4 9 1.6999 -0.1379
-1 4 10 2.6611 -0.3075
-1 4 11 5.1633 0.0567
-1 5 1 -11.1779 1.8681
-1 5 2 -3.8732 -0.8670
-1 5 3 1.9659 -0.3197
-1 5 4 -0.2698 0.2683
-1 5 5 -7.4613 0.9508
-1 5 6 -7.3640 0.0006
-1 5 7 -2.5302 -0.5716
-1 5 8 3.4177 0.2522
-1 5 9 0.6853 -0.2033
-1 5 10 7.0851 -0.2546
-1 5 11 5.0389 0.1667
-1 6 1 1.2587 1.2466
-1 6 2 1.2932 -1.0707
-1 6 3 2.5381 0.5593
-1 6 4 -2.5308 0.4204
-1 6 5 -0.8289 -0.5267
-1 6 6 4.8219 0.4779
-1 6 7 5.9364 0.1740
-1 6 8 0.1512 -0.4184
-1 6 9 1.9966 0.0090
-1 6 10 0.3478 0.0488
-1 7 1 -8.3342 -0.5841
-1 7 2 -2.6605 0.0488
-1 7 3 2.3316 -0.6778
-1 7 4 2.5820 -0.3349
-1 7 5 0.0367 -0.1862
-1 7 6 -1.5069 0.0997
-1 7 7 -3.4994 0.1600
-1 7 8 2.3193 -0.3401
-1 7 9 -1.8428 0.0090
-1 7 10 1.3593 0.2014
-1 8 1 -4.4002 -0.4534
-1 8 2 1.4667 0.9255
-1 8 3 3.9002 0.1286
-1 8 4 -2.4531 0.2258
-1 8 5 -4.4672 0.1117
-1 8 6 -0.3083 -0.3028
-1 8 7 1.2861 0.0649
-1 8 8 -2.9859 0.1525
-1 8 9 2.3144 -0.5016
-1 9 1 -1.7947 0.6655
-1 9 2 2.2216 0.4161
-1 9 3 7.4025 0.2755
-1 9 4 5.5008 0.0548
-1 9 5 1.5609 0.0660
-1 9 6 4.8167 -0.2724
-1 9 7 1.5785 -0.3878
-1 9 8 -0.5095 -1.1188
-1 10 1 -5.9025 -1.3155
-1 10 2 -4.3284 -0.7526
-1 10 3 2.7293 0.0450
-1 10 4 3.2802 0.1351
-1 10 5 -2.8659 0.2600
-1 10 6 -5.2299 0.0260
-1 10 7 -1.3131 -0.6403
-1 11 1 -0.3059 0.8895
-1 11 2 3.2300 0.3131
-1 11 3 4.6326 -0.0664
-1 11 4 4.5103 -0.3013
-1 12 1 -2.2458 0.7373
-1 12 2 -1.0448 0.0281
-1 12 3 -0.8526 0.4881
0 -12 1 1.3750 2.3640
0 -12 2 1.8818 -0.5615
0 -12 3 -3.6593 -0.9366
0 -12 4 -1.0574 0.5536
0 -11 1 2.6817 -1.5849
0 -11 2 -0.2051 -0.3880
0 -11 3 -0.7256 0.0065
0 -11 4 -2.2102 -0.0525
0 -11 5 0.2905 0.2836
0 -11 6 -0.3863 -0.5003
0 -10 1 -2.9247 0.4626
0 -10 2 -3.5685 1.7872
0 -10 3 -4.3834 0.1694
0 -10 4 -1.2936 -1.0515
0 -10 5 3.3268 0.2686
0 -10 6 3.5846 0.5365
0 -10 7 -0.5398 -0.2049
0 -10 8 -0.2419 0.5006
0 -9 1 -0.7978 1.9429
0 -9 2 -1.7601 -0.6184
0 -9 3 2.7608 -0.0256
0 -9 4 5.5538 0.6494
0 -9 5 2.3110 0.0793
0 -9 6 -2.1377 0.3709
0 -9 7 -1.2226 0.0468
0 -9 8 -2.0860 -0.5283
0 -9 9 -1.6156 -0.0645
0 -8 1 3.0487 -2.1880
0 -8 2 0.5379 -1.0326
0 -8 3 -3.0805 0.4184
0 -8 4 -1.9944 0.2276
0 -8 5 -0.8848 -0.9513
0 -8 6 -0.0624 -0.3805
0 -8 7 -2.5145 0.4989
0 -8 8 -2.7234 -0.1197
0 -8 9 -0.7344 0.0241
0 -8 10 1.3017 0.7162
0 -7 1 3.0007 -1.4411
0 -7 2 -3.3777 0.3916
0 -7 3 -0.6757 -0.7879
0 -7 4 0.4741 -0.6053
0 -7 5 3.0734 0.6790
0 -7 6 0.8903 -0.0898
0 -7 7 0.3453 -0.0214
0 -7 8 0.7812 0.4135
0 -7 9 0.7305 -0.2160
0 -7 10 1.7314 -0.0380
0 -6 1 2.7320 1.6808
0 -6 2 7.1450 0.6837
0 -6 3 -4.6575 0.4236
0 -6 4 -7.8053 0.6707
0 -6 5 -4.5882 0.2698
0 -6 6 3.1635 -0.3059
0 -6 7 2.7938 -0.6909
0 -6 8 -1.9957 -0.1334
0 -6 9 -1.5692 -0.1659
0 -6 10 1.5174 -0.1202
0 -6 11 4.4191 0.2516
0 -5 1 9.3970 3.2834
0 -5 2 -1.9624 -0.3437
0 -5 3 -5.8188 0.1689
0 -5 4 -4.0595 -0.3913
0 -5 5 2.9469 -0.5794
0 -5 6 4.6673 0.4490
0 -5 7 3.2778 0.1257
0 -5 8 2.4822 -0.6595
0 -5 9 0.2621 0.1625
0 -5 10 1.1195 0.1392
0 -5 11 -0.1116 -0.5149
0 -5 12 -2.8429 -0.2676
0 -4 1 -6.5976 -2.7517
0 -4 2 4.9684 -0.0173
0 -4 3 4.8383 -0.1123
0 -4 4 -4.0724 -0.0146
0 -4 5 -7.2961 0.1782
0 -4 6 -1.0733 0.4718
0 -4 7 6.3580 0.4487
0 -4 8 2.4463 -0.2984
0 -4 9 -2.4983 -0.3210
0 -4 10 -5.1021 0.1254
0 -4 11 -0.9890 0.0106
0 -4 12 1.3781 0.1872
0 -3 1 9.3802 0.5392
0 -3 2 10.5952 1.3203
0 -3 3 -1.0302 -0.0763
0 -3 4 -8.1277 -0.1139
0 -3 5 0.4322 -0.0054
0 -3 6 9.5141 -0.5942
0 -3 7 5.7519 0.2243
0 -3 8 2.0433 0.7504
0 -3 9 -5.4558 -0.4070
0 -3 10 -4.3355 0.0524
0 -3 11 0.4277 0.3690
0 -3 12 2.2791 -0.9527
0 -2 1 -9.0777 -2.0504
0 -2 2 -21.7168 -1.6655
0 -2 3 0.7810 0.6794
0 -2 4 12.1958 0.2262
0 -2 5 5.6938 -0.3035
0 -2 6 -2.2789 -0.0411
0 -2 7 -0.4045 -0.3255
0 -2 8 -1.0999 0.1374
0 -2 9 -1.2846 0.4789
0 -2 10 -2.9339 -0.4660
0 -2 11 1.2584 -0.3642
0 -2 12 2.3428 0.5352
0 -1 2 -7.5956 0.4447
0 -1 3 8.5303 -0.0745
0 -1 4 8.4072 -0.1344
0 -1 5 -5.7964 0.2068
0 -1 6 -5.5198 -0.0854
0 -1 7 -0.0940 -0.5075
0 -1 8 4.7013 -0.2276
0 -1 9 -1.7953 0.3584
0 -1 10 -5.9027 -0.2728
0 -1 11 -1.5926 -0.0240
0 -1 12 4.9294 0.7655
0 0 2 -25.4660 0.8790
0 0 3 -29.5693 -1.1756
0 0 4 -3.3775 0.1358
0 0 5 7.7954 0.2668
0 0 6 1.9839 -0.3856
0 0 7 -1.0908 0.3668
0 0 8 0.2604 -0.1577
0 0 9 0.8766 -0.6678
0 0 10 -2.8345 0.6169
0 0 11 4.8759 0.0920
0 0 12 9.7275 -1.0196
0 1 2 -51.8208 0.8707
0 1 3 -38.8348 1.7259
0 1 4 8.6822 0.1948
0 1 5 17.3632 0.1001
0 1 6 -0.4370 0.4189
0 1 7 -4.2012 0.2073
0 1 8 -1.1185 -0.2262
0 1 9 0.1081 -0.3058
0 1 10 -0.3504 0.0747
0 1 11 -1.4261 0.0176
0 1 12 1.0233 0.2813
0 2 0 10.4522 -1.5485
0 2 1 17.9905 -0.7703
0 2 2 -1.1637 0.6616
0 2 3 -6.9802 0.6207
0 2 4 12.5552 -0.3987
0 2 5 24.0128 0.0006
0 2 6 13.2106 0.7030
0 2 7 -2.5220 -0.1188
0 2 8 -5.6571 0.1449
0 2 9 -1.1127 0.2565
0 2 10 1.8078 -0.6320
0 2 11 -0.0890 -0.2378
0 2 12 0.8712 0.1838
0 3 0 7.7777 4.7973
0 3 1 2.2843 2.7991
0 3 2 -10.5821 -2.2305
0 3 3 -16.4056 -0.8980
0 3 4 3.3669 1.5509
0 3 5 20.2465 0.1657
0 3 6 1.8698 -0.5927
0 3 7 -11.8879 0.3974
0 3 8 -7.6245 0.0821
0 3 9 0.2855 -0.0492
0 3 10 1.4553 0.1944
0 3 11 -2.5787 -0.4875
0 3 12 -7.1441 -0.1689
0 4 0 -6.9885 2.1413
0 4 1 -7.0625 -1.3535
0 4 2 -0.2407 -1.9621
0 4 3 9.0812 -0.8344
0 4 4 6.1650 -0.0995
0 4 5 1.4352 -0.1136
0 4 6 2.6754 -0.1752
0 4 7 -3.8923 0.1228
0 4 8 -2.9646 0.1578
0 4 9 -1.5494 0.0474
0 4 10 -1.2886 0.1492
0 4 11 -4.8462 -0.3376
0 4 12 0.1632 -0.2570
0 5 0 7.0908 -5.6113
0 5 1 6.3855 -1.4508
0 5 2 3.9954 0.3830
0 5 3 1.1360 -1.1455
0 5 4 0.1043 -1.5866
0 5 5 6.1820 0.1042
0 5 6 7.8917 0.5505
0 5 7 -0.6645 -0.2447
0 5 8 -5.8358 0.3063
0 5 9 1.8974 0.3554
0 5 10 -2.8653 -0.4556
0 5 11 -0.4455 -0.2783
0 6 0 0.4866 -0.7266
0 6 1 -1.3084 0.7624
0 6 2 -5.5618 2.2706
0 6 3 -4.2580 1.1386
0 6 4 1.9485 -0.1522
0 6 5 -0.7489 -0.3897
0 6 6 -3.9826 0.0564
0 6 7 -4.2445 -0.0425
0 6 8 -0.1794 -0.4255
0 6 9 0.2601 0.1489
0 6 10 3.1359 0.2294
0 6 11 -5.6205 0.0069
0 7 0 4.1333 1.9121
0 7 1 2.8308 1.4920
0 7 2 -0.2372 0.5329
0 7 3 -2.1951 0.9172
0 7 4 0.5263 0.3657
0 7 5 1.2664 -0.4034
0 7 6 0.5676 -0.2717
0 7 7 2.0817 0.0759
0 7 8 -1.5939 0.0773
0 7 9 3.4781 0.1915
0 7 10 -2.3937 0.4556
0 8 0 5.4689 2.3209
0 8 1 3.7940 -1.2453
0 8 2 -1.6236 -1.5824
0 8 3 -3.4676 -0.5572
0 8 4 1.4710 0.4057
0 8 5 2.0739 0.3773
0 8 6 -1.0280 -0.1347
0 8 7 -0.4691 0.0737
0 8 8 2.3379 0.0038
0 8 9 -3.2788 -0.3536
0 8 10 5.2411 -0.4796
0 9 0 0.9850 -3.6760
0 9 1 -0.9366 -0.5353
0 9 2 -6.9502 -0.8123
0 9 3 -10.4565 -0.5194
0 9 4 -3.5477 0.0664
0 9 5 3.0244 0.2812
0 9 6 -3.2490 0.3679
0 9 7 -3.8816 -0.1435
0 9 8 -2.9732 0.2524
0 9 9 1.4527 0.1477
0 10 0 0.7216 2.1605
0 10 1 4.2192 1.0985
0 10 2 1.5086 0.9390
0 10 3 -2.5458 -0.3844
0 10 4 1.3461 -0.3607
0 10 5 4.7694 0.0127
0 10 6 2.3055 -0.0414
0 10 7 -0.1964 0.5335
0 10 8 6.0459 0.1769
0 11 0 5.2375 -0.8740
0 11 1 1.2728 -1.1434
0 11 2 -3.9648 -0.4844
0 11 3 -6.6681 0.0684
0 11 4 -7.7424 -0.3570
0 11 5 1.3028 0.3020
0 11 6 6.7108 0.8145
0 12 0 -1.6532 -0.5385
0 12 1 -0.9784 0.2276
0 12 2 -2.9406 -0.0274
0 12 3 -3.1538 -0.0142
0 12 4 1.5251 0.4064
1 -12 0 -0.9956 -0.9228
1 -12 1 -0.4250 -0.5315
1 -12 2 0.3977 0.4096
1 -12 3 2.8808 -0.3502
1 -12 4 0.3680 0.0957
1 -11 0 -3.7368 -0.7579
1 -11 1 -1.1649 1.7433
1 -11 2 1.7292 -0.0254
1 -11 3 -0.4890 -0.7331
1 -11 4 0.2727 0.4673
1 -11 5 -0.0121 0.1693
1 -11 6 1.1490 -0.5540
1 -10 0 -3.0521 0.7508
1 -10 1 -1.7682 -1.5517
1 -10 2 0.1456 0.4412
1 -10 3 4.0972 0.7060
1 -10 4 0.5137 -0.6272
1 -10 5 -2.6323 -0.0748
1 -10 6 -0.4205 0.1048
1 -10 7 0.5139 -0.4585
1 -10 8 -2.6830 -0.1655
1 -9 0 -0.6034 -2.9110
1 -9 1 0.2919 -0.7954
1 -9 2 0.1391 0.6843
1 -9 3 -2.1764 0.3662
1 -9 4 -2.0409 -0.2358
1 -9 5 -0.2029 -0.0834
1 -9 6 -0.4716 0.6314
1 -9 7 -2.3950 0.3838
1 -9 8 -1.4772 -0.3012
1 -9 9 -0.5455 -0.1584
1 -8 0 -5.5498 3.9807
1 -8 1 -2.4655 1.5936
1 -8 2 -1.1684 -0.0675
1 -8 3 1.4902 0.4816
1 -8 4 1.7968 1.0094
1 -8 5 0.0536 0.0314
1 -8 6 -2.2220 -0.4521
1 -8 7 0.2318 0.2623
1 -8 8 2.6561 -0.0949
1 -8 9 2.8000 -0.3291
1 -8 10 0.1965 0.3320
1 -7 0 -6.9875 1.4056
1 -7 1 0.1342 0.3658
1 -7 2 5.5389 -1.8617
1 -7 3 -0.3307 -0.5558
1 -7 4 -3.0477 -0.1027
1 -7 5 -2.2315 -0.0249
1 -7 6 1.7573 0.0237
1 -7 7 0.0236 -0.0354
1 -7 8 0.8108 0.6808
1 -7 9 0.6367 0.1087
1 -7 10 -1.9505 -0.6733
1 -7 11 1.2631 -0.2956
1 -6 0 1.7916 -2.2374
1 -6 1 0.3131 -1.1564
1 -6 2 -1.0974 -0.8034
1 -6 3 4.2447 -1.1683
1 -6 4 1.5043 0.0342
1 -6 5 1.0603 0.7444
1 -6 6 -1.4802 0.2032
1 -6 7 0.0129 -0.3957
1 -6 8 1.5530 0.0370
1 -6 9 1.0798 0.1845
1 -6 10 -1.1945 -0.5008
1 -6 11 -3.3647 0.2228
1 -5 0 -10.6238 -5.4389
1 -5 1 -5.2016 -0.4111
1 -5 2 7.5461 2.6576
1 -5 3 6.0475 0.3065
1 -5 4 0.8480 -0.3414
1 -5 5 -6.4496 -0.6969
1 -5 6 -4.1939 -0.1679
1 -5 7 0.3915 0.0131
1 -5 8 -0.2883 -0.5134
1 -5 9 -0.4415 0.3113
1 -5 10 -1.7088 0.3031
1 -5 11 0.7577 -0.2936
1 -5 12 2.9734 0.4268
1 -4 0 14.5425 3.8292
1 -4 1 11.8014 1.3894
1 -4 2 -2.4570 1.1916
1 -4 3 -0.5676 1.0936
1 -4 4 0.6567 -0.6843
1 -4 5 -0.5558 0.1136
1 -4 6 -2.9180 0.2029
1 -4 7 -3.5698 0.2981
1 -4 8 1.2723 0.0046
1 -4 9 1.1762 -0.2137
1 -4 10 4.2357 0.2722
1 -4 11 0.6174 -0.3719
1 -4 12 -0.5814 -0.1380
1 -3 0 -3.5133 3.1906
1 -3 1 -13.4928 -1.9353
1 -3 2 -10.5361 -0.8193
1 -3 3 3.0407 1.2352
1 -3 4 5.9524 0.9440
1 -3 5 -3.9167 0.4746
1 -3 6 -8.9520 0.0651
1 -3 7 -2.7331 -0.0463
1 -3 8 2.5362 0.3230
1 -3 9 8.6491 -0.4814
1 -3 10 1.1675 -0.2046
1 -3 11 -1.4952 0.7043
1 -3 12 -2.5646 0.0265
1 -2 0 -14.7442 0.6653
1 -2 1 14.1769 4.2108
1 -2 2 20.7165 -1.6841
1 -2 3 -2.4655 -1.7094
1 -2 4 -4.7024 0.4961
1 -2 5 0.8597 -0.2675
1 -2 6 4.4308 -0.1365
1 -2 7 2.8089 -0.0932
1 -2 8 4.8301 0.1222
1 -2 9 1.4237 0.0540
1 -2 10 1.1892 -0.0907
1 -2 11 -3.6290 0.5546
1 -2 12 -1.9372 -0.4244
1 -2 13 -0.2137 -1.4084
1 -1 1 33.0746 -0.6456
1 -1 2 8.1902 -2.2825
1 -1 3 -8.9293 -1.4339
1 -1 4 -1.9114 -0.2300
1 -1 5 11.1895 -0.1837
1 -1 6 4.3084 0.2486
1 -1 7 -2.7894 0.2888
1 -1 8 -7.3683 -0.4319
1 -1 9 2.8854 0.5037
1 -1 10 4.5586 0.0655
1 -1 11 -1.5995 -0.6008
1 -1 12 -5.9536 0.4261
1 -1 13 -3.7209 0.1277
1 0 2 33.2559 1.9925
1 0 3 15.6611 0.1189
1 0 4 -8.4298 -1.1300
1 0 5 -8.5134 0.5213
1 0 6 -1.6819 0.0908
1 0 7 -1.9576 -0.1528
1 0 8 0.6586 0.1377
1 0 9 -0.2995 0.0547
1 0 10 2.1579 0.0044
1 0 11 -5.1613 -0.2103
1 0 12 -7.3548 0.7443
1 0 13 0.8860 0.7933
1 1 0 -24.7400 0.7187
1 1 1 49.4857 1.0357
1 1 2 67.4136 -0.6497
1 1 3 19.9475 1.0497
1 1 5 -19.6877 -0.5392
1 1 6 5.1784 -0.2189
1 1 7 6.9615 -0.2654
1 1 8 -2.0563 0.3287
1 1 9 -3.1920 -0.2360
1 1 10 0.2252 -0.0350
1 1 11 2.5798 0.1171
1 1 12 -0.2423 -0.7446
1 1 13 0.1779 -0.0360
1 2 0 -0.1342 3.5845
1 2 1 2.3798 -0.1260
1 2 2 12.0359 -0.9891
1 2 3 -8.5564 1.5391
1 2 4 -35.4959 0.6207
1 2 5 -30.5563 -1.1528
1 2 6 -2.8863 0.2429
1 2 7 7.4455 0.0314
1 2 8 0.2166 -0.3521
1 2 9 -2.8514 0.3380
1 2 10 -0.5464 -0.0791
1 2 11 1.4854 0.0231
1 2 12 0.4581 0.0719
1 2 13 2.2499 0.0152
1 3 0 -20.6964 -4.2233
1 3 1 -9.2896 1.8314
1 3 2 15.8809 1.3137
1 3 3 10.3417 -1.8903
1 3 4 -18.5960 0.2784
1 3 5 -19.5359 0.7658
1 3 6 9.5269 0.0272
1 3 7 19.5503 0.4786
1 3 8 7.4286 0.1006
1 3 9 -3.9347 -0.1852
1 3 10 -2.6114 0.0196
1 3 11 2.4358 0.4273
1 3 12 5.7263 -0.0540
1 3 13 -0.6414 -0.9691
1 4 0 5.8867 -1.4027
1 4 1 8.8421 1.7869
1 4 2 5.1261 2.4372
1 4 3 -3.4201 -0.3910
1 4 4 -8.2527 0.0220
1 4 5 -5.2239 0.8642
1 4 6 5.7325 -0.6567
1 4 7 13.1619 -0.3060
1 4 8 1.9713 0.3304
1 4 9 -5.4770 0.0430
1 4 10 -3.9945 0.3770
1 4 11 3.4983 0.2650
1 4 12 -1.2444 -0.4048
1 5 0 2.3988 2.7475
1 5 1 -4.5947 -0.8299
1 5 2 -5.1074 1.3555
1 5 3 -0.4932 1.2397
1 5 4 -2.2241 -1.0010
1 5 5 -7.8144 0.1855
1 5 6 -3.0746 0.3142
1 5 7 5.3743 -0.5812
1 5 8 2.9267 0.1924
1 5 9 -5.2081 0.4168
1 5 10 -0.5606 -0.2157
1 5 11 -3.8950 -0.0463
1 5 12 1.5361 0.2239
1 6 0 1.5217 -0.3304
1 6 1 2.8357 -2.9284
1 6 2 1.7488 -3.3581
1 6 3 1.3422 0.5417
1 6 4 2.9103 0.7294
1 6 5 2.1030 -0.4768
1 6 6 1.7821 0.3061
1 6 7 6.6852 -0.0029
1 6 8 3.4755 -0.4462
1 6 9 -3.4216 0.1004
1 6 10 -6.9410 0.4147
1 6 11 5.4587 0.0842
1 7 0 1.5894 -0.5193
1 7 1 0.2897 0.3455
1 7 2 0.8028 -0.3105
1 7 3 2.4550 0.0109
1 7 4 1.0052 0.7942
1 7 5 0.1888 -0.4076
1 7 6 -1.5535 -0.2570
1 7 7 -0.4510 0.6303
1 7 8 0.6737 -0.2967
1 7 9 -5.3879 -0.5036
1 7 10 5.6051 0.2400
1 7 11 1.6475 0.1470
1 8 0 -2.7913 0.6519
1 8 1 -0.6718 2.3476
1 8 2 2.0540 0.2837
1 8 3 0.4136 -0.8675
1 8 4 -1.7735 -0.2651
1 8 5 1.2096 0.4815
1 8 6 1.2543 0.2868
1 8 7 -3.2967 0.1384
1 8 8 -0.7106 0.3384
1 8 9 6.1302 -0.2506
1 8 10 -6.1486 0.0264
1 9 0 0.7387 0.1237
1 9 1 1.9262 -0.6462
1 9 2 5.0328 1.4509
1 9 3 6.0763 0.1500
1 9 4 -0.6740 -0.0508
1 9 5 -3.9512 0.2207
1 9 6 3.3922 -0.0938
1 9 7 4.2831 0.1514
1 9 8 2.8695 0.2720
1 9 9 -3.6596 0.3545
1 10 0 -0.8380 -1.5529
1 10 1 -5.5689 -0.0225
1 10 2 -1.7944 -0.1549
1 10 3 0.1365 0.1536
1 10 4 -5.0667 -0.4234
1 10 5 -3.7921 -0.2906
1 10 6 1.4874 0.0754
1 10 7 -0.3252 0.0811
1 10 8 -9.2878 0.2033
1 11 0 -6.2626 1.8427
1 11 1 -0.6378 -0.7600
1 11 2 2.9962 -0.2893
1 11 3 4.7799 0.1776
1 11 4 4.2992 0.0671
1 11 5 -5.6403 -0.0612
1 11 6 -7.4086 -0.3384
1 11 7 -2.0981 -0.0879
1 12 0 4.6090 -1.0056
1 12 1 3.6910 -0.0494
1 12 2 2.8252 -0.2949
1 12 3 -0.0746 0.2628
1 12 4 -5.7050 -0.2596
1 12 5 -4.7073 -0.4627
2 -12 0 0.4520 0.3024
2 -12 1 1.2007 0.3754
2 -12 2 1.2210 -0.6919
2 -12 3 -1.9006 0.7124
2 -11 0 1.2568 -0.5963
2 -11 1 -1.9855 -0.2759
2 -11 2 -0.3939 0.9589
2 -11 3 1.1042 -0.7751
2 -11 4 -3.4605 -0.0491
2 -11 5 -0.4449 0.7833
2 -11 6 0.1792 -0.2325
2 -10 0 4.6157 -0.1667
2 -10 1 2.9794 -0.3885
2 -10 2 0.5788 -0.5373
2 -10 3 -1.7629 -0.0378
2 -10 4 1.0572 -0.3204
2 -10 5 2.1074 -0.0827
2 -10 6 1.0611 0.1582
2 -10 7 0.2929 -0.6387
2 -10 8 1.9686 -0.2252
2 -9 0 0.8446 2.6520
2 -9 1 -0.0256 -0.9354
2 -9 2 -2.8107 -0.5356
2 -9 3 0.1856 0.8525
2 -9 4 -0.4028 -0.4906
2 -9 5 -2.5130 -0.4937
2 -9 6 1.0209 0.2888
2 -9 7 3.8946 0.1011
2 -9 8 2.0021 -0.0476
2 -9 9 -0.6212 0.3402
2 -8 0 0.0815 -1.7767
2 -8 1 -0.3382 0.3207
2 -8 2 0.5131 -0.9011
2 -8 3 -2.4242 -0.2309
2 -8 4 -0.9785 0.6792
2 -8 5 2.2363 -0.1218
2 -8 6 3.4389 -0.0905
2 -8 7 1.1380 0.5076
2 -8 8 -3.3297 0.1701
2 -8 9 -5.6278 -0.4817
2 -8 10 -0.8953 -0.0096
2 -7 0 2.6880 -0.6633
2 -7 1 -2.7146 2.4814
2 -7 2 -2.4464 1.9227
2 -7 3 3.0842 -0.5819
2 -7 4 3.2466 0.0407
2 -7 5 -0.4358 -0.1952
2 -7 6 -4.0719 -0.5356
2 -7 7 -2.0766 0.0333
2 -7 8 -1.9343 0.1246
2 -7 9 1.5257 0.1472
2 -7 10 3.5951 0.2492
2 -7 11 -0.6897 0.0687
2 -6 0 -8.4542 0.0617
2 -6 1 -9.9741 -0.3436
2 -6 2 -2.5432 0.3705
2 -6 3 1.4700 -0.4815
2 -6 4 1.9035 -0.8460
2 -6 5 -3.6769 0.5195
2 -6 6 -1.0157 0.5345
2 -6 7 2.0431 -0.1591
2 -6 8 3.2908 0.1284
2 -6 9 1.5526 0.2955
2 -6 10 -0.0348 -0.3421
2 -6 11 0.2063 -0.4326
2 -5 0 3.1811 -0.1531
2 -5 1 -3.3034 -3.3719
2 -5 2 -4.4832 -0.1701
2 -5 3 3.0861 1.1724
2 -5 4 3.2232 0.4537
2 -5 5 4.7579 0.6389
2 -5 6 0.1597 -0.2260
2 -5 7 -2.0449 -0.2621
2 -5 8 -1.4362 -0.0192
2 -5 9 -1.8001 -0.0174
2 -5 10 1.5521 0.1744
2 -5 11 -0.3724 -0.2785
2 -5 12 -0.6025 -0.4376
2 -4 0 -12.6426 1.5159
2 -4 1 -9.5682 0.3018
2 -4 2 -2.4393 -1.9176
2 -4 3 -0.1667 -0.0922
2 -4 4 6.7552 0.2322
2 -4 5 2.2029 -1.0966
2 -4 6 -3.6511 -0.1990
2 -4 7 -3.6637 0.2829
2 -4 8 -0.9724 -0.0487
2 -4 9 2.7942 -0.1239
2 -4 10 -1.7139 0.2520
2 -4 11 0.1233 -0.1853
2 -4 12 -2.4280 -0.4694
2 -3 0 4.0514 1.3528
2 -3 1 9.8836 0.8169
2 -3 2 5.0634 -2.1580
2 -3 3 0.5094 0.0938
2 -3 4 1.1800 0.1979
2 -3 5 4.4393 -0.2177
2 -3 6 3.8671 0.3225
2 -3 7 -1.1590 -0.1030
2 -3 8 -2.4440 -0.1492
2 -3 9 -5.9503 -0.1022
2 -3 10 -0.6770 -0.0873
2 -3 11 -0.9192 0.3071
2 -3 12 2.6685 -0.0095
2 -3 13 2.2911 -0.1400
2 -2 0 13.7210 -4.0069
2 -2 1 -4.1364 1.1506
2 -2 2 -5.9595 4.0605
2 -2 3 -0.3582 -0.4392
2 -2 4 -2.1895 0.0277
2 -2 5 0.6132 0.4444
2 -2 6 -3.4152 -0.1739
2 -2 7 -6.6126 0.1327
2 -2 8 -7.0181 0.2051
2 -2 9 2.0062 0.1859
2 -2 10 0.7869 -0.2777
2 -2 11 4.6239 0.3637
2 -2 12 2.0134 0.6157
2 -2 13 -1.4539 0.0208
2 -1 0 -16.5343 -0.5369
2 -1 1 -33.0223 2.3575
2 -1 2 -11.4773 1.3373
2 -1 3 -1.7618 -1.0999
2 -1 5 -7.0954 0.4395
2 -1 6 1.6235 -0.3144
2 -1 7 6.2027 -0.0195
2 -1 8 6.9053 0.1597
2 -1 9 -2.9607 0.1389
2 -1 10 2.1021 0.0710
2 -1 11 2.4867 -0.5005
2 -1 12 1.5310 0.2557
2 -1 13 0.7657 0.1830
2 0 0 23.2414 4.7117
2 0 1 -17.4045 -2.5241
2 0 2 -28.9100 -1.1374
2 0 3 8.4380 1.2602
2 0 4 15.6271 -0.8183
2 0 5 8.9144 0.0568
2 0 6 7.9781 0.1929
2 0 7 4.4023 -0.4286
2 0 8 -4.0917 -0.1142
2 0 9 0.2897 -0.0008
2 0 10 -0.2190 0.0939
2 0 11 4.0464 -0.3897
2 0 12 2.4714 -0.4605
2 0 13 -0.5981 0.4000
2 1 0 -4.1742 -2.3869
2 1 2 -48.1042 -1.1055
2 1 3 5.5489 -0.4980
2 1 4 32.6300 0.2967
2 1 5 9.1864 0.0023
2 1 6 -10.3681 0.2967
2 1 7 -7.0551 -0.2593
2 1 8 3.6747 -0.2879
2 1 9 1.1994 -0.1615
2 1 10 -2.1536 0.1748
2 1 11 -0.3200 0.3443
2 1 12 1.1183 -0.4591
2 1 13 -3.0462 0.2541
2 2 0 -8.8863 -0.2840
2 2 1 -16.9009 2.8226
2 2 2 -14.6968 -1.0826
2 2 3 24.2190 -0.4097
2 2 4 45.4751 1.1770
2 2 5 18.7286 -0.7605
2 2 6 -9.9720 -0.3183
2 2 7 -4.4306 0.9662
2 2 8 3.2092 -0.0541
2 2 9 2.1895 -0.1027
2 2 10 -0.1795 0.1314
2 2 11 -1.4078 -0.0260
2 2 12 -1.7621 -0.1833
2 2 13 -4.1232 -0.3238
2 3 0 24.0529 1.2226
2 3 1 -0.2778 -0.4002
2 3 2 -11.8625 1.3810
2 3 3 7.8767 -0.1110
2 3 4 26.1742 -0.1402
2 3 5 7.9301 0.2021
2 3 6 -22.5667 -0.4998
2 3 7 -20.7397 0.0890
2 3 8 -1.5396 0.0579
2 3 9 4.9249 -0.1901
2 3 10 -0.0908 -0.0702
2 3 11 -2.7294 -0.2391
2 3 12 -2.5473 0.3203
2 3 13 1.9744 0.0629
2 4 0 -3.9716 -1.4451
2 4 1 -7.3642 -2.1032
2 4 2 -3.5183 0.6017
2 4 3 4.0037 0.4246
2 4 4 7.1828 -0.3113
2 4 5 -0.9867 0.8397
2 4 6 -17.7901 -0.4075
2 4 7 -15.4131 -0.6216
2 4 8 5.7279 0.5086
2 4 9 10.3903 -0.1472
2 4 10 4.8752 -0.1945
2 4 11 -1.0368 0.1920
2 4 12 1.5479 0.3332
2 4 13 -2.6988 0.5277
2 5 0 -2.4970 0.8015
2 5 1 7.0579 -0.0803
2 5 2 2.1698 -1.0706
2 5 3 2.2039 0.8026
2 5 4 5.4879 -1.0056
2 5 5 4.0227 -1.0658
2 5 6 -2.1244 0.8917
2 5 7 -4.6627 -0.3926
2 5 8 4.3131 -0.5188
2 5 9 10.0131 0.3955
2 5 10 2.1748 0.2066
2 5 11 1.7332 0.2337
2 5 12 -6.4388 0.1539
2 6 0 -3.1663 1.8119
2 6 1 -0.1818 0.7027
2 6 2 2.2451 -0.9288
2 6 3 -0.4141 -0.6663
2 6 4 -3.1765 0.2161
2 6 5 -2.0579 -0.1349
2 6 6 -3.1433 0.5971
2 6 7 -6.4990 0.3040
2 6 8 -2.0480 -0.7037
2 6 9 5.4167 -0.0509
2 6 10 4.8566 -0.1825
2 6 11 -8.2676 -0.4672
2 6 12 -0.8986 0.0886
2 7 0 -7.2569 -2.5477
2 7 1 0.1708 -0.1179
2 7 2 1.0561 0.3815
2 7 3 -3.9020 -0.1457
2 7 4 -2.3026 0.6913
2 7 5 2.6959 0.0747
2 7 6 4.4454 -0.6635
2 7 7 -0.4239 0.3287
2 7 8 1.5762 0.2398
2 7 9 4.8949 -0.4009
2 7 10 -6.4136 -0.0031
2 7 11 1.5223 0.2465
2 8 0 -2.7703 0.1439
2 8 1 -1.0329 1.0635
2 8 2 2.5140 1.2571
2 8 3 4.0870 -0.4476
2 8 4 2.8167 -0.1896
2 8 5 -0.0605 0.1833
2 8 6 0.8168 -0.7221
2 8 7 4.6544 -0.1973
2 8 8 0.0257 0.6724
2 8 9 -3.2485 0.2041
2 8 10 7.2979 -0.2622
2 9 0 0.7511 1.3881
2 9 1 1.3477 -0.5482
2 9 2 2.8553 -1.1754
2 9 3 1.5074 0.4336
2 9 4 0.5520 -0.2878
2 9 5 -0.3923 -0.3108
2 9 6 -1.3092 0.0093
2 9 7 0.1430 -0.4465
2 9 8 -0.7130 -0.1519
2 9 9 3.5893 0.0955
2 10 0 4.9348 -1.1308
2 10 1 5.5063 -0.8899
2 10 2 1.3941 0.9136
2 10 3 0.1825 -0.0790
2 10 4 3.0742 -0.0718
2 10 5 0.5695 0.1616
2 10 6 -4.6894 -0.0376
2 10 7 -0.8940 -0.3162
2 10 8 7.6019 -0.2011
2 11 0 2.4119 0.1995
2 11 1 -1.6790 1.0954
2 11 2 -2.3119 -0.3078
2 11 3 -0.1022 0.1890
2 11 4 -1.8195 -0.0053
2 11 5 -0.0848 -0.0051
2 11 6 -0.8550 0.1264
2 11 7 1.2972 0.4249
2 12 0 -6.5086 1.4413
2 12 1 -0.5859 -0.2593
2 12 2 0.6458 -0.1935
2 12 3 0.6842 0.0655
2 12 4 0.7667 -0.0714
2 12 5 -2.9445 -0.1061
3 -11 0 -1.2598 -0.1294
3 -11 1 -0.7033 -0.0870
3 -11 2 -0.9170 -0.1151
3 -11 3 0.1379 -0.3292
3 -11 4 3.7784 0.0639
3 -11 5 -0.1880 0.3592
3 -11 6 -0.4425 -0.2539
3 -10 0 -3.5380 -0.2545
3 -10 1 -1.5099 -0.1798
3 -10 2 -0.0108 0.8855
3 -10 3 0.8053 -0.0747
3 -10 4 -4.1170 -0.0329
3 -10 5 -2.9439 1.0728
3 -10 6 -1.1747 -0.1166
3 -10 7 -2.9776 -0.3781
3 -10 8 -3.7148 0.3660
3 -9 0 2.2594 0.2534
3 -9 1 3.1850 1.0034
3 -9 2 2.3371 -0.7157
3 -9 3 -0.6143 0.0914
3 -9 4 3.0759 -0.1306
3 -9 5 0.9593 -0.8669
3 -9 6 -2.3089 0.3599
3 -9 7 0.1103 -0.1373
3 -9 8 0.5063 -0.3083
3 -9 9 0.6561 0.4938
3 -8 0 3.7461 -0.0053
3 -8 1 3.2576 -0.4151
3 -8 2 0.8928 0.0379
3 -8 3 1.6228 -0.1765
3 -8 4 -0.8319 0.1889
3 -8 5 -2.3944 0.0783
3 -8 6 -2.0790 0.0200
3 -8 7 -0.1115 0.2587
3 -8 8 1.7353 -0.2749
3 -8 9 0.3432 0.0243
3 -8 10 -2.0173 0.2376
3 -7 0 2.4588 -1.8489
3 -7 1 3.0262 -0.7014
3 -7 2 -0.0364 0.6013
3 -7 3 -6.1728 0.4388
3 -7 4 -2.8147 0.3239
3 -7 5 4.1399 0.4150
3 -7 6 3.3488 -0.5694
3 -7 7 -0.3331 -0.0451
3 -7 8 1.7286 0.4033
3 -7 9 -0.8841 -0.3028
3 -7 10 -1.9655 0.1676
3 -7 11 1.8662 0.4320
3 -6 0 13.3855 1.7208
3 -6 1 11.4549 0.3461
3 -6 2 -0.3428 -0.4605
3 -6 3 -5.0942 -0.3810
3 -6 4 -1.1834 -0.3989
3 -6 5 5.7758 -0.5846
3 -6 6 2.3370 0.1179
3 -6 7 -2.5302 0.0176
3 -6 8 -3.7707 0.0344
3 -6 9 -0.0516 0.2061
3 -6 10 1.3494 -0.0036
3 -6 11 0.8125 0.2113
3 -6 12 2.4454 0.3886
3 -5 0 2.8934 1.4930
3 -5 1 0.8809 -0.7249
3 -5 2 -6.4764 -1.5703
3 -5 3 -10.1852 0.0269
3 -5 4 -3.6900 -0.3609
3 -5 5 -0.1103 -0.1066
3 -5 6 3.7308 0.7147
3 -5 7 1.5003 -0.0609
3 -5 8 1.2343 -0.4454
3 -5 9 2.8393 0.0887
3 -5 10 0.3668 -0.0373
3 -5 11 1.6748 -0.0517
3 -5 12 -0.1934 0.0934
3 -4 0 3.4808 -2.7059
3 -4 1 4.7135 0.6538
3 -4 2 -0.5162 1.9122
3 -4 3 -4.7680 -0.0211
3 -4 4 -6.8960 -0.0403
3 -4 5 4.3039 0.6030
3 -4 6 8.3323 -0.0590
3 -4 7 4.5697 -0.1181
3 -4 8 -1.5832 -0.1231
3 -4 9 -5.2421 -0.1408
3 -4 10 1.3872 0.0306
3 -4 11 1.3701 -0.0700
3 -4 12 2.7563 -0.2824
3 -4 13 -0.4172 -0.3197
3 -3 0 -4.3218 0.7054
3 -3 1 -3.5916 2.4697
3 -3 2 -3.4155 0.3850
3 -3 3 -3.1789 -0.5304
3 -3 4 0.1274 0.7204
3 -3 5 -1.2657 -0.3694
3 -3 6 -0.8330 -0.3324
3 -3 7 -0.8161 0.4403
3 -3 8 -3.0399 0.2534
3 -3 9 1.4695 -0.0258
3 -3 10 0.0239 -0.0274
3 -3 11 1.6001 -0.2263
3 -3 12 -3.8912 -0.2849
3 -3 13 -1.9030 0.0595
3 -2 0 -15.5216 0.4374
3 -2 1 -6.4620 -2.8761
3 -2 2 5.1244 -1.0053
3 -2 3 6.1877 1.5377
3 -2 4 0.8810 0.0931
3 -2 5 -2.7694 -0.1577
3 -2 6 3.8502 -0.1461
3 -2 7 6.6401 -0.0778
3 -2 8 3.8402 0.2049
3 -2 9 -4.2005 0.0076
3 -2 10 -1.5384 -0.3018
3 -2 11 -5.2459 -0.0862
3 -2 12 0.9363 0.2665
3 -2 13 2.8903 -0.0149
3 -1 0 18.6981 -1.5099
3 -1 1 30.5377 -0.4263
3 -1 2 17.9927 2.0211
3 -1 3 8.8407 0.0032
3 -1 4 4.9211 -0.0107
3 -1 5 6.0724 0.4980
3 -1 6 -1.8607 -0.4043
3 -1 7 -3.9783 -0.1717
3 -1 8 -2.7786 0.2358
3 -1 9 2.0035 -0.1081
3 -1 10 -4.8715 -0.0611
3 -1 11 0.0884 0.4053
3 -1 12 0.7082 0.1831
3 -1 13 -0.5307 -0.0964
3 0 0 9.3498 2.3525
3 0 1 22.9582 1.8441
3 0 2 6.2420 -1.8134
3 0 3 -18.6584 -0.6042
3 0 4 -12.0628 -0.4360
3 0 5 -9.6994 -0.5816
3 0 6 -8.3908 0.5793
3 0 7 0.1004 0.0927
3 0 8 6.5982 -0.3241
3 0 9 -2.2507 0.1124
3 0 10 -0.2870 0.4018
3 0 11 -2.5993 -0.1818
3 0 12 -1.3319 -0.2005
3 0 13 -0.2675 -0.0254
3 1 0 20.5208 0.7843
3 1 1 50.8733 -1.3002
3 1 2 12.8387 -0.2303
3 1 3 -22.1420 0.6122
3 1 4 -22.4163 -0.9899
3 1 5 4.0489 -0.1730
3 1 6 13.7365 0.8995
3 1 7 5.5948 -0.0602
3 1 8 -2.8073 -0.2952
3 1 9 2.8987 0.3957
3 1 10 1.2220 -0.1237
3 1 11 -0.8927 -0.0854
3 1 12 0.7531 0.1344
3 1 13 4.3001 -0.2113
3 2 0 11.9782 -2.9707
3 2 1 21.2737 0.1969
3 2 2 -0.4787 0.6710
3 2 3 -40.1875 -0.6793
3 2 4 -31.4196 0.8288
3 2 5 2.7409 0.0114
3 2 6 10.2798 -0.6696
3 2 7 -1.9510 -0.0058
3 2 8 -2.4930 -0.0523
3 2 9 -2.1069 -0.3794
3 2 10 -0.8471 0.0040
3 2 11 0.7617 0.2526
3 2 12 2.7957 -0.0191
3 2 13 3.8795 -0.4805
3 3 0 -15.4233 0.8748
3 3 1 3.7989 0.6745
3 3 2 -0.0438 -0.6592
3 3 3 -20.2662 -0.1559
3 3 4 -20.4194 0.5392
3 3 5 7.9164 0.2011
3 3 6 23.5946 -0.5219
3 3 7 8.8695 0.2374
3 3 8 -6.3832 0.2969
3 3 9 -3.5040 -0.2107
3 3 10 2.1858 -0.0298
3 3 11 0.5595 -0.0642
3 3 12 0.0839 -0.2101
3 3 13 0.0964 0.0027
3 4 0 3.4876 1.1012
3 4 1 6.8652 -0.9956
3 4 2 2.6686 0.3539
3 4 3 -4.5423 0.2058
3 4 4 -5.1580 -0.4666
3 4 5 11.9057 0.9104
3 4 6 22.6464 0.5717
3 4 7 2.7785 -0.6043
3 4 8 -12.8365 0.3410
3 4 9 -6.7450 0.0618
3 4 10 -3.1022 -0.5305
3 4 11 -0.5372 0.3316
3 4 12 0.2390 0.3203
3 4 13 5.6930 -0.0189
3 5 0 2.2940 -1.7353
3 5 1 -5.3298 0.1388
3 5 2 -2.9254 0.9825
3 5 3 -3.4433 0.5016
3 5 4 -2.8319 0.1486
3 5 5 -0.8511 0.1442
3 5 6 3.3755 0.5343
3 5 7 -1.9039 0.1376
3 5 8 -14.4322 -0.0583
3 5 9 -9.6979 0.3323
3 5 10 1.1157 -0.2430
3 5 11 0.7871 -0.1590
3 5 12 7.7005 0.3075
3 6 0 -0.6728 1.4345
3 6 1 0.1420 1.8249
3 6 2 -1.8232 -0.6121
3 6 3 -1.4357 -0.0919
3 6 4 1.5064 0.1978
3 6 5 1.4328 -1.0695
3 6 6 3.3029 -0.0817
3 6 7 4.3300 0.8210
3 6 8 -1.1248 -0.1603
3 6 9 -3.7638 0.1155
3 6 10 2.2704 0.3845
3 6 11 7.8738 -0.3022
3 6 12 -2.3320 0.0949
3 7 0 8.1978 1.1103
3 7 1 -0.1278 -1.4222
3 7 2 -1.3871 -1.0639
3 7 3 -0.1706 -0.5754
3 7 4 0.3980 0.2257
3 7 5 -2.2170 0.0056
3 7 6 -4.1550 -0.7714
3 7 7 2.9492 0.1300
3 7 8 -0.3489 -0.0484
3 7 9 -3.8030 -0.5216
3 7 10 2.4321 0.4309
3 7 11 -6.3262 -0.2487
3 8 0 5.5452 -2.6714
3 8 1 -3.1328 -0.4327
3 8 2 -5.0573 0.9692
3 8 3 -2.2454 0.1574
3 8 4 -2.5935 -0.4807
3 8 5 0.7106 0.5308
3 8 6 1.8017 0.0808
3 8 7 -3.0099 -0.6530
3 8 8 0.5361 0.0714
3 8 9 -0.7963 -0.1355
3 8 10 -7.2618 -0.2435
3 8 11 0.2278 0.0259
3 9 0 -2.4093 0.9010
3 9 1 -2.2803 1.1831
3 9 2 -3.5872 0.0935
3 9 3 -0.9573 -0.3581
3 9 4 3.4346 0.2071
3 9 5 3.5777 0.5067
3 9 6 -0.1786 0.5668
3 9 7 -1.9922 -0.1533
3 9 8 -0.5364 -0.1466
3 9 9 0.4495 0.1152
3 9 10 4.6156 -0.4331
3 10 0 -1.7845 0.6260
3 10 1 -1.2948 -0.8814
3 10 2 -1.2196 -0.2365
3 10 3 2.6467 0.9576
3 10 4 2.9034 0.1453
3 10 5 3.1815 -0.4864
3 10 6 5.7504 0.0061
3 10 7 1.3388 0.2581
3 10 8 -4.0138 -0.4574
3 10 9 1.9225 -0.5002
3 11 0 0.7007 -0.3483
3 11 1 0.6743 -0.0845
3 11 2 0.7408 0.2929
3 11 3 1.8177 -0.6595
3 11 4 7.4951 -0.3745
3 11 5 6.6807 0.0484
3 11 6 2.3592 -0.3172
3 11 7 -5.9915 -0.6566
3 12 0 -0.1354 0.1355
3 12 1 -2.1770 0.0715
3 12 2 -0.3646 -0.8814
3 12 3 1.7983 0.3678
3 12 4 4.6315 0.4754
3 12 5 3.1658 -0.2045
3 12 6 -5.9475 -0.4126
4 -11 0 3.3465 0.1096
4 -11 1 1.7325 0.3648
4 -11 2 3.2870 -0.2594
4 -11 3 1.2913 -0.6227
4 -11 4 -1.5138 0.1831
4 -11 5 2.9233 0.0818
4 -10 0 1.5113 0.3155
4 -10 1 -1.6778 -0.4753
4 -10 2 -1.7060 0.4847
4 -10 3 0.6018 0.1540
4 -10 4 2.7017 -0.8227
4 -10 5 0.3826 0.2633
4 -10 6 2.7098 0.5470
4 -10 7 3.1382 -0.8456
4 -9 0 -4.7464 -0.6082
4 -9 1 -3.0550 -0.0086
4 -9 2 -2.6399 0.6869
4 -9 3 0.4009 0.3797
4 -9 4 -1.8666 -0.3548
4 -9 5 0.4986 -0.0984
4 -9 6 -0.5806 0.3438
4 -9 7 -4.0255 -0.1012
4 -9 8 -2.1626 -1.0324
4 -9 9 -0.9636 -0.0901
4 -8 0 -2.8120 1.1905
4 -8 1 -0.8875 0.4055
4 -8 2 -0.2435 -1.0436
4 -8 3 -1.6173 0.1992
4 -8 4 2.5612 0.4340
4 -8 5 0.2137 -0.6840
4 -8 6 -3.0034 -0.1590
4 -8 7 -1.1558 0.4215
4 -8 8 1.7116 -0.2314
4 -8 9 2.6454 -0.4558
4 -8 10 0.7160 0.5760
4 -7 0 -6.4005 -0.2224
4 -7 1 -1.8705 -1.0701
4 -7 2 4.0722 -0.2960
4 -7 3 6.8510 -0.0045
4 -7 4 -0.1577 0.3229
4 -7 5 -3.3838 0.3108
4 -7 6 0.3925 -0.0422
4 -7 7 0.4219 -0.2426
4 -7 8 -2.3443 0.3300
4 -7 9 -0.8749 -0.0492
4 -7 10 -2.3265 -0.3952
4 -7 11 -3.4317 0.3885
4 -6 0 -10.5872 -1.2115
4 -6 1 -4.8051 1.5501
4 -6 2 6.7304 1.6398
4 -6 3 5.8663 -0.0368
4 -6 4 -2.0525 -0.0076
4 -6 5 -6.6601 0.5844
4 -6 6 -2.3799 -0.3981
4 -6 7 0.9487 -0.2385
4 -6 8 0.8097 0.2672
4 -6 9 -0.3853 0.3965
4 -6 10 -0.3640 -0.0215
4 -6 11 -1.9888 -0.0177
4 -6 12 -2.5407 0.4441
4 -5 0 -0.3216 1.7328
4 -5 1 4.0955 0.8709
4 -5 2 10.0785 -0.3655
4 -5 3 8.8694 -0.9630
4 -5 4 -1.4324 -0.2237
4 -5 5 -4.6577 -0.4462
4 -5 6 -1.7142 0.1048
4 -5 7 3.6875 0.4959
4 -5 8 0.8517 0.0447
4 -5 9 -2.0117 -0.0568
4 -5 10 -0.6643 0.2008
4 -5 11 -1.8377 0.1912
4 -5 12 2.5388 0.3416
4 -4 0 -1.7502 -0.6323
4 -4 1 -2.3542 -2.4719
4 -4 2 2.0052 -0.4402
4 -4 3 4.6244 1.0378
4 -4 4 0.5661 -0.5211
4 -4 5 -9.0006 0.0124
4 -4 6 -5.9110 0.1169
4 -4 7 -1.5379 -0.2878
4 -4 8 3.4893 -0.1381
4 -4 9 4.8027 -0.1765
4 -4 10 -0.9400 0.2858
4 -4 11 0.3155 0.2602
4 -4 12 -0.9401 0.0656
4 -4 13 1.4721 0.0257
4 -3 0 0.3613 -1.1931
4 -3 1 0.4237 0.6874
4 -3 2 0.3540 0.3457
4 -3 3 -3.2127 -0.3209
4 -3 4 -6.5641 -0.2588
4 -3 5 -4.1901 0.0839
4 -3 6 -0.7488 -0.1464
4 -3 7 6.5350 -0.3586
4 -3 8 7.6172 -0.0771
4 -3 9 0.2953 -0.1877
4 -3 10 -0.2982 -0.2446
4 -3 11 -1.1353 0.1140
4 -3 12 3.6493 -0.2499
4 -3 13 0.1625 -0.0777
4 -2 0 11.2027 1.9154
4 -2 1 2.4025 0.7916
4 -2 2 -7.7065 -1.8608
4 -2 3 -6.3670 -0.7613
4 -2 4 1.5877 1.2472
4 -2 5 2.7529 -0.1409
4 -2 6 -2.6158 0.3799
4 -2 7 -4.0670 0.4121
4 -2 8 -2.7105 -0.5107
4 -2 9 1.7453 -0.1485
4 -2 10 -0.4247 0.1401
4 -2 11 2.9543 -0.1724
4 -2 12 -2.7946 -0.3680
4 -2 13 -2.4017 -0.1744
4 -1 0 -16.7665 -1.1211
4 -1 1 -20.0616 -1.2490
4 -1 2 -8.8953 1.1183
4 -1 3 -3.6922 0.8759
4 -1 4 -6.2363 -0.3547
4 -1 5 -7.3362 0.6486
4 -1 6 -3.1421 0.1191
4 -1 7 -2.2691 -0.1623
4 -1 8 0.9597 0.2689
4 -1 9 -0.2698 0.2679
4 -1 10 2.5593 -0.1071
4 -1 11 -3.4367 -0.1246
4 -1 12 -0.0474 0.2201
4 -1 13 1.0775 -0.1097
4 0 0 -10.0519 -1.0227
4 0 1 -1.0834 1.2570
4 0 2 11.4455 2.0902
4 0 3 17.9529 -0.3536
4 0 4 5.4582 -0.2362
4 0 5 3.5102 0.4530
4 0 6 6.2650 -0.5561
4 0 7 1.9155 -0.1497
4 0 8 -2.0281 0.7622
4 0 9 4.1947 0.1706
4 0 10 1.4321 -0.1563
4 0 11 4.5537 0.2384
4 0 12 1.1268 0.1959
4 0 13 -0.1521 0.3048
4 0 14 -1.1389 -0.1280
4 1 0 -19.4311 1.7328
4 1 1 -22.5972 0.0591
4 1 2 10.6638 -1.7679
4 1 3 22.3174 0.9233
4 1 4 7.6414 0.1157
4 1 5 -13.3723 -1.4832
4 1 6 -8.9182 0.3618
4 1 7 1.8087 0.3410
4 1 8 2.4443 -0.3755
4 1 9 -1.5802 0.0299
4 1 10 3.9820 0.2452
4 1 11 0.5779 -0.2503
4 1 12 -3.6215 -0.1220
4 1 13 -5.3871 0.1540
4 1 14 -2.8353 0.0357
4 2 0 -19.2582 -0.6633
4 2 1 -13.9192 -1.5436
4 2 2 18.1990 -0.4397
4 2 3 32.2150 0.0004
4 2 4 6.7181 -0.0525
4 2 5 -12.9154 -0.1428
4 2 6 -5.3209 -0.0034
4 2 7 7.3248 0.1527
4 2 8 5.5123 -0.5721
4 2 9 3.5746 -0.1657
4 2 10 -0.1712 0.2951
4 2 11 -0.1401 0.2685
4 2 12 -0.5259 -0.0762
4 2 13 -1.4955 0.1028
4 3 0 2.9048 -1.8426
4 3 1 -6.7123 0.9701
4 3 2 7.1184 0.7724
4 3 3 17.1449 -1.2391
4 3 4 4.0758 0.6607
4 3 5 -13.9907 0.4572
4 3 6 -13.3778 -0.9961
4 3 7 3.0374 0.1565
4 3 8 9.7156 0.4560
4 3 9 -0.0660 -0.4994
4 3 10 -1.7548 0.1610
4 3 11 3.4834 0.3904
4 3 12 1.4330 -0.0354
4 3 13 -2.0710 -0.1638
4 4 0 -5.1190 2.0004
4 4 1 -12.0442 0.7261
4 4 2 -2.7569 -0.2308
4 4 3 6.8105 -0.4388
4 4 4 -1.9942 -0.7674
4 4 5 -18.2112 0.5695
4 4 6 -12.3785 0.3660
4 4 7 7.0137 -0.3663
4 4 8 8.0311 0.1540
4 4 9 0.1438 0.0787
4 4 10 -1.1649 -0.5900
4 4 11 -2.2588 -0.4227
4 4 12 -2.2479 -0.1107
4 4 13 -4.2242 -0.1721
4 5 0 -0.4982 0.5990
4 5 1 4.0464 -1.6934
4 5 2 2.0813 -0.1553
4 5 3 3.8555 1.3885
4 5 4 0.8306 -0.2777
4 5 5 -2.1455 -0.1185
4 5 6 0.2701 0.5501
4 5 7 9.2084 -0.7743
4 5 8 11.5502 -0.4028
4 5 9 -0.1101 0.5971
4 5 10 -3.4786 -0.1438
4 5 11 0.6610 -0.4825
4 5 12 -2.7909 0.1889
4 5 13 1.1544 0.3329
4 6 0 2.3975 -1.4669
4 6 1 -1.4650 0.7846
4 6 2 -0.3337 0.6904
4 6 3 0.7368 0.0280
4 6 4 1.0988 0.0859
4 6 5 -2.5191 -0.6300
4 6 6 -6.7332 -0.0098
4 6 7 -2.2294 0.5361
4 6 8 0.9915 -0.2839
4 6 9 -1.3972 0.0371
4 6 10 -3.2843 0.5419
4 6 11 -1.6426 -0.2005
4 6 12 3.4112 -0.0863
4 7 0 -5.1903 1.1827
4 7 1 -0.0337 1.1586
4 7 2 1.8758 -0.9595
4 7 3 1.2660 -0.7216
4 7 4 -3.2334 0.6807
4 7 5 -0.7713 0.4246
4 7 6 0.2880 -0.0015
4 7 7 -3.6544 0.6347
4 7 8 4.1524 0.4469
4 7 9 3.4563 -0.4911
4 7 10 1.0185 0.0122
4 7 11 8.7329 0.6362
4 7 12 2.7538 -0.0360
4 8 0 -3.7885 -0.6151
4 8 1 2.7964 -1.6202
4 8 2 1.4036 0.2313
4 8 3 -0.8099 0.3369
4 8 4 0.7750 -0.3533
4 8 5 -0.5785 0.2127
4 8 6 0.7309 -0.0016
4 8 7 2.0780 -0.3238
4 8 8 -0.6721 0.2763
4 8 9 5.6163 -0.0340
4 8 10 4.1060 -0.3449
4 8 11 -3.4798 0.4103
4 9 0 -0.1293 -0.8690
4 9 1 0.6338 0.6077
4 9 2 2.1149 0.6922
4 9 3 1.2764 -0.0380
4 9 4 -2.1298 -0.2146
4 9 5 -2.2766 -0.3074
4 9 6 1.5686 -0.0328
4 9 7 3.4096 -0.1751
4 9 8 1.9305 -0.0786
4 9 9 -3.8647 0.3969
4 9 10 -7.6352 -0.3554
4 10 0 1.1938 1.2476
4 10 1 2.1822 0.2966
4 10 2 2.9018 -0.6021
4 10 3 -4.3665 0.0913
4 10 4 -3.8945 0.4087
4 10 5 -0.9578 -0.0393
4 10 6 -0.2956 0.0167
4 10 7 3.4762 0.3909
4 10 8 0.5336 -0.2149
4 10 9 -5.6187 -0.2807
4 11 0 1.6335 -0.3446
4 11 1 1.4239 -0.6366
4 11 2 -2.0877 0.5049
4 11 3 -5.2664 0.3222
4 11 4 -8.4324 -0.1858
4 11 5 -0.7835 0.3661
4 11 6 3.8985 0.1826
4 11 7 5.1977 -0.1069
4 12 0 5.2799 -0.2548
4 12 1 2.8376 0.4092
4 12 2 -0.8370 -0.2313
4 12 3 -2.3745 -0.2377
4 12 4 -2.3911 -0.0981
4 12 5 1.8508 0.0166
4 12 6 9.4793 0.1168
5 -10 0 -0.3431 -0.0996
5 -10 1 -0.3793 -0.5581
5 -10 2 1.4536 -0.1427
5 -10 3 2.5951 -0.0132
5 -10 4 0.1901 -0.6478
5 -10 5 0.6767 0.2111
5 -10 6 0.6028 0.2545
5 -9 0 -0.3091 -0.1889
5 -9 1 4.2951 -1.0204
5 -9 2 3.4994 -0.1411
5 -9 3 -1.0504 0.8919
5 -9 4 -0.1099 -0.0301
5 -9 5 -1.4140 -0.0494
5 -9 6 4.1697 0.7791
5 -9 7 4.2410 0.1182
5 -9 8 -0.9854 0.0247
5 -8 0 0.7613 -0.0295
5 -8 1 -0.9039 1.2746
5 -8 2 -1.0149 -0.2855
5 -8 3 -1.1401 -0.4703
5 -8 4 -1.3030 0.5338
5 -8 5 2.6720 -0.5408
5 -8 6 1.7497 -0.5786
5 -8 7 1.7706 0.4711
5 -8 8 0.4082 0.0997
5 -8 9 -2.5171 -0.4915
5 -7 0 5.5854 0.8986
5 -7 1 -3.3520 0.1644
5 -7 2 -2.7180 -0.6673
5 -7 3 -1.9325 -0.7529
5 -7 4 0.8519 0.2694
5 -7 5 0.3060 0.3406
5 -7 6 -0.9546 -0.2714
5 -7 7 0.5771 0.1833
5 -7 8 0.2379 -0.0966
5 -7 9 -0.6053 -0.3082
5 -7 10 2.3869 -0.1625
5 -6 0 7.1582 -1.3868
5 -6 1 -1.3929 -1.2136
5 -6 2 -7.7188 0.8976
5 -6 3 -1.6087 0.4249
5 -6 4 3.9684 -0.4488
5 -6 5 6.2121 0.2059
5 -6 6 1.5345 0.2845
5 -6 7 -2.4496 -0.6722
5 -6 8 -0.6415 0.0206
5 -6 9 0.7406 0.2186
5 -6 10 0.4720 -0.0671
5 -6 11 1.7076 -0.4797
5 -5 0 2.3159 0.0782
5 -5 1 -4.6660 0.7807
5 -5 2 -8.7283 0.4382
5 -5 3 -0.7503 0.2142
5 -5 4 8.5459 -0.2265
5 -5 5 3.7228 0.1799
5 -5 6 -4.0324 -0.3462
5 -5 7 -5.6566 0.0775
5 -5 8 -0.8132 -0.0033
5 -5 9 0.2836 0.0069
5 -5 10 -0.0542 0.0564
5 -5 11 -0.5389 -0.2191
5 -5 12 -6.3184 0.1102
5 -4 0 3.6192 1.6091
5 -4 1 4.3720 -0.6908
5 -4 2 -1.1278 -1.7195
5 -4 3 -2.2683 0.3581
5 -4 4 3.2811 0.5251
5 -4 5 6.7809 -0.7339
5 -4 6 1.3091 0.4946
5 -4 7 -0.9267 0.2101
5 -4 8 -3.6530 0.2305
5 -4 9 -2.8984 0.2050
5 -4 10 0.3414 -0.1903
5 -4 11 -0.2571 0.2206
5 -4 12 2.6819 0.0880
5 -4 13 0.8909 0.1874
5 -3 0 2.0260 -1.8484
5 -3 1 1.9655 -0.6694
5 -3 2 -0.1610 0.3945
5 -3 3 2.7206 0.1540
5 -3 4 9.5896 -0.3671
5 -3 5 7.5037 0.0737
5 -3 6 -1.4535 0.4813
5 -3 7 -9.6613 0.0455
5 -3 8 -5.9170 -0.0531
5 -3 9 0.8833 0.4781
5 -3 10 2.0679 0.0063
5 -3 11 3.5329 -0.2038
5 -3 12 -1.6703 0.4017
5 -3 13 -1.1716 -0.1207
5 -2 0 -4.9437 -0.0924
5 -2 1 -2.6064 2.2123
5 -2 2 3.5825 0.6608
5 -2 3 1.6502 -1.3345
5 -2 4 -3.0285 0.5469
5 -2 5 -2.0744 0.2486
5 -2 6 -0.8029 -0.8731
5 -2 7 2.0612 0.4174
5 -2 8 2.4697 -0.0368
5 -2 9 0.2554 -0.2734
5 -2 10 2.2576 0.2813
5 -2 11 -1.6894 0.1901
5 -2 12 1.0070 -0.1854
5 -2 13 0.9493 -0.1637
5 -1 0 7.4797 1.6811
5 -1 1 3.9128 -1.2921
5 -1 2 -0.2864 -0.7006
5 -1 3 0.2374 0.1137
5 -1 4 4.3743 -0.0032
5 -1 5 8.6989 -0.1125
5 -1 6 7.2711 -0.3088
5 -1 7 -0.0436 -0.2092
5 -1 8 -3.8839 0.0235
5 -1 9 -0.3641 -0.2861
5 -1 10 -1.2731 0.1079
5 -1 11 1.8335 -0.1446
5 -1 12 -0.3765 -0.2196
5 -1 13 1.1511 -0.0772
5 0 0 -1.0310 -1.2677
5 0 1 -11.3834 -1.3121
5 0 2 -14.2140 0.8802
5 0 3 -7.4733 1.2811
5 0 4 4.9751 -0.7503
5 0 5 1.9125 0.8240
5 0 6 -8.4708 0.5449
5 0 7 -8.3814 -1.0150
5 0 8 -2.8917 0.2550
5 0 9 -4.1281 0.4479
5 0 10 -3.5805 -0.4851
5 0 11 -5.9466 0.1481
5 0 12 -0.1897 0.5532
5 0 13 0.7530 -0.1345
5 1 0 14.1839 0.5538
5 1 1 6.1635 2.1735
5 1 2 -10.8730 -0.1356
5 1 3 -6.4186 -0.2862
5 1 4 8.1067 0.5821
5 1 5 10.9679 -0.4939
5 1 6 -0.1309 0.2282
5 1 7 -4.3895 0.2415
5 1 8 -2.2365 -0.5897
5 1 9 -1.9756 0.2370
5 1 10 -5.0155 0.3317
5 1 11 1.3248 -0.0423
5 1 12 3.7127 -0.0195
5 1 13 5.4012 0.5413
5 1 14 3.2115 0.2363
5 2 0 19.7463 1.4399
5 2 1 5.4535 0.0615
5 2 2 -17.2538 -1.4985
5 2 3 -14.7112 -0.3921
5 2 4 8.5112 0.6061
5 2 5 15.0849 -0.6729
5 2 6 -1.3929 0.1122
5 2 7 -10.5508 0.8993
5 2 8 -5.4694 -0.2492
5 2 9 -1.4912 -0.1493
5 2 10 2.8981 0.3392
5 2 11 0.2988 -0.4575
5 2 12 -0.2104 0.1061
5 2 13 0.4903 0.3648
5 2 14 0.3783 0.1483
5 3 0 5.0933 -1.6765
5 3 1 3.2600 -1.0375
5 3 2 -9.3334 1.0636
5 3 3 -7.9644 -0.4563
5 3 4 5.8957 -0.4553
5 3 5 11.1585 0.7564
5 3 6 1.5274 -0.9246
5 3 7 -9.1138 -0.0914
5 3 8 -3.8655 0.8803
5 3 9 4.6335 -0.5391
5 3 10 -0.4926 -0.4825
5 3 11 -4.5820 0.4231
5 3 12 -1.4061 -0.1757
5 3 13 2.5694 -0.3145
5 4 0 6.0450 -0.5103
5 4 1 11.2481 0.6676
5 4 2 -0.2480 0.8067
5 4 3 -4.2083 -0.1716
5 4 4 3.6813 -0.6476
5 4 5 11.7767 0.3272
5 4 6 3.7113 0.1225
5 4 7 -6.8084 -0.5506
5 4 8 -0.6620 0.5613
5 4 9 5.4694 0.3131
5 4 10 3.5748 -0.2795
5 4 11 2.3187 0.1428
5 4 12 2.5214 -0.0503
5 4 13 2.5623 -0.2968
5 5 0 -1.4631 1.4975
5 5 1 -1.8857 -0.5651
5 5 2 -3.8194 -1.0200
5 5 3 -3.7864 0.8719
5 5 4 2.1050 -0.0699
5 5 5 -0.7129 -0.5048
5 5 6 -5.2254 0.9909
5 5 7 -8.5042 -0.2797
5 5 8 -4.7278 -0.7134
5 5 9 5.0662 0.6780
5 5 10 0.8334 0.0679
5 5 11 -5.2418 -0.3986
5 5 12 -3.4174 0.0222
5 5 13 -4.8677 -0.1636
5 6 0 -2.9668 -1.0702
5 6 1 4.7965 -0.6388
5 6 2 3.7742 0.2402
5 6 3 0.5964 0.8914
5 6 4 0.0218 0.6097
5 6 5 2.4085 -0.6835
5 6 6 3.2296 -0.0741
5 6 7 0.3146 0.6522
5 6 8 0.1761 -0.5268
5 6 9 0.9731 0.0085
5 6 10 0.0844 0.5944
5 6 11 -3.9827 -0.2450
5 6 12 -3.5767 -0.2786
5 7 0 -1.2033 0.0421
5 7 1 1.1443 1.6630
5 7 2 0.5087 0.3515
5 7 3 -2.3216 -1.3237
5 7 4 3.4809 0.3059
5 7 5 2.6915 0.3066
5 7 6 -2.3532 -0.9399
5 7 7 -3.1196 0.2821
5 7 8 -5.7171 0.4011
5 7 9 -2.6372 -0.5061
5 7 10 -5.1891 0.3134
5 7 11 -3.4551 0.2502
5 7 12 5.7900 -0.1993
5 8 0 -0.3607 0.9506
5 8 1 -3.8585 -0.4718
5 8 2 -0.4703 -0.7126
5 8 3 0.9398 -0.1264
5 8 4 -2.4632 0.2187
5 8 5 -4.6223 0.3353
5 8 6 -6.5601 -0.2586
5 8 7 -3.2589 -0.3341
5 8 8 -0.0299 0.4872
5 8 9 -4.9225 0.1782
5 8 10 4.0336 -0.1643
5 8 11 9.7436 0.2749
5 9 0 1.2070 -1.2687
5 9 1 -2.7955 -1.0460
5 9 2 -3.1316 0.5793
5 9 3 -2.8209 0.1997
5 9 4 -2.0901 -1.1826
5 9 5 -1.5862 0.1075
5 9 6 -0.5955 0.5939
5 9 7 -1.1255 -0.1904
5 9 8 1.1373 0.0017
5 9 9 11.8015 0.3723
5 9 10 9.7062 -0.1398
5 10 0 -2.7877 0.2272
5 10 1 -4.2214 0.6594
5 10 2 -4.0308 -0.1912
5 10 3 2.7281 -0.5842
5 10 4 1.5416 0.4743
5 10 5 -0.4545 0.0978
5 10 6 -3.0583 0.0081
5 10 7 -1.7128 0.1183
5 10 8 7.2112 -0.0292
5 10 9 5.2460 -0.1145
5 11 0 -0.3812 0.8190
5 11 1 0.8724 0.1002
5 11 2 3.1501 -0.1383
5 11 3 5.9220 0.9368
5 11 4 4.9347 0.0939
5 11 5 -5.0501 -0.2773
5 11 6 -1.5580 -0.0577
5 11 7 2.3502 0.3648
5 12 0 -6.5807 0.0980
5 12 1 -1.3376 0.2591
5 12 2 1.4130 0.3787
5 12 3 1.8458 -0.3890
5 12 4 -0.3548 -0.2778
5 12 5 -3.9726 0.0018
6 -10 1 1.0150 0.0526
6 -10 2 -2.0232 0.5005
6 -10 3 -1.2931 -0.0387
6 -10 4 -1.0986 -0.1567
6 -9 0 1.3587 0.9020
6 -9 1 -5.1393 -0.1960
6 -9 2 -2.7483 -1.1391
6 -9 3 2.1580 0.8175
6 -9 4 1.9866 0.1702
6 -9 5 -0.6055 -0.7728
6 -9 6 -4.0849 0.3343
6 -9 7 1.0569 0.0434
6 -8 0 -2.4465 -1.2676
6 -8 1 0.4400 0.4922
6 -8 2 0.9061 0.5932
6 -8 3 0.3539 -0.3152
6 -8 4 -0.0002 0.3346
6 -8 5 -1.6154 0.2286
6 -8 6 -1.8952 0.0403
6 -8 7 -4.7202 0.4583
6 -8 8 -1.0827 -0.1882
6 -8 9 2.9340 0.3804
6 -7 0 0.4085 0.1068
6 -7 1 4.1081 0.8584
6 -7 2 -1.1364 0.3690
6 -7 3 -1.6559 -0.8204
6 -7 4 -0.9323 0.1771
6 -7 5 1.6126 0.4902
6 -7 6 -0.4099 -0.4375
6 -7 7 -0.0834 -0.2343
6 -7 8 4.7540 0.4795
6 -7 9 2.6482 -0.1707
6 -7 10 -2.6160 -0.0681
6 -6 0 -1.8767 0.1745
6 -6 1 4.4954 -1.9554
6 -6 2 3.5608 -0.2681
6 -6 3 -0.9065 0.8746
6 -6 4 -2.7114 -0.5548
6 -6 5 -3.3314 0.0513
6 -6 6 3.4378 0.4268
6 -6 7 3.9648 -0.1318
6 -6 8 -2.2549 -0.4534
6 -6 9 -1.3805 0.1265
6 -6 10 0.6392 -0.1131
6 -6 11 -0.5557 0.4072
6 -5 0 -5.0907 -0.8732
6 -5 1 6.7613 -0.0436
6 -5 2 5.6060 0.4430
6 -5 3 -4.8421 0.6239
6 -5 4 -7.9671 0.1049
6 -5 5 0.1972 -0.2800
6 -5 6 4.9417 0.4492
6 -5 7 3.2739 -0.3232
6 -5 8 0.6307 0.0356
6 -5 9 1.2047 -0.0303
6 -5 10 1.0024 0.1189
6 -5 11 2.1340 0.0042
6 -5 12 5.4200 -0.4978
6 -4 0 -5.6114 1.5721
6 -4 1 -3.0228 1.8012
6 -4 2 2.7760 -0.5739
6 -4 3 0.2739 -0.8276
6 -4 4 -3.5163 0.4305
6 -4 5 -1.7761 -0.2023
6 -4 6 3.1710 -1.0336
6 -4 7 3.0737 0.4997
6 -4 8 2.6680 -0.1528
6 -4 9 0.4517 -0.2534
6 -4 10 -1.1192 -0.0405
6 -4 11 -1.3625 -0.1651
6 -4 12 -4.0397 0.0288
6 -3 0 -6.0743 -0.2236
6 -3 1 -2.8306 -0.8127
6 -3 2 3.9613 -0.3910
6 -3 3 0.4447 -0.1414
6 -3 4 -8.5534 -0.0171
6 -3 5 -6.0797 -0.2940
6 -3 6 3.0369 0.1324
6 -3 7 6.2670 -0.2006
6 -3 8 0.8641 -0.0477
6 -3 9 -0.9947 0.0480
6 -3 10 -2.9222 -0.1228
6 -3 11 -4.6849 -0.1568
6 -3 12 2.2933 -0.0053
6 -3 13 3.7531 0.6294
6 -2 0 3.0254 -1.9879
6 -2 1 2.9850 -0.3713
6 -2 2 1.0891 1.5009
6 -2 3 1.4811 -0.1290
6 -2 4 0.3064 -0.9553
6 -2 5 -1.5387 0.4708
6 -2 6 0.7659 -0.1311
6 -2 7 0.7894 -0.2137
6 -2 8 0.2695 0.2579
6 -2 9 -2.3631 -0.2581
6 -2 10 -2.9767 -0.0457
6 -2 11 2.7176 -0.1679
6 -2 12 2.1771 0.0865
6 -2 13 0.2980 0.0493
6 -1 0 0.6455 1.4638
6 -1 1 -0.7948 0.5982
6 -1 2 -1.7578 -0.6835
6 -1 3 -0.8608 -0.1488
6 -1 4 -4.3485 0.2221
6 -1 5 -6.0188 0.0808
6 -1 6 -2.4651 0.1658
6 -1 7 3.7916 0.5451
6 -1 8 2.7446 0.1028
6 -1 9 -0.5628 -0.4463
6 -1 10 1.2491 -0.0456
6 -1 11 0.9358 0.5787
6 -1 12 -0.3510 -0.3002
6 -1 13 -3.5268 0.1086
6 0 0 4.6911 0.7605
6 0 1 10.2615 -1.4360
6 0 2 4.7302 -0.9860
6 0 3 -1.1544 0.9488
6 0 4 -5.2480 0.0512
6 0 5 0.2579 -0.2669
6 0 6 10.3532 0.8988
6 0 7 5.7061 -0.4216
6 0 8 1.2954 -0.4312
6 0 9 4.3208 0.2118
6 0 10 3.4584 -0.3457
6 0 11 1.5809 -0.3422
6 0 12 -2.3051 0.0028
6 0 13 -0.6843 -0.2125
6 1 0 -4.5236 -1.6173
6 1 1 0.8775 0.6021
6 1 2 0.1391 0.6989
6 1 3 -5.5428 -0.0876
6 1 4 -8.5021 0.2530
6 1 5 -4.4579 0.2110
6 1 6 4.1533 -0.1674
6 1 7 6.2399 -0.0304
6 1 8 -0.6092 0.0161
6 1 9 0.1532 0.4131
6 1 10 3.3314 0.0961
6 1 11 -1.7430 -0.2728
6 1 12 -2.1861 0.0827
6 1 13 -3.4679 -0.0577
6 2 0 -12.8005 0.6615
6 2 1 1.1515 1.2735
6 2 2 11.2658 -0.0195
6 2 3 0.3431 -0.6939
6 2 4 -10.6355 0.5204
6 2 5 -6.1115 -0.3694
6 2 6 8.8433 -0.7307
6 2 7 10.2899 0.7477
6 2 8 2.1576 -0.0465
6 2 9 -2.0164 -0.4213
6 2 10 -0.3725 0.5818
6 2 11 2.5874 -0.0048
6 2 12 -1.8277 -0.6184
6 2 13 -2.8831 0.4774
6 3 0 -2.5284 0.4753
6 3 1 4.3216 -1.5429
6 3 2 8.7777 -0.2939
6 3 3 0.0631 -0.0106
6 3 4 -7.4586 -0.3841
6 3 5 -0.2956 0.4695
6 3 6 5.1165 0.0852
6 3 7 6.2059 -0.3736
6 3 8 0.9799 0.3477
6 3 9 -3.2189 -0.2612
6 3 10 0.0729 -0.1302
6 3 11 2.2217 0.4717
6 3 12 0.6887 0.1016
6 3 13 -2.1978 -0.1917
6 4 0 -6.2642 -1.5254
6 4 1 -8.9865 -0.2153
6 4 2 1.1476 0.9109
6 4 3 2.2488 0.2124
6 4 4 -4.3006 -0.7532
6 4 5 -6.6085 0.3739
6 4 6 3.4776 -0.0001
6 4 7 3.9203 -0.8652
6 4 8 -4.4725 0.3144
6 4 9 -5.6376 0.3467
6 4 10 -4.0025 -0.4621
6 4 11 -1.0363 0.5628
6 4 12 0.8014 0.4861
6 4 13 -0.4975 -0.2576
6 5 0 2.3947 1.2220
6 5 1 2.8602 1.0737
6 5 2 3.4495 -0.6302
6 5 3 1.0903 -0.2707
6 5 4 -2.1036 -0.0271
6 5 5 3.4011 -0.5887
6 5 6 7.4405 0.5872
6 5 7 6.3690 0.3594
6 5 8 -1.6255 -0.6031
6 5 9 -4.0496 0.4386
6 5 10 5.0131 -0.0061
6 5 11 5.8746 -0.5284
6 5 12 3.9752 0.3510
6 5 13 4.2157 -0.2399
6 6 0 3.0699 0.8313
6 6 1 -7.5582 -0.7318
6 6 2 -5.9814 -0.7601
6 6 3 -1.5536 0.5162
6 6 4 2.1728 0.6395
6 6 5 0.5942 -0.4202
6 6 6 -0.5952 -0.0795
6 6 7 2.7973 0.4570
6 6 8 -0.8824 -0.4963
6 6 9 -4.9319 -0.5301
6 6 10 -0.5933 0.4953
6 6 11 3.9439 -0.2912
6 6 12 -1.4254 -0.2787
6 7 0 1.5482 -1.3763
6 7 1 -2.4261 0.5213
6 7 2 2.7870 0.9910
6 7 3 3.1217 -0.1851
6 7 4 -3.9544 0.0346
6 7 5 1.0684 0.3816
6 7 6 5.1272 -0.6413
6 7 7 1.9886 0.0870
6 7 8 1.2115 0.5699
6 7 9 -1.4452 -0.3383
6 7 10 2.0522 0.0926
6 7 11 -4.4964 0.4689
6 7 12 -10.7081 -0.3788
6 8 0 8.9003 0.6208
6 8 1 5.4280 0.4954
6 8 2 -0.9996 -0.0750
6 8 3 -0.4266 -0.4545
6 8 4 2.8545 -0.2871
6 8 5 7.9528 0.4432
6 8 6 8.3233 0.0271
6 8 7 -0.9016 -0.3213
6 8 8 -1.3949 0.7060
6 8 9 1.9791 0.1623
6 8 10 -12.7597 -0.4241
6 8 11 -12.0659 0.5401
6 9 0 -0.7124 0.0246
6 9 1 -0.8283 -0.8771
6 9 2 -0.8331 -0.2479
6 9 3 3.3335 0.6100
6 9 4 3.3303 -0.0529
6 9 5 -0.8352 -0.3934
6 9 6 -2.8199 0.7854
6 9 7 -3.1472 -0.3430
6 9 8 -9.4959 -0.6615
6 9 9 -15.0540 0.6376
6 9 10 -2.1366 0.1373
6 10 0 1.3969 -0.2464
6 10 1 6.3320 -0.1523
6 10 2 4.9867 -0.2843
6 10 3 -1.6236 -0.0682
6 10 4 -1.7170 -0.1249
6 10 5 -2.0741 0.0666
6 10 6 0.4236 -0.3126
6 10 7 -3.1269 -0.0109
6 10 8 -7.4433 -0.2263
6 10 9 3.7517 0.4121
6 11 0 -0.3949 -0.0542
6 11 1 -1.0171 0.0508
6 11 2 -2.5276 -0.0439
6 11 3 -4.9300 -0.2854
6 11 4 -2.0922 0.3762
6 11 5 5.1455 -0.3836
6 11 6 -3.1124 -0.1968
6 11 7 -3.0161 0.0504
6 12 1 -0.3650 0.4648
6 12 2 -0.2021 0.1629
6 12 3 0.6071 0.2894
6 12 4 3.3384 -0.3851
7 -9 1 2.5253 0.5225
7 -9 2 -1.5289 -0.2642
7 -9 3 -1.7639 -0.7152
7 -9 4 -0.3730 -0.1705
7 -9 5 0.5015 -0.2969
7 -9 6 2.2213 -0.1447
7 -8 0 -0.8181 -0.6807
7 -8 1 -0.4550 -0.0095
7 -8 2 1.4694 0.1004
7 -8 3 -0.5528 -0.1417
7 -8 4 1.6652 0.1014
7 -8 5 2.9236 -0.1653
7 -8 6 1.9834 0.0475
7 -8 7 4.2634 0.3286
7 -8 8 -0.9013 0.2441
7 -7 0 -3.0690 -0.4545
7 -7 1 -1.0747 -0.1126
7 -7 2 2.9384 1.2815
7 -7 3 1.8745 -0.0265
7 -7 4 -0.7145 -0.7397
7 -7 5 -1.7875 0.5528
7 -7 6 -0.7310 -0.2947
7 -7 7 -4.5103 0.0060
7 -7 8 -6.2220 0.2201
7 -7 9 -1.6066 -0.2309
7 -6 0 -1.7532 2.0956
7 -6 1 -5.4952 0.0338
7 -6 2 -0.4625 -0.7049
7 -6 3 1.7696 0.0663
7 -6 4 -0.3803 -0.0956
7 -6 5 -1.5997 -0.3867
7 -6 6 -5.1736 0.5851
7 -6 7 -1.1282 -0.0490
7 -6 8 3.3515 0.1606
7 -6 9 -0.3553 0.1398
7 -6 10 -1.5595 -0.0036
7 -5 0 1.5121 0.0476
7 -5 1 -5.7402 -0.1654
7 -5 2 -0.0998 -0.6601
7 -5 3 6.1844 0.4321
7 -5 4 4.9452 0.1792
7 -5 5 -1.3240 -0.2252
7 -5 6 -1.9324 0.1017
7 -5 7 0.1414 0.4545
7 -5 8 -0.2824 -0.6633
7 -5 9 -1.5319 0.1201
7 -5 10 -0.5933 0.1209
7 -5 11 -0.7045 0.2154
7 -4 0 4.3124 -1.0119
7 -4 1 -0.7529 1.5736
7 -4 2 -2.7463 0.6437
7 -4 3 2.0663 -0.9927
7 -4 4 2.4525 0.4299
7 -4 5 -1.3403 0.6428
7 -4 6 -4.6763 -0.3846
7 -4 7 -2.7694 -0.3331
7 -4 8 0.4190 0.8131
7 -4 9 1.6209 -0.4866
7 -4 10 0.6172 0.0640
7 -4 11 1.2205 0.5417
7 -4 12 3.4789 -0.0013
7 -3 0 6.0901 0.9274
7 -3 1 -0.4612 -0.2147
7 -3 2 -4.1936 0.0719
7 -3 3 0.3609 0.0807
7 -3 4 6.2216 -0.0785
7 -3 5 2.8537 0.1767
7 -3 6 -2.3595 -0.1660
7 -3 7 -1.2840 -0.0392
7 -3 8 1.6163 -0.2214
7 -3 9 0.9901 0.3862
7 -3 10 3.0902 0.0698
7 -3 11 2.3554 0.0578
7 -3 12 -2.8982 0.2455
7 -2 0 -2.0387 -0.7785
7 -2 1 -2.4935 -1.5729
7 -2 2 -4.9630 0.1326
7 -2 3 -2.5913 0.7972
7 -2 4 2.5877 -0.7233
7 -2 5 2.0929 -0.5004
7 -2 6 -3.7803 0.9459
7 -2 7 -2.6961 -0.3011
7 -2 8 0.9869 -0.3684
7 -2 9 3.6823 0.6398
7 -2 10 1.9800 0.0650
7 -2 11 -2.3994 -0.2512
7 -2 12 -3.4496 -0.0674
7 -2 13 0.2197 0.7566
7 -1 0 -1.1363 -0.1804
7 -1 1 2.2451 0.6757
7 -1 2 2.0184 0.1563
7 -1 3 -0.0475 -0.2799
7 -1 4 0.2790 0.3327
7 -1 5 -1.0392 0.1449
7 -1 6 -2.3072 -0.5212
7 -1 7 -3.2178 0.2591
7 -1 8 0.6916 0.2528
7 -1 9 0.3426 -0.6756
7 -1 10 -1.8535 -0.0533
7 -1 11 -1.7886 0.1039
7 -1 12 1.0336 -0.1595
7 -1 13 3.6665 -0.8343
7 0 0 -5.5014 1.6479
7 0 1 -2.9790 0.8597
7 0 2 1.4112 -0.9287
7 0 3 -2.1947 -0.2710
7 0 4 -3.1146 0.4900
7 0 5 -2.7827 -0.2681
7 0 6 -4.8826 -0.3635
7 0 7 -0.6230 0.2439
7 0 8 -1.5429 -0.0928
7 0 9 -1.9525 0.0847
7 0 10 -1.7076 -0.1256
7 0 11 -0.1968 0.0515
7 0 12 2.1428 0.1103
7 0 13 0.2858 0.0282
7 1 0 -3.8484 -1.1114
7 1 1 0.0792 -0.8758
7 1 2 5.5253 0.3935
7 1 3 4.0992 0.2766
7 1 4 4.3289 -0.3122
7 1 5 -0.1162 0.1238
7 1 6 -5.7589 0.4682
7 1 7 -2.7285 -0.4311
7 1 8 4.9307 -0.0052
7 1 9 -1.0321 0.3434
7 1 10 -2.6666 -0.3193
7 1 11 0.4060 -0.2554
7 1 12 -0.7040 0.6331
7 1 13 0.5990 -0.2752
7 2 0 6.3290 -0.9127
7 2 1 -4.2884 0.9392
7 2 2 0.8238 1.1151
7 2 3 9.0109 -0.2454
7 2 4 5.0306 0.0554
7 2 5 -2.0360 0.2490
7 2 6 -10.6768 -0.1122
7 2 7 -3.5304 0.5239
7 2 8 2.4054 -0.1233
7 2 9 0.0250 -0.5392
7 2 10 -3.5578 0.6004
7 2 11 -1.4975 0.2896
7 2 12 3.0006 -0.5419
7 2 13 2.4311 -0.3253
7 3 0 -2.1652 1.7000
7 3 1 -6.1337 0.4207
7 3 2 -1.8498 -0.7652
7 3 3 4.8812 -0.0285
7 3 4 2.8643 0.1588
7 3 5 -3.3850 -0.1955
7 3 6 -2.7037 -0.2179
7 3 7 -4.5443 0.0630
7 3 8 2.4850 -0.0946
7 3 9 4.7670 -0.1418
7 3 10 1.5270 0.1597
7 3 11 3.2015 0.1695
7 3 12 2.9139 -0.1475
7 3 13 0.0704 0.4561
7 4 0 7.1993 -0.5679
7 4 1 3.7280 -1.5815
7 4 2 -2.3735 -0.1712
7 4 3 4.5841 0.3486
7 4 4 6.7159 -0.3315
7 4 5 0.7316 -0.0221
7 4 6 -6.0978 0.1121
7 4 7 -0.3083 -0.6655
7 4 8 5.5263 0.3218
7 4 9 8.2839 0.4176
7 4 10 7.1095 -0.8710
7 4 11 -0.1637 -0.2594
7 4 12 -2.8091 0.4366
7 4 13 -0.7784 -0.5145
7 5 0 -4.8923 -1.1356
7 5 1 -3.9062 0.6779
7 5 2 -2.2780 0.4772
7 5 3 0.5685 -0.0463
7 5 4 0.6236 -0.2500
7 5 5 -6.6720 -0.0609
7 5 6 -6.0691 0.2065
7 5 7 -0.8324 0.0602
7 5 8 4.5031 -0.2197
7 5 9 2.7509 0.1258
7 5 10 -5.0212 0.0877
7 5 11 -5.2523 -0.4328
7 5 12 -2.0421 0.4520
7 5 13 0.6399 0.9741
7 6 0 -0.1433 1.4502
7 6 1 8.4903 0.2161
7 6 2 0.6402 -1.0573
7 6 3 -3.4424 -0.1067
7 6 4 -0.5384 0.8328
7 6 5 0.2269 -0.2382
7 6 6 -4.5414 0.0255
7 6 7 -3.2055 0.4861
7 6 8 5.5708 -0.8080
7 6 9 5.5731 -0.2753
7 6 10 1.5521 0.5242
7 6 11 1.1885 -0.0175
7 6 12 3.8216 -0.0102
7 7 0 1.1784 -0.4394
7 7 1 2.0409 -0.5714
7 7 2 -2.2055 0.4304
7 7 3 0.4553 0.3527
7 7 4 2.8515 0.0770
7 7 5 -2.4577 0.0203
7 7 6 -3.1091 -0.4367
7 7 7 0.9120 -0.2412
7 7 8 4.3286 0.2171
7 7 9 5.1430 -0.6753
7 7 10 -1.0837 -0.1147
7 7 11 4.2167 0.2864
7 7 12 4.5074 -0.3305
7 8 0 -11.5215 -0.7641
7 8 1 1.0995 1.1714
7 8 2 5.9619 0.8069
7 8 3 -1.5139 -0.9046
7 8 4 -5.0271 -0.2889
7 8 5 -6.2885 0.6576
7 8 6 -3.0571 -0.0616
7 8 7 1.3260 -0.3369
7 8 8 -1.7911 0.1008
7 8 9 -0.9604 -0.1066
7 8 10 8.3583 -0.6560
7 8 11 2.8688 0.3350
7 9 0 5.1902 0.9983
7 9 1 6.7974 -0.4185
7 9 2 1.2737 -0.0585
7 9 3 -2.8360 0.4411
7 9 4 -0.8175 -0.0301
7 9 5 1.8232 -0.0696
7 9 6 3.5128 0.1513
7 9 7 5.2657 0.2240
7 9 8 6.9344 -0.0956
7 9 9 5.3949 0.2643
7 9 10 -4.2341 0.2480
7 10 0 -3.8035 -0.8133
7 10 1 -8.7730 -0.5425
7 10 2 -3.8305 0.4964
7 10 3 1.5287 0.4655
7 10 4 1.7587 -0.4171
7 10 5 1.9689 -0.6067
7 10 6 -0.7670 0.4597
7 10 7 2.7628 0.3908
7 10 8 0.5116 0.0268
7 11 0 -2.0327 -0.4367
7 11 1 0.9758 -0.1667
7 11 2 1.6946 -0.6874
7 11 3 1.7397 -0.3038
7 11 4 -0.7069 0.1320
7 11 5 -3.4820 0.4696
7 11 6 3.0611 -0.4594
7 11 7 -1.4099 0.3364
8 -8 0 2.7918 0.1589
8 -8 1 -0.0396 -0.5456
8 -8 2 -0.5958 -0.2920
8 -8 3 -1.4444 0.0909
8 -8 4 -4.7804 0.4037
8 -8 5 -1.7204 -0.2620
8 -8 6 -0.5451 -0.4611
8 -7 0 1.4713 -0.8544
8 -7 1 -3.9136 -0.6367
8 -7 2 -3.7819 0.0781
8 -7 3 -2.4686 -0.0184
8 -7 4 -0.3838 0.1362
8 -7 5 3.0954 -0.0626
8 -7 6 3.6872 0.1552
8 -7 7 4.3224 -0.2825
8 -7 8 4.1922 0.7300
8 -6 0 2.9182 0.8049
8 -6 1 3.4703 0.4730
8 -6 2 -2.7793 -0.5094
8 -6 3 0.8462 0.5159
8 -6 4 2.3429 -0.0922
8 -6 5 1.5083 0.2616
8 -6 6 4.1913 0.0505
8 -6 7 -1.0900 0.2782
8 -6 8 -3.6711 -0.2724
8 -6 9 0.2110 0.0170
8 -6 10 -0.2095 -0.1814
8 -5 0 3.7868 0.3041
8 -5 1 4.7864 -0.1844
8 -5 2 -3.4316 -0.5319
8 -5 3 -5.5453 0.0563
8 -5 4 -0.6928 0.6029
8 -5 5 0.8860 -0.9119
8 -5 6 -1.3782 0.1903
8 -5 7 -1.1825 0.2886
8 -5 8 -0.8108 -0.2208
8 -5 9 -0.1889 -0.3771
8 -5 10 0.2919 0.2421
8 -5 11 -0.4244 -0.7183
8 -4 0 0.4717 -1.8742
8 -4 1 4.0966 -0.2307
8 -4 2 2.2898 0.5901
8 -4 3 -2.8122 -0.0818
8 -4 4 0.5203 -0.0862
8 -4 5 4.0876 0.5990
8 -4 6 3.7673 -0.0740
8 -4 7 1.0872 0.1476
8 -4 8 -0.7990 0.1556
8 -4 9 -0.3196 0.2765
8 -4 10 0.2073 -0.5327
8 -4 11 -0.6373 0.4113
8 -4 12 -2.1228 0.1832
8 -3 0 -1.4494 0.1584
8 -3 1 1.9193 0.4868
8 -3 2 1.2124 0.4363
8 -3 3 -2.2239 -0.3261
8 -3 4 -4.2055 -0.0745
8 -3 5 2.0487 0.4332
8 -3 6 4.5982 -0.1756
8 -3 7 -1.2423 -0.6486
8 -3 8 -3.0441 0.3470
8 -3 9 0.0921 0.0039
8 -3 10 -0.7537 -0.0678
8 -3 11 -0.9449 -0.3658
8 -3 12 1.2783 0.0977
8 -2 0 1.0560 1.2351
8 -2 1 2.5422 -0.9168
8 -2 2 5.0022 -0.5789
8 -2 3 2.0069 0.4720
8 -2 4 -0.0684 -0.0858
8 -2 5 2.4398 -0.6124
8 -2 6 5.4803 0.1764
8 -2 7 0.8546 0.3913
8 -2 8 -3.9341 -0.6060
8 -2 9 -3.1606 0.3868
8 -2 10 0.4422 0.5770
8 -2 11 1.3989 -0.7038
8 -2 12 1.5408 -0.3070
8 -1 0 -0.2658 -0.9060
8 -1 1 -0.5387 -0.2942
8 -1 2 0.0307 -0.1090
8 -1 3 1.9293 0.1568
8 -1 4 1.5604 -0.2773
8 -1 5 0.9924 -0.1971
8 -1 6 0.1623 -0.0912
8 -1 7 0.5603 0.0159
8 -1 8 -1.3317 0.2738
8 -1 9 -0.5375 -0.0659
8 -1 10 0.3888 -0.0563
8 -1 11 2.9478 0.3331
8 -1 12 -0.1127 -0.2516
8 -1 13 -2.3691 0.8669
8 0 0 -0.1964 0.1335
8 0 1 -2.0989 1.2647
8 0 2 -0.4981 0.0616
8 0 3 3.5110 -0.6387
8 0 4 1.1303 0.2566
8 0 5 -1.3881 0.1738
8 0 6 0.1603 -0.3677
8 0 7 -2.1248 0.2441
8 0 8 -0.0838 0.8332
8 0 9 -0.8805 -0.4964
8 0 10 1.0600 -0.0915
8 0 11 1.3575 0.5179
8 0 12 1.9203 0.0376
8 0 13 0.4662 -0.6685
8 1 0 2.8689 1.0764
8 1 1 -3.5171 -0.1366
8 1 2 -5.2249 -0.4241
8 1 3 -0.8595 0.0131
8 1 4 -1.2786 0.0072
8 1 5 0.8791 0.0524
8 1 6 1.1436 0.4952
8 1 7 -4.2002 0.0119
8 1 8 -7.2673 -0.7020
8 1 9 3.9782 0.5335
8 1 10 2.5525 -0.0489
8 1 11 -1.1063 -0.8024
8 1 12 0.1189 -0.1311
8 1 13 0.7981 0.7016
8 2 0 -1.6962 -1.4623
8 2 1 0.4611 -0.8660
8 2 2 -8.9213 0.6718
8 2 3 -6.7297 0.4193
8 2 4 0.1014 -0.2272
8 2 5 -0.4049 0.1629
8 2 6 2.9649 0.0549
8 2 7 -1.9329 -0.5343
8 2 8 -1.6635 0.0780
8 2 9 -0.4783 0.2082
8 2 10 1.5040 -0.0943
8 2 11 -1.5564 -0.1952
8 2 12 -2.3910 0.1773
8 2 13 1.1320 0.5326
8 3 0 4.6596 0.4015
8 3 1 4.6659 0.7875
8 3 2 -1.5530 0.3400
8 3 3 -4.7547 -0.2757
8 3 4 -0.3708 0.2815
8 3 5 3.8282 0.1462
8 3 6 2.3705 -0.5428
8 3 7 2.4650 0.4114
8 3 8 -6.9598 0.5965
8 3 9 -5.4839 -0.4807
8 3 10 -3.1415 0.1267
8 3 11 -4.5059 0.3688
8 3 12 -1.7130 -0.6704
8 3 13 0.9744 -0.5398
8 4 0 -2.8666 0.8992
8 4 1 3.4444 -0.3200
8 4 2 -0.3607 -0.7670
8 4 3 -7.6283 0.3973
8 4 4 -0.8215 0.0350
8 4 5 6.6799 -0.1437
8 4 6 6.5398 0.2590
8 4 7 -2.1964 0.0750
8 4 8 -2.4523 0.0494
8 4 9 -5.1086 0.2313
8 4 10 -6.6643 -0.0795
8 4 11 0.5706 0.3671
8 4 12 4.9089 0.3979
8 5 0 4.2528 -1.1857
8 5 1 0.9989 -0.8101
8 5 2 2.2109 0.6273
8 5 3 1.9204 0.0112
8 5 4 1.8329 -0.4233
8 5 5 5.0184 0.0699
8 5 6 3.7325 0.4446
8 5 7 1.1805 -0.5225
8 5 8 -4.9031 -0.4549
8 5 9 -1.7308 0.3668
8 5 10 6.9392 -0.0088
8 5 11 5.3352 -0.1606
8 5 12 1.7014 -0.4025
8 6 0 -5.0204 0.2426
8 6 1 -2.7571 0.8112
8 6 2 5.3224 -0.1242
8 6 3 1.3046 -0.2478
8 6 4 -3.3063 0.1122
8 6 5 2.7377 -0.0283
8 6 6 8.2128 -0.3939
8 6 7 1.1411 0.3558
8 6 8 -5.8424 0.2595
8 6 9 -1.0942 -0.1375
8 6 10 1.6454 0.4450
8 6 11 -1.0496 -0.5305
8 6 12 -3.0988 -0.6234
8 7 0 -5.3785 0.4888
8 7 1 -5.8715 -0.1502
8 7 2 -2.0258 -0.7234
8 7 3 -2.6133 -0.0036
8 7 4 -0.0335 0.3889
8 7 5 1.8799 -0.2931
8 7 6 -1.0890 -0.0808
8 7 7 -2.4817 0.6726
8 7 8 -3.7426 0.2330
8 7 9 -4.4156 -0.2087
8 7 10 2.8613 -0.2063
8 7 11 2.0110 0.3511
8 8 0 1.7291 -0.6301
8 8 1 -8.9310 -0.2621
8 8 2 -0.9883 0.6478
8 8 3 7.6741 -0.0022
8 8 4 1.6732 -0.4523
8 8 5 1.3372 0.4594
8 8 6 2.7315 0.0999
8 8 7 1.9006 -0.5809
8 8 8 3.2465 0.4184
8 8 9 3.0427 0.0201
8 8 10 -1.2127 -0.4510
8 9 0 -4.0354 -0.0062
8 9 1 -6.1585 0.1005
8 9 2 -0.7227 -0.0460
8 9 3 2.6611 0.1743
8 9 4 1.8776 -0.0269
8 9 5 -0.1360 -0.2097
8 9 6 -2.1658 -0.2249
8 9 7 -2.9030 -0.4607
8 9 8 -1.0170 -0.1167
8 9 9 -0.3222 0.2438
8 10 0 5.3136 1.7323
8 10 1 4.5367 0.3191
8 10 2 -0.3921 -0.4470
8 10 3 1.2912 0.1840
8 10 4 1.0608 -0.2200
8 10 5 -2.1606 -0.5022
8 10 6 -0.3076 0.3446
8 10 7 -0.6386 0.4840
8 10 8 2.1806 -0.3346
8 11 2 -0.1603 -0.6897
8 11 3 -1.3453 -0.4908
8 11 4 0.5539 0.6199
8 11 5 2.5880 0.4856
9 -7 1 3.2303 -0.4553
9 -7 2 3.1000 0.7185
9 -7 3 3.7630 -0.1126
9 -7 4 -0.8040 -0.6495
9 -7 5 -3.1726 0.6988
9 -7 6 -2.5492 -0.5262
9 -6 0 -2.5424 -0.6059
9 -6 1 -0.4712 0.0029
9 -6 2 -0.3166 0.5996
9 -6 3 -3.0914 0.0338
9 -6 4 -1.0258 0.1423
9 -6 5 -3.7282 -0.1757
9 -6 6 -4.2690 0.1252
9 -6 7 2.4402 -1.1225
9 -6 8 3.0938 0.3826
9 -6 9 1.2430 0.0859
9 -5 0 -6.8573 0.4299
9 -5 1 -3.3002 0.6597
9 -5 2 2.3383 -0.6146
9 -5 3 0.9272 0.4024
9 -5 4 -0.8408 -0.0197
9 -5 5 -0.1498 -0.2755
9 -5 6 0.1821 -0.7817
9 -5 7 1.1090 0.5900
9 -5 8 1.2103 0.4830
9 -5 9 -1.3897 0.7337
9 -5 10 -1.2371 0.4297
9 -4 0 -4.1532 -0.0930
9 -4 1 -4.0941 0.0101
9 -4 2 2.2377 0.5498
9 -4 3 1.9550 -0.6776
9 -4 4 -2.8082 0.4000
9 -4 5 -2.0017 -0.0792
9 -4 6 -2.9460 -0.2923
9 -4 7 -1.9832 0.1067
9 -4 8 1.5080 0.3153
9 -3 0 3.3871 -0.8204
9 -3 1 1.1086 -0.1182
9 -3 2 4.1578 0.5974
9 -3 3 5.4415 -0.1821
9 -3 4 0.2332 -0.5643
9 -3 5 -5.2063 0.7644
9 -3 6 -0.7336 0.0994
9 -3 7 4.8353 -0.4289
9 -3 8 2.4812 0.2643
9 -3 9 -0.7089 0.2896
9 -3 10 0.0769 -0.3796
9 -3 11 1.1778 0.8839
9 -2 0 1.4682 1.2225
9 -2 1 -2.4303 0.2552
9 -2 2 -3.6791 -0.3098
9 -2 3 0.1120 0.5052
9 -2 4 -1.4484 -0.2319
9 -2 5 -3.8688 -0.2833
9 -2 6 -2.5308 0.3717
9 -2 7 2.2345 0.0426
9 -2 8 3.7609 -0.4431
9 -2 9 1.5139 -0.3184
9 -2 10 1.2951 0.4734
9 -2 11 1.6343 0.2067
9 -2 12 -1.0180 0.1710
9 -1 0 -2.2701 0.2081
9 -1 1 -1.4992 -0.5517
9 -1 2 -1.6412 -0.4202
9 -1 3 -0.5667 0.1959
9 -1 4 3.3430 0.1757
9 -1 5 1.2441 -0.7663
9 -1 6 -0.8540 0.2156
9 -1 7 2.4391 0.2261
9 -1 8 5.4143 -0.4508
9 -1 9 1.2144 0.0329
9 -1 10 -1.7296 0.5241
9 -1 11 -3.1077 0.1589
9 -1 12 -0.5118 -0.1594
9 0 0 3.0535 -1.2577
9 0 1 -0.1664 0.2720
9 0 2 -0.8580 0.1285
9 0 3 0.4175 -0.4820
9 0 4 2.8026 0.1213
9 0 5 3.6510 0.4635
9 0 6 2.4740 -0.5483
9 0 7 1.7406 -0.1474
9 0 8 -0.9624 0.4163
9 0 9 1.2607 0.1116
9 0 10 -1.8597 -0.9006
9 0 11 -2.9663 0.0755
9 0 12 -3.5247 -0.0333
9 1 0 -2.0068 0.2271
9 1 1 2.8586 0.5586
9 1 2 1.9132 0.1746
9 1 3 -3.2304 -0.1245
9 1 4 -1.0414 0.3263
9 1 5 0.7035 0.1705
9 1 6 1.6710 -0.1510
9 1 7 3.7350 -0.3061
9 1 8 3.1848 0.2023
9 1 9 -4.1560 -0.0251
9 1 10 0.5531 0.0924
9 1 11 -0.1782 -0.1912
9 1 12 -0.1615 0.5679
9 2 0 1.7033 0.5788
9 2 1 0.1454 -0.9444
9 2 2 3.8815 0.1400
9 2 3 -0.7487 0.4916
9 2 4 0.0914 -0.1781
9 2 5 3.9074 -0.2204
9 2 6 0.1275 0.1211
9 2 7 3.5261 0.2334
9 2 8 -0.1506 -0.5414
9 2 9 -1.6976 0.3028
9 2 10 -0.6445 0.4149
9 2 11 3.7812 -0.2466
9 2 12 -0.9034 -0.0552
9 2 13 -3.8937 0.0299
9 3 0 -4.7678 -1.1740
9 3 1 -3.6837 0.1566
9 3 2 2.0078 0.2003
9 3 3 2.9836 0.2120
9 3 4 -2.8494 -0.3422
9 3 5 -3.6874 -0.1344
9 3 6 -2.4633 0.3989
9 3 7 -2.6694 0.1704
9 3 8 6.6478 0.0978
9 3 9 1.2820 -0.3509
9 3 10 -0.0249 0.2334
9 3 11 1.9841 0.7142
9 3 12 -0.7020 -0.4198
9 4 0 0.6690 1.1884
9 4 1 -2.2731 0.8566
9 4 2 4.1248 -0.1952
9 4 3 2.5254 -0.6764
9 4 4 -7.0166 0.4357
9 4 5 -8.8018 0.3976
9 4 6 -4.4803 -0.1957
9 4 7 -0.0893 -0.2366
9 4 8 -3.7403 -0.0439
9 4 9 1.6171 -0.0852
9 4 10 2.2886 -0.3213
9 4 11 -3.0663 -0.3995
9 4 12 -3.5213 -0.0080
9 5 0 1.9668 0.2989
9 5 1 2.5768 -0.7164
9 5 2 -3.2027 -0.6171
9 5 3 -1.4003 0.4066
9 5 4 -1.2216 -0.1391
9 5 5 -2.9320 -0.3640
9 5 6 0.0268 -0.1411
9 5 7 1.4279 0.0002
9 5 8 4.1492 0.1543
9 5 9 0.2572 0.5780
9 5 10 -4.1610 -0.3455
9 5 11 -3.6460 -0.3153
9 5 12 -2.6601 1.3733
9 6 0 6.2618 -1.0171
9 6 1 -1.1001 -0.1852
9 6 2 -4.1362 0.1732
9 6 3 1.2862 -0.1690
9 6 4 3.4072 -0.2918
9 6 5 -4.4822 -0.3169
9 6 6 -6.1409 0.3727
9 6 7 3.5115 0.2380
9 6 8 3.6687 -0.1486
9 6 9 -4.5663 -0.0629
9 6 10 -2.0977 0.1021
9 6 11 2.5411 -0.0253
9 7 0 6.6449 0.5648
9 7 1 6.7255 0.9251
9 7 2 0.4114 -0.1764
9 7 3 -0.5156 -0.1588
9 7 4 -0.3812 0.6057
9 7 5 1.8183 0.4291
9 7 6 2.0093 -0.0551
9 7 7 2.0698 0.3363
9 7 8 5.1220 -0.0377
9 7 9 2.8942 -0.5964
9 7 10 -4.9465 0.3409
9 7 11 -0.2842 -0.2913
9 8 0 4.6512 -0.3032
9 8 1 3.2544 -0.1577
9 8 2 -5.4875 0.3062
9 8 3 -5.4425 0.0183
9 8 4 2.4581 0.3960
9 8 5 -0.0433 0.3014
9 8 6 -2.2933 -0.3103
9 8 7 -2.0770 -0.6355
9 8 8 -0.8170 -0.2745
9 8 9 -1.2085 0.4319
9 8 10 -0.7687 -0.0759
9 9 0 0.5405 -0.3281
9 9 1 4.2480 -0.6578
9 9 2 -0.0249 0.4348
9 9 3 -3.5469 -0.3520
9 9 4 -4.2669 -0.6894
9 9 5 -0.8515 0.1432
9 9 6 1.8787 0.0013
9 9 7 0.4840 -0.2497
9 9 8 -1.5938 0.4020
9 10 2 -1.0575 -0.4094
9 10 3 -4.2195 0.5648
9 10 4 1.5646 0.4001
9 10 5 3.4739 0.0858
9 10 6 0.3703 0.1414
10 -6 3 1.2877 0.3766
10 -6 4 0.0177 -1.3131
10 -6 5 3.6206 0.3687
10 -6 6 2.7759 0.6471
10 -5 1 2.0098 0.8180
10 -5 2 -1.2845 -0.7542
10 -5 3 -1.5919 -0.2115
10 -5 4 0.5744 1.5786
10 -5 5 0.3371 -0.3437
10 -5 6 -0.0148 1.3834
10 -5 7 -0.6605 0.1384
10 -5 8 -1.1762 -1.4791
10 -4 0 2.3057 0.1718
10 -4 1 -0.1107 -0.3951
10 -4 2 -2.0810 -0.6569
10 -4 3 -0.4003 -0.0864
10 -4 4 0.5650 -0.1223
10 -4 5 0.3223 0.4277
10 -4 6 0.9318 -0.6918
10 -4 7 -1.1950 -0.1604
10 -4 8 -2.7179 -0.6756
10 -4 9 -1.6793 0.3166
10 -3 0 -4.4204 -0.0721
10 -3 1 -2.3300 -0.6321
10 -3 2 -3.7173 0.5766
10 -3 3 -1.5279 -0.3786
10 -3 4 0.9270 -0.2840
10 -3 5 1.5806 0.5734
10 -3 6 -2.1982 0.2389
10 -3 7 -4.8709 -0.5218
10 -3 8 -1.1615 0.4074
10 -3 9 1.6316 0.2921
10 -3 10 -0.3351 -0.6843
10 -2 0 1.8871 -0.1850
10 -2 1 5.5496 -0.1893
10 -2 2 1.7940 -0.0773
10 -2 3 0.0238 0.6859
10 -2 4 3.4410 -0.0110
10 -2 5 2.4797 -0.0497
10 -2 6 2.5642 0.6617
10 -2 7 0.8442 -0.3884
10 -2 8 -1.5643 -0.3338
10 -2 9 -0.0585 0.3444
10 -2 10 -1.3776 -0.1068
10 -2 11 -1.7404 -0.0328
10 -1 0 4.4785 0.7369
10 -1 1 2.8108 0.4125
10 -1 2 0.2772 -0.4001
10 -1 3 -2.3713 0.4851
10 -1 4 -0.9537 0.4247
10 -1 5 3.3279 -0.4590
10 -1 6 0.6125 -0.3928
10 -1 7 -5.0018 0.6377
10 -1 8 -5.5110 -0.3759
10 -1 9 -0.2749 -0.1683
10 -1 10 3.2299 0.3841
10 -1 11 4.1435 -0.2304
10 0 0 -1.9277 -0.3901
10 0 1 4.2533 -0.4305
10 0 2 1.5469 -0.0454
10 0 3 -2.3554 -0.1888
10 0 4 -1.9747 0.3364
10 0 5 -2.5570 -0.2748
10 0 6 -3.6034 -0.2418
10 0 7 0.1247 0.0853
10 0 8 4.0925 0.4175
10 0 9 0.7890 -0.3736
10 0 10 1.6258 0.1988
10 0 11 2.0097 0.3601
10 1 0 2.7514 -0.7584
10 1 1 -2.9218 0.2096
10 1 2 0.6948 0.3269
10 1 3 2.7814 -0.6839
10 1 4 -2.2198 -0.4083
10 1 5 -0.7327 0.6572
10 1 6 1.9426 -0.2550
10 1 7 -0.9352 0.0273
10 1 8 -2.0896 0.0438
10 1 9 1.1536 -0.0071
10 1 10 -2.7882 -0.2562
10 1 11 0.4848 0.4467
10 1 12 -0.1686 -0.3178
10 2 0 -4.3483 0.8019
10 2 1 1.6180 0.4535
10 2 2 0.2661 -0.4243
10 2 3 3.3873 0.1408
10 2 4 -0.0235 -0.1465
10 2 5 -2.9414 0.1340
10 2 6 -2.2159 0.7428
10 2 7 -5.3643 -0.2814
10 2 8 1.5044 -0.0629
10 2 9 3.3380 -0.1161
10 2 10 0.4933 0.3905
10 2 11 -4.2046 -0.4492
10 2 12 0.3686 -0.5974
10 3 0 5.6617 0.2485
10 3 1 2.0252 -1.0334
10 3 2 -2.8665 0.4047
10 3 3 0.1656 0.3907
10 3 4 4.0048 0.1866
10 3 5 -1.3202 0.0048
10 3 6 0.4056 -0.0918
10 3 7 3.0468 0.0568
10 3 8 -3.6692 -0.2991
10 3 9 2.6182 -0.1621
10 3 10 0.3987 -0.6354
10 3 11 -1.5679 0.0768
10 3 12 0.0089 0.8408
10 4 0 -4.0481 -0.8107
10 4 1 -0.8677 0.5911
10 4 2 -3.8261 -0.2339
10 4 3 0.6527 0.1330
10 4 4 6.4760 0.0982
10 4 5 7.1431 -0.1551
10 4 6 3.1841 -0.1635
10 4 7 0.3278 0.1479
10 4 8 4.1775 0.4770
10 4 9 0.6590 -0.0184
10 4 10 1.2017 0.2157
10 4 11 1.6264 1.3302
10 5 0 -5.0751 1.0203
10 5 1 -2.1438 0.2106
10 5 2 2.4893 0.1374
10 5 3 0.1773 -0.2755
10 5 4 3.3154 0.2242
10 5 5 0.1081 0.0286
10 5 6 -6.3827 -0.0646
10 5 7 -4.5457 0.1130
10 5 8 -3.9051 -0.0055
10 5 9 -1.0725 0.0594
10 5 10 0.4356 0.3416
10 5 11 0.7686 -0.5257
10 6 0 -3.8937 0.0620
10 6 1 2.4317 -0.2924
10 6 2 3.8553 -0.0837
10 6 3 1.2403 -0.0895
10 6 4 -3.6270 -0.6131
10 6 5 0.4258 0.2181
10 6 6 1.2665 0.4142
10 6 7 -3.8415 -0.0730
10 6 8 0.4468 -0.5248
10 6 9 5.2435 -0.0004
10 6 10 0.5175 0.3193
10 7 0 -2.5278 -1.0095
10 7 1 0.8170 -0.5411
10 7 2 4.2795 -0.4227
10 7 3 -2.2977 -0.1776
10 7 4 -2.0341 0.4421
10 7 5 -0.1071 -0.1447
10 7 6 -0.0207 -0.7585
10 7 7 -2.7038 -0.6304
10 7 8 -3.4833 0.2049
10 7 9 0.3848 0.0910
10 8 0 -0.7265 0.0320
10 8 1 0.6856 0.2106
10 8 2 2.3987 0.6921
10 8 3 0.2281 0.2592
10 8 4 -2.8762 -0.5045
10 8 5 0.6433 -0.6274
10 8 6 0.0651 -0.0636
10 8 7 -1.1457 1.2651
10 8 8 -1.8743 0.9690
10 9 2 2.3588 0.3175
10 9 3 5.4081 0.3788
10 9 4 1.8556 0.0027
10 9 5 -1.2869 1.0924
10 9 6 0.6678 1.2937
11 -4 3 -2.2283 -0.5261
11 -4 4 -1.1147 1.2070
11 -4 5 1.5987 -0.1254
11 -4 6 0.8256 -0.5410
11 -4 7 0.7846 1.0534
11 -3 1 -3.0493 -0.2428
11 -3 2 -0.7842 0.8966
11 -3 3 0.2576 0.2222
11 -3 4 -0.3504 -1.7335
11 -3 5 0.0973 0.4149
11 -3 6 1.6991 0.2726
11 -3 7 0.1932 -0.2732
11 -3 8 -1.6243 0.3687
11 -2 0 -3.6511 0.0132
11 -2 1 -3.7425 0.1670
11 -2 2 -0.6357 -0.1899
11 -2 3 0.2043 -0.2439
11 -2 4 -2.9278 -0.4391
11 -2 5 -3.4200 -0.2824
11 -2 6 -2.2220 0.3820
11 -2 7 -0.1850 -0.2279
11 -2 8 -1.9611 -0.5753
11 -2 9 -2.9520 0.3826
11 -1 0 -1.8591 0.1796
11 -1 1 0.8895 0.1503
11 -1 2 2.5895 -0.8402
11 -1 3 1.0002 0.0600
11 -1 4 -1.1110 0.4938
11 -1 5 -2.3851 -1.1062
11 -1 6 1.0503 0.0938
11 -1 7 6.4642 0.5624
11 -1 8 6.2063 -0.2287
11 -1 9 0.7988 -0.4257
11 -1 10 -1.2069 0.6255
11 0 0 0.0460 0.1266
11 0 1 -4.1303 0.2570
11 0 2 0.4120 -0.0628
11 0 3 0.6990 -0.8364
11 0 4 -0.3715 -0.1220
11 0 5 3.5868 0.4040
11 0 6 3.9551 -0.8556
11 0 7 0.4281 0.2728
11 0 8 -0.1299 -0.0825
11 0 9 -0.2129 -0.3377
11 0 10 -2.1077 -0.1408
11 1 0 -2.9871 -0.2155
11 1 1 2.3350 -0.1570
11 1 2 0.3868 -0.0061
11 1 3 2.0832 -0.3473
11 1 4 2.3902 -0.2002
11 1 5 -0.4506 0.5043
11 1 6 0.4380 0.1761
11 1 7 1.2244 -0.8565
11 1 8 0.6691 1.0121
11 1 9 2.7403 0.4381
11 1 10 5.1946 -0.3250
11 2 0 4.1682 -0.6169
11 2 1 -2.3034 -0.6951
11 2 2 0.4754 0.3556
11 2 3 -3.5188 0.1747
11 2 4 -2.3050 0.0756
11 2 5 0.4209 0.3641
11 2 6 3.9260 0.1934
11 2 7 4.8831 -0.0644
11 2 8 -2.9915 -0.4142
11 2 9 -2.5843 0.4825
11 2 10 0.5102 -0.9960
11 3 0 -6.8436 0.5567
11 3 1 -0.5433 0.6476
11 3 2 0.0227 -0.5080
11 3 3 -2.9116 0.9002
11 3 4 -1.2099 0.0604
11 3 5 3.6211 -0.7930
11 3 6 -1.1495 0.1599
11 3 7 -0.5394 -0.0431
11 3 8 1.2468 -0.1708
11 3 9 -7.4436 -0.0169
11 3 10 -0.8800 0.7337
11 4 0 3.8705 0.4110
11 4 1 -0.3702 -0.1782
11 4 2 4.4161 0.7030
11 4 3 0.8145 -0.5574
11 4 4 -3.9467 -0.0136
11 4 5 -4.7989 -0.3162
11 4 6 -0.7928 -0.3252
11 4 7 0.0072 0.4378
11 4 8 -4.0457 -0.3458
11 4 9 -2.8399 -0.0488
11 4 10 -3.2355 -0.1359
11 5 0 2.9290 -0.8039
11 5 1 0.7343 0.6424
11 5 2 -1.0511 -0.0621
11 5 3 -1.0945 -0.2536
11 5 4 -5.3032 -0.4078
11 5 5 3.4200 0.6347
11 5 6 7.6066 0.0846
11 5 7 2.6004 -0.3281
11 5 8 3.1582 0.5095
11 5 9 1.6817 0.3617
11 5 10 0.2776 -0.1049
11 6 0 0.9654 0.6222
11 6 1 -4.0583 0.0274
11 6 2 -5.1642 0.3268
11 6 3 0.2640 0.5284
11 6 4 7.5489 0.1762
11 6 5 0.6976 -0.5026
11 6 6 -0.2494 -0.1851
11 6 7 2.7416 0.0264
11 6 8 -2.6937 0.4404
11 6 9 -3.8427 0.1000
11 7 2 -1.0376 -0.1607
11 7 3 6.0563 -0.3684
11 7 4 0.8917 -0.8387
11 7 5 -2.2079 -0.5708
11 7 6 -1.0878 0.7672
11 7 7 1.6348 0.9273
12 -2 4 1.9541 -0.2114
12 -2 5 -1.1584 -0.3897
12 -1 3 -1.6851 -0.2342
12 -1 4 0.6955 0.8805
12 -1 5 0.7066 0.5908
12 -1 6 -2.9290 -0.1685
12 -1 7 -5.8579 0.6161
12 0 2 -0.0413 0.1764
12 0 3 1.9072 0.6785
12 0 4 2.4182 0.7846
12 0 5 -0.7989 -0.2092
12 0 6 -3.9339 -0.6985
12 0 7 -3.7593 -0.4585
12 0 8 -0.0167 0.7692
12 1 2 0.3314 0.5460
12 1 3 -2.0762 -0.2206
12 1 4 -1.6931 -1.1279
12 1 5 -1.1529 -0.4723
12 1 6 -1.1325 -0.6928
12 1 7 0.9799 -0.0668
12 1 8 1.1865 -0.0245
12 2 2 -3.0203 -0.6235
12 2 3 3.4690 -0.6993
12 2 4 2.5422 -1.2035
12 2 5 0.1035 -0.4473
12 2 6 -1.1384 0.8082
12 2 7 -0.8713 -0.1887
12 2 8 2.3112 -0.1050
12 3 1 -1.6160 -0.8648
12 3 2 1.1349 0.0378
12 3 3 2.3748 -0.5315
12 3 4 0.7605 0.6274
12 3 5 -2.8783 0.5495
12 3 6 -0.5026 0.6826
12 3 7 -0.3129 0.7181
12 3 8 3.7043 -0.6414
12 4 2 -6.1304 -0.0971
12 4 3 -2.3468 1.2888
12 4 4 1.6532 0.6264
12 4 5 1.4802 0.5278
12 4 6 -1.6422 -0.1909
12 4 7 0.5152 -0.0029
12 4 8 3.0415 0.4501
12 5 3 0.8494 0.2592
12 5 4 3.9236 0.8225
12 5 5 -2.8431 -0.3505
12 5 6 -3.3999 -0.8369
12 5 7 -3.0977 -0.4859
12 6 4 -6.6575 -0.3581
0 0 0 0.0 0.0
;
_shelx_fab_checksum              94556
_ins_header
;
TITL exp_1009_scale in P-1 
REM P-1 (#2 in standard setting)
CELL 1.54184  15.235166  15.610077  16.933913  86.7925  67.5705  80.6752
ZERR    1.00   0.001173   0.000969   0.001495   0.0061   0.0077   0.0058
LATT  1
SFAC C H B N O Cl W Au
UNIT 116.00 114.00 4.00 28.00 8.00 4.00 4.00 4.00
TREF
HKLF 4
END
;
_olex2_submission_special_instructions 'No special instructions were received'
_oxdiff_exptl_absorpt_empirical_details
;
Empirical correction (ABSPACK) includes:
- Absorption correction using spherical harmonics
- Frame scaling
;
_oxdiff_exptl_absorpt_empirical_full_max 1.418
_oxdiff_exptl_absorpt_empirical_full_min 0.600
loop_
_space_group_symop_operation_xyz
'x, y, z'
'-x, -y, -z'
loop_
_atom_site_label
_atom_site_type_symbol
_atom_site_fract_x
_atom_site_fract_y
_atom_site_fract_z
_atom_site_U_iso_or_equiv
_atom_site_adp_type
_atom_site_occupancy
_atom_site_site_symmetry_order
_atom_site_calc_flag
_atom_site_refinement_flags_posn
_atom_site_refinement_flags_adp
_atom_site_refinement_flags_occupancy
_atom_site_disorder_assembly
_atom_site_disorder_group
Au2 Au 0.09227(9) 0.56915(8) 0.39177(8) 0.1135(6) Uani 1 1 d . . . . .
W2 W 0.22408(10) 0.66620(9) 0.40073(9) 0.1162(6) Uani 1 1 d . . . . .
Au1 Au 1.16294(10) 0.20008(9) 0.17324(9) 0.1338(7) Uani 1 1 d . . . . .
W1 W 1.12751(11) 0.22807(10) 0.02621(9) 0.1255(7) Uani 1 1 d . . . . .
Cl2 Cl -0.0467(5) 0.5652(5) 0.3706(5) 0.139(3) Uani 1 1 d . . . . .
Cl1 Cl 1.2668(7) 0.2078(6) 0.2400(6) 0.179(4) Uani 1 1 d . . . . .
O4 O 0.2222(16) 0.6414(13) 0.5827(14) 0.135(8) Uani 1 1 d . . . . .
N13 N 0.5366(15) 0.1036(12) 0.4274(13) 0.097(6) Uani 1 1 d . . . . .
H13 H 0.519821 0.059236 0.458819 0.116 Uiso 0.5 1 calc R U P . .
N14 N 0.3594(15) 0.0596(13) 0.5480(14) 0.108(7) Uani 1 1 d . . . . .
H14 H 0.416271 0.030790 0.525530 0.129 Uiso 0.5 1 calc R U P . .
O2 O 1.1319(15) 0.0397(15) -0.0266(14) 0.157(9) Uani 1 1 d . . . . .
C40 C 1.143(3) 0.105(2) 0.000(3) 0.178(14) Uani 1 1 d . . . . .
N9 N 0.0841(19) 0.7587(15) 0.4551(19) 0.134(8) Uani 1 1 d . . . . .
O3 O 0.4345(15) 0.5609(15) 0.3161(14) 0.163(9) Uani 1 1 d . . . . .
N3 N 1.2849(17) 0.2146(15) -0.0263(15) 0.126(7) Uani 1 1 d . . . . .
N7 N 0.2977(18) 0.7802(16) 0.3954(17) 0.131(8) Uani 1 1 d . . . . .
C9 C 0.629(2) 0.1164(19) 0.3716(17) 0.111(9) Uani 1 1 d . . . . .
N1 N 1.149(2) 0.2690(18) -0.1049(18) 0.153(8) Uani 1 1 d . . . . .
N5 N 1.132(2) 0.3608(17) 0.0460(19) 0.152(8) Uani 1 1 d . . . . .
C17 C 0.282(2) 0.0304(18) 0.6086(19) 0.097(8) Uani 1 1 d . . . . .
O1 O 0.9125(17) 0.2769(15) 0.0539(14) 0.174(9) Uani 1 1 d . . . . .
C13 C 0.380(2) 0.2023(19) 0.4725(18) 0.106(8) Uani 1 1 d . . . . .
C42 C 0.366(2) 0.605(2) 0.3461(19) 0.117(9) Uani 1 1 d . . . . .
C18 C 0.336(2) 0.288(2) 0.4572(18) 0.110(9) Uani 1 1 d . . . . .
N6 N 1.203(3) 0.412(2) -0.014(2) 0.173(9) Uani 1 1 d . . . . .
C19 C 0.279(2) 0.3045(18) 0.4094(17) 0.118(9) Uani 1 1 d . . . . .
H19 H 0.268023 0.258142 0.384091 0.142 Uiso 1 1 calc R U . . .
C20 C 0.239(2) 0.3854(19) 0.3985(19) 0.128(10) Uani 1 1 d . . . . .
H20 H 0.201710 0.392499 0.365489 0.154 Uiso 1 1 calc R U . . .
N4 N 1.327(2) 0.279(2) -0.0719(19) 0.168(11) Uani 1 1 d . . . . .
C10 C 0.629(2) 0.2022(17) 0.3309(18) 0.121(9) Uani 1 1 d . . . . .
H10 H 0.681537 0.227354 0.295013 0.145 Uiso 1 1 calc R U . . .
C8 C 0.714(2) 0.0528(18) 0.3565(19) 0.116(9) Uani 1 1 d . . . . .
C12 C 0.477(2) 0.1811(17) 0.4198(17) 0.105(8) Uani 1 1 d . . . . .
C23 C 0.347(2) 0.3608(18) 0.4922(18) 0.122(9) Uani 1 1 d . . . . .
H23 H 0.381240 0.351788 0.527651 0.147 Uiso 1 1 calc R U . . .
C7 C 0.938(2) 0.1590(17) 0.276(2) 0.124(9) Uani 1 1 d . . . . .
H7 H 0.965154 0.194828 0.299542 0.148 Uiso 1 1 calc R U . . .
C5 C 0.811(2) 0.0810(16) 0.297(2) 0.105(8) Uani 1 1 d . . . . .
C6 C 0.856(2) 0.1276(17) 0.328(2) 0.123(9) Uani 1 1 d . . . . .
H6 H 0.831375 0.139521 0.386288 0.148 Uiso 1 1 calc R U . . .
N10 N 0.086(2) 0.8377(18) 0.416(2) 0.175(9) Uani 1 1 d . . . . .
N2 N 1.217(3) 0.331(2) -0.143(2) 0.188(11) Uani 1 1 d . . . . .
C2 C 0.984(2) 0.1372(19) 0.184(2) 0.132(10) Uani 1 1 d . . . . .
C11 C 0.535(2) 0.2354(19) 0.3585(17) 0.114(9) Uani 1 1 d . . . . .
H11 H 0.510956 0.287650 0.339637 0.137 Uiso 1 1 calc R U . . .
C1 C 1.0590(18) 0.1814(16) 0.121(2) 0.110(5) Uani 1 1 d . . . . .
C44 C 0.428(2) 0.7275(19) 0.445(2) 0.166(13) Uani 1 1 d . . . . .
H44A H 0.397269 0.716301 0.505126 0.249 Uiso 1 1 calc R U . . .
H44B H 0.487544 0.748370 0.435238 0.249 Uiso 1 1 calc R U . . .
H44C H 0.441323 0.674852 0.413408 0.249 Uiso 1 1 calc R U . . .
C49 C 0.003(3) 0.755(2) 0.527(2) 0.132(10) Uani 1 1 d . . . . .
C14 C 0.328(2) 0.1488(19) 0.5281(19) 0.108(8) Uani 1 1 d . . . . .
C22 C 0.312(2) 0.4469(18) 0.481(2) 0.141(11) Uani 1 1 d . . . . .
H22 H 0.327483 0.492879 0.502548 0.169 Uiso 1 1 calc R U . . .
C41 C 1.003(3) 0.268(2) 0.040(2) 0.165(10) Uani 1 1 d . . . . .
C3 C 0.926(2) 0.0963(19) 0.161(2) 0.128(10) Uani 1 1 d . . . . .
H3 H 0.944240 0.088780 0.102254 0.153 Uiso 1 1 calc R U . . .
C15 C 0.226(2) 0.1665(19) 0.5812(19) 0.128(10) Uani 1 1 d . . . . .
H15 H 0.185177 0.218395 0.584276 0.154 Uiso 1 1 calc R U . . .
C45 C 0.365(2) 0.794(2) 0.418(2) 0.130(10) Uani 1 1 d . . . . .
C16 C 0.202(2) 0.0933(17) 0.6250(17) 0.118(10) Uani 1 1 d . . . . .
H16 H 0.140460 0.086252 0.661471 0.142 Uiso 1 1 calc R U . . .
C4 C 0.845(2) 0.0647(19) 0.211(2) 0.144(12) Uani 1 1 d . . . . .
H4 H 0.813877 0.033193 0.187596 0.172 Uiso 1 1 calc R U . . .
C27 C 1.138(4) 0.305(3) -0.229(3) 0.209(18) Uani 1 1 d . . . . .
H27 H 1.119372 0.304558 -0.275129 0.250 Uiso 1 1 calc R U . . .
B1 B 1.269(3) 0.351(3) -0.090(3) 0.154(9) Uani 1 1 d D . . . .
H1 H 1.323(4) 0.394(3) -0.134(3) 0.185 Uiso 1 1 calc DR U . . .
N8 N 0.263(2) 0.8542(17) 0.3649(18) 0.151(9) Uani 1 1 d . . . . .
C46 C 0.375(3) 0.881(2) 0.401(2) 0.148(11) Uani 1 1 d . . . . .
H46 H 0.422590 0.906623 0.406816 0.178 Uiso 1 1 calc R U . . .
C31 C 1.353(2) 0.147(2) -0.0206(18) 0.113(9) Uani 1 1 d . . . . .
C47 C 0.304(3) 0.924(2) 0.374(2) 0.159(13) Uani 1 1 d . . . . .
C48 C -0.0137(19) 0.6843(17) 0.580(2) 0.151(12) Uani 1 1 d . . . . .
H48A H 0.000331 0.632776 0.546139 0.227 Uiso 1 1 calc R U . . .
H48B H -0.079723 0.691741 0.618477 0.227 Uiso 1 1 calc R U . . .
H48C H 0.027033 0.678926 0.611958 0.227 Uiso 1 1 calc R U . . .
C28 C 1.201(3) 0.351(3) -0.222(3) 0.170(12) Uani 1 1 d . . . . .
C30 C 1.340(2) 0.0623(17) 0.0241(18) 0.177(14) Uani 1 1 d . . . . .
H30A H 1.401795 0.029332 0.015697 0.266 Uiso 1 1 calc R U . . .
H30B H 1.304022 0.072410 0.084048 0.266 Uiso 1 1 calc R U . . .
H30C H 1.305876 0.030531 0.001307 0.266 Uiso 1 1 calc R U . . .
C51 C -0.006(3) 0.888(2) 0.456(3) 0.199(16) Uani 1 1 d . . . . .
C53 C 0.277(2) 0.569(2) 0.189(2) 0.185(13) Uani 1 1 d . . . . .
H53A H 0.324770 0.547215 0.212623 0.277 Uiso 1 1 calc R U . . .
H53B H 0.302940 0.556539 0.129001 0.277 Uiso 1 1 calc R U . . .
H53C H 0.221601 0.540438 0.216654 0.277 Uiso 1 1 calc R U . . .
C36 C 1.081(4) 0.424(3) 0.108(3) 0.174(13) Uani 1 1 d . . . . .
C50 C -0.048(2) 0.831(2) 0.516(3) 0.193(15) Uani 1 1 d . . . . .
H50 H -0.112844 0.844770 0.550658 0.232 Uiso 1 1 calc R U . . .
N11 N 0.227(2) 0.708(2) 0.278(2) 0.164(9) Uani 1 1 d . . . . .
C32 C 1.446(3) 0.176(2) -0.067(2) 0.179(14) Uani 1 1 d . . . . .
H32 H 1.507671 0.149688 -0.071608 0.215 Uiso 1 1 calc R U . . .
C26 C 1.106(3) 0.261(3) -0.160(3) 0.154(11) Uani 1 1 d . . . . .
C35 C 1.000(3) 0.405(2) 0.181(2) 0.214(18) Uani 1 1 d . . . . .
H35A H 1.018441 0.396059 0.229675 0.322 Uiso 1 1 calc R U . . .
H35B H 0.979018 0.354287 0.170308 0.322 Uiso 1 1 calc R U . . .
H35C H 0.949128 0.453611 0.192425 0.322 Uiso 1 1 calc R U . . .
C54 C 0.247(3) 0.671(3) 0.205(3) 0.164(11) Uani 1 1 d . . . . .
C37 C 1.111(4) 0.502(3) 0.087(3) 0.192(14) Uani 1 1 d . . . . .
H37 H 1.081414 0.552172 0.119105 0.231 Uiso 1 1 calc R U . . .
C024 C 0.287(3) 1.0112(19) 0.343(3) 0.26(2) Uani 1 1 d . . . . .
H02A H 0.336405 1.017231 0.287482 0.387 Uiso 1 1 calc R U . . .
H02B H 0.289650 1.052475 0.381657 0.387 Uiso 1 1 calc R U . . .
H02C H 0.225601 1.021487 0.338483 0.387 Uiso 1 1 calc R U . . .
C55 C 0.234(3) 0.742(3) 0.146(3) 0.246(18) Uani 1 1 d D . . . .
H55 H 0.250400 0.734420 0.087403 0.295 Uiso 1 1 calc R U . . .
C38 C 1.193(4) 0.497(3) 0.011(4) 0.23(2) Uani 1 1 d . . . . .
C52 C -0.037(3) 0.9763(19) 0.432(3) 0.32(3) Uani 1 1 d . . . . .
H52A H 0.015108 0.995217 0.384503 0.479 Uiso 1 1 calc R U . . .
H52B H -0.090841 0.976325 0.415730 0.479 Uiso 1 1 calc R U . . .
H52C H -0.054944 1.015056 0.479410 0.479 Uiso 1 1 calc R U . . .
C34 C 1.497(3) 0.301(2) -0.168(3) 0.28(2) Uani 1 1 d . . . . .
H34A H 1.494695 0.295829 -0.223081 0.413 Uiso 1 1 calc R U . . .
H34B H 1.559004 0.274618 -0.168914 0.413 Uiso 1 1 calc R U . . .
H34C H 1.485913 0.361085 -0.152415 0.413 Uiso 1 1 calc R U . . .
C43 C 0.220(2) 0.647(2) 0.522(2) 0.120(10) Uani 1 1 d . . . . .
C29 C 1.265(3) 0.428(3) -0.268(3) 0.26(2) Uani 1 1 d . . . . .
H29A H 1.259377 0.469872 -0.225794 0.393 Uiso 1 1 calc R U . . .
H29B H 1.242795 0.456896 -0.309917 0.393 Uiso 1 1 calc R U . . .
H29C H 1.331692 0.403332 -0.295413 0.393 Uiso 1 1 calc R U . . .
B2 B 0.170(4) 0.861(3) 0.341(4) 0.176(10) Uani 1 1 d D . . . .
H2 H 0.152(4) 0.931(3) 0.318(4) 0.211 Uiso 1 1 calc DR U . . .
C57 C 0.161(4) 0.914(2) 0.164(3) 0.34(3) Uani 1 1 d D . . . .
H57A H 0.161661 0.912462 0.106996 0.517 Uiso 1 1 calc R U . . .
H57B H 0.097138 0.935703 0.202668 0.517 Uiso 1 1 calc R U . . .
H57C H 0.204265 0.952018 0.165141 0.517 Uiso 1 1 calc R U . . .
C25 C 1.036(3) 0.202(3) -0.147(2) 0.209(16) Uani 1 1 d . . . . .
H25A H 1.069210 0.145825 -0.170634 0.314 Uiso 1 1 calc R U . . .
H25B H 0.993332 0.224598 -0.175609 0.314 Uiso 1 1 calc R U . . .
H25C H 0.999443 0.196580 -0.087270 0.314 Uiso 1 1 calc R U . . .
C39 C 1.259(3) 0.550(2) -0.043(3) 0.248(19) Uani 1 1 d . . . . .
H39A H 1.314367 0.543607 -0.028154 0.372 Uiso 1 1 calc R U . . .
H39B H 1.228907 0.609161 -0.036643 0.372 Uiso 1 1 calc R U . . .
H39C H 1.278516 0.531849 -0.101647 0.372 Uiso 1 1 calc R U . . .
C33 C 1.418(3) 0.254(3) -0.100(3) 0.188(17) Uani 1 1 d . . . . .
N12 N 0.202(2) 0.797(2) 0.266(2) 0.192(10) Uani 1 1 d . . . . .
C21 C 0.2510(18) 0.4606(19) 0.4346(18) 0.107(8) Uani 1 1 d . . . . .
C24 C 0.2187(16) 0.5456(17) 0.4183(18) 0.110(5) Uani 1 1 d . . . . .
C56 C 0.193(3) 0.822(2) 0.191(3) 0.246(18) Uani 1 1 d D . . . .
loop_
_atom_site_aniso_label
_atom_site_aniso_U_11
_atom_site_aniso_U_22
_atom_site_aniso_U_33
_atom_site_aniso_U_23
_atom_site_aniso_U_13
_atom_site_aniso_U_12
Au2 0.0967(11) 0.1239(11) 0.1289(12) 0.0114(8) -0.0582(9) -0.0066(8)
W2 0.1025(12) 0.1194(12) 0.1386(14) 0.0252(9) -0.0627(10) -0.0155(9)
Au1 0.1328(13) 0.1559(13) 0.1185(12) -0.0040(9) -0.0509(10) -0.0280(10)
W1 0.1241(14) 0.1435(14) 0.1108(13) -0.0022(10) -0.0464(10) -0.0203(11)
Cl2 0.093(6) 0.170(7) 0.173(8) 0.006(6) -0.078(5) -0.008(5)
Cl1 0.169(8) 0.236(10) 0.165(8) -0.005(7) -0.098(7) -0.033(7)
O4 0.139(18) 0.132(16) 0.126(17) 0.002(14) -0.048(15) -0.007(13)
N13 0.096(14) 0.094(13) 0.091(16) -0.019(11) -0.033(12) 0.007(11)
N14 0.084(14) 0.109(15) 0.13(2) -0.009(13) -0.038(13) -0.009(12)
O2 0.118(17) 0.19(2) 0.129(18) 0.000(16) -0.018(13) -0.003(16)
C40 0.12(2) 0.15(2) 0.18(3) 0.019(15) 0.05(2) -0.045(16)
N9 0.128(15) 0.097(14) 0.20(2) 0.035(14) -0.092(13) -0.026(12)
O3 0.110(17) 0.20(2) 0.15(2) -0.037(15) -0.028(15) 0.013(14)
N3 0.123(13) 0.130(17) 0.14(2) 0.056(14) -0.064(13) -0.041(11)
N7 0.106(17) 0.120(13) 0.18(2) 0.014(14) -0.070(15) -0.015(13)
C9 0.107(14) 0.120(19) 0.08(2) -0.006(15) -0.020(15) 0.004(13)
N1 0.18(2) 0.16(2) 0.153(17) 0.000(14) -0.113(15) 0.014(15)
N5 0.19(2) 0.142(17) 0.14(2) 0.013(13) -0.093(16) -0.011(13)
C17 0.075(16) 0.070(17) 0.14(3) -0.020(14) -0.036(15) -0.003(13)
O1 0.144(16) 0.21(2) 0.16(2) -0.010(16) -0.068(17) 0.003(17)
C13 0.105(15) 0.103(16) 0.10(2) -0.009(13) -0.033(13) 0.014(13)
C42 0.100(17) 0.14(2) 0.10(2) -0.019(16) -0.020(14) -0.024(12)
C18 0.12(2) 0.108(15) 0.10(2) -0.005(14) -0.051(15) 0.008(14)
N6 0.24(3) 0.17(2) 0.16(2) 0.046(15) -0.122(16) -0.040(16)
C19 0.14(3) 0.111(15) 0.11(2) -0.001(18) -0.069(18) 0.005(17)
C20 0.12(2) 0.112(15) 0.16(3) 0.003(18) -0.07(2) -0.003(17)
N4 0.138(18) 0.18(2) 0.18(3) 0.108(18) -0.055(19) -0.058(15)
C10 0.120(16) 0.13(2) 0.11(2) 0.008(16) -0.037(18) -0.009(16)
C8 0.105(15) 0.09(2) 0.15(2) -0.032(18) -0.039(16) -0.004(12)
C12 0.117(14) 0.094(18) 0.08(2) -0.006(14) -0.029(14) 0.012(13)
C23 0.13(2) 0.111(16) 0.13(2) -0.014(17) -0.066(19) 0.015(17)
C7 0.13(2) 0.11(2) 0.150(17) -0.010(18) -0.068(16) -0.025(17)
C5 0.107(16) 0.055(18) 0.144(19) -0.036(17) -0.038(15) 0.007(13)
C6 0.14(2) 0.09(2) 0.15(2) -0.018(18) -0.057(16) -0.025(16)
N10 0.171(18) 0.107(18) 0.30(2) 0.062(17) -0.137(17) -0.057(14)
N2 0.23(3) 0.20(3) 0.16(2) 0.024(17) -0.12(2) -0.025(19)
C2 0.14(2) 0.14(2) 0.144(17) -0.019(16) -0.070(15) -0.053(17)
C11 0.118(17) 0.14(2) 0.09(2) 0.015(16) -0.049(17) -0.012(15)
C1 0.065(11) 0.108(11) 0.186(15) -0.005(9) -0.083(10) -0.008(9)
C44 0.14(3) 0.18(3) 0.22(4) 0.00(2) -0.12(3) -0.02(2)
C49 0.13(2) 0.11(2) 0.18(3) 0.005(17) -0.087(15) -0.003(17)
C14 0.117(16) 0.102(17) 0.11(2) -0.015(14) -0.046(15) -0.011(14)
C22 0.13(3) 0.108(16) 0.21(3) 0.002(19) -0.10(2) 0.001(17)
C41 0.161(17) 0.21(3) 0.16(2) -0.01(2) -0.108(17) 0.004(18)
C3 0.10(2) 0.17(3) 0.130(19) -0.002(18) -0.053(16) -0.055(17)
C15 0.114(16) 0.118(19) 0.14(3) 0.006(17) -0.045(16) 0.008(15)
C45 0.10(2) 0.15(2) 0.14(3) 0.00(2) -0.050(19) -0.021(18)
C16 0.097(15) 0.12(2) 0.11(2) -0.005(16) -0.021(15) 0.027(14)
C4 0.13(2) 0.15(3) 0.146(19) -0.04(2) -0.024(17) -0.07(2)
C27 0.27(5) 0.25(5) 0.13(3) 0.00(3) -0.11(3) -0.02(3)
B1 0.18(3) 0.16(2) 0.15(2) 0.076(17) -0.088(16) -0.053(16)
N8 0.154(19) 0.116(16) 0.20(2) 0.026(17) -0.095(18) -0.023(16)
C46 0.15(3) 0.15(2) 0.16(3) 0.00(2) -0.07(2) -0.04(2)
C31 0.125(17) 0.13(2) 0.10(2) 0.025(16) -0.066(19) -0.032(14)
C47 0.15(3) 0.132(17) 0.21(4) 0.02(2) -0.07(2) -0.036(19)
C48 0.11(2) 0.11(2) 0.20(3) 0.010(18) -0.03(2) 0.007(19)
C28 0.20(4) 0.17(3) 0.13(2) -0.01(2) -0.08(2) 0.042(19)
C30 0.21(3) 0.15(2) 0.14(3) 0.06(2) -0.05(3) -0.01(2)
C51 0.18(2) 0.07(2) 0.39(5) 0.05(2) -0.14(2) -0.043(16)
C53 0.17(3) 0.26(2) 0.14(3) 0.02(2) -0.06(2) -0.07(3)
C36 0.22(4) 0.15(2) 0.17(3) -0.001(19) -0.109(19) -0.01(2)
C50 0.105(18) 0.10(2) 0.41(5) 0.05(2) -0.131(18) -0.040(14)
N11 0.18(2) 0.19(2) 0.170(17) 0.053(15) -0.093(17) -0.095(18)
C32 0.126(16) 0.23(3) 0.17(3) 0.07(3) -0.05(2) -0.036(18)
C26 0.17(3) 0.17(3) 0.14(3) -0.01(2) -0.10(3) 0.038(18)
C35 0.27(4) 0.14(3) 0.19(3) -0.08(2) -0.04(2) -0.02(3)
C54 0.15(3) 0.25(2) 0.15(2) 0.068(17) -0.08(2) -0.11(2)
C37 0.26(4) 0.15(2) 0.22(4) 0.00(2) -0.15(2) -0.02(2)
C024 0.20(4) 0.12(2) 0.53(7) 0.09(3) -0.21(4) -0.09(3)
C55 0.35(5) 0.27(3) 0.21(2) 0.14(2) -0.17(3) -0.21(4)
C38 0.27(4) 0.14(2) 0.28(5) 0.05(2) -0.12(3) -0.03(2)
C52 0.23(4) 0.09(2) 0.72(10) 0.13(4) -0.28(5) -0.07(2)
C34 0.16(3) 0.25(4) 0.35(6) 0.13(4) -0.02(3) -0.09(3)
C43 0.10(2) 0.12(2) 0.116(17) -0.031(14) -0.032(15) 0.050(15)
C29 0.35(5) 0.26(4) 0.23(4) 0.09(3) -0.16(4) -0.06(3)
B2 0.19(2) 0.12(2) 0.27(3) 0.100(16) -0.147(17) -0.05(2)
C57 0.56(8) 0.26(3) 0.43(6) 0.25(4) -0.39(6) -0.24(4)
C25 0.16(4) 0.31(4) 0.16(3) -0.05(3) -0.07(3) -0.03(3)
C39 0.33(5) 0.21(3) 0.27(5) 0.09(3) -0.18(4) -0.11(3)
C33 0.138(18) 0.19(3) 0.22(4) 0.08(3) -0.05(3) -0.06(2)
N12 0.22(3) 0.20(2) 0.24(2) 0.099(16) -0.175(19) -0.10(2)
C21 0.067(19) 0.107(13) 0.13(2) -0.002(14) -0.028(15) 0.005(14)
C24 0.065(11) 0.108(11) 0.186(15) -0.005(9) -0.083(10) -0.008(9)
C56 0.33(5) 0.25(3) 0.30(3) 0.14(2) -0.25(4) -0.15(3)
loop_
_atom_type_symbol
_atom_type_description
_atom_type_scat_dispersion_real
_atom_type_scat_dispersion_imag
_atom_type_scat_source
C C 0.0181 0.0091 'International Tables Vol C Tables 4.2.6.8 and 6.1.1.4'
H H 0.0000 0.0000 'International Tables Vol C Tables 4.2.6.8 and 6.1.1.4'
Au Au -4.4197 7.2980 'International Tables Vol C Tables 4.2.6.8 and 6.1.1.4'
B B 0.0090 0.0039 'International Tables Vol C Tables 4.2.6.8 and 6.1.1.4'
Cl Cl 0.3639 0.7018 'International Tables Vol C Tables 4.2.6.8 and 6.1.1.4'
N N 0.0311 0.0180 'International Tables Vol C Tables 4.2.6.8 and 6.1.1.4'
O O 0.0492 0.0322 'International Tables Vol C Tables 4.2.6.8 and 6.1.1.4'
W W -5.4734 5.5774 'International Tables Vol C Tables 4.2.6.8 and 6.1.1.4'
loop_
_exptl_crystal_face_index_h
_exptl_crystal_face_index_k
_exptl_crystal_face_index_l
_exptl_crystal_face_perp_dist
-1 -10 -2 0.0215
1 10 2 0.0215
8 0 -2 0.0593
-8 0 2 0.0593
-8 1 -9 0.0112
8 -1 9 0.0112
0 -9 -4 0.0224
0 9 4 0.0224
loop_
_geom_angle_atom_site_label_1
_geom_angle_atom_site_label_2
_geom_angle_atom_site_label_3
_geom_angle
_geom_angle_site_symmetry_1
_geom_angle_site_symmetry_3
_geom_angle_publ_flag
Cl2 Au2 W2 148.3(2) . . ?
C24 Au2 W2 43.5(7) . . ?
C24 Au2 Cl2 168.1(7) . . ?
N9 W2 Au2 77.6(6) . . ?
N7 W2 Au2 160.3(7) . . ?
N7 W2 N9 86.7(9) . . ?
C42 W2 Au2 113.7(8) . . ?
C42 W2 N9 167.8(10) . . ?
C42 W2 N7 81.3(11) . . ?
C42 W2 N11 90.6(12) . . ?
N11 W2 Au2 82.3(7) . . ?
N11 W2 N9 86.4(11) . . ?
N11 W2 N7 84.9(10) . . ?
C43 W2 Au2 104.1(11) . . ?
C43 W2 N9 88.5(11) . . ?
C43 W2 N7 87.1(13) . . ?
C43 W2 C42 92.8(12) . . ?
C43 W2 N11 170.8(13) . . ?
C24 W2 Au2 49.9(7) . . ?
C24 W2 N9 117.4(9) . . ?
C24 W2 N7 149.8(9) . . ?
C24 W2 C42 74.6(11) . . ?
C24 W2 N11 112.8(12) . . ?
C24 W2 C43 76.4(13) . . ?
Cl1 Au1 W1 146.7(3) . . ?
C1 Au1 W1 39.6(9) . . ?
C1 Au1 Cl1 173.3(9) . . ?
C40 W1 Au1 94.6(14) . . ?
C40 W1 N3 86.9(13) . . ?
C40 W1 N1 93.8(15) . . ?
C40 W1 N5 171.8(13) . . ?
N3 W1 Au1 79.7(6) . . ?
N1 W1 Au1 159.1(8) . . ?
N1 W1 N3 81.6(10) . . ?
N5 W1 Au1 84.5(7) . . ?
N5 W1 N3 84.9(10) . . ?
N5 W1 N1 84.5(10) . . ?
C1 W1 Au1 51.5(8) . . ?
C1 W1 C40 74.5(13) . . ?
C1 W1 N3 124.7(9) . . ?
C1 W1 N1 149.4(11) . . ?
C1 W1 N5 110.7(12) . . ?
C1 W1 C41 75.4(13) . . ?
C41 W1 Au1 116.2(11) . . ?
C41 W1 C40 103.7(18) . . ?
C41 W1 N3 159.5(13) . . ?
C41 W1 N1 80.2(13) . . ?
C41 W1 N5 84.0(14) . . ?
C9 N13 H13 128.2 . . ?
C9 N13 C12 104(2) . . ?
C12 N13 H13 128.2 . . ?
C17 N14 H14 126.3 . . ?
C17 N14 C14 107(2) . . ?
C14 N14 H14 126.3 . . ?
O2 C40 W1 159(4) . . ?
N10 N9 W2 114(2) . . ?
N10 N9 C49 113(3) . . ?
C49 N9 W2 132(2) . . ?
N4 N3 W1 119(2) . . ?
N4 N3 C31 111(3) . . ?
C31 N3 W1 130(2) . . ?
C45 N7 W2 134(3) . . ?
C45 N7 N8 110(3) . . ?
N8 N7 W2 116(2) . . ?
N13 C9 C10 112(3) . . ?
N13 C9 C8 124(3) . . ?
C8 C9 C10 124(3) . . ?
N2 N1 W1 117(2) . . ?
C26 N1 W1 136(3) . . ?
C26 N1 N2 106(4) . . ?
N6 N5 W1 124(2) . . ?
C36 N5 W1 136(3) . . ?
C36 N5 N6 99(3) . . ?
N14 C17 C8 123(3) . 2_656 ?
N14 C17 C16 109(3) . . ?
C16 C17 C8 128(3) . 2_656 ?
C12 C13 C18 114(3) . . ?
C14 C13 C18 121(3) . . ?
C14 C13 C12 125(3) . . ?
O3 C42 W2 168(3) . . ?
C19 C18 C13 125(3) . . ?
C23 C18 C13 121(3) . . ?
C23 C18 C19 114(3) . . ?
N5 N6 B1 107(3) . . ?
C38 N6 N5 115(4) . . ?
C38 N6 B1 138(5) . . ?
C18 C19 H19 119.0 . . ?
C20 C19 C18 122(3) . . ?
C20 C19 H19 119.0 . . ?
C19 C20 H20 118.2 . . ?
C19 C20 C21 124(3) . . ?
C21 C20 H20 118.2 . . ?
N3 N4 B1 119(3) . . ?
C33 N4 N3 108(3) . . ?
C33 N4 B1 133(4) . . ?
C9 C10 H10 128.5 . . ?
C11 C10 C9 103(3) . . ?
C11 C10 H10 128.5 . . ?
C9 C8 C5 117(3) . . ?
C17 C8 C9 127(3) 2_656 . ?
C17 C8 C5 116(3) 2_656 . ?
N13 C12 C11 109(3) . . ?
C13 C12 N13 124(3) . . ?
C13 C12 C11 127(3) . . ?
C18 C23 H23 116.3 . . ?
C18 C23 C22 127(3) . . ?
C22 C23 H23 116.3 . . ?
C6 C7 H7 119.2 . . ?
C6 C7 C2 122(3) . . ?
C2 C7 H7 119.2 . . ?
C6 C5 C8 121(3) . . ?
C6 C5 C4 120(4) . . ?
C4 C5 C8 119(3) . . ?
C7 C6 H6 119.1 . . ?
C5 C6 C7 122(4) . . ?
C5 C6 H6 119.1 . . ?
N9 N10 C51 108(3) . . ?
N9 N10 B2 124(3) . . ?
C51 N10 B2 128(3) . . ?
N1 N2 B1 115(3) . . ?
C28 N2 N1 101(4) . . ?
C28 N2 B1 144(4) . . ?
C1 C2 C7 125(3) . . ?
C3 C2 C7 110(3) . . ?
C3 C2 C1 121(3) . . ?
C10 C11 C12 112(3) . . ?
C10 C11 H11 124.1 . . ?
C12 C11 H11 124.1 . . ?
W1 C1 Au1 88.9(11) . . ?
C2 C1 Au1 110(2) . . ?
C2 C1 W1 161(2) . . ?
H44A C44 H44B 109.5 . . ?
H44A C44 H44C 109.5 . . ?
H44B C44 H44C 109.5 . . ?
C45 C44 H44A 109.5 . . ?
C45 C44 H44B 109.5 . . ?
C45 C44 H44C 109.5 . . ?
N9 C49 C48 124(3) . . ?
C50 C49 N9 98(3) . . ?
C50 C49 C48 137(4) . . ?
C13 C14 N14 128(3) . . ?
C13 C14 C15 127(3) . . ?
C15 C14 N14 105(3) . . ?
C23 C22 H22 121.7 . . ?
C23 C22 C21 117(3) . . ?
C21 C22 H22 121.7 . . ?
O1 C41 W1 166(3) . . ?
C2 C3 H3 115.5 . . ?
C2 C3 C4 129(3) . . ?
C4 C3 H3 115.5 . . ?
C14 C15 H15 126.5 . . ?
C16 C15 C14 107(3) . . ?
C16 C15 H15 126.5 . . ?
N7 C45 C44 127(4) . . ?
N7 C45 C46 106(4) . . ?
C46 C45 C44 127(4) . . ?
C17 C16 H16 124.5 . . ?
C15 C16 C17 111(3) . . ?
C15 C16 H16 124.5 . . ?
C5 C4 H4 121.3 . . ?
C3 C4 C5 117(3) . . ?
C3 C4 H4 121.3 . . ?
C28 C27 H27 126.1 . . ?
C26 C27 H27 126.1 . . ?
C26 C27 C28 108(5) . . ?
N6 B1 H1 104.2 . . ?
N4 B1 N6 117(4) . . ?
N4 B1 N2 114(4) . . ?
N4 B1 H1 104.2 . . ?
N2 B1 N6 112(4) . . ?
N2 B1 H1 104.2 . . ?
N7 N8 C47 112(3) . . ?
N7 N8 B2 122(3) . . ?
C47 N8 B2 125(3) . . ?
C45 C46 H46 124.2 . . ?
C47 C46 C45 112(4) . . ?
C47 C46 H46 124.2 . . ?
N3 C31 C30 130(3) . . ?
N3 C31 C32 106(3) . . ?
C32 C31 C30 124(3) . . ?
N8 C47 C46 100(3) . . ?
N8 C47 C024 126(4) . . ?
C46 C47 C024 133(4) . . ?
C49 C48 H48A 109.5 . . ?
C49 C48 H48B 109.5 . . ?
C49 C48 H48C 109.5 . . ?
H48A C48 H48B 109.5 . . ?
H48A C48 H48C 109.5 . . ?
H48B C48 H48C 109.5 . . ?
N2 C28 C29 106(4) . . ?
C27 C28 N2 111(5) . . ?
C27 C28 C29 143(5) . . ?
C31 C30 H30A 109.5 . . ?
C31 C30 H30B 109.5 . . ?
C31 C30 H30C 109.5 . . ?
H30A C30 H30B 109.5 . . ?
H30A C30 H30C 109.5 . . ?
H30B C30 H30C 109.5 . . ?
N10 C51 C52 126(4) . . ?
C50 C51 N10 99(3) . . ?
C50 C51 C52 135(4) . . ?
H53A C53 H53B 109.5 . . ?
H53A C53 H53C 109.5 . . ?
H53B C53 H53C 109.5 . . ?
C54 C53 H53A 109.5 . . ?
C54 C53 H53B 109.5 . . ?
C54 C53 H53C 109.5 . . ?
N5 C36 C35 121(5) . . ?
C37 C36 N5 112(5) . . ?
C37 C36 C35 127(5) . . ?
C49 C50 H50 119.5 . . ?
C51 C50 C49 121(4) . . ?
C51 C50 H50 119.5 . . ?
C54 N11 W2 136(3) . . ?
C54 N11 N12 106(4) . . ?
N12 N11 W2 118(3) . . ?
C31 C32 H32 129.8 . . ?
C33 C32 C31 100(3) . . ?
C33 C32 H32 129.8 . . ?
N1 C26 C25 124(4) . . ?
C27 C26 N1 114(5) . . ?
C27 C26 C25 122(5) . . ?
C36 C35 H35A 109.5 . . ?
C36 C35 H35B 109.5 . . ?
C36 C35 H35C 109.5 . . ?
H35A C35 H35B 109.5 . . ?
H35A C35 H35C 109.5 . . ?
H35B C35 H35C 109.5 . . ?
N11 C54 C53 124(4) . . ?
N11 C54 C55 106(4) . . ?
C55 C54 C53 130(4) . . ?
C36 C37 H37 124.1 . . ?
C36 C37 C38 112(5) . . ?
C38 C37 H37 124.1 . . ?
C47 C024 H02A 109.5 . . ?
C47 C024 H02B 109.5 . . ?
C47 C024 H02C 109.5 . . ?
H02A C024 H02B 109.5 . . ?
H02A C024 H02C 109.5 . . ?
H02B C024 H02C 109.5 . . ?
C54 C55 H55 124.7 . . ?
C56 C55 C54 111(4) . . ?
C56 C55 H55 124.7 . . ?
N6 C38 C37 101(5) . . ?
N6 C38 C39 118(6) . . ?
C39 C38 C37 141(6) . . ?
C51 C52 H52A 109.5 . . ?
C51 C52 H52B 109.5 . . ?
C51 C52 H52C 109.5 . . ?
H52A C52 H52B 109.5 . . ?
H52A C52 H52C 109.5 . . ?
H52B C52 H52C 109.5 . . ?
H34A C34 H34B 109.5 . . ?
H34A C34 H34C 109.5 . . ?
H34B C34 H34C 109.5 . . ?
C33 C34 H34A 109.5 . . ?
C33 C34 H34B 109.5 . . ?
C33 C34 H34C 109.5 . . ?
O4 C43 W2 175(4) . . ?
C28 C29 H29A 109.5 . . ?
C28 C29 H29B 109.5 . . ?
C28 C29 H29C 109.5 . . ?
H29A C29 H29B 109.5 . . ?
H29A C29 H29C 109.5 . . ?
H29B C29 H29C 109.5 . . ?
N10 B2 N8 111(4) . . ?
N10 B2 H2 110.1 . . ?
N10 B2 N12 112(4) . . ?
N8 B2 H2 110.1 . . ?
N12 B2 N8 104(4) . . ?
N12 B2 H2 110.1 . . ?
H57A C57 H57B 109.5 . . ?
H57A C57 H57C 109.5 . . ?
H57B C57 H57C 109.5 . . ?
C56 C57 H57A 109.5 . . ?
C56 C57 H57B 109.5 . . ?
C56 C57 H57C 109.5 . . ?
C26 C25 H25A 109.5 . . ?
C26 C25 H25B 109.5 . . ?
C26 C25 H25C 109.5 . . ?
H25A C25 H25B 109.5 . . ?
H25A C25 H25C 109.5 . . ?
H25B C25 H25C 109.5 . . ?
C38 C39 H39A 109.5 . . ?
C38 C39 H39B 109.5 . . ?
C38 C39 H39C 109.5 . . ?
H39A C39 H39B 109.5 . . ?
H39A C39 H39C 109.5 . . ?
H39B C39 H39C 109.5 . . ?
N4 C33 C32 115(4) . . ?
N4 C33 C34 127(4) . . ?
C32 C33 C34 118(4) . . ?
N11 N12 B2 120(3) . . ?
C56 N12 N11 118(4) . . ?
C56 N12 B2 121(4) . . ?
C22 C21 C20 116(3) . . ?
C24 C21 C20 125(3) . . ?
C24 C21 C22 118(3) . . ?
W2 C24 Au2 86.6(10) . . ?
C21 C24 Au2 117.7(19) . . ?
C21 C24 W2 156(2) . . ?
C55 C56 C57 133(5) . . ?
N12 C56 C55 98(4) . . ?
N12 C56 C57 128(4) . . ?
loop_
_geom_bond_atom_site_label_1
_geom_bond_atom_site_label_2
_geom_bond_distance
_geom_bond_site_symmetry_2
_geom_bond_publ_flag
Au2 W2 2.7560(19) . ?
Au2 Cl2 2.288(7) . ?
Au2 C24 2.11(2) . ?
W2 N9 2.27(3) . ?
W2 N7 2.23(3) . ?
W2 C42 2.09(3) . ?
W2 N11 2.14(3) . ?
W2 C43 2.04(3) . ?
W2 C24 1.90(3) . ?
Au1 W1 2.740(2) . ?
Au1 Cl1 2.288(9) . ?
Au1 C1 2.15(2) . ?
W1 C40 1.95(4) . ?
W1 N3 2.19(2) . ?
W1 N1 2.19(3) . ?
W1 N5 2.14(3) . ?
W1 C1 1.75(3) . ?
W1 C41 1.83(4) . ?
O4 C43 1.03(3) . ?
N13 H13 0.8600 . ?
N13 C9 1.40(3) . ?
N13 C12 1.42(3) . ?
N14 H14 0.8600 . ?
N14 C17 1.36(3) . ?
N14 C14 1.46(3) . ?
O2 C40 1.20(4) . ?
N9 N10 1.37(3) . ?
N9 C49 1.37(3) . ?
O3 C42 1.10(3) . ?
N3 N4 1.32(3) . ?
N3 C31 1.38(3) . ?
N7 C45 1.27(3) . ?
N7 N8 1.35(3) . ?
C9 C10 1.47(3) . ?
C9 C8 1.44(3) . ?
N1 N2 1.47(4) . ?
N1 C26 1.34(4) . ?
N5 N6 1.48(3) . ?
N5 C36 1.39(4) . ?
C17 C8 1.40(3) 2_656 ?
C17 C16 1.38(3) . ?
O1 C41 1.29(4) . ?
C13 C18 1.46(3) . ?
C13 C12 1.40(3) . ?
C13 C14 1.33(3) . ?
C18 C19 1.38(3) . ?
C18 C23 1.37(3) . ?
N6 B1 1.56(5) . ?
N6 C38 1.37(5) . ?
C19 H19 0.9300 . ?
C19 C20 1.35(3) . ?
C20 H20 0.9300 . ?
C20 C21 1.42(3) . ?
N4 B1 1.42(4) . ?
N4 C33 1.28(4) . ?
C10 H10 0.9300 . ?
C10 C11 1.35(3) . ?
C8 C5 1.56(4) . ?
C12 C11 1.42(3) . ?
C23 H23 0.9300 . ?
C23 C22 1.39(3) . ?
C7 H7 0.9300 . ?
C7 C6 1.37(3) . ?
C7 C2 1.48(4) . ?
C5 C6 1.32(3) . ?
C5 C4 1.38(4) . ?
C6 H6 0.9300 . ?
N10 C51 1.42(4) . ?
N10 B2 1.51(5) . ?
N2 B1 1.49(5) . ?
N2 C28 1.44(4) . ?
C2 C1 1.47(4) . ?
C2 C3 1.35(3) . ?
C11 H11 0.9300 . ?
C44 H44A 0.9600 . ?
C44 H44B 0.9600 . ?
C44 H44C 0.9600 . ?
C44 C45 1.47(4) . ?
C49 C48 1.38(4) . ?
C49 C50 1.35(3) . ?
C14 C15 1.46(3) . ?
C22 H22 0.9300 . ?
C22 C21 1.41(3) . ?
C3 H3 0.9300 . ?
C3 C4 1.35(3) . ?
C15 H15 0.9300 . ?
C15 C16 1.35(3) . ?
C45 C46 1.39(4) . ?
C16 H16 0.9300 . ?
C4 H4 0.9300 . ?
C27 H27 0.9300 . ?
C27 C28 1.34(5) . ?
C27 C26 1.28(5) . ?
B1 H1 1.15(2) . ?
N8 C47 1.38(4) . ?
N8 B2 1.60(5) . ?
C46 H46 0.9300 . ?
C46 C47 1.39(4) . ?
C31 C30 1.49(3) . ?
C31 C32 1.48(4) . ?
C47 C024 1.45(4) . ?
C48 H48A 0.9600 . ?
C48 H48B 0.9600 . ?
C48 H48C 0.9600 . ?
C28 C29 1.65(5) . ?
C30 H30A 0.9600 . ?
C30 H30B 0.9600 . ?
C30 H30C 0.9600 . ?
C51 C50 1.35(4) . ?
C51 C52 1.47(4) . ?
C53 H53A 0.9600 . ?
C53 H53B 0.9600 . ?
C53 H53C 0.9600 . ?
C53 C54 1.60(5) . ?
C36 C35 1.42(5) . ?
C36 C37 1.35(5) . ?
C50 H50 0.9300 . ?
N11 C54 1.30(4) . ?
N11 N12 1.39(4) . ?
C32 H32 0.9300 . ?
C32 C33 1.39(4) . ?
C26 C25 1.48(5) . ?
C35 H35A 0.9600 . ?
C35 H35B 0.9600 . ?
C35 H35C 0.9600 . ?
C54 C55 1.49(5) . ?
C37 H37 0.9300 . ?
C37 C38 1.41(6) . ?
C024 H02A 0.9600 . ?
C024 H02B 0.9600 . ?
C024 H02C 0.9600 . ?
C55 H55 0.9300 . ?
C55 C56 1.42(2) . ?
C38 C39 1.41(5) . ?
C52 H52A 0.9600 . ?
C52 H52B 0.9600 . ?
C52 H52C 0.9600 . ?
C34 H34A 0.9600 . ?
C34 H34B 0.9600 . ?
C34 H34C 0.9600 . ?
C34 C33 1.56(4) . ?
C29 H29A 0.9600 . ?
C29 H29B 0.9600 . ?
C29 H29C 0.9600 . ?
B2 H2 1.15(2) . ?
B2 N12 1.55(5) . ?
C57 H57A 0.9600 . ?
C57 H57B 0.9600 . ?
C57 H57C 0.9600 . ?
C57 C56 1.55(2) . ?
C25 H25A 0.9600 . ?
C25 H25B 0.9600 . ?
C25 H25C 0.9600 . ?
C39 H39A 0.9600 . ?
C39 H39B 0.9600 . ?
C39 H39C 0.9600 . ?
N12 C56 1.36(4) . ?
C21 C24 1.39(3) . ?
loop_
_geom_torsion_atom_site_label_1
_geom_torsion_atom_site_label_2
_geom_torsion_atom_site_label_3
_geom_torsion_atom_site_label_4
_geom_torsion
_geom_torsion_site_symmetry_1
_geom_torsion_site_symmetry_2
_geom_torsion_site_symmetry_3
_geom_torsion_site_symmetry_4
_geom_torsion_publ_flag
Au2 W2 C24 C21 176(6) . . . . ?
W2 N9 N10 C51 180(2) . . . . ?
W2 N9 N10 B2 3(5) . . . . ?
W2 N9 C49 C48 -7(5) . . . . ?
W2 N9 C49 C50 -180(2) . . . . ?
W2 N7 C45 C44 10(6) . . . . ?
W2 N7 C45 C46 -177(2) . . . . ?
W2 N7 N8 C47 172(2) . . . . ?
W2 N7 N8 B2 4(4) . . . . ?
W2 N11 C54 C53 2(6) . . . . ?
W2 N11 C54 C55 -179(3) . . . . ?
W2 N11 N12 B2 -2(4) . . . . ?
W2 N11 N12 C56 -173(3) . . . . ?
Au1 W1 C1 C2 -173(7) . . . . ?
Au1 W1 C41 O1 -78(13) . . . . ?
W1 N3 N4 B1 -4(4) . . . . ?
W1 N3 N4 C33 -176(3) . . . . ?
W1 N3 C31 C30 -1(5) . . . . ?
W1 N3 C31 C32 -179(2) . . . . ?
W1 N1 N2 B1 5(4) . . . . ?
W1 N1 N2 C28 -172(2) . . . . ?
W1 N1 C26 C27 173(3) . . . . ?
W1 N1 C26 C25 -13(6) . . . . ?
W1 N5 N6 B1 0(4) . . . . ?
W1 N5 N6 C38 179(3) . . . . ?
W1 N5 C36 C35 -2(6) . . . . ?
W1 N5 C36 C37 -177(3) . . . . ?
N13 C9 C10 C11 -5(3) . . . . ?
N13 C9 C8 C17 2(5) . . . 2_656 ?
N13 C9 C8 C5 -176(3) . . . . ?
N13 C12 C11 C10 -5(4) . . . . ?
N14 C17 C16 C15 -4(4) . . . . ?
N14 C14 C15 C16 -1(3) . . . . ?
C40 W1 C1 Au1 109.0(16) . . . . ?
C40 W1 C1 C2 -64(7) . . . . ?
C40 W1 C41 O1 25(13) . . . . ?
N9 W2 C24 Au2 41.2(13) . . . . ?
N9 W2 C24 C21 -142(5) . . . . ?
N9 N10 C51 C50 2(4) . . . . ?
N9 N10 C51 C52 -178(4) . . . . ?
N9 N10 B2 N8 -60(5) . . . . ?
N9 N10 B2 N12 55(5) . . . . ?
N9 C49 C50 C51 -10(5) . . . . ?
N3 W1 C1 Au1 34.0(14) . . . . ?
N3 W1 C1 C2 -139(6) . . . . ?
N3 W1 C41 O1 144(11) . . . . ?
N3 N4 B1 N6 70(5) . . . . ?
N3 N4 B1 N2 -63(5) . . . . ?
N3 N4 C33 C32 -9(6) . . . . ?
N3 N4 C33 C34 171(4) . . . . ?
N3 C31 C32 C33 -6(4) . . . . ?
N7 W2 C24 Au2 -179.2(15) . . . . ?
N7 W2 C24 C21 -3(7) . . . . ?
N7 C45 C46 C47 6(4) . . . . ?
N7 N8 C47 C46 8(4) . . . . ?
N7 N8 C47 C024 176(3) . . . . ?
N7 N8 B2 N10 56(5) . . . . ?
N7 N8 B2 N12 -64(5) . . . . ?
C9 N13 C12 C13 -171(3) . . . . ?
C9 N13 C12 C11 2(3) . . . . ?
C9 C10 C11 C12 6(3) . . . . ?
C9 C8 C5 C6 82(4) . . . . ?
C9 C8 C5 C4 -91(3) . . . . ?
N1 W1 C1 Au1 179.7(15) . . . . ?
N1 W1 C1 C2 6(8) . . . . ?
N1 W1 C41 O1 116(13) . . . . ?
N1 N2 B1 N6 -74(4) . . . . ?
N1 N2 B1 N4 61(5) . . . . ?
N1 N2 C28 C27 -3(5) . . . . ?
N1 N2 C28 C29 174(3) . . . . ?
N5 W1 C1 Au1 -64.3(11) . . . . ?
N5 W1 C1 C2 122(7) . . . . ?
N5 W1 C41 O1 -158(13) . . . . ?
N5 N6 B1 N4 -65(4) . . . . ?
N5 N6 B1 N2 69(4) . . . . ?
N5 N6 C38 C37 -2(5) . . . . ?
N5 N6 C38 C39 180(4) . . . . ?
N5 C36 C37 C38 -5(6) . . . . ?
C17 N14 C14 C13 180(3) . . . . ?
C17 N14 C14 C15 -1(3) . . . . ?
C17 C8 C5 C6 -96(3) 2_656 . . . ?
C17 C8 C5 C4 91(3) 2_656 . . . ?
C13 C18 C19 C20 179(3) . . . . ?
C13 C18 C23 C22 177(3) . . . . ?
C13 C12 C11 C10 168(3) . . . . ?
C13 C14 C15 C16 178(3) . . . . ?
C42 W2 C24 Au2 -141.0(13) . . . . ?
C42 W2 C24 C21 35(6) . . . . ?
C18 C13 C12 N13 176(2) . . . . ?
C18 C13 C12 C11 4(4) . . . . ?
C18 C13 C14 N14 177(3) . . . . ?
C18 C13 C14 C15 -2(5) . . . . ?
C18 C19 C20 C21 0(5) . . . . ?
C18 C23 C22 C21 6(5) . . . . ?
N6 N5 C36 C35 178(4) . . . . ?
N6 N5 C36 C37 4(4) . . . . ?
C19 C18 C23 C22 -4(5) . . . . ?
C19 C20 C21 C22 3(4) . . . . ?
C19 C20 C21 C24 174(3) . . . . ?
C20 C21 C24 Au2 32(4) . . . . ?
C20 C21 C24 W2 -144(5) . . . . ?
N4 N3 C31 C30 180(3) . . . . ?
N4 N3 C31 C32 2(4) . . . . ?
C10 C9 C8 C17 -178(3) . . . 2_656 ?
C10 C9 C8 C5 4(4) . . . . ?
C8 C9 C10 C11 175(3) . . . . ?
C8 C17 C16 C15 178(3) 2_656 . . . ?
C8 C5 C6 C7 -175(2) . . . . ?
C8 C5 C4 C3 175(3) . . . . ?
C12 N13 C9 C10 2(3) . . . . ?
C12 N13 C9 C8 -179(3) . . . . ?
C12 C13 C18 C19 100(4) . . . . ?
C12 C13 C18 C23 -82(4) . . . . ?
C12 C13 C14 N14 2(5) . . . . ?
C12 C13 C14 C15 -177(3) . . . . ?
C23 C18 C19 C20 1(4) . . . . ?
C23 C22 C21 C20 -5(4) . . . . ?
C23 C22 C21 C24 -177(3) . . . . ?
C7 C2 C1 Au1 44(4) . . . . ?
C7 C2 C1 W1 -143(6) . . . . ?
C7 C2 C3 C4 -10(5) . . . . ?
C6 C7 C2 C1 167(3) . . . . ?
C6 C7 C2 C3 9(4) . . . . ?
C6 C5 C4 C3 2(5) . . . . ?
N10 N9 C49 C48 -177(3) . . . . ?
N10 N9 C49 C50 11(4) . . . . ?
N10 C51 C50 C49 5(5) . . . . ?
N10 B2 N12 N11 -57(5) . . . . ?
N10 B2 N12 C56 114(4) . . . . ?
N2 N1 C26 C27 2(5) . . . . ?
N2 N1 C26 C25 177(3) . . . . ?
C2 C7 C6 C5 -4(5) . . . . ?
C2 C3 C4 C5 5(5) . . . . ?
C1 W1 C41 O1 -45(12) . . . . ?
C1 C2 C3 C4 -169(3) . . . . ?
C44 C45 C46 C47 178(3) . . . . ?
C49 N9 N10 C51 -9(4) . . . . ?
C49 N9 N10 B2 174(4) . . . . ?
C14 N14 C17 C8 -179(2) . . . 2_656 ?
C14 N14 C17 C16 3(3) . . . . ?
C14 C13 C18 C19 -76(4) . . . . ?
C14 C13 C18 C23 103(4) . . . . ?
C14 C13 C12 N13 -9(5) . . . . ?
C14 C13 C12 C11 179(3) . . . . ?
C14 C15 C16 C17 3(4) . . . . ?
C22 C21 C24 Au2 -158(2) . . . . ?
C22 C21 C24 W2 26(7) . . . . ?
C41 W1 C1 Au1 -142.0(15) . . . . ?
C41 W1 C1 C2 45(7) . . . . ?
C3 C2 C1 Au1 -161(2) . . . . ?
C3 C2 C1 W1 12(9) . . . . ?
C45 N7 N8 C47 -6(4) . . . . ?
C45 N7 N8 B2 -173(4) . . . . ?
C45 C46 C47 N8 -8(4) . . . . ?
C45 C46 C47 C024 -174(4) . . . . ?
C4 C5 C6 C7 -2(5) . . . . ?
B1 N6 C38 C37 176(4) . . . . ?
B1 N6 C38 C39 -2(8) . . . . ?
B1 N4 C33 C32 -179(4) . . . . ?
B1 N4 C33 C34 1(9) . . . . ?
B1 N2 C28 C27 -179(6) . . . . ?
B1 N2 C28 C29 -2(7) . . . . ?
N8 N7 C45 C44 -173(3) . . . . ?
N8 N7 C45 C46 0(4) . . . . ?
N8 B2 N12 N11 62(4) . . . . ?
N8 B2 N12 C56 -127(4) . . . . ?
C31 N3 N4 B1 175(4) . . . . ?
C31 N3 N4 C33 4(4) . . . . ?
C31 C32 C33 N4 10(6) . . . . ?
C31 C32 C33 C34 -170(4) . . . . ?
C47 N8 B2 N10 -110(4) . . . . ?
C47 N8 B2 N12 130(4) . . . . ?
C48 C49 C50 C51 179(4) . . . . ?
C28 N2 B1 N6 102(6) . . . . ?
C28 N2 B1 N4 -123(5) . . . . ?
C28 C27 C26 N1 -4(6) . . . . ?
C28 C27 C26 C25 -179(4) . . . . ?
C30 C31 C32 C33 176(3) . . . . ?
C51 N10 B2 N8 124(4) . . . . ?
C51 N10 B2 N12 -121(4) . . . . ?
C53 C54 C55 C56 171(4) . . . . ?
C36 N5 N6 B1 -180(3) . . . . ?
C36 N5 N6 C38 -1(4) . . . . ?
C36 C37 C38 N6 4(6) . . . . ?
C36 C37 C38 C39 -178(6) . . . . ?
N11 W2 C24 Au2 -57.0(13) . . . . ?
N11 W2 C24 C21 119(6) . . . . ?
N11 C54 C55 C56 -7(5) . . . . ?
N11 N12 C56 C55 -11(5) . . . . ?
N11 N12 C56 C57 176(4) . . . . ?
C26 N1 N2 B1 178(3) . . . . ?
C26 N1 N2 C28 0(4) . . . . ?
C26 C27 C28 N2 4(6) . . . . ?
C26 C27 C28 C29 -171(5) . . . . ?
C35 C36 C37 C38 -180(5) . . . . ?
C54 N11 N12 B2 179(4) . . . . ?
C54 N11 N12 C56 8(5) . . . . ?
C54 C55 C56 C57 -178(4) . . . . ?
C54 C55 C56 N12 10(5) . . . . ?
C38 N6 B1 N4 117(5) . . . . ?
C38 N6 B1 N2 -109(6) . . . . ?
C52 C51 C50 C49 -175(4) . . . . ?
C43 W2 C24 Au2 122.2(13) . . . . ?
C43 W2 C24 C21 -61(6) . . . . ?
B2 N10 C51 C50 179(4) . . . . ?
B2 N10 C51 C52 -1(7) . . . . ?
B2 N8 C47 C46 176(4) . . . . ?
B2 N8 C47 C024 -17(6) . . . . ?
B2 N12 C56 C55 178(4) . . . . ?
B2 N12 C56 C57 5(7) . . . . ?
C33 N4 B1 N6 -122(6) . . . . ?
C33 N4 B1 N2 105(6) . . . . ?
N12 N11 C54 C53 -178(3) . . . . ?
N12 N11 C54 C55 0(4) . . . . ?
loop_
_exptl_oxdiff_crystal_face_indexfrac_h
_exptl_oxdiff_crystal_face_indexfrac_k
_exptl_oxdiff_crystal_face_indexfrac_l
_exptl_oxdiff_crystal_face_x
_exptl_oxdiff_crystal_face_y
_exptl_oxdiff_crystal_face_z
-1.1352 -9.9747 -2.1444 0.0793 0.3236 -0.9429
1.1352 9.9747 2.1444 -0.0793 -0.3236 0.9429
8.3134 0.2854 -1.8564 -0.2095 -0.8799 -0.4265
-8.3134 -0.2854 1.8564 0.2095 0.8799 0.4265
-8.1274 0.8191 -8.8138 0.9683 0.1800 0.1733
8.1274 -0.8191 8.8138 -0.9683 -0.1800 -0.1733
0.3466 -8.9787 -4.1290 0.1700 0.0338 -0.9849
-0.3466 8.9787 4.1290 -0.1700 -0.0338 0.9849
loop_
_smtbx_masks_void_nr
_smtbx_masks_void_average_x
_smtbx_masks_void_average_y
_smtbx_masks_void_average_z
_smtbx_masks_void_volume
_smtbx_masks_void_count_electrons
_smtbx_masks_void_content
1 0.002 0.241 0.680 12.3 0.9 ?
2 -0.002 0.759 0.320 12.3 0.0 ?
3 0.500 0.500 -0.902 794.1 71.1 ?
loop_
_hkl_oxdiff_h
_hkl_oxdiff_k
_hkl_oxdiff_l
_hkl_oxdiff_f2
_hkl_oxdiff_sig
_hkl_oxdiff_ba
0 0 2 153796. 2813.13 12
0 0 2 144179. 2783.04 10
0 0 3 9300.55 945.813 10
0 0 3 9499.52 747.804 8
0 0 3 11419.9 992.164 12
0 0 4 101412. 3478.09 12
0 0 4 94017.3 2781.21 8
0 0 5 394997. 6562.16 8
0 0 5 403839. 7907.53 12
0 0 6 -66.2280 231.215 8
0 0 -6 -896.212 539.105 3
0 0 -7 17102.7 1753.56 3
0 0 7 11582.3 1357.35 8
0 0 8 1522.53 979.362 7
0 0 -8 1048.36 628.952 3
0 0 9 39434.7 4189.10 7
0 0 -9 39063.1 3247.90 3
0 0 10 11037.5 2396.98 7
0 0 -10 8675.30 1690.26 3
0 0 11 99.2650 648.220 7
0 0 -11 430.633 449.466 3
0 0 -12 1168.59 842.174 3
0 0 12 1503.50 838.101 7
0 -1 12 9422.25 2531.67 7
0 1 -12 10408.4 2041.68 3
0 1 -11 721.070 467.637 3
0 -1 11 947.168 984.439 7
0 1 -10 6714.79 1453.13 3
0 -1 10 6320.52 1809.58 7
0 1 -9 26606.1 2647.14 3
0 -1 8 995.453 489.166 8
0 1 -8 1815.13 692.699 3
0 1 -7 139594. 5173.25 3
0 -1 7 121053. 4762.25 8
0 -1 6 42723.2 2576.92 8
0 -1 6 42914.4 2825.90 10
0 1 -6 47966.2 2659.45 3
0 -1 5 5428.66 937.076 10
0 1 -5 2441.33 609.121 3
0 -1 4 75469.3 3144.48 10
0 1 -3 73773.1 2262.88 2
0 -1 3 76343.8 2773.91 10
0 1 -2 100143. 2237.52 2
0 -1 -2 340017. 4163.13 3
0 1 2 346398. 3903.43 6
0 1 3 2156.66 461.723 6
0 -1 -3 2602.62 511.445 3
0 1 4 17328.0 1243.37 6
0 1 4 19681.3 1706.95 12
0 1 5 20625.9 1923.13 12
0 -1 -5 21915.8 1665.92 3
0 1 5 23622.2 2127.52 7
0 1 6 19126.2 2010.89 12
0 1 6 21929.9 2314.86 7
0 -1 -6 22798.1 1826.29 3
0 -1 -7 129433. 5053.32 3
0 1 7 130173. 6352.22 7
0 -1 -8 15901.7 1945.57 3
0 1 8 19712.1 2760.39 7
0 1 9 1408.46 1114.47 7
0 -1 -9 484.981 544.844 3
0 -1 -10 8134.01 1655.34 3
0 1 10 7235.84 1936.35 7
0 -1 -11 4111.79 1178.40 3
0 1 11 6615.44 2101.88 7
0 -1 -12 6402.09 1572.07 3
0 1 12 6239.86 2104.50 7
0 2 -12 3458.39 1213.98 3
0 -2 12 6696.42 2522.72 7
0 2 -11 859.609 593.477 3
0 -2 11 1953.46 1261.88 7
0 2 -10 -308.636 424.577 3
0 2 -9 425.121 536.646 3
0 -2 8 43326.5 3372.83 8
0 2 -8 46915.4 3309.18 3
0 -2 7 29220.0 2774.27 10
0 2 -7 34888.7 2591.51 3
0 -2 7 28168.9 2386.04 8
0 -2 6 4421.36 1009.66 10
0 2 -6 4339.16 825.149 3
0 -2 5 53926.7 3020.27 10
0 2 -5 53714.3 2591.83 3
0 2 -4 56387.9 1604.87 1
0 2 -4 61189.4 2435.29 2
0 2 -4 58007.5 2426.67 3
0 -2 4 62705.2 3006.10 10
0 2 -3 62911.7 1750.34 1
0 2 -2 59631.0 1769.63 1
0 2 -1 13333.1 868.142 1
0 2 0 238624. 3666.81 4
0 2 0 234639. 3037.74 2
0 2 0 244778. 3744.98 7
0 2 0 238875. 2998.01 12
0 2 1 468222. 3665.23 2
0 2 1 486139. 5866.23 7
0 2 1 477925. 5313.27 1
0 2 1 489159. 5569.05 12
0 2 1 481181. 5098.49 4
0 -2 -2 960.178 288.266 3
0 2 2 877.597 373.338 1
0 2 2 2068.65 788.905 7
0 2 2 833.167 541.075 6
0 -2 -3 4725.43 605.242 3
0 2 3 5677.67 558.638 1
0 2 3 4140.06 680.249 6
0 -2 -4 1012.85 439.689 3
0 2 4 387.338 294.261 6
0 2 4 729.785 249.612 1
0 2 5 6059.13 859.550 6
0 -2 -5 7138.36 978.624 3
0 2 5 4471.65 465.585 7
0 2 6 66796.9 3933.18 12
0 2 6 70450.4 4157.25 7
0 -2 -6 69628.4 3470.52 3
0 2 7 -246.752 816.112 7
0 -2 -7 434.698 363.587 3
0 -2 -8 6110.13 1170.94 3
0 2 8 7992.44 1821.66 7
0 -2 -9 5477.37 1295.90 3
0 2 9 4317.34 1415.59 7
0 -2 -10 4873.79 1303.39 3
0 2 10 5978.81 1865.81 7
0 2 11 1811.71 1491.73 7
0 -2 -11 2539.39 1058.28 3
0 2 12 -2120.95 1331.85 7
0 -2 -12 291.979 591.579 3
0 -3 12 1040.78 932.868 7
0 3 -12 -54.1012 394.579 3
0 3 -11 16318.2 2419.59 3
0 3 -10 2631.63 995.843 3
0 3 -9 2482.39 885.693 3
0 -3 9 1995.49 863.267 8
0 -3 8 9800.33 1786.12 10
0 3 -8 10247.3 1490.05 3
0 -3 8 9269.68 1574.69 8
0 3 -7 1985.13 726.820 3
0 -3 7 1595.25 588.492 10
0 3 -6 165942. 5109.90 3
0 -3 6 168540. 6343.21 10
0 3 -5 266.777 314.145 1
0 -3 5 182.238 339.209 10
0 3 -5 -86.5466 287.354 3
0 3 -4 2480.76 551.223 3
0 3 -4 2185.04 477.024 2
0 3 -4 2520.24 475.615 1
0 3 -3 18241.5 789.140 6
0 3 -3 16693.2 1112.02 13
0 3 -2 76049.6 1964.41 13
0 3 -2 75086.4 2517.19 1
0 3 -2 79630.7 1901.09 6
0 3 -1 189800. 3570.76 2
0 3 0 28279.3 1321.62 12
0 3 0 31274.2 1725.03 4
0 3 0 30684.6 1751.29 7
0 3 0 27936.0 1279.14 2
0 3 1 1312.22 499.153 4
0 3 1 1379.57 573.559 7
0 3 1 1064.12 300.819 2
0 3 1 982.710 437.161 12
0 3 2 25975.7 1012.99 2
0 -3 -2 28470.9 1250.33 3
0 3 2 25493.3 1796.17 12
0 3 2 23319.8 1486.51 1
0 3 2 26328.4 1614.85 4
0 -3 -3 53092.6 2081.34 3
0 3 3 57333.1 2424.98 6
0 -3 -4 5732.21 846.475 3
0 3 4 5210.97 678.345 1
0 3 4 7416.87 1464.43 7
0 3 4 4443.95 778.109 6
0 -3 -5 -101.046 359.673 3
0 3 5 142.266 503.272 12
0 3 5 -188.333 191.816 1
0 3 5 -339.015 528.888 6
0 -3 -6 4583.97 909.903 3
0 3 6 3888.49 858.829 6
0 3 6 6343.18 1464.89 7
0 3 6 3602.16 1073.28 12
0 -3 -7 -168.257 443.746 3
0 3 7 -1461.27 1016.57 7
0 3 8 32358.1 3638.95 7
0 -3 -8 34771.6 2950.11 3
0 3 9 6750.60 1837.81 7
0 -3 -9 7278.27 1442.49 3
0 -3 -10 496.315 387.798 3
0 3 10 828.006 579.986 7
0 3 11 -1638.06 1155.87 7
0 -3 -11 -783.897 822.960 3
0 -3 -12 2159.55 1140.80 3
0 3 12 372.626 686.495 7
0 4 -12 1787.27 775.471 3
0 -4 12 1520.03 1199.08 7
0 4 -11 2513.16 962.082 3
0 4 -10 3864.34 1107.95 3
0 4 -9 1107.22 755.871 3
0 -4 9 890.692 716.709 8
0 -4 9 -451.864 616.101 10
0 4 -8 4812.06 1077.84 3
0 -4 8 3454.02 1143.77 10
0 -4 7 12729.0 2026.93 10
0 4 -7 10887.6 1469.06 3
0 4 -7 7431.23 1210.09 13
0 4 -6 12885.6 1416.70 13
0 4 -6 16024.7 1560.99 3
0 -4 6 18568.4 2258.08 10
0 4 -5 2601.15 680.275 13
0 4 -5 1914.57 552.064 3
0 4 -5 856.899 480.935 2
0 4 -5 1432.44 371.490 1
0 -4 5 3144.82 961.344 10
0 4 -4 71725.2 2775.96 3
0 4 -4 70218.1 2666.23 13
0 4 -4 74411.2 2713.16 1
0 -4 4 91181.9 4353.50 10
0 4 -4 85752.2 3283.33 2
0 4 -3 4572.27 651.367 3
0 4 -3 4974.01 722.731 1
0 4 -3 4904.17 640.217 6
0 4 -3 4847.03 606.093 13
0 4 -2 36205.5 1663.80 6
0 4 -2 41100.6 1971.35 2
0 4 -2 38612.2 2041.17 1
0 4 -2 34815.5 1442.26 3
0 4 -1 30491.7 1650.04 2
0 4 -1 32285.3 1686.91 6
0 4 -1 34885.7 2022.73 4
0 4 0 3048.78 760.565 7
0 4 0 2092.27 451.255 2
0 4 0 3147.09 676.080 4
0 4 0 2561.35 547.994 12
0 4 0 2863.32 605.651 6
0 4 1 157968. 3262.82 2
0 4 1 166882. 4574.39 7
0 4 1 165675. 4270.29 4
0 4 2 134242. 3843.12 1
0 -4 -2 130656. 2572.87 3
0 4 2 138144. 4510.03 12
0 4 2 136664. 4481.33 7
0 4 2 135016. 4011.50 4
0 4 2 129375. 2763.33 2
0 4 3 1770.13 603.067 7
0 4 3 1455.00 476.069 1
0 -4 -3 1329.06 357.334 3
0 4 3 1152.28 284.972 2
0 4 3 1804.57 646.894 12
0 -4 -4 3660.06 617.728 3
0 4 4 3781.57 448.149 2
0 4 4 3753.80 1022.31 7
0 4 4 3778.62 705.302 1
0 4 4 4338.78 896.578 6
0 4 5 360.297 529.745 12
0 4 5 591.372 337.349 6
0 4 5 316.284 532.498 7
0 4 5 -313.347 373.383 1
0 -4 -5 568.311 337.342 3
0 4 6 10623.6 1885.72 7
0 4 6 9588.72 1515.50 6
0 4 6 7681.81 1651.16 12
0 -4 -6 9960.05 1311.85 3
0 4 7 29644.0 3367.33 7
0 -4 -7 26794.1 2419.85 3
0 -4 -8 1032.62 509.724 3
0 4 8 3781.24 1534.27 7
0 4 9 755.220 692.151 7
0 -4 -9 -113.525 399.936 3
0 4 10 649.687 598.687 7
0 -4 -10 1323.86 675.877 3
0 -4 -11 634.279 639.375 3
0 4 11 -313.741 831.850 7
0 4 12 2265.82 1412.30 7
0 -4 -12 573.900 703.794 3
0 5 -12 650.580 456.283 3
0 5 -11 637.535 619.278 3
0 5 -10 4058.73 1120.12 3
0 -5 10 2558.28 1125.69 10
0 -5 9 -206.104 376.455 10
0 5 -9 833.314 523.406 3
0 -5 9 -29.2368 329.455 8
0 -5 8 1220.07 731.767 10
0 5 -8 609.110 366.094 3
0 -5 7 9122.80 1768.81 10
0 5 -7 8740.13 1373.45 3
0 -5 6 34051.9 3168.34 10
0 5 -6 34622.7 2432.85 3
0 5 -5 46029.8 2363.63 1
0 5 -5 47041.5 2567.34 3
0 -5 5 54243.1 3923.88 10
0 5 -5 55083.2 3006.81 2
0 5 -4 4802.47 775.369 3
0 5 -4 5255.77 803.531 1
0 5 -4 5093.09 814.386 2
0 -5 4 5844.72 1243.35 10
0 5 -3 515.112 218.761 3
0 5 -3 659.667 333.955 1
0 5 -3 18.7891 316.625 6
0 5 -2 1708.42 522.761 6
0 5 -2 1347.13 516.784 4
0 5 -2 1793.42 346.937 3
0 5 -2 2453.77 561.138 2
0 5 -2 2113.23 550.995 1
0 5 -1 7075.62 1030.43 4
0 5 -1 5241.08 779.385 6
0 5 -1 6674.88 828.216 2
0 5 0 80247.0 3433.83 4
0 5 0 72827.2 3093.04 6
0 5 0 78984.0 2672.27 2
0 5 0 82407.0 3568.58 7
0 5 0 70163.1 2715.12 12
0 5 1 21561.8 1799.54 4
0 5 1 20554.0 1301.59 2
0 5 1 23136.2 1875.70 6
0 5 1 23169.3 1957.77 7
0 5 1 26202.2 2065.98 1
0 5 1 20074.2 1705.98 12
0 5 2 13179.5 1354.29 1
0 5 2 10302.1 1381.36 12
0 5 2 11353.9 1453.61 7
0 5 2 11716.0 903.984 2
0 5 2 12997.3 1437.10 6
0 5 2 11793.9 1285.39 4
0 5 3 632.117 348.664 4
0 5 3 575.906 169.769 2
0 -5 -3 981.025 267.935 3
0 5 3 1043.94 403.966 1
0 5 3 1015.05 673.787 7
0 5 3 421.566 521.726 12
0 5 3 9.45879 633.355 6
0 5 4 2351.53 702.576 1
0 5 4 2626.62 752.555 6
0 5 4 2649.51 880.725 12
0 5 4 3052.74 893.319 7
0 -5 -4 1767.77 467.086 3
0 5 5 2935.92 628.083 1
0 5 5 1691.63 648.502 7
0 -5 -5 2147.14 494.278 3
0 5 5 1786.32 558.279 6
0 -5 -6 9271.10 1375.20 3
0 5 6 7601.17 1522.87 6
0 5 6 8956.25 1765.51 12
0 5 6 11180.1 1871.71 7
0 5 7 3737.80 1203.89 7
0 -5 -7 5150.60 1085.21 3
0 -5 -8 2902.62 967.719 3
0 5 8 3162.70 1289.39 7
0 -5 -9 10321.3 1739.86 3
0 5 9 9590.81 2197.60 7
0 5 10 3880.39 1603.41 7
0 5 11 -354.058 696.706 7
0 6 -11 24.4924 502.472 3
0 -6 10 533.350 655.250 10
0 -6 10 -902.111 773.832 8
0 6 -10 470.509 558.221 3
0 6 -9 763.015 509.944 3
0 -6 9 -978.798 836.061 8
0 -6 9 -815.939 729.133 10
0 -6 8 1054.49 733.520 10
0 6 -8 979.683 468.398 3
0 6 -7 4456.12 932.541 3
0 -6 7 3636.81 1153.75 10
0 6 -6 1407.87 410.172 1
0 -6 6 2356.03 783.848 10
0 6 -6 2292.75 699.376 3
0 6 -5 3228.47 690.985 1
0 6 -5 3936.01 747.348 3
0 -6 5 4173.66 1240.37 10
0 6 -5 4104.52 835.156 2
0 6 -4 8983.40 1170.52 1
0 6 -4 11188.5 1403.75 2
0 -6 4 8279.49 1570.92 10
0 6 -4 7553.70 924.688 3
0 6 -3 5874.17 883.803 6
0 6 -3 7648.37 1155.47 1
0 6 -3 8427.46 1112.84 2
0 6 -2 676.783 398.132 6
0 6 -2 412.709 322.433 2
0 6 -2 223.351 311.897 1
0 6 -2 485.587 407.531 4
0 6 -1 12165.6 1372.57 6
0 6 -1 16208.0 1638.00 1
0 6 -1 14765.7 1671.85 4
0 6 -1 13968.1 1273.10 2
0 6 0 6601.03 1074.31 1
0 6 0 4667.12 854.489 6
0 6 0 4607.65 950.490 4
0 6 0 4183.46 687.456 2
0 6 1 60863.1 3200.88 12
0 6 1 76183.4 3728.75 6
0 6 1 75638.7 3614.86 4
0 6 1 76749.5 3870.77 7
0 6 1 90157.1 3923.61 1
0 6 1 74070.6 2716.44 2
0 6 2 11883.0 1553.15 12
0 6 2 12391.5 1440.46 6
0 6 2 15712.2 1626.36 1
0 6 2 13309.3 1644.68 7
0 6 2 13206.2 1489.22 4
0 6 2 13685.4 1089.18 2
0 6 3 35134.4 2906.65 12
0 6 3 39541.3 2604.98 1
0 6 3 45206.0 3162.77 6
0 6 3 39539.7 3100.59 7
0 6 3 38095.2 2655.92 4
0 6 4 1223.69 499.529 1
0 6 4 2116.10 935.690 6
0 6 4 671.611 652.454 12
0 6 4 940.178 640.389 7
0 6 5 618.879 438.595 1
0 6 5 5.80152 531.330 7
0 6 5 -546.022 580.129 6
0 6 5 419.394 639.272 12
0 6 6 25338.2 2749.25 6
0 6 6 24465.4 2993.46 7
0 6 7 1411.85 870.133 7
0 6 8 15743.3 2675.97 7
0 6 9 831.562 896.253 7
0 6 10 274.479 740.105 7
0 6 11 1089.85 1225.55 7
0 -7 10 437.551 581.544 8
0 -7 10 -494.191 456.906 10
0 -7 9 1085.08 920.923 10
0 -7 8 -813.024 662.104 10
0 -7 7 494.180 411.735 10
0 -7 6 30048.8 3377.72 10
0 7 -6 29603.7 2232.22 1
0 7 -5 10602.1 1350.16 1
0 -7 5 10675.0 1995.87 10
0 7 -4 13445.8 1748.85 4
0 7 -4 14174.8 1579.04 1
0 -7 4 11785.2 2000.69 10
0 7 -4 14459.8 1628.16 2
0 7 -3 2381.31 655.599 2
0 7 -3 1934.26 817.439 4
0 7 -3 2271.05 720.829 1
0 7 -3 2037.85 632.886 6
0 7 -2 8262.91 1169.02 6
0 7 -2 10061.7 1513.14 4
0 7 -2 7705.25 1043.45 2
0 7 -2 8628.59 1218.12 1
0 7 -1 38091.7 2637.44 1
0 7 -1 40832.8 2986.17 4
0 7 -1 37664.5 2262.38 2
0 7 -1 35437.6 2578.70 6
0 7 0 5799.55 1094.48 4
0 7 0 8140.56 1327.48 1
0 7 0 5565.97 811.997 2
0 7 0 5953.00 1104.99 6
0 7 1 21703.1 2069.15 1
0 7 1 18415.6 2045.29 7
0 7 1 17621.7 1894.47 6
0 7 1 17094.0 1810.85 4
0 7 1 16487.6 1369.73 2
0 7 2 22372.7 2172.53 1
0 7 2 24563.5 2551.64 6
0 7 2 19967.4 2238.59 7
0 7 2 19778.0 2072.81 4
0 7 3 29741.2 2445.96 1
0 7 3 27376.1 2689.54 6
0 7 3 27030.9 2754.27 7
0 7 3 25535.6 2347.08 4
0 7 4 6656.67 1211.81 1
0 7 4 5899.85 1384.89 7
0 7 4 6145.94 1442.99 6
0 7 5 346.510 601.127 7
0 7 5 601.587 514.407 6
0 7 5 290.922 326.804 1
0 7 6 -700.517 644.825 7
0 7 6 -304.682 755.242 6
0 7 7 5726.56 1555.86 7
0 7 8 9509.07 2160.40 7
0 7 9 394.297 846.621 7
0 7 10 1624.79 1212.87 7
0 -8 10 682.569 574.550 8
0 -8 10 1875.54 969.802 10
0 -8 9 917.100 528.029 10
0 -8 8 368.139 442.988 10
0 -8 7 13372.5 2610.48 10
0 -8 6 459.404 465.027 10
0 8 -5 26059.0 2826.20 4
0 8 -5 21272.5 2111.23 1
0 -8 5 25244.2 3376.45 10
0 8 -4 9393.37 1350.26 2
0 -8 4 8571.17 1863.36 10
0 8 -4 9916.36 1672.90 4
0 8 -4 8995.95 1374.90 1
0 8 -3 2062.22 675.434 2
0 8 -3 1702.31 617.782 1
0 8 -3 1174.39 552.310 4
0 8 -2 11.7894 332.150 1
0 8 -2 -469.413 561.210 6
0 8 -2 791.128 457.491 2
0 8 -2 695.328 438.268 4
0 8 -1 5667.76 1168.85 4
0 8 -1 6913.05 1295.68 6
0 8 -1 5426.06 955.522 2
0 8 -1 5452.28 1043.30 1
0 8 0 36868.7 2969.54 1
0 8 0 30515.2 2810.95 6
0 8 0 28033.8 2015.29 2
0 8 0 31947.1 2876.72 4
0 8 1 24218.7 2559.49 6
0 8 1 22611.7 1708.51 2
0 8 1 23501.3 2325.52 4
0 8 1 27651.3 2433.12 1
0 8 2 15664.4 2112.59 7
0 8 2 18817.5 2339.63 6
0 8 2 21155.0 2209.48 1
0 8 2 15863.5 1922.77 4
0 8 3 905.229 478.892 1
0 8 3 947.383 516.896 4
0 8 3 429.883 429.958 7
0 8 3 63.0633 560.846 6
0 8 4 25020.9 2900.86 6
0 8 4 25956.7 2526.59 1
0 8 4 24788.5 2954.60 7
0 8 5 4620.25 1388.68 6
0 8 5 6169.81 1187.11 1
0 8 5 6260.03 1604.80 7
0 8 6 3381.07 1125.00 6
0 8 6 3888.44 1307.56 7
0 8 7 3623.18 1443.00 7
0 8 8 995.594 863.446 7
0 8 9 6760.14 2026.70 7
0 8 10 -1253.75 877.026 7
0 -9 9 990.251 727.127 10
0 9 -9 1765.22 946.633 4
0 9 -8 3637.15 1365.76 4
0 -9 8 3629.42 1486.57 10
0 9 -7 1712.15 831.869 4
0 -9 7 28.2432 629.114 10
0 -9 6 -67.5141 410.971 10
0 9 -6 336.320 493.848 4
0 9 -5 35992.7 3595.88 4
0 -9 5 29304.7 3803.80 10
0 9 -5 34218.8 2840.27 1
0 9 -4 554.712 534.117 1
0 -9 4 329.042 430.343 10
0 9 -4 -884.974 705.218 4
0 9 -3 15107.0 1959.64 1
0 9 -3 15317.0 2211.19 4
0 -9 3 12031.7 2255.13 10
0 9 -3 14739.5 1813.64 2
0 9 -2 643.437 354.121 2
0 9 -2 828.907 516.494 1
0 9 -2 382.888 344.457 6
0 9 -2 1042.43 601.613 4
0 9 -1 7598.92 1340.94 1
0 9 -1 6743.00 1310.76 6
0 9 -1 6626.70 1111.60 2
0 9 -1 8208.21 1592.51 4
0 9 0 50663.5 3666.16 1
0 9 0 41020.0 2622.29 2
0 9 0 41661.3 3473.94 6
0 9 0 42240.5 3368.15 4
0 9 1 516.810 420.040 1
0 9 1 1028.72 623.305 6
0 9 1 1124.74 669.587 4
0 9 2 28048.4 2788.28 1
0 9 2 25606.1 2949.43 6
0 9 2 21338.5 2454.56 4
0 9 3 -555.609 352.191 7
0 9 3 316.551 373.269 1
0 9 3 -695.138 791.815 6
0 9 4 12425.4 1840.87 1
0 9 4 11128.8 2059.29 7
0 9 4 11962.3 2163.61 6
0 9 5 11825.7 2202.12 7
0 9 5 11647.6 1786.71 1
0 9 5 10092.4 2076.32 6
0 9 6 4444.21 1414.23 7
0 9 7 3537.95 1363.39 7
0 9 8 217.551 572.402 7
0 9 9 3182.38 1484.06 7
0 10 -8 4574.06 1504.01 4
0 -10 7 5538.91 2006.03 10
0 10 -7 9226.63 2088.94 4
0 10 -6 324.309 502.428 4
0 -10 6 554.922 565.815 10
0 10 -5 429.329 487.264 1
0 -10 5 747.065 783.128 10
0 10 -5 1156.41 858.511 4
0 10 -4 10506.4 1767.54 1
0 -10 4 11717.8 2536.19 10
0 10 -4 13351.5 2267.58 4
0 10 -3 22284.7 2773.48 4
0 10 -3 22689.8 2524.33 1
0 10 -2 3582.90 1087.57 1
0 10 -2 3170.55 1135.14 4
0 -10 2 3155.75 1240.83 10
0 10 -1 -471.277 587.210 1
0 10 -1 -916.559 697.873 4
0 10 -1 191.191 330.121 2
0 10 0 344.099 451.202 4
0 10 0 990.715 619.152 1
0 10 0 246.481 716.955 6
0 10 1 18369.3 2391.23 4
0 10 1 21002.6 2798.11 6
0 10 1 22924.1 2616.92 1
0 10 2 26738.6 2917.98 4
0 10 2 33037.0 3638.45 6
0 10 3 13.5111 606.732 6
0 10 3 -442.956 555.139 4
0 10 3 -522.262 518.602 1
0 10 4 2062.89 807.578 1
0 10 4 1930.51 1051.56 7
0 10 5 302.113 329.601 1
0 10 5 1998.34 995.636 7
0 10 6 3513.50 1375.28 7
0 10 7 3376.24 1414.49 7
0 10 8 -637.122 703.721 7
0 11 -6 2069.62 811.298 4
0 -11 6 2469.38 1411.11 10
0 -11 5 4771.90 1689.86 10
0 11 -5 4717.60 1482.86 4
0 11 -5 5894.97 1264.93 1
0 -11 4 4728.24 1635.11 10
0 11 -4 8102.22 1585.54 1
0 11 -3 647.339 421.545 1
0 11 -3 565.270 592.451 4
0 -11 3 -88.5419 734.618 10
0 11 -2 8332.32 1758.79 4
0 -11 2 8338.43 2015.67 10
0 11 -2 11526.4 1932.15 1
0 11 -1 6599.24 1454.65 1
0 11 -1 5183.76 1345.51 4
0 11 0 -57.5318 337.703 4
0 11 0 2274.08 968.351 1
0 11 1 16071.8 2303.64 1
0 11 1 10298.0 1917.58 4
0 11 2 248.827 412.863 1
0 11 2 -330.368 477.995 4
0 11 3 21328.0 2695.31 1
0 11 4 1810.83 799.890 1
0 11 5 537.379 532.776 7
0 11 5 589.739 455.393 1
0 11 6 940.160 680.586 7
0 -12 4 1258.22 902.113 10
0 12 -4 2747.23 924.767 1
0 12 -3 527.898 531.685 1
0 -12 3 1321.76 1017.32 10
0 12 -2 3934.91 1083.38 1
0 -12 2 1716.01 1124.83 10
0 -12 1 1556.52 925.133 10
0 12 -1 3955.12 1182.96 1
0 12 0 10.7920 447.998 1
0 12 1 1464.31 698.666 1
0 12 2 854.612 690.017 1
0 12 3 4427.63 1277.74 1
0 12 4 364.928 515.416 1
-1 12 3 1391.07 729.015 1
-1 12 2 11897.0 2092.01 1
-1 12 1 469.758 553.813 4
-1 12 1 416.543 543.987 1
-1 12 0 254.541 609.954 4
-1 12 0 -468.251 482.763 1
-1 12 -1 1980.73 1005.21 4
-1 12 -1 2103.99 832.519 1
-1 12 -2 5596.16 1445.84 1
-1 12 -2 2840.67 1170.54 4
1 -12 3 4918.38 1644.09 10
-1 12 -3 12004.9 1971.97 1
-1 12 -3 9875.53 2077.59 4
1 -12 4 -169.583 528.193 10
-1 12 -4 -725.678 605.449 4
-1 11 4 1450.50 1068.27 6
-1 11 4 1623.29 850.585 1
-1 11 3 7654.70 1572.87 1
-1 11 3 5627.58 1719.44 6
-1 11 2 808.428 594.654 4
-1 11 2 -303.854 636.665 6
-1 11 2 -187.073 532.010 1
-1 11 1 9543.17 1729.63 1
-1 11 1 9050.13 2018.07 6
-1 11 1 7859.62 1768.29 4
-1 11 0 4494.60 1212.19 1
-1 11 0 3591.85 1243.16 4
-1 11 0 4282.16 1547.08 6
-1 11 -1 999.852 591.663 4
-1 11 -1 -679.457 698.830 6
-1 11 -1 -506.590 479.886 1
1 -11 1 -911.333 675.247 10
-1 11 -2 5422.90 1575.49 4
1 -11 2 2255.29 1122.49 10
-1 11 -2 7472.56 1523.36 1
-1 11 -3 2553.42 913.013 1
1 -11 3 1114.83 801.648 10
-1 11 -3 3392.79 1265.44 4
1 -11 4 4260.65 1503.63 10
-1 11 -4 8928.68 1619.75 1
-1 11 -4 8493.58 1968.35 4
-1 11 -5 3346.82 1328.39 4
-1 11 -5 1745.81 681.847 1
1 -11 5 1347.62 922.526 10
1 -11 6 1835.81 1065.23 10
-1 11 -6 1452.83 766.083 4
-1 10 7 -98.1760 431.970 7
-1 10 6 1906.37 1055.91 7
-1 10 5 5277.06 1525.22 7
-1 10 5 6512.45 1728.30 6
-1 10 4 1651.38 932.802 6
-1 10 4 548.358 525.775 1
-1 10 4 190.715 433.919 7
-1 10 3 176.049 507.533 6
-1 10 3 531.602 578.879 1
-1 10 3 -25.4909 436.940 4
-1 10 2 229.329 346.461 4
-1 10 2 870.155 514.967 1
-1 10 2 488.186 440.038 6
-1 10 1 39359.7 3841.45 6
-1 10 1 35099.0 3488.56 4
-1 10 0 4609.07 1280.32 4
-1 10 0 3738.02 987.311 1
-1 10 0 2802.41 797.827 6
1 -10 1 3517.02 1116.75 10
-1 10 -1 6556.78 1334.88 1
-1 10 -1 5240.36 1440.65 4
-1 10 -1 6479.68 1412.26 6
1 -10 2 897.051 632.743 10
-1 10 -2 978.359 694.987 6
-1 10 -2 808.435 513.401 1
-1 10 -2 2120.34 1108.05 4
-1 10 -3 719.173 638.381 4
1 -10 3 675.438 719.569 10
-1 10 -3 122.814 275.409 1
1 -10 4 19770.9 3133.60 10
-1 10 -4 28539.6 3340.20 4
-1 10 -4 30422.6 2852.23 1
-1 10 -5 506.846 445.427 1
1 -10 5 15.0492 360.867 10
-1 10 -5 826.549 679.573 4
1 -10 6 6615.77 1887.80 10
-1 10 -6 8427.65 1911.56 4
-1 10 -6 8199.81 1450.26 1
-1 10 -7 126.869 575.430 4
1 -10 7 1313.06 993.607 10
1 -10 8 291.835 476.893 10
-1 10 -8 699.316 713.622 4
-1 9 8 5465.02 1651.19 7
-1 9 7 686.570 815.212 7
-1 9 6 247.342 818.309 7
-1 9 6 -124.970 550.362 6
-1 9 5 2529.40 828.285 1
-1 9 5 1330.80 763.672 7
-1 9 5 2226.77 898.198 6
-1 9 4 4361.79 1093.86 1
-1 9 4 2780.69 984.374 7
-1 9 4 3814.04 1285.15 6
-1 9 3 25861.1 3166.08 6
-1 9 3 23617.7 2808.60 4
-1 9 3 23844.0 2842.18 7
-1 9 3 29226.9 2797.02 1
-1 9 2 11167.1 1724.18 1
-1 9 2 7988.70 1571.94 4
-1 9 2 7915.74 1696.12 6
-1 9 1 2349.20 814.992 4
-1 9 1 1160.97 700.632 6
-1 9 1 3486.67 1016.03 1
-1 9 0 7005.11 1477.47 4
-1 9 0 8736.12 1516.21 1
-1 9 0 7798.43 1568.55 6
-1 9 -1 9775.13 1659.82 6
-1 9 -1 10758.4 1991.91 4
-1 9 -1 12676.7 1794.07 1
-1 9 -2 7300.20 1380.87 6
-1 9 -2 9324.72 1515.25 1
-1 9 -2 8618.33 1626.01 4
1 -9 2 7281.69 1645.11 10
1 -9 3 1205.52 776.427 10
-1 9 -3 1609.60 593.320 1
-1 9 -3 1519.89 843.944 4
1 -9 4 1917.83 932.425 10
-1 9 -4 3051.62 1134.15 4
-1 9 -4 2284.85 800.078 1
-1 9 -5 4426.55 1304.69 4
-1 9 -5 4913.25 1036.83 1
1 -9 5 2335.37 1073.51 10
-1 9 -6 7165.89 1626.53 4
1 -9 6 6118.12 1753.74 10
-1 9 -6 5106.45 1106.97 1
-1 9 -7 -465.923 377.276 4
1 -9 7 1100.94 885.954 10
-1 9 -8 409.751 364.471 4
1 -9 8 405.239 735.683 10
1 -9 9 -68.7310 549.796 8
-1 9 -9 -1089.64 957.438 4
1 -9 9 435.885 685.788 10
-1 8 9 4678.60 1673.43 7
-1 8 8 -444.835 684.249 7
-1 8 7 3202.93 1198.90 7
-1 8 7 2365.32 1145.42 6
-1 8 6 546.613 547.092 6
-1 8 6 2314.48 942.595 7
-1 8 5 1420.04 955.677 6
-1 8 5 368.388 635.698 7
-1 8 5 737.060 450.995 1
-1 8 4 13580.4 2248.43 12
-1 8 4 18252.1 2526.75 7
-1 8 4 20689.3 2735.01 6
-1 8 4 19673.1 2136.70 1
-1 8 3 -560.536 795.200 12
-1 8 3 336.751 346.548 4
-1 8 3 1204.06 637.305 7
-1 8 3 335.652 497.026 1
-1 8 3 502.140 726.134 6
-1 8 2 13430.4 2058.84 6
-1 8 2 8450.82 1581.30 12
-1 8 2 12990.7 1925.67 4
-1 8 2 12419.2 1882.20 7
-1 8 2 16563.8 1995.21 1
-1 8 1 14787.5 1888.22 12
-1 8 1 20437.4 2365.17 6
-1 8 1 18126.1 2176.07 4
-1 8 0 9639.57 1452.99 1
-1 8 0 5657.29 1183.21 6
-1 8 0 7944.50 1521.08 4
-1 8 -1 -32.0356 425.490 1
-1 8 -1 32.3679 421.235 6
-1 8 -1 292.322 411.533 4
-1 8 -2 -174.712 348.333 6
-1 8 -2 1050.38 710.363 1
-1 8 -2 -215.166 464.194 4
-1 8 -3 2398.42 777.221 4
-1 8 -3 2469.64 711.115 1
1 -8 3 2083.24 910.189 10
-1 8 -3 1463.51 638.757 6
1 -8 4 6147.41 1596.96 10
-1 8 -4 7501.95 1563.82 4
-1 8 -4 6872.40 1236.05 1
-1 8 -5 10238.0 1419.07 1
-1 8 -5 12139.3 1928.03 4
1 -8 5 8889.07 1826.07 10
1 -8 6 4048.33 1395.65 10
-1 8 -6 4479.32 934.949 1
-1 8 -6 4598.55 1158.06 4
-1 8 -7 3260.59 1004.72 4
1 -8 7 1605.84 865.729 10
1 -8 8 327.243 573.922 10
1 -8 9 -1226.38 1060.65 10
1 -8 9 664.613 607.603 8
1 -8 10 1825.65 1113.72 8
1 -8 10 1440.01 1075.67 10
-1 7 10 1503.26 1204.36 7
-1 7 9 2009.99 1016.36 7
-1 7 8 -447.261 673.961 7
-1 7 7 9137.58 2040.52 7
-1 7 7 7181.49 1731.85 6
-1 7 6 740.799 757.064 7
-1 7 6 773.083 755.021 6
-1 7 6 -413.770 507.140 12
-1 7 5 -483.103 607.355 7
-1 7 5 0.61992 305.271 1
-1 7 5 769.435 678.867 6
-1 7 5 -67.5556 718.515 12
-1 7 4 879.058 560.786 6
-1 7 4 845.716 703.184 12
-1 7 4 343.924 419.675 7
-1 7 4 1556.49 508.122 1
-1 7 3 1544.96 593.858 7
-1 7 3 310.201 416.156 12
-1 7 3 -9.22318 371.211 4
-1 7 3 1098.19 563.323 1
-1 7 3 2196.37 1294.81 6
-1 7 2 40900.5 3065.05 7
-1 7 2 48583.2 3127.08 1
-1 7 2 43676.0 3186.40 6
-1 7 2 36704.3 3067.95 12
-1 7 2 41440.4 3193.25 4
-1 7 1 37630.3 2874.19 4
-1 7 1 29767.2 2575.56 12
-1 7 1 37650.5 2879.10 7
-1 7 1 38104.7 2909.37 6
-1 7 0 1207.49 558.405 1
-1 7 0 -107.444 407.265 6
-1 7 0 846.441 617.480 4
-1 7 0 519.691 251.580 2
-1 7 -1 7355.35 1177.40 1
-1 7 -1 6517.57 1098.65 6
-1 7 -1 6550.52 1299.55 4
-1 7 -1 6231.87 898.022 2
-1 7 -2 5681.59 888.838 2
-1 7 -2 4751.42 875.415 6
-1 7 -2 6430.38 1315.34 4
-1 7 -2 6790.68 1193.40 1
1 -7 3 7687.42 1445.54 10
-1 7 -3 11161.2 1787.06 4
-1 7 -3 11146.3 1455.49 1
-1 7 -3 9743.01 1305.67 6
1 -7 4 18392.5 2531.35 10
-1 7 -4 21023.4 1924.25 1
-1 7 -4 21752.4 2361.55 4
-1 7 -5 2728.92 924.801 4
1 -7 5 3165.97 1190.18 10
-1 7 -5 2908.82 688.835 1
-1 7 -6 155.771 357.612 1
1 -7 6 335.603 430.614 10
1 -7 7 2177.42 1076.75 10
1 -7 8 3016.54 1284.61 10
1 -7 9 461.089 523.379 8
1 -7 9 -404.708 626.740 10
1 -7 10 1132.72 990.348 10
1 -7 10 1116.01 807.620 8
1 -7 11 30.9036 523.687 8
-1 6 10 262.597 484.697 7
-1 6 9 5192.06 1675.30 7
-1 6 8 9801.74 2159.17 7
-1 6 7 -74.6158 656.001 7
-1 6 7 -608.868 624.938 6
-1 6 7 -456.540 778.036 12
-1 6 6 -657.291 783.684 12
-1 6 6 -911.330 661.486 7
-1 6 6 139.418 443.069 6
-1 6 5 -927.306 629.992 6
-1 6 5 318.705 574.996 12
-1 6 5 194.625 549.584 7
-1 6 5 -429.292 471.528 1
-1 6 4 596.281 652.104 7
-1 6 4 -404.292 423.698 6
-1 6 4 -859.829 495.457 1
-1 6 4 -1503.25 814.880 12
-1 6 3 20392.4 2109.08 4
-1 6 3 19354.9 2217.87 7
-1 6 3 21395.5 2170.60 6
-1 6 3 17590.1 2197.12 12
-1 6 3 20597.2 1910.68 1
-1 6 2 11249.0 1560.57 6
-1 6 2 6122.46 1161.16 12
-1 6 2 12247.1 1496.72 1
-1 6 2 7721.10 1274.90 7
-1 6 2 9492.61 1417.15 4
-1 6 1 6508.36 1279.95 4
-1 6 1 6959.48 1206.07 1
-1 6 1 5564.86 1103.06 12
-1 6 1 8847.50 1562.42 6
-1 6 1 5397.76 1118.40 7
-1 6 1 5234.27 700.931 2
-1 6 0 14010.5 1583.08 1
-1 6 0 11662.1 1066.38 2
-1 6 0 12259.1 1582.35 4
-1 6 -1 13647.6 1246.65 12
-1 6 -1 17738.4 1382.99 2
-1 6 -1 18836.2 1733.60 1
-1 6 -1 18862.3 1959.91 4
-1 6 -2 1008.59 447.686 1
-1 6 -2 1110.56 681.742 4
-1 6 -2 953.511 384.470 2
-1 6 -3 -247.188 337.454 6
1 -6 3 578.840 512.647 10
-1 6 -3 585.838 382.148 1
-1 6 -3 12.4922 320.780 2
-1 6 -3 1252.53 674.855 4
1 -6 4 1872.45 926.711 10
-1 6 -4 715.755 440.664 6
-1 6 -4 919.363 436.059 1
1 -6 5 1091.13 518.930 10
-1 6 -5 2490.03 644.134 1
-1 6 -6 21812.6 1924.28 3
-1 6 -6 18151.8 1590.53 1
1 -6 6 21431.5 2653.09 10
1 -6 7 6364.53 1574.25 10
-1 6 -7 5548.56 1052.37 3
1 -6 8 -1492.43 879.391 10
-1 6 -8 422.826 336.777 3
1 -6 9 2540.48 1137.58 10
1 -6 9 3594.38 1426.20 8
-1 6 -9 2577.95 810.050 3
1 -6 10 298.336 512.511 8
-1 6 -10 429.529 449.115 3
1 -6 10 -50.8636 455.422 10
1 -6 11 2563.41 1124.93 8
-1 6 -11 2282.70 803.621 3
-1 5 11 1118.66 939.918 7
-1 5 10 2186.81 1137.35 7
-1 5 9 2172.27 1157.08 7
-1 5 8 2611.79 934.409 7
-1 5 7 4223.96 1379.30 12
-1 5 7 6099.60 1336.54 6
-1 5 7 4971.65 1395.24 7
-1 5 6 9626.66 1903.85 12
-1 5 6 9375.44 1784.78 7
1 -5 -6 10630.5 1423.25 3
-1 5 6 10526.1 1679.53 6
-1 5 5 3324.23 963.198 6
-1 5 5 1073.40 523.304 12
-1 5 5 3648.55 1101.16 7
1 -5 -5 3059.20 701.908 3
-1 5 5 3054.00 680.429 1
-1 5 4 13361.0 1662.33 6
-1 5 4 12690.5 1796.21 7
-1 5 4 12760.7 1942.51 12
1 -5 -4 13393.3 1244.88 3
-1 5 4 13662.1 1333.63 1
-1 5 3 7922.95 1229.36 4
-1 5 3 6403.84 1175.16 7
-1 5 3 9067.23 1312.09 6
-1 5 3 6971.36 1294.50 12
-1 5 3 6112.24 963.050 1
-1 5 2 21074.7 1923.07 4
-1 5 2 20917.8 1771.32 1
-1 5 2 19363.4 945.037 2
-1 5 2 18439.8 1815.04 7
-1 5 2 17126.3 1752.72 12
-1 5 1 56632.1 2851.74 1
-1 5 1 48247.8 1768.73 2
-1 5 1 51653.5 2880.51 7
-1 5 1 45313.1 2660.25 12
-1 5 1 53559.1 2971.76 4
-1 5 0 99024.1 3801.01 7
-1 5 0 95974.9 2774.18 2
-1 5 0 106800. 3695.79 1
-1 5 0 106649. 4141.10 4
-1 5 0 90963.6 3372.36 12
-1 5 -1 48813.2 2147.45 2
-1 5 -1 51157.1 2527.94 1
-1 5 -1 48400.2 2119.64 12
-1 5 -2 19002.9 957.639 3
-1 5 -2 21979.4 1554.13 2
-1 5 -2 22135.6 1747.35 1
-1 5 -2 23398.3 1202.35 12
-1 5 -2 23871.6 2065.98 4
-1 5 -3 4173.48 744.273 1
-1 5 -3 4220.06 636.915 3
-1 5 -3 4277.41 790.938 2
1 -5 3 5151.76 1051.42 10
-1 5 -4 4484.37 775.877 1
-1 5 -4 4221.15 700.532 3
1 -5 5 116458. 5625.68 10
-1 5 -5 113777. 3967.25 3
-1 5 -5 103892. 3598.84 1
-1 5 -6 5626.64 809.491 1
-1 5 -6 5926.63 991.119 3
1 -5 6 6867.34 1514.83 10
1 -5 7 4468.75 1227.93 10
-1 5 -7 3623.96 789.247 3
-1 5 -8 78.6775 290.069 3
1 -5 8 -698.525 734.989 10
-1 5 -9 4106.82 1052.55 3
1 -5 9 4007.80 1469.10 10
1 -5 9 3191.91 1071.81 8
1 -5 10 11300.4 2308.91 10
-1 5 -10 14068.2 2152.57 3
1 -5 10 10415.4 2140.99 8
-1 5 -11 250.016 493.850 3
-1 5 -12 879.930 693.916 3
-1 4 11 943.771 921.016 7
1 -4 -11 -27.3946 419.379 3
1 -4 -10 731.686 731.209 3
-1 4 10 347.696 905.592 7
1 -4 -9 10152.0 1783.56 3
-1 4 9 9153.33 2125.35 7
1 -4 -8 5069.35 1218.66 3
-1 4 8 6046.16 1597.15 7
-1 4 8 5365.42 1550.77 12
-1 4 7 39665.3 3902.44 12
-1 4 7 41177.9 3235.17 6
1 -4 -7 50319.8 3411.76 3
-1 4 7 46204.8 4137.84 7
-1 4 6 3097.49 1187.23 12
-1 4 6 4384.21 1256.27 7
-1 4 6 4425.89 1029.27 6
1 -4 -6 4514.83 979.214 3
-1 4 5 259.356 385.209 6
-1 4 5 1424.30 660.856 7
-1 4 5 1485.19 793.555 12
1 -4 -5 55.4717 231.048 3
-1 4 4 7730.92 1140.16 6
-1 4 4 6480.42 873.759 1
1 -4 -4 7008.38 915.967 3
-1 4 4 7671.20 1366.82 7
-1 4 4 4516.73 852.814 12
-1 4 3 1212.56 683.160 12
-1 4 3 1914.37 532.490 1
-1 4 3 1366.67 651.182 7
-1 4 3 1657.39 702.290 4
1 -4 -3 2098.75 513.421 3
1 -4 -2 200230. 3349.30 3
-1 4 2 213048. 4975.05 1
-1 4 2 203095. 5405.12 7
-1 4 2 209069. 5836.91 12
-1 4 2 218705. 5665.06 4
-1 4 1 12107.7 1276.74 12
-1 4 1 16270.4 1516.14 4
-1 4 1 13905.4 1340.99 7
-1 4 1 13751.9 815.404 2
-1 4 0 21029.7 1164.11 2
-1 4 0 22785.1 1591.64 7
-1 4 0 21436.9 1446.68 12
-1 4 -1 4604.78 593.273 2
-1 4 -1 5156.67 767.325 5
-1 4 -2 54130.4 2427.52 1
-1 4 -2 51569.6 2327.23 5
-1 4 -2 54761.1 2279.19 2
-1 4 -2 52747.3 1683.39 3
1 -4 3 108821. 4417.75 10
-1 4 -3 96020.3 3241.09 1
-1 4 -3 111213. 3374.23 2
-1 4 -3 96760.6 2841.18 3
-1 4 -4 907.598 346.173 1
-1 4 -4 442.143 269.210 3
-1 4 -4 500.459 189.294 13
-1 4 -5 32799.2 2098.49 3
1 -4 5 36028.0 2930.12 10
-1 4 -5 28288.3 1644.76 1
1 -4 6 2515.02 913.471 10
-1 4 -6 3018.20 821.671 3
1 -4 7 99218.8 5517.26 10
-1 4 -7 101526. 4442.75 3
1 -4 8 739.594 529.934 8
1 -4 8 -110.165 504.557 10
-1 4 -8 -244.596 444.380 3
1 -4 9 67.9023 394.269 10
-1 4 -9 740.384 540.539 3
1 -4 9 447.893 598.116 8
-1 4 -10 3959.83 1076.60 3
1 -4 10 3923.61 1355.11 8
-1 4 -11 830.480 645.839 3
-1 4 -12 15823.1 2519.78 3
1 -4 12 14387.6 3052.67 7
-1 3 12 -480.785 1037.79 7
1 -3 -12 993.893 886.815 3
-1 3 11 747.160 1191.26 7
1 -3 -11 1997.93 960.877 3
-1 3 10 -1052.32 913.321 7
1 -3 -10 -704.883 758.607 3
1 -3 -9 7753.32 1550.65 3
-1 3 9 8496.59 2105.76 7
-1 3 8 13096.0 2301.65 12
-1 3 8 19108.9 2807.86 7
1 -3 -8 20491.0 2310.61 3
1 -3 -7 22207.4 2141.52 3
-1 3 7 18831.7 1966.57 6
-1 3 7 21604.0 2717.38 12
-1 3 7 25922.8 3034.05 7
-1 3 6 -177.201 683.022 7
1 -3 -6 204.994 343.070 3
-1 3 6 -177.507 510.900 6
-1 3 5 27073.5 2606.12 7
-1 3 5 22905.2 2265.04 12
1 -3 -5 25031.9 1859.85 3
-1 3 5 21279.4 1864.51 6
-1 3 4 18805.8 1979.55 7
-1 3 4 19051.4 1916.62 12
-1 3 4 17364.0 1525.90 6
1 -3 -4 16917.7 1380.44 3
-1 3 3 136664. 3420.78 1
1 -3 -3 136039. 3420.94 3
-1 3 3 134216. 4698.61 7
-1 3 2 81668.8 3100.27 7
-1 3 2 67502.8 2517.38 1
-1 3 1 16452.5 1258.97 1
-1 3 1 15757.0 673.349 2
-1 3 1 13109.0 1274.36 12
-1 3 1 14283.9 1199.23 7
-1 3 0 219176. 3204.77 2
-1 3 0 225904. 4388.66 7
-1 3 -1 38387.5 1763.73 5
-1 3 -1 40122.4 1591.08 2
-1 3 -2 186026. 3219.43 3
-1 3 -2 184205. 3613.79 5
-1 3 -2 185053. 3824.98 2
-1 3 -2 177294. 3871.89 1
1 -3 2 190141. 4588.72 10
-1 3 -2 191431. 2960.33 11
-1 3 -3 89282.4 2742.59 3
-1 3 -3 88955.8 2700.87 1
-1 3 -3 96517.0 2425.32 5
-1 3 -4 7806.56 627.088 5
-1 3 -4 7215.40 744.718 1
-1 3 -4 8521.94 952.951 3
1 -3 5 81470.5 4035.31 10
-1 3 -5 76454.9 3148.20 3
-1 3 -6 136699. 4691.81 3
1 -3 6 135122. 5724.38 10
-1 3 -7 13558.3 1587.11 3
1 -3 7 15561.4 2017.86 8
1 -3 7 15478.2 2144.48 10
1 -3 8 20917.4 2657.45 10
1 -3 8 19791.0 2391.21 8
-1 3 -8 22544.0 2286.73 3
-1 3 -9 13787.6 1939.09 3
1 -3 9 11707.7 2020.49 8
1 -3 10 1041.13 439.812 8
-1 3 -10 2415.94 929.530 3
1 -3 11 12785.1 2735.40 7
-1 3 -11 14360.9 2325.79 3
-1 3 -12 162.637 413.929 3
1 -3 12 3755.98 1759.93 7
1 -2 -12 -398.022 427.925 3
-1 2 12 365.049 806.083 7
-1 2 11 2836.29 1210.05 7
1 -2 -11 4891.38 1360.59 3
1 -2 -10 13437.9 2193.04 3
-1 2 10 11165.2 2535.83 7
1 -2 -9 12724.8 2010.42 3
-1 2 9 10891.7 2269.09 7
-1 2 8 16270.9 2741.89 7
1 -2 -8 14657.0 1879.09 3
-1 2 8 9057.07 1784.44 12
-1 2 7 4547.28 1295.63 12
1 -2 -7 5655.76 1136.25 3
-1 2 7 6517.92 1554.76 7
-1 2 6 111844. 5561.01 12
-1 2 6 106276. 4075.01 6
-1 2 6 129860. 6031.41 7
1 -2 -6 128640. 4623.79 3
-1 2 5 46954.1 3037.66 12
1 -2 -5 47540.6 2559.30 3
-1 2 5 38084.5 2262.19 6
-1 2 5 49409.2 3363.17 7
-1 2 4 1497.67 696.512 7
-1 2 4 5292.87 1138.20 12
-1 2 3 1054.75 486.930 7
-1 2 2 6730.37 848.483 5
-1 2 2 7824.66 713.136 1
-1 2 2 7755.33 975.200 7
-1 2 1 532374. 5805.87 1
-1 2 1 533378. 6470.07 7
-1 2 0 46512.1 1584.77 7
-1 2 -1 885.302 283.392 11
-1 2 -1 984.379 310.895 5
1 -2 2 9239.63 1046.21 10
-1 2 -2 8987.60 775.798 3
-1 2 -2 10295.0 811.362 1
-1 2 -3 19760.1 1038.99 1
-1 2 -3 21836.4 1335.55 3
-1 2 -4 232069. 4880.70 3
1 -2 5 76127.2 3761.45 10
-1 2 -5 63366.0 2950.49 3
1 -2 6 1150.51 515.289 8
-1 2 -6 1162.02 380.469 3
1 -2 6 1232.88 739.953 10
1 -2 7 2861.43 834.254 10
-1 2 -7 3386.19 858.672 3
1 -2 7 3875.56 1008.52 8
1 -2 8 73671.0 4587.81 8
-1 2 -8 81796.7 4255.89 3
-1 2 -9 5566.52 1206.93 3
1 -2 9 4990.53 1229.70 8
-1 2 -10 3682.95 1116.94 3
-1 2 -11 -389.753 743.366 3
1 -2 11 305.783 760.584 7
1 -2 12 1386.01 957.948 7
-1 2 -12 -36.0847 457.879 3
-1 2 -13 9993.52 2077.62 3
1 -2 13 10671.3 2728.61 7
1 -1 -12 46.4567 489.694 3
-1 1 12 -1159.29 1135.73 7
-1 1 11 1122.29 952.694 7
1 -1 -11 2630.94 1074.16 3
-1 1 10 14853.6 2826.11 7
1 -1 -10 13142.4 2096.18 3
1 -1 -9 4405.97 1122.62 3
-1 1 9 4358.68 1309.88 7
-1 1 8 44031.2 4153.15 7
1 -1 -8 44348.3 3388.20 3
-1 1 7 2002.73 901.695 12
1 -1 -7 2213.65 730.071 3
-1 1 6 45610.6 2333.13 6
-1 1 6 61720.5 4029.73 7
1 -1 -6 60657.8 3125.34 3
-1 1 6 51349.4 3473.76 12
-1 1 5 41819.7 2828.38 12
-1 1 5 38108.8 1941.04 6
-1 1 4 179087. 5281.99 12
-1 1 4 192278. 5640.29 7
-1 1 2 2236.64 621.895 7
-1 1 2 2208.29 462.399 5
-1 1 1 309692. 4240.81 7
-1 1 1 310475. 4040.17 5
-1 1 -1 960774. 5777.02 3
1 -1 1 999999. 6612.83 10
-1 1 -2 1916.49 368.649 3
-1 1 -3 9807.27 909.795 3
1 -1 4 240272. 5201.46 8
1 -1 5 4717.73 838.190 8
1 -1 5 5190.23 941.409 10
-1 1 -6 283412. 6760.64 3
1 -1 6 271267. 7034.40 8
-1 1 -7 18251.6 1779.48 3
1 -1 7 16410.8 1839.34 8
-1 1 -8 -70.3532 354.934 3
1 -1 8 624.866 509.633 8
1 -1 9 8123.02 1804.86 7
1 -1 9 4708.60 1135.00 8
-1 1 -9 7328.32 1429.80 3
-1 1 -10 12541.8 1988.93 3
1 -1 10 10346.8 2229.33 7
1 -1 11 16134.8 2939.94 7
-1 1 -11 17090.8 2480.83 3
1 -1 12 -545.857 790.291 7
-1 1 -12 945.809 702.570 3
1 -1 13 -1029.48 1168.46 7
-1 1 -13 939.032 770.591 3
1 0 -12 1014.67 967.425 3
-1 0 12 1766.26 1508.27 7
-1 0 11 2887.43 1666.84 7
1 0 -11 1723.43 897.040 3
-1 0 10 1608.23 1166.76 7
1 0 -10 624.931 532.936 3
-1 0 9 23044.8 3268.95 7
1 0 -9 20927.0 2438.60 3
-1 0 8 68795.4 5021.06 7
1 0 -8 65728.1 3869.37 3
1 0 -7 1615.46 310.258 3
-1 0 7 2319.84 889.755 12
-1 0 6 49747.6 2298.60 8
-1 0 6 52732.6 3443.91 12
-1 0 5 56347.5 1886.86 6
-1 0 5 52045.5 2112.43 8
-1 0 5 51117.8 2901.33 12
-1 0 4 114028. 3578.42 10
-1 0 4 127058. 2800.89 8
-1 0 4 122926. 3969.94 12
-1 0 4 115368. 2561.55 6
-1 0 3 139948. 3293.58 10
-1 0 3 145555. 3900.17 12
-1 0 2 8192.63 664.345 10
-1 0 2 9569.19 624.758 5
1 0 -2 7662.64 591.195 2
-1 0 1 349402. 4325.87 11
1 0 2 147136. 2887.24 8
1 0 3 58972.3 2163.55 8
1 0 4 39804.8 2073.52 8
1 0 5 114454. 3841.41 8
1 0 6 29227.5 2200.22 8
-1 0 -6 34450.0 2362.61 3
1 0 7 5204.97 990.042 8
-1 0 -7 6982.57 1336.35 3
1 0 7 8138.92 1716.27 7
-1 0 -8 42573.4 3156.82 3
1 0 8 50102.3 4192.61 7
1 0 9 12099.7 2261.16 7
-1 0 -9 9694.05 1664.59 3
1 0 10 8242.54 2134.89 7
-1 0 -10 7270.88 1511.88 3
-1 0 -11 3318.44 1090.71 3
1 0 11 4563.27 1713.89 7
1 0 12 2826.12 1886.12 7
-1 0 -12 58.5669 469.843 3
1 0 13 7609.47 2324.40 7
-1 0 -13 5644.19 1595.33 3
-1 -1 12 5023.24 1937.90 7
1 1 -12 4531.41 1410.09 3
-1 -1 11 3407.39 1494.56 7
1 1 -11 4729.62 1443.41 3
1 1 -10 2039.49 888.111 3
-1 -1 10 3763.96 1694.60 7
1 1 -9 8233.77 1481.16 3
1 1 -8 -273.453 405.497 3
1 1 -7 79031.7 3995.17 3
-1 -1 6 8339.56 1211.68 12
-1 -1 6 8062.95 1226.27 10
-1 -1 6 7779.51 1045.88 8
-1 -1 5 7186.31 1018.55 12
-1 -1 5 5483.34 926.658 10
-1 -1 4 4643.98 678.968 12
1 1 -4 4209.42 601.394 2
-1 -1 4 4115.82 747.163 10
1 1 -3 34068.2 1542.78 2
-1 -1 3 34093.0 1857.94 10
-1 -1 3 37465.4 1755.16 12
-1 -1 2 180943. 3563.22 10
1 1 -2 173898. 3169.14 2
1 1 -1 229456. 3216.68 2
-1 -1 1 239915. 2914.83 11
1 1 -1 235478. 3818.12 13
1 1 0 121808. 2391.14 13
1 1 1 58540.7 1303.82 9
-1 -1 -1 54642.6 1390.38 3
-1 -1 -2 595737. 5925.35 3
-1 -1 -3 102242. 2977.00 3
-1 -1 -5 62471.7 2837.53 3
-1 -1 -6 6045.33 1194.67 3
1 1 6 1390.38 627.885 7
-1 -1 -7 106318. 4607.11 3
1 1 7 100472. 5308.76 7
-1 -1 -8 4097.09 1155.60 3
1 1 8 1999.22 803.071 7
-1 -1 -9 3951.89 1196.94 3
1 1 9 1922.24 682.978 7
-1 -1 -10 1428.29 798.178 3
1 1 10 99.2356 590.745 7
-1 -1 -11 121.607 557.496 3
1 1 11 -2039.94 1136.32 7
1 1 12 7349.73 2159.07 7
-1 -1 -12 10892.3 2140.52 3
1 1 13 -77.6926 871.015 7
-1 -1 -13 1303.75 919.609 3
-1 -2 12 4190.44 1792.14 7
1 2 -12 6657.53 1652.23 3
1 2 -11 834.739 553.420 3
-1 -2 11 1228.02 967.724 7
1 2 -10 2874.09 955.296 3
1 2 -9 2644.54 924.287 3
1 2 -8 -802.289 670.443 3
1 2 -7 69208.0 3654.31 3
-1 -2 7 58110.9 3238.66 8
-1 -2 7 58329.7 3853.10 10
-1 -2 6 3896.28 928.767 10
-1 -2 5 115311. 4502.09 10
1 2 -5 114937. 3708.91 2
-1 -2 5 116248. 3784.22 12
-1 -2 4 2194.09 638.236 10
-1 -2 4 2387.19 540.434 12
1 2 -4 2406.62 519.410 2
1 2 -4 2614.26 417.620 1
1 2 -3 16644.0 1208.45 2
-1 -2 3 16054.4 951.322 12
-1 -2 3 15887.3 1479.51 10
1 2 -2 67775.5 2476.17 13
1 2 -1 43657.1 1741.56 13
1 2 0 204103. 3896.27 13
-1 -2 -1 7761.59 563.496 3
1 2 1 8376.78 524.821 4
-1 -2 -2 2035.10 456.600 3
-1 -2 -3 -5.57131 301.349 3
1 2 4 36755.4 1495.71 1
-1 -2 -4 35891.3 1997.17 3
1 2 5 44286.3 1535.17 1
-1 -2 -5 43589.1 2430.61 3
1 2 6 14942.2 1893.08 7
-1 -2 -6 14307.0 1572.80 3
-1 -2 -7 3019.02 826.278 3
1 2 7 3054.86 981.954 7
1 2 8 11760.8 1978.04 7
-1 -2 -8 10727.8 1587.36 3
-1 -2 -9 20502.5 2473.79 3
1 2 9 20864.0 2939.13 7
-1 -2 -10 613.097 567.577 3
1 2 10 945.180 1159.77 7
1 2 11 1220.03 1015.50 7
-1 -2 -11 1156.43 749.349 3
1 2 12 294.482 718.078 7
-1 -2 -12 1350.64 845.779 3
1 2 13 2179.25 1425.35 7
-1 -2 -13 1027.04 724.448 3
1 3 -12 -95.6038 628.363 3
-1 -3 12 2059.80 1221.12 7
-1 -3 11 1303.09 1174.36 7
1 3 -11 3237.52 1170.25 3
1 3 -10 2930.20 1087.90 3
1 3 -10 1494.61 737.356 13
1 3 -9 5446.94 1229.61 3
-1 -3 8 9648.33 1532.00 8
-1 -3 8 9382.03 1799.85 10
1 3 -8 13705.3 1759.37 3
1 3 -7 15995.9 1824.51 3
-1 -3 7 12701.9 1903.20 10
-1 -3 6 42040.6 3231.24 10
1 3 -6 41544.2 2702.82 3
-1 -3 5 17035.2 1839.29 10
1 3 -5 12218.3 905.137 1
1 3 -5 16584.6 1481.44 2
-1 -3 4 1435.80 591.733 10
1 3 -4 1492.94 414.527 2
1 3 -4 533.689 319.901 13
1 3 -4 1004.91 316.248 1
1 3 -3 2913.54 559.455 1
1 3 -3 3389.86 660.843 13
1 3 -2 19911.8 1381.85 1
1 3 -2 19923.2 1403.11 13
1 3 -1 56922.9 2288.68 13
1 3 0 26197.7 1399.12 6
1 3 0 22303.5 1297.90 2
1 3 0 22823.6 1239.48 4
1 3 1 43079.9 1678.09 4
1 3 1 47227.2 1861.61 2
-1 -3 -1 45630.2 1354.43 3
1 3 2 36185.8 1628.07 4
-1 -3 -2 40248.9 1500.71 3
1 3 2 35994.3 1140.38 9
1 3 2 38276.1 2008.14 1
1 3 3 57746.6 1439.70 9
-1 -3 -3 59365.7 2283.67 3
1 3 3 54563.2 2366.39 1
1 3 4 23362.6 1525.27 1
1 3 4 24407.8 1820.19 6
-1 -3 -4 24322.5 1720.43 3
1 3 5 14593.5 1182.71 1
-1 -3 -5 16904.6 1594.79 3
1 3 5 17127.3 1964.54 7
1 3 6 36223.6 3142.73 7
-1 -3 -6 33137.6 2445.76 3
-1 -3 -7 21797.5 2157.90 3
1 3 7 24703.3 2900.44 7
-1 -3 -8 22492.9 2405.61 3
1 3 8 25837.2 3491.29 7
1 3 9 3295.67 1218.56 7
-1 -3 -9 2314.74 808.199 3
1 3 10 -892.002 1001.84 7
-1 -3 -10 781.425 705.825 3
1 3 11 -2301.62 1217.61 7
-1 -3 -11 -438.326 697.474 3
1 3 12 3394.48 1659.78 7
-1 -3 -12 2089.13 1065.41 3
-1 -3 -13 1550.77 872.652 3
1 4 -11 809.137 521.159 3
1 4 -10 184.334 314.572 3
-1 -4 9 464.837 544.104 10
1 4 -9 -577.317 443.183 3
1 4 -8 799.630 412.291 3
-1 -4 8 1221.92 766.632 10
1 4 -8 950.149 601.392 13
1 4 -7 2357.62 688.938 3
1 4 -7 2034.89 655.252 13
-1 -4 7 1847.14 766.661 10
1 4 -6 21298.2 1883.60 2
-1 -4 6 19611.8 2346.66 10
1 4 -6 15492.1 1755.72 13
1 4 -6 19697.1 1831.97 3
-1 -4 5 40031.3 3166.38 10
1 4 -5 38427.3 1880.73 1
1 4 -5 44851.9 2563.06 2
-1 -4 4 9679.70 1515.47 10
1 4 -4 7515.01 1029.90 2
1 4 -4 7370.04 924.598 1
1 4 -4 7520.71 1072.61 13
1 4 -3 402.280 361.224 2
1 4 -3 239.596 320.538 13
1 4 -3 -9.15065 317.716 1
1 4 -2 2451.12 572.950 13
1 4 -2 3057.92 696.032 1
1 4 -1 67432.6 2880.79 1
1 4 -1 63431.4 2451.15 6
1 4 0 86788.3 2927.45 2
1 4 0 90201.9 3136.17 6
1 4 0 97089.2 3026.49 4
1 4 1 27192.2 1514.99 2
1 4 1 30049.3 1657.68 4
1 4 2 57255.0 2212.44 2
1 4 2 60544.1 2760.88 1
-1 -4 -2 55874.2 1704.45 3
1 4 2 59231.2 2380.48 4
-1 -4 -3 19536.1 1334.42 3
1 4 3 17211.6 1324.85 2
1 4 3 19117.5 1562.01 1
1 4 4 13878.8 1483.50 7
1 4 4 16790.7 1500.25 1
-1 -4 -4 18148.9 1505.18 3
1 4 4 20441.8 1792.12 6
-1 -4 -5 5971.49 976.341 3
1 4 5 4537.96 759.767 7
1 4 5 6260.19 879.370 1
-1 -4 -6 14656.9 1624.32 3
1 4 6 11833.3 1123.00 1
1 4 6 13009.9 1847.04 7
-1 -4 -7 14974.0 1813.37 3
1 4 7 14549.4 2126.07 7
1 4 8 3889.73 1462.21 7
-1 -4 -8 2852.27 896.904 3
-1 -4 -9 11415.4 1891.09 3
1 4 9 13484.1 2490.58 7
1 4 10 -105.229 749.605 7
-1 -4 -10 -391.754 365.666 3
1 4 11 536.980 780.246 7
-1 -4 -11 147.449 553.069 3
1 4 12 1289.21 1223.42 7
-1 -4 -12 2553.51 1124.47 3
1 5 -11 -245.141 295.202 3
1 5 -10 756.667 570.452 3
-1 -5 10 718.122 775.804 10
1 5 -9 691.357 560.659 3
-1 -5 9 -447.469 485.150 10
-1 -5 9 -284.167 343.218 8
-1 -5 8 218.092 374.039 10
1 5 -8 379.235 251.445 3
-1 -5 7 18528.5 2496.00 10
1 5 -7 20608.2 2086.29 3
1 5 -6 4575.74 1011.26 13
1 5 -6 5178.59 951.437 3
1 5 -6 5929.94 1090.63 2
-1 -5 6 5886.45 1382.15 10
1 5 -5 2449.03 638.259 13
1 5 -5 2793.36 693.643 2
1 5 -5 2624.32 521.186 1
1 5 -5 2692.40 657.331 3
-1 -5 5 3616.16 1154.93 10
1 5 -4 1498.42 474.386 13
1 5 -4 3257.94 790.766 2
1 5 -4 2426.86 525.684 1
-1 -5 4 1712.15 564.469 10
1 5 -3 33501.1 2139.61 13
1 5 -3 41791.9 2358.75 2
1 5 -3 39600.8 2380.99 1
1 5 -2 23737.6 1812.37 13
1 5 -2 27832.6 2043.72 1
1 5 -1 11677.6 1265.07 4
1 5 -1 10737.9 1161.07 6
1 5 -1 14078.1 1275.59 2
1 5 -1 12949.4 1378.20 1
1 5 0 2172.99 626.378 6
1 5 0 1998.02 624.284 4
1 5 0 2457.37 651.100 2
1 5 1 3550.47 386.319 1
1 5 1 6513.37 818.845 2
1 5 1 5419.03 1080.41 7
1 5 1 4922.10 888.370 6
1 5 1 5146.11 735.733 4
1 5 2 115966. 4683.87 7
1 5 2 101371. 3440.14 4
1 5 2 114032. 4211.35 1
1 5 2 104961. 3104.83 2
1 5 2 126821. 4395.54 6
-1 -5 -2 102858. 2321.32 3
-1 -5 -3 1111.23 319.076 3
1 5 3 1270.45 436.159 4
1 5 3 853.595 425.922 6
1 5 3 874.626 297.983 2
1 5 3 885.741 491.736 1
1 5 4 3556.62 787.885 1
1 5 4 3941.93 642.728 2
-1 -5 -4 4499.22 732.960 3
1 5 5 -298.645 292.970 1
1 5 5 749.800 770.469 7
-1 -5 -5 -263.916 382.743 3
1 5 5 113.479 461.684 6
-1 -5 -6 52.7911 279.750 3
1 5 6 -33.1943 219.471 1
-1 -5 -7 45876.3 3219.05 3
1 5 7 47165.3 4095.82 7
1 5 8 3198.34 1299.34 7
-1 -5 -8 3421.74 912.431 3
1 5 9 13083.6 2496.25 7
-1 -5 -9 11257.4 1856.87 3
-1 -5 -10 491.036 530.789 3
1 5 10 5.34839 675.186 7
1 5 11 -430.777 720.471 7
1 5 12 2670.11 1321.29 7
1 6 -11 -86.7119 397.039 3
-1 -6 10 1875.50 1096.80 10
1 6 -10 1953.98 684.921 3
-1 -6 9 -605.288 807.260 10
1 6 -9 729.441 391.241 3
1 6 -8 407.411 306.178 3
-1 -6 8 1236.50 869.269 10
-1 -6 7 2896.59 1122.31 10
1 6 -7 2248.90 653.557 3
1 6 -6 -198.446 377.159 2
1 6 -6 592.229 365.927 3
-1 -6 6 728.952 762.782 10
1 6 -5 43292.3 2595.83 3
-1 -6 5 47442.2 3962.90 10
1 6 -5 43491.7 2528.51 1
1 6 -5 52731.3 3170.40 2
-1 -6 4 7434.15 1477.53 10
1 6 -4 6205.73 903.721 3
1 6 -4 7551.84 1109.43 2
1 6 -4 7683.81 1117.21 1
1 6 -3 -143.632 447.570 1
1 6 -3 755.060 543.408 2
1 6 -2 27251.6 2088.98 4
1 6 -2 26191.4 1913.37 2
1 6 -2 25246.2 2108.46 1
1 6 -1 1989.71 865.385 1
1 6 -1 1204.06 439.051 6
1 6 -1 1138.92 618.557 4
1 6 -1 1277.08 630.780 2
1 6 0 109669. 3693.18 2
1 6 0 107807. 4037.12 4
1 6 0 115832. 4589.53 1
1 6 0 103210. 4176.91 6
1 6 1 78342.1 4056.88 7
1 6 1 74845.2 3709.83 6
1 6 1 74230.1 3050.45 2
1 6 1 75844.6 3695.85 1
1 6 1 72315.2 3243.27 4
1 6 2 1054.24 448.845 4
1 6 2 610.553 240.651 2
1 6 2 1288.38 492.168 1
1 6 3 31934.8 2434.82 1
1 6 3 35333.2 2791.00 6
1 6 3 30585.0 2207.62 4
1 6 3 29444.8 1813.53 2
1 6 4 16700.2 2185.10 7
1 6 4 16312.3 1724.29 1
1 6 4 18268.8 2100.18 6
1 6 5 18368.3 1777.58 1
1 6 5 19737.7 2255.36 6
1 6 5 17976.8 2326.80 7
1 6 6 19692.0 1871.20 1
1 6 6 21493.0 2818.99 7
1 6 7 -9.13089 603.637 7
1 6 8 10285.4 2163.63 7
1 6 9 15279.7 2760.42 7
1 6 10 -653.805 789.100 7
1 6 11 614.691 644.171 7
-1 -7 10 936.579 746.867 10
-1 -7 9 3191.43 1302.95 10
-1 -7 8 143.477 432.870 10
-1 -7 7 2714.78 1251.25 10
-1 -7 6 50062.2 4546.98 10
-1 -7 5 421.061 444.193 10
1 7 -5 1325.58 534.940 2
1 7 -5 1096.42 350.536 1
-1 -7 4 19943.9 2734.03 10
1 7 -4 21047.2 1975.78 2
1 7 -4 19039.9 1865.17 1
1 7 -3 10183.7 1315.52 2
1 7 -3 10329.1 1538.06 4
1 7 -3 9528.35 1318.19 1
1 7 -2 867.026 419.684 1
1 7 -2 358.636 453.997 4
1 7 -2 280.772 373.640 2
1 7 -1 58491.1 3000.85 2
1 7 -1 63131.7 3483.12 4
1 7 -1 67127.7 3775.71 1
1 7 0 4979.88 987.569 4
1 7 0 4781.06 926.482 1
1 7 0 4973.88 1047.91 6
1 7 0 5089.39 847.218 2
1 7 1 14797.1 1414.44 2
1 7 1 16925.9 1734.61 4
1 7 1 18953.5 2049.66 6
1 7 1 18553.2 1974.75 1
1 7 2 21743.3 1675.46 2
1 7 2 21026.8 2368.14 7
1 7 2 20373.8 1868.36 4
1 7 2 26134.4 2308.26 1
1 7 2 22808.4 2363.60 6
1 7 3 43128.1 3025.27 1
1 7 3 39660.3 2173.05 2
1 7 3 42883.3 3350.21 6
1 7 3 44225.9 3469.97 7
1 7 3 37346.0 2635.40 4
1 7 4 7706.13 1294.63 1
1 7 4 9894.06 1688.10 6
1 7 4 8642.82 1601.20 7
1 7 5 16805.8 2422.77 7
1 7 5 16740.4 1856.05 1
1 7 6 2204.98 660.011 1
1 7 6 2599.79 1112.88 7
1 7 7 2861.67 1056.58 7
1 7 8 30981.2 3844.98 7
1 7 9 -20.8426 473.947 7
1 7 10 5628.75 1982.09 7
1 7 11 125.218 591.042 7
-1 -8 9 5241.46 1807.43 10
-1 -8 8 7610.85 1898.60 10
-1 -8 7 809.152 645.445 10
-1 -8 6 1225.68 987.431 10
-1 -8 5 1917.09 768.237 10
1 8 -5 1553.49 474.722 2
1 8 -5 994.308 373.059 1
1 8 -4 98998.6 5303.36 4
-1 -8 4 86360.6 5805.15 10
1 8 -4 107386. 4901.45 2
1 8 -4 93855.6 4509.02 1
1 8 -3 7522.26 1166.65 2
1 8 -3 6711.45 1317.68 4
1 8 -3 6704.40 1123.97 1
1 8 -2 1954.49 697.027 1
1 8 -2 2069.19 627.441 2
1 8 -2 3531.11 1019.35 4
1 8 -1 4932.20 898.841 2
1 8 -1 5679.51 1101.59 4
1 8 -1 6726.62 1324.22 1
1 8 0 5893.52 1012.70 2
1 8 0 7067.43 1250.90 1
1 8 0 7517.91 1291.56 4
1 8 1 113275. 4156.34 2
1 8 1 109812. 4764.09 4
1 8 1 128722. 5426.57 1
1 8 1 114694. 5528.45 6
1 8 2 -29.4923 391.339 1
1 8 2 -760.221 550.179 7
1 8 2 -119.125 310.997 2
1 8 2 -677.859 491.028 4
1 8 2 996.584 806.443 6
1 8 3 7491.11 1336.75 1
1 8 3 6109.42 1497.67 7
1 8 3 5672.05 1297.79 6
1 8 3 5458.17 1079.44 4
1 8 4 5921.13 1460.29 7
1 8 4 5166.47 1124.47 1
1 8 5 11520.4 1653.46 1
1 8 5 10918.7 2021.56 7
1 8 6 31866.8 3743.68 7
1 8 6 35620.1 2986.03 1
1 8 7 1118.96 865.201 7
1 8 8 6913.32 2233.84 7
1 8 9 2205.68 1209.56 7
1 8 10 7237.50 2315.12 7
1 9 -8 5256.27 1613.52 4
-1 -9 8 5216.92 1746.06 10
-1 -9 7 3360.70 1322.61 10
1 9 -7 2629.12 1112.70 4
-1 -9 6 12918.4 2596.60 10
1 9 -6 16899.5 2478.89 4
-1 -9 5 10969.2 2327.14 10
1 9 -5 13919.2 2137.18 4
1 9 -5 13629.2 1772.03 1
1 9 -5 15712.4 2055.91 2
1 9 -4 4163.82 1223.24 4
1 9 -4 2969.24 805.515 2
-1 -9 4 3552.66 1345.76 10
1 9 -4 3043.65 874.945 1
1 9 -3 15556.4 2168.35 4
1 9 -3 13454.3 1748.81 2
1 9 -3 13962.8 2039.62 1
1 9 -2 13808.1 1670.65 2
1 9 -2 14969.3 1900.73 1
1 9 -2 14480.7 2000.54 4
1 9 -1 10214.6 1628.29 1
1 9 -1 7344.41 1197.56 2
1 9 -1 8090.65 1425.46 4
1 9 0 11940.3 1705.21 4
1 9 0 11847.0 1431.14 2
1 9 0 15738.0 1996.93 1
1 9 1 4564.74 1003.30 4
1 9 1 4320.55 879.286 2
1 9 1 5264.05 1145.63 1
1 9 2 20248.3 2239.90 4
1 9 2 25775.0 2671.26 1
1 9 3 25631.2 3093.07 7
1 9 3 21512.1 2339.65 4
1 9 4 -381.587 419.763 1
1 9 4 420.414 739.016 7
1 9 5 -244.513 374.812 1
1 9 5 1024.75 917.919 7
1 9 6 2063.23 1136.00 7
1 9 6 3249.97 1020.83 1
1 9 7 1899.82 1027.30 7
1 9 8 4356.52 1510.29 7
1 9 9 1695.53 1219.48 7
-1 -10 7 4188.54 1614.31 10
1 10 -6 12580.4 2452.40 4
-1 -10 6 3664.59 1394.56 10
1 10 -5 654.769 530.306 1
-1 -10 5 964.507 860.146 10
1 10 -5 459.660 408.644 4
1 10 -4 4041.34 1269.21 4
1 10 -4 4423.87 1092.25 1
1 10 -4 3976.26 1063.22 2
-1 -10 4 2891.26 1315.88 10
-1 -10 3 8956.49 1940.92 10
1 10 -3 16549.5 2063.73 2
1 10 -3 15906.3 2120.80 1
1 10 -3 13830.6 2110.51 4
1 10 -2 13733.4 1827.64 2
1 10 -2 15695.8 2090.25 1
1 10 -2 10570.3 1797.71 4
1 10 -1 2588.53 712.549 2
1 10 -1 2259.26 910.958 4
1 10 -1 3033.68 879.986 1
1 10 0 812.300 599.625 4
1 10 0 898.586 646.534 1
1 10 0 638.044 485.826 2
1 10 1 2656.65 843.720 4
1 10 1 4187.67 1105.45 1
1 10 2 30838.0 3059.81 1
1 10 3 334.307 354.866 1
1 10 4 5884.80 1591.05 7
1 10 4 7626.03 1543.20 1
1 10 5 -604.993 744.342 7
1 10 5 -30.8988 459.236 1
1 10 6 -542.444 687.016 7
1 10 7 7523.04 2029.60 7
1 10 8 298.613 596.960 7
-1 -11 6 1238.95 1066.94 10
-1 -11 5 12002.7 2717.88 10
1 11 -5 19073.9 2315.56 1
-1 -11 4 -945.387 865.022 10
1 11 -4 12.6558 468.418 1
1 11 -3 271.102 348.793 1
-1 -11 3 585.273 712.618 10
1 11 -2 1526.02 786.255 1
-1 -11 2 1368.94 738.210 10
1 11 -2 1386.13 605.596 2
1 11 -1 2822.76 865.047 2
1 11 -1 2702.17 996.357 1
1 11 0 24785.8 2916.43 1
1 11 1 -630.735 568.620 1
1 11 2 1498.10 918.810 1
1 11 3 -334.728 359.263 1
1 11 4 4989.62 1352.51 1
1 11 5 2859.68 989.657 1
1 11 5 913.967 922.777 7
1 11 6 2101.57 1212.10 7
1 11 7 -768.887 807.447 7
1 12 -4 325.764 478.774 1
-1 -12 4 -203.975 743.600 10
-1 -12 3 1662.01 1200.79 10
1 12 -3 1866.24 917.379 1
1 12 -2 1645.99 873.075 1
-1 -12 2 492.463 721.121 10
1 12 -1 3689.42 1208.82 1
-1 -12 1 925.391 874.365 10
1 12 0 470.470 482.076 1
1 12 1 -112.782 388.180 1
1 12 2 4109.41 1291.09 1
1 12 3 2789.86 1008.22 1
1 12 4 638.298 460.912 1
1 12 5 -412.992 625.906 1
-2 12 1 1627.80 914.446 4
-2 12 1 427.101 535.701 6
-2 12 0 563.968 714.485 6
-2 12 0 241.833 616.923 4
-2 12 -1 786.332 786.842 4
-2 12 -1 -161.897 443.360 6
-2 12 -2 466.514 587.330 4
-2 12 -3 9256.42 2135.02 4
-2 11 4 8539.21 2196.76 6
-2 11 3 1350.92 1118.93 6
-2 11 2 782.616 416.164 4
-2 11 2 2395.85 1198.69 6
-2 11 1 1011.80 751.303 6
-2 11 1 710.602 715.384 4
-2 11 1 653.824 628.901 1
-2 11 0 7858.13 1885.36 4
-2 11 0 12925.6 2079.80 1
-2 11 0 7605.02 1868.63 6
-2 11 -1 5733.74 1437.83 1
-2 11 -1 4149.13 1379.19 4
-2 11 -1 3831.43 1266.97 6
-2 11 -2 241.564 565.128 4
-2 11 -2 -103.063 485.933 1
-2 11 -3 1332.42 678.726 1
-2 11 -3 1148.29 655.409 4
2 -11 3 303.110 324.127 10
-2 11 -4 1116.09 853.402 4
2 -11 4 567.738 723.902 10
-2 11 -5 12375.5 2384.62 4
2 -11 5 9529.88 2356.81 10
-2 11 -6 58.8121 462.501 4
2 -11 6 237.549 578.592 10
-2 10 6 -93.2471 573.920 6
-2 10 5 1024.41 770.850 6
-2 10 4 2327.94 1063.79 6
-2 10 3 680.272 605.203 6
-2 10 2 20697.4 2524.81 1
-2 10 2 17283.1 2792.66 6
-2 10 2 13819.0 2219.15 4
-2 10 1 5010.96 1192.09 1
-2 10 1 4116.65 1273.12 4
-2 10 1 4679.11 1475.06 6
-2 10 0 129.680 459.665 1
-2 10 0 -42.2806 364.287 4
-2 10 0 126.886 507.136 6
-2 10 -1 1411.83 804.178 4
-2 10 -1 3575.21 1200.42 6
-2 10 -1 2153.51 896.294 1
-2 10 -2 206.034 282.515 1
-2 10 -2 1702.64 913.800 6
-2 10 -2 1052.15 808.884 4
2 -10 2 887.905 555.965 10
-2 10 -3 8903.53 1909.90 4
2 -10 3 4803.54 1473.23 10
-2 10 -3 8183.37 1550.65 1
2 -10 4 2160.08 1112.06 10
-2 10 -4 3267.11 1194.24 4
-2 10 -4 3181.43 909.743 1
-2 10 -5 1060.54 722.584 4
2 -10 5 623.763 695.309 10
-2 10 -6 1862.99 947.471 4
2 -10 6 1171.20 795.101 10
-2 10 -7 412.870 707.454 4
2 -10 7 3044.88 1523.81 10
2 -10 8 131.905 659.417 8
-2 10 -8 -72.2766 500.817 4
2 -10 8 330.582 809.809 10
-2 9 7 1293.26 580.522 6
-2 9 6 -949.921 803.973 6
-2 9 5 653.283 652.551 6
-2 9 5 -980.925 755.233 7
-2 9 4 23.2795 464.757 7
-2 9 4 -999.603 796.449 12
-2 9 4 298.773 820.167 6
-2 9 3 20323.3 2740.58 4
-2 9 3 12955.8 2055.74 7
-2 9 3 12643.0 2263.60 12
-2 9 3 21293.7 2837.80 6
-2 9 3 22733.5 2543.68 1
-2 9 2 232.321 450.736 6
-2 9 2 -16.1583 532.968 4
-2 9 2 903.510 461.613 1
-2 9 2 -477.611 439.703 12
-2 9 1 532.035 388.786 1
-2 9 1 -403.277 614.343 6
-2 9 1 -264.342 610.683 4
-2 9 0 2029.43 702.632 6
-2 9 0 1699.44 625.831 4
-2 9 0 2830.49 791.736 1
-2 9 -1 911.899 512.472 1
-2 9 -1 1097.01 548.838 6
-2 9 -1 1126.24 714.883 4
2 -9 1 116.882 267.564 10
2 -9 2 3737.39 1195.43 10
-2 9 -2 6063.42 1478.55 4
-2 9 -2 5144.13 1146.46 1
-2 9 -2 4129.68 1018.29 6
-2 9 -3 -102.267 372.377 6
-2 9 -3 -20.8002 461.747 1
-2 9 -3 -491.826 757.576 4
2 -9 3 656.207 725.064 10
-2 9 -4 1066.28 770.767 4
2 -9 4 -554.187 477.544 10
-2 9 -4 227.940 563.105 1
-2 9 -5 4550.62 1375.53 4
-2 9 -5 3217.37 824.735 1
2 -9 5 2800.12 1233.34 10
2 -9 6 3283.75 1254.64 10
-2 9 -6 4096.87 1425.81 4
2 -9 7 303.633 735.996 10
-2 9 -7 -850.442 884.589 4
-2 9 -8 1046.17 883.613 4
2 -9 8 604.267 584.365 8
2 -9 8 430.027 404.723 10
2 -9 9 712.080 628.752 8
-2 9 -9 -542.117 867.272 4
2 -9 9 437.720 677.098 10
-2 8 8 -189.489 563.644 7
-2 8 7 838.012 688.218 6
-2 8 7 846.333 488.005 7
-2 8 6 1975.44 919.968 7
-2 8 6 839.339 651.573 6
-2 8 6 107.006 574.402 12
-2 8 5 396.318 537.243 7
-2 8 5 297.589 623.175 6
-2 8 5 -990.511 650.561 12
-2 8 4 2750.37 1064.86 12
-2 8 4 2755.22 1031.76 7
-2 8 4 3129.32 1062.64 6
-2 8 3 2535.89 1037.92 12
-2 8 3 2603.12 923.158 6
-2 8 3 3397.61 1097.26 7
-2 8 3 2263.36 858.240 4
-2 8 3 3964.93 995.874 1
-2 8 2 7185.52 1502.71 4
-2 8 2 5149.78 1204.08 7
-2 8 2 7779.78 1324.90 1
-2 8 2 7074.20 1483.71 6
-2 8 2 4766.80 1198.48 12
-2 8 1 12712.4 1933.44 4
-2 8 1 9258.44 1525.74 12
-2 8 1 16174.3 1895.35 1
-2 8 1 14494.6 2027.30 6
-2 8 0 5610.10 1161.85 6
-2 8 0 5732.51 1384.55 4
-2 8 0 6152.95 1153.08 1
2 -8 1 8.17325 297.838 10
-2 8 -1 117.335 369.690 6
-2 8 -1 -561.893 296.269 1
-2 8 -1 182.569 439.398 4
-2 8 -2 -168.843 442.255 1
-2 8 -2 282.640 760.235 4
2 -8 2 -141.793 368.994 10
-2 8 -2 360.268 432.827 6
-2 8 -3 22005.5 2154.40 1
2 -8 3 17557.6 2543.08 10
-2 8 -3 18171.6 1956.58 6
-2 8 -3 22486.0 2770.88 4
-2 8 -4 2773.78 1085.32 4
2 -8 4 3313.08 1061.34 10
-2 8 -4 2849.00 820.543 1
2 -8 5 11029.0 2124.08 10
-2 8 -5 14576.8 1777.93 1
-2 8 -5 15083.1 2330.63 4
2 -8 6 1337.98 875.598 10
-2 8 -6 3835.26 1330.56 4
2 -8 7 1369.54 958.510 10
-2 8 -7 1462.61 855.905 4
2 -8 8 -532.055 515.279 10
-2 8 -8 1179.12 852.026 4
2 -8 8 818.729 820.194 8
2 -8 9 100.239 608.903 10
2 -8 9 614.231 1055.63 8
-2 8 -9 1155.93 787.939 4
2 -8 10 2160.13 1423.09 8
2 -8 10 1705.67 1079.82 10
-2 8 -10 1992.81 1022.16 4
-2 7 9 3015.20 1360.23 7
-2 7 8 4413.62 1339.72 6
-2 7 8 3703.99 1479.03 7
-2 7 7 4648.81 1310.92 6
-2 7 7 4136.78 1368.61 7
-2 7 7 1325.46 688.881 12
-2 7 6 273.270 507.547 7
-2 7 6 1084.60 806.178 12
-2 7 6 -167.721 493.449 6
-2 7 5 -358.311 672.639 6
-2 7 5 -924.382 692.357 12
-2 7 5 -605.329 494.550 7
-2 7 4 5860.58 1385.78 7
-2 7 4 7416.23 1600.48 6
-2 7 4 6444.28 1656.45 12
-2 7 3 12984.8 1629.09 1
-2 7 3 11031.0 1686.16 6
-2 7 3 12430.7 1938.36 4
-2 7 3 9371.10 1594.12 7
-2 7 3 8723.78 1707.20 12
-2 7 2 20722.3 2410.35 4
-2 7 2 20625.9 2004.29 1
-2 7 2 18188.9 2053.40 7
-2 7 2 15149.4 2023.66 12
-2 7 2 19983.1 2282.22 6
-2 7 1 3008.18 906.904 4
-2 7 1 3034.54 843.731 7
-2 7 1 4789.12 994.943 1
-2 7 1 1859.99 642.837 12
-2 7 0 16573.2 1717.98 1
-2 7 0 14839.7 1915.76 4
-2 7 -1 -279.892 638.392 4
-2 7 -1 442.794 374.837 1
2 -7 1 512.696 341.331 10
2 -7 2 1548.06 702.642 10
-2 7 -2 3091.54 1035.01 4
-2 7 -2 3282.68 841.497 1
-2 7 -3 4009.06 1085.31 4
2 -7 3 2078.97 741.937 10
-2 7 -3 4844.21 937.242 1
2 -7 4 11119.5 1876.38 10
-2 7 -4 12068.4 1476.75 1
-2 7 -4 13257.9 1975.03 4
-2 7 -5 12709.2 1554.14 1
2 -7 5 12588.6 2110.02 10
-2 7 -5 16706.1 2263.35 4
-2 7 -6 1105.93 659.110 4
2 -7 6 61.8588 545.985 10
2 -7 7 6207.03 1661.37 10
2 -7 8 1355.58 917.969 8
2 -7 8 1573.33 947.356 10
2 -7 9 2611.02 1302.16 10
2 -7 9 3568.64 1403.00 8
2 -7 10 4279.14 1660.95 10
2 -7 10 1840.93 1140.95 8
2 -7 11 -1109.45 925.227 8
-2 6 10 1945.74 1208.70 7
-2 6 9 2167.31 1208.67 7
-2 6 8 3440.90 1537.64 12
-2 6 8 3092.19 1064.04 6
-2 6 8 3451.42 1225.53 7
-2 6 7 2430.03 830.701 6
-2 6 7 2114.39 969.176 7
-2 6 7 4478.26 1360.08 12
-2 6 6 2820.73 988.505 6
-2 6 6 2005.87 967.046 7
-2 6 6 1053.70 788.758 12
-2 6 5 1075.74 669.188 7
-2 6 5 1949.90 879.238 12
-2 6 5 1217.44 603.839 6
-2 6 4 -48.7378 562.365 6
-2 6 4 -339.718 637.611 7
-2 6 4 1137.38 764.319 12
-2 6 3 9468.29 1302.49 1
-2 6 3 7171.99 1309.35 7
-2 6 3 7767.66 1507.69 12
-2 6 3 9257.35 1569.99 4
-2 6 2 15262.3 1945.38 4
-2 6 2 13176.4 1688.86 7
-2 6 2 13787.8 1564.14 1
-2 6 2 12405.9 1731.60 12
-2 6 1 57441.9 3501.97 12
-2 6 1 78093.1 3566.69 1
-2 6 1 63043.6 3337.26 7
-2 6 1 72056.8 4018.53 4
-2 6 0 8.14173 297.577 12
-2 6 0 -476.515 630.901 1
-2 6 -1 42714.0 3191.81 4
-2 6 -1 38343.6 2536.05 1
-2 6 -1 32941.4 2226.90 12
2 -6 2 20418.0 2084.18 10
-2 6 -2 27169.1 2158.14 1
-2 6 -2 18739.0 1503.63 12
-2 6 -2 28469.5 2678.72 4
-2 6 -3 16546.2 1520.66 1
2 -6 3 17587.3 2177.79 10
2 -6 4 20841.1 2388.95 10
-2 6 -4 22348.9 1844.94 1
2 -6 5 646.911 438.169 10
-2 6 -5 1867.00 502.594 1
2 -6 6 45963.3 3958.68 10
2 -6 7 1539.05 763.002 10
2 -6 8 265.166 633.379 10
2 -6 8 -285.392 496.313 8
2 -6 9 1545.43 772.873 8
2 -6 9 2165.27 1033.35 10
2 -6 10 -403.756 603.135 10
2 -6 10 946.261 579.337 8
2 -6 11 7021.35 1960.15 8
-2 5 10 849.319 918.086 7
-2 5 9 -673.432 937.287 7
-2 5 8 19161.7 2962.13 7
-2 5 8 13298.6 2779.26 12
-2 5 7 2163.79 1280.68 12
-2 5 7 2286.43 945.154 6
-2 5 7 1719.92 860.199 7
-2 5 6 18999.6 2556.12 7
-2 5 6 19969.4 2374.33 6
-2 5 6 17528.0 2667.51 12
-2 5 5 1987.43 715.634 7
-2 5 5 2583.06 754.177 6
-2 5 5 2578.01 921.061 12
-2 5 4 4391.11 1184.15 12
-2 5 4 6127.34 1248.62 7
-2 5 4 5366.70 1100.64 6
-2 5 3 75885.1 3938.83 7
-2 5 3 77071.5 4425.11 12
-2 5 3 85549.2 4430.77 4
-2 5 3 79817.2 3459.45 1
-2 5 2 2792.73 652.412 1
-2 5 2 1624.34 592.484 12
-2 5 2 2064.06 628.999 7
-2 5 1 113071. 3986.01 1
-2 5 1 112088. 4576.15 4
-2 5 1 99909.6 4376.37 12
-2 5 1 101557. 3927.56 7
-2 5 0 9133.83 1528.34 4
-2 5 0 7421.54 1043.45 1
-2 5 0 5177.02 930.170 12
-2 5 0 6168.44 877.194 7
-2 5 0 6914.22 1221.99 5
-2 5 -1 92438.8 3877.52 5
-2 5 -1 102775. 4494.35 4
-2 5 -1 100330. 3671.44 1
-2 5 -2 41367.2 2555.08 5
2 -5 2 44846.6 2909.42 10
-2 5 -2 51779.4 3280.08 4
-2 5 -2 45986.0 2607.49 1
-2 5 -3 1866.54 622.373 1
2 -5 3 1634.82 692.144 10
-2 5 -3 342.868 638.362 4
-2 5 -3 1730.68 597.143 5
-2 5 -3 1246.43 361.588 3
-2 5 -4 20502.7 1618.19 5
-2 5 -4 23355.2 1779.65 1
-2 5 -4 23872.6 1635.97 3
2 -5 4 22260.0 2278.05 10
-2 5 -5 5924.03 851.166 1
-2 5 -5 6172.06 925.673 3
2 -5 5 6430.19 1325.80 10
-2 5 -6 29943.1 2241.54 3
2 -5 6 29327.1 2987.53 10
-2 5 -7 1450.82 557.462 3
2 -5 7 1890.06 684.104 10
-2 5 -8 18031.2 2009.89 3
2 -5 8 19217.8 2710.35 10
2 -5 8 19091.3 2725.26 8
2 -5 9 921.710 780.977 10
2 -5 9 2316.01 1131.69 8
-2 5 -9 2091.21 786.302 3
2 -5 10 2087.68 993.461 8
-2 5 -10 1723.59 717.940 3
2 -5 11 5675.74 1802.24 8
-2 5 -11 6609.52 1479.13 3
-2 5 -12 199.694 364.491 3
2 -5 12 -1666.90 1034.03 7
-2 4 11 1119.59 979.926 7
-2 4 10 6772.22 2095.66 7
-2 4 9 3285.95 1464.79 7
2 -4 -9 3103.74 1053.39 3
-2 4 8 3073.32 1218.38 7
-2 4 8 3898.39 1403.35 12
2 -4 -8 5144.78 1177.55 3
-2 4 7 12612.4 2243.17 7
-2 4 7 7818.72 1803.16 12
2 -4 -7 12592.7 1762.39 3
-2 4 7 10880.9 1750.91 6
-2 4 6 30676.6 3184.61 7
2 -4 -6 35410.6 2583.01 3
-2 4 6 27753.6 2474.10 6
-2 4 6 29340.1 3213.77 12
-2 4 5 3971.59 1166.12 12
2 -4 -5 2872.33 694.429 3
-2 4 5 3254.80 1092.81 7
-2 4 5 2384.55 815.941 6
-2 4 4 4700.99 1170.71 12
2 -4 -4 4090.89 708.785 3
-2 4 4 4115.90 1020.06 7
-2 4 3 -402.127 381.130 7
-2 4 3 2422.68 1107.69 12
-2 4 2 78057.3 3080.15 1
-2 4 2 70529.6 3717.96 12
-2 4 2 67176.6 3157.90 7
-2 4 2 71649.8 3422.75 4
-2 4 1 167309. 5064.17 5
-2 4 1 169175. 4447.66 1
-2 4 1 157365. 4354.77 7
-2 4 1 163438. 4913.74 4
2 -4 -1 152532. 2640.60 9
-2 4 0 7710.98 1379.54 5
-2 4 0 10244.5 1320.83 1
2 -4 1 25865.8 1744.89 10
-2 4 -1 29045.0 1938.17 5
-2 4 -2 16737.0 1426.29 5
-2 4 -2 15270.2 1255.48 11
-2 4 -2 13919.7 810.283 3
-2 4 -2 18430.3 1505.23 1
2 -4 2 16950.6 1595.48 10
-2 4 -3 119610. 3601.75 1
-2 4 -3 123725. 3277.30 3
-2 4 -3 113265. 3139.14 11
-2 4 -3 118345. 3686.19 5
-2 4 -4 76056.8 2447.63 11
-2 4 -4 82160.4 2955.20 5
-2 4 -4 83824.8 3058.98 1
-2 4 -4 87965.8 3138.49 3
-2 4 -5 3838.28 566.498 5
-2 4 -5 4676.83 857.430 3
2 -4 6 15733.3 2063.79 10
-2 4 -6 17598.7 1698.37 3
2 -4 7 76575.2 4857.47 8
2 -4 7 76079.6 4944.21 10
-2 4 -7 78702.5 4040.77 3
2 -4 8 28815.7 3208.07 8
-2 4 -8 29012.5 2597.97 3
2 -4 8 31194.2 3393.92 10
-2 4 -9 8863.27 1550.62 3
2 -4 9 10208.4 2026.02 8
2 -4 9 8619.17 1776.70 10
2 -4 10 492.074 886.064 8
-2 4 -10 670.013 639.078 3
2 -4 11 850.995 731.859 8
-2 4 -11 2423.28 1063.46 3
2 -4 12 15865.6 3250.14 7
-2 4 -12 13795.7 2256.18 3
2 -3 -11 2499.40 1024.63 3
-2 3 11 1439.69 936.517 7
2 -3 -10 2080.54 922.224 3
-2 3 10 3479.42 1368.57 7
-2 3 9 2909.53 1263.91 12
2 -3 -9 4321.68 1193.24 3
-2 3 9 5328.01 1715.97 7
-2 3 8 6151.97 1607.50 12
-2 3 8 6029.95 1592.45 7
2 -3 -8 7442.17 1424.27 3
-2 3 7 35679.2 3799.39 12
-2 3 7 45279.5 4128.09 7
2 -3 -7 45974.7 3170.42 3
-2 3 7 36253.9 2786.18 6
-2 3 6 -216.613 680.454 7
-2 3 6 20.0229 318.623 6
2 -3 -6 205.880 379.559 3
-2 3 5 35455.3 3054.39 12
-2 3 5 38654.4 2586.76 6
-2 3 4 65270.4 3853.03 12
-2 3 4 65217.1 3830.71 7
-2 3 3 1891.96 819.984 12
-2 3 3 853.524 397.481 7
-2 3 2 216869. 5250.57 7
-2 3 2 211662. 5520.80 5
2 -3 -1 270.378 160.393 9
-2 3 1 837.797 393.476 1
-2 3 0 302866. 4888.22 7
2 -3 1 112709. 3404.62 10
-2 3 -1 117409. 2291.88 3
-2 3 -1 119679. 3584.35 11
-2 3 -2 35440.7 1772.20 11
-2 3 -2 37979.3 1456.10 3
2 -3 2 38334.0 2165.60 10
-2 3 -3 32306.9 1749.10 1
-2 3 -3 36664.1 1774.23 3
-2 3 -4 7048.36 885.584 3
2 -3 4 9365.19 1357.80 10
2 -3 5 125712. 4990.47 10
-2 3 -5 120409. 4127.42 3
-2 3 -6 12048.4 1462.37 3
2 -3 6 12347.0 1699.95 8
2 -3 6 12403.4 1856.84 10
2 -3 7 9243.95 1687.52 10
2 -3 7 8664.52 1580.97 8
-2 3 -7 9672.53 1425.84 3
2 -3 8 1212.90 464.181 8
2 -3 8 164.350 711.730 10
-2 3 -8 1592.55 446.339 3
2 -3 9 22301.8 2940.89 8
-2 3 -9 24387.0 2562.45 3
2 -3 10 15274.5 2531.73 8
-2 3 -10 20737.5 2532.61 3
2 -3 11 1185.87 803.214 8
2 -3 11 2138.18 1194.24 7
-2 3 -11 2407.24 875.284 3
-2 3 -12 3838.43 1237.80 3
2 -3 12 3495.70 1467.01 7
2 -3 13 754.789 888.932 7
-2 3 -13 701.037 668.080 3
2 -2 -11 561.973 511.395 3
-2 2 11 -1084.75 1324.36 7
2 -2 -10 1725.78 888.512 3
-2 2 10 984.706 631.148 7
-2 2 9 43298.4 4631.14 7
2 -2 -9 45923.1 3832.49 3
-2 2 8 -182.054 498.907 7
2 -2 -8 647.500 466.898 3
-2 2 8 543.051 704.049 12
-2 2 7 22300.1 2845.88 7
2 -2 -7 22580.8 2234.54 3
-2 2 7 17333.9 2398.86 12
2 -2 -6 6614.61 1096.52 3
-2 2 6 4958.57 1145.72 12
-2 2 6 6824.39 1448.59 7
-2 2 6 5451.14 945.045 6
-2 2 5 72296.3 4089.34 12
-2 2 5 84841.4 4537.93 7
-2 2 4 120257. 5167.71 12
-2 2 4 115218. 4851.09 7
-2 2 3 907.519 409.196 7
-2 2 3 1112.15 519.904 5
-2 2 2 3776.35 670.486 7
-2 2 2 3198.20 685.850 5
-2 2 1 18281.7 1289.19 7
2 -2 -1 19144.2 889.714 8
2 -2 -1 19124.7 1018.07 9
-2 2 0 197044. 4729.83 11
-2 2 0 204063. 3121.76 7
2 -2 0 198830. 2937.31 10
-2 2 -1 39896.3 1893.25 11
2 -2 1 35950.0 1271.22 13
-2 2 -1 35104.8 1332.69 3
2 -2 1 35458.0 1554.44 10
2 -2 2 19067.8 1393.23 10
-2 2 -2 15777.1 990.754 3
-2 2 -3 724.926 321.287 3
2 -2 3 594.123 366.540 10
-2 2 -4 29568.5 1812.96 3
2 -2 5 167536. 5399.81 8
-2 2 -5 155009. 4695.82 3
2 -2 5 166532. 5487.42 10
-2 2 -6 437.906 351.408 3
2 -2 6 589.853 558.806 10
2 -2 6 605.265 599.247 8
2 -2 7 110222. 5283.03 8
-2 2 -7 112941. 4719.21 3
2 -2 8 12071.7 1853.79 8
-2 2 -8 12500.1 1708.47 3
2 -2 9 8082.52 1625.59 8
-2 2 -9 9175.56 1564.28 3
2 -2 10 14130.5 2213.18 8
-2 2 -10 18252.9 2437.94 3
-2 2 -11 13.4972 481.703 3
2 -2 11 -418.131 878.619 7
-2 2 -12 17980.2 2638.02 3
2 -2 12 16171.4 3147.69 7
2 -2 13 -659.340 800.509 7
-2 2 -13 1575.50 1006.70 3
2 -1 -11 885.668 754.688 3
-2 1 11 2533.26 1283.05 7
2 -1 -10 2649.58 989.345 3
-2 1 10 3112.32 1458.43 7
-2 1 9 1545.28 794.721 7
2 -1 -9 2330.16 872.964 3
2 -1 -8 24321.7 2502.01 3
-2 1 8 23039.6 3134.70 7
-2 1 8 16394.3 2408.62 12
2 -1 -7 97838.3 4615.18 3
-2 1 7 98299.0 5825.08 7
-2 1 6 2774.06 601.688 6
-2 1 6 3452.84 969.075 7
-2 1 6 2777.98 814.553 12
-2 1 5 3116.93 762.779 12
-2 1 5 3811.95 1016.36 7
-2 1 4 7870.58 1275.85 12
-2 1 3 123782. 3581.84 5
-2 1 2 165306. 3905.19 5
-2 1 1 45213.2 1834.15 7
2 -1 -1 51344.7 1753.31 9
-2 1 0 51348.8 1995.06 4
2 -1 0 53666.3 1717.08 9
2 -1 0 54774.1 1629.58 8
2 -1 1 296651. 4692.75 8
2 -1 1 284231. 3624.22 13
-2 1 -1 264981. 4020.77 3
2 -1 1 279317. 3679.21 10
-2 1 -1 271663. 4600.54 4
2 -1 2 66173.6 2314.81 10
-2 1 -2 55896.0 1931.79 3
-2 1 -3 42086.9 2018.48 3
-2 1 -5 33283.6 2197.77 3
2 -1 5 32308.7 2352.21 8
-2 1 -6 116904. 4481.14 3
2 -1 6 109905. 4727.61 8
2 -1 7 17578.2 1999.14 8
-2 1 -7 23205.5 2210.98 3
2 -1 8 3135.04 924.190 8
-2 1 -8 2814.74 518.521 3
-2 1 -9 1746.51 540.872 3
2 -1 9 2505.93 965.242 8
2 -1 9 3528.13 1341.61 7
2 -1 10 -340.983 885.558 7
-2 1 -10 46.5197 355.505 3
-2 1 -11 12286.9 2095.16 3
2 -1 11 9991.08 2286.22 7
2 -1 12 385.175 726.703 7
-2 1 -12 1321.57 880.065 3
2 -1 13 1389.56 1209.61 7
-2 1 -13 1816.31 831.954 3
2 0 -11 4865.28 1562.58 3
-2 0 11 2810.49 1309.67 7
2 0 -10 2605.13 990.865 3
-2 0 10 2802.83 1460.81 7
2 0 -9 2528.06 855.895 3
-2 0 9 4109.19 1465.15 7
-2 0 8 37682.3 3974.15 7
2 0 -8 37751.8 3112.96 3
2 0 -7 1111.02 762.049 3
-2 0 7 223.807 398.998 12
-2 0 6 42630.5 3137.30 12
-2 0 5 19298.1 1934.77 12
-2 0 4 5066.15 938.736 12
-2 0 4 4523.97 699.278 10
2 0 -4 6483.90 693.654 2
-2 0 3 56870.3 2057.89 5
2 0 -3 51710.5 1759.12 2
-2 0 3 55552.4 2021.00 10
-2 0 2 7287.87 593.503 10
2 0 -2 8851.05 664.781 2
-2 0 1 171600. 4081.40 11
2 0 -1 170015. 2818.22 2
2 0 -1 174794. 3547.40 9
2 0 0 202296. 3466.45 9
2 0 0 200449. 3883.89 13
2 0 1 73522.3 2193.78 13
-2 0 -1 69250.6 1744.42 4
2 0 2 173.128 196.558 7
2 0 3 119006. 3260.14 7
2 0 4 14820.6 1320.96 7
2 0 4 15925.3 1453.76 8
2 0 5 33041.4 2242.24 8
2 0 5 33147.6 2343.93 7
2 0 6 40282.9 2875.21 7
-2 0 -6 42380.7 2716.09 3
2 0 6 36264.0 2594.36 8
-2 0 -7 13143.1 1680.58 3
2 0 7 13441.1 1867.65 7
-2 0 -8 74430.9 4234.99 3
2 0 8 80791.0 5043.59 7
-2 0 -9 3307.64 1184.41 3
2 0 9 494.564 586.391 7
-2 0 -10 618.537 578.677 3
2 0 10 -133.066 664.797 7
-2 0 -11 1840.13 814.785 3
2 0 11 3436.12 1296.02 7
-2 0 -12 5677.89 1646.35 3
2 0 12 5135.25 1955.27 7
2 0 13 5890.91 1896.30 7
-2 0 -13 6279.76 1632.29 3
2 1 -12 878.839 670.017 13
-2 -1 11 3154.97 1468.17 7
2 1 -11 3617.28 1191.20 3
2 1 -10 3904.34 1132.63 3
-2 -1 10 3259.52 1569.78 7
2 1 -9 875.810 652.068 3
-2 -1 9 -413.199 768.802 7
2 1 -8 164.684 359.222 3
-2 -1 7 2065.02 900.211 12
-2 -1 6 84818.0 3947.91 10
-2 -1 6 82013.1 4137.02 12
-2 -1 5 5963.91 995.236 10
2 1 -5 8767.64 888.691 2
-2 -1 5 5882.65 1001.02 12
-2 -1 4 650.209 347.845 10
2 1 -4 275.794 213.312 2
-2 -1 4 399.686 389.134 12
2 1 -3 13764.1 1085.26 2
-2 -1 3 13793.3 1246.94 10
2 1 -2 25270.3 1379.51 2
-2 -1 2 19596.1 1466.11 11
-2 -1 1 136246. 3429.82 11
2 1 -1 133328. 3712.29 13
2 1 0 31979.3 1664.56 13
2 1 1 422040. 6196.81 13
2 1 1 411671. 4557.04 7
2 1 2 420.873 386.828 7
2 1 3 7255.38 1001.96 7
2 1 4 7406.28 1051.60 7
2 1 5 36659.1 2437.04 7
2 1 6 89851.8 4356.36 7
-2 -1 -6 91945.2 4070.78 3
-2 -1 -7 6822.84 1134.75 3
2 1 7 7508.66 1514.45 7
2 1 8 5588.01 1714.89 7
-2 -1 -8 3084.90 1046.99 3
2 1 9 784.607 725.918 7
-2 -1 -9 -390.908 599.970 3
-2 -1 -10 228.808 451.602 3
2 1 10 1169.67 1123.57 7
2 1 11 3890.39 1620.05 7
-2 -1 -11 3613.75 1162.48 3
-2 -1 -12 1890.45 895.940 3
2 1 12 2101.99 1268.56 7
2 1 13 832.823 590.182 7
-2 -1 -13 2632.47 1256.41 3
2 2 -12 -1511.81 1130.67 13
-2 -2 11 18.2239 606.008 7
2 2 -11 236.832 637.602 13
2 2 -11 21.5027 465.968 3
2 2 -10 1745.28 920.722 3
-2 -2 10 1168.09 738.056 7
2 2 -9 1022.17 613.328 3
2 2 -8 12817.3 1738.98 3
-2 -2 7 33275.0 2884.26 10
-2 -2 6 13156.9 1714.76 10
-2 -2 6 13519.2 1533.34 12
-2 -2 5 7260.42 1042.03 12
2 2 -5 9107.08 1076.70 2
-2 -2 5 8323.11 1266.54 10
-2 -2 4 1599.85 584.896 10
2 2 -4 1330.13 466.650 2
-2 -2 4 1066.71 484.884 12
2 2 -3 595.864 411.857 13
-2 -2 3 83.0722 332.262 10
2 2 -3 846.083 417.804 2
-2 -2 2 305047. 4962.23 11
2 2 -2 312082. 6185.63 13
2 2 -2 306621. 5326.68 2
2 2 -1 23532.3 1637.58 13
2 2 0 13592.5 1279.30 13
-2 -2 -1 62627.8 2109.84 3
2 2 1 65722.4 2428.45 7
2 2 1 65892.7 2089.91 9
2 2 2 10080.2 862.546 9
2 2 2 8630.39 1025.40 7
-2 -2 -2 8612.08 839.636 3
2 2 3 10384.7 1196.25 7
-2 -2 -3 9755.97 1094.78 3
-2 -2 -4 29029.6 1905.80 3
2 2 5 6766.77 1308.84 7
-2 -2 -5 4743.31 860.194 3
-2 -2 -6 8056.71 1230.62 3
2 2 6 10381.9 1665.69 7
2 2 7 63368.9 4328.16 7
-2 -2 -7 61560.0 3608.37 3
2 2 8 27788.6 3242.20 7
-2 -2 -8 23228.1 2412.53 3
-2 -2 -9 7979.85 1763.68 3
2 2 9 7176.77 1855.42 7
2 2 10 1641.84 1088.60 7
-2 -2 -10 488.089 444.397 3
-2 -2 -11 444.696 740.804 3
2 2 11 543.308 990.563 7
2 2 12 5861.33 1927.73 7
-2 -2 -12 7362.31 1751.47 3
-2 -2 -13 5275.22 1668.94 3
2 2 13 5314.34 1939.39 7
2 3 -11 680.566 607.979 3
-2 -3 11 1215.77 1193.98 7
2 3 -10 -685.697 559.877 3
2 3 -10 86.0057 563.413 13
2 3 -9 3716.76 1111.89 3
2 3 -9 2902.69 1138.38 13
2 3 -8 5567.12 1247.67 3
-2 -3 8 2454.91 879.385 10
2 3 -8 3600.11 1146.51 13
2 3 -7 342.329 543.693 13
-2 -3 7 234.538 455.408 10
-2 -3 6 6721.19 1305.47 10
2 3 -6 5296.72 1171.51 13
2 3 -6 8013.59 1162.77 2
2 3 -5 18603.9 1622.10 2
-2 -3 5 16793.4 1854.68 10
2 3 -5 16949.4 1875.62 13
-2 -3 4 2812.08 515.848 12
-2 -3 4 4008.66 891.176 10
2 3 -4 4313.09 805.950 2
2 3 -4 3477.04 869.027 13
2 3 -3 47988.4 2328.62 2
2 3 -3 40074.9 2472.49 13
-2 -3 2 134.401 166.715 11
2 3 -2 623.743 461.990 13
2 3 -1 9147.99 1084.39 13
2 3 0 44986.1 2402.25 13
2 3 1 194061. 2644.22 4
2 3 1 186512. 3846.80 9
-2 -3 -1 186819. 3811.04 3
-2 -3 -2 2989.97 524.212 3
2 3 2 2878.76 482.736 9
-2 -3 -3 11317.4 1048.37 3
2 3 3 11025.1 879.545 9
-2 -3 -4 43679.9 2323.84 3
-2 -3 -5 24931.8 1923.54 3
2 3 5 23078.9 2247.10 7
2 3 6 85282.6 3068.31 1
2 3 6 95031.2 4956.80 7
-2 -3 -6 95786.8 4162.63 3
-2 -3 -7 10937.3 1552.93 3
2 3 7 8459.07 1526.00 7
-2 -3 -8 2033.47 835.855 3
2 3 8 383.600 798.032 7
2 3 9 -1995.46 1329.68 7
-2 -3 -9 1061.86 691.642 3
2 3 10 1114.69 864.074 7
-2 -3 -10 4593.01 1497.52 3
-2 -3 -11 7293.11 1700.54 3
2 3 11 9129.67 2299.81 7
2 3 12 181.775 607.974 7
-2 -3 -12 331.360 368.253 3
2 3 13 537.617 1021.13 7
-2 -3 -13 764.448 611.500 3
2 4 -11 619.321 591.200 3
2 4 -10 312.598 406.297 3
2 4 -9 -666.759 655.566 3
-2 -4 9 -511.710 438.258 10
2 4 -9 666.592 535.868 13
-2 -4 8 1849.91 980.384 10
2 4 -8 2814.52 770.430 3
2 4 -8 1570.83 740.606 13
-2 -4 7 2240.99 796.419 10
2 4 -7 929.461 566.456 13
2 4 -7 2245.41 679.683 3
2 4 -6 45967.5 3386.93 13
-2 -4 6 49379.8 3754.82 10
-2 -4 5 619.612 549.678 10
2 4 -5 -116.081 467.529 13
2 4 -5 99.6142 302.381 1
2 4 -5 965.642 412.693 2
2 4 -4 1772.70 574.339 2
-2 -4 4 1501.72 626.309 10
2 4 -4 525.526 424.535 13
2 4 -4 1171.35 296.814 1
2 4 -3 10565.9 1317.81 13
2 4 -3 8990.14 1091.98 1
2 4 -2 1589.94 351.854 2
2 4 -2 878.358 409.239 13
2 4 -1 110660. 4035.64 13
2 4 0 37000.8 1714.76 4
2 4 1 14608.1 1003.30 4
2 4 1 14776.7 1315.31 2
2 4 2 1817.14 403.121 4
2 4 2 2038.98 439.085 9
-2 -4 -2 1333.55 392.057 3
-2 -4 -3 34333.1 1802.11 3
2 4 3 35060.8 1606.03 9
2 4 4 2632.64 500.361 7
2 4 4 2648.01 458.909 9
-2 -4 -4 2881.83 619.477 3
2 4 5 6361.34 1166.61 7
2 4 5 5584.87 918.501 1
-2 -4 -5 6947.07 1088.34 3
2 4 5 5781.48 691.620 9
-2 -4 -6 2293.85 653.650 3
2 4 6 2288.56 1008.66 7
2 4 6 2307.63 574.232 1
-2 -4 -7 1033.51 466.112 3
2 4 7 1375.26 749.374 7
-2 -4 -8 62512.9 4017.80 3
2 4 8 65185.1 4974.59 7
-2 -4 -9 336.370 382.191 3
2 4 9 -182.538 595.375 7
2 4 10 492.102 780.372 7
-2 -4 -10 -47.9078 328.685 3
-2 -4 -11 651.504 608.859 3
2 4 11 283.766 722.577 7
-2 -4 -12 552.149 570.745 3
2 4 12 1148.75 900.197 7
-2 -4 -13 6506.98 1772.70 3
2 5 -11 1410.18 937.742 3
2 5 -10 991.277 573.682 3
-2 -5 10 133.899 514.756 10
2 5 -9 212.573 452.108 3
-2 -5 9 -274.462 610.853 10
2 5 -8 5576.54 1179.57 3
-2 -5 8 5087.48 1424.31 10
2 5 -7 12796.3 1733.74 3
-2 -5 7 11600.2 2028.95 10
2 5 -7 9264.86 1593.55 13
2 5 -6 13005.5 1766.53 13
-2 -5 6 16272.8 2282.29 10
2 5 -6 18753.3 1945.04 2
-2 -5 5 449.227 350.733 10
2 5 -5 819.732 303.789 1
2 5 -5 564.781 255.022 13
2 5 -5 1174.12 536.558 2
-2 -5 4 23052.4 2438.61 10
2 5 -4 18453.1 1843.25 13
2 5 -4 24318.6 1976.19 2
2 5 -4 19710.7 1709.49 1
2 5 -3 3222.42 797.676 13
2 5 -3 2259.37 591.419 1
2 5 -3 2712.50 655.207 2
2 5 -2 63892.7 3042.35 2
2 5 -2 55786.8 3054.92 1
2 5 -2 54323.6 3121.63 13
2 5 -1 47512.9 2934.34 13
2 5 -1 47657.5 2740.10 1
2 5 0 739.107 342.652 4
2 5 0 926.046 423.527 2
2 5 1 62319.9 2414.95 4
2 5 1 62622.2 2737.56 2
2 5 1 67038.5 3172.48 1
2 5 2 71640.2 2600.28 4
-2 -5 -2 71491.8 2501.10 3
2 5 2 75080.7 3092.67 2
2 5 2 75875.1 3520.00 1
2 5 3 4584.66 748.969 2
2 5 3 4062.71 853.621 1
2 5 3 5890.17 1190.60 7
-2 -5 -3 4157.72 653.772 3
2 5 4 42775.7 2786.49 1
-2 -5 -4 39102.0 2187.51 3
2 5 4 47587.6 2660.73 2
2 5 4 46300.1 3325.09 7
2 5 5 2231.76 859.058 7
-2 -5 -5 916.732 431.251 3
2 5 5 1333.38 394.401 1
2 5 6 47546.0 3811.63 7
2 5 6 45897.8 2749.33 1
-2 -5 -6 48252.6 2993.14 3
2 5 7 59420.3 4624.45 7
-2 -5 -7 59972.8 3712.39 3
-2 -5 -8 -366.031 349.930 3
2 5 8 763.836 597.001 7
-2 -5 -9 4889.01 1200.01 3
2 5 9 3346.20 1235.50 7
2 5 10 5533.83 1793.81 7
-2 -5 -10 8016.59 1801.80 3
-2 -5 -11 2010.00 964.016 3
2 5 11 1251.49 1019.94 7
2 5 12 6391.17 2080.91 7
2 6 -10 3168.98 1110.11 3
-2 -6 10 2008.25 1069.36 10
2 6 -9 3906.84 1104.44 3
-2 -6 9 4094.21 1612.14 10
2 6 -8 1582.82 692.377 3
-2 -6 8 1171.15 785.394 10
2 6 -7 2104.97 764.111 3
-2 -6 7 2647.12 1126.92 10
2 6 -6 2499.28 666.403 3
-2 -6 6 2144.74 833.314 10
2 6 -6 3679.72 921.929 2
2 6 -5 84471.8 4165.20 2
2 6 -5 73557.3 3411.49 1
-2 -6 5 80352.8 5304.63 10
2 6 -4 23375.7 2030.50 2
2 6 -4 17243.6 1915.13 13
2 6 -4 19935.1 1860.13 1
2 6 -3 4211.40 945.243 13
2 6 -3 4589.55 962.105 2
2 6 -3 3467.35 841.901 1
2 6 -2 6708.07 1189.58 1
2 6 -2 5797.43 975.450 2
2 6 -1 -271.283 488.089 4
2 6 -1 252.873 289.829 2
2 6 -1 509.634 491.832 1
2 6 0 185718. 5959.01 1
2 6 0 196929. 5406.38 2
2 6 0 190964. 5010.64 4
2 6 1 8448.42 1017.08 4
2 6 1 7872.53 1288.77 1
2 6 1 8501.42 1079.39 2
2 6 2 4562.17 825.062 2
2 6 2 3945.67 671.431 4
2 6 2 2881.69 440.262 7
2 6 3 445.036 321.554 2
2 6 3 918.895 315.491 4
2 6 3 1254.37 638.830 1
2 6 3 1425.13 542.383 7
2 6 4 21142.7 2048.26 1
-2 -6 -4 17138.7 1411.62 3
2 6 4 19704.7 1656.25 2
2 6 5 56148.9 2821.69 2
2 6 5 58323.9 4172.24 7
-2 -6 -5 52596.0 2702.10 3
2 6 5 59058.4 3465.99 1
-2 -6 -6 890.317 433.896 3
2 6 6 610.571 629.716 7
2 6 6 -436.833 466.545 1
2 6 7 1400.09 686.233 7
2 6 8 3809.59 1334.84 7
2 6 9 36346.3 4297.49 7
2 6 10 -67.7894 804.558 7
2 6 11 243.680 795.279 7
2 6 12 -404.926 705.419 7
-2 -7 10 1234.18 853.080 10
-2 -7 9 5754.13 1748.80 10
2 7 -8 2479.25 810.365 3
-2 -7 8 2492.93 1140.81 10
-2 -7 7 24177.1 3320.61 10
2 7 -7 26841.1 2538.63 3
-2 -7 6 2009.75 894.723 10
2 7 -6 2785.37 768.307 2
2 7 -6 2612.58 767.549 3
2 7 -5 30863.4 2606.51 2
-2 -7 5 25210.0 3201.62 10
2 7 -5 24480.6 2139.52 3
2 7 -5 23269.7 2042.36 1
-2 -7 4 8499.83 1675.49 10
2 7 -4 7975.64 1216.12 1
2 7 -4 10281.8 1456.35 2
2 7 -3 55129.8 3248.77 2
2 7 -3 53818.0 3326.37 1
2 7 -2 21442.2 1998.27 4
2 7 -2 24008.5 2082.47 2
2 7 -2 23334.8 2244.26 1
2 7 -1 10377.3 1508.82 1
2 7 -1 9680.49 1244.83 4
2 7 -1 10656.6 1370.08 2
2 7 0 57774.6 3021.89 4
2 7 0 63977.1 3723.97 1
2 7 0 68156.2 3341.63 2
2 7 1 3980.81 760.065 4
2 7 1 4607.43 884.658 2
2 7 1 4312.94 1066.62 1
2 7 2 127392. 5929.91 7
2 7 2 125014. 4399.18 2
2 7 2 142282. 5645.35 1
2 7 3 804.539 426.148 2
2 7 3 -732.562 798.228 7
2 7 3 842.139 648.932 1
2 7 3 216.582 338.287 4
2 7 4 -151.816 535.009 1
2 7 4 111.272 272.988 2
2 7 5 23460.0 2898.90 7
2 7 5 26166.6 2479.94 1
2 7 6 2976.01 853.344 1
2 7 6 2346.96 1021.33 7
2 7 7 66553.1 5454.95 7
2 7 8 4336.63 1452.94 7
2 7 9 784.638 918.979 7
2 7 10 1217.89 926.803 7
2 7 11 3736.40 1684.60 7
-2 -8 9 243.672 503.176 10
-2 -8 8 7304.65 2037.95 10
-2 -8 7 13714.2 2769.66 10
-2 -8 6 765.175 798.147 10
2 8 -6 342.935 393.237 2
2 8 -5 30057.8 2799.74 2
-2 -8 5 21319.3 3151.78 10
2 8 -5 23208.6 2145.22 1
2 8 -4 26943.9 2582.85 4
-2 -8 4 26083.5 3176.43 10
2 8 -4 26145.9 2352.37 1
2 8 -4 32232.1 2704.74 2
2 8 -3 19209.6 2038.49 2
2 8 -3 17597.5 2049.59 1
2 8 -3 17371.7 1993.35 4
2 8 -2 31414.5 2654.01 4
2 8 -2 30988.6 2503.02 2
2 8 -2 31343.1 2738.81 1
2 8 -1 1247.22 576.310 4
2 8 -1 1615.27 793.705 1
2 8 -1 1222.67 561.160 2
2 8 0 26725.9 2219.02 4
2 8 0 32372.2 2885.80 1
2 8 0 28754.9 2304.48 2
2 8 1 34648.2 2509.08 4
2 8 1 42091.0 2750.88 2
2 8 1 45312.9 3418.72 1
2 8 2 15504.3 1608.35 2
2 8 2 13148.1 1516.30 4
2 8 3 15253.5 1627.25 2
2 8 3 17361.0 2483.95 7
2 8 3 18288.7 2212.74 1
2 8 3 13014.4 1563.66 4
2 8 4 6913.97 1280.85 1
2 8 4 3923.07 1154.49 7
2 8 5 127.270 347.890 1
2 8 5 201.953 585.005 7
2 8 6 15567.4 2531.80 7
2 8 6 14049.2 1871.08 1
2 8 7 3082.07 1282.60 7
2 8 8 1036.90 774.590 7
2 8 9 6049.91 1870.00 7
2 8 10 1057.06 882.700 7
-2 -9 8 1784.71 1147.86 10
-2 -9 7 189.602 438.456 10
-2 -9 6 26152.1 3719.92 10
2 9 -5 5195.86 1123.71 2
2 9 -5 4007.90 894.231 1
-2 -9 5 3758.98 1429.43 10
-2 -9 4 542.537 701.843 10
2 9 -4 91.8001 280.738 2
2 9 -4 36.6582 291.099 1
2 9 -3 -538.436 508.405 2
2 9 -3 -201.251 414.499 1
2 9 -2 5919.79 1195.88 1
2 9 -2 6556.21 1247.38 2
2 9 -1 16998.6 1910.40 2
2 9 -1 19712.2 2333.87 1
2 9 0 3632.99 1086.60 1
2 9 0 1765.41 654.916 2
2 9 1 5477.95 1178.37 1
2 9 1 4241.43 926.447 2
2 9 2 2035.24 680.007 1
2 9 2 1302.35 482.758 2
2 9 3 19410.3 2714.23 7
2 9 3 22656.4 2525.31 1
2 9 4 2000.46 880.752 7
2 9 4 973.153 657.997 1
2 9 5 1129.97 797.155 7
2 9 5 1347.75 591.401 1
2 9 6 3485.46 1436.67 7
2 9 6 677.401 543.116 1
2 9 7 444.971 726.848 7
2 9 8 14654.8 2819.13 7
2 9 9 -791.558 924.303 7
-2 -10 7 1038.67 949.615 10
-2 -10 6 2231.82 1094.85 10
-2 -10 5 179.127 600.356 10
2 10 -5 147.551 363.780 2
2 10 -4 18533.9 2384.67 2
2 10 -4 16319.1 2116.94 1
-2 -10 4 12963.5 2584.99 10
2 10 -3 879.088 685.793 2
2 10 -3 616.205 274.108 1
2 10 -2 1973.49 726.877 2
2 10 -2 2396.08 892.556 1
2 10 -1 9004.69 1645.95 1
2 10 -1 8480.19 1445.16 2
2 10 0 210.373 499.342 1
2 10 0 760.492 539.776 2
2 10 1 21323.6 2150.26 2
2 10 1 29320.3 2985.86 1
2 10 2 1970.27 889.927 1
2 10 3 -1001.48 730.157 1
2 10 4 2248.42 1009.55 7
2 10 4 3846.86 1081.98 1
2 10 5 1656.50 974.773 7
2 10 5 2200.83 910.215 1
2 10 6 5075.42 1224.77 1
2 10 6 4505.34 1555.42 7
2 10 7 3136.57 1361.01 7
2 10 8 1202.06 1070.57 7
-2 -11 5 3017.72 1398.42 10
-2 -11 4 1757.18 1108.84 10
2 11 -4 2821.79 972.140 1
2 11 -4 1588.06 731.793 2
-2 -11 3 389.811 428.178 10
2 11 -3 -582.337 601.190 2
2 11 -3 87.6445 428.585 1
2 11 -2 2065.25 827.954 2
2 11 -2 1252.08 781.578 1
2 11 -1 -558.092 551.836 2
2 11 -1 -25.4272 323.713 1
2 11 0 5579.25 1157.05 2
2 11 0 6712.94 1482.98 1
2 11 1 2141.13 870.883 1
2 11 2 -978.400 742.401 1
2 11 3 6647.81 1642.12 1
2 11 4 777.148 498.473 1
2 11 5 238.592 434.514 1
2 11 5 439.217 699.426 7
2 11 6 -1236.01 804.286 1
2 11 6 1011.82 1080.68 7
2 11 7 193.354 744.502 7
2 12 -4 -104.387 331.687 1
2 12 -3 2059.30 931.115 1
2 12 -3 2393.08 923.539 2
-2 -12 3 2817.41 1360.94 10
2 12 -2 -548.955 687.450 1
2 12 -2 91.5235 517.007 2
-2 -12 2 551.899 615.344 10
2 12 -1 542.641 746.446 1
2 12 0 152.262 361.081 1
2 12 1 1952.09 875.761 1
2 12 2 4095.66 1209.64 1
2 12 3 63.6540 392.656 1
2 12 4 -701.676 535.495 1
2 12 5 1217.71 811.291 1
-3 11 3 933.522 784.221 6
-3 11 2 235.762 694.225 4
-3 11 2 195.649 465.851 6
-3 11 1 2005.51 1015.54 6
-3 11 1 1899.25 1063.18 4
-3 11 0 -1068.29 681.811 4
-3 11 0 -10.7982 502.922 6
-3 11 -1 879.093 648.513 4
-3 11 -1 263.872 479.864 6
-3 11 -2 2979.06 1210.15 4
-3 11 -2 936.004 796.191 6
-3 11 -3 -628.403 566.830 4
-3 11 -4 6439.51 1847.41 4
-3 11 -5 1806.52 1077.57 4
3 -11 5 672.218 913.074 8
3 -11 6 10.5850 642.762 10
-3 10 5 1179.84 966.547 6
-3 10 4 96.8230 482.420 6
-3 10 3 1589.41 975.625 6
-3 10 2 5149.64 1403.14 6
-3 10 2 5236.99 1631.28 4
-3 10 1 -659.747 659.654 4
-3 10 1 -722.287 476.780 6
-3 10 0 398.990 527.426 6
-3 10 0 1487.64 921.960 4
-3 10 -1 -344.901 423.555 4
-3 10 -1 1114.34 461.423 6
-3 10 -2 431.953 791.097 4
-3 10 -2 -48.3153 448.235 6
-3 10 -3 3441.60 1121.18 6
-3 10 -3 3890.00 1355.20 4
3 -10 4 699.875 685.439 10
-3 10 -4 -183.057 655.056 4
3 -10 5 -118.109 400.483 10
-3 10 -5 -514.942 606.969 4
3 -10 6 1327.38 798.535 10
-3 10 -6 2133.98 1089.89 4
3 -10 6 1726.86 882.421 8
3 -10 7 -286.839 690.476 10
-3 10 -7 1548.48 1110.41 4
3 -10 7 1058.15 778.812 8
3 -10 8 268.187 511.581 10
-3 9 6 1039.76 975.981 6
-3 9 5 1857.65 902.300 6
-3 9 5 1100.36 917.328 12
-3 9 4 2419.74 1199.41 6
-3 9 4 2190.22 1012.76 12
-3 9 3 448.598 625.624 6
-3 9 3 2479.54 1277.70 12
-3 9 2 705.735 656.056 4
-3 9 2 315.767 382.149 6
-3 9 2 119.257 387.370 12
-3 9 1 5541.99 1465.57 4
-3 9 1 4707.82 1425.77 6
-3 9 0 847.622 671.629 4
-3 9 0 -78.4641 629.290 6
-3 9 -1 -770.461 714.549 4
-3 9 -1 762.520 434.590 6
-3 9 -2 -565.644 443.560 6
-3 9 -2 -323.462 508.145 4
-3 9 -3 -723.635 678.670 4
3 -9 3 186.047 515.644 10
-3 9 -3 -2.34154 380.807 6
-3 9 -4 12854.5 2263.12 4
3 -9 4 9132.31 1883.09 10
3 -9 5 2250.07 1066.30 10
-3 9 -5 3105.49 1019.14 4
-3 9 -6 2772.56 1267.41 4
3 -9 6 914.461 497.377 10
3 -9 7 -346.850 818.201 8
3 -9 7 851.663 587.835 10
-3 9 -8 725.491 501.648 4
3 -9 8 133.984 602.425 8
3 -9 8 -336.942 494.128 10
3 -9 9 2103.60 1219.98 10
-3 9 -9 4696.54 1630.60 4
3 -9 9 4023.10 1714.01 8
-3 8 7 1566.72 889.390 6
-3 8 7 1200.74 804.639 12
-3 8 6 753.524 789.782 6
-3 8 6 -584.641 841.506 12
-3 8 5 281.130 665.226 6
-3 8 5 367.409 924.660 12
-3 8 4 1091.84 766.901 12
-3 8 4 499.332 702.437 6
-3 8 3 13935.0 2398.54 12
-3 8 3 20239.8 2829.16 4
-3 8 3 18995.5 2542.81 6
-3 8 2 13914.6 2156.46 12
-3 8 2 19106.6 2492.63 6
-3 8 2 19362.4 2609.87 4
-3 8 1 2081.88 996.639 4
-3 8 1 556.871 449.959 12
-3 8 0 6168.27 1522.44 4
-3 8 0 3274.89 885.060 12
-3 8 -1 11978.7 2036.52 4
-3 8 -2 10868.0 1991.67 4
3 -8 2 7030.79 1434.24 10
-3 8 -3 15523.3 2321.07 4
3 -8 3 10927.4 1880.27 10
3 -8 4 -221.198 420.262 10
-3 8 -4 703.914 889.603 4
3 -8 5 13190.9 2280.95 10
-3 8 -5 17475.9 2532.29 4
3 -8 6 6552.00 1725.09 10
-3 8 -6 10120.3 1989.44 4
-3 8 -7 -347.994 537.752 4
3 -8 7 222.372 381.802 10
3 -8 7 502.497 530.487 8
-3 8 -8 -1119.02 586.404 4
3 -8 8 11.6734 662.971 10
3 -8 8 246.709 800.017 8
3 -8 9 870.676 866.298 10
3 -8 9 707.032 852.154 8
-3 8 -9 -227.742 856.834 4
-3 8 -10 2265.48 1044.80 4
3 -8 10 2500.56 1351.15 8
3 -8 10 1463.84 974.258 10
-3 7 8 446.835 495.319 12
-3 7 7 1541.32 1014.40 12
-3 7 7 2359.69 1077.21 6
-3 7 6 335.549 536.633 7
-3 7 6 551.036 652.569 6
-3 7 6 217.819 483.080 12
-3 7 5 -289.686 631.159 6
-3 7 5 394.670 385.332 7
-3 7 5 -314.389 678.580 12
-3 7 4 14262.4 2069.90 7
-3 7 4 18303.3 2445.09 6
-3 7 4 14185.1 2390.00 12
-3 7 3 481.804 534.828 6
-3 7 3 257.690 595.094 4
-3 7 3 317.512 294.217 7
-3 7 3 96.7000 396.444 12
-3 7 2 2687.07 747.885 7
-3 7 2 2544.29 885.304 4
-3 7 2 884.849 469.673 12
-3 7 1 1576.16 923.054 4
-3 7 1 569.239 390.663 12
-3 7 0 44273.1 3552.89 4
-3 7 0 33613.3 2888.67 12
-3 7 -1 4102.11 969.581 12
-3 7 -1 6133.77 1221.39 1
3 -7 1 4623.16 1043.52 10
-3 7 -1 5507.91 1482.29 4
3 -7 2 9049.62 1512.86 10
-3 7 -2 10478.9 1449.88 1
-3 7 -2 10422.6 1716.03 4
3 -7 3 2720.07 792.931 10
-3 7 -3 5209.60 1200.14 4
3 -7 4 4619.06 1152.10 10
-3 7 -4 4473.06 1087.49 4
-3 7 -5 70229.0 4826.17 4
3 -7 5 52997.5 4288.22 10
3 -7 6 -891.001 764.301 10
-3 7 -6 -802.571 665.588 4
3 -7 7 13869.3 2409.32 10
3 -7 7 14793.3 2648.73 8
-3 7 -7 18165.0 2626.91 4
3 -7 8 1608.62 926.301 8
-3 7 -8 1697.72 731.144 4
3 -7 8 2214.34 1104.96 10
3 -7 9 417.477 763.227 10
3 -7 9 80.1608 453.797 8
3 -7 10 7153.17 2075.09 8
3 -7 10 5080.77 1738.46 10
3 -7 11 459.471 447.086 8
-3 6 9 573.807 554.453 7
-3 6 8 161.515 710.750 7
-3 6 8 -2325.70 1271.92 12
-3 6 7 13430.9 2378.80 7
-3 6 7 13385.3 2176.38 6
-3 6 7 12137.1 2617.42 12
-3 6 6 700.526 598.003 6
-3 6 6 885.154 645.862 7
-3 6 6 -720.526 810.254 12
-3 6 5 -386.965 410.032 12
-3 6 5 -111.302 337.206 7
-3 6 4 -327.061 455.836 7
-3 6 4 590.853 701.742 12
-3 6 3 897.685 638.221 4
-3 6 3 1324.01 649.361 12
-3 6 3 490.071 389.830 7
-3 6 2 97228.9 4410.20 7
-3 6 2 90704.2 5129.47 12
-3 6 1 1094.84 563.518 7
-3 6 1 1496.20 486.724 4
-3 6 1 1358.09 777.290 12
-3 6 0 16294.5 2026.68 5
-3 6 0 15128.5 1864.90 4
-3 6 0 13964.0 1713.56 12
-3 6 -1 1693.05 590.351 4
3 -6 1 2629.06 778.914 10
-3 6 -1 2729.31 836.265 5
-3 6 -1 2947.20 680.099 1
-3 6 -2 17914.4 2106.22 4
3 -6 2 14112.4 1744.72 10
-3 6 -2 18479.4 1748.29 1
-3 6 -2 14999.9 1785.67 5
-3 6 -3 41230.5 3324.90 4
3 -6 3 35520.7 2912.53 10
-3 6 -3 33059.2 2581.64 5
3 -6 4 8738.75 1532.69 10
-3 6 -4 9285.55 1368.82 5
-3 6 -4 13263.5 1855.95 4
3 -6 5 6312.97 1426.15 10
-3 6 -5 6565.71 1064.83 5
-3 6 -5 9559.03 1619.85 4
3 -6 6 13340.9 2119.54 10
-3 6 -6 15908.2 2186.87 4
3 -6 7 20820.4 2951.57 8
3 -6 7 18421.7 2724.54 10
3 -6 8 6420.79 1703.07 10
3 -6 8 4891.46 1465.19 8
3 -6 9 350.865 578.255 10
3 -6 9 1014.90 1013.17 8
3 -6 10 466.962 529.703 8
3 -6 11 2738.77 1425.15 8
3 -6 12 3946.31 1531.06 8
-3 5 10 232.231 707.899 7
-3 5 9 5657.08 1761.00 7
-3 5 9 4322.51 1659.73 12
-3 5 8 8887.65 2083.10 7
-3 5 8 6650.44 1921.57 12
-3 5 7 1200.54 768.880 7
-3 5 7 -468.423 357.405 6
-3 5 7 570.226 966.290 12
-3 5 6 8565.07 1887.32 12
-3 5 6 11249.1 1976.08 7
-3 5 6 10739.1 1764.39 6
-3 5 5 12366.0 1946.05 7
-3 5 5 12932.3 1926.71 6
-3 5 5 10763.0 1981.72 12
-3 5 4 6315.69 1227.88 7
-3 5 4 7652.25 1616.09 12
-3 5 3 44346.1 2991.15 7
-3 5 3 47775.5 3712.33 12
-3 5 2 16578.0 2006.12 4
-3 5 2 13111.2 1892.42 12
-3 5 2 12780.5 1481.69 7
-3 5 1 64144.3 3871.32 5
-3 5 1 60354.3 2961.66 7
-3 5 1 63181.7 3714.14 4
-3 5 0 56869.0 3428.01 5
3 -5 0 51588.4 2625.62 10
-3 5 0 57896.5 2681.88 7
-3 5 -1 504.931 435.934 4
3 -5 1 361.309 226.190 10
-3 5 -1 665.767 428.530 5
3 -5 2 4312.33 894.043 10
-3 5 -2 4511.71 1097.59 4
-3 5 -2 3968.83 867.854 5
3 -5 3 33041.6 2596.33 10
-3 5 -3 28926.5 2068.34 11
-3 5 -3 34749.1 2853.23 4
-3 5 -3 29630.2 2252.87 5
-3 5 -4 37979.5 3082.34 4
3 -5 4 35060.5 2855.22 10
-3 5 -4 29781.5 1752.34 3
-3 5 -4 29645.2 2171.11 5
-3 5 -5 63786.2 3026.85 5
-3 5 -5 71537.4 3087.34 3
3 -5 5 75142.5 4491.79 10
3 -5 6 14553.2 2107.38 10
3 -5 6 15891.9 2367.78 8
-3 5 -6 17362.9 1707.92 3
3 -5 7 1919.93 970.038 10
3 -5 7 1073.72 619.138 8
-3 5 -7 547.607 331.386 3
3 -5 8 20955.4 2977.90 8
-3 5 -8 20789.7 2187.54 3
3 -5 8 19820.2 2749.21 10
-3 5 -9 22038.3 2452.18 3
3 -5 9 20353.8 3066.31 10
3 -5 9 22597.5 3286.74 8
-3 5 -10 10190.5 1726.48 3
3 -5 10 9946.70 2343.19 8
-3 5 -11 4661.14 1365.73 3
3 -5 11 3822.93 1323.44 8
3 -5 12 -447.513 779.575 8
-3 5 -12 1258.68 936.354 3
-3 4 10 4199.31 1651.54 7
-3 4 9 722.892 496.703 7
-3 4 9 -276.102 673.893 12
3 -4 -8 -842.539 673.226 3
-3 4 8 1375.78 1113.13 7
-3 4 8 494.333 739.859 12
3 -4 -7 1816.16 693.422 3
-3 4 7 1009.99 878.524 12
-3 4 7 2499.35 1143.40 7
-3 4 7 64.6976 339.785 6
-3 4 6 38242.1 3595.24 7
-3 4 6 33825.0 2866.74 6
-3 4 6 30819.6 3376.83 12
-3 4 5 21947.9 2477.73 7
3 -4 -5 23162.6 2000.54 3
-3 4 5 24982.7 2929.27 12
-3 4 4 4161.97 1003.76 7
-3 4 4 4873.98 1387.49 12
-3 4 3 5376.05 1300.86 12
-3 4 3 5375.33 1170.09 7
-3 4 2 12443.3 1373.87 7
-3 4 2 13554.8 1706.85 5
-3 4 2 13543.3 1646.02 4
3 -4 -1 248354. 5156.53 8
3 -4 -1 252621. 4419.82 9
-3 4 1 260140. 5553.00 7
-3 4 1 276109. 7008.69 5
-3 4 1 288525. 7134.66 4
-3 4 0 29454.2 2246.84 4
3 -4 0 22460.8 1474.82 10
-3 4 0 27322.7 2118.82 5
-3 4 0 25986.6 1601.08 7
3 -4 1 75966.3 2921.85 10
-3 4 -1 81783.9 3712.25 11
-3 4 -1 88660.8 3744.00 5
3 -4 1 72481.8 2378.48 13
-3 4 -1 86866.7 3929.22 4
-3 4 -2 6788.17 1024.59 11
3 -4 2 7224.78 1058.08 10
-3 4 -2 6461.72 685.617 3
-3 4 -2 8029.11 1107.63 4
-3 4 -2 7154.78 1040.75 5
-3 4 -3 18108.8 1528.94 11
-3 4 -3 19116.0 1255.21 3
-3 4 -3 20568.0 1711.73 5
3 -4 3 21512.1 1883.95 10
-3 4 -3 23435.5 2027.55 4
3 -4 4 140027. 5314.10 10
-3 4 -4 142217. 5257.24 4
-3 4 -4 123346. 3956.51 11
-3 4 -4 126306. 4199.72 5
-3 4 -4 130818. 3783.76 3
-3 4 -5 3137.99 656.926 5
3 -4 5 4047.69 1076.69 10
-3 4 -5 2856.95 651.808 3
3 -4 5 3627.39 1019.84 8
3 -4 6 56102.4 4022.52 8
-3 4 -6 54171.4 3090.15 3
3 -4 6 53768.7 3822.90 10
3 -4 7 2459.87 796.279 10
3 -4 7 4637.10 1572.57 8
-3 4 -7 4347.22 973.936 3
3 -4 8 14762.8 2344.93 10
3 -4 8 15108.9 2448.89 8
-3 4 -8 14249.2 1805.33 3
-3 4 -9 9668.66 1629.96 3
3 -4 9 10212.8 2186.69 8
3 -4 10 4889.77 1538.04 8
-3 4 -10 3636.57 1022.75 3
3 -4 11 10456.6 2228.86 8
-3 4 -11 11407.6 1969.78 3
3 -4 11 11639.4 2383.28 7
3 -4 12 1752.48 1144.47 7
-3 4 -12 1147.27 842.486 3
3 -4 12 1550.73 1148.14 8
-3 4 -13 4901.41 1438.57 3
3 -3 -10 1603.96 851.297 3
-3 3 10 2261.33 1159.98 7
3 -3 -9 1117.05 703.986 3
-3 3 9 50.9629 758.289 7
-3 3 9 589.790 812.126 12
-3 3 8 55530.4 5230.72 7
-3 3 8 42401.7 4515.65 12
3 -3 -8 54554.2 3978.44 3
3 -3 -7 3150.75 846.839 3
-3 3 7 3212.37 1131.43 7
-3 3 7 1453.85 881.747 12
3 -3 -6 4180.93 982.423 3
-3 3 6 1587.30 866.291 7
-3 3 6 3886.38 975.748 6
-3 3 6 3394.07 1135.71 12
-3 3 5 4790.45 1072.94 7
-3 3 5 2919.24 777.081 12
-3 3 4 17891.7 2305.44 12
-3 3 4 21414.7 2270.61 7
-3 3 3 94343.7 4165.36 5
-3 3 3 102034. 4327.17 7
-3 3 2 3182.49 356.564 4
-3 3 2 5915.15 924.581 7
-3 3 2 5925.64 1017.58 5
-3 3 1 -35.1318 369.990 4
3 -3 -1 432.434 184.137 9
3 -3 -1 501.649 281.018 8
-3 3 1 183.518 357.855 7
-3 3 0 34055.8 2460.79 11
3 -3 0 30941.2 1338.84 10
3 -3 0 32431.3 1702.60 9
3 -3 0 33955.4 1917.38 8
-3 3 0 31966.6 1534.95 7
3 -3 1 76260.9 2423.58 13
3 -3 1 83330.7 3230.71 8
-3 3 -1 80349.3 3463.89 11
3 -3 1 75755.8 2623.72 10
3 -3 2 12685.2 1201.28 10
3 -3 2 16257.2 875.154 13
3 -3 2 13731.6 1472.32 8
-3 3 -2 11147.1 1001.25 3
-3 3 -2 13692.1 1387.97 11
3 -3 3 11664.7 1284.00 10
3 -3 3 13123.6 1474.64 8
-3 3 -3 10749.0 987.316 3
3 -3 4 1670.53 562.411 10
3 -3 4 266.570 920.565 8
-3 3 -4 1764.39 490.220 3
3 -3 5 24258.7 2300.80 10
3 -3 5 24368.7 2418.45 8
-3 3 -5 21022.1 1770.08 3
3 -3 6 167990. 6731.70 10
3 -3 6 176220. 6846.48 8
-3 3 -6 161294. 5364.06 3
3 -3 7 -172.089 579.972 10
-3 3 -7 -11.0230 320.983 3
3 -3 7 620.206 681.256 8
-3 3 -8 9233.50 1489.49 3
3 -3 8 9628.56 1768.84 8
3 -3 9 1745.92 863.350 8
-3 3 -9 2298.50 913.082 3
3 -3 10 3899.91 1370.66 8
3 -3 10 4938.41 1339.11 7
-3 3 -10 5070.09 1256.44 3
3 -3 11 21608.6 3186.70 8
-3 3 -11 29657.2 3274.02 3
3 -3 11 28787.0 3909.65 7
-3 3 -12 1642.95 858.012 3
3 -3 12 856.550 869.838 7
-3 3 -13 3230.11 1201.99 3
3 -3 13 2499.38 1391.36 7
3 -2 -11 425.895 453.840 3
-3 2 11 -772.642 1066.99 7
3 -2 -10 1274.73 808.746 3
-3 2 10 20.9423 660.245 7
3 -2 -9 13097.6 2048.38 3
-3 2 9 11758.8 2459.02 7
-3 2 9 8144.77 2003.17 12
3 -2 -8 4093.19 1096.61 3
-3 2 8 4025.14 1369.10 7
-3 2 8 1793.33 1021.74 12
3 -2 -7 8810.20 1465.88 3
-3 2 7 6741.43 1638.52 7
-3 2 7 6616.93 1568.96 12
-3 2 6 35137.4 3382.90 7
-3 2 6 28802.9 2236.23 6
-3 2 6 28114.1 2960.43 12
-3 2 5 1449.80 653.812 12
-3 2 5 3069.27 1033.00 7
-3 2 4 32313.4 2588.72 7
-3 2 4 30974.3 2222.11 5
-3 2 4 34453.3 3003.20 12
-3 2 3 16177.6 1638.16 7
-3 2 3 14877.0 1515.91 5
-3 2 2 21486.7 1673.67 7
-3 2 2 21480.5 1762.88 5
3 -2 -1 226433. 4476.94 9
-3 2 1 235519. 5500.68 4
-3 2 1 224439. 4653.83 7
3 -2 0 53743.5 2137.16 8
-3 2 0 53118.0 1634.83 7
3 -2 0 52278.0 2155.66 9
3 -2 1 21554.1 1234.92 10
3 -2 1 24281.0 1683.87 8
3 -2 1 21390.1 1419.64 13
-3 2 -1 23686.4 1812.74 11
3 -2 2 37062.9 2011.05 10
-3 2 -2 36427.2 2195.51 4
3 -2 2 42294.7 2369.68 8
3 -2 2 41299.9 1726.47 13
3 -2 3 21923.7 1693.80 10
-3 2 -3 16279.1 1255.34 3
3 -2 4 39668.4 2565.81 10
-3 2 -4 40308.3 2239.05 3
3 -2 5 53702.0 3313.44 10
3 -2 5 50921.8 3164.69 8
-3 2 -5 52014.0 2761.75 3
3 -2 6 10553.7 1654.12 8
-3 2 -6 10628.5 1304.95 3
3 -2 7 64241.7 4213.68 8
-3 2 -7 63136.6 3618.28 3
3 -2 8 13902.0 2094.98 8
-3 2 -8 15578.9 1874.06 3
3 -2 9 1144.68 714.374 8
3 -2 9 706.985 688.274 7
-3 2 -9 1399.93 701.348 3
3 -2 10 2348.72 1130.94 8
3 -2 10 3441.32 1407.82 7
-3 2 -10 1721.91 829.033 3
-3 2 -11 284.751 403.982 3
3 -2 11 2077.85 929.480 7
3 -2 12 8414.02 2238.81 7
-3 2 -12 6258.39 1526.36 3
-3 2 -13 3972.08 1392.94 3
3 -2 13 3970.83 1695.12 7
3 -1 -11 2317.31 1067.51 3
-3 1 11 2068.30 1093.16 7
3 -1 -10 902.182 706.433 3
-3 1 10 1270.07 941.070 7
3 -1 -9 331.099 534.397 3
-3 1 9 348.840 740.539 7
-3 1 9 178.818 461.561 12
-3 1 8 7757.02 1961.70 7
3 -1 -8 9065.36 1567.47 3
-3 1 8 5756.72 1451.52 12
-3 1 7 58930.3 4775.40 7
-3 1 7 43051.8 3777.61 12
-3 1 6 1270.58 872.713 7
-3 1 6 -142.755 415.707 12
-3 1 5 4607.62 1143.90 12
-3 1 5 4148.21 1079.77 7
-3 1 4 788.629 553.093 12
-3 1 4 -102.662 611.762 7
-3 1 4 168.814 268.743 5
3 -1 -3 3020.17 356.343 2
-3 1 3 3279.80 639.717 5
3 -1 -2 137074. 2531.47 2
-3 1 1 83.4314 314.013 4
3 -1 -1 352.331 287.596 9
-3 1 0 45454.0 2078.67 4
3 -1 0 48980.7 2186.43 9
-3 1 0 45894.0 1450.24 7
3 -1 0 41564.8 2142.19 13
3 -1 1 13276.5 1139.90 8
-3 1 -1 15258.6 1204.16 3
-3 1 -1 14178.3 1210.77 4
3 -1 2 1985.19 579.571 8
-3 1 -2 2174.14 617.269 4
-3 1 -2 2180.37 527.329 3
3 -1 2 1423.23 417.776 13
-3 1 -3 19965.0 1361.68 3
3 -1 3 20893.1 1097.69 7
-3 1 -4 2694.82 706.568 3
3 -1 5 24824.0 2451.47 8
-3 1 -5 20852.9 1876.45 3
3 -1 6 16875.2 1960.57 8
-3 1 -6 16471.7 1698.06 3
3 -1 7 44322.9 3400.54 8
-3 1 -7 47147.2 3104.43 3
3 -1 7 44681.7 3260.36 7
3 -1 8 1662.86 775.289 8
-3 1 -8 1370.18 735.657 3
3 -1 8 2976.04 1177.63 7
3 -1 9 2006.68 974.385 7
-3 1 -9 2195.33 728.332 3
3 -1 10 1844.19 870.959 7
-3 1 -10 1577.40 623.828 3
3 -1 11 594.311 865.337 7
-3 1 -11 735.423 620.317 3
-3 1 -12 12379.6 2210.51 3
3 -1 12 11486.8 2432.25 7
3 -1 13 6543.15 2399.25 7
-3 1 -13 1280.30 772.452 3
-3 0 11 3269.90 1603.43 7
3 0 -11 2096.79 1062.57 3
3 0 -10 409.444 406.638 3
-3 0 10 -677.272 1077.11 7
3 0 -9 8875.75 1646.72 3
-3 0 9 10046.7 2301.55 7
-3 0 9 4703.62 1373.27 12
3 0 -8 7364.11 1466.76 3
-3 0 8 6365.50 1663.55 7
-3 0 8 3648.01 1127.04 12
-3 0 7 759.825 735.776 7
-3 0 7 575.408 433.658 12
-3 0 6 419.656 393.052 12
-3 0 5 28767.4 2547.25 12
-3 0 4 7553.70 917.708 5
3 0 -4 6282.94 735.169 2
-3 0 3 9694.18 832.377 10
3 0 -3 11803.3 938.028 2
-3 0 2 1235.06 300.963 10
-3 0 2 1950.90 681.299 11
3 0 -2 917.275 348.273 2
3 0 -1 155082. 4052.23 9
3 0 -1 157097. 3395.04 2
3 0 -1 152773. 4535.18 13
3 0 0 116969. 3758.13 13
3 0 0 122572. 3475.62 9
-3 0 0 117906. 2920.34 4
-3 0 -1 33823.5 1509.28 4
3 0 1 32134.6 1820.90 13
-3 0 -2 5239.02 679.261 4
3 0 2 5617.28 885.741 13
3 0 3 40456.8 1707.29 7
3 0 4 2276.79 611.894 7
3 0 5 136585. 4468.88 7
-3 0 -6 25657.8 1985.65 3
3 0 6 25827.4 2230.02 7
3 0 7 49071.7 3436.67 7
-3 0 -7 50023.1 3208.04 3
3 0 8 1388.93 808.338 7
-3 0 -8 -352.331 617.300 3
3 0 9 119.094 726.842 7
-3 0 -9 658.188 741.412 3
3 0 10 3625.08 1239.78 7
-3 0 -10 4038.79 1115.27 3
-3 0 -11 7829.14 1736.72 3
3 0 11 8066.80 2093.82 7
-3 0 -12 3454.03 1247.05 3
3 0 12 4357.96 1562.95 7
3 0 13 1020.74 874.905 7
-3 0 -13 -292.522 631.049 3
3 1 -11 205.708 545.026 3
3 1 -11 688.119 643.002 13
3 1 -10 272.236 307.018 3
3 1 -10 71.1687 412.091 13
-3 -1 10 419.338 708.310 7
3 1 -9 1052.73 549.541 3
-3 -1 9 -211.744 694.597 7
3 1 -8 4558.36 1115.79 3
-3 -1 7 21431.3 2475.61 12
-3 -1 6 28600.5 2472.39 12
-3 -1 5 -134.544 305.980 10
3 1 -5 398.365 294.830 2
-3 -1 5 -142.956 394.911 12
-3 -1 4 5143.83 811.022 10
3 1 -4 4334.36 701.972 2
-3 -1 4 5235.76 652.129 5
-3 -1 3 3389.39 734.941 10
3 1 -3 2129.22 523.342 2
-3 -1 2 55797.6 2742.89 11
3 1 -2 50482.0 2171.18 2
3 1 -2 57295.2 3068.36 13
-3 -1 1 199567. 5037.67 11
3 1 -1 192589. 4212.15 2
3 1 -1 206087. 5354.53 13
3 1 0 17852.7 1520.90 13
3 1 1 1821.04 680.832 13
-3 -1 -2 29566.1 1085.20 4
3 1 2 32233.7 1472.78 7
3 1 3 8181.43 883.016 7
3 1 4 1644.00 706.162 7
3 1 5 11716.3 1499.79 7
-3 -1 -6 -1523.87 887.056 3
3 1 6 -401.596 592.636 7
3 1 7 26599.7 2578.98 7
-3 -1 -7 26313.7 2336.08 3
3 1 8 28023.3 2934.17 7
-3 -1 -8 25857.1 2502.32 3
3 1 9 9021.96 1909.71 7
-3 -1 -9 6941.56 1385.30 3
-3 -1 -10 2889.80 920.049 3
3 1 10 3175.74 1181.10 7
-3 -1 -11 -428.739 588.291 3
3 1 11 -581.009 630.663 7
3 1 12 2068.08 1292.76 7
-3 -1 -12 2914.27 1072.02 3
-3 -1 -13 9693.87 2117.47 3
3 1 13 9534.08 2591.97 7
3 2 -11 -1234.04 854.631 3
3 2 -11 -195.742 468.402 13
-3 -2 11 101.013 638.971 7
3 2 -10 762.593 521.228 3
-3 -2 10 1428.93 1077.91 7
3 2 -10 -260.849 433.819 13
3 2 -9 5160.63 1314.41 3
3 2 -9 2486.39 1059.38 13
3 2 -8 7895.86 1730.39 13
3 2 -8 11063.2 1736.12 3
-3 -2 6 2933.46 804.986 10
3 2 -6 4503.36 825.683 2
-3 -2 6 2910.88 771.753 12
3 2 -5 4327.44 1162.27 13
-3 -2 5 2665.14 712.093 10
3 2 -5 5064.77 774.327 2
-3 -2 5 2949.65 751.087 12
3 2 -4 5863.11 1232.83 13
-3 -2 4 5335.67 991.070 10
3 2 -4 6633.99 859.327 2
3 2 -3 23887.0 2155.09 13
-3 -2 3 18168.1 1623.25 10
3 2 -3 23791.2 1654.04 2
3 2 -2 40051.0 2558.28 13
3 2 -2 37956.2 2090.45 2
-3 -2 2 35200.5 2104.11 11
3 2 -1 6860.21 1030.90 13
3 2 -1 5739.53 825.401 2
3 2 0 99390.5 3665.89 13
3 2 1 5061.24 913.299 13
3 2 2 1364.49 458.695 7
3 2 2 1745.76 514.448 9
3 2 3 5319.38 769.303 7
-3 -2 -4 90131.1 3318.76 3
3 2 4 87411.5 3522.87 7
-3 -2 -5 103539. 3999.78 3
3 2 5 99243.0 4187.97 7
3 2 6 5301.75 1184.68 7
-3 -2 -6 5499.47 1073.63 3
-3 -2 -7 134385. 5406.10 3
3 2 7 134114. 6185.93 7
3 2 8 2835.37 1475.21 7
-3 -2 -8 265.493 511.456 3
3 2 9 1467.73 1061.48 7
-3 -2 -9 -342.215 558.222 3
3 2 10 2846.30 1354.39 7
-3 -2 -10 1474.06 687.695 3
-3 -2 -11 2028.71 938.651 3
3 2 11 2016.29 1216.24 7
3 2 12 18976.6 3433.18 7
-3 -2 -12 19863.7 2940.98 3
-3 -2 -13 318.555 421.345 3
3 2 13 1703.26 1081.51 7
3 3 -11 341.668 370.281 3
3 3 -11 837.650 810.939 13
3 3 -10 -646.026 380.899 3
3 3 -10 -670.780 786.672 13
3 3 -9 864.889 532.399 3
3 3 -9 429.782 645.774 13
3 3 -8 -489.640 627.966 3
3 3 -8 201.152 481.895 13
-3 -3 7 21449.0 2449.53 10
3 3 -7 22251.8 2683.21 13
-3 -3 6 10790.2 1614.59 10
3 3 -6 11776.8 1857.06 13
3 3 -6 14535.3 1563.24 2
3 3 -5 10885.2 1298.47 2
-3 -3 5 9615.46 1543.04 10
3 3 -5 9880.73 1610.11 13
-3 -3 4 -43.3523 264.117 12
-3 -3 4 -116.539 380.382 10
3 3 -4 132.840 494.531 13
3 3 -4 131.608 280.414 2
3 3 -3 4904.93 998.358 13
3 3 -3 6554.28 982.020 2
3 3 -2 79289.2 3766.78 13
-3 -3 2 76705.1 2872.02 11
3 3 -1 2922.79 748.639 13
3 3 0 110169. 4357.05 13
3 3 1 21936.6 1587.50 9
3 3 1 24724.6 2179.12 13
3 3 2 75965.9 2833.05 9
-3 -3 -2 78924.5 2911.13 3
3 3 2 79631.1 3230.92 7
3 3 3 42211.3 2096.88 9
3 3 3 44137.8 2507.97 7
-3 -3 -3 37565.2 2015.48 3
3 3 4 43932.7 2163.10 9
-3 -3 -4 44723.7 2515.78 3
3 3 4 46412.2 2731.75 7
-3 -3 -5 93607.6 3838.09 3
3 3 5 88310.3 4251.84 7
-3 -3 -6 12647.8 1585.79 3
3 3 6 12546.2 1668.40 7
-3 -3 -7 8699.07 1448.76 3
3 3 7 7892.46 1477.41 7
-3 -3 -8 153.895 481.229 3
3 3 8 865.520 935.731 7
3 3 9 48408.4 4407.53 7
-3 -3 -9 43393.0 3648.39 3
-3 -3 -10 4157.18 1375.05 3
3 3 10 4309.27 1638.97 7
-3 -3 -11 4180.56 1356.11 3
3 3 11 4477.69 1693.88 7
-3 -3 -12 2764.04 1074.20 3
3 3 12 1928.20 1530.22 7
3 3 13 -452.182 676.657 7
-3 -3 -13 142.034 395.152 3
3 4 -10 2430.05 967.779 3
3 4 -9 4677.74 1237.39 3
3 4 -9 4061.39 1386.88 13
-3 -4 8 4992.11 1334.73 10
3 4 -8 6171.05 1520.84 13
3 4 -8 8472.87 1485.41 3
-3 -4 7 4500.99 1241.33 10
3 4 -7 4389.32 1345.04 13
-3 -4 6 26553.7 2831.77 10
3 4 -6 33878.9 2575.47 2
3 4 -6 27989.7 2990.32 13
3 4 -5 29914.3 2832.54 13
-3 -4 5 31235.6 2883.05 10
3 4 -5 35493.9 2501.38 2
-3 -4 4 599.957 291.932 10
3 4 -4 538.366 437.140 13
3 4 -4 1210.52 537.809 2
3 4 -3 1199.86 455.817 2
3 4 -3 1816.39 760.162 13
-3 -4 2 2332.04 548.873 11
3 4 -2 2869.63 792.344 13
3 4 -1 88768.0 4140.53 13
3 4 -1 90320.3 3463.61 2
3 4 0 78337.6 3879.07 13
3 4 1 331.718 184.917 4
3 4 1 449.846 363.788 9
-3 -4 -2 5530.21 845.026 3
3 4 2 5022.31 739.793 9
3 4 2 7762.70 1156.88 2
3 4 2 6719.55 1060.54 7
3 4 3 57404.9 2416.10 9
3 4 3 62267.9 3424.11 7
3 4 4 29050.1 1751.25 9
-3 -4 -4 26564.0 1896.08 3
3 4 4 29746.0 2427.26 7
3 4 5 15537.0 1315.96 9
3 4 5 18845.7 2069.22 7
-3 -4 -5 17999.3 1650.18 3
-3 -4 -6 11788.4 1498.98 3
3 4 6 11584.3 1716.74 7
3 4 6 8661.80 1012.68 9
3 4 7 37250.1 3433.31 7
-3 -4 -7 39288.2 3031.71 3
3 4 7 35850.9 2368.88 1
3 4 8 81829.0 5458.10 7
-3 -4 -8 87873.2 4948.04 3
-3 -4 -9 2870.34 957.070 3
3 4 9 3291.23 1316.20 7
-3 -4 -10 5475.27 1419.65 3
3 4 10 7731.77 1944.75 7
-3 -4 -11 1097.89 658.729 3
3 4 11 566.381 1037.41 7
-3 -4 -12 4360.71 1370.17 3
3 4 12 6413.80 2272.73 7
-3 -4 -13 6505.79 1751.91 3
3 4 13 5181.96 1858.76 7
3 5 -10 1834.71 776.119 3
3 5 -9 1038.10 701.486 3
3 5 -8 4379.18 1324.01 13
-3 -5 8 5412.29 1424.64 10
3 5 -8 8441.02 1537.21 3
-3 -5 7 1063.75 707.270 10
3 5 -7 1487.40 688.477 2
3 5 -7 1027.23 625.556 13
-3 -5 6 23198.2 2761.04 10
3 5 -6 27494.4 2375.67 2
3 5 -6 20566.4 2526.55 13
-3 -5 5 947.159 741.834 10
3 5 -5 818.562 505.257 2
3 5 -5 1385.64 539.550 13
3 5 -4 49504.0 2992.93 2
3 5 -4 39894.2 3007.23 13
3 5 -4 42426.5 2686.49 1
3 5 -3 39207.9 2934.17 13
3 5 -3 51176.3 2990.32 2
3 5 -2 5111.21 869.267 2
3 5 -2 3409.37 903.064 13
3 5 -1 87122.3 4333.18 13
3 5 -1 112541. 4234.53 2
3 5 0 2933.40 785.015 2
3 5 0 2621.65 475.965 4
3 5 1 175757. 3490.06 4
3 5 1 212098. 5573.77 2
3 5 2 4872.32 955.294 7
3 5 2 5905.64 994.533 2
3 5 2 4240.41 528.055 4
3 5 3 3252.28 549.272 9
3 5 3 5488.73 987.174 2
3 5 3 4512.56 1065.34 7
-3 -5 -3 5179.51 834.508 3
3 5 4 20986.2 1488.37 9
-3 -5 -4 19284.1 1641.87 3
3 5 4 21894.6 2334.26 7
3 5 5 65.1204 191.363 9
3 5 5 -436.592 603.258 7
-3 -5 -5 114.408 243.999 3
3 5 6 65760.0 3505.50 1
-3 -5 -6 67594.3 3530.35 3
3 5 6 61335.4 4289.24 7
3 5 7 880.442 638.690 7
3 5 7 1303.00 512.853 1
-3 -5 -7 1624.13 602.455 3
3 5 8 -272.168 878.272 7
-3 -5 -8 935.462 615.111 3
3 5 9 -1460.94 1116.67 7
-3 -5 -9 1299.01 566.838 3
-3 -5 -10 9989.73 1926.06 3
3 5 10 10052.0 2298.25 7
-3 -5 -11 12663.2 2250.00 3
3 5 11 12127.3 2737.55 7
3 5 12 2827.20 1474.78 7
-3 -5 -12 254.528 522.657 3
3 6 -10 -574.939 586.495 3
3 6 -9 4432.19 1247.54 3
-3 -6 9 2611.77 1111.62 10
-3 -6 8 16484.4 2775.29 10
3 6 -8 17305.8 2204.06 3
3 6 -7 212.932 240.345 3
3 6 -7 110.833 310.209 2
-3 -6 7 -299.848 396.469 10
-3 -6 6 12769.3 2230.34 10
3 6 -6 14883.3 1876.86 2
3 6 -6 10400.2 1714.97 13
3 6 -5 4463.35 1179.27 13
-3 -6 5 4056.81 1250.37 10
3 6 -5 4926.55 1043.93 2
3 6 -4 37266.9 2735.08 2
3 6 -4 29779.2 2386.48 1
3 6 -4 29904.2 2850.82 13
3 6 -3 25994.5 2196.86 2
3 6 -3 24083.3 2142.98 1
3 6 -3 20349.2 2333.36 13
3 6 -2 2944.33 810.412 1
3 6 -2 2922.35 913.847 13
3 6 -2 5000.81 1070.91 2
3 6 -1 18641.9 1509.77 4
3 6 -1 20275.0 1952.73 1
3 6 -1 20303.5 1904.17 2
3 6 0 23747.2 1647.29 4
3 6 0 26214.9 2158.51 2
3 6 1 97698.4 2980.61 4
3 6 1 114082. 4236.76 2
3 6 2 26171.5 2067.18 2
3 6 2 28647.8 2650.73 7
3 6 2 22042.2 1402.40 4
-3 -6 -3 47449.3 2464.17 3
3 6 3 49883.9 3586.50 7
3 6 3 53623.3 3002.01 2
3 6 4 225.924 383.369 2
3 6 4 851.372 452.754 1
3 6 4 482.301 598.108 7
-3 -6 -4 -128.796 262.828 3
-3 -6 -5 11454.6 1323.20 3
3 6 5 14673.2 2138.77 7
3 6 5 12287.8 1522.18 2
3 6 5 13420.6 1749.98 1
-3 -6 -6 48235.2 2974.56 3
3 6 6 54019.6 4309.66 7
3 6 6 56004.3 3348.76 2
3 6 6 52364.6 3399.26 1
3 6 7 789.901 532.450 1
3 6 7 -238.300 683.221 7
-3 -6 -7 935.789 545.737 3
-3 -6 -8 57528.9 3872.42 3
3 6 8 59400.2 5142.54 7
-3 -6 -9 3688.92 1061.70 3
3 6 9 2893.29 1187.80 7
3 6 10 794.870 934.549 7
3 6 11 5698.02 1756.44 7
3 6 12 -2680.14 1526.63 7
-3 -7 9 1681.97 924.416 10
3 7 -9 1691.84 813.545 3
3 7 -8 757.383 461.304 3
-3 -7 8 -28.4919 525.988 10
-3 -7 7 7157.46 1712.43 10
3 7 -7 10698.2 1695.62 2
3 7 -7 9688.99 1622.59 3
-3 -7 6 21352.2 3085.88 10
3 7 -6 21271.5 2236.60 3
3 7 -6 24995.6 2553.53 2
-3 -7 5 1922.53 936.963 10
3 7 -5 2666.54 695.272 2
3 7 -4 528.720 467.383 1
3 7 -4 523.707 400.154 2
3 7 -3 8886.89 1612.33 13
3 7 -3 11304.7 1569.09 2
3 7 -3 9842.11 1437.59 1
3 7 -2 45042.1 2820.24 4
3 7 -2 48945.9 3360.70 1
3 7 -2 50849.4 3227.64 2
3 7 -1 62942.6 3111.90 4
3 7 -1 68422.3 3960.25 1
3 7 -1 72860.3 3793.71 2
3 7 0 13293.5 1869.47 1
3 7 0 11782.7 1471.52 2
3 7 1 14579.7 1656.48 2
3 7 1 15490.0 1917.44 1
3 7 2 61888.6 3857.99 1
3 7 2 58839.6 3256.61 2
3 7 3 23441.4 2008.48 2
3 7 3 24943.3 2709.41 7
3 7 3 25453.9 2468.59 1
3 7 4 16239.9 2026.57 1
3 7 4 14913.1 1615.63 2
3 7 4 15910.2 2321.34 7
3 7 5 1074.50 551.181 1
3 7 5 2053.71 652.761 2
3 7 6 3306.03 1310.67 7
3 7 6 4155.28 1083.80 1
3 7 7 48629.5 4591.65 7
3 7 7 47287.4 3402.42 1
3 7 8 5797.94 1671.49 7
3 7 9 122.087 499.300 7
3 7 10 593.525 916.132 7
3 7 11 823.412 520.659 7
-3 -8 8 1065.44 921.625 10
-3 -8 7 11237.8 2444.36 10
-3 -8 6 -762.065 660.301 10
3 8 -6 -735.682 645.099 2
-3 -8 5 31949.5 3873.97 10
3 8 -5 36041.5 3151.60 2
-3 -8 4 3584.67 1248.22 10
3 8 -4 5058.95 1112.75 1
3 8 -4 5429.70 1201.15 2
3 8 -3 2614.20 809.214 1
3 8 -3 3997.10 1058.08 2
3 8 -2 14577.9 1851.89 2
3 8 -2 13279.3 1811.34 1
3 8 -1 2498.80 747.804 1
3 8 -1 2394.60 824.221 2
3 8 0 34544.2 2724.74 2
3 8 0 33282.6 3009.26 1
3 8 1 7611.98 1624.93 1
3 8 1 4255.78 913.443 2
3 8 2 15517.7 1807.91 2
3 8 2 16583.3 2078.05 1
3 8 3 505.919 419.678 1
3 8 3 1349.38 837.250 7
3 8 3 -695.713 372.219 2
3 8 4 6604.55 1123.22 2
3 8 4 6352.12 1453.52 7
3 8 4 7322.74 1474.00 1
3 8 5 5603.68 1424.55 7
3 8 5 7833.64 1404.59 1
3 8 6 1136.08 711.335 1
3 8 6 -281.813 505.772 7
3 8 7 8008.15 1949.29 7
3 8 7 8938.16 1497.52 1
3 8 8 4605.04 1605.30 7
3 8 9 16395.2 3154.22 7
3 8 10 871.146 930.571 7
3 8 11 1328.97 1215.02 7
-3 -9 7 658.373 946.594 10
-3 -9 6 -1179.12 1021.28 10
3 9 -6 -483.484 601.552 2
-3 -9 5 10875.2 2389.07 10
3 9 -5 13513.8 2018.82 2
-3 -9 4 1638.84 858.149 10
3 9 -4 768.075 545.539 2
3 9 -4 866.057 466.963 1
3 9 -3 7119.92 1435.62 1
3 9 -3 8126.45 1434.68 2
3 9 -2 2168.17 1089.42 1
3 9 -2 575.766 504.829 2
3 9 -1 970.246 681.272 1
3 9 -1 936.100 577.377 2
3 9 0 23342.3 2304.19 2
3 9 0 23889.8 2676.86 1
3 9 1 1591.78 829.665 1
3 9 1 1678.28 655.438 2
3 9 2 27528.4 2466.59 2
3 9 2 34200.6 3303.19 1
3 9 3 1796.94 648.992 2
3 9 3 2218.43 878.848 1
3 9 4 1252.11 675.521 1
3 9 4 1130.61 788.239 7
3 9 5 4632.14 1459.59 7
3 9 5 5361.12 1320.03 1
3 9 6 1404.59 958.835 7
3 9 6 799.104 482.603 1
3 9 7 10179.9 2384.24 7
3 9 8 4768.50 1769.87 7
3 9 9 1779.81 1079.81 7
3 9 10 690.735 799.421 7
-3 -10 6 828.414 938.856 10
3 10 -6 1528.05 861.723 2
-3 -10 5 1507.20 973.022 10
3 10 -5 922.597 609.113 2
-3 -10 4 2215.35 1133.19 10
3 10 -4 2548.21 908.513 2
3 10 -4 3349.88 993.708 1
3 10 -3 2574.48 914.763 2
3 10 -3 2059.27 843.032 1
3 10 -2 946.530 476.936 1
3 10 -2 1322.62 594.955 2
3 10 -1 4820.58 1300.75 1
3 10 -1 3388.16 969.644 2
3 10 0 1505.68 709.290 1
3 10 0 1538.64 626.815 2
3 10 1 7445.48 1593.10 1
3 10 1 6337.05 1245.44 2
3 10 2 -127.092 535.847 1
3 10 2 1065.27 588.449 2
3 10 3 1407.66 581.164 1
3 10 4 -775.841 472.866 1
3 10 5 1060.56 760.587 1
3 10 5 -1009.82 828.480 7
3 10 6 -113.962 521.314 7
3 10 6 1589.35 790.873 1
3 10 7 -181.111 449.520 7
3 10 8 1046.77 846.028 7
3 10 9 2560.61 1461.41 7
-3 -11 5 698.229 815.572 10
3 11 -5 -52.5448 369.548 2
-3 -11 4 -96.5822 634.382 10
3 11 -4 307.087 590.117 2
3 11 -4 984.632 665.304 1
-3 -11 3 291.792 708.271 10
3 11 -3 -463.419 409.421 2
3 11 -3 327.561 506.708 1
3 11 -2 933.748 503.745 2
3 11 -2 141.817 509.879 1
3 11 -1 -215.571 251.840 2
3 11 -1 -450.351 598.842 1
3 11 0 622.015 468.297 2
3 11 0 15.5017 464.880 1
3 11 1 3073.02 821.532 2
3 11 1 3692.57 1181.05 1
3 11 2 5700.67 1445.15 1
3 11 3 3648.30 1127.71 1
3 11 4 510.674 672.903 1
3 11 5 -50.7446 453.680 1
3 11 6 1208.38 921.099 7
3 11 6 1648.77 775.747 1
3 11 7 -406.928 607.536 7
-3 -12 3 -251.757 361.860 10
3 12 -3 109.703 453.185 1
3 12 -3 694.469 558.521 2
3 12 -2 -561.609 545.186 2
3 12 -2 533.368 606.404 1
3 12 -1 1046.36 613.529 2
3 12 -1 20.4711 306.672 1
3 12 0 1020.44 561.086 2
3 12 0 705.011 531.833 1
3 12 1 1028.21 715.335 1
3 12 2 -147.689 323.470 1
3 12 3 -20.3310 481.517 1
3 12 4 1204.36 724.184 1
3 12 5 158.981 371.035 1
3 12 6 -379.265 581.366 1
-4 11 1 -321.093 653.848 6
-4 11 1 452.135 701.936 4
-4 11 0 589.287 906.547 6
-4 11 0 1087.65 822.284 4
-4 11 -1 -606.174 639.868 4
-4 11 -1 -380.674 585.009 6
-4 11 -2 3918.79 1428.93 4
-4 11 -2 3083.57 1212.19 6
-4 11 -3 2786.42 1109.62 4
-4 11 -4 519.104 408.747 4
4 -11 4 959.273 826.013 8
4 -11 5 1151.01 778.451 8
-4 10 4 73.1515 512.316 12
-4 10 3 2027.76 1133.91 6
-4 10 2 1040.20 752.557 4
-4 10 2 -277.475 741.567 6
-4 10 1 68.4340 770.721 4
-4 10 1 618.154 673.883 6
-4 10 0 1563.42 783.633 4
-4 10 0 967.475 745.439 6
-4 10 -1 38.2400 563.721 4
-4 10 -1 220.481 523.626 6
-4 10 -2 2008.27 1117.10 4
-4 10 -2 1568.06 854.763 6
-4 10 -3 40.5924 547.752 6
4 -10 3 141.714 349.436 8
-4 10 -3 971.625 974.647 4
4 -10 4 815.197 677.760 8
-4 10 -4 -998.159 1038.98 4
-4 10 -5 3796.87 1401.72 4
4 -10 5 2842.86 1298.40 8
4 -10 6 139.414 630.850 10
-4 10 -6 1710.90 1017.98 4
4 -10 6 295.910 413.819 8
4 -10 7 374.088 514.828 10
-4 10 -7 1299.13 855.157 4
4 -10 7 1005.26 816.083 8
-4 9 5 2743.77 1386.72 6
-4 9 5 896.523 690.216 12
-4 9 4 6858.57 1960.12 6
-4 9 4 1139.08 819.685 12
-4 9 3 -538.755 441.755 12
-4 9 3 -0.10755 407.008 6
-4 9 2 6628.18 1697.65 6
-4 9 2 5832.74 1616.83 4
-4 9 2 4830.39 1524.48 12
-4 9 1 5954.00 1499.39 6
-4 9 1 4858.67 1454.87 4
-4 9 0 457.108 579.758 4
-4 9 0 1670.22 882.739 6
-4 9 -1 6756.99 1666.40 4
-4 9 -2 417.930 457.081 4
4 -9 2 2692.53 1105.87 8
-4 9 -3 7145.92 1629.84 4
4 -9 3 6040.81 1639.84 8
-4 9 -4 14681.6 2493.22 4
4 -9 4 10032.2 2165.80 8
4 -9 5 -194.577 583.832 10
-4 9 -5 1603.44 875.683 4
4 -9 5 1807.88 1062.02 8
4 -9 6 4550.66 1568.84 10
-4 9 -6 4864.74 1566.39 4
4 -9 6 4336.50 1542.34 8
4 -9 7 1270.62 854.250 10
-4 9 -7 1695.50 887.057 4
4 -9 7 2539.95 1229.07 8
-4 9 -8 807.439 771.445 4
4 -9 8 -144.204 625.786 8
4 -9 9 2023.53 1238.08 10
-4 9 -9 2511.23 1357.31 4
4 -9 9 1836.48 1056.39 8
-4 8 6 1198.39 1194.71 12
-4 8 6 1357.73 1018.03 6
-4 8 5 1176.02 827.567 6
-4 8 5 1020.22 1014.85 12
-4 8 4 1531.03 957.995 6
-4 8 4 774.703 687.341 12
-4 8 3 28500.3 3310.47 6
-4 8 3 16877.3 2688.30 12
-4 8 2 -618.822 534.046 4
-4 8 2 -661.656 573.166 12
-4 8 1 1738.61 870.259 4
-4 8 1 764.993 688.222 12
-4 8 0 -361.004 560.094 4
-4 8 0 -461.160 344.575 12
-4 8 -1 4487.27 1258.33 4
-4 8 -2 14432.1 2244.07 4
4 -8 2 11785.4 2068.72 8
-4 8 -3 788.727 437.676 4
4 -8 3 214.743 478.926 8
4 -8 4 235.561 528.840 10
-4 8 -4 -1168.40 975.530 4
4 -8 4 129.845 485.487 8
4 -8 5 370.957 588.740 10
-4 8 -5 -936.493 646.297 4
4 -8 5 -181.696 514.264 8
4 -8 6 30159.0 3577.27 10
4 -8 6 36054.6 4172.64 8
4 -8 7 5323.13 1663.71 10
-4 8 -7 5493.17 1675.63 4
4 -8 7 5737.38 1809.66 8
4 -8 8 3919.21 1536.13 10
-4 8 -8 4530.73 1389.92 4
4 -8 8 4109.15 1645.42 8
4 -8 9 -78.6938 515.588 10
-4 8 -9 461.334 519.325 4
4 -8 9 621.265 837.282 8
-4 8 -10 -1340.43 946.657 4
4 -8 10 899.822 1076.97 8
-4 7 7 761.597 793.326 6
-4 7 7 621.080 937.939 12
-4 7 6 3892.51 1247.43 6
-4 7 6 1719.68 1137.92 12
-4 7 5 3533.39 1163.61 6
-4 7 5 5080.55 1933.27 12
-4 7 4 2752.80 918.552 6
-4 7 4 1484.12 875.190 12
-4 7 3 5152.09 1419.90 12
-4 7 2 685.231 800.110 4
-4 7 2 497.124 487.612 12
-4 7 1 31067.8 3144.44 12
-4 7 1 35354.5 3381.87 4
-4 7 0 -454.461 572.265 12
-4 7 0 -36.8120 413.132 4
-4 7 -1 908.938 522.841 4
-4 7 -1 928.737 467.942 12
4 -7 1 1417.59 692.468 8
-4 7 -2 23562.2 2774.70 4
4 -7 2 19772.2 2501.50 8
-4 7 -2 20227.5 2386.93 5
4 -7 3 9478.31 1590.44 10
-4 7 -3 10346.3 1875.93 4
4 -7 3 10175.7 1852.10 8
-4 7 -3 8056.57 1469.57 5
4 -7 4 71021.0 4652.69 10
4 -7 4 80927.1 5514.44 8
-4 7 -4 75212.4 4399.63 5
4 -7 5 5162.03 1360.81 10
-4 7 -5 8862.54 1729.96 4
4 -7 5 6360.81 1620.57 8
4 -7 6 648.135 593.805 10
-4 7 -6 -625.766 847.801 4
4 -7 6 -295.305 672.032 8
-4 7 -7 11738.4 2125.28 4
4 -7 7 7925.46 1885.45 10
4 -7 7 10826.9 2360.65 8
-4 7 -8 16148.6 2511.90 4
4 -7 8 12315.6 2422.38 10
4 -7 8 17104.3 3086.81 8
-4 7 -9 12969.4 2304.14 4
4 -7 9 9696.79 2238.80 10
4 -7 9 12033.9 2695.73 8
-4 7 -10 1146.04 814.771 4
4 -7 10 1545.01 992.546 8
4 -7 11 463.273 767.286 8
-4 7 -11 94.2273 560.799 4
-4 6 8 2605.11 1233.90 12
-4 6 7 6100.36 1528.68 6
-4 6 7 5383.50 1747.77 12
-4 6 6 4818.43 1310.91 6
-4 6 6 3520.29 1355.91 12
-4 6 5 6430.78 1756.44 12
-4 6 5 8683.45 1720.40 6
-4 6 4 669.575 761.831 12
-4 6 3 10668.5 1968.70 12
-4 6 2 53246.4 4168.21 12
-4 6 2 67842.1 4631.39 4
-4 6 1 13632.5 2109.91 4
-4 6 1 12868.1 2132.55 5
-4 6 1 8308.19 1516.93 12
-4 6 0 15422.5 2048.04 5
-4 6 0 17693.1 2266.84 4
-4 6 -1 5258.39 1559.52 4
-4 6 -1 4286.21 1009.98 5
4 -6 1 3854.98 960.297 8
4 -6 2 456.903 344.294 8
4 -6 2 625.034 351.388 10
-4 6 -2 840.436 637.295 5
-4 6 -3 48216.0 3315.91 5
-4 6 -3 58103.9 4217.56 4
4 -6 3 45578.8 3255.89 10
4 -6 3 52531.8 3940.33 8
-4 6 -4 28735.8 2527.93 5
4 -6 4 32915.8 2980.19 10
4 -6 4 34597.8 3256.99 8
-4 6 -4 38116.3 3515.80 4
-4 6 -5 14395.9 1715.48 5
-4 6 -5 19235.7 2445.50 4
4 -6 5 14289.2 2090.77 10
4 -6 5 16769.0 2449.56 8
4 -6 6 26569.3 3061.79 10
-4 6 -6 33879.6 3327.46 4
4 -6 6 29995.8 3557.27 8
-4 6 -7 12741.0 2060.15 4
4 -6 7 8981.45 1878.08 10
4 -6 7 10485.9 2138.08 8
-4 6 -8 11059.1 1991.08 4
4 -6 8 9147.55 1971.59 10
4 -6 8 11608.0 2387.97 8
4 -6 9 11020.9 2425.34 8
4 -6 10 2547.15 1196.44 8
4 -6 11 4293.97 1542.01 8
4 -6 12 2371.30 1343.55 8
-4 5 9 4278.26 1720.50 12
-4 5 8 3544.41 1873.27 12
-4 5 7 -388.591 472.984 12
-4 5 6 -920.835 654.471 7
-4 5 6 -136.532 457.704 6
-4 5 6 1065.77 737.062 12
-4 5 5 3216.92 969.490 7
-4 5 5 3380.12 1180.89 12
-4 5 4 27133.2 2638.89 7
-4 5 4 26015.4 3081.41 12
-4 5 3 3218.59 1159.78 12
-4 5 2 5238.87 1146.83 4
-4 5 2 3437.53 1035.06 12
-4 5 2 5759.41 1362.30 5
-4 5 1 52.3144 698.853 4
-4 5 1 500.957 586.426 5
4 -5 0 60051.7 3351.13 8
-4 5 0 68355.3 4034.39 5
-4 5 0 72609.3 4100.37 4
-4 5 -1 55429.1 3680.15 4
4 -5 1 49527.7 3209.30 8
-4 5 -1 56534.1 3563.89 5
-4 5 -2 27853.1 2390.14 11
-4 5 -2 31344.8 2694.77 4
4 -5 2 26850.4 2146.79 10
-4 5 -2 29649.5 2490.54 5
4 -5 2 30432.0 2632.83 8
-4 5 -3 -143.054 345.266 11
4 -5 3 -629.581 555.089 10
-4 5 -3 -1710.40 1073.81 4
4 -5 3 280.978 475.823 8
-4 5 -3 -168.728 452.628 5
-4 5 -4 648.646 479.937 11
4 -5 4 482.222 561.809 10
-4 5 -4 -624.771 917.484 4
4 -5 4 1735.03 833.367 8
-4 5 -4 860.021 465.671 5
4 -5 5 131401. 6035.46 10
-4 5 -5 147171. 6314.88 4
-4 5 -5 123757. 4751.07 5
4 -5 5 146591. 6893.59 8
4 -5 6 1651.36 727.151 10
-4 5 -6 -249.551 877.978 4
4 -5 6 1375.01 742.040 8
-4 5 -6 161.658 297.545 3
-4 5 -6 965.746 384.288 5
4 -5 7 5693.03 1451.78 10
4 -5 7 8063.78 1732.61 8
-4 5 -7 5394.56 957.388 3
4 -5 8 1102.60 893.265 10
-4 5 -8 536.919 329.790 3
4 -5 8 52.7270 507.718 8
4 -5 9 4439.83 1410.70 8
-4 5 -9 3622.23 1034.78 3
4 -5 10 32348.9 4183.91 8
-4 5 -10 34357.8 3221.13 3
-4 5 -11 -302.394 587.703 3
4 -5 11 -99.6034 819.055 8
4 -5 12 1499.16 1080.49 8
-4 5 -12 -190.281 595.993 3
-4 4 9 2931.44 1324.50 12
-4 4 9 4561.89 1705.97 7
-4 4 8 921.525 701.535 7
-4 4 8 407.581 983.304 12
-4 4 7 18320.6 2731.39 7
-4 4 7 15090.6 2733.32 12
-4 4 6 576.756 563.991 6
-4 4 6 -397.758 589.033 7
-4 4 6 145.858 610.389 12
-4 4 5 4325.15 1323.36 12
-4 4 5 3971.37 1114.59 7
-4 4 4 18197.3 2086.21 7
-4 4 4 18591.7 2510.10 12
-4 4 3 -363.966 675.235 12
-4 4 3 4.04682 469.159 7
-4 4 3 -186.613 533.068 5
-4 4 2 68352.6 3970.75 5
-4 4 2 64563.7 3121.00 7
-4 4 1 28824.2 2570.49 4
-4 4 1 22533.7 1611.27 7
-4 4 1 25099.1 2215.48 5
4 -4 0 6239.10 927.952 9
4 -4 0 5637.66 909.437 8
-4 4 0 8939.94 1533.71 4
4 -4 0 5262.10 933.652 13
-4 4 0 7734.93 1323.49 5
-4 4 -1 48662.8 3216.93 11
4 -4 1 45654.8 2222.92 10
4 -4 1 50830.7 3044.10 8
4 -4 1 45828.8 2335.76 13
-4 4 -1 52039.6 3172.48 5
-4 4 -2 37347.2 2659.02 11
-4 4 -2 42240.2 3180.16 4
4 -4 2 41828.2 2960.73 8
4 -4 2 36067.4 2290.79 10
-4 4 -2 40133.7 2713.81 5
-4 4 -3 24504.4 1997.92 11
-4 4 -3 29282.1 2640.76 4
4 -4 3 26463.2 2148.84 10
4 -4 3 28789.3 2593.39 8
-4 4 -3 22925.2 1591.01 3
-4 4 -4 12466.0 1741.24 4
-4 4 -4 8393.05 1186.21 11
4 -4 4 11292.1 1672.84 8
-4 4 -4 9281.19 1063.92 3
4 -4 4 9654.37 1447.59 10
4 -4 5 20449.4 2243.07 10
-4 4 -5 21567.7 2286.38 4
4 -4 5 24279.9 2773.59 8
-4 4 -5 18617.9 1566.02 3
4 -4 6 18024.3 2341.76 10
4 -4 6 19153.9 2516.29 8
-4 4 -6 16431.1 1636.64 3
4 -4 7 78809.2 5115.30 10
4 -4 7 88045.0 5772.93 8
-4 4 -7 86256.2 4191.41 3
-4 4 -8 747.985 284.765 3
4 -4 8 1232.69 839.644 8
-4 4 -9 1364.02 697.440 3
4 -4 9 1844.86 1019.75 8
4 -4 10 4115.60 1540.82 8
-4 4 -10 3578.67 898.614 3
4 -4 11 3443.17 1516.00 8
-4 4 -11 1022.83 648.880 3
4 -4 12 9878.10 2409.69 8
-4 4 -12 16623.6 2528.19 3
-4 4 -13 882.431 592.786 3
-4 3 10 1908.35 1131.15 7
4 -3 -9 2041.83 869.329 3
-4 3 9 1823.93 1032.06 7
-4 3 9 1334.00 836.123 12
-4 3 8 12734.4 2415.34 7
-4 3 8 9831.81 2302.86 12
4 -3 -7 5714.00 1264.74 3
-4 3 7 4226.59 1331.67 7
-4 3 7 3690.43 1323.84 12
-4 3 6 880.966 496.753 7
-4 3 6 2273.56 758.098 12
-4 3 5 567.822 507.991 12
-4 3 5 46.3220 423.158 7
-4 3 4 2986.75 831.181 5
-4 3 4 2078.49 675.016 7
-4 3 4 2680.26 929.753 12
-4 3 3 66893.8 3728.47 5
-4 3 3 70351.7 3670.54 7
-4 3 2 33372.4 2549.81 5
-4 3 2 30693.1 2122.97 7
-4 3 2 37919.2 2729.83 4
-4 3 1 3847.81 942.515 4
4 -3 -1 3375.03 676.725 9
-4 3 1 3302.87 590.983 7
-4 3 1 4228.63 1042.88 5
-4 3 0 63905.1 3251.30 4
4 -3 0 58351.0 2767.70 9
4 -3 0 58552.6 2651.02 8
-4 3 0 55633.6 1937.33 7
4 -3 0 52134.2 2824.22 13
-4 3 0 58474.4 3555.44 11
-4 3 -1 2661.64 728.034 11
-4 3 -1 2454.35 664.307 4
4 -3 1 3041.60 693.625 8
4 -3 1 2079.22 520.326 13
-4 3 -2 38230.5 2602.97 4
4 -3 2 38553.6 1938.44 13
-4 3 -2 35574.2 2007.72 3
4 -3 2 39509.7 2680.58 8
-4 3 -2 36816.8 2536.90 11
4 -3 3 68758.7 3240.46 10
-4 3 -3 62986.1 2693.16 3
-4 3 -3 68720.2 3669.00 4
4 -3 4 8717.88 1250.14 10
-4 3 -4 9549.36 1370.97 4
4 -3 4 9641.30 1501.23 8
-4 3 -4 7995.61 1007.70 3
4 -3 5 31682.9 2758.15 8
-4 3 -5 30343.0 2104.02 3
4 -3 5 28443.5 2535.87 10
4 -3 6 81641.7 4976.35 8
-4 3 -6 76284.1 3676.81 3
-4 3 -7 222.591 394.311 3
4 -3 7 -116.447 584.548 8
4 -3 8 12394.9 2177.49 8
-4 3 -8 13124.2 1794.02 3
-4 3 -9 3438.88 1031.93 3
4 -3 9 2263.51 763.277 8
4 -3 9 2040.58 822.021 7
4 -3 10 5772.34 1748.16 8
4 -3 10 8234.85 1858.88 7
-4 3 -10 8792.90 1612.73 3
4 -3 11 8174.82 1996.77 8
-4 3 -11 10454.8 1898.07 3
4 -3 11 9816.65 2170.18 7
-4 3 -12 531.747 326.515 3
-4 3 -13 763.276 747.278 3
4 -2 -10 3602.49 1250.78 3
-4 2 10 2427.21 965.377 7
4 -2 -9 498.540 659.274 3
-4 2 9 -1262.52 860.656 7
-4 2 9 1103.53 1028.42 12
-4 2 8 3483.26 1378.52 12
4 -2 -8 4253.40 1100.42 3
-4 2 8 5120.33 1654.47 7
-4 2 7 2391.22 982.445 12
-4 2 7 2959.29 1327.64 7
-4 2 6 31264.5 3216.66 7
-4 2 6 24984.2 2951.33 12
-4 2 5 8943.99 1687.57 12
-4 2 5 8984.46 1678.13 7
-4 2 4 3440.52 1183.05 12
-4 2 4 3466.07 997.300 7
-4 2 4 2742.85 763.170 5
-4 2 3 12405.2 1497.62 5
-4 2 3 12411.4 1529.51 7
-4 2 2 17129.5 1743.07 5
-4 2 2 16827.9 1540.26 7
4 -2 -1 174054. 4700.61 9
-4 2 1 192904. 5481.83 4
-4 2 1 186057. 6172.27 11
-4 2 1 178919. 4326.14 7
-4 2 0 643.583 357.581 4
4 -2 0 1385.69 390.564 9
-4 2 0 946.586 287.246 7
4 -2 0 1081.60 517.966 13
-4 2 -1 9852.47 1394.64 11
-4 2 -1 8578.66 1157.32 4
4 -2 1 9331.66 1121.98 9
4 -2 1 9151.03 1083.14 8
4 -2 1 9259.89 1132.53 13
4 -2 2 1835.22 503.014 13
-4 2 -2 1088.04 397.690 4
4 -2 2 1546.55 515.470 8
-4 2 -2 614.435 297.623 3
4 -2 3 598.123 411.537 8
-4 2 -3 151.807 231.307 3
-4 2 -3 314.889 323.433 4
-4 2 -4 90110.6 3431.70 3
4 -2 4 90803.3 2618.82 7
-4 2 -5 5749.18 974.951 3
4 -2 5 5605.36 1176.41 8
4 -2 6 510.874 429.970 8
-4 2 -6 1980.57 618.558 3
-4 2 -7 7258.27 1226.82 3
4 -2 7 7673.24 1645.63 8
4 -2 7 5647.57 1090.75 7
4 -2 8 23207.2 2817.88 8
-4 2 -8 28532.3 2686.51 3
4 -2 8 23400.3 2505.17 7
4 -2 9 8600.26 1867.89 8
-4 2 -9 9764.07 1660.23 3
4 -2 9 7725.96 1566.08 7
-4 2 -10 1951.75 910.012 3
4 -2 10 687.121 600.380 7
-4 2 -11 -437.317 516.747 3
4 -2 11 401.754 822.185 7
-4 2 -12 2077.56 911.533 3
4 -2 12 3752.51 1562.87 7
-4 2 -13 4577.21 1386.41 3
4 -2 13 6132.96 2085.79 7
4 -1 -10 1288.47 737.392 3
4 -1 -10 -865.679 928.022 13
4 -1 -9 1704.82 721.470 3
-4 1 9 3032.77 1377.41 7
-4 1 9 1699.24 916.655 12
-4 1 8 16266.4 2801.52 7
4 -1 -8 15794.4 2205.52 3
-4 1 8 11208.2 2251.78 12
-4 1 7 4097.34 1270.53 7
-4 1 7 3587.96 1134.84 12
-4 1 6 2098.92 1021.31 7
-4 1 6 1761.25 796.222 12
-4 1 5 2856.07 997.706 12
-4 1 5 1876.40 736.633 7
-4 1 4 2603.25 638.146 5
-4 1 4 3065.23 767.114 7
-4 1 3 19550.6 1900.21 7
-4 1 3 18465.5 1745.43 5
-4 1 2 20653.6 2413.63 11
4 -1 -2 14717.6 976.354 2
4 -1 -1 21956.9 1714.84 9
-4 1 1 21632.2 1887.38 11
4 -1 -1 24770.5 1457.82 2
-4 1 1 21998.6 1491.90 7
4 -1 -1 22385.7 2038.72 13
-4 1 0 26746.6 1770.43 4
4 -1 0 23239.8 1702.16 9
-4 1 0 22946.1 1153.78 7
4 -1 0 22215.5 1836.13 13
-4 1 -1 104764. 3504.71 4
4 -1 1 103511. 3659.55 9
4 -1 1 95556.3 3470.43 13
4 -1 2 -85.3442 362.608 13
-4 1 -2 570.073 375.137 4
-4 1 -2 533.703 374.585 3
-4 1 -3 4438.36 820.014 4
-4 1 -3 4622.28 743.646 3
4 -1 4 28834.6 1488.60 7
-4 1 -4 25414.8 1838.15 3
4 -1 4 25671.0 1818.01 8
4 -1 5 29536.1 2621.71 8
-4 1 -5 29050.0 2142.53 3
4 -1 5 26016.6 1808.19 7
4 -1 6 84420.8 4648.37 8
-4 1 -6 93105.6 4220.72 3
4 -1 6 81046.2 3781.41 7
4 -1 7 44168.4 3591.99 8
-4 1 -7 50173.8 3332.12 3
4 -1 7 46771.7 3231.81 7
4 -1 8 417.838 509.670 7
-4 1 -8 -362.357 499.465 3
-4 1 -9 297.240 741.105 3
4 -1 9 -1436.23 960.040 7
4 -1 10 2201.74 1111.26 7
-4 1 -10 2533.77 1002.63 3
-4 1 -11 9237.86 1769.41 3
4 -1 11 9091.48 2110.42 7
-4 1 -12 9690.27 1991.18 3
4 -1 12 8539.39 2160.97 7
4 -1 13 606.766 1084.49 7
-4 1 -13 622.191 606.659 3
4 0 -10 1899.73 1013.17 3
-4 0 10 1622.35 1237.87 7
4 0 -10 2900.93 1364.62 13
4 0 -9 693.326 739.302 3
-4 0 9 2125.27 1273.38 7
4 0 -9 540.035 621.501 13
4 0 -8 2571.42 928.247 3
-4 0 8 2908.47 1202.51 7
-4 0 8 2061.17 761.467 12
-4 0 7 11062.5 2137.00 7
-4 0 7 5922.33 1348.12 12
-4 0 6 19553.8 2420.33 12
-4 0 5 231.067 431.702 12
-4 0 4 1399.17 476.547 5
4 0 -3 619.014 205.965 2
-4 0 2 85270.8 4027.22 11
4 0 -2 75214.9 2519.40 2
4 0 -2 82416.2 4108.33 13
-4 0 1 134920. 4735.80 11
4 0 -1 131873. 4308.95 9
4 0 -1 128776. 4759.99 13
4 0 -1 140698. 3756.56 2
4 0 0 22205.4 1754.15 9
4 0 0 21655.0 1899.49 13
-4 0 0 19486.6 1424.87 4
-4 0 -1 40207.8 1804.66 4
4 0 1 42501.5 2412.53 13
-4 0 -2 861.387 326.001 4
4 0 2 1049.44 514.208 13
-4 0 -3 24648.2 1547.31 4
4 0 3 26338.2 1180.70 7
4 0 4 31834.2 1732.19 7
-4 0 -5 15463.6 1697.48 3
4 0 5 10852.1 1173.13 7
-4 0 -6 50862.9 3135.65 3
4 0 6 50876.6 3065.64 7
-4 0 -7 34997.2 2706.88 3
4 0 7 34506.8 2789.06 7
-4 0 -8 13349.8 1853.29 3
4 0 8 13768.8 2010.72 7
4 0 9 -661.227 678.591 7
-4 0 -9 280.207 541.451 3
-4 0 -10 1868.46 830.082 3
4 0 10 -1612.03 1105.28 7
-4 0 -11 12291.2 2151.41 3
4 0 11 9978.57 2273.81 7
-4 0 -12 6439.84 1635.94 3
4 0 12 4531.51 1656.32 7
4 0 13 1598.37 1077.62 7
-4 0 -13 1850.30 1121.02 3
4 0 14 2012.63 1386.45 7
4 1 -10 887.007 818.867 3
4 1 -10 336.817 661.120 13
-4 -1 10 1590.93 1020.40 7
4 1 -9 2419.31 1132.98 13
4 1 -9 3523.82 1019.07 3
-4 -1 9 2233.49 1122.21 7
4 1 -8 8583.73 1993.04 13
-4 -1 8 13580.3 2636.00 7
4 1 -7 11745.2 2260.77 13
-4 -1 7 12720.6 1976.04 12
-4 -1 6 4283.06 1134.51 12
4 1 -6 4727.76 1383.48 13
4 1 -5 2332.75 498.036 2
-4 -1 5 1683.77 584.128 12
4 1 -5 1312.17 652.168 13
4 1 -4 1600.10 420.076 2
-4 -1 4 2291.32 593.243 5
-4 -1 3 23303.5 1584.53 10
4 1 -3 27580.3 1775.19 2
4 1 -3 29358.7 2680.85 13
-4 -1 2 50493.0 3057.03 11
4 1 -2 46349.7 2321.57 2
4 1 -2 52640.3 3331.47 13
-4 -1 1 9351.23 1333.22 11
4 1 -1 10628.9 1337.56 9
4 1 -1 9894.69 1120.39 2
4 1 -1 9408.59 1406.34 13
4 1 0 9151.42 1255.57 13
4 1 1 72120.5 3406.40 13
-4 -1 -1 60246.7 1868.57 4
-4 -1 -2 6614.62 599.818 4
4 1 2 6209.39 1051.40 13
-4 -1 -3 8999.16 787.390 4
4 1 3 9200.44 953.368 7
4 1 4 47154.0 2290.61 7
4 1 5 3661.02 822.240 7
-4 -1 -5 4721.62 828.699 3
-4 -1 -6 37544.3 2706.32 3
4 1 6 37731.0 2779.24 7
-4 -1 -7 6040.09 1317.96 3
4 1 7 7207.35 1348.95 7
-4 -1 -8 47043.4 3487.02 3
4 1 8 48972.7 3928.54 7
-4 -1 -9 3240.98 1160.12 3
4 1 9 2051.56 970.087 7
-4 -1 -10 332.818 525.991 3
4 1 10 53.6192 641.260 7
-4 -1 -11 17097.3 2547.35 3
4 1 11 17504.9 3016.02 7
-4 -1 -12 1342.50 769.776 3
4 1 12 1455.33 852.625 7
-4 -1 -13 9607.59 2094.29 3
4 1 13 8357.92 2466.25 7
4 1 14 -850.846 983.466 7
4 2 -10 1540.38 787.587 3
-4 -2 10 2290.54 1268.17 7
4 2 -10 210.085 445.938 13
4 2 -9 2066.97 852.975 3
4 2 -9 1505.77 1115.73 13
4 2 -8 -224.490 421.510 13
4 2 -7 -1144.83 739.840 13
-4 -2 6 22598.5 2343.25 12
4 2 -6 29090.4 2153.20 2
4 2 -6 24400.0 2970.05 13
-4 -2 5 882.384 429.096 12
4 2 -5 1023.01 403.122 2
4 2 -5 286.116 618.531 13
-4 -2 4 107.144 222.492 10
4 2 -4 695.467 602.237 13
4 2 -4 859.500 447.166 2
-4 -2 3 253.266 198.357 10
4 2 -3 536.512 498.642 13
4 2 -3 483.794 269.783 2
-4 -2 2 8066.55 1192.86 11
4 2 -2 10273.2 1108.16 2
4 2 -2 10232.1 1515.17 13
-4 -2 1 98197.0 4002.47 11
4 2 -1 98177.3 4245.50 13
4 2 -1 92039.1 3475.21 2
4 2 0 16292.7 1757.24 13
4 2 0 14694.0 1493.69 2
4 2 1 4426.39 969.065 13
4 2 2 7651.81 1316.41 13
4 2 3 2207.83 690.872 9
4 2 3 851.114 433.259 7
-4 -2 -4 33944.2 2315.12 3
4 2 4 30401.5 2022.33 7
-4 -2 -5 4876.96 1311.44 3
4 2 5 10.1145 373.379 7
-4 -2 -6 35839.0 2663.48 3
4 2 6 31666.4 2566.62 7
-4 -2 -7 11798.9 1890.05 3
4 2 7 9009.92 1624.25 7
-4 -2 -8 70488.1 4419.26 3
4 2 8 61350.4 4451.79 7
-4 -2 -9 5496.19 1410.17 3
4 2 9 5163.59 1401.89 7
-4 -2 -10 1302.34 802.646 3
4 2 10 1335.53 863.671 7
-4 -2 -11 8186.41 1791.68 3
4 2 11 7937.91 2149.28 7
-4 -2 -12 3998.68 1326.01 3
4 2 12 4379.57 1645.64 7
-4 -2 -13 9008.48 2018.66 3
4 2 13 7284.89 2305.88 7
4 3 -10 2683.00 1021.82 3
-4 -3 10 2336.72 1397.34 7
4 3 -10 1785.26 833.864 13
4 3 -9 577.502 640.482 3
4 3 -9 667.473 744.787 13
4 3 -8 13953.6 2571.53 13
4 3 -7 25621.6 3215.29 13
4 3 -6 140.530 242.913 2
4 3 -6 -714.513 673.010 13
-4 -3 5 23470.9 2286.28 10
4 3 -5 27936.4 2174.95 2
4 3 -5 27630.0 3009.51 13
-4 -3 4 28169.4 2417.83 10
4 3 -4 35010.0 2310.58 2
4 3 -4 32536.2 2997.92 13
4 3 -3 14319.6 1504.50 2
4 3 -3 14626.3 1881.65 13
-4 -3 2 50523.3 2736.74 11
4 3 -2 57884.6 2989.87 2
4 3 -2 51349.3 3392.59 13
4 3 -1 2354.29 659.729 2
4 3 -1 3044.66 868.214 13
4 3 0 87912.7 4169.51 13
4 3 0 90319.3 3671.75 2
4 3 0 87414.8 3665.96 9
4 3 1 105887. 4665.54 13
4 3 1 110911. 3931.96 9
4 3 2 11525.6 1282.38 9
-4 -3 -2 11431.8 1350.51 3
4 3 2 11470.7 1273.82 7
4 3 3 44184.5 2477.85 9
-4 -3 -3 41520.9 2506.63 3
4 3 3 40204.7 2480.02 7
4 3 4 25180.4 1835.74 9
-4 -3 -4 21293.9 1718.41 3
4 3 4 25135.2 2008.27 7
4 3 5 96744.6 3820.10 9
-4 -3 -5 98148.1 4069.76 3
4 3 5 94743.7 4328.69 7
-4 -3 -6 43784.5 2852.70 3
4 3 6 38539.3 2951.75 7
-4 -3 -7 52598.5 3484.65 3
4 3 7 50702.3 3694.91 7
-4 -3 -8 3689.95 1055.82 3
4 3 8 1850.45 648.482 7
-4 -3 -9 40051.0 3580.84 3
4 3 9 39671.0 3910.46 7
-4 -3 -10 16750.5 2505.48 3
4 3 10 15200.1 2611.39 7
-4 -3 -11 7779.35 1699.49 3
4 3 11 6772.72 1978.42 7
4 3 12 6365.03 1973.88 7
-4 -3 -12 4671.31 1465.54 3
4 3 13 2333.65 1074.78 7
-4 -3 -13 1633.72 913.687 3
4 4 -10 2153.96 872.760 3
4 4 -10 1135.97 660.485 13
4 4 -9 12928.7 2115.01 3
4 4 -9 8610.73 2123.11 13
4 4 -8 586.591 668.055 13
4 4 -7 1528.43 962.887 13
4 4 -7 1667.63 727.187 2
-4 -4 6 443.834 410.221 10
4 4 -6 952.217 481.329 2
4 4 -6 87.5689 433.324 13
-4 -4 5 42917.3 3449.98 10
4 4 -5 52970.4 3177.76 2
4 4 -5 46411.0 3946.42 13
4 4 -4 24751.9 2670.43 13
-4 -4 4 21572.2 2289.37 10
4 4 -4 28814.9 2261.92 2
4 4 -3 5514.16 963.832 2
4 4 -3 5553.57 1259.35 13
4 4 -2 2286.19 783.650 13
-4 -4 2 2143.56 667.015 11
4 4 -2 1616.27 482.353 2
4 4 -1 5152.99 1010.76 2
4 4 -1 3818.41 1004.10 13
4 4 0 207050. 5718.53 2
4 4 0 198292. 6829.28 13
4 4 1 4309.20 850.400 9
4 4 1 4571.97 939.814 2
4 4 1 4536.80 1136.89 13
4 4 2 122385. 4275.70 9
4 4 2 126145. 4832.06 7
4 4 3 16848.4 1567.34 9
-4 -4 -3 20762.0 1771.04 3
4 4 3 17884.3 1801.30 7
4 4 4 1050.38 457.880 9
4 4 4 1519.26 566.588 7
-4 -4 -4 1425.56 462.876 3
4 4 5 140420. 4541.31 9
-4 -4 -5 140144. 4832.72 3
4 4 5 139280. 5728.71 7
4 4 6 5097.11 896.604 9
4 4 6 5622.74 1309.72 7
-4 -4 -6 6219.27 1084.20 3
4 4 7 92090.6 4045.14 9
-4 -4 -7 108501. 4979.08 3
4 4 7 106182. 5751.87 7
-4 -4 -8 16426.1 2053.55 3
4 4 8 15132.2 2254.70 7
-4 -4 -9 10719.0 1812.86 3
4 4 9 9686.52 2023.67 7
-4 -4 -10 20839.0 2735.73 3
4 4 10 18976.4 3182.55 7
4 4 11 692.867 816.786 7
-4 -4 -11 -1118.69 809.292 3
-4 -4 -12 16050.6 2740.87 3
4 4 12 14142.0 2941.84 7
-4 -4 -13 -147.505 587.471 3
4 4 13 554.649 825.442 7
4 5 -9 900.822 637.094 3
4 5 -8 1396.69 749.249 13
4 5 -8 1859.41 662.435 3
-4 -5 7 36418.8 3684.94 10
4 5 -7 30012.8 3434.25 13
-4 -5 6 2045.06 878.416 10
4 5 -6 3222.91 875.030 2
4 5 -6 1826.92 850.008 13
-4 -5 5 501.953 452.900 10
4 5 -5 809.536 513.723 2
4 5 -5 201.985 356.295 13
-4 -5 4 3464.62 1032.58 10
4 5 -4 3917.88 851.087 2
4 5 -4 4263.56 1184.32 13
4 5 -3 46541.4 3013.18 2
4 5 -3 37978.4 3257.47 13
4 5 -2 76681.0 3867.23 2
4 5 -2 60877.4 4013.13 13
4 5 -1 2558.63 716.713 2
4 5 -1 2357.77 854.106 13
4 5 0 6745.61 1140.21 2
4 5 0 6328.55 1447.79 13
4 5 1 20132.6 1827.49 2
4 5 2 84764.0 3742.99 9
4 5 2 102533. 4416.48 2
4 5 3 34344.0 2250.83 9
-4 -5 -3 40114.7 2477.40 3
4 5 3 39848.2 3030.61 7
4 5 4 -318.153 423.368 9
4 5 4 -240.870 674.823 7
-4 -5 -4 -135.151 292.833 3
4 5 5 1394.89 516.695 9
4 5 5 1193.38 742.583 7
-4 -5 -5 1681.76 630.124 3
4 5 6 21929.3 1810.76 9
-4 -5 -6 25625.1 2240.57 3
4 5 6 27181.3 2874.15 7
-4 -5 -7 68267.3 3970.49 3
4 5 7 63968.9 4695.85 7
4 5 8 13878.4 2390.90 7
-4 -5 -8 7238.91 1370.37 3
-4 -5 -9 6904.89 1494.96 3
4 5 9 7133.07 1846.64 7
4 5 10 2170.88 1170.29 7
-4 -5 -10 870.462 713.363 3
-4 -5 -11 2944.47 1133.15 3
4 5 11 4902.17 1634.17 7
-4 -5 -12 12523.5 2244.56 3
4 5 12 10523.9 2607.99 7
4 5 13 2109.16 1339.15 7
-4 -5 -13 1321.18 716.395 3
4 6 -9 839.764 604.225 3
4 6 -8 11455.9 1917.93 3
-4 -6 7 1772.49 922.059 10
4 6 -7 1651.53 719.703 2
-4 -6 6 9430.33 1957.01 10
4 6 -6 13057.0 1907.73 2
4 6 -6 8812.36 1774.85 13
-4 -6 5 17568.6 2619.01 10
4 6 -5 21732.6 2232.28 2
4 6 -5 15277.4 2300.08 13
4 6 -4 -834.255 759.310 13
4 6 -4 -21.3163 337.994 1
4 6 -3 16754.4 1938.06 2
4 6 -3 10270.1 1759.30 13
4 6 -3 14816.1 1846.49 1
4 6 -2 11717.0 1577.75 2
4 6 -2 9292.08 1657.10 13
4 6 -1 54363.0 3352.71 2
4 6 -1 41321.8 3482.10 13
4 6 0 90788.8 4223.48 2
4 6 1 14453.0 1688.72 2
4 6 2 1903.85 741.420 2
4 6 3 44818.2 3494.35 7
4 6 3 43391.5 2989.35 2
4 6 4 27719.4 2074.38 9
-4 -6 -4 36703.6 2482.44 3
4 6 4 36160.7 3266.87 7
-4 -6 -5 30117.5 2352.48 3
4 6 5 27483.4 2875.65 7
-4 -6 -6 27714.1 2326.39 3
4 6 6 31479.5 3379.65 7
4 6 6 31904.3 2839.91 1
4 6 7 6589.01 1307.71 1
4 6 7 4386.11 1218.92 7
-4 -6 -7 5087.98 1092.09 3
-4 -6 -8 29050.1 2795.02 3
4 6 8 29965.8 3575.26 7
4 6 9 7102.38 1832.26 7
-4 -6 -9 7592.67 1495.81 3
4 6 10 -880.206 769.624 7
-4 -6 -10 312.436 368.391 3
4 6 11 5741.58 2121.40 7
4 6 12 1355.70 1107.51 7
4 7 -8 -190.468 407.364 3
-4 -7 8 -13.6580 334.957 10
-4 -7 7 476.005 547.534 10
4 7 -7 1359.76 627.670 3
4 7 -7 534.278 258.489 2
-4 -7 6 24913.0 3412.57 10
4 7 -6 32539.0 3040.53 2
-4 -7 5 64.5082 478.966 10
4 7 -5 1520.14 713.676 2
4 7 -4 12350.3 1742.82 2
4 7 -4 9223.41 1819.63 13
4 7 -4 10259.9 1541.56 1
4 7 -3 839.444 508.983 2
4 7 -3 914.096 663.742 1
4 7 -3 629.564 679.772 13
4 7 -2 -403.850 799.530 13
4 7 -2 683.812 615.442 1
4 7 -2 263.550 349.640 2
4 7 -1 52586.0 3555.17 2
4 7 -1 45857.0 3447.31 1
4 7 0 2045.64 776.768 2
4 7 1 44208.7 3069.92 2
4 7 2 3546.00 854.036 2
4 7 3 18179.4 2012.12 2
4 7 3 13804.1 2029.53 7
4 7 4 18353.0 2018.83 2
4 7 4 17578.1 2451.24 7
4 7 4 19156.2 2368.39 1
4 7 5 1980.94 846.632 2
4 7 5 709.600 425.920 1
4 7 6 13079.7 2216.30 7
4 7 6 14842.7 1890.93 2
4 7 6 17769.6 2241.82 1
4 7 7 655.680 351.697 1
4 7 7 169.631 542.713 7
4 7 8 27424.2 3690.34 7
4 7 9 -75.7284 523.801 7
4 7 10 4754.18 1781.67 7
4 7 11 5291.19 2260.56 7
4 7 12 -302.375 885.978 7
-4 -8 8 2597.15 1297.85 10
-4 -8 7 714.195 647.737 10
4 8 -7 2256.34 978.614 2
-4 -8 6 740.121 737.668 10
4 8 -6 218.054 356.982 2
-4 -8 5 322.412 593.985 10
4 8 -5 -309.583 380.345 2
-4 -8 4 6944.09 1725.60 10
4 8 -4 9014.81 1497.98 2
4 8 -4 8150.60 1442.73 1
4 8 -3 3118.48 979.104 1
4 8 -3 3944.15 1036.04 2
4 8 -2 -698.392 530.873 1
4 8 -2 -688.508 550.880 2
4 8 -1 1019.96 628.583 2
4 8 -1 -395.302 563.467 1
4 8 0 -10.9861 393.173 1
4 8 0 74.0129 387.246 2
4 8 1 43617.2 3595.47 1
4 8 1 41828.8 3156.09 2
4 8 2 1596.21 696.777 1
4 8 2 2521.16 808.369 2
4 8 3 2220.15 695.307 2
4 8 3 4540.65 1401.85 1
4 8 4 1498.33 930.845 7
4 8 4 673.520 545.363 1
4 8 4 110.887 259.877 2
4 8 5 4857.53 1047.86 2
4 8 5 5828.25 1247.73 1
4 8 5 5984.82 1549.39 7
4 8 6 21036.2 2491.08 1
4 8 6 18542.9 2814.46 7
4 8 7 9944.85 2155.20 7
4 8 7 12047.4 1887.63 1
4 8 8 7133.39 1917.77 7
4 8 9 987.217 720.667 7
4 8 10 2078.83 1288.74 7
4 8 11 283.217 713.104 7
-4 -9 7 -481.433 497.795 10
-4 -9 6 6463.79 1945.25 10
4 9 -6 10065.3 1945.07 2
-4 -9 5 3573.84 1516.06 10
4 9 -5 5371.26 1298.14 2
-4 -9 4 -837.058 747.037 10
4 9 -4 -459.142 540.141 1
4 9 -4 656.003 485.732 2
4 9 -3 2251.00 839.624 1
4 9 -3 3116.38 1007.08 2
4 9 -2 141.282 446.294 2
4 9 -2 30.7932 428.228 1
4 9 -1 2212.43 814.426 2
4 9 -1 2227.16 702.822 1
4 9 0 9837.64 1781.16 1
4 9 0 8351.47 1551.57 2
4 9 1 2762.77 957.094 1
4 9 1 1626.95 694.316 2
4 9 2 2764.58 879.144 1
4 9 2 3045.14 883.852 2
4 9 3 784.519 675.185 1
4 9 3 176.693 390.998 2
4 9 4 285.477 694.237 7
4 9 4 905.419 391.784 1
4 9 4 1219.28 560.123 2
4 9 5 6977.25 1820.00 7
4 9 5 7801.40 1682.95 1
4 9 6 2899.09 934.179 1
4 9 6 1465.22 950.191 7
4 9 7 3016.74 1133.52 1
4 9 7 2350.02 1149.89 7
4 9 8 1869.06 991.064 7
4 9 9 3836.25 1612.50 7
4 9 10 480.383 738.756 7
-4 -10 6 152.199 757.453 10
4 10 -6 448.950 444.592 2
-4 -10 5 890.514 904.006 10
4 10 -5 77.6737 381.626 2
4 10 -4 2556.25 977.122 2
4 10 -4 1870.98 745.818 1
-4 -10 4 1117.31 957.308 10
4 10 -3 -325.970 355.600 1
4 10 -3 -1001.68 506.745 2
4 10 -2 1263.70 719.740 1
4 10 -2 607.272 673.387 2
4 10 -1 365.342 605.615 1
4 10 -1 -15.0935 338.103 2
4 10 0 641.849 612.682 1
4 10 0 314.458 434.411 2
4 10 1 2866.61 1109.94 1
4 10 1 2801.89 908.233 2
4 10 2 5983.64 1454.78 1
4 10 2 4388.80 1104.02 2
4 10 3 1570.97 801.123 1
4 10 3 212.296 404.116 2
4 10 4 101.772 358.032 1
4 10 5 -765.689 608.471 1
4 10 5 -792.906 533.936 7
4 10 6 334.201 392.725 1
4 10 6 2369.51 1245.33 7
4 10 7 3850.09 1123.33 1
4 10 7 4185.36 1596.64 7
4 10 8 4078.33 1741.23 7
4 10 9 20.0655 639.226 7
-4 -11 4 1487.77 1070.67 10
4 11 -4 1000.83 640.126 2
4 11 -3 345.440 458.999 2
4 11 -3 -126.196 311.786 1
4 11 -2 345.865 372.993 2
4 11 -2 -381.893 294.303 1
4 11 -1 1139.93 646.285 1
4 11 -1 1039.68 633.029 2
4 11 0 1354.65 829.342 1
4 11 0 441.375 440.517 2
4 11 1 7622.91 1750.25 1
4 11 1 4593.49 1143.66 2
4 11 2 2431.17 1017.83 1
4 11 2 1704.54 707.647 2
4 11 3 260.898 532.595 1
4 11 4 -619.465 577.128 1
4 11 5 403.379 585.215 1
4 11 6 3278.37 1115.62 1
4 11 7 3029.83 1391.82 7
4 12 -2 -585.189 433.388 2
4 12 -2 -775.879 599.178 1
4 12 -1 274.041 425.383 2
4 12 -1 964.378 771.121 1
4 12 0 2494.87 942.466 2
4 12 0 3514.89 1415.30 1
4 12 1 468.375 420.663 2
4 12 1 983.803 709.849 1
4 12 2 717.521 677.258 1
4 12 3 1070.51 782.672 1
4 12 4 1148.27 808.139 1
4 12 5 438.687 664.004 1
4 12 6 -1138.84 774.039 1
-5 10 2 -795.264 1004.60 6
-5 10 1 -669.706 676.943 4
-5 10 1 2205.68 1122.24 6
-5 10 0 419.187 616.208 4
-5 10 0 1654.32 1127.67 6
-5 10 -1 1508.02 871.273 4
-5 10 -1 2221.51 1097.15 6
-5 10 -2 4294.98 1333.46 4
-5 10 -2 2215.50 963.542 6
-5 10 -3 -752.153 833.530 4
-5 10 -3 -576.146 440.620 6
-5 10 -4 3716.48 1316.80 4
5 -10 4 3404.01 1411.58 8
-5 10 -5 7401.99 1972.38 4
5 -10 5 5213.42 1806.62 8
-5 10 -6 2715.84 1330.80 4
5 -10 6 2927.86 1531.19 8
-5 9 4 2550.06 1177.71 6
-5 9 4 3079.83 1299.68 12
-5 9 3 1486.41 802.792 6
-5 9 3 1166.71 837.124 12
-5 9 2 11359.3 2229.16 6
-5 9 2 8114.71 1952.28 12
-5 9 1 890.901 683.552 4
-5 9 1 -99.0042 575.716 6
-5 9 0 39.3793 449.061 4
-5 9 -1 5321.99 1576.50 4
-5 9 -2 2262.06 1011.01 4
-5 9 -3 17170.2 2756.18 4
-5 9 -4 110.395 435.828 4
5 -9 4 39.1305 575.467 8
-5 9 -5 1713.76 873.624 4
5 -9 5 1845.04 1103.45 8
-5 9 -6 2636.49 1193.49 4
5 -9 6 2674.07 1188.34 8
5 -9 7 5357.22 1727.85 10
-5 9 -7 8431.95 1952.21 4
5 -9 7 8472.60 2444.22 8
-5 9 -8 8730.62 2147.81 4
5 -9 8 7034.26 2205.70 8
-5 8 5 802.278 882.836 6
-5 8 5 -200.849 848.317 12
-5 8 4 1861.26 885.874 6
-5 8 4 1512.44 861.098 12
-5 8 3 3303.27 1133.42 6
-5 8 3 2642.99 1259.20 12
-5 8 2 11109.3 2298.75 4
-5 8 2 6003.20 1564.15 12
-5 8 1 4616.26 1558.08 4
-5 8 1 4162.37 1316.76 12
-5 8 0 13249.0 2279.26 4
-5 8 0 8762.42 1807.80 12
-5 8 -1 455.178 482.634 4
-5 8 -2 3444.37 1126.89 4
-5 8 -3 28746.5 3495.86 4
5 -8 3 24114.3 3227.21 8
-5 8 -4 6597.31 1643.42 4
5 -8 4 4012.68 1412.74 8
-5 8 -5 37437.5 3957.81 4
5 -8 5 34169.0 4102.10 8
5 -8 6 2313.06 984.731 10
-5 8 -6 4533.00 1447.97 4
5 -8 6 2843.60 1291.99 8
5 -8 7 6358.31 1764.39 10
-5 8 -7 9591.78 2073.57 4
5 -8 7 8424.65 2217.87 8
-5 8 -8 17858.8 3032.92 4
5 -8 8 16352.8 3221.11 8
-5 8 -9 3506.82 1266.36 4
5 -8 9 3772.27 1580.49 8
-5 7 6 1112.45 747.339 6
-5 7 6 3341.51 1496.08 12
-5 7 5 2933.88 1185.18 6
-5 7 5 3598.42 1457.34 12
-5 7 4 5357.51 1476.06 6
-5 7 4 2520.42 1084.48 12
-5 7 3 3649.94 1376.72 12
-5 7 2 2840.99 927.097 4
-5 7 2 1868.03 1056.67 12
-5 7 1 43663.2 3961.51 4
-5 7 1 29825.3 3293.44 12
-5 7 0 16854.6 2481.49 4
-5 7 0 13159.1 2055.46 12
-5 7 -1 9931.73 1837.65 4
-5 7 -1 11558.7 1968.20 5
-5 7 -2 487.993 711.476 4
5 -7 2 2058.16 739.971 8
-5 7 -2 1043.93 476.795 5
-5 7 -3 1328.60 1031.30 4
5 -7 3 -663.509 705.312 8
-5 7 -3 540.125 499.584 5
-5 7 -4 58949.7 4628.59 4
-5 7 -4 48383.5 3725.39 5
5 -7 4 54896.9 4696.57 8
-5 7 -5 22382.4 2952.39 4
5 -7 5 16249.7 2448.23 10
5 -7 5 17857.4 2846.14 8
-5 7 -5 15471.7 2035.16 5
5 -7 6 2084.62 974.463 10
-5 7 -6 1191.18 707.978 4
5 -7 6 2847.22 1256.37 8
5 -7 7 475.753 483.242 10
-5 7 -7 1054.40 836.321 4
5 -7 7 -1168.14 1120.77 8
-5 7 -8 7554.59 1865.61 4
5 -7 8 6899.97 1953.42 8
-5 7 -9 22701.2 3190.86 4
5 -7 9 20108.9 3566.46 8
-5 7 -10 7944.09 1898.94 4
5 -7 10 7673.01 2287.94 8
-5 6 7 836.518 982.013 12
-5 6 6 1006.43 899.600 6
-5 6 6 508.461 591.468 12
-5 6 5 7044.97 1557.84 6
-5 6 5 4884.99 1558.59 12
-5 6 4 1489.50 954.784 12
-5 6 3 13105.4 2346.01 12
-5 6 2 4.50083 545.009 12
-5 6 2 939.090 660.486 4
-5 6 1 5026.75 1324.13 12
-5 6 1 7468.59 1586.44 4
-5 6 1 7171.41 1529.46 5
-5 6 0 11174.6 1866.90 5
-5 6 0 11568.2 1856.14 4
-5 6 -1 24036.4 2630.79 4
-5 6 -1 23935.2 2655.91 5
-5 6 -2 16260.9 2216.37 4
5 -6 2 18115.4 2329.30 8
-5 6 -2 16251.4 2099.23 5
5 -6 3 477.345 381.758 8
-5 6 -3 -156.591 381.382 5
-5 6 -4 32643.6 3287.41 4
5 -6 4 27174.5 2679.28 10
5 -6 4 31783.8 3358.76 8
-5 6 -4 28339.4 2657.85 5
-5 6 -5 8112.50 1456.97 5
5 -6 5 7880.14 1613.03 10
-5 6 -5 10907.6 2023.29 4
5 -6 5 8993.86 1951.14 8
5 -6 6 87515.9 5663.67 10
-5 6 -6 110596. 6393.10 4
5 -6 6 104952. 6773.65 8
-5 6 -6 83123.2 4336.00 5
-5 6 -7 6392.62 1521.91 4
5 -6 7 7152.08 1877.66 8
-5 6 -8 -1068.45 817.052 4
5 -6 8 114.728 422.438 8
-5 6 -9 11621.1 2146.47 4
5 -6 9 10782.8 2398.44 8
-5 6 -10 1857.95 1109.18 4
5 -6 10 -160.407 528.489 8
-5 6 -11 15375.0 2695.09 4
5 -6 11 15001.2 3148.76 8
-5 5 8 4218.17 1757.96 12
-5 5 7 549.730 681.026 12
-5 5 6 1924.05 850.837 6
-5 5 6 1457.58 869.831 12
-5 5 5 7.45993 640.485 12
-5 5 4 6223.85 1673.30 12
-5 5 3 40660.8 4041.48 12
-5 5 2 2658.24 1120.60 4
-5 5 2 1140.43 384.525 5
-5 5 1 34129.4 3097.62 4
-5 5 1 31706.1 2944.50 5
-5 5 0 12746.0 1943.54 4
-5 5 0 14466.5 2102.03 5
-5 5 -1 25778.7 2679.93 4
5 -5 1 21287.9 2213.81 8
-5 5 -1 24373.4 2436.83 5
-5 5 -2 52140.4 3690.99 11
-5 5 -2 62608.3 4185.44 4
5 -5 2 58277.9 3915.08 8
-5 5 -2 59102.5 3746.67 5
5 -5 3 -295.890 245.536 10
-5 5 -3 -136.470 424.899 4
-5 5 -3 77.9922 321.341 11
5 -5 3 -206.847 393.600 8
-5 5 -3 -495.282 424.554 5
-5 5 -4 16192.0 1824.56 11
5 -5 4 20392.6 2233.18 10
5 -5 4 23551.3 2768.18 8
-5 5 -4 25372.7 2753.24 4
-5 5 -4 19912.1 2131.06 5
5 -5 5 17971.6 2188.91 10
-5 5 -5 23675.0 2755.92 4
5 -5 5 20655.4 2682.07 8
-5 5 -5 17560.0 1957.50 5
-5 5 -6 22552.2 2161.85 5
-5 5 -6 28653.9 2950.74 4
5 -5 6 28132.1 3373.65 8
-5 5 -7 14763.9 2182.04 4
5 -5 7 13552.0 2436.99 8
-5 5 -8 9436.85 1800.62 4
5 -5 8 8823.84 2175.20 8
5 -5 9 3749.19 1570.94 8
5 -5 10 5838.18 1849.49 8
5 -5 11 6499.64 2067.78 8
5 -5 12 1212.46 1368.23 8
-5 4 8 1349.68 1192.64 12
-5 4 7 7602.89 2153.38 12
-5 4 6 4974.92 1258.73 6
-5 4 6 5255.28 1484.27 12
-5 4 5 4876.35 1521.40 12
-5 4 4 8160.38 1821.99 12
-5 4 3 2531.80 893.479 5
-5 4 2 47553.5 3504.36 5
-5 4 1 25698.4 2479.70 4
5 -4 -1 18992.5 2191.27 13
-5 4 1 25853.5 2617.34 5
-5 4 0 13190.9 1858.67 4
5 -4 0 11571.2 1403.98 9
5 -4 0 11093.0 1542.51 13
-5 4 0 12648.4 1757.87 5
-5 4 -1 862.445 438.694 11
-5 4 -1 731.571 427.113 4
5 -4 1 496.030 407.361 9
5 -4 1 115.351 328.471 8
-5 4 -1 1019.22 621.572 5
-5 4 -2 982.896 474.655 11
-5 4 -2 1183.63 600.789 4
5 -4 2 1023.61 649.410 8
-5 4 -3 55926.9 3440.62 11
-5 4 -3 68240.4 4031.51 4
5 -4 3 67155.8 4168.70 8
-5 4 -4 37245.8 3094.04 4
5 -4 4 39458.6 3410.35 8
-5 4 -4 31378.3 2167.56 3
-5 4 -4 31247.1 2564.21 11
-5 4 -5 2197.79 740.666 11
-5 4 -5 3397.69 988.532 4
5 -4 5 2790.57 1118.49 8
-5 4 -5 2532.58 607.502 3
-5 4 -6 21648.0 2374.27 4
5 -4 6 18506.8 2692.43 8
-5 4 -6 18019.4 1739.15 3
5 -4 7 29075.7 3375.32 8
-5 4 -7 29628.5 2469.67 3
5 -4 8 7850.43 1759.28 8
-5 4 -8 9116.54 1449.28 3
5 -4 9 923.315 659.957 8
-5 4 -9 1735.19 638.306 3
5 -4 10 2623.08 1243.25 8
-5 4 -10 3699.44 1084.85 3
5 -4 11 4307.20 1540.95 8
-5 4 -11 4934.95 1437.64 3
-5 4 -12 9797.95 1863.10 3
-5 4 -13 -956.277 739.597 3
5 -3 -9 3252.31 1665.95 13
-5 3 9 444.523 943.106 12
5 -3 -8 421.776 524.900 3
-5 3 8 2107.88 1462.42 12
5 -3 -7 6065.78 1329.09 3
-5 3 7 3196.53 1243.23 12
-5 3 6 1308.16 916.461 12
-5 3 5 2265.57 993.801 12
-5 3 4 10494.7 1995.23 12
-5 3 4 9945.87 1658.23 5
-5 3 3 -217.290 456.307 5
5 -3 -2 30575.5 2875.47 13
-5 3 2 40873.7 3042.00 5
5 -3 -1 1089.87 418.995 13
-5 3 1 2073.58 597.120 5
5 -3 -1 1629.04 527.362 9
-5 3 0 48438.7 3630.86 11
-5 3 0 54737.9 3351.51 4
5 -3 0 49761.0 2841.07 9
5 -3 0 46077.9 3003.31 13
-5 3 -1 3185.09 948.756 11
-5 3 -1 3348.92 816.617 4
5 -3 1 2629.22 631.652 13
5 -3 1 3668.34 879.894 9
-5 3 -2 1166.68 540.862 11
-5 3 -2 1636.77 536.072 4
5 -3 2 923.427 416.964 8
5 -3 2 1954.72 553.588 13
-5 3 -3 14225.1 1784.53 11
-5 3 -3 12510.7 1593.18 4
5 -3 3 15246.8 1850.93 8
-5 3 -3 13292.3 1391.00 3
-5 3 -4 5597.00 1168.65 4
5 -3 4 6329.63 1311.79 8
-5 3 -4 6284.00 1040.00 3
-5 3 -5 53535.0 3565.62 4
5 -3 5 59334.9 4147.74 8
-5 3 -5 50852.0 2824.13 3
5 -3 6 -36.8160 467.633 8
-5 3 -6 129.425 357.891 3
5 -3 7 13411.4 2350.13 8
-5 3 -7 9634.11 1454.32 3
5 -3 8 594.114 622.630 8
-5 3 -8 765.319 468.402 3
5 -3 9 1024.13 924.041 8
-5 3 -9 -241.407 504.476 3
5 -3 10 6688.77 1949.92 8
-5 3 -10 7332.92 1489.57 3
-5 3 -11 2964.52 1009.89 3
-5 3 -12 2286.78 908.148 3
-5 3 -13 -124.639 442.742 3
5 -2 -9 581.344 614.824 13
-5 2 9 1539.20 1187.22 12
5 -2 -8 4155.15 1254.11 3
-5 2 8 3237.41 1349.07 7
5 -2 -8 1699.28 1229.81 13
-5 2 8 1535.66 1131.92 12
-5 2 7 3385.81 1252.37 7
-5 2 7 3295.81 1356.90 12
-5 2 6 255.832 404.835 7
-5 2 6 456.280 762.640 12
-5 2 5 1863.68 878.909 7
-5 2 5 1823.28 942.798 12
-5 2 4 3760.42 905.626 7
-5 2 4 3638.25 890.214 5
-5 2 3 19471.2 1975.26 7
-5 2 3 19948.4 2064.87 5
-5 2 2 15410.9 1884.06 5
-5 2 2 13855.5 1388.15 7
5 -2 -2 12263.2 1831.30 13
-5 2 1 9444.86 1559.83 11
-5 2 1 7960.82 1267.41 4
5 -2 -1 7832.11 1151.54 9
5 -2 -1 7896.03 1331.36 13
-5 2 0 3832.14 520.685 11
-5 2 0 5872.74 1011.24 4
5 -2 0 6028.65 1068.69 9
5 -2 0 5505.35 1001.36 13
-5 2 -1 1982.09 871.913 11
-5 2 -1 1084.05 555.913 4
5 -2 1 670.935 357.367 13
5 -2 1 630.810 434.625 9
-5 2 -2 302.378 406.899 11
-5 2 -2 287.203 346.298 4
5 -2 2 -257.110 548.918 9
5 -2 2 -181.590 391.154 13
-5 2 -3 4976.12 976.102 4
5 -2 3 6075.07 1144.09 8
-5 2 -3 4204.94 824.000 3
-5 2 -4 20350.4 1954.64 4
5 -2 4 20746.4 2241.51 8
-5 2 -4 17392.1 1603.91 3
-5 2 -5 3778.55 782.812 4
-5 2 -5 2860.83 613.075 3
5 -2 6 31448.9 3057.49 8
-5 2 -6 29836.3 2370.04 3
5 -2 7 22244.6 2862.60 8
-5 2 -7 23811.4 2306.97 3
5 -2 8 8085.23 1839.79 8
-5 2 -8 7338.79 1346.06 3
-5 2 -9 646.664 385.506 3
-5 2 -10 373.752 586.121 3
-5 2 -11 16663.2 2461.79 3
-5 2 -12 4383.33 1355.98 3
-5 2 -13 1796.48 997.666 3
5 -1 -9 3731.97 1250.78 3
-5 1 9 2518.81 1265.90 7
5 -1 -9 1198.76 1144.34 13
-5 1 9 -345.445 672.695 12
5 -1 -8 -91.4639 325.110 3
-5 1 8 2126.94 1265.94 7
5 -1 -8 -1053.01 1051.58 13
-5 1 8 974.051 676.946 12
-5 1 7 3640.48 1431.01 7
5 -1 -7 740.819 895.473 13
-5 1 7 2375.74 1136.72 12
-5 1 6 5049.86 1313.47 7
5 -1 -6 3308.81 1281.74 13
-5 1 6 4475.23 1488.00 12
-5 1 5 557.668 450.556 12
-5 1 5 -109.122 579.510 7
-5 1 4 3478.70 966.337 7
5 -1 -4 1796.01 837.536 13
-5 1 4 2444.46 722.534 5
-5 1 3 530.234 477.669 5
-5 1 3 364.548 480.705 7
5 -1 -3 -603.303 733.832 13
-5 1 2 12282.0 1939.44 11
-5 1 2 10937.1 1373.07 7
5 -1 -2 9523.82 1524.79 13
-5 1 1 35360.6 2793.86 11
5 -1 -1 36397.5 2508.54 9
-5 1 1 32817.7 1934.10 7
5 -1 -1 36475.3 2799.88 13
-5 1 0 69376.8 3250.89 4
-5 1 0 67855.1 3821.82 11
5 -1 0 72476.1 3540.81 9
-5 1 0 66470.2 2119.44 7
5 -1 0 68740.6 3747.70 13
-5 1 -1 3057.95 852.411 11
-5 1 -1 2474.97 545.239 4
5 -1 1 2758.89 713.866 9
5 -1 1 2388.92 614.198 13
-5 1 -2 17482.0 1542.72 4
5 -1 2 17552.5 1680.86 9
5 -1 2 18040.9 1757.03 13
-5 1 -3 533.096 393.761 4
-5 1 -3 35.0812 374.340 3
-5 1 -4 82740.9 3646.39 4
-5 1 -4 84789.5 3566.13 3
-5 1 -5 96586.9 3980.45 3
-5 1 -6 19704.0 1931.64 3
5 -1 6 17518.5 1606.72 7
-5 1 -7 13160.3 1627.21 3
5 -1 7 13353.2 1587.20 7
-5 1 -8 13079.2 1841.43 3
5 -1 8 14105.2 1900.32 7
5 -1 9 5680.79 1284.12 7
-5 1 -9 6478.76 1470.23 3
-5 1 -10 15567.8 2247.16 3
5 -1 10 11473.0 2073.60 7
-5 1 -11 1609.94 953.044 3
5 -1 11 1227.42 1025.99 7
-5 1 -12 4511.73 1332.39 3
-5 1 -13 3922.23 1343.03 3
5 0 -9 1464.97 878.527 3
-5 0 9 1113.94 1181.89 7
5 0 -9 -930.451 1038.74 13
-5 0 8 6193.18 1863.34 7
5 0 -8 4963.57 1656.30 13
-5 0 8 4412.50 1356.13 12
-5 0 7 15500.5 2598.74 7
5 0 -7 10596.8 2239.38 13
-5 0 7 10763.2 2041.51 12
5 0 -6 740.961 829.391 13
-5 0 6 233.642 546.967 7
-5 0 6 269.124 661.320 12
-5 0 5 853.737 510.060 12
5 0 -5 42.4351 585.878 13
5 0 -4 970.616 836.788 13
-5 0 4 1641.78 545.236 5
5 0 -3 15563.1 2159.07 13
-5 0 2 115728. 5340.07 11
5 0 -2 111419. 3468.57 2
5 0 -2 115078. 5536.62 13
-5 0 1 6839.83 1276.98 11
5 0 -1 6448.57 1189.95 9
5 0 -1 7277.60 964.470 2
5 0 -1 6994.52 1320.16 13
-5 0 0 8578.22 1672.50 11
5 0 0 5831.30 1046.30 9
5 0 0 5128.67 1047.06 13
-5 0 -1 5180.57 785.166 4
5 0 1 6256.69 1089.13 9
5 0 1 5133.19 979.103 13
-5 0 -2 12185.4 1098.27 4
5 0 2 15477.7 1681.06 9
-5 0 -2 13781.2 1547.29 3
5 0 2 13920.9 1658.97 13
-5 0 -3 57092.3 2503.30 4
-5 0 -3 63537.8 3050.27 3
-5 0 -4 1557.08 379.768 4
5 0 4 1458.25 312.544 7
-5 0 -4 1934.74 554.943 3
-5 0 -5 12401.6 1522.89 3
5 0 5 10273.9 1043.56 7
-5 0 -6 9192.88 1455.30 3
5 0 6 5451.71 959.223 7
-5 0 -7 130325. 5435.59 3
5 0 7 119744. 5095.91 7
5 0 8 1241.10 809.702 7
-5 0 -8 195.555 746.407 3
5 0 9 10607.6 1953.89 7
-5 0 -9 10140.1 1655.06 3
5 0 10 3614.48 1268.47 7
-5 0 -10 3800.21 1160.56 3
-5 0 -11 50.0403 411.478 3
5 0 11 1291.59 1162.01 7
-5 0 -12 27074.0 3329.62 3
5 0 12 25979.0 3704.31 7
5 0 13 -662.155 1179.72 7
-5 0 -13 -519.527 605.399 3
5 1 -9 5015.19 1312.90 3
-5 -1 9 5720.44 1844.70 7
5 1 -9 4628.95 1724.24 13
-5 -1 8 6237.80 1864.64 7
5 1 -8 2933.96 1162.12 13
5 1 -7 1374.44 903.984 13
-5 -1 7 1537.44 776.223 12
5 1 -6 1012.32 956.099 13
-5 -1 6 -267.560 532.666 12
5 1 -5 11073.0 2071.58 13
-5 -1 5 9579.26 1687.97 12
5 1 -4 2050.47 963.767 13
5 1 -3 18745.4 1595.89 2
5 1 -3 16028.5 2206.75 13
-5 -1 2 13361.5 1770.94 11
5 1 -2 13034.8 1212.44 2
5 1 -2 13339.4 1934.74 13
5 1 -1 1717.24 522.432 2
5 1 -1 1413.25 486.829 9
5 1 -1 1272.07 771.573 13
-5 -1 1 996.604 396.538 11
-5 -1 0 212470. 6774.95 11
5 1 0 215221. 6177.69 9
5 1 0 194839. 6085.47 13
5 1 1 23956.0 2143.19 9
5 1 1 19041.1 1929.37 13
-5 -1 -2 306.502 217.431 4
5 1 2 -637.290 677.942 9
5 1 2 -693.779 540.716 13
-5 -1 -3 1934.11 419.861 4
-5 -1 -3 537.681 610.874 3
-5 -1 -4 9004.91 954.066 4
-5 -1 -4 10360.0 1200.51 3
5 1 4 9918.98 1040.97 7
-5 -1 -5 117303. 4468.17 3
5 1 5 106926. 3856.52 7
-5 -1 -6 23308.1 2162.15 3
5 1 6 19130.7 1824.41 7
-5 -1 -7 1722.47 815.247 3
5 1 7 1955.67 903.368 7
-5 -1 -8 22370.3 2426.67 3
5 1 8 21727.2 2425.29 7
-5 -1 -9 57071.9 4158.92 3
5 1 9 51577.0 4284.83 7
-5 -1 -10 40133.0 3698.46 3
5 1 10 33776.2 3667.76 7
5 1 11 4849.73 1564.58 7
-5 -1 -11 5900.38 1561.09 3
5 1 12 1134.08 991.956 7
-5 -1 -12 346.918 518.454 3
-5 -1 -13 4265.93 1412.63 3
5 1 13 3866.89 1780.24 7
5 1 14 6256.78 2146.79 7
5 2 -9 2350.91 988.097 3
-5 -2 9 1820.84 1262.73 7
5 2 -9 1943.72 1206.73 13
5 2 -8 323.318 630.216 13
5 2 -7 16791.9 2793.24 13
5 2 -6 23374.5 3118.58 13
-5 -2 5 3253.11 987.438 12
5 2 -5 3701.98 1187.96 13
5 2 -4 32322.8 3391.69 13
5 2 -4 30634.3 2183.45 2
-5 -2 3 517.872 381.198 10
5 2 -3 -82.9224 404.605 2
5 2 -3 -674.417 659.760 13
-5 -2 2 43995.5 3061.31 11
5 2 -2 48196.7 2632.44 2
5 2 -2 49094.5 3723.12 13
-5 -2 1 133475. 5219.98 11
5 2 -1 139547. 4581.01 2
5 2 -1 132046. 5612.97 13
5 2 0 12466.1 1249.94 9
5 2 0 13549.3 1723.41 13
5 2 1 117909. 4483.40 9
5 2 1 111774. 5016.51 13
5 2 2 31890.5 2179.32 9
5 2 2 30906.9 2679.26 13
5 2 3 1310.48 438.792 7
-5 -2 -3 -633.596 987.076 3
-5 -2 -4 76873.3 2167.17 4
-5 -2 -4 88588.1 3733.74 3
5 2 4 83050.7 3441.43 7
5 2 5 63.4641 411.592 7
-5 -2 -5 -2359.37 952.798 3
-5 -2 -6 40081.4 2778.11 3
5 2 6 37559.5 2688.02 7
-5 -2 -7 62999.7 3780.02 3
5 2 7 53564.9 3582.56 7
-5 -2 -8 33437.4 2966.18 3
5 2 8 27571.3 2836.85 7
-5 -2 -9 15695.3 2121.88 3
5 2 9 15974.9 2360.28 7
-5 -2 -10 15993.1 2350.30 3
5 2 10 13938.9 2409.37 7
-5 -2 -11 10412.5 1959.62 3
5 2 11 8951.99 2133.34 7
5 2 12 6970.47 1907.76 7
-5 -2 -12 8717.34 2014.73 3
-5 -2 -13 11700.8 2332.21 3
5 2 13 5995.86 1943.48 7
5 2 14 -871.762 1085.43 7
5 3 -9 181.622 441.248 13
5 3 -9 393.328 422.934 3
5 3 -8 18464.2 3101.49 13
5 3 -7 -1365.60 1040.51 13
5 3 -6 1498.02 983.143 13
5 3 -5 597.132 383.583 2
5 3 -5 838.191 636.768 13
-5 -3 4 11925.3 1615.46 10
5 3 -4 15325.0 1643.10 2
5 3 -4 13048.2 2069.27 13
5 3 -3 48341.6 2919.19 2
5 3 -3 47694.1 3870.94 13
-5 -3 2 739.069 539.118 11
5 3 -2 461.417 461.930 13
5 3 -2 9.90936 315.847 2
-5 -3 1 -445.204 417.908 11
5 3 -1 701.665 486.420 2
5 3 -1 113.090 599.987 13
5 3 0 1277.45 571.331 2
5 3 0 -102.862 554.008 9
5 3 0 1077.88 617.824 13
5 3 1 222990. 6397.66 9
5 3 1 225122. 7529.11 13
5 3 2 27180.0 2212.56 9
5 3 2 27425.6 2722.63 13
5 3 3 10288.0 1337.42 9
-5 -3 -3 11887.4 1497.04 3
5 3 3 8844.43 1202.38 7
5 3 4 3323.17 692.422 9
5 3 4 2555.65 681.027 7
-5 -3 -4 3298.03 642.417 3
5 3 5 5461.13 1024.96 9
5 3 5 4896.02 1041.81 7
-5 -3 -5 3536.99 788.404 3
5 3 6 243016. 7156.14 9
-5 -3 -6 255155. 7155.91 3
5 3 6 239155. 7464.54 7
5 3 7 4823.99 1176.88 7
-5 -3 -7 6870.89 1247.40 3
-5 -3 -8 26995.5 2681.05 3
5 3 8 27713.0 2961.92 7
-5 -3 -9 2176.49 1200.18 3
5 3 9 2038.50 1022.38 7
-5 -3 -10 11720.1 1987.22 3
5 3 10 10828.9 2201.47 7
-5 -3 -11 54113.6 4536.55 3
5 3 11 50399.4 5142.57 7
5 3 12 1547.51 1176.22 7
-5 -3 -12 -172.499 419.684 3
5 3 13 794.053 605.094 7
-5 -3 -13 3382.42 1347.37 3
5 4 -9 1767.65 808.950 3
5 4 -9 2543.90 1224.28 13
5 4 -8 4179.59 1539.76 13
5 4 -7 925.305 518.881 13
5 4 -6 39947.6 4206.71 13
5 4 -6 47176.6 3306.47 2
5 4 -5 939.564 464.880 2
5 4 -5 581.170 685.888 13
-5 -4 4 5166.08 1094.63 10
5 4 -4 8423.08 1294.10 2
5 4 -4 5625.86 1389.52 13
5 4 -3 42620.4 2879.21 2
5 4 -3 35540.7 3214.91 13
-5 -4 2 20874.1 2017.64 11
5 4 -2 27575.5 2276.64 2
5 4 -2 24420.8 2604.05 13
-5 -4 1 90563.2 4329.66 11
5 4 -1 104183. 5324.19 13
5 4 -1 105906. 4300.71 2
5 4 0 19628.5 1962.16 2
5 4 0 17268.0 2257.68 13
5 4 1 2337.93 676.553 9
5 4 1 2119.12 569.061 2
5 4 1 2662.52 920.895 13
5 4 2 49364.0 3018.10 9
5 4 2 53806.1 3388.10 2
5 4 3 60302.2 3266.67 9
-5 -4 -3 62259.4 3422.01 3
5 4 3 57103.7 3361.06 7
5 4 4 43293.8 2736.33 9
-5 -4 -4 46846.4 2997.99 3
5 4 4 40686.8 2883.81 7
5 4 5 53660.4 3223.13 9
-5 -4 -5 53282.8 3216.29 3
5 4 5 51827.0 3533.23 7
5 4 6 1461.26 432.328 9
5 4 6 1016.45 549.177 7
-5 -4 -6 2205.99 657.745 3
5 4 7 10530.7 1476.23 9
-5 -4 -7 11147.5 1630.08 3
5 4 7 13250.4 1969.02 7
5 4 8 51457.7 3454.15 9
-5 -4 -8 61663.5 4102.44 3
5 4 8 53974.8 4311.66 7
5 4 9 1252.04 868.923 7
-5 -4 -9 1796.07 938.022 3
5 4 10 6273.18 1663.22 7
-5 -4 -10 7009.05 1536.48 3
5 4 11 2525.39 1164.46 7
-5 -4 -11 2881.63 992.784 3
5 4 12 2636.31 1414.02 7
-5 -4 -12 2187.07 843.093 3
-5 -4 -13 9438.98 2093.45 3
5 4 13 9480.05 2484.24 7
5 5 -9 1102.12 562.561 3
5 5 -8 2388.03 1191.19 13
5 5 -7 12773.7 2420.00 13
5 5 -7 20164.2 2297.81 2
5 5 -6 9415.73 1501.41 2
5 5 -6 7450.40 1727.36 13
5 5 -5 8032.51 1726.26 13
-5 -5 5 7875.83 1719.30 10
5 5 -5 10161.6 1514.95 2
-5 -5 4 788.308 593.429 10
5 5 -4 1237.04 474.508 2
5 5 -4 1414.37 742.664 13
5 5 -3 515.022 719.363 13
5 5 -3 197.399 363.587 2
5 5 -2 46232.9 3141.83 2
5 5 -2 41049.1 3692.90 13
-5 -5 1 17819.5 1845.45 11
5 5 -1 21745.5 2600.78 13
5 5 0 8391.19 1322.48 2
5 5 0 9110.12 1635.42 13
5 5 1 62064.3 3712.15 2
5 5 2 35106.1 2675.26 9
5 5 2 40677.7 2995.20 2
5 5 3 24023.6 2161.08 9
5 5 3 24941.8 2513.92 7
5 5 4 18824.6 1920.45 9
-5 -5 -4 20786.3 2056.16 3
5 5 4 19060.6 2221.08 7
5 5 5 11267.8 1457.54 9
-5 -5 -5 13535.9 1676.33 3
5 5 5 12467.4 1923.16 7
5 5 6 20256.3 1962.18 9
-5 -5 -6 26091.6 2367.07 3
5 5 6 25670.1 2760.19 7
5 5 7 56263.9 3448.68 9
-5 -5 -7 66157.1 3990.39 3
5 5 7 65686.4 4716.75 7
5 5 8 4090.44 1168.90 7
-5 -5 -8 6540.25 1343.45 3
-5 -5 -9 16444.1 2262.35 3
5 5 9 13887.6 2540.62 7
5 5 10 3219.17 1308.94 7
-5 -5 -10 4584.27 1301.24 3
5 5 11 323.969 599.429 7
-5 -5 -11 913.231 621.384 3
-5 -5 -12 19257.0 2948.78 3
5 5 12 14829.5 3059.69 7
5 5 13 -7.65971 613.233 7
-5 -5 -13 -823.228 562.179 3
5 6 -8 1040.85 733.287 3
5 6 -7 4570.92 1140.04 2
5 6 -7 1158.06 912.185 13
-5 -6 6 490.527 518.871 10
5 6 -6 1092.94 576.882 2
5 6 -6 1280.94 985.388 13
-5 -6 5 27114.8 3330.42 10
5 6 -5 33428.5 2930.77 2
5 6 -5 29562.3 3567.68 13
-5 -6 4 6239.41 1488.08 10
5 6 -4 8325.49 1498.64 2
5 6 -4 7737.53 1741.86 13
5 6 -3 6002.08 1194.72 2
5 6 -3 4609.39 1345.73 13
5 6 -2 2039.35 938.726 13
5 6 -2 4808.59 1131.06 2
5 6 -1 1063.94 885.121 13
5 6 -1 -174.769 497.647 2
5 6 0 85297.5 4372.45 2
5 6 1 -1039.71 690.047 2
5 6 2 22188.4 2390.61 2
5 6 3 400.447 370.213 2
5 6 3 685.698 509.300 9
5 6 4 4390.37 938.639 9
5 6 4 6241.78 1385.81 2
5 6 4 7929.07 1590.39 7
-5 -6 -4 5573.99 1114.02 3
-5 -6 -5 68729.9 3879.25 3
5 6 5 65359.5 4501.32 7
5 6 6 6647.45 1551.01 7
-5 -6 -6 7444.17 1297.29 3
5 6 7 633.834 637.569 7
-5 -6 -7 434.945 373.508 3
5 6 8 708.083 918.939 7
-5 -6 -8 -258.814 438.872 3
-5 -6 -9 19096.0 2441.80 3
5 6 9 16366.3 2781.77 7
5 6 10 1299.96 1079.52 7
-5 -6 -10 1708.94 819.167 3
5 6 11 109.260 699.886 7
-5 -6 -11 -106.520 304.849 3
5 6 12 1086.96 970.080 7
5 7 -8 -413.632 521.513 3
5 7 -7 9171.27 1727.41 2
-5 -7 6 2085.97 1017.27 10
5 7 -6 3721.55 1054.82 2
-5 -7 5 1588.13 804.537 10
5 7 -5 2191.96 765.594 2
5 7 -5 1363.21 897.043 13
-5 -7 4 3649.94 1302.78 10
5 7 -4 4158.45 1377.30 13
5 7 -4 4213.28 1042.05 2
5 7 -3 1043.59 899.685 13
5 7 -3 519.739 557.184 2
5 7 -3 65.6706 340.533 1
5 7 -2 13874.6 1893.58 2
5 7 -2 8990.24 1926.85 13
5 7 -1 15413.0 2021.90 2
5 7 0 7220.21 1399.68 2
5 7 1 2561.30 942.806 2
5 7 2 39388.5 3082.57 2
5 7 3 783.366 526.151 2
5 7 4 1976.21 724.180 2
5 7 4 1727.83 820.242 7
5 7 5 -264.795 393.132 2
-5 -7 -5 209.063 255.078 3
5 7 6 -549.914 543.421 2
5 7 6 -162.587 680.646 7
-5 -7 -6 -43.5190 368.904 3
5 7 7 32783.2 3208.13 1
5 7 7 25383.3 3350.67 7
5 7 7 36699.7 3492.20 2
5 7 8 10970.7 2265.67 7
5 7 9 -478.623 600.569 7
5 7 10 2040.48 1170.37 7
5 7 11 171.586 505.767 7
5 7 12 2733.62 1440.29 7
-5 -8 7 968.086 1172.40 10
5 8 -7 1363.30 706.398 2
-5 -8 6 -65.9718 428.483 10
5 8 -6 1640.51 772.308 2
-5 -8 5 3303.70 1305.45 10
5 8 -5 6980.84 1413.90 2
-5 -8 4 1888.18 824.988 10
5 8 -4 3566.53 1039.36 2
5 8 -3 539.519 454.702 1
5 8 -3 795.111 553.382 2
5 8 -2 928.015 696.665 1
5 8 -2 146.185 307.859 2
5 8 -1 -55.9293 677.512 1
5 8 -1 -135.892 498.108 2
5 8 0 9076.78 1577.63 2
5 8 0 9382.50 1656.46 1
5 8 1 16471.7 2153.99 2
5 8 1 14355.1 2068.25 1
5 8 2 1095.69 605.728 2
5 8 3 383.929 360.003 2
5 8 3 -1194.62 955.864 1
5 8 4 -453.439 562.655 2
5 8 4 292.361 602.789 1
5 8 5 973.448 674.164 1
5 8 5 385.179 458.383 2
5 8 5 2105.69 1082.86 7
5 8 6 23560.0 2884.94 1
5 8 6 21153.5 3115.49 7
5 8 6 21247.9 2485.63 2
5 8 7 5529.21 1321.45 1
5 8 7 6474.12 1740.75 7
5 8 8 387.986 669.339 7
5 8 9 1344.47 958.930 7
5 8 10 625.069 816.238 7
5 8 11 162.450 608.897 7
-5 -9 6 2172.34 1164.97 10
5 9 -6 3365.12 1159.57 2
-5 -9 5 -863.826 646.176 10
5 9 -5 3122.31 1253.05 2
-5 -9 4 431.334 565.885 10
5 9 -4 -326.284 499.901 2
5 9 -3 76.6805 482.187 2
5 9 -3 472.992 598.456 1
5 9 -2 1044.74 634.140 1
5 9 -2 568.407 472.731 2
5 9 -1 3722.48 1162.79 1
5 9 -1 3913.09 1114.14 2
5 9 0 820.128 407.818 2
5 9 0 1131.95 631.850 1
5 9 1 -1018.13 741.897 1
5 9 1 591.049 598.840 2
5 9 2 4318.04 1279.46 1
5 9 2 3574.12 1071.70 2
5 9 3 140.499 553.924 1
5 9 3 1345.50 768.863 2
5 9 4 -1228.60 629.096 2
5 9 4 -644.915 679.056 1
5 9 5 2910.05 871.613 2
5 9 5 5377.03 1397.12 1
5 9 5 2618.61 1120.12 7
5 9 6 294.644 481.606 1
5 9 6 -603.421 725.958 7
5 9 7 1241.41 848.034 7
5 9 7 5288.66 1380.23 1
5 9 8 4382.32 1612.09 7
5 9 9 7431.36 2352.74 7
5 9 10 575.553 534.244 7
-5 -10 5 1023.69 1125.68 10
5 10 -5 2040.34 846.082 2
-5 -10 4 682.049 848.100 10
5 10 -4 1533.01 801.848 2
5 10 -3 687.339 400.861 1
5 10 -3 560.375 577.743 2
5 10 -2 -328.420 630.994 1
5 10 -2 -261.907 346.072 2
5 10 -1 735.071 326.933 2
5 10 -1 501.484 578.709 1
5 10 0 6978.16 1444.34 2
5 10 0 7213.41 1689.90 1
5 10 1 1698.72 911.804 1
5 10 1 1839.32 810.881 2
5 10 2 4113.69 1255.85 1
5 10 2 4254.98 1201.47 2
5 10 3 2280.83 961.947 1
5 10 3 906.013 636.470 2
5 10 4 1775.16 996.355 1
5 10 4 2502.36 995.457 2
5 10 5 4598.48 1257.65 1
5 10 6 580.650 802.673 7
5 10 6 786.997 563.277 1
5 10 7 5004.49 1350.31 1
5 10 7 4741.87 1669.41 7
5 10 8 2180.27 1178.61 7
5 10 9 2053.99 1004.97 7
-5 -11 3 181.307 383.233 10
5 11 -3 842.568 630.967 2
5 11 -3 1818.28 920.850 1
5 11 -2 2162.86 1268.57 1
5 11 -2 469.259 455.061 2
5 11 -1 3601.80 1251.74 1
5 11 -1 1248.09 734.582 2
5 11 0 -192.677 486.935 1
5 11 0 -121.501 292.524 2
5 11 1 6963.14 1788.21 1
5 11 1 6184.12 1479.84 2
5 11 2 3295.14 1264.55 1
5 11 2 2636.30 866.284 2
5 11 3 -324.947 574.429 1
5 11 3 831.548 584.741 2
5 11 4 779.129 698.319 1
5 11 5 419.487 631.053 1
5 11 6 3358.37 1208.12 1
5 11 7 243.042 582.119 7
5 11 7 1812.02 934.785 1
5 12 -1 1364.99 826.837 1
5 12 -1 1590.79 758.612 2
5 12 0 897.477 696.029 1
5 12 0 183.017 391.094 2
5 12 1 3990.75 1369.14 1
5 12 1 3791.84 1179.96 2
5 12 2 -617.385 645.754 1
5 12 2 -97.7451 441.967 2
5 12 3 3529.71 1159.37 1
5 12 4 1112.60 780.705 1
5 12 5 -1054.40 752.671 1
-6 10 -1 407.118 445.713 4
-6 10 -1 409.087 741.534 6
-6 10 -2 10304.4 2220.03 4
-6 10 -2 11300.6 2216.48 6
-6 10 -3 939.317 695.721 4
-6 10 -3 1689.16 906.612 6
-6 10 -4 7895.53 1981.43 4
-6 9 2 3888.45 1443.87 6
-6 9 2 3603.44 1572.23 12
-6 9 1 5567.14 1606.71 4
-6 9 0 5929.53 1743.49 4
-6 9 -1 -826.599 672.947 4
-6 9 -2 -973.923 666.287 4
-6 9 -3 7214.35 1767.37 4
-6 9 -4 31096.6 3795.70 4
-6 9 -5 3189.08 1314.91 4
6 -9 5 2166.36 1272.81 8
-6 9 -6 83.7333 400.721 4
6 -9 6 2499.88 1356.18 8
-6 9 -7 1897.10 1097.42 4
6 -9 7 2595.61 1417.74 8
-6 8 4 970.164 733.185 6
-6 8 4 535.373 546.927 12
-6 8 3 6595.21 1740.06 6
-6 8 3 4085.59 1485.09 12
-6 8 2 4052.55 1414.28 12
-6 8 1 809.014 636.366 4
-6 8 1 74.9992 492.338 12
-6 8 0 14554.3 2536.01 4
-6 8 0 9295.46 1903.09 12
-6 8 -1 9312.35 2025.27 4
-6 8 -2 6277.57 1617.82 4
-6 8 -3 16416.7 2582.55 4
-6 8 -4 1169.17 783.629 4
6 -8 4 1491.91 889.452 8
-6 8 -5 36992.8 4088.77 4
6 -8 5 30762.3 4005.85 8
-6 8 -6 7060.96 1845.22 4
6 -8 6 7442.76 2084.10 8
-6 8 -7 -486.086 805.810 4
6 -8 7 -737.793 789.294 8
-6 8 -8 6284.45 1666.98 4
6 -8 8 4421.87 1749.29 8
-6 8 -9 -130.534 453.828 4
6 -8 9 1999.65 1019.00 8
-6 7 5 1803.37 1231.82 6
-6 7 5 1702.02 1108.19 12
-6 7 4 14491.9 2472.23 6
-6 7 4 7853.40 2073.43 12
-6 7 3 -558.468 718.136 12
-6 7 2 6726.13 1792.53 12
-6 7 1 437.449 629.417 12
-6 7 1 -198.827 549.783 4
-6 7 0 11413.2 2063.05 4
-6 7 0 9161.67 1885.82 12
-6 7 0 12430.2 2228.69 5
-6 7 -1 23282.5 2993.43 5
-6 7 -1 23360.4 2824.29 4
-6 7 -2 5771.82 1493.09 4
-6 7 -2 5695.12 1506.10 5
-6 7 -3 5517.97 1401.01 4
6 -7 3 4747.01 1378.44 8
-6 7 -3 5842.36 1454.58 5
-6 7 -4 1596.81 900.729 4
6 -7 4 1293.94 748.476 8
-6 7 -4 1078.56 660.125 5
-6 7 -5 49175.9 4495.38 4
-6 7 -5 39382.1 3464.38 5
6 -7 5 45947.2 4668.39 8
-6 7 -6 14236.5 2484.57 4
6 -7 6 12295.0 2585.81 8
-6 7 -6 11090.3 1840.35 5
-6 7 -7 15564.9 2636.23 4
6 -7 7 15858.9 2980.78 8
-6 7 -8 2720.89 1516.45 4
6 -7 8 2134.35 1497.71 8
-6 7 -9 3684.65 1557.75 4
6 -7 9 1036.83 1113.09 8
-6 7 -10 16263.9 2876.08 4
6 -7 10 13821.8 3077.37 8
-6 6 6 984.580 825.019 12
-6 6 5 111.722 369.038 6
-6 6 5 -565.789 585.969 12
-6 6 4 -645.428 707.810 12
-6 6 3 1776.91 1031.94 12
-6 6 2 29466.3 3614.88 12
-6 6 1 1824.27 954.683 4
-6 6 1 840.176 440.466 5
-6 6 0 1867.70 1017.52 4
-6 6 0 1598.44 885.681 5
-6 6 -1 6627.84 1459.76 4
-6 6 -1 6939.12 1474.72 5
-6 6 -2 22147.4 2823.10 4
-6 6 -2 19306.6 2406.82 5
-6 6 -3 51474.3 4234.61 4
6 -6 3 48262.4 4125.73 8
-6 6 -3 48022.4 3792.22 5
-6 6 -4 4704.15 1281.22 4
6 -6 4 4141.23 1307.65 8
-6 6 -4 4692.17 1203.99 5
-6 6 -5 3190.90 1181.44 4
6 -6 5 3292.61 1200.30 8
-6 6 -5 3110.65 963.752 5
-6 6 -6 18331.4 2655.07 4
6 -6 6 13944.9 2521.16 8
-6 6 -6 12863.9 1831.77 5
-6 6 -7 17973.0 2725.37 4
6 -6 7 16178.7 2855.95 8
-6 6 -8 6493.23 1675.76 4
6 -6 8 6539.52 1912.85 8
-6 6 -9 1920.56 1096.48 4
6 -6 9 1720.60 902.058 8
-6 6 -10 -534.324 726.932 4
6 -6 10 834.056 857.565 8
-6 6 -11 5492.61 1725.47 4
6 -6 11 2814.82 1599.35 8
6 -5 -7 -317.399 573.867 13
-6 5 6 -136.732 484.004 12
6 -5 -6 -225.339 696.465 13
6 -5 -5 -133.756 621.546 13
-6 5 5 1925.00 1166.78 12
-6 5 4 6846.97 1966.73 12
6 -5 -4 2335.46 1052.54 13
6 -5 -3 7822.81 1806.55 13
-6 5 3 15942.8 2433.48 5
-6 5 3 13252.4 2414.96 12
-6 5 2 336.791 631.749 5
-6 5 1 24237.2 2761.49 4
-6 5 1 21993.2 2645.32 5
-6 5 0 3101.58 1051.74 4
-6 5 0 2887.21 969.731 5
-6 5 -1 1196.59 1011.42 4
-6 5 -1 487.576 501.575 5
-6 5 -2 18135.4 2373.81 11
-6 5 -2 22374.3 2710.73 4
6 -5 2 16482.6 1974.38 9
6 -5 2 19640.4 2362.70 8
-6 5 -2 22585.9 2568.81 5
-6 5 -3 729.320 1097.58 4
-6 5 -3 -179.215 377.274 11
6 -5 3 -260.615 504.962 8
-6 5 -3 -405.985 611.722 5
-6 5 -4 25186.5 2606.69 11
-6 5 -4 37370.8 3369.01 4
6 -5 4 34974.7 3475.80 8
-6 5 -4 32190.0 2935.12 5
-6 5 -5 10052.2 1566.38 11
-6 5 -5 14740.7 2180.98 4
-6 5 -5 12738.6 1821.18 5
6 -5 5 13518.3 2361.83 8
-6 5 -6 10315.7 1854.28 4
6 -5 6 8326.92 1849.29 8
-6 5 -6 7292.13 1342.37 5
-6 5 -7 -811.202 735.984 4
6 -5 7 745.238 679.051 8
-6 5 -7 -562.511 575.122 5
-6 5 -8 1420.56 849.041 4
6 -5 8 1525.57 1022.44 8
-6 5 -9 2628.91 1112.14 4
6 -5 9 2321.42 1162.71 8
-6 5 -10 1541.26 881.271 4
6 -5 10 2320.64 1286.28 8
-6 5 -11 7949.55 1881.04 4
6 -5 11 5913.02 2058.22 8
-6 5 -12 1837.20 735.951 4
6 -4 -7 27.3517 774.267 13
-6 4 7 117.489 506.813 12
6 -4 -6 1234.46 857.445 13
-6 4 6 1054.08 851.453 12
6 -4 -5 2601.27 1177.16 13
-6 4 5 5409.25 1612.31 12
-6 4 4 229.364 627.667 12
6 -4 -4 66.5145 444.457 13
6 -4 -3 696.866 756.691 13
-6 4 3 518.142 571.515 5
6 -4 -2 -121.140 369.095 13
-6 4 2 -361.527 499.613 5
-6 4 1 35138.3 3174.80 5
6 -4 -1 25925.2 2763.55 13
-6 4 1 35136.8 3235.88 4
-6 4 0 -259.043 414.269 4
6 -4 0 328.310 370.343 13
-6 4 0 752.064 513.126 5
-6 4 -1 -577.049 796.337 11
-6 4 -1 -12.5170 645.925 4
6 -4 1 77.2500 329.161 9
-6 4 -1 196.385 744.813 5
-6 4 -2 576.785 485.605 11
-6 4 -2 -495.095 566.928 4
6 -4 2 -625.270 573.016 9
-6 4 -3 1298.19 848.737 11
-6 4 -3 1042.78 475.288 4
6 -4 3 1190.13 575.823 8
-6 4 -4 31834.3 2877.84 4
-6 4 -4 25419.1 2576.50 11
6 -4 4 32255.5 3193.38 8
-6 4 -4 29593.9 2331.76 3
-6 4 -5 15904.8 2108.85 11
-6 4 -5 23190.0 2568.07 4
6 -4 5 19663.7 2582.11 8
-6 4 -5 20692.1 1927.80 3
-6 4 -6 1149.23 664.558 11
-6 4 -6 2769.56 972.765 4
-6 4 -6 2333.01 769.944 3
-6 4 -7 803.734 428.796 4
6 -4 7 960.704 771.038 8
-6 4 -7 359.360 308.197 3
-6 4 -8 4634.38 1560.11 4
6 -4 8 2839.69 1406.48 8
-6 4 -8 2130.09 609.321 3
-6 4 -9 3679.12 1327.91 4
6 -4 9 3113.70 1538.34 8
-6 4 -9 2643.07 789.549 3
6 -4 10 7464.65 2146.86 8
-6 4 -10 7846.41 1555.31 3
-6 4 -11 1294.51 723.333 3
-6 4 -12 49.8409 300.738 3
-6 3 8 1326.13 1072.18 12
6 -3 -7 3678.54 1624.25 13
-6 3 7 1744.41 1135.13 12
6 -3 -6 25.1424 752.486 13
-6 3 6 595.696 1063.91 12
-6 3 5 657.493 695.000 12
6 -3 -5 536.131 650.866 13
-6 3 4 -602.907 621.952 12
-6 3 4 114.492 488.249 5
6 -3 -4 831.219 605.386 13
6 -3 -3 13303.1 2322.20 13
-6 3 3 15635.7 2087.74 5
6 -3 -2 13075.2 2136.92 13
-6 3 2 18136.9 2277.31 5
-6 3 1 9039.33 1533.17 4
6 -3 -1 6084.41 1125.46 9
6 -3 -1 7190.70 1435.54 13
-6 3 1 7624.92 1441.76 5
-6 3 0 5675.00 1498.13 11
-6 3 0 4128.53 1102.62 4
6 -3 0 5266.40 1016.59 9
6 -3 0 2872.23 772.549 13
-6 3 -1 497.794 672.544 11
-6 3 -1 586.184 425.221 4
6 -3 1 449.810 605.153 9
6 -3 1 316.837 377.700 13
-6 3 -2 1874.56 718.493 4
6 -3 2 998.058 558.237 9
6 -3 2 696.339 325.299 13
-6 3 -3 16104.1 2054.51 11
-6 3 -3 17363.6 1982.82 4
-6 3 -4 11984.0 1637.70 4
6 -3 4 12863.2 2017.73 8
-6 3 -4 12054.4 1461.83 3
-6 3 -4 12611.6 1952.74 11
-6 3 -5 1308.47 719.572 4
6 -3 5 -14.2162 404.421 8
-6 3 -5 592.574 419.816 3
-6 3 -6 1681.50 583.011 4
-6 3 -6 1105.51 458.737 3
-6 3 -7 13462.5 1941.33 4
6 -3 7 12416.2 2249.99 8
-6 3 -7 11810.2 1582.33 3
6 -3 8 1769.43 992.868 8
-6 3 -8 859.069 384.826 3
-6 3 -9 1774.94 770.417 3
-6 3 -10 1245.16 685.264 3
-6 3 -11 -725.238 605.908 3
-6 3 -12 8148.36 1707.71 3
-6 3 -13 163.083 296.890 3
6 -2 -8 2530.06 1011.12 3
6 -2 -8 384.488 637.517 13
-6 2 8 1029.98 1055.66 12
6 -2 -7 30.9117 482.282 13
-6 2 7 -164.564 619.147 12
6 -2 -6 189.057 800.810 13
-6 2 6 -726.654 761.214 12
-6 2 5 167.331 436.528 12
6 -2 -5 981.269 866.995 13
6 -2 -4 3198.75 1199.68 13
-6 2 4 3181.69 883.883 5
6 -2 -3 5602.56 1489.49 13
-6 2 3 6219.46 1190.31 5
6 -2 -2 1149.93 738.297 13
-6 2 2 -530.283 706.404 5
-6 2 1 4939.74 1239.05 11
6 -2 -1 4936.81 961.299 9
6 -2 -1 5035.33 1195.77 13
-6 2 0 11696.5 1627.46 4
-6 2 0 12023.9 1923.28 11
6 -2 0 12785.4 1597.35 9
6 -2 0 11087.2 1647.87 13
-6 2 -1 13372.2 1646.80 4
-6 2 -1 12081.5 1828.30 11
6 -2 1 13638.0 1703.03 9
6 -2 1 13058.3 1579.18 13
-6 2 -2 23724.6 2555.39 11
-6 2 -2 21524.0 2058.60 4
6 -2 2 23815.3 2288.66 9
6 -2 2 24616.6 2226.22 13
-6 2 -3 6554.08 1184.34 4
6 -2 3 6812.34 1178.34 9
6 -2 3 6593.12 1126.25 13
-6 2 -4 301.293 370.174 4
-6 2 -4 -11.6405 366.837 3
-6 2 -5 33618.6 2770.55 4
-6 2 -5 34649.7 2629.39 3
-6 2 -6 58449.9 3726.74 4
-6 2 -6 57411.4 3338.70 3
-6 2 -7 1276.56 599.850 3
-6 2 -8 6851.83 1303.77 3
-6 2 -9 -440.415 397.054 3
-6 2 -10 7647.46 1512.65 3
-6 2 -11 24035.9 2811.16 3
-6 2 -12 803.107 646.048 3
-6 2 -13 1857.19 885.633 3
6 -1 -8 517.646 735.769 13
-6 1 8 1131.32 903.010 12
6 -1 -7 2115.04 1364.91 13
-6 1 7 2065.53 1061.60 12
6 -1 -6 2394.08 1266.42 13
-6 1 6 2804.49 1181.12 12
-6 1 5 1855.03 998.984 12
6 -1 -5 2202.24 1003.04 13
6 -1 -4 368.319 547.711 13
-6 1 4 -311.690 483.071 5
6 -1 -3 10600.6 1968.53 13
-6 1 3 11088.7 1567.52 5
-6 1 2 1086.57 770.168 11
6 -1 -2 1545.87 903.523 13
-6 1 1 117868. 5999.96 11
6 -1 -1 123405. 5218.79 9
6 -1 -1 116639. 5864.06 13
-6 1 0 1615.40 712.092 11
6 -1 0 1412.57 656.929 9
6 -1 0 1054.77 474.041 13
-6 1 -1 2432.12 870.228 11
-6 1 -1 2545.08 678.695 4
6 -1 1 1988.41 632.288 9
6 -1 1 2318.66 728.146 13
-6 1 -2 12703.1 1389.85 4
6 -1 2 14679.1 1811.26 13
6 -1 2 14466.4 1727.14 9
-6 1 -3 2772.15 659.652 4
6 -1 3 4528.54 1102.27 9
-6 1 -3 3128.30 847.572 3
6 -1 3 3884.34 897.915 13
-6 1 -4 174578. 5548.87 4
-6 1 -4 187896. 6031.77 3
-6 1 -5 2075.62 688.159 4
-6 1 -5 1853.75 667.309 3
-6 1 -6 527.987 397.141 4
-6 1 -6 381.666 404.005 3
-6 1 -7 -537.541 566.532 3
-6 1 -8 36428.8 3079.70 3
-6 1 -9 20686.9 2393.74 3
-6 1 -10 -309.838 496.083 3
-6 1 -11 968.009 548.145 3
-6 1 -12 715.167 590.799 3
-6 1 -13 15505.8 2564.77 3
6 0 -8 3565.56 1558.63 13
-6 0 7 3444.59 1197.47 7
6 0 -7 1585.51 934.450 13
-6 0 7 3125.02 1185.56 12
-6 0 6 6983.23 1816.30 7
6 0 -6 3926.09 1342.70 13
-6 0 6 6513.83 1703.64 12
-6 0 5 3231.83 1206.43 12
-6 0 5 2857.62 1052.20 7
6 0 -5 3987.51 1515.64 13
6 0 -4 2256.51 1062.11 13
6 0 -3 14919.5 2312.42 13
-6 0 2 12456.5 2006.43 11
6 0 -2 12012.2 2063.62 13
-6 0 1 26831.3 2713.41 11
6 0 -1 28316.0 2470.35 9
6 0 -1 27516.8 2032.89 2
6 0 -1 26982.9 2786.68 13
-6 0 0 8009.63 1743.85 11
6 0 0 5917.89 1086.08 9
6 0 0 5470.97 1237.47 13
-6 0 -1 92181.2 4941.25 11
6 0 1 102771. 4556.95 9
-6 0 -1 89851.7 3480.51 4
6 0 1 91484.9 4521.95 13
-6 0 -2 191.796 239.092 4
6 0 2 1204.84 584.815 13
6 0 2 426.553 565.374 9
-6 0 -3 36026.1 2147.60 4
6 0 3 46561.2 3251.86 9
6 0 3 42993.4 3246.59 13
-6 0 -3 42020.1 2847.40 3
6 0 4 72009.9 3998.14 9
-6 0 -4 67758.7 3610.92 3
-6 0 -5 7126.96 1057.92 4
-6 0 -5 8722.86 1379.67 3
-6 0 -6 179686. 6127.26 3
-6 0 -7 20468.8 2193.92 3
-6 0 -8 15909.1 2151.02 3
-6 0 -9 33093.7 3134.83 3
-6 0 -10 4874.48 1216.94 3
-6 0 -11 31826.5 3385.73 3
-6 0 -12 7782.84 1694.35 3
-6 0 -13 1442.08 1044.41 3
-6 -1 9 647.173 534.422 7
-6 -1 8 2115.33 979.802 7
6 1 -8 2090.14 1374.23 13
-6 -1 7 3761.65 1348.46 7
6 1 -7 4661.49 1639.39 13
6 1 -6 -124.082 849.778 13
-6 -1 6 -141.560 474.047 12
6 1 -5 15846.2 2741.03 13
-6 -1 5 12499.0 2111.18 12
6 1 -4 20929.9 2945.40 13
6 1 -3 45887.0 4136.76 13
-6 -1 2 5623.65 1349.92 11
6 1 -2 5176.84 1365.13 13
6 1 -2 6314.89 943.154 2
-6 -1 1 20521.7 2313.35 11
6 1 -1 24871.6 2539.63 9
6 1 -1 24992.8 1994.62 2
6 1 -1 22057.3 2429.04 13
-6 -1 0 228227. 7575.25 11
6 1 0 238608. 7193.06 9
6 1 0 213677. 7336.37 13
6 1 1 43206.6 2996.01 9
6 1 1 46066.7 3411.30 13
6 1 2 31996.1 2476.71 9
6 1 2 33088.1 2889.82 13
-6 -1 -2 26357.6 1533.44 4
-6 -1 -3 436.385 244.967 4
6 1 3 1299.64 789.669 9
-6 -1 -3 -846.924 808.851 3
6 1 3 11.7669 597.428 13
-6 -1 -4 5746.75 772.503 4
6 1 4 6683.38 1275.17 9
-6 -1 -4 5601.48 876.191 3
-6 -1 -5 177602. 4658.71 4
6 1 5 163855. 4670.98 7
-6 -1 -6 42501.0 3087.37 3
6 1 6 35299.8 2393.84 7
6 1 7 2952.01 805.962 7
-6 -1 -7 3132.09 951.044 3
6 1 8 7709.11 1423.27 7
-6 -1 -8 9186.79 1555.98 3
-6 -1 -9 13141.3 1974.30 3
6 1 9 10577.0 1831.93 7
-6 -1 -10 58682.3 4444.23 3
6 1 10 48890.7 4201.54 7
-6 -1 -11 9638.89 1842.37 3
-6 -1 -12 1171.58 798.302 3
-6 -1 -13 3677.59 1358.79 3
-6 -2 8 823.382 948.815 7
6 2 -8 1380.02 1119.58 13
6 2 -7 15039.4 2850.91 13
6 2 -6 -442.266 963.450 13
-6 -2 5 1256.40 710.607 12
6 2 -5 2469.20 1053.69 13
6 2 -4 29953.4 3526.51 13
6 2 -3 2163.51 580.961 2
6 2 -3 1656.69 708.061 13
-6 -2 2 65718.1 4233.47 11
6 2 -2 74502.1 3563.39 2
6 2 -2 69412.3 4792.23 13
-6 -2 1 226.063 372.529 11
6 2 -1 230.337 413.583 2
6 2 -1 -899.510 747.242 13
-6 -2 0 22927.7 2458.14 11
6 2 0 25271.7 2444.00 9
6 2 0 27891.0 2286.08 2
6 2 0 23983.2 2488.41 13
6 2 1 51644.8 3388.80 9
6 2 1 51229.7 3837.44 13
6 2 2 126516. 5216.35 9
6 2 2 118010. 5799.94 13
6 2 3 68994.0 3790.47 9
-6 -2 -3 66575.3 3811.24 3
6 2 4 4913.35 792.659 7
-6 -2 -4 6158.16 1173.22 3
6 2 5 31517.8 2758.14 9
-6 -2 -5 33608.9 2769.67 3
6 2 6 -194.244 492.378 7
-6 -2 -6 819.961 381.068 3
-6 -2 -7 110672. 5135.26 3
6 2 7 97072.3 4805.20 7
6 2 8 1995.25 855.045 7
-6 -2 -8 1249.12 756.096 3
6 2 9 1114.85 715.176 7
-6 -2 -9 871.077 565.551 3
-6 -2 -10 23225.7 2831.73 3
6 2 10 18578.6 2635.14 7
6 2 11 2727.59 1196.27 7
-6 -2 -11 2704.63 1078.99 3
-6 -2 -12 39989.6 4058.78 3
6 2 12 31013.0 4000.82 7
-6 -2 -13 961.373 679.953 3
6 3 -8 2735.80 1369.96 13
6 3 -7 13473.6 2680.19 13
6 3 -6 2509.28 1223.33 13
6 3 -5 8743.40 1950.91 13
6 3 -4 183.317 386.311 2
6 3 -4 1093.78 748.568 13
6 3 -3 10933.1 1478.54 2
6 3 -3 9088.74 1775.86 13
-6 -3 2 59003.4 3842.87 11
6 3 -2 62591.3 4385.00 13
6 3 -1 2152.91 825.655 2
-6 -3 1 2401.01 828.050 11
6 3 -1 1517.25 747.947 13
6 3 0 105049. 5276.10 9
6 3 0 111973. 4795.34 2
6 3 0 95522.6 5463.26 13
6 3 1 45714.3 3225.87 9
6 3 1 43887.7 3733.82 13
6 3 2 53454.5 3332.12 9
6 3 2 53961.8 4120.49 13
6 3 3 40939.1 3072.91 9
6 3 4 334.200 484.140 9
6 3 4 142.771 424.839 7
-6 -3 -4 1339.43 784.654 3
6 3 5 56238.9 3560.09 9
6 3 5 48335.0 3080.53 7
6 3 6 109108. 5098.76 9
-6 -3 -6 120153. 5214.34 3
6 3 6 102249. 4905.45 7
6 3 7 37030.9 3100.74 9
-6 -3 -7 41558.5 3181.27 3
6 3 7 32579.4 2884.42 7
-6 -3 -8 10762.5 1739.41 3
6 3 8 11054.3 1867.49 7
-6 -3 -9 12335.2 1967.32 3
6 3 9 11594.4 2067.28 7
6 3 10 3225.12 1339.66 7
-6 -3 -10 4356.19 1231.58 3
-6 -3 -11 22110.8 2935.34 3
6 3 11 15598.3 2754.69 7
6 3 12 2578.97 1241.06 7
-6 -3 -12 2745.50 1084.19 3
6 3 13 1604.11 1023.25 7
-6 -3 -13 1052.03 551.141 3
6 4 -8 1564.86 982.002 13
6 4 -7 1869.83 1024.73 13
6 4 -6 16193.0 2849.75 13
6 4 -5 14905.6 1845.57 2
6 4 -5 12807.1 2424.81 13
6 4 -4 8044.16 1392.54 2
6 4 -4 8047.62 1863.74 13
6 4 -3 11655.0 1652.13 2
6 4 -3 8574.93 1691.51 13
-6 -4 2 142.968 412.698 11
6 4 -2 708.114 745.880 13
6 4 -2 802.470 387.629 2
6 4 -1 84959.9 4163.61 2
6 4 -1 82281.7 5371.40 13
6 4 0 18794.8 2040.08 2
6 4 0 16596.4 2210.85 13
6 4 1 1784.09 670.186 2
6 4 1 2448.41 1227.14 9
6 4 1 52.8744 534.700 13
6 4 2 -274.139 495.738 9
6 4 2 -1198.44 950.532 2
6 4 3 35770.3 2834.58 9
6 4 4 111093. 5048.69 9
-6 -4 -4 119466. 5191.26 3
6 4 5 1809.45 647.008 9
6 4 5 2280.52 760.455 7
-6 -4 -5 2420.35 719.243 3
6 4 6 2833.60 822.574 9
6 4 6 2177.65 633.194 7
-6 -4 -6 2792.59 764.059 3
6 4 7 8730.32 1535.47 9
-6 -4 -7 10487.4 1647.76 3
6 4 7 8277.69 1694.93 7
6 4 8 37311.4 3174.13 9
-6 -4 -8 47323.2 3622.10 3
6 4 8 41822.0 3730.33 7
6 4 9 15572.7 2097.53 9
-6 -4 -9 21911.6 2642.05 3
6 4 9 18946.6 2711.92 7
6 4 10 3028.36 1224.58 7
-6 -4 -10 4529.21 1295.74 3
6 4 11 -627.675 750.476 7
-6 -4 -11 258.738 715.291 3
6 4 12 1640.00 1154.64 7
-6 -4 -12 1146.03 922.421 3
-6 -4 -13 15381.1 2674.63 3
6 4 13 12028.9 2807.59 7
6 5 -8 4564.81 1776.66 13
6 5 -7 66.7740 478.586 13
6 5 -6 9469.38 1552.99 2
6 5 -6 6433.34 1880.11 13
6 5 -5 432.200 446.759 13
6 5 -5 1319.10 683.243 2
6 5 -4 14047.4 1875.61 2
6 5 -4 10860.7 2276.82 13
6 5 -3 16422.0 2023.20 2
6 5 -3 13790.6 2459.67 13
6 5 -2 60.5930 480.563 13
6 5 -2 -309.956 479.878 2
-6 -5 1 34732.9 2801.82 11
6 5 -1 41912.1 3944.47 13
6 5 0 1121.97 629.705 2
6 5 0 140.167 656.322 13
6 5 1 108320. 5294.38 2
6 5 1 99540.6 6237.91 13
6 5 2 -137.635 644.078 9
6 5 2 -347.260 624.666 2
6 5 3 3019.87 969.153 9
6 5 3 4551.49 1198.42 2
6 5 4 18449.1 2103.01 9
-6 -5 -4 22404.5 2298.20 3
6 5 4 17437.1 2194.01 7
6 5 5 593.900 473.951 9
6 5 5 885.721 480.055 7
-6 -5 -5 828.415 527.516 3
6 5 6 83223.9 4488.44 9
6 5 6 87169.6 5266.87 7
6 5 7 7721.47 1412.21 9
-6 -5 -7 8781.39 1564.89 3
6 5 7 10254.6 1849.83 7
6 5 8 -86.7969 471.516 9
6 5 8 181.090 537.647 7
-6 -5 -8 859.783 413.176 3
6 5 9 1301.56 653.770 7
-6 -5 -9 -547.745 559.755 3
6 5 10 132.697 450.348 7
-6 -5 -10 604.659 584.654 3
6 5 11 2759.40 1389.40 7
-6 -5 -11 2028.53 904.171 3
6 5 12 3492.46 1613.37 7
-6 -5 -12 4321.32 1372.78 3
6 5 13 937.600 1089.65 7
-6 -5 -13 103.079 490.940 3
6 6 -7 1488.16 1005.10 13
6 6 -6 7713.76 1511.61 2
6 6 -6 6075.78 1800.58 13
6 6 -5 3172.03 952.133 2
6 6 -5 3852.00 1452.65 13
-6 -6 4 1865.39 606.686 10
6 6 -4 2928.88 898.205 2
6 6 -4 2880.31 1271.63 13
6 6 -3 12468.2 1801.50 2
6 6 -3 9319.70 2055.83 13
6 6 -2 4033.67 1059.25 2
6 6 -2 3280.28 1391.48 13
6 6 -1 25805.4 2706.25 2
6 6 -1 18392.8 2807.94 13
6 6 0 17864.8 2137.56 2
6 6 0 15677.1 2608.83 13
6 6 1 2199.94 930.846 2
6 6 2 1976.46 875.475 2
6 6 3 557.791 494.013 9
6 6 3 1789.23 880.656 2
6 6 4 2128.96 661.947 9
6 6 4 3069.17 1099.03 2
6 6 5 10263.7 1581.05 9
-6 -6 -5 12486.7 1797.50 3
6 6 5 10572.8 1934.28 7
6 6 6 128.826 361.048 9
6 6 6 815.530 672.585 7
-6 -6 -6 1616.39 605.208 3
6 6 7 3236.01 1175.97 7
-6 -6 -7 5609.05 1345.59 3
-6 -6 -8 8850.04 1640.25 3
6 6 8 8006.16 1836.81 7
6 6 9 4679.77 1599.04 7
-6 -6 -9 2447.12 899.498 3
6 6 10 1637.58 1180.17 7
-6 -6 -10 889.151 622.302 3
6 6 11 1721.37 1145.47 7
-6 -6 -11 630.358 627.844 3
6 6 12 950.609 681.523 7
-6 -6 -12 994.218 704.875 3
6 7 -7 955.504 631.632 2
6 7 -6 1382.68 706.141 2
-6 -7 5 581.889 478.337 10
6 7 -5 492.636 419.484 2
6 7 -5 744.682 496.045 13
-6 -7 4 666.827 713.529 10
6 7 -4 501.683 504.896 2
6 7 -3 -529.461 390.369 2
6 7 -3 8.47784 435.090 13
6 7 -2 2326.25 839.546 2
6 7 -2 1737.04 1005.43 13
6 7 -1 264.539 409.041 2
6 7 -1 -567.921 778.780 13
6 7 0 11040.9 1807.91 2
6 7 1 14155.1 1988.79 2
6 7 2 5570.11 1297.00 2
6 7 3 535.527 382.796 2
6 7 4 321.066 435.205 2
6 7 5 3845.09 960.334 9
6 7 5 4865.51 1307.89 2
6 7 5 2735.75 1084.00 7
-6 -7 -6 16173.3 2117.48 3
6 7 6 14249.7 2433.03 7
6 7 6 18010.0 2555.39 2
6 7 7 10717.0 1997.20 2
6 7 7 5942.94 1628.04 7
-6 -7 -7 7953.52 1530.80 3
6 7 8 5511.54 1408.50 2
6 7 8 5030.73 1651.19 7
-6 -7 -8 4825.45 1226.52 3
6 7 8 6443.37 1447.31 1
6 7 9 2018.20 1193.02 7
6 7 10 464.878 787.504 7
6 7 11 1609.26 1044.29 7
6 7 12 2725.11 1372.04 7
6 8 -6 4000.19 1236.34 2
-6 -8 5 2320.77 1260.74 10
6 8 -5 2842.78 928.322 2
-6 -8 4 -433.000 501.477 10
6 8 -4 1001.17 765.330 13
6 8 -4 -436.482 558.705 2
6 8 -3 -76.0495 417.197 1
6 8 -3 675.388 639.143 2
6 8 -3 25.4023 587.552 13
6 8 -2 4025.26 1105.90 1
6 8 -2 3843.31 1090.95 2
6 8 -1 9744.83 1779.25 2
6 8 0 4047.75 1197.32 2
6 8 1 3943.36 1149.84 2
6 8 2 839.769 648.036 2
6 8 3 2172.65 841.366 2
6 8 4 3146.29 1016.09 2
6 8 5 26.5803 441.502 2
6 8 6 3568.37 1244.92 2
6 8 6 2399.34 916.894 1
6 8 6 1856.17 1015.13 7
6 8 7 135.417 353.520 2
6 8 7 -784.836 466.680 7
6 8 7 -1146.59 811.098 1
6 8 8 6164.51 1839.99 7
6 8 8 8876.54 1794.21 1
6 8 9 468.079 661.466 7
6 8 10 41.0158 555.787 7
6 8 11 2560.98 1376.87 7
-6 -9 5 1268.54 995.929 10
6 9 -5 1084.29 680.904 2
-6 -9 4 1431.60 990.242 10
6 9 -4 2888.11 1255.66 2
6 9 -3 914.308 666.377 1
6 9 -3 982.443 684.159 2
6 9 -2 59.8422 483.272 1
6 9 -2 603.193 709.309 2
6 9 -1 -141.018 408.927 1
6 9 -1 1522.17 774.433 2
6 9 0 1188.80 655.907 1
6 9 0 614.585 618.902 2
6 9 1 17679.9 2624.66 1
6 9 1 13903.3 2148.86 2
6 9 2 1973.07 887.619 2
6 9 2 1585.60 805.822 1
6 9 3 -901.335 717.209 1
6 9 3 -138.606 311.771 2
6 9 4 942.778 575.102 2
6 9 4 333.791 687.844 1
6 9 5 3860.18 1088.63 2
6 9 5 2995.21 1104.39 1
6 9 6 13367.0 2104.78 2
6 9 6 11929.2 2426.75 7
6 9 6 16719.0 2609.03 1
6 9 7 5143.01 1431.52 1
6 9 7 2305.41 1186.64 7
6 9 8 -22.2901 491.095 7
6 9 9 -155.623 588.287 7
6 9 10 1293.71 1065.49 7
-6 -10 4 515.341 833.816 10
6 10 -4 23.6546 284.615 2
6 10 -3 1896.44 831.649 1
6 10 -3 1317.50 799.294 2
6 10 -2 60.2710 367.381 2
6 10 -2 199.633 509.935 1
6 10 -1 805.806 403.242 1
6 10 -1 1379.19 625.174 2
6 10 0 16721.5 2380.32 2
6 10 0 14109.4 2394.48 1
6 10 1 18.8657 635.006 1
6 10 1 2585.14 1251.27 2
6 10 2 7405.23 1802.69 1
6 10 2 7087.74 1592.61 2
6 10 3 2584.74 1145.54 1
6 10 3 1739.20 876.541 2
6 10 4 359.256 472.014 1
6 10 4 274.907 520.947 2
6 10 5 9815.95 2046.32 1
6 10 5 6650.82 1487.07 2
6 10 6 447.466 427.995 1
6 10 7 3663.92 1548.24 7
6 10 7 4609.02 1533.78 1
6 10 8 4739.09 1786.27 7
6 10 9 1186.35 846.590 7
6 11 -2 3936.14 1300.06 1
6 11 -2 4204.76 1281.27 2
6 11 -1 420.272 375.737 1
6 11 -1 1391.55 862.410 2
6 11 0 -207.804 685.287 1
6 11 0 909.191 622.829 2
6 11 1 106.927 492.564 2
6 11 1 1249.21 976.917 1
6 11 2 18213.2 2566.38 2
6 11 2 18007.5 2810.23 1
6 11 3 1085.84 612.488 2
6 11 3 2225.31 1027.22 1
6 11 4 1752.56 850.649 2
6 11 4 1879.31 979.196 1
6 11 5 953.664 772.536 1
6 11 6 109.376 718.686 1
6 11 7 10773.0 2213.72 1
6 12 1 667.572 609.231 1
6 12 1 942.290 691.733 2
6 12 2 -363.383 503.952 1
6 12 2 716.791 652.004 2
6 12 3 1465.54 698.581 1
6 12 3 985.801 590.328 2
6 12 4 4680.96 1548.93 1
-7 9 -1 2792.09 1268.79 4
-7 9 -2 856.931 1016.63 4
-7 9 -3 888.759 763.042 4
-7 9 -4 18022.0 2966.07 4
-7 9 -5 3347.65 1268.75 4
7 -9 6 5785.37 1929.38 8
-7 8 2 394.877 581.512 12
-7 8 1 384.619 895.590 12
-7 8 0 2471.00 1204.75 12
-7 8 0 6022.82 1858.33 4
-7 8 -1 5428.39 1780.62 4
-7 8 -2 21047.7 2999.18 4
-7 8 -3 -429.860 722.617 4
-7 8 -3 91.1840 413.009 5
-7 8 -4 586.341 835.741 4
-7 8 -4 316.262 351.546 5
-7 8 -5 2212.20 998.175 4
-7 8 -5 1505.88 850.655 5
7 -8 5 3156.72 1406.49 8
-7 8 -6 15378.9 2683.76 4
7 -8 6 14075.5 2888.50 8
-7 8 -7 9656.39 2234.54 4
7 -8 7 10114.8 2576.13 8
-7 8 -8 152.300 576.696 4
7 -8 8 740.233 891.136 8
-7 7 3 1328.06 1103.17 12
-7 7 2 868.277 792.903 12
-7 7 1 6705.28 1800.11 12
-7 7 0 195.581 566.120 12
-7 7 0 -134.113 555.524 4
-7 7 0 -127.788 373.798 5
-7 7 -1 1735.52 963.184 4
-7 7 -1 999.888 845.375 5
-7 7 -2 4825.32 1333.44 4
-7 7 -2 4287.89 1355.68 5
-7 7 -3 1927.12 888.559 4
-7 7 -3 2858.62 1133.73 5
-7 7 -4 23996.2 3115.69 4
-7 7 -4 21037.7 2772.75 5
-7 7 -5 9547.39 2046.61 4
7 -7 5 7588.41 1992.16 8
-7 7 -5 7335.58 1647.72 5
-7 7 -6 752.270 669.453 4
7 -7 6 1520.96 831.883 8
-7 7 -6 761.439 508.842 5
-7 7 -7 10282.5 2230.39 4
7 -7 7 10605.3 2532.52 8
-7 7 -8 1311.21 882.682 4
7 -7 8 1080.83 1165.24 8
-7 7 -9 4703.75 1566.49 4
7 -7 9 5176.44 1907.89 8
-7 6 5 -595.883 742.098 6
-7 6 4 1635.35 1355.17 12
-7 6 3 1042.66 891.298 12
-7 6 2 16910.0 2900.79 12
-7 6 1 546.596 568.214 12
-7 6 1 426.076 481.815 5
-7 6 0 4997.03 1407.93 4
-7 6 0 5221.69 1384.98 5
-7 6 -1 -719.460 535.191 4
-7 6 -1 191.954 472.085 5
-7 6 -2 -402.887 500.811 4
-7 6 -2 30.4049 566.238 5
-7 6 -3 26865.3 3103.94 4
-7 6 -3 28676.6 3163.01 5
-7 6 -4 369.605 366.432 11
-7 6 -4 -753.286 793.705 4
7 -6 4 1078.99 926.005 8
-7 6 -4 605.292 532.796 5
-7 6 -5 -87.1605 666.535 4
7 -6 5 775.688 829.264 8
-7 6 -5 1308.69 758.835 5
-7 6 -6 -187.602 507.063 4
7 -6 6 -518.002 604.093 8
-7 6 -6 26.5777 378.430 5
-7 6 -7 5097.41 1445.81 4
7 -6 7 2969.41 1267.42 8
-7 6 -8 9429.86 1998.77 4
7 -6 8 8765.30 2295.09 8
-7 6 -9 445.178 743.712 4
7 -6 9 164.819 468.146 8
-7 6 -10 955.835 998.758 4
7 -6 10 296.845 669.132 8
7 -5 -5 -817.414 797.996 13
-7 5 5 -1145.99 631.133 12
-7 5 4 2495.00 1201.23 12
-7 5 3 3273.41 1356.76 12
-7 5 2 -59.5949 356.983 5
-7 5 1 1375.08 736.511 5
-7 5 0 2725.15 940.501 4
-7 5 0 2995.28 1063.72 5
-7 5 -1 493.562 566.754 4
-7 5 -1 48.1065 526.233 5
-7 5 -2 4068.08 1354.57 11
-7 5 -2 5543.71 1289.14 4
-7 5 -2 5767.46 1331.25 5
-7 5 -3 1618.42 754.392 11
-7 5 -3 2188.69 922.205 4
7 -5 3 1957.57 699.438 9
-7 5 -3 1823.58 879.836 5
-7 5 -4 1856.80 836.041 11
-7 5 -4 1653.68 726.011 4
-7 5 -4 2135.11 859.247 5
-7 5 -5 9881.65 1810.85 11
7 -5 5 13699.9 2368.23 8
-7 5 -5 14480.6 2126.88 5
-7 5 -6 6679.66 1618.16 4
7 -5 6 5625.64 1633.42 8
-7 5 -6 5950.37 1411.78 5
-7 5 -7 591.846 511.492 4
7 -5 7 -842.210 721.147 8
-7 5 -7 -540.474 521.463 5
-7 5 -8 555.593 589.318 4
7 -5 8 314.462 947.081 8
-7 5 -9 2610.35 1129.52 4
7 -5 9 1831.86 1209.43 8
-7 5 -10 656.898 861.363 4
-7 5 -11 5145.36 1563.68 4
7 -4 -6 229.956 610.551 13
-7 4 6 947.489 833.593 12
7 -4 -5 -5.84290 399.726 13
-7 4 5 -145.104 628.287 12
-7 4 4 -1145.71 798.122 12
7 -4 -4 -124.622 502.225 13
-7 4 3 3532.73 1380.42 12
7 -4 -3 1924.34 1052.76 13
-7 4 3 4128.25 1295.44 5
7 -4 -2 6357.25 1589.58 13
-7 4 2 7704.19 1647.54 5
-7 4 1 9851.84 1893.96 5
-7 4 0 4437.83 1218.58 4
-7 4 0 4694.50 1293.85 5
-7 4 -1 2542.22 988.077 11
-7 4 -1 1418.41 481.672 4
-7 4 -1 2585.79 868.049 5
-7 4 -2 6821.42 1554.17 11
-7 4 -2 7840.67 1477.37 4
7 -4 2 7210.17 1462.78 9
-7 4 -3 2986.65 1044.25 11
-7 4 -3 4476.93 1061.00 4
7 -4 3 3491.12 1051.86 9
-7 4 -4 23575.8 2639.45 11
-7 4 -4 33258.4 3195.52 4
-7 4 -5 5455.87 1278.92 11
-7 4 -5 8206.60 1600.54 4
-7 4 -5 7962.17 1343.59 3
-7 4 -6 14228.4 2183.48 4
-7 4 -6 8567.02 1600.77 11
-7 4 -6 12388.0 1660.30 3
-7 4 -7 448.731 514.127 11
-7 4 -7 -215.322 863.913 4
-7 4 -7 196.345 245.041 3
-7 4 -8 456.191 580.841 4
-7 4 -8 835.372 484.527 3
-7 4 -9 2490.05 993.176 4
-7 4 -9 3382.84 999.172 3
-7 4 -10 5206.27 1500.13 4
-7 4 -10 5518.00 1223.94 3
-7 4 -11 2642.21 945.221 4
-7 4 -11 5174.95 1486.28 3
-7 4 -12 -711.428 821.021 4
7 -3 -6 377.793 437.824 13
-7 3 6 85.7274 585.076 12
-7 3 5 2338.03 1363.35 12
7 -3 -5 1869.03 1099.96 13
-7 3 4 2980.53 1148.79 12
7 -3 -4 2185.31 1126.04 13
-7 3 4 1327.61 688.659 5
7 -3 -3 4315.86 1466.64 13
-7 3 3 6122.15 1471.26 5
-7 3 2 14476.3 2428.96 5
7 -3 -2 10989.2 2141.43 13
7 -3 -1 3411.70 1063.50 13
-7 3 1 4796.01 1269.60 5
-7 3 0 -1012.17 793.120 11
-7 3 0 -519.760 539.450 4
7 -3 0 349.612 435.939 9
7 -3 0 336.551 494.185 13
-7 3 -1 824.999 788.688 11
-7 3 -1 -86.8484 424.817 4
7 -3 1 562.117 397.787 9
7 -3 1 88.4037 276.933 13
-7 3 -2 1023.95 654.100 11
-7 3 -2 373.677 321.883 4
7 -3 2 -77.2963 611.683 9
-7 3 -3 35174.1 3352.08 11
-7 3 -3 33335.7 2889.13 4
7 -3 3 32467.0 3035.98 9
-7 3 -4 10680.4 1906.82 11
-7 3 -4 8015.00 1454.95 4
7 -3 4 10123.6 1768.43 9
-7 3 -5 7472.29 1454.04 4
-7 3 -5 7727.08 1339.74 3
-7 3 -6 148.795 433.503 4
-7 3 -6 554.438 295.763 3
-7 3 -7 28392.8 3034.15 4
-7 3 -7 27628.0 2636.49 3
-7 3 -8 15033.0 2244.03 4
-7 3 -8 14431.8 1928.98 3
-7 3 -9 5617.04 1385.52 4
-7 3 -9 4659.31 1125.57 3
-7 3 -10 1955.33 924.141 4
-7 3 -10 1922.91 735.750 3
-7 3 -11 477.519 457.606 4
-7 3 -11 163.720 393.125 3
-7 3 -12 12570.5 2179.31 3
7 -2 -7 229.872 747.936 13
-7 2 7 1722.34 1069.40 12
7 -2 -6 2749.96 1612.98 13
-7 2 6 2331.63 1198.70 12
-7 2 5 1156.38 831.684 12
7 -2 -5 431.296 825.760 13
7 -2 -4 2978.38 1238.71 13
-7 2 4 3354.83 1139.91 5
7 -2 -3 -287.948 509.975 13
-7 2 3 -676.424 463.593 5
7 -2 -2 20913.8 2957.57 13
-7 2 2 24222.8 2656.56 5
-7 2 1 -101.468 572.033 11
7 -2 -1 420.240 364.882 9
7 -2 -1 -94.8539 471.864 13
-7 2 0 38324.3 3733.61 11
7 -2 0 39643.9 3178.83 9
7 -2 0 35927.9 3225.92 13
-7 2 -1 -0.08241 613.720 11
-7 2 -1 59.1538 382.302 4
7 -2 1 281.785 450.542 9
7 -2 1 496.296 348.517 13
-7 2 -2 2850.68 1148.60 11
-7 2 -2 1279.98 587.733 4
7 -2 2 1602.59 862.627 9
7 -2 2 908.355 604.317 13
-7 2 -3 55218.7 4183.91 11
-7 2 -3 51544.9 3340.31 4
7 -2 3 55285.9 3846.53 9
7 -2 3 56865.2 3727.54 13
-7 2 -4 1741.35 750.613 4
7 -2 4 972.569 562.653 9
-7 2 -4 1976.46 605.672 3
-7 2 -5 69344.8 4124.85 4
-7 2 -5 73152.1 4133.43 3
-7 2 -6 3030.66 945.223 4
-7 2 -6 3589.17 916.447 3
-7 2 -7 14098.4 1872.43 4
-7 2 -7 12804.1 1726.83 3
-7 2 -8 25320.1 2697.97 4
-7 2 -8 25512.4 2572.12 3
-7 2 -9 360.770 480.777 4
-7 2 -9 511.396 488.613 3
-7 2 -10 20346.3 2488.48 3
-7 2 -11 1865.65 810.479 3
-7 2 -12 6284.11 1578.20 3
-7 2 -13 343.003 330.540 3
7 -1 -7 2554.99 2128.74 13
-7 1 7 1971.33 1176.08 12
7 -1 -6 2326.77 1377.54 13
-7 1 6 1692.59 917.428 12
-7 1 5 3382.99 1257.61 12
7 -1 -5 5780.85 1902.96 13
7 -1 -4 12980.1 2483.77 13
7 -1 -3 2204.94 1176.63 13
-7 1 3 1454.33 660.632 5
7 -1 -2 2815.79 1003.46 13
-7 1 1 32311.3 3432.76 11
7 -1 -1 35506.3 3069.82 9
7 -1 -1 29961.0 3153.46 13
-7 1 0 64687.6 4742.48 11
7 -1 0 67934.2 4245.83 9
7 -1 0 59150.2 4118.16 13
-7 1 -1 15438.7 2223.52 11
7 -1 1 16696.0 2081.59 9
7 -1 1 16057.1 2121.33 13
-7 1 -1 13859.1 1673.36 4
-7 1 -2 3636.19 1140.27 11
-7 1 -2 3850.75 889.133 4
7 -1 2 3846.77 1087.81 9
7 -1 2 3667.94 1069.25 13
-7 1 -3 1083.02 447.172 4
7 -1 3 1534.52 825.191 9
7 -1 3 855.868 575.943 13
-7 1 -4 95651.9 4280.82 4
7 -1 4 108123. 5474.56 9
-7 1 -4 106063. 5001.33 3
-7 1 -5 103601. 4620.18 4
-7 1 -5 115207. 5184.72 3
-7 1 -6 167.648 512.396 4
-7 1 -6 412.387 542.303 3
-7 1 -7 7799.36 1439.19 4
-7 1 -7 7825.03 1304.40 3
-7 1 -8 19367.0 2272.84 4
-7 1 -8 22721.6 2481.01 3
-7 1 -9 26413.3 2769.66 3
-7 1 -10 28242.6 3043.48 3
-7 1 -11 388.386 430.817 3
-7 1 -12 6407.00 1494.58 3
-7 1 -13 9043.75 2115.12 3
7 0 -7 3981.75 1776.49 13
7 0 -6 1230.34 746.619 13
-7 0 6 869.172 537.613 12
-7 0 5 4216.45 1367.23 12
7 0 -5 4821.06 1685.80 13
7 0 -4 7716.54 1896.24 13
7 0 -3 20609.7 2990.19 13
-7 0 3 18554.4 2246.77 5
-7 0 2 17567.5 2543.78 11
7 0 -2 19601.7 2784.98 13
-7 0 1 29871.2 3182.76 11
7 0 -1 31790.3 2950.99 9
7 0 -1 28714.1 3099.75 13
-7 0 0 3696.15 1156.81 11
7 0 0 4139.07 1043.07 9
7 0 0 4269.60 985.308 2
7 0 0 3615.53 963.412 13
-7 0 -1 140441. 6632.74 11
7 0 1 159682. 6398.45 9
7 0 1 147533. 6585.42 13
-7 0 -2 66578.7 3133.04 4
7 0 2 80518.2 4497.21 9
7 0 2 78044.0 4727.43 13
-7 0 -3 26370.5 1858.36 4
7 0 3 30922.0 2926.17 9
7 0 3 29933.4 2923.01 13
-7 0 -4 44832.1 2554.22 4
7 0 4 49302.1 3625.57 9
-7 0 -4 51059.7 3467.09 3
-7 0 -5 -1189.66 692.341 4
7 0 5 -125.514 560.515 9
-7 0 -5 -964.124 678.863 3
-7 0 -6 123053. 4917.75 4
-7 0 -6 149289. 6170.33 3
-7 0 -7 42181.3 2962.38 4
-7 0 -7 48770.7 3527.55 3
-7 0 -8 1405.73 848.516 3
-7 0 -9 15405.1 2163.25 3
-7 0 -10 2798.04 991.064 3
-7 0 -11 38492.1 3799.51 3
-7 0 -12 2105.55 1175.47 3
-7 0 -13 491.367 391.949 3
7 1 -7 2504.07 1313.74 13
7 1 -6 6698.62 1914.48 13
-7 -1 6 4518.06 1379.77 12
-7 -1 5 -338.359 530.663 12
7 1 -5 -799.007 912.226 13
7 1 -4 3661.84 1456.21 13
7 1 -3 76406.2 5760.55 13
-7 -1 2 1517.79 712.603 11
7 1 -2 2035.69 946.930 13
-7 -1 1 50621.2 4103.27 11
7 1 -1 54350.7 3182.82 2
7 1 -1 49080.0 4044.08 13
-7 -1 0 1036.17 609.704 11
7 1 0 1352.29 481.515 2
7 1 0 1101.87 606.904 9
7 1 0 2927.40 1080.83 13
-7 -1 -1 57277.0 4350.50 11
7 1 1 65942.8 4216.89 9
7 1 1 59678.6 4339.11 13
7 1 2 65033.2 4242.21 9
7 1 2 56972.4 4239.66 13
7 1 3 1823.24 577.200 9
7 1 3 5403.59 1442.14 13
7 1 4 61109.3 4148.15 9
-7 -1 -4 57527.4 3739.56 3
7 1 5 21270.1 2405.63 9
-7 -1 -5 19770.3 2090.98 3
7 1 6 113065. 5982.64 9
-7 -1 -6 114176. 5534.36 3
-7 -1 -7 6372.98 1312.36 3
-7 -1 -8 31880.2 2990.51 3
-7 -1 -9 2561.29 772.829 3
-7 -1 -10 4314.55 1249.52 3
-7 -1 -11 19829.2 2711.77 3
-7 -1 -12 -346.514 455.814 3
-7 -1 -13 13946.4 2470.57 3
7 2 -7 2695.84 1325.13 13
7 2 -6 11348.8 2542.10 13
7 2 -5 4513.64 1635.23 13
7 2 -4 1979.05 1162.14 13
7 2 -3 1569.10 734.973 13
-7 -2 2 17286.4 2337.11 11
7 2 -2 21771.8 2142.66 2
7 2 -2 20437.9 2710.50 13
-7 -2 1 80655.2 4944.92 11
7 2 -1 89585.1 4292.81 2
7 2 -1 82507.4 5350.55 13
-7 -2 0 165.928 400.520 11
7 2 0 -174.148 444.014 2
7 2 0 271.379 825.367 9
7 2 0 149.175 723.592 13
7 2 1 7902.79 1454.28 9
7 2 1 10358.7 1817.92 2
7 2 1 8524.23 1888.23 13
7 2 2 48077.5 3587.18 9
7 2 2 41590.0 3744.44 13
7 2 3 83548.0 4796.85 9
7 2 4 54575.9 3874.62 9
-7 -2 -4 54485.3 3755.46 3
7 2 5 23618.2 2693.44 9
-7 -2 -5 21842.8 2296.55 3
7 2 6 9229.80 1737.14 9
-7 -2 -6 10447.5 1867.40 3
7 2 7 51366.1 4057.02 9
-7 -2 -7 54179.7 3811.53 3
-7 -2 -8 31798.7 3031.07 3
-7 -2 -9 15163.4 2135.48 3
-7 -2 -10 2695.84 983.932 3
-7 -2 -11 2562.91 1044.68 3
-7 -2 -12 14276.1 2446.86 3
-7 -2 -13 1559.29 825.357 3
7 3 -7 4900.90 1745.08 13
7 3 -6 274.881 693.197 13
7 3 -5 7918.45 2023.44 13
7 3 -4 2861.22 1305.71 13
7 3 -3 990.543 538.592 2
7 3 -3 1547.26 649.839 13
-7 -3 2 42665.2 3703.43 11
7 3 -2 54544.1 3567.15 2
7 3 -2 47488.6 4375.81 13
7 3 -1 -658.956 634.173 2
-7 -3 1 -180.345 622.630 11
7 3 -1 -536.408 647.946 13
-7 -3 0 46852.9 3881.65 11
7 3 0 57908.0 4196.34 9
7 3 0 53796.4 3687.12 2
7 3 0 54258.3 4528.82 13
7 3 1 11530.6 1762.58 9
7 3 1 11620.1 2051.74 13
7 3 2 4817.01 1111.48 9
7 3 2 5652.85 1756.50 13
7 3 3 45404.8 3500.41 9
7 3 4 417.766 669.650 9
-7 -3 -4 -798.859 770.544 3
7 3 5 64046.1 4240.28 9
-7 -3 -5 62949.7 4155.69 3
7 3 6 755.590 648.501 9
7 3 6 320.563 492.974 7
-7 -3 -6 1149.67 748.413 3
7 3 7 23638.9 2712.70 9
-7 -3 -7 28929.7 2912.50 3
7 3 7 21220.4 2337.96 7
7 3 8 10.3348 472.977 9
7 3 8 57.1396 399.903 7
7 3 9 6119.60 1526.01 9
7 3 9 5837.74 1395.63 7
-7 -3 -9 8215.22 1626.96 3
7 3 10 4957.00 1377.55 9
-7 -3 -10 7747.81 1707.48 3
-7 -3 -11 497.188 589.610 3
-7 -3 -12 5447.99 1633.27 3
-7 -3 -13 804.020 602.785 3
7 4 -7 1015.57 857.867 13
7 4 -6 1209.07 919.092 13
7 4 -5 7519.12 2054.71 13
7 4 -4 13600.4 1880.53 2
7 4 -4 10856.2 2327.50 13
7 4 -3 -231.354 627.359 13
7 4 -3 771.471 490.478 2
-7 -4 2 1053.94 485.751 11
7 4 -2 2304.88 1131.66 13
7 4 -2 2123.64 749.410 2
7 4 -1 1142.35 538.933 2
-7 -4 1 801.840 497.349 11
7 4 -1 1640.97 825.642 13
7 4 0 85481.1 4732.31 2
7 4 0 76264.7 5538.94 13
7 4 1 471.642 543.690 2
7 4 1 1016.00 494.291 9
7 4 1 945.802 525.803 13
7 4 2 19482.9 2365.66 9
7 4 2 16740.0 2426.81 2
7 4 2 17549.2 2768.22 13
7 4 3 -1744.43 916.042 9
7 4 4 10387.8 1767.44 9
7 4 5 53646.8 3867.01 9
-7 -4 -5 59583.0 3980.52 3
7 4 5 45692.6 3341.24 7
7 4 6 9027.72 1673.97 9
-7 -4 -6 12651.3 1852.87 3
7 4 6 8258.16 1488.25 7
7 4 7 14141.8 2088.80 9
-7 -4 -7 19540.0 2573.88 3
7 4 7 14159.4 2131.51 7
7 4 8 5770.56 1382.56 9
7 4 8 6233.45 1470.91 7
-7 -4 -8 7140.03 1447.49 3
7 4 9 401.106 517.037 9
7 4 9 -309.468 528.650 7
-7 -4 -9 866.707 516.338 3
7 4 10 5206.02 1386.48 9
7 4 10 6069.78 1714.38 7
-7 -4 -10 6105.63 1472.90 3
7 4 11 504.198 623.752 7
-7 -4 -11 834.817 592.738 3
-7 -4 -12 7128.32 1743.40 3
-7 -4 -13 1830.91 1063.56 3
7 5 -7 5228.78 1837.40 13
7 5 -6 1439.49 999.624 13
7 5 -5 843.256 533.467 2
7 5 -5 1679.45 1107.38 13
7 5 -4 821.416 450.182 2
7 5 -4 1363.10 882.482 13
7 5 -3 1085.32 709.260 2
7 5 -3 1704.94 1190.20 13
7 5 -2 10067.4 1663.00 2
7 5 -2 8703.26 1998.25 13
7 5 -1 22031.7 2494.76 2
7 5 -1 17846.3 2849.99 13
7 5 0 13305.3 1999.73 2
7 5 0 10506.3 2172.42 13
7 5 1 8787.20 1601.91 2
7 5 1 7588.01 1889.62 13
7 5 2 4125.90 1060.85 2
7 5 2 4658.97 1242.03 9
7 5 3 1468.44 876.958 9
7 5 3 728.691 1166.41 2
7 5 4 13150.7 1945.36 9
7 5 5 7308.46 1464.53 9
-7 -5 -5 9500.20 1665.22 3
7 5 6 11329.1 1846.31 9
-7 -5 -6 13362.2 2095.65 3
7 5 6 9349.50 1679.80 7
7 5 7 1116.19 608.933 9
7 5 7 -161.815 517.899 7
-7 -5 -7 1780.97 708.967 3
7 5 8 2646.50 901.646 9
7 5 8 1794.93 936.876 7
7 5 9 181.305 717.791 7
-7 -5 -9 -589.120 568.194 3
7 5 10 675.462 563.751 7
-7 -5 -10 524.725 597.116 3
7 5 11 551.905 867.784 7
-7 -5 -11 -727.290 703.873 3
7 5 12 388.126 738.028 7
-7 -5 -12 675.869 636.367 3
-7 -5 -13 1906.69 970.175 3
7 6 -6 -179.812 675.353 13
7 6 -5 1156.51 643.594 2
7 6 -5 604.178 655.570 13
7 6 -4 178.586 518.346 2
7 6 -4 947.554 973.469 13
7 6 -3 3348.38 1012.29 2
7 6 -3 3388.57 1484.27 13
7 6 -2 2146.77 1004.09 13
7 6 -2 3315.53 1123.72 2
7 6 -1 371.910 590.123 13
7 6 -1 270.190 328.081 2
7 6 0 1716.11 815.047 2
7 6 0 -593.028 993.947 13
7 6 1 10052.4 1788.59 2
7 6 2 3696.30 1162.50 2
7 6 3 6208.16 1504.79 2
7 6 3 4054.41 1067.55 9
7 6 4 700.130 617.242 9
7 6 4 -1026.53 705.598 2
7 6 5 18.5342 433.069 9
7 6 6 8520.66 1614.38 9
-7 -6 -6 12241.0 1986.80 3
7 6 6 9985.94 1895.98 7
7 6 7 25222.0 2764.48 9
-7 -6 -7 33662.7 3382.33 3
7 6 7 27013.4 3267.42 7
7 6 8 2169.36 1074.71 7
-7 -6 -8 -418.430 591.137 3
7 6 9 1995.36 1008.76 7
-7 -6 -9 2628.59 957.510 3
7 6 10 310.290 583.809 7
-7 -6 -10 503.272 600.348 3
7 6 11 -1448.60 968.983 7
-7 -6 -11 1267.41 688.955 3
-7 -6 -12 10269.4 2165.31 3
7 6 12 8232.91 2279.33 7
7 7 -6 677.399 480.537 2
7 7 -6 -419.881 890.974 13
7 7 -5 3391.39 1018.63 2
7 7 -5 2316.55 1178.63 13
7 7 -4 209.270 534.935 2
7 7 -4 1065.89 884.318 13
7 7 -3 -409.261 541.073 2
7 7 -3 882.929 913.325 13
7 7 -2 1835.02 837.846 2
7 7 -2 2993.34 1335.41 13
7 7 -1 5845.40 1316.33 2
7 7 -1 3526.23 1477.83 13
7 7 0 36773.7 3541.72 2
7 7 1 2539.48 983.140 2
7 7 2 588.233 590.614 2
7 7 3 930.603 706.898 2
7 7 4 1067.63 566.706 2
7 7 4 970.901 575.857 9
7 7 5 25648.1 2828.71 9
7 7 5 44492.4 4115.26 2
7 7 6 1283.35 810.261 2
7 7 6 2249.58 1152.82 7
7 7 7 388.349 718.477 2
-7 -7 -7 1449.69 806.029 3
7 7 8 423.351 688.756 7
-7 -7 -8 1442.58 809.861 3
-7 -7 -9 9721.44 1978.19 3
7 7 9 7690.95 1893.35 7
7 7 10 5565.31 1810.87 7
-7 -7 -10 2918.50 1088.67 3
7 7 11 -420.449 569.308 7
7 7 12 -765.893 693.904 7
7 8 -5 -263.701 517.128 2
7 8 -4 949.222 532.774 2
7 8 -4 446.619 426.142 13
7 8 -3 838.653 724.258 2
7 8 -3 731.192 811.815 13
7 8 -2 3756.53 1216.33 2
7 8 -2 2135.42 1024.35 1
7 8 -1 8657.58 1723.56 2
7 8 0 313.064 433.388 2
7 8 1 942.574 703.292 2
7 8 2 10768.2 1807.67 2
7 8 3 -392.451 395.323 2
7 8 4 9108.75 1807.61 2
7 8 5 4304.52 1210.19 2
7 8 6 2516.82 1075.87 2
7 8 7 13589.7 2637.34 7
7 8 7 17700.8 2684.80 2
7 8 8 5888.99 1627.45 2
7 8 8 4983.64 1473.22 1
7 8 8 2409.85 1191.38 7
7 8 9 1437.74 819.172 7
7 8 10 8114.27 2569.35 7
7 8 11 1331.43 1118.20 7
-7 -9 4 2620.20 1202.86 10
7 9 -4 4816.88 1346.33 2
7 9 -3 3834.48 1336.63 2
7 9 -2 3124.59 1143.51 1
7 9 -2 3697.20 1178.54 2
7 9 -1 439.523 524.784 2
7 9 -1 1249.58 830.922 1
7 9 0 4213.24 1394.71 1
7 9 0 3230.55 1146.50 2
7 9 1 28363.1 3222.62 2
7 9 2 4618.32 1436.95 2
7 9 3 3229.25 1141.95 2
7 9 4 -881.920 652.666 2
7 9 5 -322.591 584.594 2
7 9 5 877.875 769.128 1
7 9 6 35261.7 3937.29 1
7 9 6 31353.1 3446.42 2
7 9 7 1077.96 700.072 2
7 9 7 1277.97 918.173 1
7 9 8 686.441 854.313 7
7 9 8 1834.17 842.797 1
7 9 9 -302.155 461.777 7
7 9 10 1518.61 1279.53 7
-7 -10 3 269.022 555.072 10
7 10 -2 530.633 369.238 1
7 10 -2 -665.713 577.277 2
7 10 -1 9523.28 1942.59 2
7 10 -1 9426.59 1949.07 1
7 10 0 -468.453 606.664 2
7 10 0 -102.419 492.230 1
7 10 1 5878.10 1731.60 1
7 10 1 1888.30 927.366 2
7 10 2 2880.68 1247.01 1
7 10 2 1888.42 707.158 2
7 10 3 10716.2 2033.17 2
7 10 3 12915.5 2383.97 1
7 10 4 6939.28 1786.12 1
7 10 4 6848.26 1629.11 2
7 10 5 -117.342 646.944 1
7 10 5 1020.62 601.502 2
7 10 6 1851.76 890.094 2
7 10 6 650.592 777.905 1
7 10 7 1486.39 878.481 1
7 10 8 8911.55 1982.68 1
7 11 -1 2781.68 1054.28 1
7 11 0 -559.977 539.863 2
7 11 0 670.666 727.553 1
7 11 1 4440.69 1481.29 1
7 11 1 5596.87 1607.09 2
7 11 2 3250.09 1282.96 1
7 11 2 1437.23 900.339 2
7 11 3 2433.99 1098.66 1
7 11 3 2359.20 1070.35 2
7 11 4 2259.06 959.073 1
7 11 4 3417.17 1235.14 2
7 11 5 1754.42 1091.70 1
7 11 5 199.724 452.081 2
7 11 6 2147.86 1086.25 1
7 11 7 3884.84 1458.03 1
-8 8 0 -753.646 737.452 12
-8 8 -1 -289.562 496.627 4
-8 8 -2 4754.43 1491.93 4
-8 8 -3 1792.89 988.900 4
-8 8 -3 2046.91 1124.47 5
-8 8 -4 609.211 728.957 4
-8 8 -4 262.026 407.029 5
-8 8 -5 2923.55 1301.83 4
-8 8 -5 1946.28 907.359 5
-8 8 -6 2636.82 1142.60 4
-8 7 1 2290.76 1150.98 12
-8 7 0 71.2510 556.859 12
-8 7 0 245.317 546.031 5
-8 7 -1 833.636 612.185 4
-8 7 -1 -393.071 615.170 5
-8 7 -2 4758.31 1423.90 4
-8 7 -2 5162.00 1421.97 5
-8 7 -3 2612.54 983.998 4
-8 7 -3 1737.52 902.636 5
-8 7 -4 14711.2 2514.49 4
-8 7 -4 12272.9 2157.84 5
-8 7 -5 149.157 415.013 4
-8 7 -5 120.050 326.410 5
-8 7 -6 2053.87 1152.30 4
-8 7 -6 -254.623 442.355 5
-8 7 -7 308.929 568.521 4
-8 7 -8 -1207.06 1045.93 4
-8 6 3 1692.19 1059.66 12
-8 6 2 3704.55 1515.95 12
-8 6 1 -589.123 865.532 12
-8 6 1 596.338 477.436 5
-8 6 0 626.454 762.510 4
-8 6 0 1148.62 723.542 5
-8 6 -1 109.212 369.848 4
-8 6 -1 1535.03 903.382 5
-8 6 -2 1608.37 1024.06 4
-8 6 -2 1444.72 645.801 5
-8 6 -3 2023.36 1017.15 4
-8 6 -3 822.988 542.670 5
-8 6 -4 233.657 614.137 4
-8 6 -4 1.42191 305.250 5
-8 6 -5 6782.92 1658.64 4
-8 6 -5 5480.27 1404.56 5
-8 6 -6 1871.49 831.086 4
-8 6 -6 962.058 616.179 5
-8 6 -7 235.715 772.413 4
-8 6 -7 95.3637 339.317 5
-8 6 -8 226.328 374.750 4
-8 6 -9 -150.552 463.393 4
-8 6 -10 1358.50 818.243 4
-8 5 4 674.557 797.093 12
-8 5 3 175.577 509.136 12
-8 5 2 4878.41 1721.69 12
-8 5 2 5456.70 1620.52 5
-8 5 1 543.005 821.181 5
-8 5 0 752.637 566.675 5
-8 5 -1 1747.56 769.504 4
-8 5 -1 1135.60 670.393 5
-8 5 -2 3265.51 1132.23 4
-8 5 -2 2507.79 959.510 5
-8 5 -3 18383.4 2763.82 11
-8 5 -3 18483.9 2513.59 4
-8 5 -3 22598.5 2890.88 5
-8 5 -4 3474.18 1089.71 11
-8 5 -4 5489.34 1380.51 4
8 -5 4 3767.74 1146.55 9
-8 5 -4 6337.55 1527.60 5
-8 5 -5 1907.49 840.170 11
-8 5 -5 3014.17 1202.04 4
8 -5 5 2653.74 968.303 9
-8 5 -5 2040.81 935.091 5
-8 5 -6 7127.78 1737.99 4
-8 5 -6 6428.34 1481.87 5
-8 5 -7 4996.32 1426.86 4
-8 5 -7 6685.94 1589.59 5
-8 5 -8 5527.37 1582.15 4
-8 5 -9 2453.69 1048.14 4
-8 5 -10 -275.292 572.030 4
-8 5 -11 2195.70 1095.90 4
8 -4 -5 -25.5212 480.780 13
-8 4 4 1646.67 1014.21 12
8 -4 -4 1300.15 873.320 13
-8 4 3 4928.45 1598.06 12
-8 4 3 6483.72 1697.56 5
-8 4 2 991.062 801.944 5
-8 4 1 8477.78 1822.80 5
-8 4 0 1987.56 812.816 5
-8 4 -1 -65.8437 743.534 11
-8 4 -1 71.9287 537.472 4
-8 4 -1 -522.600 520.044 5
-8 4 -2 17961.1 2448.32 4
-8 4 -2 16859.1 2649.27 11
-8 4 -2 21135.8 2731.42 5
-8 4 -3 -314.966 415.647 11
-8 4 -3 145.709 346.498 4
8 -4 3 -206.773 508.220 9
-8 4 -4 10411.6 1817.44 4
-8 4 -4 10032.0 1888.33 11
8 -4 4 9999.73 1945.99 9
-8 4 -5 2508.31 1007.77 11
-8 4 -5 3006.32 1121.22 4
8 -4 5 2661.12 1092.40 9
-8 4 -6 12643.6 2176.27 11
-8 4 -6 16866.9 2440.86 4
-8 4 -7 3760.74 1173.18 11
-8 4 -7 5454.46 1397.35 4
-8 4 -8 8571.59 1861.76 4
-8 4 -9 6007.91 1589.81 4
-8 4 -10 -788.829 810.036 4
-8 4 -11 8895.82 2010.99 4
-8 4 -12 -1191.64 916.586 4
8 -3 -5 2495.33 1292.39 13
-8 3 5 5600.05 1890.73 12
-8 3 4 834.761 704.189 12
8 -3 -4 -1295.28 863.051 13
8 -3 -3 149.331 735.137 13
-8 3 3 582.468 612.731 5
8 -3 -2 555.124 786.138 13
-8 3 2 1612.35 852.756 5
-8 3 1 34330.8 3532.82 5
8 -3 -1 24085.8 3027.60 13
-8 3 0 1878.69 905.397 11
8 -3 0 1555.54 935.877 13
-8 3 0 1607.64 901.854 5
-8 3 -1 3494.02 1359.52 11
-8 3 -1 2503.45 935.956 4
8 -3 1 2841.63 1038.35 9
-8 3 -2 66.2125 478.867 11
-8 3 -2 97.9658 536.895 4
8 -3 2 664.534 727.649 9
-8 3 -3 2421.32 1008.66 11
-8 3 -3 2283.19 909.619 4
8 -3 3 1942.72 829.168 9
-8 3 -4 68349.2 5040.82 11
-8 3 -4 68371.2 4399.34 4
8 -3 4 72193.0 5119.06 9
-8 3 -5 1198.68 898.810 11
-8 3 -5 922.038 664.713 4
8 -3 5 804.895 463.972 9
-8 3 -6 4927.28 1415.77 11
-8 3 -6 5025.74 1364.23 4
-8 3 -6 5642.10 1226.16 3
-8 3 -7 4290.33 1219.07 4
-8 3 -7 4453.46 1196.64 3
-8 3 -8 7717.36 1671.80 4
-8 3 -8 8472.67 1666.21 3
-8 3 -9 39094.5 3850.74 4
-8 3 -9 37760.8 3454.22 3
-8 3 -10 -596.569 395.147 4
-8 3 -10 -136.569 515.037 3
-8 3 -11 3619.71 1172.76 4
-8 3 -11 2612.14 1034.80 3
-8 3 -12 1757.42 977.153 3
-8 2 6 360.128 501.328 12
-8 2 5 2808.11 1374.53 12
8 -2 -5 749.885 903.777 13
-8 2 4 2830.54 1260.70 12
8 -2 -4 2198.85 1037.96 13
8 -2 -3 17603.8 2975.61 13
-8 2 3 21962.9 2762.55 5
8 -2 -2 7463.95 1825.01 13
-8 2 2 10227.5 1886.57 5
8 -2 -1 1424.62 890.772 13
-8 2 1 1409.58 792.931 5
-8 2 0 32621.0 3749.74 11
8 -2 0 31996.5 3099.86 9
8 -2 0 32723.0 3425.38 13
-8 2 -1 37524.2 3954.72 11
8 -2 1 40371.5 3538.80 9
8 -2 1 39993.3 3689.04 13
-8 2 -1 40881.2 3255.26 4
-8 2 -2 15313.2 1974.87 4
-8 2 -2 14023.1 2246.45 11
8 -2 2 16655.2 2254.21 9
8 -2 2 17203.9 2362.89 13
-8 2 -3 26978.6 2467.31 4
-8 2 -3 29271.0 3285.09 11
8 -2 3 29192.4 3166.89 9
-8 2 -4 5662.75 1489.13 11
-8 2 -4 4085.23 950.408 4
8 -2 4 5324.90 1384.56 9
-8 2 -5 48150.8 3511.97 4
8 -2 5 48884.5 4138.88 9
-8 2 -6 51245.2 3678.12 4
-8 2 -6 56929.7 4047.45 3
-8 2 -7 -53.3827 409.045 4
-8 2 -7 -596.067 530.978 3
-8 2 -8 9303.43 1804.92 4
-8 2 -8 10630.3 1883.79 3
-8 2 -9 6878.55 1557.13 4
-8 2 -9 6786.75 1397.58 3
-8 2 -10 21159.4 2703.97 3
-8 2 -11 14144.5 2225.21 3
-8 2 -12 1845.07 945.377 3
8 -1 -6 -241.361 583.543 13
-8 1 6 0.14295 652.028 12
-8 1 5 544.323 852.526 12
8 -1 -5 438.097 913.752 13
8 -1 -4 18394.1 3223.32 13
8 -1 -3 3651.86 1429.31 13
-8 1 3 2986.18 1033.78 5
8 -1 -2 6556.25 1736.71 13
-8 1 2 5823.04 1489.48 5
-8 1 1 3999.49 1387.65 11
8 -1 -1 2752.00 1117.90 13
-8 1 0 38609.0 3992.73 11
8 -1 0 41117.9 3593.56 9
8 -1 0 38622.2 3744.90 13
-8 1 -1 25322.9 3079.04 11
8 -1 1 28727.0 3004.04 9
8 -1 1 29836.4 3231.04 13
-8 1 -2 26671.5 2300.18 4
-8 1 -2 28920.7 3255.45 11
8 -1 2 31827.5 3188.94 9
8 -1 2 32272.2 3301.64 13
-8 1 -3 5993.76 1448.94 11
-8 1 -3 6193.54 1060.04 4
8 -1 3 8332.38 1671.77 9
8 -1 3 7994.89 1709.09 13
8 -1 4 4688.02 1369.10 9
8 -1 5 104619. 6026.63 9
-8 1 -5 115654. 5708.07 3
8 -1 6 4265.34 1353.69 9
-8 1 -6 4688.00 1195.15 3
-8 1 -7 49200.7 3914.72 3
-8 1 -8 1486.85 775.254 3
-8 1 -9 -479.854 463.881 3
-8 1 -10 37286.8 3619.85 3
-8 1 -11 161.406 411.089 3
-8 1 -12 11278.5 2096.75 3
-8 1 -13 793.457 519.435 3
8 0 -6 621.733 615.705 13
-8 0 6 970.437 718.601 12
-8 0 5 971.566 732.358 12
8 0 -5 -241.370 684.735 13
8 0 -4 2877.25 1391.34 13
8 0 -3 2600.50 1151.83 13
8 0 -2 69569.3 5420.97 13
-8 0 1 -130.380 537.849 11
8 0 -1 -901.989 778.994 13
-8 0 0 6021.74 1697.47 11
8 0 0 4408.18 1267.42 9
8 0 0 5568.31 1556.34 13
-8 0 -1 8411.13 1662.42 11
8 0 1 10401.2 1796.03 9
8 0 1 9726.76 1812.53 13
-8 0 -2 23273.3 2970.13 11
8 0 2 27018.7 2849.64 9
8 0 2 27687.9 3191.90 13
8 0 3 88367.3 5288.89 9
8 0 3 92576.1 5677.77 13
8 0 4 4004.44 1335.64 9
8 0 5 7074.42 1479.07 9
-8 0 -5 10327.1 1642.89 3
8 0 6 9538.42 1858.33 9
-8 0 -6 8151.82 1506.16 3
8 0 7 66735.5 5192.94 9
-8 0 -7 67020.9 4602.28 3
-8 0 -8 12033.2 2022.73 3
-8 0 -9 27.2481 575.895 3
-8 0 -10 278.770 421.782 3
-8 0 -11 6129.15 1577.53 3
-8 0 -12 11347.0 2141.86 3
-8 0 -13 -775.011 672.948 3
8 1 -6 5899.40 2198.46 13
-8 -1 5 2202.12 1117.98 12
8 1 -5 2215.29 1320.01 13
8 1 -4 4057.43 1351.30 13
8 1 -3 20348.2 3101.01 13
-8 -1 2 4596.29 1211.87 11
8 1 -2 6229.27 1720.24 13
-8 -1 1 19760.3 2809.79 11
8 1 -1 21155.7 2909.26 13
-8 -1 0 43427.5 4040.79 11
8 1 0 51699.9 4210.70 9
8 1 0 59435.9 3744.89 2
8 1 0 48961.2 4376.84 13
-8 -1 -1 3033.89 1273.25 11
8 1 1 3231.91 1043.70 9
8 1 1 5059.06 1308.90 2
8 1 1 2434.80 884.299 13
8 1 2 28326.9 3029.06 9
8 1 2 27817.6 3233.38 13
8 1 3 19378.2 2577.40 9
8 1 3 19210.1 2779.05 13
8 1 4 25088.7 2946.43 9
8 1 5 59584.2 4507.80 9
-8 -1 -5 49787.0 3908.47 3
8 1 6 13368.5 2232.85 9
-8 -1 -6 11921.4 1846.49 3
8 1 7 2165.64 1048.13 9
-8 -1 -7 -592.846 755.913 3
8 1 8 15208.2 2743.59 9
-8 -1 -8 11239.5 1966.05 3
-8 -1 -9 9050.97 1701.57 3
-8 -1 -10 5386.44 1426.01 3
-8 -1 -11 9648.80 1935.48 3
-8 -1 -12 1132.31 734.766 3
-8 -1 -13 3765.95 1305.08 3
8 2 -6 9619.34 2424.17 13
8 2 -5 2067.70 969.309 13
8 2 -4 2143.86 1074.91 13
8 2 -3 261.219 461.510 13
-8 -2 2 1138.11 1020.07 11
8 2 -2 1128.90 792.130 13
-8 -2 1 66318.2 5099.44 11
8 2 -1 76332.1 4117.80 2
8 2 -1 73463.0 5700.88 13
-8 -2 0 766.794 562.438 11
8 2 0 1169.43 567.505 2
8 2 0 1214.36 789.575 9
8 2 0 1395.08 841.534 13
-8 -2 -1 8405.15 1831.92 11
8 2 1 10433.1 1932.51 9
8 2 1 10474.0 2091.73 13
8 2 2 -723.959 833.193 9
8 2 2 -313.866 570.592 13
8 2 3 5010.89 1437.81 9
8 2 3 3243.32 1411.92 13
8 2 4 85780.0 5184.97 9
8 2 5 -387.394 508.263 9
-8 -2 -5 510.521 546.495 3
8 2 6 13163.8 2270.43 9
-8 -2 -6 10724.8 1849.79 3
8 2 7 -720.793 754.084 9
-8 -2 -7 -787.318 738.923 3
8 2 8 9170.07 1995.73 9
-8 -2 -8 9888.09 1895.74 3
8 2 9 7976.45 1869.87 9
-8 -2 -9 9814.05 1875.18 3
8 2 10 -499.329 872.877 9
-8 -2 -10 -464.865 660.156 3
-8 -2 -11 2571.41 1073.30 3
-8 -2 -12 492.039 421.609 3
-8 -2 -13 4640.98 1406.35 3
8 3 -6 -764.652 953.088 13
8 3 -5 2160.85 1280.77 13
8 3 -4 2600.86 1394.08 13
8 3 -3 20283.4 3262.33 13
-8 -3 2 3734.69 1184.62 11
8 3 -2 6102.12 1708.84 13
8 3 -2 6301.68 1196.27 2
8 3 -1 521.860 455.028 2
-8 -3 1 -891.137 618.915 11
8 3 -1 -528.265 1011.71 13
-8 -3 0 1242.04 584.962 11
8 3 0 1348.29 530.776 2
8 3 0 -320.047 643.322 13
-8 -3 -1 32247.6 3558.61 11
8 3 1 39958.4 3766.70 9
8 3 1 46211.3 3695.91 2
8 3 1 41061.6 4262.54 13
8 3 2 4730.18 1352.19 9
8 3 2 4064.16 1360.02 2
8 3 2 4277.68 1575.88 13
8 3 3 7222.36 1555.66 9
8 3 4 -1861.40 1205.72 9
8 3 5 1531.43 911.351 9
-8 -3 -5 1782.71 743.443 3
8 3 6 34136.2 3502.42 9
-8 -3 -6 36614.0 3423.42 3
8 3 7 6045.93 1515.49 9
-8 -3 -7 5378.17 1421.84 3
8 3 8 579.183 593.567 9
-8 -3 -8 -306.024 889.834 3
8 3 9 392.236 536.102 9
-8 -3 -9 1434.18 783.357 3
8 3 10 821.406 656.210 9
-8 -3 -10 310.273 461.965 3
8 3 11 6216.21 1696.09 9
-8 -3 -11 8218.40 1830.05 3
8 3 12 1953.14 1097.64 9
-8 -3 -12 10173.0 2142.02 3
-8 -3 -13 1821.99 1043.94 3
8 4 -6 2784.21 1368.83 13
8 4 -5 716.833 837.919 13
8 4 -4 954.621 790.213 13
8 4 -3 -606.240 570.930 2
8 4 -3 -854.979 785.444 13
8 4 -2 308.552 331.501 2
8 4 -2 117.888 550.648 13
-8 -4 1 6260.68 1524.75 11
8 4 -1 8905.57 1555.33 2
8 4 -1 8202.87 2212.28 13
-8 -4 0 13513.4 2248.26 11
8 4 0 19201.5 2352.93 2
8 4 0 18093.6 3049.07 13
8 4 1 3666.55 1145.12 2
8 4 1 4804.08 1387.25 9
8 4 1 2326.03 1002.55 13
8 4 2 -188.471 441.430 9
8 4 2 945.572 801.294 2
8 4 2 -178.104 803.493 13
8 4 3 211.751 698.700 9
8 4 4 5708.65 1346.07 9
8 4 5 30775.5 3297.85 9
8 4 6 9874.19 1834.80 9
-8 -4 -6 12770.4 2122.69 3
8 4 7 171.330 698.846 9
-8 -4 -7 1666.34 833.474 3
8 4 8 1006.26 636.856 9
-8 -4 -8 -199.678 495.094 3
8 4 9 299.121 468.481 9
-8 -4 -9 -159.525 532.514 3
8 4 10 -65.1001 444.631 9
-8 -4 -10 17.5791 495.723 3
-8 -4 -11 5829.88 1566.32 3
-8 -4 -12 181.067 513.485 3
8 5 -5 451.032 875.670 13
8 5 -4 1252.54 1214.03 13
8 5 -3 912.003 473.229 2
8 5 -3 523.048 508.824 13
8 5 -2 10111.4 1748.64 2
8 5 -2 9160.08 2389.20 13
8 5 -1 12098.9 1969.17 2
8 5 -1 9516.98 2338.36 13
8 5 0 1708.35 777.430 2
-8 -5 0 550.000 381.936 11
8 5 0 1928.65 1273.32 13
8 5 1 3341.21 1050.67 2
8 5 1 2724.53 1327.34 13
8 5 2 19.2377 432.152 2
8 5 2 1046.29 803.744 9
8 5 3 141.183 580.500 9
8 5 4 13244.8 2148.11 9
8 5 5 614.861 417.473 9
8 5 6 3627.25 1235.89 9
-8 -5 -6 4011.03 1222.07 3
8 5 7 3964.64 1245.29 9
8 5 7 1452.19 838.545 7
-8 -5 -7 2772.94 938.922 3
8 5 8 9002.49 1792.82 9
-8 -5 -8 11259.3 1989.94 3
8 5 9 1391.91 742.337 9
-8 -5 -9 1062.08 713.865 3
-8 -5 -10 -462.219 408.228 3
-8 -5 -11 1605.03 707.262 3
-8 -5 -12 2523.03 1164.30 3
8 6 -5 -709.018 615.172 13
8 6 -4 1074.33 622.098 2
8 6 -4 1240.11 1191.54 13
8 6 -3 980.598 659.087 2
8 6 -3 331.549 477.121 13
8 6 -2 127.949 434.800 2
8 6 -2 675.494 600.933 13
8 6 -1 11924.1 1988.48 2
8 6 -1 7660.30 2039.31 13
8 6 0 3410.74 1604.85 13
8 6 0 2979.00 1017.19 2
8 6 1 27708.7 3048.11 2
8 6 2 -568.590 580.574 2
8 6 3 5703.24 1497.23 2
8 6 3 4106.42 1346.96 9
8 6 4 14219.6 2329.51 9
8 6 4 22764.1 3096.36 2
8 6 5 -1051.54 744.170 9
8 6 5 1359.46 649.857 2
8 6 6 22516.1 2824.14 9
8 6 7 1883.90 692.914 9
8 6 7 1361.79 789.424 7
-8 -6 -7 2541.27 1097.09 3
8 6 8 292.081 523.466 9
8 6 8 -217.048 479.731 7
8 6 9 5183.27 1442.38 7
-8 -6 -9 5183.12 1407.92 3
8 6 10 1557.42 990.981 7
-8 -6 -10 2058.30 1017.32 3
-8 -6 -11 8375.83 2028.78 3
-8 -6 -12 1038.05 796.379 3
8 7 -4 3280.75 1185.25 2
8 7 -4 1631.78 1185.13 13
8 7 -3 3807.82 1224.74 2
8 7 -3 4464.16 1740.47 13
8 7 -2 2086.27 777.023 2
8 7 -2 761.826 815.356 13
8 7 -1 3173.52 1195.51 2
8 7 -1 2156.83 1332.53 13
8 7 0 18649.1 2631.28 2
8 7 1 14705.7 2262.48 2
8 7 2 3385.83 1079.78 2
8 7 3 -218.033 572.629 2
8 7 4 1434.52 903.656 2
8 7 5 13724.9 2229.53 9
8 7 5 21361.4 2988.10 2
8 7 6 6500.10 1500.30 9
8 7 7 487.122 625.784 2
8 7 8 1322.22 846.413 7
-8 -7 -8 2978.28 1118.52 3
8 7 9 3359.55 1229.97 7
-8 -7 -9 3260.87 1214.59 3
8 7 10 3487.42 1318.99 7
-8 -7 -10 6982.47 1715.51 3
8 7 11 3735.72 1411.92 7
8 8 -4 611.500 697.420 2
8 8 -4 84.3028 581.199 13
8 8 -3 1863.68 883.664 2
8 8 -3 1789.92 1103.47 13
8 8 -2 5040.27 1349.24 2
8 8 -1 2971.11 1081.05 2
8 8 0 14126.4 2278.57 2
8 8 1 980.412 637.403 2
8 8 2 20866.6 2754.44 2
8 8 3 6307.24 1602.44 2
8 8 4 1216.55 767.370 2
8 8 5 8519.66 1879.66 2
8 8 6 -1406.64 889.365 2
8 8 7 24891.7 3307.80 2
8 8 8 2145.52 1169.29 2
8 8 8 61.2391 471.681 7
8 8 9 106.662 506.778 2
8 8 9 453.316 687.156 7
8 8 10 1768.24 1010.84 7
8 9 -2 9050.79 1975.61 1
8 9 -2 8089.82 1809.63 2
8 9 -1 -617.904 653.160 2
8 9 -1 750.953 879.080 1
8 9 0 9508.78 2055.07 2
8 9 1 -535.572 578.891 2
8 9 2 9142.54 2042.33 2
8 9 3 6082.83 1500.02 2
8 9 4 324.145 517.632 2
8 9 5 6532.78 1635.23 2
8 9 6 3616.55 1195.71 2
8 9 7 5607.74 1610.37 2
8 9 7 4853.32 1488.97 1
8 9 8 61.9260 444.800 2
8 9 8 1202.90 956.678 1
8 9 9 3681.79 1563.38 7
8 10 -1 4634.55 1379.60 2
8 10 -1 6031.24 1721.42 1
8 10 0 5629.91 1742.84 1
8 10 0 5560.25 1558.47 2
8 10 1 816.912 574.179 1
8 10 1 -1199.20 819.148 2
8 10 2 451.156 403.853 1
8 10 2 876.213 697.188 2
8 10 3 3152.23 1337.13 1
8 10 3 3188.00 1226.18 2
8 10 4 6890.86 1744.85 1
8 10 4 4434.17 1438.00 2
8 10 5 3521.84 1154.66 2
8 10 5 5386.02 1671.86 1
8 10 6 133.591 368.363 2
8 10 6 982.670 856.661 1
8 10 7 868.991 643.708 2
8 10 7 1790.76 1022.11 1
8 10 8 4033.74 1434.89 1
8 11 2 922.689 621.469 1
8 11 2 1018.33 733.648 2
8 11 3 183.027 642.608 1
8 11 3 198.001 589.815 2
8 11 4 1261.60 997.492 1
8 11 4 1934.52 1048.51 2
8 11 5 1017.22 695.106 2
-9 7 -1 -1076.60 976.885 12
-9 7 -2 2026.01 1044.01 4
-9 7 -2 2306.09 950.261 5
-9 7 -3 1250.53 913.945 4
-9 7 -3 519.555 604.944 5
-9 7 -4 -15.9135 344.179 4
-9 7 -4 160.944 596.685 5
-9 7 -5 363.663 471.880 4
-9 7 -5 1096.85 754.053 5
-9 7 -6 665.749 465.539 4
-9 7 -6 1161.04 721.542 5
-9 6 1 998.214 850.971 12
-9 6 1 1911.29 1073.02 5
-9 6 0 -811.460 866.496 5
-9 6 -1 2639.92 1519.79 4
-9 6 -1 2069.65 976.719 5
-9 6 -2 2034.06 1059.20 4
-9 6 -2 444.114 434.490 5
-9 6 -3 906.188 790.674 4
-9 6 -3 -624.092 637.308 5
-9 6 -4 5210.87 1357.93 4
-9 6 -4 8813.68 1952.29 5
-9 6 -5 4568.20 1455.14 4
-9 6 -5 3593.93 1157.10 5
-9 6 -6 1312.11 870.880 4
-9 6 -6 658.595 652.595 5
-9 6 -7 4059.52 1531.44 4
-9 6 -7 2463.83 1043.79 5
-9 6 -8 220.120 406.091 4
-9 6 -9 411.395 764.246 4
-9 5 2 4251.55 1611.75 12
-9 5 2 3380.04 1283.48 5
-9 5 1 372.142 553.953 5
-9 5 0 909.851 587.741 5
-9 5 -1 920.568 648.213 4
-9 5 -1 -345.473 384.701 5
-9 5 -2 -790.181 690.945 4
-9 5 -2 -37.4053 540.323 5
-9 5 -3 29265.8 3391.05 4
-9 5 -3 22608.6 3278.10 11
-9 5 -3 31586.9 3612.20 5
-9 5 -4 499.852 551.583 11
-9 5 -4 2115.22 935.362 4
-9 5 -4 1642.96 753.750 5
-9 5 -5 1354.02 850.700 11
-9 5 -5 1079.40 608.462 4
-9 5 -5 2288.83 1069.24 5
-9 5 -6 715.622 710.854 4
9 -5 6 -560.645 548.058 9
-9 5 -6 447.671 525.732 5
-9 5 -7 5382.90 1494.04 4
9 -5 7 5223.22 1679.70 9
-9 5 -7 4411.34 1353.80 5
-9 5 -8 11625.7 2225.19 4
-9 5 -9 419.855 406.290 4
-9 5 -10 -402.973 686.373 4
-9 4 3 1024.93 960.507 12
-9 4 3 758.240 676.119 5
-9 4 2 5924.54 1916.22 5
-9 4 1 2571.59 1089.13 5
-9 4 0 13196.5 2404.89 5
-9 4 -1 10394.5 2118.10 5
-9 4 -2 190.900 733.821 11
-9 4 -2 1284.26 866.845 4
-9 4 -2 1661.48 934.863 5
-9 4 -3 2707.48 1080.63 11
-9 4 -3 2825.94 990.246 4
-9 4 -4 2266.68 1050.77 11
-9 4 -4 3952.68 1259.93 4
9 -4 4 2830.23 1089.07 9
-9 4 -5 34389.6 3776.14 11
-9 4 -5 40534.0 3709.78 4
9 -4 5 36450.5 4047.39 9
-9 4 -6 779.084 724.538 11
-9 4 -6 -319.372 349.374 4
9 -4 6 -745.745 582.315 9
-9 4 -7 256.342 331.777 11
-9 4 -7 -768.115 645.013 4
9 -4 7 -4.12857 759.312 9
-9 4 -8 8962.94 1877.87 4
9 -3 -4 381.105 783.612 13
9 -3 -3 -456.243 498.895 13
-9 3 3 -90.2536 371.299 5
9 -3 -2 3416.15 1163.82 13
-9 3 2 6620.62 1666.63 5
-9 3 1 9858.43 1984.88 5
-9 3 0 10447.3 2054.25 5
-9 3 -1 14959.2 2747.07 11
-9 3 -1 17928.2 2588.10 5
-9 3 -2 3070.39 1107.71 11
-9 3 -2 2831.39 965.490 4
9 -3 2 3035.41 1029.64 9
-9 3 -3 6453.75 1707.08 11
-9 3 -3 6560.75 1427.08 4
9 -3 3 6151.01 1514.22 9
-9 3 -4 32837.8 3068.54 4
-9 3 -4 29349.0 3462.67 11
9 -3 4 34270.9 3809.11 9
-9 3 -5 7828.66 1786.07 11
-9 3 -5 6470.61 1440.10 4
9 -3 5 9656.37 2146.31 9
-9 3 -6 12475.5 2221.98 11
9 -3 6 13575.2 2582.10 9
-9 3 -7 4771.51 1416.03 11
9 -3 7 6196.09 1826.85 9
-9 3 -7 5653.81 1301.34 3
-9 3 -8 -76.9026 518.333 3
-9 3 -9 20262.2 2658.86 3
-9 3 -10 1433.54 767.225 3
-9 3 -11 6716.55 1614.77 3
-9 2 4 -993.215 911.824 12
9 -2 -4 1571.70 1061.61 13
9 -2 -3 15498.7 2836.71 13
9 -2 -2 3683.62 1639.23 13
-9 2 2 856.983 726.543 5
9 -2 -1 -52.9093 503.525 13
-9 2 1 911.122 740.353 5
-9 2 0 255.218 496.760 11
9 -2 0 980.157 813.419 13
-9 2 -1 14896.1 2590.24 11
9 -2 1 14815.5 2312.34 9
9 -2 1 15628.5 2530.38 13
-9 2 -2 36162.5 4050.58 11
9 -2 2 39329.2 3799.71 9
-9 2 -3 2719.06 1197.30 11
9 -2 3 3777.80 1190.17 9
-9 2 -4 967.551 628.499 11
9 -2 4 1494.39 1055.89 9
-9 2 -5 -158.938 446.681 11
9 -2 5 -210.194 726.730 9
9 -2 6 54387.7 4917.30 9
9 -2 7 7753.68 1989.79 9
-9 2 -7 6677.13 1464.33 3
-9 2 -8 11468.3 1948.73 3
-9 2 -9 680.733 563.161 3
-9 2 -10 514.979 647.774 3
-9 2 -11 25891.0 3322.14 3
-9 2 -12 863.064 597.615 3
-9 1 4 -339.538 599.398 12
9 -1 -4 1280.25 1052.74 13
9 -1 -3 2698.19 1246.83 13
9 -1 -2 -670.082 908.962 13
-9 1 2 -629.493 667.652 5
-9 1 1 38206.5 4469.33 11
9 -1 -1 36442.9 4183.19 13
-9 1 0 757.895 951.217 11
9 -1 0 -412.617 717.071 9
9 -1 0 213.799 570.962 13
-9 1 -1 2827.17 1279.57 11
9 -1 1 2947.66 1108.38 9
9 -1 1 3140.24 1237.10 13
-9 1 -2 20264.5 2831.50 11
9 -1 2 25005.9 3066.40 9
9 -1 2 21877.9 2982.09 13
-9 1 -3 3408.53 1209.68 11
9 -1 3 2914.38 1505.66 9
9 -1 3 3455.32 1271.35 13
-9 1 -4 57710.3 5043.56 11
9 -1 4 65597.6 5173.90 9
9 -1 5 7343.40 1798.87 9
9 -1 6 805.320 907.454 9
-9 1 -6 1060.10 669.362 3
9 -1 7 20357.5 3111.70 9
-9 1 -7 21744.1 2707.92 3
9 -1 8 13002.4 2527.89 9
-9 1 -8 11394.9 1957.75 3
-9 1 -9 16108.7 2469.30 3
-9 1 -10 2786.70 1131.09 3
-9 1 -11 -418.539 527.102 3
-9 1 -12 2157.01 886.893 3
-9 0 5 1373.09 1156.69 12
9 0 -5 5447.87 2193.38 13
9 0 -4 1605.74 1118.58 13
9 0 -3 1943.40 1187.24 13
9 0 -2 26691.9 3661.79 13
-9 0 2 31480.3 3329.84 5
-9 0 1 7980.63 2056.43 11
9 0 -1 9263.25 2155.24 13
-9 0 0 5331.69 1612.26 11
9 0 0 7043.07 1669.94 9
9 0 0 7214.89 1781.38 13
-9 0 -1 3035.71 1228.98 11
9 0 1 2905.87 1140.04 9
9 0 1 2813.61 1095.06 13
-9 0 -2 489.751 467.950 11
9 0 2 117.194 576.994 9
9 0 2 680.106 835.418 13
-9 0 -3 29758.5 3674.52 11
9 0 3 36170.9 3700.39 9
9 0 3 30311.3 3546.58 13
9 0 4 6182.98 1487.42 9
9 0 5 2675.76 1084.06 9
9 0 6 16680.2 2681.40 9
-9 0 -6 18216.5 2472.13 3
9 0 7 6501.03 1756.95 9
-9 0 -7 5862.74 1427.98 3
9 0 8 2281.29 967.761 9
-9 0 -8 3074.12 1127.33 3
9 0 9 3735.31 1313.95 9
-9 0 -9 4877.91 1281.25 3
-9 0 -10 778.530 1015.16 3
-9 0 -11 6300.87 1616.03 3
-9 0 -12 7753.10 1967.04 3
9 1 -5 598.539 719.765 13
9 1 -4 5241.64 1803.75 13
9 1 -3 -278.490 809.839 13
9 1 -2 3368.23 1426.38 13
-9 -1 1 821.210 512.751 11
9 1 -1 734.218 798.691 13
-9 -1 0 38686.7 4142.68 11
9 1 0 42800.0 4157.30 9
9 1 0 43136.3 4613.29 13
-9 -1 -1 10252.4 2136.14 11
9 1 1 12113.6 2231.63 9
9 1 1 13003.3 1997.21 2
9 1 1 12256.3 2469.65 13
-9 -1 -2 868.547 824.873 11
9 1 2 996.435 701.998 9
9 1 2 1407.93 996.482 13
9 1 3 3869.84 1316.53 9
9 1 3 2933.29 1207.34 13
9 1 4 4910.58 1419.25 9
9 1 5 36797.8 3820.70 9
9 1 6 289.728 617.843 9
-9 -1 -6 1941.65 1025.80 3
9 1 7 538.338 580.919 9
-9 -1 -7 1818.12 868.312 3
9 1 8 -182.329 524.059 9
-9 -1 -8 145.668 481.397 3
9 1 9 769.046 728.375 9
-9 -1 -9 -1279.29 948.151 3
9 1 10 12807.9 2692.44 9
-9 -1 -10 12832.4 2341.59 3
9 1 11 1685.85 1090.98 9
-9 -1 -11 1940.36 841.524 3
9 1 12 340.091 517.909 9
-9 -1 -12 616.580 664.247 3
9 2 -5 1165.80 1263.44 13
9 2 -4 3850.21 1581.89 13
9 2 -3 485.305 586.874 13
9 2 -2 17563.6 3127.40 13
-9 -2 1 7924.98 1939.09 11
9 2 -1 8809.58 2190.20 13
-9 -2 0 71.9994 417.989 11
9 2 0 1330.94 700.560 2
9 2 0 912.921 651.823 13
-9 -2 -1 -36.1882 684.764 11
9 2 1 610.921 500.505 2
9 2 1 580.513 581.943 9
9 2 1 870.619 717.614 13
-9 -2 -2 863.966 827.763 11
9 2 2 1818.33 1045.16 9
9 2 2 203.892 473.330 2
9 2 2 -1258.48 938.537 13
9 2 3 4859.00 1519.79 9
9 2 4 12877.6 2213.00 9
9 2 5 4082.76 1403.05 9
9 2 6 883.998 810.966 9
-9 -2 -6 852.071 678.995 3
9 2 7 8061.99 1845.24 9
-9 -2 -7 8042.19 1736.13 3
9 2 8 -166.627 486.573 9
-9 -2 -8 -391.576 418.581 3
9 2 9 138.867 559.723 9
-9 -2 -9 405.881 393.914 3
9 2 10 52.0532 442.615 9
-9 -2 -10 307.775 471.868 3
9 2 11 199.374 492.927 9
-9 -2 -11 1090.89 664.259 3
9 2 12 3138.16 1375.89 9
-9 -2 -12 5635.53 1618.90 3
9 2 13 1336.75 964.386 9
9 3 -5 1150.91 1123.12 13
9 3 -4 -1641.77 1416.07 13
9 3 -3 2152.66 1149.64 13
-9 -3 2 -1011.77 805.753 11
9 3 -2 54.8899 737.089 13
-9 -3 1 3413.79 1365.89 11
9 3 -1 4509.14 1891.40 13
9 3 -1 5786.04 1257.16 2
-9 -3 0 7782.73 1794.38 11
9 3 0 11471.6 1797.18 2
9 3 0 8318.61 2231.47 13
-9 -3 -1 -166.996 511.674 11
9 3 1 541.141 437.018 2
9 3 1 932.339 795.301 9
9 3 1 1389.81 951.174 13
9 3 2 809.239 827.476 9
9 3 2 494.695 785.626 13
9 3 3 1701.00 635.793 9
9 3 4 8745.22 1888.82 9
9 3 5 12369.8 2169.28 9
9 3 6 7427.20 1793.89 9
-9 -3 -6 8207.35 1786.16 3
9 3 7 5188.82 1523.01 9
-9 -3 -7 4906.95 1502.71 3
9 3 8 -279.740 504.852 9
-9 -3 -8 -128.956 459.636 3
9 3 9 -928.424 824.969 9
-9 -3 -9 1510.69 1004.83 3
9 3 10 2629.77 1163.93 9
-9 -3 -10 2969.84 1178.05 3
9 3 11 2342.33 1122.12 9
-9 -3 -11 3766.13 1356.10 3
9 3 12 3219.24 1386.45 9
-9 -3 -12 4626.40 1505.41 3
9 4 -4 96.1344 543.277 13
9 4 -3 571.582 829.753 13
9 4 -2 8494.11 2452.23 13
-9 -4 1 1739.80 824.031 11
9 4 -1 5884.43 1933.32 13
9 4 -1 4184.64 1238.00 2
9 4 0 4750.94 1264.85 2
-9 -4 0 3422.26 1218.96 11
9 4 0 2261.96 1221.33 13
-9 -4 -1 -567.038 706.659 11
9 4 1 962.414 583.353 2
9 4 1 2146.12 1023.62 13
9 4 2 789.362 639.166 9
9 4 2 2443.92 1231.15 13
9 4 3 9714.30 2101.46 9
9 4 3 9256.38 2026.98 2
9 4 4 441.327 437.215 9
9 4 5 4235.12 1384.36 9
9 4 6 964.737 780.537 9
9 4 7 4544.99 1496.46 9
-9 -4 -7 7099.39 1692.16 3
9 4 8 1145.32 777.599 9
-9 -4 -8 154.520 724.135 3
9 4 9 1957.92 765.455 9
-9 -4 -9 655.898 600.390 3
9 4 10 2708.47 1289.45 9
-9 -4 -10 1703.16 898.905 3
9 4 11 -974.395 498.642 9
-9 -4 -11 739.375 714.685 3
-9 -4 -12 4771.14 1596.52 3
9 5 -4 1451.77 1230.11 13
9 5 -3 617.076 998.036 13
9 5 -2 -281.536 348.206 2
9 5 -2 1483.07 1074.12 13
9 5 -1 348.654 533.880 13
9 5 -1 977.913 684.174 2
9 5 0 33848.7 3411.09 2
9 5 0 22571.2 3662.97 13
-9 -5 -1 889.960 723.556 11
9 5 1 1794.78 850.133 2
9 5 1 918.954 759.161 13
9 5 2 787.678 668.280 2
9 5 2 872.570 839.807 9
9 5 3 346.038 621.867 2
9 5 3 118.054 655.619 9
9 5 4 4768.07 1429.14 9
9 5 4 3991.93 1347.89 2
9 5 5 35595.4 3822.23 9
9 5 6 1283.10 758.358 9
9 5 7 6599.10 1755.52 9
-9 -5 -7 7963.80 1868.58 3
9 5 8 684.671 660.043 9
-9 -5 -8 1761.19 900.408 3
9 5 9 827.036 926.687 9
-9 -5 -9 2245.60 1049.40 3
-9 -5 -10 6553.80 1671.11 3
-9 -5 -11 1744.03 1066.78 3
-9 -5 -12 4961.55 1629.84 3
9 6 -4 2188.81 1317.27 13
9 6 -3 1771.56 740.094 2
9 6 -3 3615.96 1624.00 13
9 6 -2 13247.7 2220.48 2
9 6 -2 10567.9 2811.16 13
9 6 -1 8853.38 1757.77 2
9 6 -1 6147.68 2177.47 13
9 6 0 824.490 702.054 13
9 6 0 1022.48 624.579 2
9 6 1 8292.34 1789.68 2
9 6 2 13100.8 2201.59 2
9 6 3 7153.94 1707.96 2
9 6 3 6574.18 1692.62 9
9 6 4 6337.80 1625.67 9
9 6 4 9737.25 2131.62 2
9 6 5 -52.2167 711.931 9
9 6 5 -1165.39 845.165 2
9 6 6 13345.6 2358.90 9
9 6 7 7607.64 1787.54 9
9 6 8 172.724 574.342 9
-9 -6 -8 -26.6291 545.260 3
-9 -6 -9 527.263 671.092 3
-9 -6 -10 852.716 474.779 3
-9 -6 -11 5557.83 1664.15 3
9 7 -3 10269.4 1930.23 2
9 7 -3 9018.45 2616.08 13
9 7 -2 3812.38 1403.17 2
9 7 -2 274.666 832.963 13
9 7 -1 1896.53 750.175 2
9 7 0 467.480 520.474 2
9 7 1 28539.7 3355.95 2
9 7 2 5023.51 1323.39 2
9 7 3 3675.70 1397.67 2
9 7 4 2158.36 1027.14 2
9 7 5 478.797 905.348 2
9 7 5 -354.682 497.646 9
9 7 6 14777.0 2552.54 9
9 7 6 24506.3 3468.21 2
9 7 7 -329.378 433.752 9
9 7 7 -712.683 762.224 2
9 7 8 15201.8 3017.41 2
9 7 9 1559.72 1031.42 2
-9 -7 -9 1489.05 1057.06 3
-9 -7 -10 -429.728 528.259 3
-9 -7 -11 4169.46 1471.78 3
9 8 -2 2186.47 1011.26 2
9 8 -1 19908.0 2907.92 2
9 8 0 1139.87 466.910 2
9 8 1 1775.66 1012.05 2
9 8 2 -128.887 616.756 2
9 8 3 9162.87 1949.97 2
9 8 4 18101.8 2805.56 2
9 8 5 396.327 488.811 2
9 8 6 2257.39 1268.37 2
9 8 7 3005.69 1160.03 2
9 8 8 5861.35 1712.45 2
9 8 9 1418.52 1011.03 2
9 8 10 -248.489 816.585 2
9 9 -1 1732.84 908.929 1
9 9 -1 1178.09 928.036 2
9 9 0 3924.47 1377.42 2
9 9 1 6100.00 1654.25 2
9 9 2 1887.15 1016.74 2
9 9 3 196.529 377.808 2
9 9 4 1584.65 929.435 2
9 9 5 2793.04 1221.05 2
9 9 6 2886.99 1184.72 2
9 9 7 2162.56 1107.13 2
9 9 8 378.632 628.278 2
9 9 8 865.803 792.527 1
9 10 2 1632.17 1032.62 1
9 10 2 2021.68 1000.05 2
9 10 3 -889.884 952.420 1
9 10 3 292.453 576.593 2
9 10 4 1394.71 1039.57 1
9 10 4 1350.27 965.022 2
9 10 5 6030.76 1728.97 2
9 10 5 7176.79 2015.01 1
9 10 6 -5.30041 574.922 2
9 10 6 -775.821 682.156 1
-10 6 -3 95.2611 586.352 4
-10 6 -4 6125.03 1576.36 4
-10 6 -4 7091.08 1841.92 5
-10 6 -5 -438.512 516.859 4
-10 6 -5 746.888 548.268 5
-10 6 -6 -328.769 378.175 5
-10 5 -1 -824.812 709.969 5
-10 5 -2 2226.26 970.925 5
-10 5 -3 3290.38 1277.48 5
-10 5 -4 4063.45 1442.77 11
-10 5 -4 8675.77 1958.72 5
-10 5 -5 2271.95 1043.41 11
-10 5 -5 4505.46 1431.54 5
-10 5 -6 9208.21 1927.99 5
10 -5 7 683.244 735.650 9
-10 5 -7 -357.015 657.300 5
10 -5 8 602.991 667.295 9
-10 5 -8 2286.68 1050.95 5
-10 4 1 -947.917 728.909 5
-10 4 0 2305.44 1037.29 5
-10 4 -1 11447.3 2252.30 5
-10 4 -2 6407.00 1700.42 5
-10 4 -3 67.0326 572.527 11
-10 4 -3 842.307 821.745 5
-10 4 -4 971.339 441.860 11
-10 4 -4 496.818 679.378 5
-10 4 -5 10699.8 2359.40 11
10 -4 5 12281.4 2529.63 9
-10 4 -6 6660.48 1712.59 11
10 -4 6 10153.2 2374.07 9
-10 4 -7 5249.19 1499.40 11
10 -4 7 6864.25 2001.30 9
10 -4 8 -191.247 455.514 9
10 -4 9 778.399 890.101 9
-10 3 2 8897.84 1992.37 5
-10 3 1 414.626 522.705 5
-10 3 0 2228.60 1048.19 5
-10 3 -1 9331.96 2034.23 5
-10 3 -2 1977.06 1173.16 11
-10 3 -3 22721.5 3396.46 11
10 -3 3 21618.2 3075.61 9
-10 3 -4 1193.81 1081.18 11
10 -3 4 1404.37 951.694 9
-10 3 -5 1817.35 1041.86 11
10 -3 5 1285.14 933.860 9
-10 3 -6 2440.38 1136.91 11
10 -3 6 1503.49 1016.04 9
-10 3 -7 10545.8 2152.70 11
10 -3 7 16053.7 2962.07 9
-10 3 -8 5629.04 1615.46 11
10 -3 8 8369.35 2260.51 9
10 -3 9 870.237 722.522 9
10 -3 10 33.4928 752.567 9
10 -2 -2 3360.63 1342.81 13
-10 2 2 5910.44 1604.07 5
10 -2 -1 406.595 658.859 13
-10 2 1 759.413 698.543 5
-10 2 0 5421.48 1520.57 5
-10 2 -1 -504.833 681.260 11
-10 2 -2 3837.79 1376.49 11
10 -2 2 3237.09 1235.85 9
-10 2 -3 14805.5 2678.61 11
10 -2 3 17046.9 2811.19 9
-10 2 -4 -492.861 721.624 11
10 -2 4 103.644 538.623 9
-10 2 -5 13062.1 2490.70 11
10 -2 5 14822.9 2597.35 9
-10 2 -6 1217.25 876.353 11
10 -2 6 2796.73 1203.96 9
-10 2 -7 2671.47 1255.15 11
10 -2 7 2393.90 1287.74 9
10 -2 8 15387.9 2982.44 9
-10 2 -8 13802.6 2340.02 3
10 -2 9 -834.538 939.761 9
-10 2 -9 -677.363 634.764 3
10 -2 10 9950.99 2518.37 9
-10 2 -10 12927.2 2383.40 3
10 -2 11 3931.64 1653.71 9
-10 2 -11 3756.01 1347.96 3
10 -1 -3 3220.81 1370.41 13
10 -1 -2 21.9283 467.872 13
10 -1 -1 7496.96 2185.41 13
-10 1 1 10668.9 2162.08 5
-10 1 0 5293.59 1857.48 11
10 -1 0 4068.28 1585.08 13
-10 1 -1 675.748 434.205 11
10 -1 1 901.241 800.315 9
10 -1 1 1419.96 1200.77 13
-10 1 -2 2461.83 1255.03 11
10 -1 2 1325.25 816.604 9
10 -1 2 1673.01 979.601 13
-10 1 -3 1713.52 924.573 11
10 -1 3 3291.31 1311.64 9
-10 1 -4 14844.8 2682.96 11
10 -1 4 16336.8 2722.90 9
-10 1 -5 4153.67 1503.22 11
10 -1 5 1614.35 991.762 9
10 -1 6 1298.93 980.370 9
10 -1 7 2362.48 1417.10 9
10 -1 8 1885.86 1309.04 9
-10 1 -8 1917.05 919.208 3
10 -1 9 6355.06 2028.01 9
-10 1 -9 4187.57 1295.12 3
10 -1 10 1854.63 964.601 9
-10 1 -10 3026.19 1196.79 3
10 -1 11 961.418 971.667 9
-10 1 -11 -372.121 649.698 3
10 0 -3 3515.63 1598.05 13
10 0 -2 -817.885 638.558 13
10 0 -1 4808.81 1640.79 13
-10 0 0 160.554 542.261 11
10 0 0 120.540 622.917 13
-10 0 -1 3540.57 1436.92 11
10 0 1 3562.04 1255.26 9
10 0 1 4225.17 1578.39 13
-10 0 -2 4315.27 1480.49 11
10 0 2 5964.99 1675.83 9
10 0 2 5425.96 1711.70 13
-10 0 -3 -477.366 719.244 11
10 0 3 1148.80 706.726 9
-10 0 -4 10755.6 2392.47 11
10 0 4 11128.7 2222.31 9
10 0 5 1090.02 757.029 9
10 0 6 13847.5 2686.16 9
10 0 7 86.9554 577.281 9
10 0 8 -1409.36 1023.40 9
-10 0 -8 287.971 532.453 3
10 0 9 2976.85 1456.55 9
-10 0 -9 4049.14 1266.20 3
10 0 10 1265.51 980.815 9
-10 0 -10 -427.617 390.140 3
10 0 11 7611.37 2261.37 9
-10 0 -11 7499.07 1908.35 3
10 1 -3 3092.10 1598.02 13
10 1 -2 6505.41 2038.93 13
-10 -1 1 5336.69 1760.20 11
10 1 -1 4477.02 1554.70 13
-10 -1 0 1519.35 1063.77 11
10 1 0 1571.03 1046.39 13
-10 -1 -1 149.426 710.491 11
10 1 1 1172.56 844.345 9
10 1 1 310.773 856.979 13
-10 -1 -2 3108.08 1335.03 11
10 1 2 5103.03 1528.49 9
10 1 2 6333.35 1650.57 2
10 1 2 4042.72 1667.64 13
-10 -1 -3 1820.90 786.558 11
10 1 3 3522.51 1533.21 9
10 1 4 12252.3 2376.90 9
10 1 5 2017.90 963.265 9
10 1 6 308.810 559.856 9
10 1 7 679.358 979.436 9
10 1 8 873.785 1133.51 9
-10 -1 -8 -18.3987 347.217 3
10 1 9 1749.67 1132.49 9
-10 -1 -9 2101.64 976.584 3
10 1 10 2884.20 1435.42 9
-10 -1 -10 754.268 774.469 3
10 1 11 -1162.31 1109.81 9
-10 -1 -11 688.278 648.019 3
10 1 12 1441.80 882.789 9
10 2 -3 588.104 1052.13 13
10 2 -2 1335.56 1299.77 13
-10 -2 1 -355.709 407.905 11
10 2 -1 -345.155 1063.07 13
-10 -2 0 -288.550 465.442 11
10 2 0 -1170.66 1133.34 13
-10 -2 -1 527.826 523.025 11
10 2 1 2715.02 1297.54 9
10 2 1 2453.52 1152.27 13
-10 -2 -2 2407.65 1113.69 11
10 2 2 4564.31 1381.41 2
10 2 2 2962.95 1252.73 9
10 2 2 2493.04 1155.04 13
-10 -2 -3 -276.507 918.174 11
10 2 3 1523.45 1163.50 9
10 2 4 714.932 975.811 9
10 2 5 4926.80 1585.27 9
10 2 6 10759.1 2113.12 9
10 2 7 -579.244 494.935 9
10 2 8 2132.53 1098.13 9
-10 -2 -8 2563.26 1114.19 3
10 2 9 1140.57 844.756 9
-10 -2 -9 1374.11 952.272 3
10 2 10 2627.29 1237.00 9
-10 -2 -10 2656.63 1024.64 3
10 2 11 3170.49 1443.69 9
-10 -2 -11 8299.73 1996.67 3
10 2 12 1794.38 1353.67 9
10 3 -3 1964.17 1376.36 13
10 3 -2 2355.30 1559.01 13
-10 -3 1 12464.7 2555.46 11
10 3 -1 15087.5 3196.20 13
-10 -3 0 618.659 699.121 11
10 3 0 2966.28 1557.01 13
-10 -3 -1 -73.9215 420.185 11
10 3 1 -494.234 478.371 2
-10 -3 -2 956.957 846.530 11
10 3 2 525.728 576.013 2
10 3 2 -935.311 938.326 9
10 3 2 -521.290 1067.56 13
10 3 3 -422.142 813.854 9
10 3 3 1173.27 726.917 2
10 3 4 21449.4 3136.55 9
10 3 5 215.304 618.052 9
10 3 6 2244.58 1144.31 9
10 3 7 871.691 909.334 9
10 3 8 5033.03 1745.57 9
-10 -3 -8 3713.05 1328.87 3
10 3 9 6656.58 2025.85 9
-10 -3 -9 5792.25 1733.25 3
10 3 10 -57.9676 672.068 9
-10 -3 -10 191.391 471.309 3
10 3 11 885.682 967.464 9
-10 -3 -11 1806.94 888.927 3
10 3 12 272.068 802.287 9
10 4 -3 6114.97 2178.15 13
10 4 -2 974.935 881.079 13
10 4 -1 2816.60 1466.67 13
-10 -4 0 667.195 735.755 11
10 4 0 2641.44 1564.82 13
10 4 0 1222.65 629.661 2
-10 -4 -1 9351.20 2128.27 11
10 4 1 16420.5 2468.99 2
10 4 1 13217.4 2830.10 13
-10 -4 -2 3186.62 1317.65 11
10 4 2 3832.87 1166.63 2
10 4 2 4471.96 1612.09 9
10 4 3 3766.82 1520.77 9
10 4 3 3509.76 1272.73 2
10 4 4 -9.00148 469.607 9
10 4 4 1108.63 819.913 2
10 4 5 2594.75 1228.85 9
10 4 6 18858.6 2955.71 9
10 4 7 -573.337 973.424 9
10 4 8 204.656 728.230 9
-10 -4 -8 -855.122 803.609 3
10 4 9 1584.42 1056.45 9
-10 -4 -9 1629.15 999.411 3
10 4 10 2623.17 1208.12 9
-10 -4 -10 5726.69 1846.24 3
10 4 11 7568.94 2092.98 9
-10 -4 -11 13217.4 2578.52 3
10 5 -2 1653.50 1113.03 13
10 5 -1 9336.47 1941.36 2
10 5 -1 10420.9 2855.01 13
10 5 0 13397.4 2312.22 2
10 5 0 8965.68 2352.62 13
10 5 1 3763.42 1181.92 2
-10 -5 -1 2322.33 1238.96 11
-10 -5 -2 2735.84 1189.43 11
10 5 2 8210.11 1874.69 2
10 5 3 2361.84 1056.89 2
10 5 3 2948.45 1217.01 9
10 5 4 6513.34 1740.37 9
10 5 4 10735.1 2244.16 2
10 5 5 12206.2 2404.07 9
10 5 5 24808.6 3588.36 2
10 5 6 -46.8753 597.295 9
10 5 7 6859.15 1801.96 9
10 5 8 2764.95 1123.23 9
10 5 9 -1231.73 1102.75 9
-10 -5 -9 339.520 602.026 3
10 5 10 3596.26 1525.01 9
-10 -5 -10 5375.20 1665.74 3
-10 -5 -11 86.1999 691.985 3
10 6 -2 12799.7 3086.54 13
10 6 -1 -105.680 441.529 2
10 6 -1 165.247 680.261 13
10 6 0 992.746 646.285 2
10 6 1 -410.263 399.491 2
10 6 2 6828.60 1656.70 2
10 6 3 18657.8 2898.28 2
10 6 4 -342.173 563.052 2
10 6 4 613.313 648.493 9
10 6 5 42.3214 443.835 9
10 6 5 436.863 631.140 2
10 6 6 -663.615 566.790 9
10 6 6 1963.07 1420.72 2
10 6 7 11115.1 2314.15 9
10 6 8 1726.81 854.333 9
10 6 9 2315.46 1278.14 9
-10 -6 -9 4485.66 1495.46 3
-10 -6 -10 107.913 381.977 3
10 7 -1 938.182 1012.83 2
10 7 0 15597.5 2533.32 2
10 7 1 867.199 766.384 2
10 7 2 -100.268 386.824 2
10 7 3 1763.50 812.631 2
10 7 4 2946.41 1275.69 2
10 7 5 10161.9 2311.49 9
10 7 5 23456.0 3414.11 2
10 7 6 3478.27 1478.85 2
10 7 6 1133.11 895.466 9
10 7 7 -480.851 439.597 9
10 7 7 -817.852 510.196 2
10 7 8 1897.72 1217.00 2
10 7 9 6940.54 2333.11 2
10 8 0 1357.79 622.814 2
10 8 1 2164.74 1133.91 2
10 8 2 2311.19 1211.55 2
10 8 3 1111.99 853.394 2
10 8 4 7477.82 1881.98 2
10 8 5 2221.84 1056.91 2
10 8 6 2000.22 1123.25 2
10 8 7 3472.13 1740.13 2
10 8 8 4523.94 1727.71 2
10 9 2 438.682 389.872 2
10 9 3 -815.696 548.931 2
10 9 4 166.970 629.931 2
10 9 5 -243.405 465.239 2
10 9 6 8791.96 2043.26 2
-11 4 -3 421.844 424.027 11
-11 4 -3 251.840 521.506 5
-11 4 -4 4571.53 1637.51 11
-11 4 -4 6868.93 1813.13 5
-11 4 -5 -44.9424 473.770 11
-11 4 -5 1207.96 901.482 5
-11 4 -6 2538.36 1220.29 11
11 -4 6 869.706 869.883 9
-11 4 -6 2561.24 1162.72 5
-11 4 -7 2254.03 1174.70 11
11 -4 7 3956.99 1884.77 9
-11 3 -1 534.547 606.846 5
-11 3 -2 -550.952 471.630 11
-11 3 -2 -335.583 338.561 5
-11 3 -3 4619.17 1890.35 11
-11 3 -3 2811.99 1087.03 5
-11 3 -4 8515.98 2265.15 11
-11 3 -5 18.0074 452.761 11
11 -3 5 -47.9970 777.650 9
-11 3 -6 1028.43 953.369 11
11 -3 6 2377.47 1386.12 9
-11 3 -7 -213.380 456.320 11
11 -3 7 1658.18 974.383 9
-11 3 -8 2244.33 1229.08 11
11 -3 8 1951.48 1291.04 9
-11 2 0 2256.19 1053.28 5
-11 2 -1 1691.13 1183.59 11
-11 2 -1 3319.92 1313.66 5
-11 2 -2 343.402 811.077 11
-11 2 -3 5658.68 1933.45 11
11 -2 3 6121.88 1878.89 9
-11 2 -4 91.6789 444.307 11
11 -2 4 566.167 839.945 9
-11 2 -5 3380.11 1395.15 11
11 -2 5 4594.38 1518.59 9
-11 2 -6 1374.40 803.754 11
11 -2 6 2625.62 1240.78 9
-11 2 -7 1305.42 1038.06 11
11 -2 7 84.5328 836.597 9
-11 2 -8 1283.47 1055.56 11
11 -2 8 2829.37 1450.93 9
-11 2 -9 884.674 982.411 11
11 -2 9 1000.78 1043.76 9
11 -1 -1 158.038 670.146 13
-11 1 1 391.106 403.882 5
-11 1 0 1677.52 937.762 5
-11 1 -1 1069.17 963.929 11
11 -1 1 2323.74 1100.99 9
-11 1 -2 285.198 741.999 11
11 -1 2 -323.575 483.963 9
-11 1 -3 1858.01 1182.09 11
11 -1 3 1900.42 1257.96 9
-11 1 -4 -589.929 825.661 11
11 -1 4 -171.758 587.274 9
-11 1 -5 3175.29 1170.40 11
11 -1 5 4949.18 1791.03 9
-11 1 -6 835.338 786.266 11
11 -1 6 -781.033 834.045 9
-11 1 -7 1165.77 927.943 11
11 -1 7 241.840 849.285 9
11 -1 8 4224.95 1948.02 9
11 -1 9 -1454.59 1134.01 9
11 -1 10 5639.43 1757.55 9
-11 1 -10 4173.66 1453.93 3
11 0 -1 2827.85 1408.74 13
-11 0 0 98.3765 771.496 11
11 0 0 -80.7911 687.680 13
-11 0 -1 2836.34 1849.14 11
11 0 1 595.472 591.823 9
11 0 1 793.331 931.749 13
-11 0 -2 -331.578 956.815 11
11 0 2 -47.8804 1095.10 9
11 0 2 -681.532 949.431 13
-11 0 -3 1737.19 938.520 11
11 0 3 2845.50 1371.67 9
-11 0 -4 3217.82 1347.09 11
11 0 4 5963.39 1824.21 9
-11 0 -5 677.446 772.234 11
11 0 5 2281.38 1295.31 9
-11 0 -6 503.650 724.518 11
11 0 6 781.598 1221.43 9
11 0 7 -152.072 618.374 9
11 0 8 492.171 637.007 9
11 0 9 -475.976 590.569 9
-11 0 -9 1461.64 719.749 3
11 0 10 417.112 637.158 9
-11 0 -10 1681.85 935.089 3
11 1 -1 -810.884 1159.15 13
-11 -1 0 -728.868 690.132 11
11 1 0 300.332 678.664 13
-11 -1 -1 -17.9429 765.711 11
11 1 1 853.169 924.414 13
-11 -1 -2 807.907 815.238 11
11 1 2 478.228 809.291 9
11 1 2 -240.108 873.330 13
-11 -1 -3 2752.45 1318.22 11
11 1 3 1781.19 1076.36 9
-11 -1 -4 71.4229 471.398 11
11 1 4 -769.102 672.211 9
-11 -1 -5 812.598 846.927 11
11 1 5 67.9655 580.515 9
11 1 6 2644.87 1447.93 9
11 1 7 3040.36 1466.84 9
11 1 8 1261.40 940.527 9
11 1 9 903.961 495.477 9
-11 -1 -9 76.9162 652.575 3
11 1 10 1693.47 1432.28 9
-11 -1 -10 286.329 430.733 3
11 2 -1 1944.48 1421.26 13
-11 -2 0 5270.19 2288.05 11
11 2 0 3047.65 1576.75 13
-11 -2 -1 678.792 815.831 11
11 2 1 1528.42 1116.91 13
-11 -2 -2 -184.344 536.113 11
11 2 2 510.823 823.900 9
11 2 2 421.479 832.658 13
-11 -2 -3 1703.34 996.252 11
11 2 3 3135.53 1341.76 9
-11 -2 -4 335.206 735.852 11
11 2 4 131.983 591.051 2
11 2 5 16258.4 2997.56 9
11 2 6 -19.7466 699.797 9
11 2 7 228.071 625.831 9
11 2 8 1334.51 937.027 9
11 2 9 717.814 1110.17 9
-11 -2 -9 427.447 804.810 3
11 2 10 14974.3 3202.67 9
-11 -2 -10 13221.9 2577.96 3
11 3 -1 1805.84 1630.27 13
-11 -3 0 2793.29 1317.52 11
11 3 0 3616.78 1641.54 13
-11 -3 -1 2363.34 1326.23 11
11 3 1 2922.78 1672.38 13
-11 -3 -2 19.7889 445.334 11
11 3 2 -431.995 454.622 2
-11 -3 -3 930.983 920.711 11
11 3 3 4361.72 1601.37 2
11 3 3 3928.14 1524.19 9
11 3 4 2450.61 1156.66 9
11 3 4 4433.01 1686.86 2
11 3 5 3173.06 1460.48 9
11 3 6 2536.51 1124.68 9
11 3 7 8205.82 2210.42 9
11 3 8 1508.68 1073.29 9
11 3 9 133.872 518.792 9
-11 -3 -9 3402.63 1233.97 3
11 3 10 2566.06 1409.33 9
-11 -3 -10 3401.12 1448.07 3
11 4 -1 1565.17 1203.90 13
11 4 0 547.110 851.472 13
11 4 1 9543.70 1876.15 2
-11 -4 -1 5333.58 1824.52 11
11 4 1 6201.26 2242.80 13
-11 -4 -2 7388.00 2072.64 11
11 4 2 11773.2 2185.88 2
-11 -4 -3 3652.92 1614.81 11
11 4 3 4692.55 1431.40 2
11 4 3 3007.39 1460.09 9
11 4 4 559.358 674.382 9
11 4 4 -30.9368 797.965 2
11 4 5 1539.27 840.664 9
11 4 5 6453.31 1858.38 2
11 4 6 17441.3 3035.29 9
11 4 7 3741.08 1510.64 9
11 4 8 4630.14 1652.90 9
11 4 9 138.645 632.268 9
11 4 10 997.967 794.901 9
-11 -4 -10 260.015 603.651 3
11 5 0 2742.43 1855.70 13
11 5 1 72.0664 625.321 2
-11 -5 -2 201.332 763.258 11
11 5 2 4563.95 1460.96 2
-11 -5 -3 1004.81 946.847 11
11 5 3 2028.54 998.886 2
11 5 4 19054.5 3230.75 9
11 5 4 29911.4 3921.33 2
11 5 5 -654.843 821.547 9
11 5 5 528.652 560.673 2
11 5 6 -166.282 434.509 9
11 5 6 952.876 961.789 2
11 5 7 2223.37 1179.58 9
11 5 8 8473.19 2241.34 9
11 5 9 4188.06 1688.16 9
11 5 10 -1953.09 1149.24 9
11 6 0 1467.50 875.571 2
11 6 1 4971.19 1613.08 2
11 6 2 993.757 919.705 2
-11 -6 -3 -460.867 739.920 11
11 6 3 928.877 714.653 2
11 6 4 5773.99 1733.89 2
11 6 5 6008.86 2136.77 2
11 6 5 2364.42 1127.93 9
11 6 6 6935.28 1978.58 9
11 6 6 18019.1 3283.20 2
11 6 7 2643.07 1460.45 9
11 6 7 1334.79 1363.75 2
11 6 8 2210.68 1180.06 9
11 6 9 1053.54 850.225 9
11 6 9 2779.19 1393.93 2
11 7 2 1039.91 830.313 2
11 7 3 1976.67 1222.95 2
11 7 4 14.5357 628.322 2
11 7 5 14199.6 2642.56 2
11 7 6 1924.13 1079.38 2
11 7 6 1548.57 1042.01 9
11 7 7 918.477 776.111 9
11 7 7 300.379 700.446 2
12 -2 4 -1027.46 1156.92 9
12 -2 5 -273.285 622.416 9
-12 1 -3 1827.82 1029.86 11
12 -1 3 -1885.38 1520.93 9
-12 1 -4 1844.64 1229.88 11
12 -1 4 614.936 715.475 9
-12 1 -5 2351.31 1356.79 11
12 -1 5 1487.44 872.086 9
-12 1 -6 228.576 720.204 11
12 -1 6 -1617.01 1191.42 9
-12 1 -7 789.004 823.770 11
12 -1 7 -165.257 697.917 9
-12 0 -2 607.659 671.711 11
12 0 2 537.841 810.762 9
-12 0 -3 1478.27 1202.26 11
12 0 3 590.462 783.183 9
-12 0 -4 1574.96 1163.34 11
12 0 4 1624.62 1277.63 9
-12 0 -5 -176.538 727.134 11
12 0 5 804.261 962.575 9
-12 0 -6 357.696 526.777 11
12 0 6 627.025 803.474 9
-12 0 -7 -1385.56 1343.98 11
12 0 7 313.473 524.963 9
-12 0 -8 -520.620 900.963 11
12 0 8 -585.815 697.704 9
-12 -1 -2 2362.55 1459.75 11
12 1 2 510.127 489.379 9
-12 -1 -3 243.735 469.965 11
12 1 3 274.324 565.528 9
-12 -1 -4 4853.13 1621.66 11
12 1 4 4222.68 1840.03 9
-12 -1 -5 -137.870 788.580 11
12 1 5 2974.05 1637.59 9
-12 -1 -6 4985.62 1817.21 11
12 1 6 8585.97 2424.10 9
12 1 7 654.412 738.984 9
12 1 8 99.7303 553.810 9
-12 -2 -2 1674.28 1074.56 11
-12 -2 -3 1382.12 1039.49 11
12 2 3 870.502 872.658 9
-12 -2 -4 2440.43 1454.89 11
12 2 4 2314.11 1507.81 9
-12 -2 -5 4569.28 1855.84 11
12 2 5 4173.59 1690.89 9
12 2 6 7893.42 2208.57 9
12 2 7 2627.23 1274.58 9
12 2 8 1507.87 1187.61 9
-12 -3 -1 701.416 641.264 11
-12 -3 -2 2092.54 1318.54 11
-12 -3 -3 4601.87 1766.70 11
12 3 3 5605.68 1971.49 9
-12 -3 -4 2630.70 1461.18 11
12 3 4 3905.04 1426.36 2
12 3 4 1700.35 1220.68 9
-12 -3 -5 2105.05 1333.09 11
12 3 5 1284.37 1243.04 9
12 3 5 3225.01 1435.54 2
12 3 6 878.000 855.838 9
12 3 6 284.167 471.002 2
12 3 7 9901.65 2428.70 9
12 3 8 12450.6 2773.42 9
-12 -4 -2 141.803 410.200 11
-12 -4 -3 5463.37 1916.13 11
12 4 3 10109.6 2201.94 2
-12 -4 -4 -129.490 629.369 11
12 4 4 876.622 640.360 2
12 4 4 2041.51 1532.12 9
12 4 5 8622.89 2306.94 9
12 4 5 14213.5 2936.81 2
12 4 6 354.312 574.263 9
12 4 6 516.416 1053.42 2
12 4 7 2206.04 1441.74 9
12 4 8 3151.32 1315.53 9
-12 -5 -3 -484.908 897.934 11
12 5 3 296.404 651.578 2
-12 -5 -4 1091.83 800.602 11
12 5 4 3086.79 1306.36 2
12 5 5 6390.32 1891.93 2
12 5 5 4293.62 1711.89 9
12 5 6 686.480 742.559 9
12 5 6 1388.88 1275.74 2
12 5 7 215.060 905.587 9
12 5 7 -630.516 727.338 2
-12 -6 -4 -1813.97 1462.33 11
