#------------------------------------------------------------------------------
#$Date: 2020-10-06 12:03:22 +0300 (Tue, 06 Oct 2020) $
#$Revision: 257566 $
#$URL: file:///home/coder/svn-repositories/cod/cif/7/70/52/7705249.cif $
#------------------------------------------------------------------------------
#
# This file is available in the Crystallography Open Database (COD),
# http://www.crystallography.net/
#
# All data on this site have been placed in the public domain by the
# contributors.
#
data_7705249
loop_
_publ_author_name
'Frogley, Benjamin J.'
'Hill, Anthony F.'
_publ_section_title
;
 Carbyne decorated porphyrins.
;
_journal_issue                   35
_journal_name_full
'Dalton transactions (Cambridge, England : 2003)'
_journal_page_first              12390
_journal_page_last               12400
_journal_paper_doi               10.1039/d0dt02809f
_journal_volume                  49
_journal_year                    2020
_chemical_formula_moiety         'C116 H112 B4 N28 O8 W4 Zn'
_chemical_formula_sum            'C116 H112 B4 N28 O8 W4 Zn'
_chemical_formula_weight         2870.34
_space_group_crystal_system      triclinic
_space_group_IT_number           2
_space_group_name_Hall           '-P 1'
_space_group_name_H-M_alt        'P -1'
_atom_sites_solution_hydrogens   geom
_audit_creation_method           SHELXL-2018/3
_audit_update_record
;
2020-06-08 deposited with the CCDC.	2020-08-21 downloaded from the CCDC.
;
_cell_angle_alpha                80.549(5)
_cell_angle_beta                 83.197(6)
_cell_angle_gamma                73.876(8)
_cell_formula_units_Z            1
_cell_length_a                   12.0635(12)
_cell_length_b                   14.5979(11)
_cell_length_c                   24.2222(12)
_cell_measurement_reflns_used    3200
_cell_measurement_temperature    150.0(1)
_cell_measurement_theta_max      70.2170
_cell_measurement_theta_min      3.9210
_cell_volume                     4030.2(6)
_computing_cell_refinement       'CrysAlisPro 1.171.40.36a (Rigaku OD, 2018)'
_computing_data_collection       'CrysAlisPro 1.171.40.36a (Rigaku OD, 2018)'
_computing_data_reduction        'CrysAlisPro 1.171.40.36a (Rigaku OD, 2018)'
_computing_structure_refinement  'SHELXL-2018/3 (Sheldrick, 2018)'
_computing_structure_solution    'SHELXT 2014/5 (Sheldrick, 2014)'
_diffrn_ambient_temperature      150.0(1)
_diffrn_detector_area_resol_mean 8.1297
_diffrn_measured_fraction_theta_full 0.989
_diffrn_measured_fraction_theta_max 0.989
_diffrn_measurement_device_type  'SuperNova, Dual, Cu at home/near, EosS2'
_diffrn_measurement_method       '\w scans'
_diffrn_radiation_type           CuK\a
_diffrn_radiation_wavelength     1.54184
_diffrn_reflns_av_R_equivalents  0.0625
_diffrn_reflns_av_unetI/netI     0.1137
_diffrn_reflns_Laue_measured_fraction_full 0.989
_diffrn_reflns_Laue_measured_fraction_max 0.989
_diffrn_reflns_limit_h_max       14
_diffrn_reflns_limit_h_min       -14
_diffrn_reflns_limit_k_max       17
_diffrn_reflns_limit_k_min       -16
_diffrn_reflns_limit_l_max       13
_diffrn_reflns_limit_l_min       -28
_diffrn_reflns_number            22059
_diffrn_reflns_point_group_measured_fraction_full 0.989
_diffrn_reflns_point_group_measured_fraction_max 0.989
_diffrn_reflns_theta_full        66.597
_diffrn_reflns_theta_max         66.597
_diffrn_reflns_theta_min         3.826
_diffrn_source                   'micro-focus sealed X-ray tube'
_exptl_absorpt_coefficient_mu    5.693
_exptl_absorpt_correction_T_max  1.00000
_exptl_absorpt_correction_T_min  0.50195
_exptl_absorpt_correction_type   multi-scan
_exptl_absorpt_process_details
; 
CrysAlisPro 1.171.40.36a (Rigaku Oxford Diffraction, 2018) 
Empirical absorption correction using spherical harmonics, 
 implemented in SCALE3 ABSPACK scaling algorithm. 
;
_exptl_crystal_colour            red
_exptl_crystal_density_diffrn    1.183
_exptl_crystal_description       prism
_exptl_crystal_F_000             1414
_exptl_crystal_size_max          0.151
_exptl_crystal_size_mid          0.077
_exptl_crystal_size_min          0.018
_refine_diff_density_max         2.193
_refine_diff_density_min         -1.399
_refine_diff_density_rms         0.117
_refine_ls_extinction_method     none
_refine_ls_goodness_of_fit_ref   0.932
_refine_ls_hydrogen_treatment    mixed
_refine_ls_matrix_type           full
_refine_ls_number_parameters     705
_refine_ls_number_reflns         14091
_refine_ls_number_restraints     3
_refine_ls_restrained_S_all      0.936
_refine_ls_R_factor_all          0.1318
_refine_ls_R_factor_gt           0.0777
_refine_ls_shift/su_max          0.001
_refine_ls_shift/su_mean         0.000
_refine_ls_structure_factor_coef Fsqd
_refine_ls_weighting_details
'w=1/[\s^2^(Fo^2^)+(0.1057P)^2^] where P=(Fo^2^+2Fc^2^)/3'
_refine_ls_weighting_scheme      calc
_refine_ls_wR_factor_gt          0.1927
_refine_ls_wR_factor_ref         0.2276
_reflns_Friedel_coverage         0.000
_reflns_number_gt                6937
_reflns_number_total             14091
_reflns_threshold_expression     'I > 2\s(I)'
_cod_data_source_file            d0dt02809f2.cif
_cod_data_source_block           Compound_4
_cod_depositor_comments
'Adding full bibliography for 7705247--7705250.cif.'
_cod_database_code               7705249
_shelx_shelxl_version_number     2018/3
_shelx_space_group_comment
; 
The symmetry employed for this shelxl refinement is uniquely defined 
by the following loop, which should always be used as a source of 
symmetry information in preference to the above space-group names. 
They are only intended as comments. 
;
_shelx_res_file
; 
TITL bf84a2zn_scale_a.res in P-1 
    shelx.res 
    created by SHELXL-2018/3 at 11:31:04 on 10-Jan-2020 
CELL  1.54184  12.0635  14.5979  24.2222   80.549   83.197   73.876 
ZERR     1.00   0.0012   0.0011   0.0012    0.005    0.006    0.008 
LATT   1 
SFAC  C    H    B    N    O    W    ZN 
UNIT  116 112 4 28 8 4 1 
MERG   2 
OMIT     0   3   0 
OMIT     2   1   2 
OMIT     3   2   1 
OMIT     2   2   2 
OMIT     0   2   3 
OMIT    -1  -3   4 
OMIT     4   4   5 
OMIT     1   0   5 
OMIT    -1   2   2 
OMIT     1   3   0 
OMIT     3  -2   5 
ABIN 
DFIX 1.95 W2 C27 
DFIX 1.1 C27 O3 
EADP C28 C27 C2 C3 
EADP O4 O3 O2 O1 
MORE -1 
SHEL 100 0.84 
DFIX     1.150   0.020 B2 H2 
FMAP   2 
PLAN   20 
ACTA 
BOND   $H 
CONF 
LIST   4 
L.S.  12 
WGHT    0.105700 
FVAR       0.22172 
W2    6    0.516091    0.253111    0.866840    11.00000    0.12883    0.07166 = 
         0.08045    0.03179   -0.06178   -0.04704 
W1    6    0.399613    1.103030    0.374897    11.00000    0.10946    0.05602 = 
         0.07990    0.00701    0.00115   -0.03727 
ZN1   7    0.000000    0.500000    0.500000    10.50000    0.14551    0.05786 = 
         0.07307    0.03310   -0.05923   -0.05753 
N14   4    0.115385    0.549157    0.532481    11.00000    0.08778    0.04509 = 
         0.06697    0.02111   -0.03638   -0.02238 
N13   4   -0.013766    0.610644    0.436121    11.00000    0.08387    0.03498 = 
         0.05542    0.00628   -0.02089   -0.02543 
N2    4    0.509335    1.268668    0.311868    11.00000    0.11713    0.05796 = 
         0.07236    0.01576   -0.02876   -0.04221 
C10   1   -0.083753    0.630349    0.391587    11.00000    0.06796    0.05198 = 
         0.05545    0.00871   -0.01848   -0.01858 
N9    4    0.512016    0.103144    0.894963    11.00000    0.10747    0.06029 = 
         0.07105    0.00973   -0.03385   -0.02913 
N1    4    0.530252    1.194190    0.355206    11.00000    0.10940    0.05578 = 
         0.07473    0.01497   -0.01041   -0.03511 
O1    5    0.600455    0.913415    0.372493    11.00000    0.22082    0.10205 = 
         0.12643    0.02581   -0.06351   -0.07523 
C19   1    0.157238    0.426106    0.617264    11.00000    0.07618    0.05759 = 
         0.05596    0.01617   -0.03089   -0.02271 
N11   4    0.693340    0.182865    0.831528    11.00000    0.08475    0.09031 = 
         0.07999    0.01397   -0.03030   -0.03736 
N3    4    0.389914    1.127281    0.286373    11.00000    0.11663    0.06303 = 
         0.10897   -0.01691   -0.02121   -0.03653 
N6    4    0.296524    1.319847    0.325717    11.00000    0.11150    0.05987 = 
         0.09858    0.00636   -0.00219   -0.03051 
N4    4    0.391157    1.216897    0.252922    11.00000    0.09699    0.08580 = 
         0.07266    0.01172   -0.02650   -0.03799 
N8    4    0.692417    0.145915    0.959791    11.00000    0.10406    0.09491 = 
         0.08138    0.02981   -0.06118   -0.03499 
N10   4    0.605358    0.037793    0.920975    11.00000    0.10160    0.06852 = 
         0.08189    0.02578   -0.03154   -0.03135 
C20   1    0.227591    0.391042    0.665670    11.00000    0.06726    0.04937 = 
         0.07342    0.01740   -0.03037   -0.01427 
C15   1    0.152950    0.629407    0.513390    11.00000    0.06536    0.04861 = 
         0.07475    0.01988   -0.02424   -0.01763 
C21   1    0.202813    0.433310    0.712976    11.00000    0.08274    0.07803 = 
         0.08541    0.00963   -0.02578   -0.00989 
AFIX  43 
H21   2    0.139001    0.486282    0.714761    11.00000   -1.20000 
AFIX   0 
C18   1    0.167089    0.508591    0.581555    11.00000    0.06771    0.05209 = 
         0.07008    0.00683   -0.02885   -0.01514 
N5    4    0.278177    1.244187    0.367682    11.00000    0.14949    0.07169 = 
         0.10290    0.00204    0.03744   -0.03914 
C12   1    0.008844    0.745909    0.377049    11.00000    0.09963    0.04843 = 
         0.06878    0.01809   -0.01206   -0.03109 
AFIX  43 
H12   2    0.034838    0.799695    0.361841    11.00000   -1.20000 
AFIX   0 
C14   1    0.118836    0.691195    0.463135    11.00000    0.07384    0.04732 = 
         0.05645    0.01349   -0.01333   -0.01751 
N7    4    0.605842    0.227366    0.950155    11.00000    0.14428    0.11058 = 
         0.10200    0.03324   -0.07694   -0.07150 
C13   1    0.044121    0.683177    0.427818    11.00000    0.08505    0.04111 = 
         0.06151    0.01021   -0.01796   -0.03196 
N12   4    0.761009    0.101277    0.863159    11.00000    0.11738    0.09736 = 
         0.09091    0.02446   -0.06980   -0.02832 
C7    1    0.173270    0.775810    0.448932    11.00000    0.09211    0.04952 = 
         0.06786    0.01927   -0.01515   -0.02462 
O2    5    0.418903    1.091510    0.502516    11.00000    0.22082    0.10205 = 
         0.12643    0.02581   -0.06351   -0.07523 
C8    1    0.286833    0.764148    0.430692    11.00000    0.10175    0.04278 = 
         0.12274    0.00889    0.00790   -0.01561 
AFIX  43 
H8    2    0.334265    0.702600    0.427838    11.00000   -1.20000 
AFIX   0 
C11   1   -0.067117    0.713808    0.355687    11.00000    0.09584    0.05470 = 
         0.06810    0.01768   -0.02997   -0.03029 
AFIX  43 
H11   2   -0.103374    0.741152    0.322838    11.00000   -1.20000 
AFIX   0 
C4    1    0.268149    0.935076    0.416768    11.00000    0.09566    0.05171 = 
         0.09382   -0.00370   -0.00398   -0.03131 
C6    1    0.103987    0.868731    0.451071    11.00000    0.08834    0.06085 = 
         0.10229    0.00176   -0.00126   -0.03147 
AFIX  43 
H6    2    0.025311    0.879340    0.461732    11.00000   -1.20000 
AFIX   0 
C17   1    0.245027    0.562233    0.590902    11.00000    0.07651    0.06422 = 
         0.07832    0.02026   -0.03329   -0.02665 
AFIX  43 
H17   2    0.293861    0.547521    0.619904    11.00000   -1.20000 
AFIX   0 
C22   1    0.269508    0.400407    0.759365    11.00000    0.10548    0.09469 = 
         0.08105    0.01793   -0.05007   -0.03706 
AFIX  43 
H22   2    0.250798    0.432285    0.790809    11.00000   -1.20000 
AFIX   0 
C9    1    0.332321    0.842071    0.416442    11.00000    0.08028    0.06367 = 
         0.11046   -0.00403    0.01516   -0.01877 
AFIX  43 
H9    2    0.411141    0.830809    0.406008    11.00000   -1.20000 
AFIX   0 
C23   1    0.362141    0.321340    0.758294    11.00000    0.10844    0.05971 = 
         0.07967    0.02421   -0.05025   -0.02560 
C55   1    0.750515    0.197360    0.782717    11.00000    0.14054    0.09616 = 
         0.09789    0.04371   -0.05502   -0.06429 
C5    1    0.153629    0.946546    0.437014    11.00000    0.11034    0.06790 = 
         0.11050    0.00970    0.01614   -0.04535 
AFIX  43 
H5    2    0.107930    1.008073    0.441462    11.00000   -1.20000 
AFIX   0 
C32   1    0.603975    1.307777    0.303861    11.00000    0.11519    0.07371 = 
         0.08656    0.01717   -0.00773   -0.04749 
C26   1    0.435808    0.285223    0.804955    11.00000    0.11405    0.06138 = 
         0.10017    0.02337   -0.03685   -0.03423 
O4    5    0.540316    0.462523    0.841878    11.00000    0.22082    0.10205 = 
         0.12643    0.02581   -0.06351   -0.07523 
C52   1    0.572090   -0.044510    0.939685    11.00000    0.18418    0.08224 = 
         0.06412    0.00839   -0.03275   -0.05684 
C42   1    0.379731    1.216772    0.200182    11.00000    0.14445    0.10490 = 
         0.07270   -0.01139   -0.01625   -0.04237 
C1    1    0.316030    1.012923    0.397527    11.00000    0.13857    0.07435 = 
         0.08479    0.00135   -0.02169   -0.03558 
C16   1    0.234057    0.638291    0.549539    11.00000    0.07601    0.05210 = 
         0.08610    0.01574   -0.02245   -0.03011 
AFIX  43 
H16   2    0.271857    0.686806    0.545437    11.00000   -1.20000 
AFIX   0 
C30   1    0.635355    1.185034    0.373386    11.00000    0.12164    0.09700 = 
         0.09043   -0.00158   -0.04182   -0.05760 
C51   1    0.469270   -0.037770    0.922719    11.00000    0.15825    0.09908 = 
         0.08856   -0.00446   -0.01053   -0.05536 
AFIX  43 
H51   2    0.431771   -0.086528    0.927187    11.00000   -1.20000 
AFIX   0 
C25   1    0.318601    0.311290    0.665952    11.00000    0.12595    0.12937 = 
         0.08542   -0.00383   -0.05759   -0.00694 
AFIX  43 
H25   2    0.335010    0.279679    0.634414    11.00000   -1.20000 
AFIX   0 
C46   1    0.680921    0.237101    1.027128    11.00000    0.19115    0.12084 = 
         0.09026    0.01486   -0.07712   -0.08247 
AFIX  43 
H46   2    0.693521    0.258689    1.059297    11.00000   -1.20000 
AFIX   0 
C47   1    0.741007    0.154154    1.007094    11.00000    0.13230    0.16682 = 
         0.07360    0.02105   -0.04814   -0.08020 
C35   1    0.180122    1.286314    0.398507    11.00000    0.21665    0.04307 = 
         0.14796    0.00291    0.07008   -0.01587 
C28   1    0.531065    0.382304    0.852043    11.00000    0.22454    0.07654 = 
         0.07757    0.03033   -0.06273   -0.08158 
C49   1    0.317920    0.102936    0.870973    11.00000    0.15349    0.13264 = 
         0.10346    0.00772   -0.04265   -0.08643 
AFIX 137 
H49A  2    0.257253    0.119360    0.899942    11.00000   -1.50000 
H49B  2    0.301088    0.058168    0.850389    11.00000   -1.50000 
H49C  2    0.323226    0.160081    0.845957    11.00000   -1.50000 
AFIX   0 
C37   1    0.206243    1.399022    0.329302    11.00000    0.10309    0.06495 = 
         0.15329    0.00252    0.02870   -0.01213 
C40   1    0.376249    1.072028    0.248338    11.00000    0.08925    0.09823 = 
         0.10212   -0.02777   -0.03000   -0.01913 
C45   1    0.598131    0.282477    0.990434    11.00000    0.20829    0.07027 = 
         0.10985    0.00711   -0.07651   -0.06865 
C3    1    0.408222    1.097467    0.456459    11.00000    0.22454    0.07654 = 
         0.07757    0.03033   -0.06273   -0.08158 
C38   1    0.197588    1.490192    0.289774    11.00000    0.16848    0.06729 = 
         0.20972    0.03781   -0.00754   -0.01993 
AFIX 137 
H38A  2    0.273124    1.500791    0.280866    11.00000   -1.50000 
H38B  2    0.147595    1.543046    0.307036    11.00000   -1.50000 
H38C  2    0.166477    1.485388    0.255991    11.00000   -1.50000 
AFIX   0 
C24   1    0.388411    0.274082    0.710107    11.00000    0.12521    0.08053 = 
         0.10944   -0.01398   -0.05897    0.02670 
AFIX  43 
H24   2    0.450478    0.219827    0.708102    11.00000   -1.20000 
AFIX   0 
C56   1    0.853473    0.127384    0.780541    11.00000    0.17795    0.15217 = 
         0.09010    0.04362   -0.06369   -0.07280 
AFIX  43 
H56   2    0.908249    0.121062    0.750008    11.00000   -1.20000 
AFIX   0 
C44   1    0.507573    0.375355    0.992933    11.00000    0.36183    0.09797 = 
         0.12342    0.00916   -0.11034   -0.09960 
AFIX 137 
H44A  2    0.475647    0.397121    0.957141    11.00000   -1.50000 
H44B  2    0.541497    0.422629    1.002092    11.00000   -1.50000 
H44C  2    0.447279    0.366103    1.021175    11.00000   -1.50000 
AFIX   0 
C33   1    0.607573    1.392542    0.259495    11.00000    0.17274    0.09797 = 
         0.16496    0.07214   -0.06561   -0.07992 
AFIX 137 
H33A  2    0.588289    1.380355    0.224544    11.00000   -1.50000 
H33B  2    0.683912    1.402058    0.255022    11.00000   -1.50000 
H33C  2    0.552810    1.449223    0.270651    11.00000   -1.50000 
AFIX   0 
C50   1    0.426903    0.059460    0.896077    11.00000    0.13390    0.09241 = 
         0.06962    0.00725   -0.01356   -0.05478 
C57   1    0.861755    0.069072    0.830439    11.00000    0.08003    0.16313 = 
         0.12925    0.00724   -0.03171   -0.02258 
C41   1    0.366802    1.127807    0.193544    11.00000    0.11336    0.16983 = 
         0.07121   -0.03128   -0.02627   -0.02669 
AFIX  43 
H41   2    0.354596    1.108343    0.160595    11.00000   -1.20000 
AFIX   0 
B2    3    0.711491    0.067276    0.922886    11.00000    0.11304    0.09494 = 
         0.06408    0.03250   -0.02701   -0.02936 
AFIX  14 
H2    2    0.779342    0.001602    0.941994    11.00000   -1.20000 
AFIX   0 
C53   1    0.661727   -0.134692    0.968542    11.00000    0.20233    0.05255 = 
         0.07535    0.00646   -0.02652   -0.01740 
AFIX 137 
H53A  2    0.721116   -0.160526    0.940945    11.00000   -1.50000 
H53B  2    0.622788   -0.182822    0.985128    11.00000   -1.50000 
H53C  2    0.695951   -0.115736    0.997155    11.00000   -1.50000 
AFIX   0 
C29   1    0.685721    1.109953    0.418367    11.00000    0.13456    0.08120 = 
         0.09110    0.01057   -0.03340   -0.03090 
AFIX 137 
H29A  2    0.625228    1.097266    0.445551    11.00000   -1.50000 
H29B  2    0.739217    1.131293    0.436185    11.00000   -1.50000 
H29C  2    0.725675    1.052171    0.402798    11.00000   -1.50000 
AFIX   0 
C54   1    0.706255    0.277637    0.738916    11.00000    0.19392    0.10320 = 
         0.11177    0.05138   -0.07256   -0.07042 
AFIX 137 
H54A  2    0.639409    0.321737    0.754233    11.00000   -1.50000 
H54B  2    0.685354    0.253129    0.708336    11.00000   -1.50000 
H54C  2    0.765108    0.310452    0.725583    11.00000   -1.50000 
AFIX   0 
C31   1    0.681562    1.256665    0.341838    11.00000    0.12999    0.09557 = 
         0.11290    0.01304   -0.04639   -0.06191 
AFIX  43 
H31   2    0.752310    1.267639    0.345912    11.00000   -1.20000 
AFIX   0 
C48   1    0.842902    0.078299    1.027995    11.00000    0.17817    0.19140 = 
         0.08964    0.03292   -0.09007   -0.05904 
AFIX 137 
H48A  2    0.826053    0.016776    1.033353    11.00000   -1.50000 
H48B  2    0.860369    0.091481    1.063064    11.00000   -1.50000 
H48C  2    0.908223    0.077551    1.001092    11.00000   -1.50000 
AFIX   0 
B1    3    0.397238    1.297432    0.281785    11.00000    0.11832    0.08152 = 
         0.09233    0.00221   -0.00902   -0.06340 
AFIX  14 
H1    2    0.395913    1.360476    0.251449    11.00000   -1.20000 
AFIX   0 
C36   1    0.138313    1.378858    0.377705    11.00000    0.18098    0.06705 = 
         0.15753    0.00935    0.05346   -0.00064 
AFIX  43 
H36   2    0.074778    1.422129    0.393028    11.00000   -1.20000 
AFIX   0 
C39   1    0.366817    0.972019    0.265378    11.00000    0.18334    0.09190 = 
         0.11125   -0.01997   -0.05272   -0.05443 
AFIX 137 
H39A  2    0.422691    0.938878    0.291936    11.00000   -1.50000 
H39B  2    0.381233    0.939226    0.232942    11.00000   -1.50000 
H39C  2    0.290418    0.973194    0.282291    11.00000   -1.50000 
AFIX   0 
C43   1    0.384400    1.298312    0.154217    11.00000    0.19966    0.17398 = 
         0.10451    0.05683   -0.04873   -0.08182 
AFIX 137 
H43A  2    0.447867    1.323627    0.158461    11.00000   -1.50000 
H43B  2    0.313307    1.348090    0.156261    11.00000   -1.50000 
H43C  2    0.395014    1.275442    0.118490    11.00000   -1.50000 
AFIX   0 
C34   1    0.139692    1.221997    0.448634    11.00000    0.22671    0.12595 = 
         0.17815    0.01350    0.11839   -0.02193 
AFIX 137 
H34A  2    0.198263    1.200274    0.474938    11.00000   -1.50000 
H34B  2    0.125997    1.167436    0.435948    11.00000   -1.50000 
H34C  2    0.069407    1.257861    0.466520    11.00000   -1.50000 
AFIX   0 
C58   1    0.957032   -0.019456    0.851096    11.00000    0.10757    0.24175 = 
         0.13030    0.05213   -0.04660    0.02029 
AFIX 137 
H58A  2    1.008062   -0.000488    0.871835    11.00000   -1.50000 
H58B  2    1.000056   -0.048163    0.819487    11.00000   -1.50000 
H58C  2    0.922767   -0.065270    0.874928    11.00000   -1.50000 
AFIX   0 
C2    1    0.529410    0.984204    0.372288    11.00000    0.22454    0.07654 = 
         0.07757    0.03033   -0.06273   -0.08158 
C27   1    0.389706    0.312081    0.905714    11.00000    0.22454    0.07654 = 
         0.07757    0.03033   -0.06273   -0.08158 
O3    5    0.285755    0.330466    0.920949    11.00000    0.22082    0.10205 = 
         0.12643    0.02581   -0.06351   -0.07523 
HKLF    4 
  
  
  
  
REM  bf84a2zn_scale_a.res in P-1 
REM wR2 = 0.2276, GooF = S = 0.932, Restrained GooF = 0.936 for all data 
REM R1 = 0.0777 for 6937 Fo > 4sig(Fo) and 0.1318 for all 14091 data 
REM 705 parameters refined using 3 restraints 
  
END 
  
WGHT      0.1057      0.0000 
  
REM Highest difference peak  2.193,  deepest hole -1.399,  1-sigma level  0.117 
Q1    1   0.4444  0.2971  0.8977  11.00000  0.05    2.19 
Q2    1   0.4539  1.0594  0.3361  11.00000  0.05    1.88 
Q3    1   0.3662  1.0895  0.3495  11.00000  0.05    1.84 
Q4    1   0.3213  1.1468  0.4061  11.00000  0.05    1.55 
Q5    1   0.6072  0.2028  0.8289  11.00000  0.05    1.25 
Q6    1   0.5289  0.3218  0.8712  11.00000  0.05    1.18 
Q7    1   0.0938  0.4525  0.4590  11.00000  0.05    0.88 
Q8    1   0.3826  1.2022  0.3553  11.00000  0.05    0.69 
Q9    1   0.5384  0.3940  0.8885  11.00000  0.05    0.66 
Q10   1   0.3576  0.2684  0.9021  11.00000  0.05    0.63 
Q11   1   0.6625  0.2518  0.8643  11.00000  0.05    0.61 
Q12   1   0.4241  1.1901  0.3982  11.00000  0.05    0.60 
Q13   1   0.2474  1.1232  0.3598  11.00000  0.05    0.58 
Q14   1   0.2469  1.1491  0.3542  11.00000  0.05    0.57 
Q15   1   0.5411  1.0201  0.3018  11.00000  0.05    0.57 
Q16   1   0.4002  1.0593  0.3999  11.00000  0.05    0.56 
Q17   1   0.2215  0.3255  0.9358  11.00000  0.05    0.56 
Q18   1   0.2557  0.3672  0.9393  11.00000  0.05    0.55 
Q19   1   0.2716 -0.0396  0.8857  11.00000  0.05    0.53 
Q20   1   0.5588  1.0971  0.3710  11.00000  0.05    0.52 
;
_shelx_res_checksum              25056
_shelx_fab_file
; 
-14 -7 1 3.3978 -0.1780 
-14 -5 1 -3.8045 0.0254 
-14 -4 1 1.4084 0.1517 
-14 -4 2 1.5840 0.0073 
-14 -3 1 -5.1112 0.2561 
-14 -3 2 5.2767 0.1116 
-14 -2 1 -0.6493 0.1748 
-13 -10 1 9.2813 0.1925 
-13 -10 2 4.4355 0.1109 
-13 -9 1 -3.7046 -0.1244 
-13 -9 2 -5.5031 0.0107 
-13 -9 3 -4.5446 -0.1120 
-13 -9 4 0.2409 0.2079 
-13 -8 1 -5.8304 0.0645 
-13 -8 2 2.5974 -0.4270 
-13 -8 3 2.6015 -0.1240 
-13 -8 4 -1.9001 0.4320 
-13 -8 5 3.3128 0.0715 
-13 -8 6 -0.0567 -0.0075 
-13 -7 1 0.1488 0.1511 
-13 -7 2 -1.1820 -0.4410 
-13 -7 3 -3.0134 0.1473 
-13 -7 4 -7.5791 0.0422 
-13 -7 5 -1.8969 -0.1726 
-13 -7 6 3.7042 -0.0806 
-13 -7 7 -1.9728 -0.0664 
-13 -6 1 3.3511 0.2292 
-13 -6 2 9.2947 0.1740 
-13 -6 3 7.1412 -0.0376 
-13 -6 4 -2.4685 -0.1015 
-13 -6 5 3.0082 0.0309 
-13 -6 6 -5.7087 -0.0080 
-13 -6 7 -10.0531 -0.1533 
-13 -6 8 1.4762 0.0930 
-13 -5 1 -2.8237 0.1846 
-13 -5 2 -0.6818 0.3764 
-13 -5 3 0.0007 -0.3402 
-13 -4 1 -3.2178 0.0678 
-13 -4 2 2.0446 0.0486 
-13 -4 3 2.6496 -0.2073 
-13 -4 4 6.3154 -0.1060 
-13 -4 5 5.1280 0.2439 
-13 -3 1 -12.0743 -0.1494 
-13 -3 2 -4.7232 -0.1226 
-13 -3 3 0.2437 0.1641 
-13 -3 4 -2.0477 0.0524 
-13 -3 5 -6.5627 0.1431 
-13 -3 6 -3.7369 -0.0997 
-13 -3 7 9.1539 -0.2102 
-13 -3 9 5.1470 0.0958 
-13 -2 1 -0.7915 -0.1547 
-13 -2 2 4.3517 0.1682 
-13 -2 3 -1.2983 0.1610 
-13 -2 4 -2.6246 -0.0821 
-13 -2 5 -2.8337 -0.0844 
-13 -2 6 4.2864 -0.1947 
-13 -2 7 4.2302 0.0889 
-13 -2 8 -7.6852 0.0684 
-13 -1 1 -7.1738 -0.1257 
-13 -1 2 -4.9607 0.2752 
-13 -1 3 3.7574 -0.1799 
-13 -1 4 6.5210 0.0050 
-13 -1 5 -4.5640 -0.1047 
-13 -1 6 -3.3518 -0.0377 
-13 -1 7 -9.6011 0.1618 
-13 -1 8 -7.4342 -0.1737 
-13 0 1 -1.7072 -0.0014 
-13 0 2 7.5130 -0.2297 
-13 0 3 1.3740 -0.1305 
-13 0 4 0.4339 0.1301 
-13 0 5 2.3018 0.0571 
-13 0 6 2.5717 -0.0190 
-13 0 7 -4.0772 0.1273 
-13 1 1 5.7157 0.0242 
-13 1 2 -7.2462 -0.2635 
-13 1 3 -4.1001 0.1621 
-13 1 4 -10.7142 0.2145 
-13 1 5 5.0782 -0.0670 
-13 1 6 -5.8391 -0.2792 
-13 2 1 -5.6044 0.1191 
-13 2 2 1.8307 0.1056 
-13 2 3 10.6236 0.1111 
-12 -12 1 2.0182 0.5045 
-12 -12 2 -0.5661 0.0765 
-12 -11 1 0.5008 0.0880 
-12 -11 2 2.4854 0.0285 
-12 -11 3 4.9799 -0.1893 
-12 -11 4 6.5055 0.1260 
-12 -11 5 -0.1225 -0.0407 
-12 -10 1 6.6029 0.2185 
-12 -10 2 4.3091 -0.3731 
-12 -10 3 -3.7620 -0.3065 
-12 -10 4 -2.9298 -0.0192 
-12 -10 5 -5.7269 0.5074 
-12 -10 6 -0.6111 0.1229 
-12 -10 7 2.1457 -0.2092 
-12 -9 1 -0.6571 0.2690 
-12 -9 2 -2.8988 -0.0476 
-12 -9 3 -1.8619 0.1262 
-12 -9 4 -3.0991 0.0382 
-12 -9 5 1.1399 0.1303 
-12 -9 6 2.3637 -0.1573 
-12 -9 7 1.0806 -0.1988 
-12 -9 8 -1.9611 0.3755 
-12 -9 9 -0.2639 0.1549 
-12 -8 1 -5.1378 0.1100 
-12 -8 2 -6.2985 0.3836 
-12 -8 3 -0.3140 -0.0821 
-12 -8 4 -0.3884 -0.2538 
-12 -8 5 -1.4538 -0.0561 
-12 -8 6 -6.1220 -0.0379 
-12 -8 7 -1.2851 -0.0032 
-12 -8 8 1.9256 -0.0367 
-12 -8 9 3.8167 -0.0266 
-12 -8 10 6.3250 -0.1284 
-12 -7 1 -3.0085 -0.2954 
-12 -7 2 1.6929 0.4810 
-12 -7 3 1.2695 -0.2431 
-12 -7 4 -2.4117 -0.2636 
-12 -7 5 1.4605 -0.0340 
-12 -7 6 8.0234 0.3648 
-12 -7 7 -2.5942 0.0180 
-12 -7 8 -0.9839 -0.3274 
-12 -7 9 -2.9202 0.1012 
-12 -7 10 -6.7837 0.1103 
-12 -7 11 -2.5168 0.0268 
-12 -6 1 0.3543 -0.1610 
-12 -6 2 1.8300 -0.0671 
-12 -6 3 1.1190 0.0102 
-12 -6 4 3.7042 -0.0379 
-12 -6 5 4.7991 -0.0753 
-12 -6 6 -2.1996 0.1475 
-12 -6 7 -3.8232 -0.1430 
-12 -6 8 -3.3158 -0.1396 
-12 -6 9 4.4561 0.1155 
-12 -6 10 -1.6101 0.1152 
-12 -6 11 -4.9529 -0.0425 
-12 -5 1 1.8101 -0.1052 
-12 -5 2 0.1764 -0.3015 
-12 -5 3 4.5649 0.4971 
-12 -5 4 1.4745 0.0780 
-12 -5 5 -5.2971 -0.2002 
-12 -5 6 -7.2167 -0.0423 
-12 -5 7 -11.0408 0.0389 
-12 -5 8 5.7460 -0.0516 
-12 -5 9 2.2162 -0.0160 
-12 -5 10 1.6813 0.1326 
-12 -5 11 -2.0178 -0.3411 
-12 -5 12 5.9937 -0.1415 
-12 -4 1 0.6926 -0.1877 
-12 -4 2 -0.0494 0.0979 
-12 -4 3 4.0113 0.3418 
-12 -4 4 -0.2602 0.0351 
-12 -4 5 0.7564 -0.2839 
-12 -3 1 -13.7896 -0.1583 
-12 -3 2 -5.0131 0.0534 
-12 -3 3 -3.5112 -0.2684 
-12 -3 4 1.2613 0.0743 
-12 -3 5 -1.8989 -0.1040 
-12 -3 6 7.0368 -0.0041 
-12 -3 7 7.1675 0.1808 
-12 -3 8 5.7166 -0.0728 
-12 -3 11 -0.3418 0.0485 
-12 -3 12 -1.1870 -0.0124 
-12 -2 1 9.1590 0.2184 
-12 -2 2 2.3248 -0.4035 
-12 -2 3 -6.4190 -0.2417 
-12 -2 4 -1.4927 0.1404 
-12 -2 5 -3.3622 0.1494 
-12 -2 6 -2.7888 -0.0642 
-12 -2 7 0.2317 -0.0994 
-12 -2 8 -10.2971 0.0451 
-12 -2 9 -7.2684 0.0118 
-12 -2 10 0.6867 0.1235 
-12 -2 11 -3.0600 0.0230 
-12 -2 12 -3.3706 -0.0116 
-12 -1 1 -12.9379 0.1731 
-12 -1 2 -9.5705 -0.3634 
-12 -1 3 -1.2739 0.1451 
-12 -1 4 1.5726 0.1194 
-12 -1 5 3.8654 0.2107 
-12 -1 6 1.1953 -0.2427 
-12 -1 7 -3.6411 -0.1379 
-12 -1 8 0.2485 0.1344 
-12 -1 9 4.6560 -0.0541 
-12 -1 10 4.0694 -0.0186 
-12 -1 11 9.7728 -0.0410 
-12 -1 12 1.5123 0.1571 
-12 0 1 3.8829 0.0982 
-12 0 2 6.7129 0.2862 
-12 0 3 14.9654 -0.0455 
-12 0 4 0.8828 -0.0933 
-12 0 5 7.7625 0.0853 
-12 0 6 1.1610 -0.1655 
-12 0 7 -1.1330 0.0445 
-12 0 8 0.0553 0.0530 
-12 0 9 -0.5126 -0.0705 
-12 0 10 -1.2953 -0.1832 
-12 0 11 1.2909 0.0292 
-12 0 12 -4.8903 0.2513 
-12 1 1 1.1700 0.0866 
-12 1 2 4.6202 0.2390 
-12 1 3 -15.0012 -0.3399 
-12 1 4 -9.1150 -0.1377 
-12 1 5 -2.2579 0.0337 
-12 1 6 -2.3571 0.1339 
-12 1 7 -6.7309 -0.0488 
-12 1 8 0.2107 -0.0024 
-12 1 9 -7.3966 -0.0027 
-12 1 10 6.9156 -0.0925 
-12 1 11 1.8072 0.1588 
-12 2 1 6.5781 0.0942 
-12 2 2 -1.6718 -0.1187 
-12 2 3 20.3130 -0.0414 
-12 2 4 11.7222 -0.0557 
-12 2 5 3.1354 0.1523 
-12 2 6 9.7496 0.1169 
-12 2 7 3.2889 -0.2329 
-12 2 8 5.6900 0.0950 
-12 2 9 2.0590 0.0875 
-12 2 10 4.0107 -0.0798 
-12 3 1 3.6137 -0.2409 
-12 3 2 -7.7865 0.0527 
-12 3 3 -11.0241 0.2906 
-12 3 4 -17.7414 0.0475 
-12 3 5 -1.5505 0.0332 
-12 3 6 0.0348 -0.0152 
-12 3 7 1.0320 -0.1857 
-12 3 8 -9.5803 0.1854 
-12 4 1 3.6691 -0.2402 
-12 4 2 -1.8223 0.3673 
-12 4 3 -3.5437 0.1673 
-12 4 4 1.9656 -0.1166 
-12 4 5 2.0609 -0.1061 
-12 4 6 3.2760 0.0157 
-12 5 1 1.2452 -0.0475 
-11 -13 1 -1.1085 -0.1451 
-11 -13 2 -6.7868 0.5303 
-11 -13 3 3.0236 -0.3869 
-11 -13 4 5.1616 0.0960 
-11 -12 1 0.7434 0.0197 
-11 -12 2 0.5643 -0.0880 
-11 -12 3 -3.3477 0.1956 
-11 -12 4 3.4414 -0.2760 
-11 -12 5 2.3028 0.3603 
-11 -12 6 -1.2018 0.0516 
-11 -11 1 2.9646 -0.0533 
-11 -11 2 0.8730 -0.1310 
-11 -11 3 4.6261 0.5123 
-11 -11 4 4.3557 -0.1306 
-11 -11 5 0.9572 -0.2209 
-11 -11 6 -5.2390 0.0194 
-11 -11 7 -2.3833 0.0923 
-11 -11 8 1.2819 0.0183 
-11 -11 9 2.9755 0.0870 
-11 -10 1 0.2396 -0.2686 
-11 -10 2 1.1990 0.3894 
-11 -10 3 -2.6595 0.3531 
-11 -10 4 -1.6062 -0.2012 
-11 -10 5 -4.2540 -0.3791 
-11 -10 6 -1.4755 0.2810 
-11 -10 7 1.6471 0.0236 
-11 -10 8 -0.4884 -0.2870 
-11 -10 9 1.5381 0.1398 
-11 -10 10 0.4755 0.2941 
-11 -9 1 -0.1330 -0.7948 
-11 -9 2 -1.5608 0.2566 
-11 -9 3 -2.9129 -0.0843 
-11 -9 4 -6.2057 -0.1184 
-11 -9 5 2.0417 -0.2466 
-11 -9 6 -0.6164 0.2722 
-11 -9 7 -0.2361 0.1539 
-11 -9 8 -2.9090 -0.2391 
-11 -9 9 -4.7900 0.0036 
-11 -9 10 0.8523 0.2192 
-11 -9 11 -2.3903 -0.2158 
-11 -8 1 -6.7049 -0.1940 
-11 -8 2 -3.5748 -0.4082 
-11 -8 3 -2.9567 0.2095 
-11 -8 4 1.9026 0.1653 
-11 -8 5 -3.4163 -0.1513 
-11 -8 6 0.8866 -0.1244 
-11 -8 7 -6.8252 0.0697 
-11 -8 8 1.1658 -0.0272 
-11 -8 9 4.1161 -0.0079 
-11 -8 10 -0.1058 0.0497 
-11 -8 11 0.0007 -0.0411 
-11 -8 12 -0.4964 0.0360 
-11 -8 13 0.5856 0.2204 
-11 -7 1 1.7991 0.1572 
-11 -7 2 4.8439 -0.6061 
-11 -7 3 0.4312 0.5309 
-11 -7 4 3.3899 0.1707 
-11 -7 5 6.8087 -0.0916 
-11 -7 6 -1.9135 -0.3765 
-11 -7 7 3.5776 0.0255 
-11 -7 8 -2.8599 0.0929 
-11 -7 9 -2.0749 -0.0666 
-11 -7 10 1.4574 -0.0102 
-11 -7 11 -3.7486 -0.0004 
-11 -7 12 -4.3389 -0.1681 
-11 -7 13 -1.5383 -0.1176 
-11 -6 1 3.9790 0.1794 
-11 -6 2 -5.9022 0.0947 
-11 -6 3 -2.7273 -0.1616 
-11 -6 4 -0.0550 0.1332 
-11 -6 5 2.3727 0.0454 
-11 -6 6 6.5033 -0.2733 
-11 -6 7 -1.6216 0.2261 
-11 -6 8 1.8733 0.1807 
-11 -6 9 -1.2069 -0.1436 
-11 -6 10 -2.3080 -0.1613 
-11 -6 11 -1.1931 0.1369 
-11 -6 12 0.8986 0.0997 
-11 -6 13 0.9334 -0.2957 
-11 -6 14 5.2479 0.0088 
-11 -5 1 -0.1454 0.1439 
-11 -5 2 -4.8900 0.1684 
-11 -5 3 -1.7678 -0.8022 
-11 -5 4 1.5874 0.2812 
-11 -5 5 0.9115 0.2043 
-11 -5 6 -10.9283 -0.2016 
-11 -5 7 -1.1214 0.0183 
-11 -5 8 0.4087 0.0802 
-11 -5 9 1.8115 0.0066 
-11 -5 10 1.5579 -0.0448 
-11 -5 11 2.4959 0.1000 
-11 -5 12 -3.4892 -0.0400 
-11 -5 13 3.1008 -0.0413 
-11 -5 14 -0.0063 0.0569 
-11 -5 15 2.6230 0.3117 
-11 -4 1 -0.5427 0.4299 
-11 -4 2 4.7220 -0.3227 
-11 -4 3 6.9034 -0.4080 
-11 -4 4 9.8300 0.1773 
-11 -4 5 -6.0888 0.3238 
-11 -4 6 -4.2562 -0.0411 
-11 -4 7 -4.5366 -0.3428 
-11 -4 8 7.7190 0.1673 
-11 -4 9 -0.4933 0.0241 
-11 -4 10 2.1958 -0.0083 
-11 -4 11 3.7631 -0.0486 
-11 -4 12 -0.2486 -0.0283 
-11 -4 13 -2.3164 -0.0057 
-11 -4 14 1.4136 -0.0393 
-11 -4 15 -4.1250 0.1262 
-11 -3 1 -8.3197 0.2568 
-11 -3 2 -3.5028 -0.1949 
-11 -3 3 -2.0079 0.2677 
-11 -3 4 -2.2847 -0.1217 
-11 -3 5 6.2636 0.1640 
-11 -3 6 -1.8756 -0.0768 
-11 -3 7 9.1662 -0.2045 
-11 -3 8 3.9953 0.1800 
-11 -3 9 -8.8984 -0.0107 
-11 -3 10 -3.5438 -0.0377 
-11 -3 11 0.7871 -0.0875 
-11 -3 12 -2.6947 0.1205 
-11 -3 13 1.7392 0.0912 
-11 -3 14 -0.5627 -0.0759 
-11 -3 15 -2.1600 -0.0126 
-11 -2 1 4.6558 -0.0184 
-11 -2 2 5.3627 0.5545 
-11 -2 3 -4.3049 0.0633 
-11 -2 4 -1.8097 -0.2622 
-11 -2 5 -0.9275 -0.0483 
-11 -2 6 -6.3559 0.0398 
-11 -2 7 -4.6143 0.0561 
-11 -2 8 -2.1285 -0.0837 
-11 -2 9 1.6630 -0.0156 
-11 -2 10 -3.3537 0.0361 
-11 -2 11 7.5327 -0.0203 
-11 -2 13 -2.0979 0.0176 
-11 -2 14 -0.7485 -0.0104 
-11 -2 15 0.9176 -0.0854 
-11 -1 1 6.8905 -0.2205 
-11 -1 2 -6.9214 0.4140 
-11 -1 3 -4.2359 -0.1726 
-11 -1 4 -1.1627 -0.2265 
-11 -1 5 1.9420 -0.1241 
-11 -1 6 2.7025 0.2986 
-11 -1 7 4.8465 0.0704 
-11 -1 8 8.3436 -0.2076 
-11 -1 9 -1.4703 0.0426 
-11 -1 10 -2.9864 0.1208 
-11 -1 11 0.1167 -0.0253 
-11 -1 12 -1.3723 -0.0302 
-11 -1 13 -2.5928 0.0752 
-11 -1 14 -1.9601 0.0083 
-11 -1 15 5.1464 -0.0956 
-11 0 1 -6.8581 -0.1369 
-11 0 2 -0.3672 -0.2399 
-11 0 3 8.2790 0.2056 
-11 0 4 0.7616 -0.1206 
-11 0 5 6.5357 -0.0659 
-11 0 6 5.6361 0.2398 
-11 0 7 -8.5583 -0.1377 
-11 0 8 6.4163 -0.1071 
-11 0 9 -4.4453 0.0440 
-11 0 10 -2.0326 0.0969 
-11 0 11 9.8906 -0.0872 
-11 0 12 2.6817 -0.0679 
-11 0 13 1.5515 0.1810 
-11 0 14 -1.7477 -0.0582 
-11 0 15 -9.7748 -0.1816 
-11 1 1 2.5203 -0.2788 
-11 1 2 -2.7614 -0.1127 
-11 1 3 -0.4531 0.5198 
-11 1 4 -0.6851 -0.0290 
-11 1 5 -0.3701 -0.1684 
-11 1 6 -1.6758 -0.0003 
-11 1 7 -1.8987 0.0470 
-11 1 8 -2.5254 0.0007 
-11 1 9 -2.6468 -0.0695 
-11 1 10 -4.7369 -0.0672 
-11 1 11 1.1221 -0.0518 
-11 1 12 -3.5016 0.0132 
-11 1 13 1.1969 0.1414 
-11 1 14 -0.2990 -0.0543 
-11 2 1 -1.8602 -0.1479 
-11 2 2 1.8674 0.3988 
-11 2 3 10.0103 0.0511 
-11 2 4 6.0008 -0.0003 
-11 2 5 1.4273 -0.2015 
-11 2 6 -2.2675 0.0229 
-11 2 7 9.9264 0.2165 
-11 2 8 4.5916 -0.0890 
-11 2 9 -1.6955 -0.0245 
-11 2 10 3.3452 -0.0069 
-11 2 11 0.4662 -0.0124 
-11 2 12 0.3338 0.0398 
-11 2 13 -2.9196 -0.0434 
-11 2 14 -0.8947 -0.0681 
-11 3 1 4.8833 0.1215 
-11 3 2 -2.0419 0.0582 
-11 3 3 -2.3652 -0.2923 
-11 3 4 0.8782 0.0964 
-11 3 5 -11.5493 0.0646 
-11 3 6 9.3293 0.1122 
-11 3 7 -3.8443 0.0228 
-11 3 8 -2.4450 -0.1101 
-11 3 9 -1.3249 0.1225 
-11 3 10 -5.0657 0.0194 
-11 3 11 5.4137 0.0935 
-11 3 12 2.5744 -0.0339 
-11 3 13 2.8600 0.0180 
-11 4 1 10.3059 0.1764 
-11 4 2 2.7521 -0.4322 
-11 4 3 -4.4417 -0.0739 
-11 4 4 -6.9255 0.1329 
-11 4 5 -2.4862 0.2590 
-11 4 6 -7.0320 -0.0728 
-11 4 7 -5.9646 -0.1965 
-11 4 8 -1.5165 0.0395 
-11 4 9 0.6911 0.1364 
-11 4 10 6.7676 -0.0612 
-11 4 11 2.3481 -0.1054 
-11 5 1 16.2178 0.0528 
-11 5 2 4.2259 -0.3058 
-11 5 3 -4.2119 0.1407 
-11 5 4 4.3785 0.1283 
-11 5 5 1.7272 0.0529 
-11 5 6 -0.2185 -0.2007 
-11 5 7 2.7439 -0.0778 
-11 5 8 0.4226 0.1442 
-11 5 9 0.9702 0.0764 
-11 5 10 -1.0894 -0.0343 
-11 6 1 -5.4318 0.0925 
-11 6 2 -17.6789 0.1816 
-11 6 3 -8.0402 -0.0879 
-11 6 4 1.6527 -0.0200 
-11 6 5 4.9575 -0.0783 
-11 6 6 1.5647 -0.1102 
-11 6 7 7.8578 0.0719 
-11 7 1 -3.4105 0.0033 
-10 -14 1 3.8771 -0.7545 
-10 -14 2 0.4951 0.0173 
-10 -14 3 -2.8498 0.3425 
-10 -14 4 -1.9159 -0.0831 
-10 -13 1 0.7123 -0.0372 
-10 -13 2 1.4732 -0.1935 
-10 -13 3 -3.4186 0.7857 
-10 -13 4 -1.6448 -0.2495 
-10 -13 5 3.1262 -0.5227 
-10 -13 6 3.3763 0.3302 
-10 -13 7 1.5084 0.4528 
-10 -12 1 5.3384 -0.2401 
-10 -12 2 0.6173 -0.0194 
-10 -12 3 -2.6232 0.1743 
-10 -12 4 0.1868 0.0936 
-10 -12 5 4.5510 -0.4004 
-10 -12 6 2.0359 0.0419 
-10 -12 7 -2.1873 0.2470 
-10 -12 8 -0.9264 -0.1124 
-10 -12 9 -3.7574 0.2259 
-10 -11 1 2.0499 -0.5035 
-10 -11 2 2.3970 -0.1584 
-10 -11 3 -3.0540 -0.4439 
-10 -11 4 3.6437 0.4175 
-10 -11 5 4.5197 -0.0008 
-10 -11 6 -2.9967 -0.0756 
-10 -11 7 -4.3723 -0.0454 
-10 -11 8 -3.6198 -0.0592 
-10 -11 9 1.7946 -0.0557 
-10 -11 10 2.1891 -0.1205 
-10 -11 11 2.9410 0.1292 
-10 -10 1 -3.0197 0.1668 
-10 -10 2 -3.4693 -0.6159 
-10 -10 3 0.9171 -0.0915 
-10 -10 4 -3.2377 0.4028 
-10 -10 5 -2.4310 0.1031 
-10 -10 6 -1.0015 -0.3978 
-10 -10 7 1.2758 -0.0376 
-10 -10 8 3.0245 0.1548 
-10 -10 9 1.7727 -0.1734 
-10 -10 10 5.2765 -0.0755 
-10 -10 11 -1.8593 0.1540 
-10 -10 12 -2.6537 -0.0668 
-10 -9 1 -1.7593 0.6660 
-10 -9 2 0.0858 -0.6599 
-10 -9 3 -2.8848 0.2765 
-10 -9 4 0.1007 0.0793 
-10 -9 5 -4.5567 0.2842 
-10 -9 6 -0.3384 -0.4145 
-10 -9 7 -1.8933 -0.1686 
-10 -9 8 -3.4653 0.2178 
-10 -9 9 -1.8126 -0.0684 
-10 -9 10 -2.2596 -0.1396 
-10 -9 11 1.1160 0.1967 
-10 -9 12 1.8029 0.0369 
-10 -9 13 1.0837 -0.0087 
-10 -9 14 2.5815 0.1927 
-10 -8 1 -3.6007 0.5517 
-10 -8 2 -0.5288 0.3541 
-10 -8 3 -0.5706 -0.5105 
-10 -8 4 -3.9678 -0.0950 
-10 -8 5 1.7224 0.2744 
-10 -8 6 -3.4517 -0.1639 
-10 -8 7 1.0580 -0.0475 
-10 -8 8 -0.2885 0.1274 
-10 -8 9 -2.2820 0.0586 
-10 -8 10 0.6707 -0.1388 
-10 -8 11 -2.0277 0.1033 
-10 -8 12 -1.4574 0.0566 
-10 -8 13 4.1385 -0.1076 
-10 -8 14 3.5344 -0.2478 
-10 -8 15 3.9343 -0.0917 
-10 -7 1 6.5183 -0.1887 
-10 -7 2 3.3110 0.5097 
-10 -7 3 2.3935 -0.8246 
-10 -7 4 4.6398 0.0497 
-10 -7 5 1.8562 0.2547 
-10 -7 6 6.0527 0.1031 
-10 -7 7 0.3913 -0.1649 
-10 -7 8 -1.6123 -0.1012 
-10 -7 9 0.4754 0.1771 
-10 -7 10 -2.8180 0.0270 
-10 -7 11 -0.0216 -0.0445 
-10 -7 12 -3.4410 0.0844 
-10 -7 13 -0.5649 0.0166 
-10 -7 14 0.9136 -0.0293 
-10 -7 15 0.2871 -0.0249 
-10 -7 16 -0.9993 0.1733 
-10 -6 1 -1.6439 -0.0372 
-10 -6 2 -3.1794 -0.0280 
-10 -6 3 -4.7901 0.0256 
-10 -6 4 -1.4620 -0.1885 
-10 -6 5 0.9998 0.2474 
-10 -6 6 -2.8885 0.1524 
-10 -6 7 2.6623 -0.3513 
-10 -6 8 5.7141 -0.0080 
-10 -6 9 -2.1496 0.0893 
-10 -6 10 2.3029 0.0908 
-10 -6 11 2.5161 -0.2041 
-10 -6 12 1.0568 0.0006 
-10 -6 13 2.7937 0.1737 
-10 -6 14 0.9801 -0.2503 
-10 -6 15 -4.8929 0.0557 
-10 -6 16 -0.7048 0.2692 
-10 -5 1 4.5580 -0.0847 
-10 -5 2 -0.7398 -0.0691 
-10 -5 3 -5.5499 0.7616 
-10 -5 4 -1.5809 -0.4320 
-10 -5 5 -4.8543 -0.1011 
-10 -5 6 3.6439 0.1670 
-10 -5 7 1.9986 -0.0450 
-10 -5 8 4.1952 0.0137 
-10 -5 9 -0.1191 0.0074 
-10 -5 10 -1.4166 0.0908 
-10 -5 11 1.0058 -0.1246 
-10 -5 12 -3.6900 -0.0058 
-10 -5 13 -3.5704 0.1348 
-10 -5 14 0.8966 -0.2806 
-10 -5 15 -1.0763 -0.1448 
-10 -5 16 2.2811 0.1366 
-10 -5 17 5.9478 -0.0683 
-10 -4 1 -0.1686 -0.3426 
-10 -4 2 -0.3037 0.6316 
-10 -4 3 3.3129 0.2042 
-10 -4 4 1.7779 -0.3872 
-10 -4 5 8.3643 -0.4006 
-10 -4 6 -4.4217 0.2852 
-10 -4 7 -8.3532 0.3120 
-10 -4 8 -1.6316 -0.2581 
-10 -4 9 -0.6477 0.0220 
-10 -4 10 0.5685 0.1354 
-10 -4 11 3.5838 0.0030 
-10 -4 12 -6.4497 0.0057 
-10 -4 13 1.6204 0.1157 
-10 -4 14 2.5126 -0.0227 
-10 -4 15 1.3065 0.0042 
-10 -4 16 2.3552 0.0494 
-10 -4 17 2.0598 0.0392 
-10 -3 1 -4.2630 -0.5614 
-10 -3 2 1.4859 0.3542 
-10 -3 3 -4.3263 -0.1276 
-10 -3 4 -1.2852 0.0076 
-10 -3 5 5.4008 -0.3395 
-10 -3 6 -1.5137 0.2819 
-10 -3 7 -3.6860 0.1827 
-10 -3 8 -2.7851 -0.3179 
-10 -3 9 2.0657 -0.0315 
-10 -3 10 -2.2675 0.1089 
-10 -3 11 5.5886 0.0701 
-10 -3 12 1.5055 -0.1071 
-10 -3 13 0.0069 -0.0186 
-10 -3 14 -0.7022 0.1219 
-10 -3 15 -7.7843 0.0646 
-10 -3 16 3.1939 -0.0535 
-10 -3 17 0.8314 0.1017 
-10 -3 18 -2.0576 0.0699 
-10 -2 1 3.3378 -0.0625 
-10 -2 2 -0.5104 -0.6161 
-10 -2 3 -1.5746 0.2957 
-10 -2 4 3.9080 0.3115 
-10 -2 5 7.0876 -0.0532 
-10 -2 6 -1.1833 0.0505 
-10 -2 7 -6.1784 -0.1389 
-10 -2 8 5.6423 0.0883 
-10 -2 9 0.7566 -0.0921 
-10 -2 10 1.7028 -0.0259 
-10 -2 11 -2.2593 -0.0230 
-10 -2 12 1.8131 -0.1270 
-10 -2 13 4.0410 0.0569 
-10 -2 14 -1.7765 0.1009 
-10 -2 15 3.5337 0.0045 
-10 -2 16 7.2608 -0.1736 
-10 -2 17 -2.1787 0.0863 
-10 -2 18 -6.5504 0.2161 
-10 -1 1 7.8302 0.1164 
-10 -1 2 -0.8158 -0.5064 
-10 -1 3 2.5879 0.4461 
-10 -1 4 -3.8423 0.2419 
-10 -1 5 -5.0152 -0.0229 
-10 -1 6 6.7725 -0.2720 
-10 -1 7 -1.1048 0.0267 
-10 -1 8 3.6138 0.2556 
-10 -1 9 4.1769 -0.1539 
-10 -1 10 -12.1690 -0.0706 
-10 -1 11 -4.4804 0.0957 
-10 -1 12 -2.6781 0.0458 
-10 -1 13 -4.4060 0.0040 
-10 -1 14 -1.5287 0.0430 
-10 -1 15 -1.3240 0.0110 
-10 -1 16 4.4884 -0.1845 
-10 -1 17 -7.0324 0.1736 
-10 -1 18 -2.1744 0.2388 
-10 0 1 -3.3526 0.2286 
-10 0 2 -3.6343 0.2466 
-10 0 3 2.7050 -0.3558 
-10 0 4 -2.8626 0.1116 
-10 0 5 1.9153 0.0212 
-10 0 6 4.7736 -0.2079 
-10 0 7 2.7909 0.1692 
-10 0 8 -0.6438 0.0234 
-10 0 9 3.8632 -0.0238 
-10 0 10 2.5775 -0.0293 
-10 0 11 9.7143 0.1068 
-10 0 12 6.0091 0.1420 
-10 0 13 2.9715 -0.1525 
-10 0 14 -1.5117 0.0786 
-10 0 15 -4.9544 0.0682 
-10 0 16 -1.1142 -0.0732 
-10 0 17 -4.2624 0.1098 
-10 1 1 -7.6780 0.2554 
-10 1 2 -0.3156 0.0732 
-10 1 3 7.2965 -0.6402 
-10 1 4 -3.3101 0.1019 
-10 1 5 0.2851 0.2651 
-10 1 6 3.2818 -0.0638 
-10 1 7 -2.3521 -0.0773 
-10 1 8 1.7364 -0.0928 
-10 1 9 -7.4004 0.0618 
-10 1 10 -4.7993 -0.0693 
-10 1 11 -6.6693 0.0798 
-10 1 12 0.2972 -0.0142 
-10 1 13 4.5163 -0.1440 
-10 1 14 0.4354 0.1052 
-10 1 15 0.1559 0.0520 
-10 1 16 -0.2150 -0.0302 
-10 1 17 -0.6377 -0.0290 
-10 2 1 1.6209 0.2997 
-10 2 2 0.5992 -0.4305 
-10 2 3 -9.7651 -0.1700 
-10 2 4 4.3513 0.2478 
-10 2 5 -4.6904 0.4190 
-10 2 6 5.2569 -0.1502 
-10 2 7 5.3170 -0.2503 
-10 2 8 -2.8334 0.1513 
-10 2 9 3.9749 0.0557 
-10 2 10 -0.8817 -0.0931 
-10 2 11 -0.0069 0.0026 
-10 2 12 -2.6822 -0.0687 
-10 2 13 -6.9646 0.0297 
-10 2 14 -3.8850 0.0741 
-10 2 15 0.8146 -0.0243 
-10 2 16 1.7552 -0.0019 
-10 2 17 -0.6066 -0.1274 
-10 3 1 -4.4467 0.0216 
-10 3 2 -1.1291 -0.0975 
-10 3 3 2.0156 0.2056 
-10 3 4 4.9686 -0.0100 
-10 3 5 1.8346 0.0572 
-10 3 6 2.0305 -0.1576 
-10 3 7 -0.3047 0.0145 
-10 3 8 -3.7466 0.1418 
-10 3 9 -1.4317 0.0151 
-10 3 10 -1.4261 0.0282 
-10 3 11 0.7735 -0.1074 
-10 3 12 12.8719 0.1048 
-10 3 13 0.1418 0.0724 
-10 3 14 4.2234 -0.1492 
-10 3 15 -2.2234 -0.0674 
-10 3 16 -1.8181 -0.0432 
-10 4 1 7.3265 -0.0546 
-10 4 2 9.2280 0.3785 
-10 4 3 2.2814 -0.0132 
-10 4 4 0.5166 -0.2175 
-10 4 5 -1.6492 -0.1955 
-10 4 6 -5.6869 0.0740 
-10 4 7 -12.0998 0.2039 
-10 4 8 -6.0104 -0.1354 
-10 4 9 4.7239 -0.0474 
-10 4 10 3.0568 0.1054 
-10 4 11 8.5724 -0.0230 
-10 4 12 -2.9450 0.0381 
-10 4 13 -1.5278 -0.0071 
-10 4 14 -0.8195 -0.0414 
-10 4 15 1.2030 -0.0927 
-10 5 1 8.9994 -0.1552 
-10 5 2 4.0814 0.1525 
-10 5 3 -0.8879 -0.1203 
-10 5 4 -4.8287 -0.1342 
-10 5 5 -2.3489 -0.0903 
-10 5 6 -5.5081 0.2726 
-10 5 7 3.1793 0.0147 
-10 5 8 1.9965 -0.2073 
-10 5 9 5.0574 0.0117 
-10 5 10 -1.4293 0.1686 
-10 5 11 0.9415 -0.0237 
-10 5 12 -0.6816 -0.0764 
-10 5 13 0.4834 0.0172 
-10 5 14 6.4041 0.1813 
-10 6 1 -4.5089 -0.1548 
-10 6 2 -5.3612 -0.2496 
-10 6 3 -0.3427 0.1962 
-10 6 4 7.6335 0.0657 
-10 6 5 -3.2020 -0.0834 
-10 6 6 5.4803 0.0635 
-10 6 7 -0.4862 -0.1365 
-10 6 8 5.2215 -0.0322 
-10 6 9 -3.4955 0.0305 
-10 6 10 -3.4793 0.1068 
-10 6 11 -9.6587 -0.1168 
-10 6 12 1.5561 -0.1811 
-10 7 1 0.5616 -0.2166 
-10 7 2 -1.8647 0.0542 
-10 7 3 5.7633 0.2519 
-10 7 4 -12.5221 -0.0201 
-10 7 5 -1.5648 -0.1958 
-10 7 6 0.7880 -0.0520 
-10 7 7 2.1528 0.1145 
-10 7 8 3.8357 0.1285 
-10 7 9 5.7691 -0.0241 
-10 7 10 -8.1303 -0.0006 
-10 8 1 0.1715 0.1614 
-10 8 2 1.2129 0.2719 
-10 8 3 -3.5952 -0.0827 
-10 8 4 -2.7975 -0.1490 
-10 8 5 -0.5251 -0.0947 
-10 8 6 -0.4911 -0.0426 
-9 -15 1 -5.8664 -0.1133 
-9 -15 2 2.0236 -0.2947 
-9 -15 3 1.8649 0.6213 
-9 -14 1 3.4100 0.6199 
-9 -14 2 -0.2789 -0.0508 
-9 -14 3 1.4749 -0.6262 
-9 -14 4 -0.4346 0.1841 
-9 -14 5 -0.4404 0.1034 
-9 -14 6 -1.1373 0.2660 
-9 -14 7 4.0805 -0.0615 
-9 -13 1 0.0310 -0.1357 
-9 -13 2 5.7602 -0.2182 
-9 -13 3 1.0600 -0.7790 
-9 -13 4 -2.3385 0.3402 
-9 -13 5 -2.3158 0.3021 
-9 -13 6 1.7553 -0.1925 
-9 -13 7 1.7179 0.1735 
-9 -13 8 1.8206 0.3520 
-9 -13 9 -3.5588 0.0655 
-9 -12 1 3.1888 0.3931 
-9 -12 2 4.0235 -0.1499 
-9 -12 3 0.8909 -0.2858 
-9 -12 4 -4.3157 0.0007 
-9 -12 5 -1.5470 0.4382 
-9 -12 6 -0.3691 -0.2580 
-9 -12 7 0.8694 -0.1901 
-9 -12 8 -0.1572 0.2347 
-9 -12 9 -0.5690 0.0063 
-9 -12 10 -3.3715 0.0363 
-9 -12 11 -1.1441 0.0581 
-9 -11 1 -1.4816 0.6431 
-9 -11 2 0.9128 -0.1101 
-9 -11 3 -2.9725 0.1669 
-9 -11 4 -1.5086 -0.4126 
-9 -11 5 1.6548 0.2703 
-9 -11 6 2.3908 -0.0346 
-9 -11 7 -2.2810 -0.3311 
-9 -11 8 -1.6636 0.1310 
-9 -11 9 -1.7301 0.2449 
-9 -11 10 1.9349 0.0938 
-9 -11 11 1.4822 -0.1507 
-9 -11 12 1.3959 0.1090 
-9 -11 13 -0.7478 0.0371 
-9 -10 1 -5.3367 0.2330 
-9 -10 2 0.1008 0.7176 
-9 -10 3 -2.8667 -0.3445 
-9 -10 4 -2.0094 -0.5203 
-9 -10 5 0.6799 0.0097 
-9 -10 6 4.9391 0.2929 
-9 -10 7 0.3253 -0.0388 
-9 -10 8 -2.7520 -0.2254 
-9 -10 9 0.9434 0.0903 
-9 -10 10 -0.0675 -0.0549 
-9 -10 11 -2.0504 -0.0244 
-9 -10 12 0.9798 0.2885 
-9 -10 13 -3.7635 0.1675 
-9 -10 14 -0.4517 0.0642 
-9 -9 1 -0.2029 -0.9545 
-9 -9 2 -2.1641 0.7858 
-9 -9 3 2.5221 -0.4237 
-9 -9 4 -0.2625 -0.1921 
-9 -9 5 -1.0751 -0.1068 
-9 -9 6 -3.6174 0.3279 
-9 -9 7 -2.2647 -0.0406 
-9 -9 8 -0.0402 -0.3620 
-9 -9 9 0.9084 0.1568 
-9 -9 10 1.1291 0.0213 
-9 -9 11 2.1065 -0.1724 
-9 -9 12 0.4037 -0.0530 
-9 -9 13 3.8790 0.0924 
-9 -9 14 -0.6245 -0.1674 
-9 -9 15 -1.1643 -0.1822 
-9 -9 16 -6.7554 0.5160 
-9 -8 1 -3.6710 -0.4176 
-9 -8 2 -3.2487 -0.1161 
-9 -8 3 1.3183 0.5832 
-9 -8 4 2.4981 -0.0710 
-9 -8 5 -2.7157 -0.0887 
-9 -8 6 -1.0510 0.2229 
-9 -8 7 1.2523 -0.0257 
-9 -8 8 -1.4927 -0.1627 
-9 -8 9 -0.3586 -0.0327 
-9 -8 10 -4.4346 0.2024 
-9 -8 11 -1.1492 -0.0508 
-9 -8 12 0.3410 -0.1223 
-9 -8 13 1.4216 0.1983 
-9 -8 14 6.8345 -0.0877 
-9 -8 15 3.6644 -0.0700 
-9 -8 16 3.5345 0.0433 
-9 -8 17 0.7156 -0.2086 
-9 -7 1 0.6529 -0.0547 
-9 -7 2 6.4062 -0.5757 
-9 -7 3 3.4766 1.1510 
-9 -7 4 -0.6311 -0.2314 
-9 -7 5 -0.6707 -0.4249 
-9 -7 6 1.9152 -0.0041 
-9 -7 7 0.3019 0.3179 
-9 -7 8 0.4989 0.1849 
-9 -7 9 -1.5585 -0.2667 
-9 -7 10 2.5567 0.1074 
-9 -7 11 -1.1623 0.0974 
-9 -7 12 -0.8455 -0.0373 
-9 -7 13 -1.5157 0.1124 
-9 -7 14 1.2984 0.0034 
-9 -7 15 -3.8970 -0.0859 
-9 -7 16 0.9108 -0.1583 
-9 -7 17 0.0346 0.1151 
-9 -6 1 -3.0948 -0.1478 
-9 -6 2 -3.3239 0.0591 
-9 -6 3 -1.2357 0.0942 
-9 -6 4 1.0963 -0.0143 
-9 -6 5 -4.6372 -0.4426 
-9 -6 6 2.2313 -0.0818 
-9 -6 7 4.3144 0.3571 
-9 -6 8 7.3002 -0.0814 
-9 -6 9 7.0719 -0.1411 
-9 -6 10 -1.3940 -0.0055 
-9 -6 11 2.8044 0.1642 
-9 -6 12 -3.9170 -0.1245 
-9 -6 13 2.1959 -0.0349 
-9 -6 14 -0.9066 0.1302 
-9 -6 15 -0.5518 -0.0766 
-9 -6 16 -1.2126 -0.1330 
-9 -6 17 1.6941 0.2155 
-9 -6 18 -2.0740 0.0780 
-9 -5 1 2.2098 -0.5238 
-9 -5 2 3.7265 -0.0006 
-9 -5 3 0.2027 -0.5936 
-9 -5 4 -4.8096 0.5791 
-9 -5 5 -1.7387 -0.1113 
-9 -5 6 -0.6682 -0.0530 
-9 -5 7 -0.9949 0.1634 
-9 -5 8 -1.7044 -0.0820 
-9 -5 9 -3.9857 -0.0757 
-9 -5 10 -2.7173 -0.1173 
-9 -5 11 3.9594 0.1801 
-9 -5 12 -3.2332 -0.1043 
-9 -5 13 0.2046 -0.1474 
-9 -5 14 0.1653 0.1925 
-9 -5 15 -2.2563 0.0481 
-9 -5 16 -1.6823 -0.1520 
-9 -5 17 0.4913 0.1190 
-9 -5 18 4.5792 0.1003 
-9 -5 19 6.6152 -0.3409 
-9 -4 1 -0.1711 0.4356 
-9 -4 2 2.1055 -0.7938 
-9 -4 3 0.1980 -0.0876 
-9 -4 4 -3.3970 0.5801 
-9 -4 5 3.2176 0.2710 
-9 -4 6 3.0528 -0.2794 
-9 -4 7 -0.5539 -0.2383 
-9 -4 8 -3.5168 0.3430 
-9 -4 9 3.1414 0.0106 
-9 -4 10 1.7849 -0.1653 
-9 -4 11 -1.9341 0.1166 
-9 -4 12 -2.5173 -0.0058 
-9 -4 13 -5.1658 0.0007 
-9 -4 14 3.7492 0.0280 
-9 -4 15 1.5082 0.0182 
-9 -4 16 9.8575 -0.1796 
-9 -4 17 0.1811 0.0257 
-9 -4 18 -2.9843 0.1495 
-9 -4 19 -3.5678 -0.2729 
-9 -3 1 7.7036 0.6703 
-9 -3 2 8.6132 -0.5729 
-9 -3 3 -2.0740 0.2707 
-9 -3 4 -3.7026 0.1529 
-9 -3 5 -2.2482 0.2004 
-9 -3 6 1.9868 -0.3310 
-9 -3 7 -3.7954 -0.1687 
-9 -3 8 -1.6644 0.3618 
-9 -3 9 -3.9271 -0.0109 
-9 -3 10 1.1581 -0.1332 
-9 -3 11 7.5491 0.0220 
-9 -3 12 4.0073 0.1373 
-9 -3 13 1.6570 0.0178 
-9 -3 14 -1.8945 -0.1032 
-9 -3 15 -6.2417 0.1422 
-9 -3 16 -1.3520 -0.0840 
-9 -3 17 -0.8120 -0.0779 
-9 -3 18 -0.9267 0.0926 
-9 -3 19 4.2741 -0.0457 
-9 -2 1 0.1523 0.4740 
-9 -2 2 -2.2455 0.6153 
-9 -2 3 3.6980 -0.6097 
-9 -2 4 3.7458 -0.1295 
-9 -2 5 0.5745 0.2115 
-9 -2 6 6.8172 -0.0666 
-9 -2 7 2.0106 0.0177 
-9 -2 8 -6.4260 -0.0504 
-9 -2 9 -0.8257 0.1321 
-9 -2 10 0.0137 -0.1132 
-9 -2 11 -1.6884 -0.0527 
-9 -2 12 -1.6079 0.2409 
-9 -2 13 1.7430 -0.1744 
-9 -2 14 -1.3027 -0.1160 
-9 -2 15 -0.8114 0.1904 
-9 -2 16 5.2839 0.0783 
-9 -2 17 1.1902 -0.0567 
-9 -2 18 -1.4315 -0.0037 
-9 -2 19 -0.2545 0.1871 
-9 -2 20 -4.4966 0.0575 
-9 -1 1 3.1353 -0.0436 
-9 -1 2 -3.9487 0.5391 
-9 -1 3 5.3582 -0.7802 
-9 -1 4 -1.7037 -0.1701 
-9 -1 5 -3.5482 0.3794 
-9 -1 6 3.1259 0.2457 
-9 -1 7 2.8855 -0.1184 
-9 -1 8 -3.2827 -0.2553 
-9 -1 9 2.2673 0.2105 
-9 -1 10 1.0983 -0.0210 
-9 -1 11 -2.7027 -0.0998 
-9 -1 12 0.1494 0.0396 
-9 -1 13 -0.5727 -0.0644 
-9 -1 14 -2.1005 0.0164 
-9 -1 15 -1.9652 0.0808 
-9 -1 16 3.5798 0.1300 
-9 -1 17 -2.6860 -0.2056 
-9 -1 18 -2.0056 0.0492 
-9 -1 19 -0.2165 0.1857 
-9 -1 20 0.8849 -0.0581 
-9 0 1 0.4392 0.1007 
-9 0 2 -8.5637 -0.1991 
-9 0 3 4.9443 0.1628 
-9 0 4 0.3233 -0.1439 
-9 0 5 -3.2377 0.2109 
-9 0 6 8.3279 0.2072 
-9 0 7 5.3718 -0.2536 
-9 0 8 3.9854 -0.0608 
-9 0 9 3.6504 0.0468 
-9 0 10 2.5304 0.1040 
-9 0 11 0.1047 -0.1325 
-9 0 12 -3.7872 -0.0666 
-9 0 13 -1.3286 0.2545 
-9 0 14 -1.5185 -0.0085 
-9 0 15 0.0195 -0.0418 
-9 0 16 0.6220 0.0913 
-9 0 17 0.1764 -0.1370 
-9 0 18 -1.8946 0.0520 
-9 0 19 -0.0578 0.1083 
-9 0 20 -2.9802 -0.0101 
-9 1 1 -12.8594 -0.1258 
-9 1 2 4.1513 0.0576 
-9 1 3 2.9316 0.6560 
-9 1 4 2.6236 -0.2721 
-9 1 5 -11.4232 -0.2406 
-9 1 6 -9.7183 0.1346 
-9 1 7 2.3614 0.0267 
-9 1 8 1.7744 0.0440 
-9 1 9 -3.2427 -0.1177 
-9 1 10 -4.1980 0.1590 
-9 1 11 -7.2263 -0.1008 
-9 1 12 3.8373 0.0863 
-9 1 13 9.3979 0.1805 
-9 1 14 5.6333 -0.1388 
-9 1 15 -4.8395 -0.0303 
-9 1 16 1.1303 0.0062 
-9 1 17 -2.0191 0.0341 
-9 1 18 -3.4450 -0.0775 
-9 1 19 -5.5522 0.1492 
-9 2 1 -1.6203 -0.2607 
-9 2 2 0.9870 0.5459 
-9 2 3 -6.7532 0.0490 
-9 2 4 0.0581 -0.3910 
-9 2 5 -0.8165 -0.3243 
-9 2 6 -0.8129 0.1357 
-9 2 7 11.3092 0.2926 
-9 2 8 -0.0592 -0.1551 
-9 2 9 -0.8357 -0.1248 
-9 2 10 -1.4297 0.1261 
-9 2 11 -9.9221 -0.0385 
-9 2 12 2.1967 0.1099 
-9 2 13 -1.8643 -0.0666 
-9 2 14 -5.8531 -0.0484 
-9 2 15 0.9743 -0.0640 
-9 2 16 -0.1003 0.0231 
-9 2 17 5.7184 0.0346 
-9 2 18 -0.0698 -0.1411 
-9 2 19 6.3969 0.1614 
-9 3 1 -1.1178 -0.4007 
-9 3 2 -3.5953 -0.0206 
-9 3 3 -0.0618 -0.1985 
-9 3 4 -0.9459 -0.0419 
-9 3 5 -6.0035 -0.1106 
-9 3 6 5.6923 0.1113 
-9 3 7 4.7284 0.1683 
-9 3 8 -1.4271 -0.2148 
-9 3 9 -0.1424 -0.0849 
-9 3 10 0.9241 0.0543 
-9 3 11 7.1129 0.0226 
-9 3 12 4.7902 -0.1499 
-9 3 13 0.2686 -0.0328 
-9 3 14 -3.2698 0.1779 
-9 3 15 -3.6523 -0.0892 
-9 3 16 0.0798 -0.0401 
-9 3 17 2.2113 0.0765 
-9 3 18 -2.8825 0.1430 
-9 4 1 3.2848 -0.1137 
-9 4 2 7.5787 -0.5371 
-9 4 3 3.9099 0.1889 
-9 4 4 6.1826 0.3198 
-9 4 5 2.9843 -0.0430 
-9 4 6 -1.2499 -0.0207 
-9 4 7 -3.6397 -0.1366 
-9 4 8 -12.8763 0.1653 
-9 4 9 0.0605 0.0785 
-9 4 10 -3.3866 -0.0659 
-9 4 11 0.8653 0.0118 
-9 4 12 4.8673 -0.1197 
-9 4 13 3.7879 0.1614 
-9 4 14 10.7615 0.0682 
-9 4 15 3.2715 -0.0591 
-9 4 16 -0.6419 -0.1317 
-9 4 17 -1.1139 -0.0283 
-9 4 18 -2.8821 0.1623 
-9 5 1 -6.5098 -0.0070 
-9 5 2 -9.1043 -0.2170 
-9 5 3 -2.9443 0.3101 
-9 5 4 -0.4270 0.1986 
-9 5 5 -2.6171 -0.1640 
-9 5 6 4.6520 -0.2828 
-9 5 7 -2.5278 0.0500 
-9 5 8 2.5521 0.2472 
-9 5 9 -0.7079 -0.0929 
-9 5 10 4.3823 -0.1158 
-9 5 11 2.0003 0.1039 
-9 5 12 -0.3617 0.0696 
-9 5 13 2.9968 0.0361 
-9 5 14 -1.1358 -0.0407 
-9 5 15 -3.7118 0.0112 
-9 5 16 3.1001 -0.2241 
-9 5 17 -3.5094 0.0338 
-9 6 1 -3.4191 0.0571 
-9 6 2 -6.0916 0.2485 
-9 6 3 15.7468 -0.2934 
-9 6 4 4.3085 -0.0008 
-9 6 5 -0.9305 0.0581 
-9 6 6 -5.8543 -0.1564 
-9 6 7 -6.8955 0.1526 
-9 6 8 -8.1079 0.0356 
-9 6 9 5.1027 -0.0568 
-9 6 10 -7.5219 -0.1545 
-9 6 11 -5.1761 0.0627 
-9 6 12 -3.8420 0.1835 
-9 6 13 -3.4830 -0.3215 
-9 6 14 -4.5474 0.0256 
-9 6 15 -0.5259 0.1654 
-9 7 1 -4.7224 0.1019 
-9 7 2 -2.8329 -0.0122 
-9 7 3 0.3463 -0.3570 
-9 7 4 -4.3722 0.0555 
-9 7 5 -0.2954 0.2356 
-9 7 6 8.3353 0.0004 
-9 7 7 -1.1844 -0.0767 
-9 7 8 8.4836 -0.0825 
-9 7 9 12.2642 0.1487 
-9 7 10 4.2846 -0.0849 
-9 7 11 -2.6885 0.1623 
-9 7 12 -3.1480 -0.1624 
-9 7 13 3.8169 -0.2335 
-9 7 14 -7.2382 0.1368 
-9 8 1 4.0817 0.1815 
-9 8 2 6.7912 -0.1719 
-9 8 3 0.4918 0.0098 
-9 8 4 -8.4139 0.2081 
-9 8 5 -2.7090 0.1484 
-9 8 6 -2.5790 0.0184 
-9 8 7 -11.0338 -0.2885 
-9 8 8 1.9405 0.1797 
-9 8 9 0.5785 0.0479 
-9 8 10 -4.9866 -0.1422 
-9 8 11 -8.8211 -0.0488 
-9 8 12 0.5405 0.0035 
-9 9 1 2.9500 0.0331 
-9 9 2 -6.9491 0.1244 
-9 9 3 -6.4299 0.2891 
-9 9 4 -2.9000 -0.0595 
-9 9 5 -0.3997 0.0677 
-9 9 6 1.9887 -0.0338 
-9 9 7 5.3472 0.0610 
-9 9 8 1.2168 0.0501 
-9 9 9 3.5670 0.0682 
-8 -16 1 -2.9313 0.7106 
-8 -15 1 -3.2463 -0.3327 
-8 -15 2 -1.3373 0.2183 
-8 -15 3 1.9997 -0.5735 
-8 -15 4 2.0248 -0.2557 
-8 -15 5 3.6440 0.2404 
-8 -15 6 -1.0288 -0.3998 
-8 -14 1 -2.9928 0.1631 
-8 -14 2 1.5211 0.4265 
-8 -14 3 0.2001 0.0726 
-8 -14 4 3.5981 -0.5279 
-8 -14 5 3.6167 0.3609 
-8 -14 6 -0.9240 0.0930 
-8 -14 7 -3.1919 -0.0180 
-8 -14 8 -0.4131 -0.0373 
-8 -14 9 -2.4292 -0.4301 
-8 -13 1 6.5642 0.2392 
-8 -13 2 2.3700 0.1920 
-8 -13 3 1.3779 0.5867 
-8 -13 4 0.2863 -0.6227 
-8 -13 5 -1.6968 -0.1207 
-8 -13 6 -1.8135 0.1582 
-8 -13 7 -2.9263 -0.0317 
-8 -13 8 0.0242 0.1237 
-8 -13 9 1.6664 0.1301 
-8 -13 10 2.4547 0.2698 
-8 -13 11 -2.2526 -0.1387 
-8 -12 1 -2.4631 -0.1445 
-8 -12 2 0.4128 0.4663 
-8 -12 3 0.4065 -0.1089 
-8 -12 4 -0.0121 -0.3586 
-8 -12 5 -0.0930 -0.4426 
-8 -12 6 -1.3524 0.5132 
-8 -12 7 -2.2927 0.1653 
-8 -12 8 2.5174 -0.1079 
-8 -12 9 2.6069 0.0606 
-8 -12 10 -2.5612 0.1574 
-8 -12 11 -3.0866 -0.1037 
-8 -12 12 0.8884 0.0194 
-8 -12 13 2.7918 0.1763 
-8 -11 1 -1.0117 -1.2993 
-8 -11 2 2.3808 0.3720 
-8 -11 3 1.7503 -0.0699 
-8 -11 4 -0.6978 0.2030 
-8 -11 5 -5.2222 -0.4179 
-8 -11 6 -0.4043 0.0574 
-8 -11 7 -0.0550 0.3310 
-8 -11 8 0.3026 -0.1623 
-8 -11 9 2.4366 -0.0928 
-8 -11 10 1.3178 0.1350 
-8 -11 11 -3.3322 0.0982 
-8 -11 12 2.5222 0.1015 
-8 -11 13 -0.8238 0.0313 
-8 -11 14 -2.2950 0.1249 
-8 -10 1 -4.3776 -0.2630 
-8 -10 2 -2.0053 -0.6803 
-8 -10 3 -0.0373 0.6468 
-8 -10 4 -3.5323 0.3033 
-8 -10 5 0.4651 -0.2369 
-8 -10 6 4.5503 -0.3371 
-8 -10 7 3.1517 0.1917 
-8 -10 8 -3.4196 0.0458 
-8 -10 9 -2.0430 -0.0994 
-8 -10 10 -3.1139 0.2085 
-8 -10 11 0.5716 0.0530 
-8 -10 12 -1.7538 -0.1099 
-8 -10 13 2.1305 0.0531 
-8 -10 14 0.8284 0.2782 
-8 -10 15 -0.0384 -0.0256 
-8 -10 16 4.8143 -0.1387 
-8 -9 1 2.2503 0.5205 
-8 -9 2 -1.0713 -1.0539 
-8 -9 3 0.6418 0.8798 
-8 -9 4 0.7677 0.2024 
-8 -9 5 -2.5928 -0.2940 
-8 -9 6 1.1009 -0.5183 
-8 -9 7 -0.7449 0.2521 
-8 -9 8 -2.7259 0.3367 
-8 -9 9 2.1111 -0.3183 
-8 -9 10 1.0474 0.0419 
-8 -9 11 0.4824 0.2224 
-8 -9 12 6.1074 0.0293 
-8 -9 13 1.0186 -0.0597 
-8 -9 14 0.6447 0.0530 
-8 -9 15 -1.3243 -0.1215 
-8 -9 16 -4.8430 -0.1569 
-8 -9 17 -8.0768 0.0252 
-8 -8 1 -3.3955 0.4251 
-8 -8 2 -5.8224 -0.0447 
-8 -8 3 -1.2732 -0.5602 
-8 -8 4 3.7392 0.3209 
-8 -8 5 1.3186 -0.0708 
-8 -8 6 0.7471 -0.2822 
-8 -8 7 0.8651 0.1336 
-8 -8 8 2.2502 0.1470 
-8 -8 9 -0.8626 -0.0399 
-8 -8 10 0.1557 -0.2046 
-8 -8 11 -3.8403 0.1282 
-8 -8 12 -0.1113 0.0413 
-8 -8 13 0.2080 -0.2248 
-8 -8 14 3.0237 0.1830 
-8 -8 15 3.3525 -0.0006 
-8 -8 16 6.4416 -0.0568 
-8 -8 17 2.0257 -0.1338 
-8 -8 18 -0.1074 0.2478 
-8 -7 1 -0.6180 -0.4193 
-8 -7 2 -3.9649 0.2025 
-8 -7 3 2.4024 -1.1046 
-8 -7 4 0.9988 0.6669 
-8 -7 5 -0.6891 0.2983 
-8 -7 6 1.3085 -0.1453 
-8 -7 7 -2.8809 -0.1513 
-8 -7 8 -5.9840 0.0282 
-8 -7 9 6.0673 0.1873 
-8 -7 10 -1.5899 -0.3199 
-8 -7 11 1.1944 0.1113 
-8 -7 12 -3.9850 0.0373 
-8 -7 13 1.0240 -0.2022 
-8 -7 14 -3.4207 -0.0098 
-8 -7 15 0.3737 0.0517 
-8 -7 16 0.5912 0.0313 
-8 -7 17 1.5034 -0.0864 
-8 -7 18 -0.1575 0.0940 
-8 -7 19 6.1185 -0.1975 
-8 -6 1 -6.6707 0.6828 
-8 -6 2 3.8989 -0.3236 
-8 -6 3 1.1116 -0.2209 
-8 -6 4 2.3410 0.1515 
-8 -6 5 -0.0131 0.5985 
-8 -6 6 -0.4956 -0.0377 
-8 -6 7 0.7929 -0.4802 
-8 -6 8 4.7862 0.2303 
-8 -6 9 9.2906 0.2946 
-8 -6 10 3.9080 -0.1557 
-8 -6 11 0.2969 -0.0888 
-8 -6 12 -1.1618 0.0923 
-8 -6 13 -3.0315 0.0440 
-8 -6 14 2.6516 -0.1661 
-8 -6 15 -3.5504 0.1685 
-8 -6 16 4.5444 -0.0531 
-8 -6 17 -2.4039 -0.1152 
-8 -6 18 -1.7533 0.0489 
-8 -6 19 -4.1347 -0.1962 
-8 -6 20 1.8488 0.2970 
-8 -5 1 -3.8469 0.8906 
-8 -5 2 -0.7931 -0.0085 
-8 -5 3 0.2664 0.4748 
-8 -5 4 -1.2595 -0.6479 
-8 -5 5 -6.2158 0.2564 
-8 -5 6 -0.1384 0.0964 
-8 -5 7 -2.5668 -0.3424 
-8 -5 8 -3.0371 0.1102 
-8 -5 9 -1.7003 0.1331 
-8 -5 10 -2.3818 -0.0319 
-8 -5 11 -4.3828 -0.1133 
-8 -5 12 -1.7737 0.1296 
-8 -5 13 0.3654 0.0513 
-8 -5 14 3.5064 -0.2145 
-8 -5 15 -1.5621 0.2082 
-8 -5 16 1.1892 0.1457 
-8 -5 17 -4.1339 -0.1354 
-8 -5 18 1.3976 0.0219 
-8 -5 19 8.5478 0.1916 
-8 -5 20 3.6829 0.0853 
-8 -4 1 0.4293 0.2057 
-8 -4 2 5.3706 1.1519 
-8 -4 3 5.6574 -0.3586 
-8 -4 4 -1.7618 -0.6186 
-8 -4 5 1.2483 0.1699 
-8 -4 6 2.2243 0.3725 
-8 -4 7 0.8328 0.0464 
-8 -4 8 -2.4190 -0.3969 
-8 -4 9 2.8545 0.1814 
-8 -4 10 3.5378 0.0069 
-8 -4 11 1.3453 -0.1845 
-8 -4 12 0.9147 0.0894 
-8 -4 13 1.8327 -0.1387 
-8 -4 14 -2.2643 -0.0251 
-8 -4 15 1.0319 0.0149 
-8 -4 16 2.6151 0.1824 
-8 -4 17 4.4100 -0.0505 
-8 -4 18 -7.7856 -0.1067 
-8 -4 19 0.4798 0.0842 
-8 -4 20 -1.1521 0.0394 
-8 -4 21 2.0465 -0.1047 
-8 -3 1 6.2010 -0.8832 
-8 -3 2 2.3711 0.8399 
-8 -3 3 6.3402 -0.4907 
-8 -3 4 -4.5611 -0.1110 
-8 -3 5 -8.4222 0.0617 
-8 -3 6 -1.4724 0.4354 
-8 -3 7 2.0637 0.1509 
-8 -3 8 -0.3637 -0.4360 
-8 -3 9 -3.8551 0.1629 
-8 -3 10 -2.7078 0.2177 
-8 -3 11 -1.2862 -0.1325 
-8 -3 12 2.5773 -0.1095 
-8 -3 13 3.1880 0.0514 
-8 -3 14 -4.6668 0.0952 
-8 -3 15 -4.0116 -0.1097 
-8 -3 16 1.2965 0.1219 
-8 -3 17 0.3326 -0.1219 
-8 -3 18 -2.0959 -0.0648 
-8 -3 19 3.3923 -0.0450 
-8 -3 20 2.2524 -0.0406 
-8 -3 21 -2.0540 0.0198 
-8 -2 1 0.6898 -0.2411 
-8 -2 2 0.2374 -0.4479 
-8 -2 3 5.2313 0.6175 
-8 -2 4 7.3827 -0.1174 
-8 -2 5 -3.6073 -0.2111 
-8 -2 6 2.5042 0.2495 
-8 -2 7 8.5228 -0.0353 
-8 -2 8 -5.2978 -0.0301 
-8 -2 9 -4.1800 -0.0788 
-8 -2 10 -0.8361 0.2439 
-8 -2 11 -1.0103 -0.0608 
-8 -2 12 0.8583 -0.1483 
-8 -2 13 2.3365 0.4001 
-8 -2 14 0.8577 -0.0426 
-8 -2 15 -5.4206 -0.1025 
-8 -2 16 1.4352 0.1093 
-8 -2 17 -2.5142 -0.0321 
-8 -2 18 0.6026 -0.0729 
-8 -2 19 2.8981 -0.1529 
-8 -2 20 -4.5343 0.1563 
-8 -2 21 -2.4532 0.1518 
-8 -1 1 -9.1925 -0.0980 
-8 -1 2 -7.5650 -0.4344 
-8 -1 3 5.6025 1.0528 
-8 -1 4 3.7258 -0.1458 
-8 -1 5 -4.5901 -0.5849 
-8 -1 6 3.7904 -0.1267 
-8 -1 7 0.8735 0.1596 
-8 -1 8 -3.9448 0.2056 
-8 -1 9 -0.3603 -0.3652 
-8 -1 10 3.9795 0.1630 
-8 -1 11 5.6906 0.0367 
-8 -1 12 3.1746 -0.0446 
-8 -1 13 3.1043 0.1606 
-8 -1 14 -4.4196 -0.0018 
-8 -1 15 -1.6681 0.0007 
-8 -1 16 3.8724 -0.0579 
-8 -1 17 -0.4530 0.1766 
-8 -1 18 -1.0857 -0.1417 
-8 -1 19 0.9683 0.0005 
-8 -1 20 2.2600 0.1491 
-8 -1 21 0.0705 0.1763 
-8 0 1 -1.9182 -0.1372 
-8 0 2 -4.7269 0.2584 
-8 0 3 -5.0491 -0.0890 
-8 0 4 4.6505 0.1847 
-8 0 5 1.5394 -0.3736 
-8 0 6 4.6238 -0.2306 
-8 0 7 4.6273 0.4410 
-8 0 8 6.6498 0.0238 
-8 0 9 -1.7935 -0.2460 
-8 0 10 5.7139 0.0250 
-8 0 11 -6.7701 0.0715 
-8 0 12 -6.0596 -0.0035 
-8 0 13 -7.5525 -0.1743 
-8 0 14 -1.8238 0.1422 
-8 0 15 -3.6040 -0.0097 
-8 0 16 -1.5420 -0.1241 
-8 0 17 0.3946 0.1925 
-8 0 18 -0.8826 -0.0877 
-8 0 19 1.3166 0.0494 
-8 0 20 -4.2889 0.0150 
-8 0 21 -3.1631 0.1696 
-8 1 1 -1.4569 -0.4809 
-8 1 2 -3.8750 -0.3578 
-8 1 3 1.3404 -0.5296 
-8 1 4 -3.4360 0.5568 
-8 1 5 0.3432 -0.0499 
-8 1 6 -16.7390 -0.1397 
-8 1 7 -2.5362 0.1914 
-8 1 8 -0.9186 0.0191 
-8 1 9 1.1438 0.0257 
-8 1 10 3.6010 -0.1189 
-8 1 11 -6.6673 0.1486 
-8 1 12 -2.6940 -0.1646 
-8 1 13 11.3266 -0.0522 
-8 1 14 4.4097 0.2359 
-8 1 15 4.4294 -0.0596 
-8 1 16 3.3105 -0.1271 
-8 1 17 8.4736 -0.0009 
-8 1 18 -3.5404 0.0296 
-8 1 19 -6.3312 -0.0380 
-8 1 20 -1.8646 -0.0410 
-8 1 21 -0.0044 0.0842 
-8 2 1 2.3746 0.1769 
-8 2 2 1.8097 -0.9601 
-8 2 3 0.1681 0.0672 
-8 2 4 7.0007 0.3530 
-8 2 5 -2.2769 0.0490 
-8 2 6 -6.1365 -0.2226 
-8 2 7 -0.2773 -0.3378 
-8 2 8 6.0839 0.3790 
-8 2 9 6.1607 0.0389 
-8 2 10 2.4167 -0.2301 
-8 2 11 -6.2203 0.1158 
-8 2 12 -3.4487 -0.0911 
-8 2 13 1.3260 0.1950 
-8 2 14 -4.7083 -0.0228 
-8 2 15 -4.9233 0.0121 
-8 2 16 -0.3504 -0.0607 
-8 2 17 2.7556 0.0112 
-8 2 18 -0.6818 0.1067 
-8 2 19 3.3015 -0.1177 
-8 2 20 7.9354 0.1477 
-8 2 21 -1.6426 0.0398 
-8 3 1 -4.4470 0.3122 
-8 3 2 8.9503 -0.0953 
-8 3 3 -9.0370 0.3434 
-8 3 4 -0.9629 -0.0849 
-8 3 5 -2.3449 -0.0282 
-8 3 6 -4.3889 -0.2458 
-8 3 7 10.4601 -0.0978 
-8 3 8 -5.1061 0.2799 
-8 3 9 2.8044 -0.1150 
-8 3 10 -1.9457 -0.1519 
-8 3 11 -3.7198 0.0170 
-8 3 12 0.4417 0.1366 
-8 3 13 -0.8568 0.0069 
-8 3 14 4.0993 -0.1081 
-8 3 15 4.0496 0.1537 
-8 3 16 -1.8386 -0.1301 
-8 3 17 -3.0143 0.0074 
-8 3 18 -3.3657 -0.0392 
-8 3 19 2.8301 0.0512 
-8 3 20 4.2118 0.1106 
-8 4 1 7.6697 0.2285 
-8 4 2 -7.8262 0.7412 
-8 4 3 3.2789 -0.4393 
-8 4 4 6.6423 -0.2330 
-8 4 5 -3.9756 0.2001 
-8 4 6 2.5054 0.0027 
-8 4 7 -2.3203 0.1457 
-8 4 8 2.6710 -0.2084 
-8 4 9 2.1888 0.0411 
-8 4 10 -2.5427 0.0328 
-8 4 11 1.3907 -0.0869 
-8 4 12 2.3236 0.1515 
-8 4 13 0.8649 -0.2794 
-8 4 14 9.6609 0.0508 
-8 4 15 -0.7948 0.0629 
-8 4 16 2.6973 -0.0144 
-8 4 17 0.2218 -0.0591 
-8 4 18 -1.5975 -0.1250 
-8 4 19 1.9268 0.1550 
-8 4 20 -0.3272 0.0457 
-8 5 1 -3.0337 -0.0817 
-8 5 2 -8.6633 0.3037 
-8 5 3 0.8135 -0.4931 
-8 5 4 -0.6273 -0.1468 
-8 5 5 6.8871 0.3435 
-8 5 6 1.9526 0.2620 
-8 5 7 -0.7880 -0.0850 
-8 5 8 -4.8329 -0.3022 
-8 5 9 -6.0691 0.3024 
-8 5 10 -7.6488 0.0191 
-8 5 11 -3.7452 -0.0497 
-8 5 12 3.7440 -0.0653 
-8 5 13 6.4823 -0.0757 
-8 5 14 2.1469 0.0849 
-8 5 15 4.5693 -0.0871 
-8 5 16 -4.3142 0.1442 
-8 5 17 -3.8459 -0.1920 
-8 5 18 -6.2617 0.0077 
-8 5 19 -0.5594 0.1523 
-8 6 1 0.7113 0.0594 
-8 6 2 -5.5428 -0.0484 
-8 6 3 0.9280 0.2072 
-8 6 4 3.1478 -0.1155 
-8 6 5 -3.3552 0.1383 
-8 6 6 3.0106 0.1482 
-8 6 7 -7.1362 -0.2343 
-8 6 8 -2.9180 0.0002 
-8 6 9 7.1947 0.1865 
-8 6 10 2.4554 0.0153 
-8 6 11 5.5503 -0.1282 
-8 6 12 -3.9900 -0.0470 
-8 6 13 -3.3018 0.2180 
-8 6 14 -4.3855 -0.2365 
-8 6 15 -14.4034 -0.0842 
-8 6 16 2.0205 0.2098 
-8 6 17 -2.4849 -0.1125 
-8 6 18 2.0116 -0.0365 
-8 7 1 -2.4130 0.1135 
-8 7 2 -2.9520 0.2400 
-8 7 3 -4.0492 0.3643 
-8 7 4 -1.5796 -0.2096 
-8 7 5 1.1777 -0.0689 
-8 7 6 3.4675 0.0695 
-8 7 7 -4.4943 0.0969 
-8 7 8 1.4159 -0.0307 
-8 7 9 4.4636 -0.1122 
-8 7 10 -0.8815 0.0830 
-8 7 11 -7.7131 -0.1226 
-8 7 12 -4.7707 0.1714 
-8 7 13 -6.3319 0.0137 
-8 7 14 -4.5768 -0.2842 
-8 7 15 -2.5771 0.1746 
-8 7 16 1.0754 0.1222 
-8 7 17 9.2883 0.0478 
-8 8 1 2.7693 0.1459 
-8 8 2 -3.5033 0.2768 
-8 8 3 3.4193 -0.0098 
-8 8 4 -1.2989 -0.1022 
-8 8 5 1.5775 0.0535 
-8 8 6 0.5729 0.1206 
-8 8 7 1.4478 0.1987 
-8 8 8 -3.0148 -0.2359 
-8 8 9 2.4932 -0.0019 
-8 8 10 0.6016 0.0923 
-8 8 11 5.6307 -0.0593 
-8 8 12 -0.6630 0.0813 
-8 8 13 14.1844 -0.2075 
-8 8 14 3.1559 0.0788 
-8 8 15 2.2314 -0.0541 
-8 9 1 -3.3426 -0.0690 
-8 9 2 -0.3351 -0.1962 
-8 9 3 4.9525 -0.0720 
-8 9 4 -6.5545 0.1619 
-8 9 5 -6.9624 0.0163 
-8 9 6 -3.7087 0.0373 
-8 9 7 -1.5018 -0.0261 
-8 9 8 4.4427 -0.0873 
-8 9 9 -4.1000 0.1463 
-8 9 10 10.6761 0.0258 
-8 9 11 -4.0838 0.0108 
-8 9 12 0.2267 -0.0886 
-8 9 13 -6.7839 0.0802 
-8 10 1 7.0312 -0.1788 
-8 10 2 12.3667 -0.3467 
-8 10 3 2.2977 0.0913 
-8 10 4 11.6917 0.2685 
-8 10 5 -2.3854 -0.0972 
-8 10 6 3.0287 -0.0506 
-8 10 7 4.5350 -0.1883 
-8 10 8 1.5312 0.2207 
-8 10 9 8.1270 -0.0788 
-8 10 10 3.1176 0.0288 
-8 11 1 -5.1867 0.0117 
-8 11 2 -3.2875 0.1003 
-8 11 3 -1.3337 0.1282 
-8 11 4 -2.8413 0.0033 
-8 11 5 4.3741 -0.2023 
-7 -16 1 -0.1014 -0.3022 
-7 -16 2 -3.8419 -0.0167 
-7 -15 1 1.9964 0.1233 
-7 -15 2 -0.7883 -0.1514 
-7 -15 3 -1.1413 0.3059 
-7 -15 4 -1.9270 -0.3574 
-7 -15 5 1.8488 -0.2206 
-7 -15 6 3.4604 0.0308 
-7 -15 7 -0.2053 0.0556 
-7 -14 1 -2.0134 -0.2345 
-7 -14 2 -5.4498 -0.2038 
-7 -14 3 -1.8744 -0.1026 
-7 -14 4 2.9434 0.1329 
-7 -14 5 3.3764 -0.4349 
-7 -14 6 -0.1295 -0.1078 
-7 -14 7 -1.5780 0.1897 
-7 -14 8 -1.1569 -0.0370 
-7 -14 9 -3.9920 -0.2053 
-7 -14 10 2.5116 -0.3499 
-7 -13 1 -0.3348 -0.9169 
-7 -13 2 4.1131 -0.2667 
-7 -13 3 3.3809 -0.2019 
-7 -13 4 0.8997 0.8312 
-7 -13 5 -1.6115 -0.2362 
-7 -13 6 2.0338 -0.1386 
-7 -13 7 -1.6779 0.2558 
-7 -13 8 -3.1646 0.0512 
-7 -13 9 -0.0194 -0.1445 
-7 -13 10 -0.3149 -0.1083 
-7 -13 11 0.9147 0.2610 
-7 -13 12 -0.5486 -0.3038 
-7 -12 1 -3.8600 0.3558 
-7 -12 2 -2.4068 -0.7154 
-7 -12 3 -2.0272 0.1849 
-7 -12 4 -0.8677 0.4422 
-7 -12 5 -0.3169 0.2018 
-7 -12 6 2.3656 -0.5153 
-7 -12 7 -1.0246 -0.1734 
-7 -12 8 -2.1846 0.3473 
-7 -12 9 1.8729 0.0910 
-7 -12 10 1.6015 0.0977 
-7 -12 11 -1.1989 0.1860 
-7 -12 12 -0.4963 0.0438 
-7 -12 13 -0.2940 -0.0238 
-7 -12 14 -4.1661 0.1091 
-7 -11 1 1.4378 0.9151 
-7 -11 2 2.4473 -0.7360 
-7 -11 3 3.6038 0.3741 
-7 -11 4 -1.3199 -0.2210 
-7 -11 5 1.8748 0.1251 
-7 -11 6 0.7690 -0.3752 
-7 -11 7 -1.0082 -0.0445 
-7 -11 8 0.8421 0.4508 
-7 -11 9 2.2164 -0.0762 
-7 -11 10 -2.7903 -0.0464 
-7 -11 11 -1.6781 -0.0048 
-7 -11 12 -1.8496 0.3153 
-7 -11 13 0.3834 -0.0329 
-7 -11 14 5.3475 -0.1871 
-7 -11 15 -1.6782 0.0565 
-7 -11 16 -1.8178 -0.3636 
-7 -10 1 -2.1702 0.6009 
-7 -10 2 0.5161 0.4720 
-7 -10 3 -0.1913 -0.8798 
-7 -10 4 2.2823 0.0441 
-7 -10 5 -2.7749 0.3293 
-7 -10 6 -1.6284 0.0459 
-7 -10 7 -2.7315 -0.2619 
-7 -10 8 -1.6670 0.0487 
-7 -10 9 3.8402 0.2767 
-7 -10 10 1.9167 0.0003 
-7 -10 11 -1.2173 -0.0592 
-7 -10 12 3.3050 0.0621 
-7 -10 13 2.3911 -0.1811 
-7 -10 14 -2.5645 0.0092 
-7 -10 15 -0.4551 0.0157 
-7 -10 16 -0.5359 0.0920 
-7 -10 17 0.6899 0.0852 
-7 -9 1 1.3702 -0.8429 
-7 -9 2 2.1224 0.9262 
-7 -9 3 -1.1404 -1.1049 
-7 -9 4 -3.0497 0.2296 
-7 -9 5 0.1069 0.4160 
-7 -9 6 1.1008 0.2743 
-7 -9 7 1.4547 -0.2621 
-7 -9 8 3.2521 -0.2585 
-7 -9 9 -2.5224 0.4179 
-7 -9 10 -1.2854 -0.0683 
-7 -9 11 -1.8955 -0.0583 
-7 -9 12 2.7554 0.2310 
-7 -9 13 2.8135 -0.0782 
-7 -9 14 3.1191 -0.0137 
-7 -9 15 -2.4071 -0.0151 
-7 -9 16 2.0165 0.1552 
-7 -9 17 0.0154 -0.3038 
-7 -9 18 -2.8447 -0.2268 
-7 -8 1 5.5108 0.1964 
-7 -8 2 -2.6913 0.2114 
-7 -8 3 -1.0199 0.2660 
-7 -8 4 -1.1463 -0.5765 
-7 -8 5 0.2925 0.2773 
-7 -8 6 4.2875 0.1975 
-7 -8 7 3.0154 -0.3563 
-7 -8 8 -5.2213 -0.2345 
-7 -8 9 2.8037 0.1647 
-7 -8 10 -2.7215 0.1075 
-7 -8 11 -0.1876 -0.1929 
-7 -8 12 0.6405 0.1233 
-7 -8 13 2.6872 0.1365 
-7 -8 14 -2.6177 -0.1822 
-7 -8 15 1.1157 0.0216 
-7 -8 16 3.4421 0.1020 
-7 -8 17 -0.6895 -0.1292 
-7 -8 18 -0.1364 0.0734 
-7 -8 19 -2.4598 -0.1228 
-7 -7 1 -2.9873 0.5731 
-7 -7 2 5.1595 0.0622 
-7 -7 3 -6.8858 1.1422 
-7 -7 4 -2.1137 -1.0137 
-7 -7 5 2.3262 -0.0760 
-7 -7 6 4.9013 0.2621 
-7 -7 7 -0.0171 -0.0418 
-7 -7 8 -3.0252 -0.2004 
-7 -7 9 2.7509 -0.0915 
-7 -7 10 6.5683 0.1510 
-7 -7 11 -3.9505 -0.1715 
-7 -7 12 -2.4492 -0.0240 
-7 -7 13 -7.5099 0.0751 
-7 -7 14 0.8751 -0.2049 
-7 -7 15 -4.4618 0.0393 
-7 -7 16 4.1624 0.1661 
-7 -7 17 3.1787 -0.1255 
-7 -7 18 3.6645 -0.0150 
-7 -7 19 4.7743 0.0488 
-7 -7 20 0.9432 0.1228 
-7 -6 1 3.2832 -0.1919 
-7 -6 2 -6.3498 0.8693 
-7 -6 3 -5.6097 -0.0519 
-7 -6 4 1.4789 -0.2567 
-7 -6 5 3.2797 -0.2404 
-7 -6 6 6.0115 0.4745 
-7 -6 7 -3.4690 0.4137 
-7 -6 8 -9.4996 -0.4635 
-7 -6 9 3.6020 -0.0477 
-7 -6 10 5.0213 0.2131 
-7 -6 11 2.8616 -0.0245 
-7 -6 12 0.9104 -0.1156 
-7 -6 13 -0.5295 -0.0616 
-7 -6 14 0.3747 0.1193 
-7 -6 15 3.0599 -0.2536 
-7 -6 16 3.0920 0.1418 
-7 -6 17 2.0485 0.0886 
-7 -6 18 -3.9888 -0.0431 
-7 -6 19 -4.3379 -0.0762 
-7 -6 20 -3.1326 0.0349 
-7 -6 21 4.9094 0.1169 
-7 -5 1 -0.6003 -1.5810 
-7 -5 2 -5.7809 0.1308 
-7 -5 3 4.1102 -0.2877 
-7 -5 4 -0.7226 0.7265 
-7 -5 5 2.8367 -0.3729 
-7 -5 6 -5.1445 0.1253 
-7 -5 7 1.3075 0.4640 
-7 -5 8 -0.7228 -0.2849 
-7 -5 9 2.3473 -0.0639 
-7 -5 10 2.3787 0.1533 
-7 -5 11 1.2337 0.0662 
-7 -5 12 -5.9921 -0.1265 
-7 -5 13 -0.5309 -0.0440 
-7 -5 14 -1.0359 0.1681 
-7 -5 15 2.1552 -0.2332 
-7 -5 16 -4.1068 0.0273 
-7 -5 17 -0.8598 0.0754 
-7 -5 18 -2.7459 -0.0270 
-7 -5 19 4.0991 -0.1311 
-7 -5 20 0.8312 0.2073 
-7 -5 21 1.7187 0.0300 
-7 -5 22 0.4312 -0.3302 
-7 -4 1 -1.7988 -0.0565 
-7 -4 2 -2.8546 -1.1768 
-7 -4 3 7.6952 0.8323 
-7 -4 4 6.4624 0.5055 
-7 -4 5 -9.5629 -0.2636 
-7 -4 6 -0.0565 -0.3618 
-7 -4 7 -2.9824 -0.0379 
-7 -4 8 -2.5399 0.3902 
-7 -4 9 -2.8919 -0.2977 
-7 -4 10 2.2968 0.0507 
-7 -4 11 -1.2196 0.0997 
-7 -4 12 -2.1951 -0.1711 
-7 -4 13 -0.8306 0.1674 
-7 -4 14 1.5597 -0.0352 
-7 -4 15 1.3592 -0.0504 
-7 -4 16 4.7089 0.0155 
-7 -4 17 -0.3842 0.1249 
-7 -4 18 1.1804 0.0047 
-7 -4 19 -3.5261 -0.0835 
-7 -4 20 3.5229 0.1989 
-7 -4 21 -0.4949 0.0825 
-7 -4 22 1.7943 -0.3054 
-7 -3 1 -6.5504 0.5847 
-7 -3 2 4.6379 -0.9807 
-7 -3 3 4.1176 0.9633 
-7 -3 4 8.8846 0.1903 
-7 -3 5 -4.5206 -0.2742 
-7 -3 6 -5.2629 -0.4899 
-7 -3 7 4.4428 0.1478 
-7 -3 8 -1.8660 0.5785 
-7 -3 9 -4.1899 -0.5078 
-7 -3 10 0.3749 -0.0502 
-7 -3 11 0.4898 0.2064 
-7 -3 12 2.0927 -0.0965 
-7 -3 13 5.8522 -0.0490 
-7 -3 14 0.5215 -0.0152 
-7 -3 15 -6.4244 0.0968 
-7 -3 16 -3.3106 -0.1191 
-7 -3 17 1.6741 0.2028 
-7 -3 18 -3.6853 -0.0509 
-7 -3 19 -2.8372 0.0016 
-7 -3 20 -1.0880 -0.0560 
-7 -3 21 4.6403 -0.1062 
-7 -3 22 -1.3704 -0.1128 
-7 -2 1 8.3686 0.2908 
-7 -2 2 -2.9471 0.1902 
-7 -2 3 15.7133 -0.7736 
-7 -2 4 1.4419 0.4072 
-7 -2 5 -8.5667 0.0329 
-7 -2 6 -0.2467 -0.3854 
-7 -2 7 6.2654 0.2683 
-7 -2 8 1.5872 0.1227 
-7 -2 9 0.3095 0.0580 
-7 -2 10 -1.3453 -0.1157 
-7 -2 11 -1.7236 0.1495 
-7 -2 12 -2.1467 0.0589 
-7 -2 13 2.9294 -0.2215 
-7 -2 14 3.4625 0.2214 
-7 -2 15 -3.6987 0.0621 
-7 -2 16 1.2250 -0.1468 
-7 -2 17 -0.3994 0.0492 
-7 -2 18 -0.0706 -0.0425 
-7 -2 19 0.4906 0.0332 
-7 -2 20 0.3282 -0.2448 
-7 -2 21 0.3240 -0.0412 
-7 -2 22 0.4401 -0.0000 
-7 -2 23 -2.7711 0.0945 
-7 -1 1 -4.5988 -0.5496 
-7 -1 2 -6.6710 0.0546 
-7 -1 3 -3.8569 -1.1216 
-7 -1 4 1.8767 0.5058 
-7 -1 5 -1.7742 0.2889 
-7 -1 6 -0.6060 -0.1513 
-7 -1 7 2.9871 -0.2227 
-7 -1 8 2.4156 -0.0045 
-7 -1 9 -6.3620 0.3952 
-7 -1 10 4.3070 -0.2241 
-7 -1 11 -1.4910 0.0748 
-7 -1 12 3.5254 -0.0044 
-7 -1 13 1.1295 0.0031 
-7 -1 14 -5.2568 0.1741 
-7 -1 15 -3.5318 0.0785 
-7 -1 16 -0.3805 -0.0271 
-7 -1 17 1.9104 -0.0955 
-7 -1 18 -6.3533 0.1313 
-7 -1 19 0.5993 -0.0496 
-7 -1 20 1.6530 -0.1858 
-7 -1 21 1.9448 0.0062 
-7 -1 22 -6.2635 0.1403 
-7 -1 23 -0.2138 0.0390 
-7 0 1 2.9130 0.4999 
-7 0 2 -6.4820 -0.3850 
-7 0 3 -2.9940 -0.0371 
-7 0 4 -4.1123 -0.0789 
-7 0 5 3.9693 0.3235 
-7 0 6 2.9721 0.0193 
-7 0 7 0.1893 -0.6666 
-7 0 8 2.4846 0.2642 
-7 0 9 -2.5807 0.2255 
-7 0 10 -1.4228 -0.2755 
-7 0 11 2.9905 -0.0062 
-7 0 12 -3.3294 -0.0195 
-7 0 13 4.9100 0.2057 
-7 0 14 -3.3720 -0.2103 
-7 0 15 -2.5905 0.1292 
-7 0 16 -0.7641 -0.0067 
-7 0 17 2.9548 -0.0938 
-7 0 18 1.4902 0.1104 
-7 0 19 -1.5718 -0.0823 
-7 0 20 3.1656 -0.0738 
-7 0 21 -1.6820 0.0235 
-7 0 22 0.5042 0.2295 
-7 0 23 2.8179 -0.1389 
-7 1 1 6.8433 0.6088 
-7 1 2 -7.7341 0.3318 
-7 1 3 -11.4773 0.4208 
-7 1 4 1.4488 -0.7849 
-7 1 5 1.6044 0.0333 
-7 1 6 -0.4393 0.1879 
-7 1 7 2.5739 -0.1871 
-7 1 8 1.4565 0.0014 
-7 1 9 0.0803 0.0463 
-7 1 10 3.8854 -0.0251 
-7 1 11 -2.3930 -0.0988 
-7 1 12 -5.1050 0.1503 
-7 1 13 6.1224 -0.0423 
-7 1 14 0.9575 -0.2431 
-7 1 15 -0.5743 0.2151 
-7 1 16 3.0449 0.0014 
-7 1 17 5.8906 -0.0400 
-7 1 18 1.1002 -0.0027 
-7 1 19 -3.9892 0.0525 
-7 1 20 0.8624 -0.0036 
-7 1 21 3.4856 -0.0818 
-7 1 22 -2.1272 0.3064 
-7 1 23 -3.8315 -0.1408 
-7 2 1 -9.3300 0.0716 
-7 2 2 5.0747 1.2445 
-7 2 3 3.8623 -0.4293 
-7 2 4 0.7230 -0.7572 
-7 2 5 3.0623 0.1562 
-7 2 6 -10.5798 0.5102 
-7 2 7 -3.1563 0.1863 
-7 2 8 -5.4879 -0.5954 
-7 2 9 -1.5621 0.1956 
-7 2 10 6.3830 0.1474 
-7 2 11 0.0589 -0.1642 
-7 2 12 -0.1601 0.1443 
-7 2 13 -6.2563 -0.1311 
-7 2 14 -6.8118 0.0689 
-7 2 15 -3.6711 0.0301 
-7 2 16 4.0633 0.1051 
-7 2 17 5.6464 -0.0138 
-7 2 18 -0.1652 -0.1252 
-7 2 19 -0.1888 0.0381 
-7 2 20 4.4582 -0.0303 
-7 2 21 -3.0624 0.0395 
-7 2 22 -6.2726 0.1208 
-7 3 1 2.0619 -0.5174 
-7 3 2 -1.0180 0.4628 
-7 3 3 -2.0727 -0.3860 
-7 3 4 5.3033 -0.0890 
-7 3 5 -1.0791 0.0813 
-7 3 6 -0.5909 0.3957 
-7 3 7 2.2608 -0.0804 
-7 3 8 -2.8345 -0.3626 
-7 3 9 2.8584 0.1860 
-7 3 10 5.5255 0.0690 
-7 3 11 -6.3501 -0.0433 
-7 3 12 -1.1409 -0.0608 
-7 3 13 -2.5286 -0.0110 
-7 3 14 10.1218 0.0489 
-7 3 15 5.4991 -0.1334 
-7 3 16 -3.8615 0.1233 
-7 3 17 -6.1013 -0.1575 
-7 3 18 -6.1243 0.0286 
-7 3 19 2.7999 -0.0930 
-7 3 20 3.2304 -0.0146 
-7 3 21 0.0253 0.1186 
-7 3 22 1.1044 0.0238 
-7 4 1 -1.4329 0.0371 
-7 4 2 -7.1751 -0.4932 
-7 4 3 3.2931 0.6110 
-7 4 4 1.5763 0.0415 
-7 4 5 2.9625 -0.1021 
-7 4 6 -1.3326 -0.0222 
-7 4 7 -1.1732 -0.1340 
-7 4 8 1.7508 0.1653 
-7 4 9 2.3114 -0.1392 
-7 4 10 -1.8898 -0.0163 
-7 4 11 2.0496 0.0104 
-7 4 12 -1.8860 -0.0305 
-7 4 13 1.0278 0.1383 
-7 4 14 -3.1310 -0.1705 
-7 4 15 1.6469 -0.0806 
-7 4 16 3.6944 0.1123 
-7 4 17 3.7196 -0.0127 
-7 4 18 0.0518 -0.0097 
-7 4 19 -0.6895 -0.1552 
-7 4 20 -1.0930 0.1624 
-7 4 21 2.8436 0.1078 
-7 4 22 -1.0123 0.0187 
-7 5 1 5.9337 0.0947 
-7 5 2 3.9522 -0.2020 
-7 5 3 -0.1976 0.8019 
-7 5 4 6.3562 -0.0296 
-7 5 5 -4.5547 -0.2398 
-7 5 6 2.9845 -0.2221 
-7 5 7 -2.9123 0.4211 
-7 5 8 -8.1601 0.1604 
-7 5 9 3.9756 -0.4571 
-7 5 10 -6.0373 0.1744 
-7 5 11 1.5583 -0.0050 
-7 5 12 2.5913 0.0283 
-7 5 13 -2.5862 -0.1347 
-7 5 14 4.9832 -0.0564 
-7 5 15 -2.8399 0.0227 
-7 5 16 7.9226 -0.0494 
-7 5 17 -2.1427 0.2089 
-7 5 18 -8.8755 -0.0517 
-7 5 19 -4.2566 -0.0199 
-7 5 20 2.5259 0.0978 
-7 5 21 0.1947 0.0553 
-7 6 1 -4.0517 0.0051 
-7 6 2 3.3408 0.0152 
-7 6 3 -7.3651 -0.1356 
-7 6 4 -10.6850 0.1998 
-7 6 5 5.7878 0.0054 
-7 6 6 6.4590 -0.1407 
-7 6 7 0.5411 0.4031 
-7 6 8 3.1155 -0.0632 
-7 6 9 1.7196 -0.1665 
-7 6 10 6.0576 0.1885 
-7 6 11 -1.7168 0.0771 
-7 6 12 -3.9869 -0.0494 
-7 6 13 1.4948 -0.2220 
-7 6 14 -2.8738 0.2021 
-7 6 15 -5.3062 -0.0632 
-7 6 16 -7.2752 -0.0900 
-7 6 17 -6.3782 0.1215 
-7 6 18 -1.5038 -0.1282 
-7 6 19 -3.3041 0.0168 
-7 6 20 -0.1386 -0.0072 
-7 7 1 8.3465 -0.2120 
-7 7 2 -4.2569 -0.4305 
-7 7 3 -5.0172 -0.2776 
-7 7 4 -2.3318 0.6469 
-7 7 5 -5.6920 0.0145 
-7 7 6 -2.1259 -0.1452 
-7 7 7 1.2347 -0.0558 
-7 7 8 -4.9220 0.0683 
-7 7 9 -1.4897 0.0005 
-7 7 10 -5.3045 0.0069 
-7 7 11 -3.1130 0.0870 
-7 7 12 -7.1367 -0.1673 
-7 7 13 -2.5152 0.0192 
-7 7 14 -0.9136 0.2093 
-7 7 15 -2.8298 -0.1762 
-7 7 16 6.2759 -0.0815 
-7 7 17 8.7769 -0.0046 
-7 7 18 2.0844 0.1369 
-7 7 19 6.4856 -0.1125 
-7 8 1 2.4174 -0.0188 
-7 8 2 -1.4730 -0.5387 
-7 8 3 -1.3530 0.1081 
-7 8 4 1.3221 0.4566 
-7 8 5 0.5111 -0.0671 
-7 8 6 7.2714 -0.2907 
-7 8 7 -3.0159 -0.1237 
-7 8 8 3.5239 0.3469 
-7 8 9 -2.4835 -0.0427 
-7 8 10 12.0936 -0.0954 
-7 8 11 2.5123 0.0307 
-7 8 12 8.9706 -0.1044 
-7 8 13 7.0435 0.1592 
-7 8 14 2.6018 -0.0580 
-7 8 15 -1.7799 0.0118 
-7 8 16 2.4851 -0.1319 
-7 8 17 -4.1179 0.0484 
-7 8 18 1.0466 0.1089 
-7 9 1 -4.5836 -0.0147 
-7 9 2 -0.6383 0.0648 
-7 9 3 -0.3115 0.0785 
-7 9 4 7.1033 -0.0945 
-7 9 5 -0.1466 -0.0678 
-7 9 6 -0.6529 -0.0784 
-7 9 7 3.0762 0.0399 
-7 9 8 -4.9164 0.1114 
-7 9 9 4.9861 -0.1041 
-7 9 10 0.7267 -0.0151 
-7 9 11 5.1613 0.0016 
-7 9 12 -7.5132 0.0464 
-7 9 13 1.4268 -0.0392 
-7 9 14 -4.3782 -0.0236 
-7 9 15 4.4841 0.1474 
-7 9 16 -1.5985 -0.1508 
-7 10 1 1.9211 0.1319 
-7 10 2 2.5290 0.3264 
-7 10 3 8.8437 -0.3549 
-7 10 4 -1.1923 -0.1958 
-7 10 5 -2.4380 0.0826 
-7 10 6 -8.3545 0.0940 
-7 10 7 -2.2756 0.0027 
-7 10 8 6.0858 -0.2148 
-7 10 9 1.3356 0.1149 
-7 10 10 6.9152 0.0116 
-7 10 11 -5.0174 -0.0006 
-7 10 12 -3.5619 0.0736 
-7 10 13 -0.8742 -0.1183 
-7 10 14 -0.8415 0.1206 
-7 11 1 -8.7300 -0.0357 
-7 11 2 -3.4563 0.0528 
-7 11 3 1.3686 -0.2001 
-7 11 4 3.3359 -0.1458 
-7 11 5 6.4586 0.1332 
-7 11 6 5.9608 0.0334 
-7 11 7 4.4711 -0.1730 
-7 11 8 -11.2595 -0.1458 
-7 11 9 -8.0741 0.2088 
-7 11 10 -7.0823 -0.0714 
-7 11 11 -2.3053 -0.0031 
-7 12 1 -4.8619 -0.1324 
-7 12 2 5.2204 -0.0836 
-7 12 3 -3.7542 0.0538 
-7 12 4 3.5814 -0.0821 
-7 12 5 -7.7990 -0.0880 
-7 12 6 -0.4494 0.0083 
-6 -16 1 -1.0377 0.1834 
-6 -16 2 -5.1854 0.0235 
-6 -16 3 0.2441 -0.8718 
-6 -16 4 0.5187 0.0280 
-6 -16 5 0.7928 0.1427 
-6 -15 1 7.3197 -0.3213 
-6 -15 2 3.3692 -0.0833 
-6 -15 3 0.4161 -0.5710 
-6 -15 4 -1.2374 0.3615 
-6 -15 5 -0.8202 0.0940 
-6 -15 6 0.2724 0.0174 
-6 -15 7 0.7923 0.0755 
-6 -15 8 2.2048 0.1309 
-6 -14 1 -0.7394 0.6731 
-6 -14 2 -1.5609 -0.1441 
-6 -14 3 -5.1434 0.0056 
-6 -14 4 0.9916 -0.1208 
-6 -14 5 -3.9262 0.2514 
-6 -14 6 0.1253 -0.2834 
-6 -14 7 0.7553 -0.3172 
-6 -14 8 -0.3954 0.1738 
-6 -14 9 2.5436 0.1534 
-6 -14 10 -0.3502 -0.0925 
-6 -14 11 3.4441 -0.1392 
-6 -13 1 0.3982 0.8776 
-6 -13 2 -2.0139 -0.0258 
-6 -13 3 1.9396 0.0868 
-6 -13 4 2.8901 -0.7427 
-6 -13 5 0.3971 0.2795 
-6 -13 6 0.5713 0.0667 
-6 -13 7 1.8333 -0.3553 
-6 -13 8 -0.5239 0.0909 
-6 -13 9 -1.0831 0.2062 
-6 -13 10 -2.9268 0.0044 
-6 -13 11 -1.8472 -0.1679 
-6 -13 12 -2.2170 0.2479 
-6 -13 13 4.5995 0.0957 
-6 -12 1 -2.2445 0.1572 
-6 -12 2 -5.4753 0.8477 
-6 -12 3 1.1072 -0.5714 
-6 -12 4 -3.2487 -0.4582 
-6 -12 5 -1.8625 0.1478 
-6 -12 6 3.6848 0.6704 
-6 -12 7 -1.5884 -0.1100 
-6 -12 8 -1.3019 -0.3170 
-6 -12 9 -0.4339 0.3030 
-6 -12 10 -3.2538 0.0021 
-6 -12 11 0.3048 0.0040 
-6 -12 12 4.5107 0.1005 
-6 -12 13 -0.0819 0.1760 
-6 -12 14 -0.0050 -0.1886 
-6 -12 15 -1.7842 0.3231 
-6 -11 1 1.5089 -1.5126 
-6 -11 2 4.4837 0.8879 
-6 -11 3 -0.1145 -0.4442 
-6 -11 4 -2.1445 0.1618 
-6 -11 5 1.4771 -0.1556 
-6 -11 6 3.2328 0.4298 
-6 -11 7 1.7091 -0.0557 
-6 -11 8 0.8853 -0.3999 
-6 -11 9 2.0205 0.3327 
-6 -11 10 -0.4769 0.1215 
-6 -11 11 -0.5231 0.0446 
-6 -11 12 -0.2426 -0.0419 
-6 -11 13 -0.9415 -0.0055 
-6 -11 14 0.1589 -0.0674 
-6 -11 15 -0.0684 0.1645 
-6 -11 16 -1.6565 0.0885 
-6 -11 17 3.5192 0.0899 
-6 -10 1 -4.1889 -0.1775 
-6 -10 2 -2.3144 -0.0638 
-6 -10 3 1.3289 0.8885 
-6 -10 4 -0.0249 -0.4652 
-6 -10 5 5.6638 -0.1801 
-6 -10 6 0.7278 0.1989 
-6 -10 7 -6.5402 0.1027 
-6 -10 8 -0.7106 -0.0995 
-6 -10 9 2.1574 -0.1724 
-6 -10 10 2.7887 0.3285 
-6 -10 11 2.0257 -0.1282 
-6 -10 12 -1.9189 -0.0016 
-6 -10 13 -1.4721 0.1374 
-6 -10 14 2.1284 -0.1027 
-6 -10 15 -1.8748 -0.2183 
-6 -10 16 -0.1517 -0.3116 
-6 -10 17 -0.6892 0.2555 
-6 -9 1 -0.2053 0.4308 
-6 -9 2 0.0320 -0.8093 
-6 -9 3 1.6487 1.4677 
-6 -9 4 1.9541 -0.6499 
-6 -9 5 -2.0942 -0.4324 
-6 -9 6 -1.8685 -0.0520 
-6 -9 7 0.5070 0.4446 
-6 -9 8 -2.0630 0.1070 
-6 -9 9 2.8052 -0.4748 
-6 -9 10 1.0719 0.3103 
-6 -9 11 -0.0769 -0.0398 
-6 -9 12 -2.0250 -0.0697 
-6 -9 13 1.1616 -0.0821 
-6 -9 14 3.5942 0.0177 
-6 -9 15 2.0054 -0.0029 
-6 -9 16 1.2626 -0.0169 
-6 -9 17 -1.3179 -0.0216 
-6 -9 18 4.0483 -0.0330 
-6 -8 1 -6.6638 -0.2156 
-6 -8 2 9.7606 -0.0576 
-6 -8 3 -1.7291 -0.2328 
-6 -8 4 -1.8102 0.4180 
-6 -8 5 -3.3828 -0.3034 
-6 -8 6 -0.5223 -0.0197 
-6 -8 7 1.6628 0.5114 
-6 -8 8 3.7038 -0.1304 
-6 -8 9 -5.1127 -0.2270 
-6 -8 10 2.0348 0.0329 
-6 -8 11 -3.8121 0.0977 
-6 -8 12 -0.7459 -0.0503 
-6 -8 13 -0.9336 -0.0895 
-6 -8 14 3.7455 0.2532 
-6 -8 15 0.4737 -0.2709 
-6 -8 16 -1.5654 0.0724 
-6 -8 17 3.8300 0.1614 
-6 -8 18 -3.0750 -0.1144 
-6 -8 19 3.2131 0.0314 
-6 -8 20 -1.8636 0.0084 
-6 -7 1 7.3255 -1.5090 
-6 -7 2 0.9499 -0.2528 
-6 -7 3 5.5294 -0.7646 
-6 -7 4 -1.5683 1.3821 
-6 -7 5 -4.0465 -0.1884 
-6 -7 6 0.4092 -0.4004 
-6 -7 7 10.3361 0.2102 
-6 -7 8 -3.6306 0.0472 
-6 -7 9 2.8174 -0.1521 
-6 -7 10 1.6018 -0.1542 
-6 -7 11 -1.9051 0.1775 
-6 -7 12 -1.0946 -0.0028 
-6 -7 13 -0.0916 -0.0701 
-6 -7 14 -0.2121 0.1704 
-6 -7 15 -0.5442 -0.1187 
-6 -7 16 -2.7982 -0.0050 
-6 -7 17 -2.9777 0.0124 
-6 -7 18 2.6717 0.0018 
-6 -7 19 1.8667 0.0143 
-6 -7 20 0.5070 -0.0566 
-6 -7 21 -4.6733 0.1009 
-6 -6 1 5.1329 0.7590 
-6 -6 2 2.5797 -1.0765 
-6 -6 3 -6.7150 0.3145 
-6 -6 4 -10.8489 0.7017 
-6 -6 5 1.8608 0.2132 
-6 -6 6 3.5139 -0.6647 
-6 -6 7 6.7823 -0.2963 
-6 -6 8 -2.8723 0.5641 
-6 -6 9 -6.4368 -0.2815 
-6 -6 10 -1.4382 -0.1946 
-6 -6 11 6.3018 0.0694 
-6 -6 12 -0.7043 -0.0335 
-6 -6 13 0.3657 0.0383 
-6 -6 14 -1.9182 -0.0896 
-6 -6 15 -1.3066 0.0799 
-6 -6 16 0.2976 -0.1129 
-6 -6 17 6.1462 -0.0485 
-6 -6 18 5.5424 0.1212 
-6 -6 19 0.5226 0.0664 
-6 -6 20 -1.3447 -0.0623 
-6 -6 21 2.4548 -0.0443 
-6 -6 22 4.8952 0.0045 
-6 -5 1 9.1890 1.5895 
-6 -5 2 -1.0938 -0.8590 
-6 -5 3 -10.8115 0.5669 
-6 -5 4 1.1414 -0.1697 
-6 -5 5 -7.4150 0.3784 
-6 -5 6 8.8883 -0.3223 
-6 -5 7 3.2420 -0.1398 
-6 -5 8 0.5949 0.5157 
-6 -5 9 -4.2192 -0.1563 
-6 -5 10 -0.0442 -0.1160 
-6 -5 11 0.8925 0.0583 
-6 -5 12 6.3341 0.0373 
-6 -5 13 -2.6586 -0.0899 
-6 -5 14 -0.9079 -0.0909 
-6 -5 15 -1.6941 0.1583 
-6 -5 16 4.7833 -0.1778 
-6 -5 17 -2.6919 0.0074 
-6 -5 18 0.0655 0.0390 
-6 -5 19 -3.6676 0.0726 
-6 -5 20 -0.9767 -0.0753 
-6 -5 21 -4.0859 0.0437 
-6 -5 22 3.9325 -0.1050 
-6 -5 23 1.8890 0.0933 
-6 -4 1 -0.3958 0.4035 
-6 -4 2 -1.5631 0.9272 
-6 -4 3 -3.2986 -1.4401 
-6 -4 4 2.4817 -0.1914 
-6 -4 5 3.4800 0.5616 
-6 -4 6 -7.3503 0.2518 
-6 -4 7 -0.6042 -0.2030 
-6 -4 8 -6.6918 -0.2099 
-6 -4 9 -8.9724 0.4957 
-6 -4 10 -0.7796 -0.1719 
-6 -4 11 9.4863 -0.0493 
-6 -4 12 -5.5523 0.1210 
-6 -4 13 -2.2880 -0.1256 
-6 -4 14 -5.4126 0.1221 
-6 -4 15 0.0745 0.0344 
-6 -4 16 -0.8906 -0.0803 
-6 -4 17 2.0650 -0.0329 
-6 -4 18 -2.5313 -0.0269 
-6 -4 19 0.6230 0.0827 
-6 -4 20 0.4019 -0.1818 
-6 -4 21 2.4698 0.0760 
-6 -4 22 -2.8374 0.1987 
-6 -4 23 -4.0527 0.0268 
-6 -3 1 2.7531 -1.0911 
-6 -3 2 -22.1205 1.0538 
-6 -3 3 11.6055 -1.3642 
-6 -3 4 15.5416 0.0315 
-6 -3 5 9.8869 0.3812 
-6 -3 6 -1.2913 0.3674 
-6 -3 7 -3.1408 -0.4689 
-6 -3 8 -4.6377 -0.4071 
-6 -3 9 1.4307 0.5765 
-6 -3 10 3.3977 -0.1681 
-6 -3 11 2.3671 -0.0399 
-6 -3 12 2.6954 0.0696 
-6 -3 13 1.7886 0.0279 
-6 -3 14 4.2545 0.0237 
-6 -3 15 -2.2645 0.0397 
-6 -3 16 1.1341 0.0275 
-6 -3 17 1.7859 -0.1374 
-6 -3 18 -0.2596 0.0741 
-6 -3 19 -3.0515 0.0230 
-6 -3 20 -3.4546 0.0645 
-6 -3 21 -1.4822 0.0060 
-6 -3 22 1.9512 -0.0685 
-6 -3 23 -4.6682 0.0487 
-6 -3 24 -2.7056 -0.0271 
-6 -2 1 -9.5021 0.5199 
-6 -2 2 4.5081 0.1406 
-6 -2 3 2.2641 0.6571 
-6 -2 4 12.3393 -0.5951 
-6 -2 5 -5.4703 0.1731 
-6 -2 6 -10.1728 0.3420 
-6 -2 7 -0.6740 -0.5327 
-6 -2 8 8.6765 0.0266 
-6 -2 9 -2.6557 0.1974 
-6 -2 10 5.5338 -0.0055 
-6 -2 11 -6.3557 -0.1078 
-6 -2 12 -3.0728 -0.0375 
-6 -2 13 3.9174 0.2105 
-6 -2 14 2.2517 -0.2348 
-6 -2 15 -1.8217 0.0754 
-6 -2 16 -3.0907 0.0517 
-6 -2 17 0.3076 0.0078 
-6 -2 18 -2.0810 0.0918 
-6 -2 19 -0.6033 -0.0862 
-6 -2 20 -0.9150 0.1201 
-6 -2 21 -0.4621 -0.1211 
-6 -2 22 4.9462 -0.1314 
-6 -2 23 4.1577 -0.1496 
-6 -2 24 3.9867 -0.0141 
-6 -1 1 -5.6814 0.5601 
-6 -1 2 -9.5575 0.1299 
-6 -1 3 8.7812 1.2122 
-6 -1 4 10.6499 -1.1138 
-6 -1 5 -14.2051 -0.2676 
-6 -1 6 -1.7564 0.3955 
-6 -1 7 -5.2553 0.1960 
-6 -1 8 6.1629 -0.1796 
-6 -1 9 2.3990 -0.1093 
-6 -1 10 -8.1203 0.2086 
-6 -1 12 -6.3685 0.0591 
-6 -1 13 0.5181 -0.0342 
-6 -1 14 -1.4368 -0.1525 
-6 -1 15 -0.1739 0.0255 
-6 -1 16 1.1338 0.0750 
-6 -1 17 -0.1575 0.0399 
-6 -1 18 -2.0478 -0.1041 
-6 -1 19 -2.2270 -0.0022 
-6 -1 20 -0.7143 0.0096 
-6 -1 21 3.0243 -0.2048 
-6 -1 22 -2.7637 -0.0605 
-6 -1 23 1.4986 -0.1412 
-6 -1 24 4.2291 0.2021 
-6 0 1 16.3689 -0.5753 
-6 0 2 -0.2044 0.9144 
-6 0 3 -0.1378 -0.4617 
-6 0 4 -6.0927 -0.6057 
-6 0 5 4.3591 -0.2789 
-6 0 6 -7.2823 0.2655 
-6 0 7 8.6036 0.5950 
-6 0 8 2.0254 -0.6106 
-6 0 9 -0.7155 0.0938 
-6 0 10 2.3813 0.1904 
-6 0 11 2.8313 -0.0355 
-6 0 13 7.5172 -0.0920 
-6 0 14 1.8277 0.1159 
-6 0 15 -3.7498 -0.0963 
-6 0 16 0.2619 0.1725 
-6 0 17 0.9960 0.0760 
-6 0 18 3.9743 -0.1523 
-6 0 19 1.1968 -0.0111 
-6 0 20 1.9231 0.0749 
-6 0 21 0.1338 -0.1408 
-6 0 22 2.3647 -0.0512 
-6 0 23 -0.2718 0.0074 
-6 0 24 -1.2863 0.2396 
-6 1 1 10.9795 -1.2822 
-6 1 2 1.0584 -0.0057 
-6 1 3 -4.0445 -0.3361 
-6 1 4 -4.9710 0.6313 
-6 1 5 -3.9313 -0.3955 
-6 1 6 3.2466 -0.0459 
-6 1 7 3.6743 0.2679 
-6 1 8 5.7500 -0.2227 
-6 1 9 -6.1322 -0.0971 
-6 1 10 3.0689 -0.0129 
-6 1 11 -4.0145 0.1051 
-6 1 12 -0.6843 -0.0975 
-6 1 13 1.2998 0.0817 
-6 1 14 6.4634 0.1515 
-6 1 15 -2.8863 -0.1141 
-6 1 16 -6.9600 0.1560 
-6 1 17 0.2240 -0.0517 
-6 1 18 3.4727 0.0722 
-6 1 19 -1.8035 -0.1112 
-6 1 20 -1.7843 0.0592 
-6 1 21 -0.6267 -0.0583 
-6 1 22 -0.4555 -0.0326 
-6 1 23 -2.5410 0.2122 
-6 1 24 -4.9458 0.0475 
-6 2 1 8.2571 0.3864 
-6 2 2 -2.6293 -1.1450 
-6 2 3 -11.3802 1.0800 
-6 2 4 0.7903 0.7117 
-6 2 5 -4.5220 -0.4626 
-6 2 6 -4.1624 -0.3458 
-6 2 7 7.5604 0.0229 
-6 2 8 -3.6094 0.4427 
-6 2 9 -7.8292 -0.4361 
-6 2 10 0.6642 -0.0165 
-6 2 11 0.4011 0.0924 
-6 2 12 -4.7146 -0.1414 
-6 2 13 -3.7058 0.1412 
-6 2 14 -4.8876 -0.1336 
-6 2 15 0.9271 -0.1372 
-6 2 16 -1.6364 0.0092 
-6 2 17 4.0005 0.0052 
-6 2 18 1.3938 0.0675 
-6 2 19 2.9569 -0.1413 
-6 2 20 0.9814 0.0712 
-6 2 21 2.1274 -0.0025 
-6 2 22 -1.5501 0.0410 
-6 2 23 -3.9590 0.1174 
-6 2 24 -0.3664 -0.0270 
-6 3 1 1.4704 0.5361 
-6 3 2 -10.8509 -0.7237 
-6 3 3 4.7316 0.8565 
-6 3 4 3.5507 0.1201 
-6 3 5 7.6064 -0.2001 
-6 3 6 -0.2473 -0.3667 
-6 3 7 -1.3978 0.3399 
-6 3 8 -4.4034 0.4173 
-6 3 9 -1.0863 -0.4562 
-6 3 10 3.6052 0.1255 
-6 3 11 9.9377 -0.0152 
-6 3 12 -3.1272 0.0332 
-6 3 13 2.1576 -0.1144 
-6 3 14 6.6965 -0.0249 
-6 3 15 -0.9897 0.0300 
-6 3 16 -3.2803 -0.0803 
-6 3 17 -1.8614 0.0675 
-6 3 18 0.2939 -0.0478 
-6 3 19 0.4680 0.0485 
-6 3 20 -1.9717 -0.0337 
-6 3 21 -3.1402 -0.0244 
-6 3 22 -0.2247 0.0187 
-6 3 23 4.5566 0.1190 
-6 3 24 -2.0088 -0.0083 
-6 4 1 -4.9464 0.0384 
-6 4 2 -4.4380 0.2633 
-6 4 3 -9.4535 -0.8048 
-6 4 4 14.9761 0.1986 
-6 4 5 -4.3882 0.2836 
-6 4 6 -2.1828 -0.1786 
-6 4 7 7.3041 0.1751 
-6 4 8 -3.9413 -0.0549 
-6 4 9 -4.0651 0.0680 
-6 4 10 2.9832 -0.0082 
-6 4 11 -2.0861 -0.0628 
-6 4 12 -1.6448 0.1014 
-6 4 13 -9.0371 -0.2118 
-6 4 14 1.7162 0.1568 
-6 4 15 0.4083 -0.0014 
-6 4 16 0.8835 -0.0694 
-6 4 17 3.4094 0.0746 
-6 4 18 -2.1608 -0.0262 
-6 4 19 -0.9799 0.2001 
-6 4 20 0.9845 -0.1502 
-6 4 21 1.4913 0.0173 
-6 4 22 4.7671 0.0215 
-6 4 23 -3.4782 0.1275 
-6 5 1 -4.9471 -0.2472 
-6 5 2 4.4601 -0.0017 
-6 5 3 12.3174 -0.7494 
-6 5 4 -1.5932 0.5730 
-6 5 5 1.2443 0.2362 
-6 5 6 1.3184 0.0388 
-6 5 7 -2.9127 -0.4560 
-6 5 8 1.0359 0.0809 
-6 5 9 -4.3431 0.2450 
-6 5 10 5.8048 -0.1440 
-6 5 11 10.0091 -0.0261 
-6 5 12 0.0390 -0.1094 
-6 5 13 -3.4161 0.0491 
-6 5 14 1.9947 0.0856 
-6 5 15 -6.5306 -0.0010 
-6 5 16 7.6079 -0.1000 
-6 5 17 1.0102 -0.1116 
-6 5 18 -2.7390 0.0493 
-6 5 19 -3.8233 0.1357 
-6 5 20 -1.7415 -0.1355 
-6 5 21 1.8542 -0.0168 
-6 5 22 -2.4886 0.0498 
-6 5 23 3.5692 0.1250 
-6 6 1 2.9113 0.3971 
-6 6 2 2.2669 -0.2755 
-6 6 4 -3.5359 0.1139 
-6 6 5 -3.7174 0.2227 
-6 6 6 -2.6499 0.0926 
-6 6 7 9.9483 -0.5319 
-6 6 8 0.2047 0.3203 
-6 6 9 -0.3804 0.0512 
-6 6 10 0.5053 -0.1024 
-6 6 11 -4.2600 -0.0522 
-6 6 12 -5.9475 -0.0998 
-6 6 13 1.8718 0.2088 
-6 6 14 2.3352 -0.2005 
-6 6 15 -2.3902 0.1266 
-6 6 16 -6.7764 -0.0766 
-6 6 17 2.4254 -0.0929 
-6 6 18 -4.9388 0.1179 
-6 6 19 0.4580 0.0167 
-6 6 20 -4.2327 0.0328 
-6 6 21 -1.5696 -0.0428 
-6 6 22 2.1582 0.0756 
-6 7 1 -3.6169 0.2418 
-6 7 2 2.1303 0.2966 
-6 7 3 -1.8236 0.1866 
-6 7 4 -2.0281 -0.6022 
-6 7 5 -9.2353 0.1898 
-6 7 6 -0.9968 0.0937 
-6 7 7 5.5133 0.0145 
-6 7 8 0.7934 -0.0012 
-6 7 9 -7.8433 0.0678 
-6 7 10 -1.2969 0.0186 
-6 7 11 4.9486 -0.0512 
-6 7 12 -3.4221 0.1437 
-6 7 13 0.9301 -0.0834 
-6 7 14 0.9603 -0.0941 
-6 7 15 0.2268 0.1337 
-6 7 16 11.0253 -0.0227 
-6 7 17 -4.4093 -0.0998 
-6 7 18 5.2252 -0.0502 
-6 7 19 0.6755 0.0907 
-6 7 20 4.8520 0.0408 
-6 7 21 -1.3485 -0.0902 
-6 8 1 6.0481 -0.1529 
-6 8 2 5.5089 0.6543 
-6 8 3 -1.8847 -0.6167 
-6 8 4 2.8641 -0.5240 
-6 8 5 -3.9006 0.1897 
-6 8 6 0.6877 0.1729 
-6 8 7 1.6628 0.0609 
-6 8 8 -6.2041 -0.4381 
-6 8 9 5.3144 0.2716 
-6 8 10 5.4506 -0.0251 
-6 8 11 4.0573 -0.0310 
-6 8 12 0.3209 0.1128 
-6 8 13 2.0532 -0.1020 
-6 8 14 -5.4735 0.0311 
-6 8 15 0.8718 0.0574 
-6 8 16 -6.1739 0.0472 
-6 8 17 -1.7264 -0.0986 
-6 8 18 -5.4906 -0.0995 
-6 8 19 1.9131 0.1942 
-6 8 20 -6.5431 -0.0960 
-6 9 1 -0.3238 -0.4201 
-6 9 2 -2.4821 0.0559 
-6 9 3 5.2247 -0.3091 
-6 9 4 -2.3757 -0.0196 
-6 9 5 4.9476 -0.0081 
-6 9 6 6.3174 0.1561 
-6 9 7 -2.0434 -0.1437 
-6 9 8 1.2417 -0.1848 
-6 9 9 1.1749 0.1105 
-6 9 10 5.5404 0.0080 
-6 9 11 3.5537 0.0077 
-6 9 12 -1.3825 -0.0612 
-6 9 13 0.4772 0.0779 
-6 9 14 2.7975 0.0093 
-6 9 15 2.8292 -0.0207 
-6 9 16 3.4545 0.0782 
-6 9 17 0.0264 -0.1570 
-6 9 18 12.5627 0.0818 
-6 10 1 1.6978 0.0512 
-6 10 2 4.0034 -0.2462 
-6 10 3 2.9954 0.4097 
-6 10 4 -3.7957 -0.0222 
-6 10 5 0.2979 -0.1904 
-6 10 6 -0.1690 -0.0344 
-6 10 7 1.5849 0.0003 
-6 10 8 -0.0332 0.0971 
-6 10 9 -1.7759 -0.0936 
-6 10 10 -2.5402 -0.0311 
-6 10 11 -5.4732 -0.0427 
-6 10 12 -1.5896 0.0230 
-6 10 13 -0.2085 0.2099 
-6 10 14 5.3566 -0.1363 
-6 10 15 0.0149 -0.0760 
-6 10 16 0.6576 0.0739 
-6 10 17 0.6773 -0.0257 
-6 11 1 -12.7883 0.0526 
-6 11 2 0.5408 -0.0422 
-6 11 3 -4.8927 0.3330 
-6 11 4 6.0724 -0.1045 
-6 11 5 3.7352 -0.2438 
-6 11 6 1.4162 -0.0388 
-6 11 7 -5.2237 0.2285 
-6 11 8 -10.5246 -0.0617 
-6 11 9 -3.6384 -0.1887 
-6 11 10 -3.1465 0.0578 
-6 11 11 0.4715 0.0182 
-6 11 12 -1.2300 0.0901 
-6 11 13 9.0478 -0.0784 
-6 11 14 -3.7091 -0.1106 
-6 12 1 -2.4487 0.0797 
-6 12 2 -1.0979 0.0546 
-6 12 3 5.6718 -0.2243 
-6 12 4 0.0832 0.0098 
-6 12 5 -0.9105 -0.0633 
-6 12 6 -4.8361 -0.0633 
-6 12 7 3.7238 0.0776 
-6 12 8 3.8696 -0.1050 
-6 12 9 9.3348 0.0297 
-6 12 10 -1.9092 0.1284 
-6 12 11 -3.8654 0.0097 
-6 13 1 5.4447 -0.0821 
-6 13 2 5.0740 -0.3002 
-6 13 3 -4.8822 -0.1591 
-6 13 4 -3.7474 0.1617 
-6 13 5 -3.2060 0.1576 
-5 -16 1 -1.9032 0.3432 
-5 -16 2 -2.7805 0.0149 
-5 -16 3 -4.8017 0.1300 
-5 -16 4 4.3135 -0.1270 
-5 -16 5 1.1978 0.1111 
-5 -16 6 -1.4252 0.2708 
-5 -15 1 -2.9442 0.3021 
-5 -15 2 0.2879 -0.0559 
-5 -15 3 2.8092 0.4962 
-5 -15 4 3.6590 -0.5598 
-5 -15 5 -1.8423 0.2042 
-5 -15 6 -2.2006 -0.0430 
-5 -15 7 1.2380 -0.0290 
-5 -15 8 -1.6408 -0.0022 
-5 -15 9 -0.0734 -0.0829 
-5 -14 1 -0.5665 -0.5088 
-5 -14 2 0.3987 0.4753 
-5 -14 3 0.5100 -0.2911 
-5 -14 4 0.8363 -0.2674 
-5 -14 5 -1.0530 -0.1880 
-5 -14 6 -2.0480 0.4260 
-5 -14 7 1.9890 0.1001 
-5 -14 8 2.8711 -0.3633 
-5 -14 9 1.9007 0.2258 
-5 -14 10 0.7705 0.0959 
-5 -14 11 3.5167 -0.0501 
-5 -14 12 -1.3301 -0.0404 
-5 -13 1 4.3866 -1.6222 
-5 -13 2 1.8410 0.2409 
-5 -13 3 1.9500 -0.0423 
-5 -13 4 1.0394 0.5661 
-5 -13 5 -1.8940 -0.5532 
-5 -13 6 1.5554 -0.0071 
-5 -13 7 -2.7543 0.1723 
-5 -13 8 -2.7933 -0.4101 
-5 -13 9 2.1123 0.0489 
-5 -13 10 -2.5153 0.1876 
-5 -13 11 -4.1471 0.2210 
-5 -13 12 0.9053 -0.1189 
-5 -13 13 0.4772 -0.1001 
-5 -13 14 4.1085 0.2327 
-5 -12 1 0.8739 0.1556 
-5 -12 2 -2.1320 -0.5154 
-5 -12 3 -4.1146 0.9339 
-5 -12 4 -5.1140 0.0387 
-5 -12 5 -0.6234 -0.3980 
-5 -12 6 1.5944 -0.4085 
-5 -12 7 -1.5707 0.2538 
-5 -12 8 1.0936 0.2145 
-5 -12 9 1.4192 -0.2495 
-5 -12 10 -3.2305 0.1889 
-5 -12 11 -1.3796 0.0559 
-5 -12 12 0.7470 -0.1203 
-5 -12 13 2.5887 -0.0508 
-5 -12 14 3.2806 0.0182 
-5 -12 15 1.5696 -0.0705 
-5 -12 16 -2.0104 -0.0789 
-5 -11 1 6.6113 0.8802 
-5 -11 2 2.0744 -1.1381 
-5 -11 3 3.7980 1.0103 
-5 -11 4 -3.6460 -0.0766 
-5 -11 5 0.6100 -0.0751 
-5 -11 6 3.2579 -0.2631 
-5 -11 7 1.7096 0.2365 
-5 -11 8 4.1853 0.4436 
-5 -11 9 2.8929 -0.3409 
-5 -11 10 -3.5335 0.0739 
-5 -11 11 4.3968 0.0280 
-5 -11 12 1.8241 -0.1048 
-5 -11 13 -0.7079 0.0124 
-5 -11 14 -0.6228 -0.0106 
-5 -11 15 -2.2066 -0.0885 
-5 -11 16 -4.7108 0.0062 
-5 -11 17 6.4630 0.3772 
-5 -10 1 1.8912 0.2828 
-5 -10 2 -1.9739 -0.1297 
-5 -10 3 -3.4754 -1.0186 
-5 -10 4 0.8244 0.5927 
-5 -10 5 4.8155 0.0595 
-5 -10 6 0.9879 -0.1745 
-5 -10 7 -0.3104 0.0265 
-5 -10 8 -1.3870 0.1919 
-5 -10 9 -2.2492 0.0765 
-5 -10 10 0.3273 -0.2301 
-5 -10 11 0.6565 0.0374 
-5 -10 12 -0.7734 0.0464 
-5 -10 13 -6.6682 -0.0622 
-5 -10 14 -0.5645 0.0985 
-5 -10 15 -0.1931 -0.0087 
-5 -10 16 0.0861 -0.0924 
-5 -10 17 -0.0766 0.0848 
-5 -10 18 0.2872 -0.2179 
-5 -10 19 0.9252 0.2114 
-5 -9 1 -9.6901 -1.1223 
-5 -9 2 0.5398 0.3609 
-5 -9 3 -6.9004 -1.2282 
-5 -9 4 2.5319 1.0609 
-5 -9 5 1.6727 0.1969 
-5 -9 6 1.5147 -0.2724 
-5 -9 7 -4.2768 -0.2720 
-5 -9 8 1.4786 0.1803 
-5 -9 9 -6.4530 0.1151 
-5 -9 10 2.0638 -0.3236 
-5 -9 11 6.4099 0.0618 
-5 -9 12 -0.5245 0.0870 
-5 -9 13 -2.4233 -0.0845 
-5 -9 14 2.4771 0.0587 
-5 -9 15 4.4021 0.0697 
-5 -9 16 -1.1909 -0.2062 
-5 -9 17 1.3471 0.0561 
-5 -9 18 0.1916 -0.0778 
-5 -9 19 0.1618 0.2839 
-5 -9 20 -1.0271 0.1063 
-5 -8 1 7.4489 1.3712 
-5 -8 2 -6.6626 -0.2668 
-5 -8 3 3.7705 0.2076 
-5 -8 4 5.8575 -0.0549 
-5 -8 5 3.6955 0.6588 
-5 -8 6 -10.7639 -0.2350 
-5 -8 7 3.5110 -0.5908 
-5 -8 8 -1.4524 0.4859 
-5 -8 9 3.1765 0.0798 
-5 -8 10 3.6487 -0.0048 
-5 -8 11 3.0425 -0.1382 
-5 -8 12 -1.6971 -0.0105 
-5 -8 13 -4.4207 0.0057 
-5 -8 14 0.8473 -0.1391 
-5 -8 15 2.2521 0.1802 
-5 -8 16 0.2387 -0.2097 
-5 -8 17 0.3063 0.0304 
-5 -8 18 0.6746 0.1027 
-5 -8 19 -5.1108 0.1388 
-5 -8 20 1.1145 -0.2490 
-5 -8 21 -2.3638 0.1597 
-5 -7 1 -8.7660 1.6323 
-5 -7 2 2.0266 -0.2070 
-5 -7 3 4.6945 0.5201 
-5 -7 4 4.3338 -1.1713 
-5 -7 5 -1.8223 0.5270 
-5 -7 6 -11.2897 0.3203 
-5 -7 7 -0.1971 -0.2976 
-5 -7 8 8.7479 0.1286 
-5 -7 9 -2.6165 0.0543 
-5 -7 10 -2.9381 0.0537 
-5 -7 11 1.4716 -0.1214 
-5 -7 12 -5.1871 0.0650 
-5 -7 13 -1.5590 0.0121 
-5 -7 14 2.9740 -0.0947 
-5 -7 15 3.1893 0.0327 
-5 -7 16 -1.5614 0.0091 
-5 -7 17 -3.7426 -0.0566 
-5 -7 18 0.0079 -0.0688 
-5 -7 19 4.9540 0.1155 
-5 -7 20 2.2581 -0.0408 
-5 -7 21 -0.1953 -0.0076 
-5 -7 22 -2.3041 0.0687 
-5 -6 1 -0.7148 -0.3158 
-5 -6 2 0.9120 1.3861 
-5 -6 3 1.8394 -1.2868 
-5 -6 4 10.6813 -0.6154 
-5 -6 5 -10.7488 0.2726 
-5 -6 6 -0.8929 0.5765 
-5 -6 7 7.6694 -0.0579 
-5 -6 8 6.0923 -0.6391 
-5 -6 9 -4.4702 0.4053 
-5 -6 10 -3.3334 -0.0833 
-5 -6 11 -5.0415 -0.1101 
-5 -6 12 5.4643 0.0616 
-5 -6 13 -3.5541 -0.0001 
-5 -6 14 4.4277 0.0865 
-5 -6 15 -0.1868 -0.0892 
-5 -6 16 -1.3619 0.0906 
-5 -6 17 -1.1880 -0.0553 
-5 -6 18 5.4745 -0.0684 
-5 -6 19 2.0936 0.0799 
-5 -6 20 -2.8039 -0.0620 
-5 -6 21 -2.8975 0.0838 
-5 -6 22 3.6929 -0.0176 
-5 -6 23 5.5107 -0.2532 
-5 -5 1 -3.9686 -2.0536 
-5 -5 2 10.0779 1.3180 
-5 -5 3 3.9441 -0.6608 
-5 -5 4 -15.0494 0.2124 
-5 -5 5 -6.9748 -0.2150 
-5 -5 6 -17.7315 0.3992 
-5 -5 7 11.4191 -0.0351 
-5 -5 8 12.2373 -0.6787 
-5 -5 9 0.3838 0.2559 
-5 -5 10 -12.7029 -0.0734 
-5 -5 11 7.6150 -0.0600 
-5 -5 12 -4.8521 -0.0188 
-5 -5 13 2.7224 0.0586 
-5 -5 14 -0.3482 -0.0153 
-5 -5 15 -0.7676 0.0238 
-5 -5 16 -2.5108 0.1183 
-5 -5 17 2.8208 -0.0719 
-5 -5 18 1.3095 -0.1177 
-5 -5 19 -1.2129 0.0440 
-5 -5 20 -0.9059 0.0774 
-5 -5 21 0.2481 -0.0114 
-5 -5 22 -0.1050 0.0417 
-5 -5 23 -0.0689 -0.0290 
-5 -5 24 -3.5271 0.2388 
-5 -4 1 20.7890 0.2322 
-5 -4 2 -1.1343 -0.3788 
-5 -4 3 2.0145 1.6005 
-5 -4 4 1.0240 -0.3845 
-5 -4 5 -13.2662 -0.4693 
-5 -4 6 3.7438 0.3025 
-5 -4 7 10.8402 0.1149 
-5 -4 8 1.3390 -0.0542 
-5 -4 9 -14.4066 -0.2264 
-5 -4 10 -5.9876 0.2664 
-5 -4 11 7.3393 -0.0343 
-5 -4 12 9.4463 -0.0836 
-5 -4 13 -2.3789 0.2184 
-5 -4 14 1.1112 -0.2223 
-5 -4 15 -3.5389 0.0185 
-5 -4 16 -2.7160 -0.0179 
-5 -4 17 -2.0521 0.0133 
-5 -4 18 0.0079 0.0141 
-5 -4 19 -1.6847 -0.1660 
-5 -4 20 1.1285 0.1130 
-5 -4 21 -0.4955 -0.0204 
-5 -4 22 2.2631 -0.1348 
-5 -4 23 -6.4060 -0.0085 
-5 -4 24 -2.8603 0.0848 
-5 -3 1 -2.5706 0.4716 
-5 -3 2 3.7782 -1.0133 
-5 -3 3 -15.7934 1.7927 
-5 -3 4 9.1034 -0.7513 
-5 -3 5 11.4443 -0.6466 
-5 -3 6 5.5277 -0.0244 
-5 -3 7 -1.7232 0.6716 
-5 -3 8 3.2224 0.0914 
-5 -3 9 -18.1039 -0.3695 
-5 -3 10 5.8823 0.2618 
-5 -3 11 6.9683 0.0841 
-5 -3 12 1.1768 0.0183 
-5 -3 13 -2.6254 -0.0671 
-5 -3 14 0.3239 -0.0463 
-5 -3 15 -2.4524 -0.0015 
-5 -3 16 0.3685 0.0851 
-5 -3 17 0.9806 -0.0086 
-5 -3 18 -0.4610 -0.0108 
-5 -3 19 -3.5066 -0.0194 
-5 -3 20 -1.1990 0.0018 
-5 -3 21 -2.2914 -0.0544 
-5 -3 22 -3.0797 -0.0181 
-5 -3 23 -1.0200 0.0199 
-5 -3 24 -3.3660 0.1265 
-5 -2 1 15.4935 -0.5876 
-5 -2 2 -23.7780 0.2253 
-5 -2 3 -12.9466 -0.6692 
-5 -2 4 8.7219 0.3771 
-5 -2 5 -0.1592 -0.3512 
-5 -2 6 4.4410 -0.2823 
-5 -2 7 -1.8614 0.6402 
-5 -2 8 -5.8605 -0.3181 
-5 -2 9 4.7269 -0.0427 
-5 -2 10 -3.8271 -0.0699 
-5 -2 11 8.8782 0.0039 
-5 -2 12 -7.1621 0.0822 
-5 -2 13 -1.5925 -0.2035 
-5 -2 14 -0.8760 0.2116 
-5 -2 15 4.3196 -0.1503 
-5 -2 16 -4.9998 0.1094 
-5 -2 17 -0.3010 0.0451 
-5 -2 18 1.3437 -0.0332 
-5 -2 19 9.4419 -0.0542 
-5 -2 20 -0.1272 0.0067 
-5 -2 21 -0.9863 0.0411 
-5 -2 22 -0.3348 0.0269 
-5 -2 23 3.7298 0.0093 
-5 -2 24 4.5680 0.0401 
-5 -2 25 4.0355 -0.0840 
-5 -1 1 2.5415 -1.3864 
-5 -1 2 -19.3738 -0.2305 
-5 -1 3 0.4330 -0.7223 
-5 -1 4 10.3618 1.4300 
-5 -1 5 18.4625 -0.2282 
-5 -1 6 -18.9353 -0.4152 
-5 -1 7 -1.9110 0.1766 
-5 -1 8 -2.1984 0.1305 
-5 -1 9 -3.1984 -0.0708 
-5 -1 10 2.0426 -0.1777 
-5 -1 11 2.4315 0.0882 
-5 -1 12 -5.1517 -0.0698 
-5 -1 13 -4.5970 -0.0488 
-5 -1 14 6.5582 0.1178 
-5 -1 15 5.7258 -0.0966 
-5 -1 16 3.5381 -0.0509 
-5 -1 17 -2.4482 0.0317 
-5 -1 18 -0.2301 0.1453 
-5 -1 19 -3.1858 -0.1060 
-5 -1 20 -2.5978 0.0155 
-5 -1 21 -3.9708 -0.0362 
-5 -1 22 1.7730 0.0054 
-5 -1 23 1.8082 -0.0638 
-5 -1 24 7.3037 -0.2164 
-5 -1 25 2.8937 0.0047 
-5 0 1 -3.0608 1.1864 
-5 0 2 -7.3756 -1.2625 
-5 0 3 -4.9343 0.8243 
-5 0 4 21.8180 0.5393 
-5 0 5 0.5296 0.1295 
-5 0 6 4.0085 -0.4270 
-5 0 7 -13.8676 -0.3622 
-5 0 8 11.6694 0.7574 
-5 0 9 0.4168 -0.2188 
-5 0 10 5.8676 0.0192 
-5 0 11 3.6232 0.0377 
-5 0 12 -2.8499 -0.0269 
-5 0 13 -10.2298 0.2257 
-5 0 14 1.0907 -0.0386 
-5 0 15 -0.2193 0.0041 
-5 0 16 -2.4737 -0.0333 
-5 0 17 -2.6234 -0.0435 
-5 0 18 3.2055 0.1639 
-5 0 19 0.8339 -0.1603 
-5 0 20 1.2168 -0.0088 
-5 0 21 1.7393 0.0068 
-5 0 22 -0.2088 -0.0703 
-5 0 23 0.3682 -0.0726 
-5 0 24 -4.0940 -0.1245 
-5 0 25 -5.2378 0.1493 
-5 1 1 8.0559 1.6227 
-5 1 2 12.5842 -0.3721 
-5 1 3 -7.1743 0.2318 
-5 1 4 3.8628 -0.5188 
-5 1 5 -6.1693 0.4729 
-5 1 6 -17.2909 -0.4583 
-5 1 7 11.8713 -0.2650 
-5 1 8 0.7563 0.3951 
-5 1 9 -6.7486 -0.1192 
-5 1 10 -5.7293 0.0516 
-5 1 11 5.1109 -0.0344 
-5 1 12 -7.1010 0.1183 
-5 1 13 4.5031 -0.1105 
-5 1 14 4.2541 0.0393 
-5 1 15 8.3251 0.0493 
-5 1 16 -5.6783 -0.0489 
-5 1 17 -4.4259 -0.0316 
-5 1 18 -1.3552 0.0094 
-5 1 19 2.5891 0.0554 
-5 1 20 -3.1922 -0.0473 
-5 1 21 -0.9248 0.0127 
-5 1 22 -0.1980 -0.0295 
-5 1 23 -2.5349 0.0115 
-5 1 24 -1.2042 -0.0009 
-5 1 25 1.8247 0.0882 
-5 2 1 18.8010 0.2988 
-5 2 2 -5.5268 1.2219 
-5 2 3 14.2499 -1.9235 
-5 2 4 -5.5027 0.0337 
-5 2 5 -4.2617 0.5518 
-5 2 6 -5.4268 -0.0147 
-5 2 7 6.1366 -0.2210 
-5 2 8 9.7474 -0.2428 
-5 2 9 -1.1155 0.3734 
-5 2 10 -3.7251 -0.1177 
-5 2 11 7.2545 -0.1100 
-5 2 12 -0.9532 0.0097 
-5 2 13 -9.5592 -0.2148 
-5 2 14 5.5178 0.1738 
-5 2 15 2.2003 -0.0025 
-5 2 16 -5.4314 -0.0741 
-5 2 17 -5.5581 0.0099 
-5 2 18 2.6963 -0.0431 
-5 2 19 2.1173 0.1613 
-5 2 20 4.9528 -0.1123 
-5 2 21 -0.2015 0.0873 
-5 2 22 -2.6679 -0.0548 
-5 2 23 -0.8875 0.0554 
-5 2 24 0.9357 0.0440 
-5 2 25 0.5668 0.0839 
-5 3 1 6.3158 -0.8167 
-5 3 2 11.7587 0.5502 
-5 3 3 -22.9459 -1.0388 
-5 3 4 6.9030 0.5180 
-5 3 5 -0.5972 0.2424 
-5 3 6 -2.5532 0.3802 
-5 3 7 3.9647 -0.4514 
-5 3 8 2.7580 -0.1521 
-5 3 9 -12.2198 0.3853 
-5 3 10 -0.2634 -0.1204 
-5 3 11 1.0688 0.0647 
-5 3 12 4.5696 -0.1734 
-5 3 13 -3.6663 0.0386 
-5 3 14 3.7029 -0.0038 
-5 3 15 -0.3683 0.0849 
-5 3 16 -1.0804 -0.0782 
-5 3 17 1.6371 -0.0127 
-5 3 18 -0.2872 0.0395 
-5 3 19 1.8001 0.1138 
-5 3 20 -1.0985 -0.0539 
-5 3 21 -3.1093 0.0841 
-5 3 22 4.4556 -0.0181 
-5 3 23 0.7195 -0.0011 
-5 3 24 0.4009 0.0233 
-5 3 25 -7.8525 0.0957 
-5 4 1 9.9710 0.2476 
-5 4 2 -9.0493 -0.2143 
-5 4 3 -0.6023 0.8879 
-5 4 4 -1.7319 -0.4741 
-5 4 5 3.8747 0.0652 
-5 4 6 -1.4351 0.3551 
-5 4 7 5.5995 -0.4106 
-5 4 8 6.3247 0.1972 
-5 4 9 -7.6624 -0.0154 
-5 4 10 -7.1225 0.0585 
-5 4 11 12.8000 -0.0672 
-5 4 12 1.1675 -0.1348 
-5 4 13 -10.0171 0.2314 
-5 4 14 -1.7605 -0.2521 
-5 4 15 -2.6254 0.1179 
-5 4 16 1.5008 -0.0419 
-5 4 17 2.5342 0.0248 
-5 4 18 -1.0897 -0.0604 
-5 4 19 2.3310 -0.0281 
-5 4 20 -2.4910 0.0983 
-5 4 21 1.1222 0.0465 
-5 4 22 -3.2494 -0.1006 
-5 4 23 2.7352 -0.0534 
-5 4 24 -3.3323 0.0447 
-5 5 1 2.8050 0.0624 
-5 5 2 -3.5950 0.1039 
-5 5 3 -9.6360 0.8346 
-5 5 4 9.2940 -0.8646 
-5 5 5 9.0127 -0.2300 
-5 5 6 -7.0098 0.2018 
-5 5 7 3.4651 0.3262 
-5 5 8 -0.0757 -0.2009 
-5 5 9 -6.5392 -0.1198 
-5 5 10 0.1648 0.0838 
-5 5 11 14.7333 -0.0029 
-5 5 12 3.8854 0.0576 
-5 5 13 -3.3925 -0.1124 
-5 5 14 -5.1390 -0.0915 
-5 5 15 6.9537 0.0928 
-5 5 16 2.6823 0.0005 
-5 5 17 1.6079 0.0156 
-5 5 18 -5.1782 -0.1415 
-5 5 19 -2.8794 0.0092 
-5 5 20 4.2637 0.1532 
-5 5 21 1.2587 -0.0008 
-5 5 22 5.9593 -0.0557 
-5 5 23 2.0829 -0.0789 
-5 5 24 4.0084 0.0959 
-5 6 1 -7.9380 -0.7065 
-5 6 2 -5.2963 0.5250 
-5 6 3 -4.5591 -0.3704 
-5 6 4 4.9042 -0.1121 
-5 6 5 -0.5838 -0.3175 
-5 6 6 -7.7231 0.1554 
-5 6 7 -0.4605 0.4835 
-5 6 8 9.6056 -0.5321 
-5 6 9 -0.3164 0.1312 
-5 6 10 -0.2971 -0.0439 
-5 6 11 -1.8606 0.0863 
-5 6 12 -4.3440 0.0309 
-5 6 13 -3.9179 -0.1785 
-5 6 14 7.6966 0.1881 
-5 6 15 -8.2082 -0.1010 
-5 6 16 3.5777 0.0888 
-5 6 17 -0.7755 -0.0297 
-5 6 18 -0.1143 -0.0698 
-5 6 19 3.7758 0.0027 
-5 6 20 -5.9025 0.1091 
-5 6 21 -2.5043 0.0227 
-5 6 22 -3.4153 -0.0277 
-5 6 23 1.4989 -0.0171 
-5 7 1 -1.9508 -1.1012 
-5 7 2 1.2099 -0.3261 
-5 7 3 -1.9824 0.1287 
-5 7 4 7.0796 0.3839 
-5 7 5 -3.2427 -0.3753 
-5 7 6 -8.5587 0.0857 
-5 7 7 2.2877 0.1485 
-5 7 8 -0.6872 -0.0496 
-5 7 9 -4.8329 -0.0629 
-5 7 10 2.9380 -0.0345 
-5 7 11 0.6467 0.0230 
-5 7 12 1.5713 -0.1801 
-5 7 13 1.6184 0.1383 
-5 7 14 -3.4249 0.0562 
-5 7 15 5.6435 -0.1086 
-5 7 16 -0.2144 0.0600 
-5 7 17 -1.7997 0.0616 
-5 7 18 -1.9414 0.0606 
-5 7 19 0.9784 -0.1219 
-5 7 20 -0.8488 0.0264 
-5 7 21 -1.7193 0.0403 
-5 7 22 -2.2271 -0.0237 
-5 8 1 2.6090 0.1074 
-5 8 2 -4.6688 -0.7921 
-5 8 3 3.6684 0.8596 
-5 8 4 -1.2110 0.0063 
-5 8 5 0.9383 -0.2187 
-5 8 6 -3.1916 -0.1427 
-5 8 7 2.2453 0.0470 
-5 8 8 -4.5550 0.3487 
-5 8 9 11.9851 -0.2809 
-5 8 10 -2.3226 0.0315 
-5 8 11 1.7608 -0.0699 
-5 8 12 -0.3626 0.0552 
-5 8 13 -3.2432 0.2309 
-5 8 14 -2.2224 -0.1519 
-5 8 15 -6.3272 -0.1042 
-5 8 16 6.6014 0.0581 
-5 8 17 -3.9274 0.1556 
-5 8 18 0.4498 -0.0878 
-5 8 19 0.8730 -0.1612 
-5 8 20 -0.6508 0.0275 
-5 8 21 5.2704 0.0230 
-5 9 1 -2.3907 0.5204 
-5 9 2 3.2846 -0.0846 
-5 9 3 5.8244 0.2902 
-5 9 4 2.7345 -0.2130 
-5 9 5 -0.9201 -0.0558 
-5 9 6 2.6257 -0.2779 
-5 9 7 -7.1844 0.2533 
-5 9 8 2.4062 0.0246 
-5 9 9 1.9444 -0.2584 
-5 9 10 1.6386 0.0375 
-5 9 11 1.3828 0.0047 
-5 9 12 4.9388 0.1994 
-5 9 13 0.6276 -0.0970 
-5 9 14 3.9442 0.0713 
-5 9 15 9.8002 -0.0982 
-5 9 16 -3.7120 0.0737 
-5 9 17 0.3730 0.0108 
-5 9 18 5.9873 -0.1304 
-5 9 19 5.6268 -0.0481 
-5 10 1 -2.1782 0.3280 
-5 10 2 8.7028 0.2076 
-5 10 3 2.8575 -0.6791 
-5 10 4 -3.3896 0.2419 
-5 10 5 1.3942 0.1355 
-5 10 6 2.5089 -0.1332 
-5 10 7 5.3214 0.0258 
-5 10 8 2.2572 -0.1461 
-5 10 9 -1.9839 0.0791 
-5 10 10 -9.1628 -0.0069 
-5 10 11 1.4311 0.0547 
-5 10 12 -4.7069 -0.0611 
-5 10 13 1.6281 -0.0446 
-5 10 14 7.4061 0.1623 
-5 10 15 -4.8095 -0.0709 
-5 10 16 -1.4194 -0.0106 
-5 10 17 1.1333 0.0158 
-5 10 18 1.6311 0.0611 
-5 10 19 3.8846 0.0709 
-5 11 1 -2.1274 0.0403 
-5 11 2 -7.4771 -0.1324 
-5 11 3 -1.3669 -0.3889 
-5 11 4 -0.9031 0.3246 
-5 11 5 4.6416 0.1582 
-5 11 6 -0.9362 -0.0385 
-5 11 7 -4.2597 -0.2885 
-5 11 8 -6.5707 0.1316 
-5 11 9 -1.6560 0.1526 
-5 11 10 -0.5999 -0.0063 
-5 11 11 -7.5885 -0.0426 
-5 11 12 1.3750 -0.1307 
-5 11 13 -2.2179 0.0788 
-5 11 14 2.8519 0.0009 
-5 11 15 -4.8385 0.0241 
-5 11 16 -5.1892 -0.0495 
-5 11 17 0.4715 0.0443 
-5 12 1 -6.7866 0.1698 
-5 12 2 1.8123 -0.1294 
-5 12 3 -3.5589 0.1453 
-5 12 4 1.6355 0.0324 
-5 12 5 -3.6933 0.2560 
-5 12 6 -5.1387 -0.0464 
-5 12 7 1.0843 -0.1719 
-5 12 8 -0.8779 0.2413 
-5 12 9 7.1500 -0.0591 
-5 12 10 -1.3464 -0.0444 
-5 12 11 -2.6747 -0.0450 
-5 12 12 4.2019 0.1282 
-5 12 13 -1.4805 0.0869 
-5 12 14 -0.3071 -0.0040 
-5 13 1 10.7201 0.1169 
-5 13 2 6.4250 0.2672 
-5 13 3 7.2725 0.1031 
-5 13 4 -7.1984 -0.1255 
-5 13 5 2.6008 0.1052 
-5 13 6 9.8812 0.0037 
-5 13 7 1.2205 0.0872 
-5 13 8 -7.0099 -0.1317 
-5 13 9 -2.0931 0.0853 
-5 13 10 -0.7749 0.0826 
-5 13 11 5.4362 0.1503 
-4 -17 1 -0.1679 0.3400 
-4 -16 1 0.7851 -0.3615 
-4 -16 2 -1.2054 0.0381 
-4 -16 3 -1.8690 0.1149 
-4 -16 4 -1.2665 0.3401 
-4 -16 5 1.7046 0.2301 
-4 -16 6 0.6247 0.0607 
-4 -15 1 0.8217 -1.0492 
-4 -15 2 1.1764 0.0953 
-4 -15 3 -3.2507 -0.4004 
-4 -15 4 1.7642 0.6878 
-4 -15 5 0.4358 -0.1850 
-4 -15 6 -2.6559 -0.1987 
-4 -15 7 -1.2869 0.0900 
-4 -15 8 -1.4324 -0.0694 
-4 -15 9 -1.2697 0.1974 
-4 -15 10 -1.0399 0.4585 
-4 -14 1 -2.6082 0.6093 
-4 -14 2 -3.8951 -0.5102 
-4 -14 3 -0.0853 0.2847 
-4 -14 4 3.4219 0.1240 
-4 -14 5 2.0072 0.1542 
-4 -14 6 1.8647 -0.2764 
-4 -14 7 -1.1590 -0.1119 
-4 -14 8 0.1551 0.1172 
-4 -14 9 4.1402 -0.0987 
-4 -14 10 2.4469 0.2145 
-4 -14 11 -0.8675 -0.0544 
-4 -14 12 1.6880 0.2326 
-4 -13 1 -1.1612 1.3056 
-4 -13 2 3.2871 -0.7771 
-4 -13 3 0.1066 0.0550 
-4 -13 4 -0.3529 -0.5235 
-4 -13 5 2.7700 0.3454 
-4 -13 6 0.8076 -0.2680 
-4 -13 7 -1.8627 -0.0342 
-4 -13 8 -2.8721 0.4919 
-4 -13 9 0.6732 -0.1428 
-4 -13 10 -4.9460 -0.0745 
-4 -13 11 -1.7537 0.0888 
-4 -13 12 -1.0899 -0.0997 
-4 -13 13 2.3409 0.0451 
-4 -13 14 2.5707 -0.1781 
-4 -13 15 -0.8110 -0.0754 
-4 -12 1 3.0471 0.3768 
-4 -12 2 -2.9725 0.3282 
-4 -12 3 -0.4380 -1.2865 
-4 -12 4 -1.5590 0.3983 
-4 -12 5 -1.2751 0.4160 
-4 -12 6 -1.2068 -0.0928 
-4 -12 7 -4.9120 -0.3394 
-4 -12 8 -2.3774 -0.0496 
-4 -12 9 5.0279 0.1719 
-4 -12 10 0.2875 -0.3090 
-4 -12 11 2.6309 0.1214 
-4 -12 12 -0.1299 -0.0931 
-4 -12 13 -2.2827 -0.1283 
-4 -12 14 1.8526 0.0518 
-4 -12 15 3.9743 0.0465 
-4 -12 16 -1.2580 -0.2000 
-4 -11 1 3.3988 -1.0854 
-4 -11 2 3.6846 1.0714 
-4 -11 3 2.1157 -1.1149 
-4 -11 4 -0.4006 0.5280 
-4 -11 5 0.7368 0.1930 
-4 -11 6 0.9519 0.1053 
-4 -11 7 3.4247 -0.3572 
-4 -11 8 9.7959 -0.1599 
-4 -11 9 0.4954 0.3621 
-4 -11 10 -0.4076 -0.1619 
-4 -11 11 -1.2388 -0.0988 
-4 -11 12 0.1480 0.0987 
-4 -11 13 -3.6583 -0.0551 
-4 -11 14 0.2487 -0.0089 
-4 -11 15 2.0493 -0.1199 
-4 -11 16 -1.4614 -0.1828 
-4 -11 17 0.8277 0.0013 
-4 -10 1 -2.4605 0.6995 
-4 -10 2 7.4508 0.3309 
-4 -10 3 0.8216 0.6571 
-4 -10 4 1.4064 -0.7394 
-4 -10 5 -3.8173 0.3259 
-4 -10 6 -2.5660 0.2393 
-4 -10 7 -3.3453 -0.3145 
-4 -10 8 1.8069 0.0253 
-4 -10 9 -1.4771 0.0774 
-4 -10 10 -5.3078 0.2124 
-4 -10 11 0.5540 -0.1462 
-4 -10 12 0.0502 -0.0857 
-4 -10 13 -1.4718 0.1305 
-4 -10 14 1.4964 0.0011 
-4 -10 15 -0.7198 0.1362 
-4 -10 16 -1.1074 -0.1462 
-4 -10 17 -2.1772 0.2183 
-4 -10 18 0.9873 0.2615 
-4 -10 19 4.6203 -0.2326 
-4 -9 1 11.1442 0.8036 
-4 -9 2 -3.5330 -0.3955 
-4 -9 3 -6.4097 1.1512 
-4 -9 4 -8.0109 -1.2445 
-4 -9 5 4.4887 -0.0754 
-4 -9 6 -1.5128 0.5128 
-4 -9 7 9.0954 0.0118 
-4 -9 8 -0.9405 -0.0253 
-4 -9 9 -2.9017 -0.0956 
-4 -9 10 -3.2795 0.1801 
-4 -9 11 4.2469 -0.0012 
-4 -9 12 3.0295 -0.1035 
-4 -9 13 -0.5283 0.0507 
-4 -9 14 -0.4021 -0.1958 
-4 -9 15 3.9091 0.1530 
-4 -9 16 -4.3404 0.0451 
-4 -9 17 -0.3067 -0.0213 
-4 -9 18 4.6293 0.1441 
-4 -9 19 4.0461 -0.0213 
-4 -9 20 0.1559 0.0331 
-4 -9 21 5.7829 -0.1475 
-4 -8 1 -3.5013 -1.0406 
-4 -8 2 1.0257 0.7088 
-4 -8 3 -5.5275 -0.5437 
-4 -8 4 0.2747 0.0586 
-4 -8 5 8.1130 -0.4712 
-4 -8 6 1.0713 0.5818 
-4 -8 7 -6.2384 0.3364 
-4 -8 8 4.5437 -0.5467 
-4 -8 9 -2.8118 0.1144 
-4 -8 10 -0.5577 -0.0938 
-4 -8 11 7.5503 0.0541 
-4 -8 12 2.7195 -0.0644 
-4 -8 13 -3.9987 0.0076 
-4 -8 14 -1.9082 0.0395 
-4 -8 15 -0.3385 -0.1602 
-4 -8 16 1.0484 0.0284 
-4 -8 17 -3.3433 0.0563 
-4 -8 18 -1.8434 -0.1607 
-4 -8 19 -4.3768 0.0770 
-4 -8 20 -7.3253 0.0754 
-4 -8 21 -3.0372 -0.0597 
-4 -8 22 -4.1660 -0.0831 
-4 -7 1 6.1555 -2.8722 
-4 -7 2 -6.3591 0.5651 
-4 -7 3 -12.1765 0.0891 
-4 -7 4 14.8314 0.9089 
-4 -7 5 -0.1887 -0.7057 
-4 -7 6 -4.0391 0.0223 
-4 -7 7 -3.8638 0.5298 
-4 -7 8 0.5423 -0.3742 
-4 -7 9 -4.4548 -0.0363 
-4 -7 10 0.1954 -0.0415 
-4 -7 11 -2.6200 0.1474 
-4 -7 12 7.0511 0.0033 
-4 -7 13 -5.5763 -0.1492 
-4 -7 14 -1.1541 0.0486 
-4 -7 15 2.8122 -0.0210 
-4 -7 16 1.7592 -0.0634 
-4 -7 17 -1.0718 0.0776 
-4 -7 18 2.0326 -0.0871 
-4 -7 19 8.6743 0.0552 
-4 -7 20 6.5295 -0.0178 
-4 -7 21 -2.3144 -0.1005 
-4 -7 22 3.2125 0.2759 
-4 -7 23 2.0306 -0.2193 
-4 -6 1 -10.1554 0.2947 
-4 -6 2 -15.7221 -1.1907 
-4 -6 3 3.9886 1.8342 
-4 -6 4 -2.9795 -0.2096 
-4 -6 5 22.8329 -0.4159 
-4 -6 6 -14.0674 -0.3575 
-4 -6 7 -8.0117 0.2282 
-4 -6 8 2.6646 0.2920 
-4 -6 9 3.5600 -0.4051 
-4 -6 10 -11.6504 0.1748 
-4 -6 11 6.6125 -0.0441 
-4 -6 12 -3.2224 0.0579 
-4 -6 13 -4.6359 0.1476 
-4 -6 14 -3.5483 -0.1875 
-4 -6 15 6.4450 0.0476 
-4 -6 16 5.5747 0.0386 
-4 -6 17 -2.4540 0.0711 
-4 -6 18 0.8914 -0.0790 
-4 -6 19 1.8704 -0.1065 
-4 -6 20 -8.5555 0.0704 
-4 -6 21 -2.8221 -0.0000 
-4 -6 22 0.2429 0.0800 
-4 -6 23 1.1973 0.0482 
-4 -6 24 0.4088 0.0142 
-4 -5 1 -3.5600 1.5459 
-4 -5 2 -6.5786 -1.5173 
-4 -5 3 -2.4561 1.0047 
-4 -5 4 26.7941 -0.4613 
-4 -5 5 -7.0627 -0.1597 
-4 -5 6 -18.5575 -0.5184 
-4 -5 7 -10.3980 0.2619 
-4 -5 8 15.8229 0.3816 
-4 -5 9 13.7646 -0.4827 
-4 -5 10 -0.1919 0.0204 
-4 -5 11 -6.4921 0.0485 
-4 -5 13 -6.1393 0.0052 
-4 -5 14 0.8375 0.0354 
-4 -5 15 3.6025 -0.0428 
-4 -5 16 -2.2983 0.0422 
-4 -5 17 -7.8608 -0.0614 
-4 -5 18 -1.4047 0.0537 
-4 -5 19 -2.1932 -0.1320 
-4 -5 20 2.4747 -0.0543 
-4 -5 21 -0.1293 0.0290 
-4 -5 22 1.8552 0.1297 
-4 -5 23 -0.9757 -0.0905 
-4 -5 24 -3.5278 0.1162 
-4 -4 1 -2.4095 0.3356 
-4 -4 2 13.2062 0.4782 
-4 -4 3 1.0742 -1.6894 
-4 -4 4 4.7873 0.9837 
-4 -4 5 -5.2956 0.3158 
-4 -4 6 -20.0811 -0.3818 
-4 -4 7 -5.8181 0.0472 
-4 -4 8 27.2855 -0.0493 
-4 -4 9 -3.5223 0.1146 
-4 -4 10 -7.4079 -0.2260 
-4 -4 11 1.7517 0.0079 
-4 -4 12 4.8175 0.0329 
-4 -4 14 5.3320 0.2520 
-4 -4 15 1.0313 -0.1576 
-4 -4 16 0.1347 0.1090 
-4 -4 17 -1.4226 -0.0614 
-4 -4 18 2.0004 0.0639 
-4 -4 19 3.3493 0.0590 
-4 -4 20 -0.8609 -0.1282 
-4 -4 21 1.1383 -0.0054 
-4 -4 22 1.1734 0.1255 
-4 -4 23 -1.1000 -0.1931 
-4 -4 24 -3.5739 -0.1912 
-4 -4 25 1.7644 0.1672 
-4 -3 1 31.2538 -0.7988 
-4 -3 2 1.5735 0.3488 
-4 -3 3 -1.0884 -1.3648 
-4 -3 4 7.4329 1.5198 
-4 -3 5 -0.6175 0.4799 
-4 -3 6 -4.8809 -0.3444 
-4 -3 7 11.6363 -0.3337 
-4 -3 8 3.0309 0.1441 
-4 -3 9 6.4539 0.2460 
-4 -3 10 -26.5802 -0.1812 
-4 -3 11 2.6220 -0.1041 
-4 -3 12 2.6831 0.0105 
-4 -3 15 3.7613 -0.0392 
-4 -3 16 -4.4463 -0.0192 
-4 -3 17 -2.2742 -0.0173 
-4 -3 18 -6.4151 -0.0050 
-4 -3 19 -0.2256 0.0235 
-4 -3 20 -3.7888 -0.0171 
-4 -3 21 -2.3169 -0.0030 
-4 -3 22 -0.2819 -0.0420 
-4 -3 23 -1.4232 -0.0636 
-4 -3 24 -2.4438 0.0090 
-4 -3 25 1.0877 -0.0966 
-4 -2 1 3.7713 1.9628 
-4 -2 2 12.4397 -0.7020 
-4 -2 3 -21.8082 0.1949 
-4 -2 4 -16.3376 -0.3954 
-4 -2 5 7.4231 0.7883 
-4 -2 6 -4.0699 -0.1137 
-4 -2 7 2.6094 -0.7805 
-4 -2 8 13.2671 0.4933 
-4 -2 9 -14.0408 -0.0011 
-4 -2 10 -7.8168 0.1899 
-4 -2 11 -0.4128 -0.1879 
-4 -2 12 10.2401 0.0277 
-4 -2 13 -3.0045 0.1548 
-4 -2 14 -0.5823 -0.1882 
-4 -2 15 0.9637 0.0466 
-4 -2 16 3.3477 -0.0546 
-4 -2 17 -3.4730 0.0040 
-4 -2 18 6.0434 0.0307 
-4 -2 19 6.3520 0.0020 
-4 -2 20 7.2462 0.0540 
-4 -2 21 -0.4447 0.0084 
-4 -2 22 0.2497 -0.1165 
-4 -2 23 1.8267 -0.0219 
-4 -2 24 4.3616 0.0870 
-4 -2 25 0.1828 0.1922 
-4 -2 26 2.1369 -0.2107 
-4 -1 1 32.0640 1.9326 
-4 -1 2 8.0710 0.0218 
-4 -1 3 -28.0988 0.2025 
-4 -1 4 6.2320 -1.2020 
-4 -1 5 -2.1644 0.6140 
-4 -1 6 21.3349 0.1446 
-4 -1 7 -8.3554 -0.3283 
-4 -1 8 3.0074 0.1326 
-4 -1 9 -4.3930 -0.0477 
-4 -1 10 -5.0960 0.2076 
-4 -1 11 10.3101 0.0159 
-4 -1 12 14.2076 -0.0058 
-4 -1 13 -10.0590 -0.0600 
-4 -1 14 -0.4972 0.0318 
-4 -1 15 3.6026 0.1301 
-4 -1 16 1.9502 0.0481 
-4 -1 17 -4.7207 -0.1450 
-4 -1 18 1.4325 -0.0091 
-4 -1 19 -0.4103 0.1132 
-4 -1 20 -2.0720 -0.0121 
-4 -1 21 -3.1598 -0.0375 
-4 -1 22 -2.7960 -0.1363 
-4 -1 23 -3.2998 0.1677 
-4 -1 24 -0.3484 0.0465 
-4 -1 25 2.7685 0.0258 
-4 -1 26 -2.8327 -0.0331 
-4 0 1 9.4180 -0.4338 
-4 0 2 -10.1453 1.6306 
-4 0 3 -25.7453 -1.5059 
-4 0 4 0.9639 0.0571 
-4 0 5 43.5372 0.1034 
-4 0 6 -10.3914 0.4934 
-4 0 7 -3.4111 -0.0684 
-4 0 8 -9.9209 -0.6072 
-4 0 9 -0.7606 0.4062 
-4 0 10 -7.0931 0.0604 
-4 0 11 12.9828 -0.0054 
-4 0 12 -4.8019 -0.1001 
-4 0 13 -7.1937 -0.1762 
-4 0 14 -15.1894 0.2058 
-4 0 15 5.2152 -0.0607 
-4 0 16 2.2711 -0.0166 
-4 0 17 2.6022 -0.0466 
-4 0 18 -2.9533 -0.0243 
-4 0 19 -0.3245 0.1419 
-4 0 20 -4.3938 -0.0777 
-4 0 21 0.7315 0.0182 
-4 0 22 1.7130 -0.1202 
-4 0 23 3.0691 0.0851 
-4 0 24 -0.8805 0.0453 
-4 0 25 -2.3889 -0.1405 
-4 0 26 2.5905 -0.1467 
-4 1 1 10.2682 -2.5590 
-4 1 2 -19.9478 0.5860 
-4 1 3 6.6673 -0.2826 
-4 1 4 -0.8630 0.4197 
-4 1 5 0.4703 -0.3819 
-4 1 6 -5.8213 0.5166 
-4 1 7 -7.0964 -0.0120 
-4 1 8 9.0496 -0.3997 
-4 1 9 1.4124 0.2210 
-4 1 10 -5.5219 0.0226 
-4 1 11 3.9289 0.0788 
-4 1 12 5.6342 -0.1387 
-4 1 13 -11.8857 0.0121 
-4 1 14 2.9509 -0.0588 
-4 1 15 5.1976 0.0185 
-4 1 16 2.5011 -0.0591 
-4 1 17 -6.4428 0.0718 
-4 1 18 -0.4845 -0.0437 
-4 1 19 -2.4201 0.0098 
-4 1 20 1.8758 -0.0207 
-4 1 21 4.2491 0.0331 
-4 1 22 3.2386 -0.0526 
-4 1 23 -1.7050 0.0247 
-4 1 24 -2.5600 0.0152 
-4 1 25 -3.0681 -0.0558 
-4 1 26 1.1035 -0.1342 
-4 2 1 -31.5363 -0.5206 
-4 2 2 32.8123 -0.6261 
-4 2 3 -4.5691 1.8614 
-4 2 4 23.6521 -0.7731 
-4 2 5 -4.0378 -0.4132 
-4 2 6 -10.1011 0.0909 
-4 2 7 1.2918 0.1186 
-4 2 8 11.7826 0.1484 
-4 2 9 -0.5617 -0.2189 
-4 2 10 2.9301 0.0954 
-4 2 11 -2.5693 0.1134 
-4 2 12 7.6849 -0.0236 
-4 2 13 -5.1626 0.2226 
-4 2 14 5.1642 -0.2178 
-4 2 15 6.6500 0.1243 
-4 2 16 -0.2586 0.0307 
-4 2 17 -3.9935 0.1306 
-4 2 18 -1.1933 -0.0702 
-4 2 19 2.5198 -0.0730 
-4 2 20 -1.1693 0.0841 
-4 2 21 -3.6066 0.0238 
-4 2 22 1.8066 -0.0226 
-4 2 23 -3.6532 -0.0002 
-4 2 24 1.1768 0.0323 
-4 2 25 2.3503 -0.0116 
-4 2 26 3.2391 -0.0492 
-4 3 1 10.6785 -0.0864 
-4 3 2 -4.1877 -0.2431 
-4 3 3 10.9641 1.4476 
-4 3 4 -12.8673 -0.9188 
-4 3 5 0.9437 -0.6811 
-4 3 6 -2.4843 -0.2477 
-4 3 7 -8.2359 0.7298 
-4 3 8 3.3398 -0.2105 
-4 3 9 10.1522 -0.3222 
-4 3 10 -17.1816 -0.0319 
-4 3 11 6.1284 0.1742 
-4 3 12 -3.9780 0.1008 
-4 3 13 -0.8464 -0.1118 
-4 3 14 -1.7882 -0.0701 
-4 3 15 3.7574 0.0391 
-4 3 16 -4.8542 0.0530 
-4 3 17 -0.7222 0.0015 
-4 3 18 -1.2742 -0.0234 
-4 3 19 2.7892 0.0274 
-4 3 20 2.4479 0.0139 
-4 3 21 3.6671 0.0093 
-4 3 22 -0.8355 0.0706 
-4 3 23 0.9478 -0.0002 
-4 3 24 -6.1119 0.0352 
-4 3 25 -3.6288 -0.1534 
-4 3 26 1.9133 0.0574 
-4 4 1 9.4252 -0.7810 
-4 4 2 22.7813 0.4898 
-4 4 3 -7.8012 -0.5673 
-4 4 4 -8.8904 0.4648 
-4 4 5 1.5273 -0.4893 
-4 4 6 -5.6445 -0.0458 
-4 4 7 8.6117 0.4849 
-4 4 8 14.0799 -0.3668 
-4 4 9 -1.4975 0.1498 
-4 4 10 -10.2097 -0.1597 
-4 4 11 -8.9977 0.0053 
-4 4 12 7.1205 0.0442 
-4 4 13 0.6055 -0.1476 
-4 4 14 0.0643 0.1106 
-4 4 15 -2.2524 -0.1470 
-4 4 16 1.8600 -0.0438 
-4 4 17 2.3697 0.0099 
-4 4 18 5.9231 0.0336 
-4 4 19 2.1773 -0.0095 
-4 4 20 -2.5234 -0.0663 
-4 4 21 -3.5707 0.0161 
-4 4 22 3.8191 0.2360 
-4 4 23 1.0773 -0.0843 
-4 4 24 3.9034 -0.0582 
-4 4 25 5.1532 -0.0708 
-4 5 1 8.2742 -1.1011 
-4 5 2 3.1198 -0.4241 
-4 5 3 -13.4936 -0.2741 
-4 5 4 -3.4152 0.9501 
-4 5 5 6.4110 -0.0744 
-4 5 6 4.3109 -0.1944 
-4 5 7 -7.3229 -0.0563 
-4 5 8 10.3997 0.2399 
-4 5 9 -7.6152 0.1362 
-4 5 10 -5.5702 -0.1865 
-4 5 11 5.8290 -0.0879 
-4 5 13 0.6403 0.1552 
-4 5 14 -1.8702 -0.0635 
-4 5 15 -6.0876 -0.0888 
-4 5 16 -0.2769 0.0089 
-4 5 17 4.5740 0.0346 
-4 5 18 -6.0671 0.1117 
-4 5 19 1.7078 -0.0496 
-4 5 20 -2.4971 -0.0340 
-4 5 21 3.4144 -0.0262 
-4 5 22 -0.3713 0.1895 
-4 5 23 4.5543 -0.0038 
-4 5 24 -0.4819 -0.1463 
-4 5 25 2.7301 -0.0374 
-4 6 1 12.6113 1.0667 
-4 6 2 -0.8318 -0.8973 
-4 6 3 -10.2896 0.4880 
-4 6 4 -2.6156 -0.0671 
-4 6 5 10.4282 0.1091 
-4 6 6 -5.4642 -0.4160 
-4 6 7 -1.9119 -0.1957 
-4 6 8 -3.1781 0.5879 
-4 6 9 2.5791 -0.1264 
-4 6 10 -3.0892 -0.1713 
-4 6 11 3.3203 -0.1759 
-4 6 12 -5.1724 0.2141 
-4 6 13 -0.5791 0.0999 
-4 6 14 -8.8808 -0.1682 
-4 6 15 -1.7243 -0.0036 
-4 6 16 2.4439 0.0520 
-4 6 17 2.0055 0.0372 
-4 6 18 1.0080 0.0835 
-4 6 19 -2.9175 -0.0872 
-4 6 20 -0.9923 -0.0591 
-4 6 21 -2.6930 0.0849 
-4 6 22 1.7157 0.0491 
-4 6 23 -2.8664 0.0109 
-4 6 24 -4.3812 -0.0600 
-4 7 1 2.1254 1.6270 
-4 7 2 -1.9797 -0.0852 
-4 7 3 -7.1632 -0.1609 
-4 7 4 -2.3479 -0.3889 
-4 7 5 9.9264 0.2930 
-4 7 6 -3.9643 -0.1785 
-4 7 7 3.2329 -0.0882 
-4 7 8 -10.8394 0.1754 
-4 7 9 3.7213 -0.1426 
-4 7 10 7.8460 -0.0409 
-4 7 11 0.2118 0.0446 
-4 7 12 0.5681 0.1647 
-4 7 13 -3.6859 -0.2511 
-4 7 14 5.6991 0.0453 
-4 7 15 -1.2479 0.1262 
-4 7 16 3.5803 -0.0149 
-4 7 17 0.6277 -0.1310 
-4 7 18 -4.6965 0.0122 
-4 7 19 3.4512 0.1148 
-4 7 20 -5.8853 -0.1262 
-4 7 21 -3.6861 -0.0500 
-4 7 22 2.5140 -0.0083 
-4 7 23 -5.9994 0.0901 
-4 7 24 1.3803 -0.0700 
-4 8 1 0.2148 0.8390 
-4 8 2 -1.6863 0.6095 
-4 8 3 -5.3488 -1.2718 
-4 8 4 6.7711 0.2320 
-4 8 5 3.4677 0.5187 
-4 8 6 7.0534 0.2120 
-4 8 7 -11.9063 -0.3384 
-4 8 8 -0.9881 -0.1203 
-4 8 9 1.3354 0.2288 
-4 8 10 3.8289 0.0686 
-4 8 11 -3.3801 -0.0700 
-4 8 12 5.0274 -0.0846 
-4 8 13 -0.6315 -0.1316 
-4 8 14 -5.3939 0.1939 
-4 8 15 0.9243 0.0166 
-4 8 16 -3.2531 -0.0586 
-4 8 17 -0.3046 -0.0826 
-4 8 18 5.4491 0.0984 
-4 8 19 -0.6183 0.0997 
-4 8 20 4.2115 -0.0441 
-4 8 21 6.3345 -0.1248 
-4 8 22 2.7317 0.1270 
-4 8 23 6.5142 0.0125 
-4 9 1 -1.1543 -0.2464 
-4 9 2 1.0593 0.0523 
-4 9 3 0.1306 -0.5540 
-4 9 4 -3.2875 0.3221 
-4 9 5 3.3013 0.3196 
-4 9 6 -4.5036 0.1540 
-4 9 7 -4.8433 -0.3602 
-4 9 8 -1.4700 0.1206 
-4 9 9 11.1299 0.2114 
-4 9 10 -2.7790 -0.0309 
-4 9 11 0.2618 -0.0508 
-4 9 12 2.8911 -0.0901 
-4 9 13 -2.5535 0.0333 
-4 9 14 11.7507 0.0510 
-4 9 15 0.8987 0.0261 
-4 9 16 -0.2771 -0.0444 
-4 9 17 1.0865 0.0333 
-4 9 18 -0.6616 0.0750 
-4 9 19 9.6958 -0.0640 
-4 9 20 -4.0491 -0.0532 
-4 9 21 -3.2225 -0.0589 
-4 9 22 -3.9557 0.0049 
-4 10 1 9.2012 0.0788 
-4 10 2 4.7177 -0.0701 
-4 10 3 0.9102 0.3787 
-4 10 4 2.9186 -0.2545 
-4 10 5 4.7525 0.0642 
-4 10 6 -1.8201 0.0444 
-4 10 7 -1.3217 -0.1541 
-4 10 8 4.3446 0.1710 
-4 10 9 0.3733 -0.1108 
-4 10 10 -9.7091 -0.0443 
-4 10 11 -0.6865 0.0532 
-4 10 12 1.4751 0.0116 
-4 10 13 -2.1283 0.0229 
-4 10 14 -1.3391 -0.0992 
-4 10 15 1.6915 0.1043 
-4 10 16 -8.2990 0.0230 
-4 10 17 2.3631 0.0567 
-4 10 18 4.5380 -0.1601 
-4 10 19 -3.2237 0.0577 
-4 10 20 1.9880 0.0397 
-4 11 2 -3.4065 0.2187 
-4 11 3 -1.6984 0.4049 
-4 11 4 -1.9540 -0.4220 
-4 11 5 4.0858 -0.0164 
-4 11 6 -0.2825 0.1922 
-4 11 7 1.6283 0.2070 
-4 11 8 1.4203 -0.2347 
-4 11 9 -3.9167 -0.1684 
-4 11 10 -0.3990 0.1690 
-4 11 11 -2.4845 0.1538 
-4 11 12 -0.0934 0.0158 
-4 11 13 -6.8405 -0.1416 
-4 11 14 4.8985 0.0454 
-4 11 15 4.3802 0.1351 
-4 11 16 2.4544 0.0549 
-4 11 17 -0.7121 -0.1495 
-4 11 18 -2.3945 -0.0639 
-4 11 19 -0.1577 0.0655 
-4 12 1 -2.6862 -0.3881 
-4 12 2 -5.3217 0.2823 
-4 12 3 -1.8945 -0.0236 
-4 12 4 -6.8405 0.0244 
-4 12 5 -7.7177 -0.0011 
-4 12 6 -2.5917 0.1424 
-4 12 7 -0.7826 0.1502 
-4 12 8 -5.2975 -0.2752 
-4 12 9 1.2817 0.1373 
-4 12 10 -0.7559 0.1485 
-4 12 11 -0.4548 -0.0248 
-4 12 12 4.4925 -0.0890 
-4 12 13 -4.0799 0.0464 
-4 12 14 -1.5021 0.0870 
-4 12 15 8.1903 -0.0765 
-4 12 16 -4.4309 -0.0848 
-4 12 17 -1.0418 -0.0347 
-4 13 1 -2.3013 -0.6243 
-4 13 2 14.9593 -0.2071 
-4 13 3 6.0657 0.2364 
-4 13 4 1.6681 0.2108 
-4 13 5 -0.8852 -0.2143 
-4 13 6 12.7602 0.0428 
-4 13 7 2.8872 -0.0218 
-4 13 8 -5.5933 -0.0862 
-4 13 9 1.9014 0.0869 
-4 13 10 0.8190 0.0529 
-4 13 11 -0.2758 -0.0333 
-4 13 12 3.1898 -0.1023 
-4 13 13 -0.8371 0.2083 
-4 13 14 -0.0463 -0.0891 
-4 14 1 -0.7036 -0.4285 
-4 14 2 -2.7942 -0.2281 
-4 14 3 2.9426 0.4519 
-4 14 4 -5.4797 -0.0263 
-4 14 5 -1.3753 -0.1519 
-4 14 6 3.6055 -0.1960 
-4 14 7 -3.0857 0.0416 
-4 14 8 2.2808 0.0944 
-4 14 9 0.7341 0.0729 
-4 14 10 -4.4116 -0.0697 
-3 -17 1 -3.7220 -0.8893 
-3 -16 1 -2.6183 0.8779 
-3 -16 2 5.7549 -0.1593 
-3 -16 3 0.0778 -0.2005 
-3 -16 4 1.0330 -0.0217 
-3 -16 5 3.1683 -0.1602 
-3 -16 6 0.5007 -0.2220 
-3 -15 1 2.8132 1.1352 
-3 -15 2 2.0963 -0.4240 
-3 -15 3 -0.2548 0.1630 
-3 -15 4 -3.7526 -0.4741 
-3 -15 5 -5.6396 0.2946 
-3 -15 6 -1.2375 0.0714 
-3 -15 7 -0.3227 0.0002 
-3 -15 8 -2.0983 -0.0360 
-3 -15 9 0.4568 0.0015 
-3 -15 10 0.1801 -0.0850 
-3 -14 1 -0.4280 -0.1943 
-3 -14 2 1.3040 0.4132 
-3 -14 3 -1.3744 -0.6506 
-3 -14 4 -0.6664 -0.0826 
-3 -14 5 6.1673 0.1800 
-3 -14 6 -0.7032 0.2406 
-3 -14 7 0.8967 -0.0281 
-3 -14 8 -1.5664 -0.0273 
-3 -14 9 2.8038 0.0772 
-3 -14 10 -0.4498 0.1363 
-3 -14 11 2.4575 0.1708 
-3 -14 12 0.1441 -0.3548 
-3 -14 13 0.9727 0.1318 
-3 -13 1 2.0084 -1.4862 
-3 -13 2 -0.4906 0.9069 
-3 -13 3 -4.8484 -0.3396 
-3 -13 4 -4.2117 0.4488 
-3 -13 5 1.2316 -0.2078 
-3 -13 6 3.9420 0.1238 
-3 -13 7 -1.6957 0.0234 
-3 -13 8 -2.9199 -0.3394 
-3 -13 9 -0.1402 0.0684 
-3 -13 10 -2.9444 -0.0033 
-3 -13 11 -2.1368 -0.0839 
-3 -13 12 1.8093 0.0599 
-3 -13 13 -1.3352 -0.2447 
-3 -13 14 0.2287 0.3199 
-3 -13 15 -0.0483 0.0148 
-3 -12 1 -2.9290 0.0227 
-3 -12 2 -0.2974 0.1029 
-3 -12 3 -2.4635 0.7703 
-3 -12 4 3.4971 -0.8046 
-3 -12 5 3.7880 -0.2102 
-3 -12 6 2.2488 -0.0032 
-3 -12 7 -4.3993 0.0756 
-3 -12 8 0.8273 0.0294 
-3 -12 9 -1.5109 -0.0151 
-3 -12 10 1.8475 0.1658 
-3 -12 11 2.8061 -0.2774 
-3 -12 12 -0.6487 0.0905 
-3 -12 13 -3.8958 0.0535 
-3 -12 14 -0.5555 -0.1175 
-3 -12 15 3.7719 -0.2324 
-3 -12 16 2.1108 0.0413 
-3 -12 17 -1.8477 0.0976 
-3 -11 1 -2.6071 0.2043 
-3 -11 2 -3.2395 -0.8363 
-3 -11 3 0.0995 1.2203 
-3 -11 4 2.2627 -0.9237 
-3 -11 5 1.3222 -0.3394 
-3 -11 6 -2.0369 0.0531 
-3 -11 7 -0.1268 0.2623 
-3 -11 8 2.2553 0.0431 
-3 -11 9 2.9665 -0.3461 
-3 -11 10 -1.2612 0.1120 
-3 -11 11 2.4388 0.1100 
-3 -11 12 0.2053 -0.1846 
-3 -11 13 -6.0002 0.1793 
-3 -11 14 -1.4258 -0.1160 
-3 -11 15 -0.7937 0.1979 
-3 -11 16 1.3666 0.0865 
-3 -11 17 1.6656 -0.2097 
-3 -11 18 2.1902 0.0949 
-3 -10 1 -2.4079 -0.8520 
-3 -10 2 5.9361 0.1293 
-3 -10 3 6.6668 -0.2179 
-3 -10 4 1.6632 0.7149 
-3 -10 5 1.1197 -0.5799 
-3 -10 6 -11.6720 0.1335 
-3 -10 7 1.6817 0.4025 
-3 -10 8 4.6255 -0.2427 
-3 -10 9 3.6271 0.1026 
-3 -10 10 -3.7077 -0.2321 
-3 -10 11 -2.1312 0.2261 
-3 -10 12 -0.3743 -0.1018 
-3 -10 13 2.4568 0.0775 
-3 -10 14 -0.7885 -0.0720 
-3 -10 15 6.1860 -0.0847 
-3 -10 16 0.4866 0.1208 
-3 -10 17 -1.3293 -0.0383 
-3 -10 18 -2.6991 -0.0765 
-3 -10 19 2.4470 0.2033 
-3 -10 20 2.5301 -0.1612 
-3 -9 1 -4.9719 -2.1716 
-3 -9 2 4.2708 0.2440 
-3 -9 3 2.9660 -0.2306 
-3 -9 4 -3.7828 1.4008 
-3 -9 5 -6.1414 -0.3797 
-3 -9 6 0.8298 -0.4256 
-3 -9 7 -4.8629 0.3918 
-3 -9 8 6.3738 -0.1217 
-3 -9 9 -0.1775 0.1326 
-3 -9 10 -1.9285 -0.1943 
-3 -9 11 -0.7433 0.0867 
-3 -9 12 4.7779 0.0605 
-3 -9 13 -2.1646 -0.0787 
-3 -9 14 2.1456 0.0776 
-3 -9 15 -0.2254 -0.0970 
-3 -9 16 1.2427 -0.1143 
-3 -9 17 -6.5415 0.2600 
-3 -9 18 0.6348 0.0312 
-3 -9 19 6.4814 0.0391 
-3 -9 20 1.5366 -0.1100 
-3 -9 21 -1.0518 0.1344 
-3 -8 1 3.8283 1.4874 
-3 -8 2 10.1185 -1.0023 
-3 -8 3 -9.3936 0.6891 
-3 -8 4 2.2302 -0.2001 
-3 -8 5 -2.3743 0.1981 
-3 -8 6 0.7741 -0.6349 
-3 -8 7 6.1294 -0.0444 
-3 -8 8 4.7766 0.5229 
-3 -8 9 -3.2544 -0.1671 
-3 -8 10 -6.1201 -0.0130 
-3 -8 11 -1.0322 -0.1646 
-3 -8 12 5.9162 0.2411 
-3 -8 13 -1.5535 0.0018 
-3 -8 14 -5.6985 -0.2031 
-3 -8 15 1.2009 0.0732 
-3 -8 16 0.3140 -0.0398 
-3 -8 17 -2.7284 -0.0460 
-3 -8 18 -3.2837 0.0868 
-3 -8 19 1.4331 -0.0913 
-3 -8 20 0.8910 0.1100 
-3 -8 21 -3.4667 -0.2271 
-3 -8 22 0.8865 0.2358 
-3 -7 1 14.2891 2.6111 
-3 -7 2 -4.0141 -1.2991 
-3 -7 3 8.9892 0.0839 
-3 -7 4 -22.0167 -0.5876 
-3 -7 5 9.9639 0.3892 
-3 -7 6 0.7241 -0.1852 
-3 -7 7 -2.8333 -0.3079 
-3 -7 8 -1.1007 0.4956 
-3 -7 9 -3.5483 -0.2162 
-3 -7 10 -12.4693 -0.0146 
-3 -7 12 5.3214 -0.0042 
-3 -7 13 3.4511 0.0517 
-3 -7 14 -3.1820 -0.0551 
-3 -7 15 0.5909 0.0458 
-3 -7 16 5.1207 0.0501 
-3 -7 17 -0.1346 -0.1391 
-3 -7 18 -4.1810 0.1668 
-3 -7 19 8.3758 -0.1139 
-3 -7 20 -2.2696 0.0656 
-3 -7 21 -1.2676 -0.0641 
-3 -7 22 -0.7318 0.1118 
-3 -7 23 3.4462 -0.1270 
-3 -6 1 15.3988 0.7420 
-3 -6 2 0.7194 0.7332 
-3 -6 3 -35.3179 -2.1841 
-3 -6 4 3.4171 0.7171 
-3 -6 5 6.5547 0.6464 
-3 -6 6 14.2635 0.2494 
-3 -6 7 -7.3999 -0.4645 
-3 -6 8 -7.0153 -0.0665 
-3 -6 9 -0.6301 0.2981 
-3 -6 10 3.0589 -0.1793 
-3 -6 13 -2.0768 -0.1429 
-3 -6 14 -8.9715 0.2330 
-3 -6 15 -0.6217 -0.1090 
-3 -6 16 8.4919 -0.0007 
-3 -6 17 -0.8873 0.0053 
-3 -6 18 0.3694 -0.0004 
-3 -6 19 -1.8065 -0.0912 
-3 -6 20 -1.3997 -0.0273 
-3 -6 21 -3.9653 0.0454 
-3 -6 22 2.4974 0.0316 
-3 -6 23 -3.6308 -0.1157 
-3 -6 24 -5.3403 0.0561 
-3 -5 1 -14.0730 -1.3588 
-3 -5 2 -3.1914 1.0746 
-3 -5 3 -9.1543 -1.3666 
-3 -5 4 -3.2382 0.7624 
-3 -5 5 27.0310 0.5559 
-3 -5 6 0.8185 0.1995 
-3 -5 7 -28.5874 -0.4683 
-3 -5 8 1.9155 -0.1641 
-3 -5 9 7.3710 0.3196 
-3 -5 10 7.5924 -0.0290 
-3 -5 11 1.5089 -0.0798 
-3 -5 14 -1.6704 0.0478 
-3 -5 15 -0.5716 -0.0340 
-3 -5 16 2.3920 0.0106 
-3 -5 17 -3.7661 0.0807 
-3 -5 18 -5.6629 -0.1167 
-3 -5 19 -0.2872 0.1216 
-3 -5 20 0.3082 -0.0047 
-3 -5 21 4.7972 -0.0748 
-3 -5 22 2.3274 -0.0893 
-3 -5 23 -2.6243 -0.0413 
-3 -5 24 0.7581 -0.0600 
-3 -5 25 5.7689 -0.0621 
-3 -4 1 24.7339 1.4643 
-3 -4 2 -3.4536 -0.1128 
-3 -4 3 -14.9145 0.8930 
-3 -4 4 6.9295 -1.1667 
-3 -4 5 11.1653 0.4100 
-3 -4 6 -12.5913 0.1035 
-3 -4 7 -1.1415 -0.3905 
-3 -4 8 -12.3962 0.0939 
-3 -4 9 28.6401 -0.2391 
-3 -4 10 3.8211 0.1819 
-3 -4 11 2.0496 -0.0615 
-3 -4 15 9.2628 0.1539 
-3 -4 16 -2.1280 -0.0445 
-3 -4 17 -0.1362 0.0573 
-3 -4 18 -1.7450 -0.1199 
-3 -4 19 0.7685 0.0206 
-3 -4 20 0.0776 0.0685 
-3 -4 21 -2.0585 -0.0396 
-3 -4 22 -2.3542 -0.0851 
-3 -4 23 2.9010 0.0792 
-3 -4 24 -1.9553 0.1209 
-3 -4 25 2.3336 0.0488 
-3 -3 1 -5.5432 1.1605 
-3 -3 2 30.2732 0.1189 
-3 -3 3 -3.7850 1.0617 
-3 -3 4 4.9499 -1.4433 
-3 -3 5 17.3940 -0.0187 
-3 -3 6 7.1131 0.5255 
-3 -3 7 -28.8314 0.0365 
-3 -3 8 4.9681 -0.1786 
-3 -3 9 2.0342 -0.4638 
-3 -3 10 0.3618 0.2156 
-3 -3 11 -17.7605 0.1560 
-3 -3 12 -4.1838 -0.1436 
-3 -3 13 -1.8487 -0.0780 
-3 -3 14 2.8705 -0.0323 
-3 -3 15 -7.0188 0.1367 
-3 -3 16 6.4890 0.0753 
-3 -3 17 -6.1253 -0.1095 
-3 -3 18 1.0463 -0.0827 
-3 -3 19 1.0307 0.1174 
-3 -3 20 2.7370 0.0457 
-3 -3 21 -2.7584 -0.0221 
-3 -3 22 2.3520 -0.0642 
-3 -3 23 -2.7758 0.0822 
-3 -3 24 2.7887 -0.1319 
-3 -3 25 -2.3325 0.0228 
-3 -3 26 0.3182 -0.0638 
-3 -2 1 -21.3985 -1.8951 
-3 -2 2 20.3689 1.5332 
-3 -2 3 -3.1567 -0.5890 
-3 -2 4 5.5364 0.3296 
-3 -2 5 -10.8983 -0.4410 
-3 -2 6 0.1907 0.9354 
-3 -2 7 -7.5497 0.3169 
-3 -2 8 7.1870 -0.5757 
-3 -2 9 23.0715 0.1438 
-3 -2 10 -4.3141 0.1106 
-3 -2 11 -20.2796 0.1074 
-3 -2 12 2.9977 -0.1368 
-3 -2 13 6.3384 0.0168 
-3 -2 14 2.6115 0.1697 
-3 -2 15 1.4023 -0.0868 
-3 -2 16 -4.7416 -0.0179 
-3 -2 17 -2.8368 0.0322 
-3 -2 18 2.2602 -0.0687 
-3 -2 19 2.6524 0.0084 
-3 -2 20 0.3067 -0.0347 
-3 -2 21 1.0982 0.0519 
-3 -2 22 -2.4021 -0.0478 
-3 -2 23 1.0355 -0.0452 
-3 -2 24 -1.2299 -0.0313 
-3 -2 25 -1.6897 0.0028 
-3 -2 26 -2.0260 -0.0449 
-3 -1 1 31.3549 -3.5608 
-3 -1 2 31.5476 0.4374 
-3 -1 3 -8.2641 0.2388 
-3 -1 4 -45.6837 0.9258 
-3 -1 5 15.8746 -0.8265 
-3 -1 6 -9.2870 -0.0267 
-3 -1 7 7.9253 0.4162 
-3 -1 8 3.9660 -0.2265 
-3 -1 9 12.4967 0.0880 
-3 -1 10 -15.8158 -0.1168 
-3 -1 11 -0.3784 0.1377 
-3 -1 12 2.2240 0.1213 
-3 -1 13 18.1658 0.0361 
-3 -1 14 -2.5185 -0.0060 
-3 -1 15 -0.7985 -0.0554 
-3 -1 16 -6.0278 -0.0667 
-3 -1 17 1.6166 0.0798 
-3 -1 18 2.7350 -0.0821 
-3 -1 19 3.6856 0.0332 
-3 -1 20 -4.0647 -0.0437 
-3 -1 21 -0.2249 0.1119 
-3 -1 22 -2.0070 0.0705 
-3 -1 23 -0.8344 -0.1335 
-3 -1 24 0.0747 0.1006 
-3 -1 25 3.4121 0.1435 
-3 -1 26 1.5364 -0.0521 
-3 -1 27 -0.3775 -0.0601 
-3 0 1 45.2391 0.5436 
-3 0 2 -2.3022 -1.4205 
-3 0 3 -16.0866 2.0778 
-3 0 4 -3.8028 -0.5684 
-3 0 5 9.2531 -0.4113 
-3 0 6 29.6113 -0.6623 
-3 0 7 -13.8980 0.2455 
-3 0 8 -1.5660 0.2833 
-3 0 9 -1.7773 -0.2459 
-3 0 10 -11.2731 -0.1186 
-3 0 11 -7.2504 0.0196 
-3 0 12 24.4526 0.1790 
-3 0 13 -6.5607 0.1453 
-3 0 14 -9.0328 -0.3214 
-3 0 15 -11.2500 0.0084 
-3 0 16 6.2726 0.0075 
-3 0 17 2.8757 0.0488 
-3 0 18 1.2419 0.0246 
-3 0 19 -3.8343 -0.0328 
-3 0 20 -4.7829 -0.0004 
-3 0 21 -0.8669 0.0396 
-3 0 22 2.7239 0.0877 
-3 0 23 0.3184 -0.0382 
-3 0 24 -0.4772 -0.0116 
-3 0 25 -3.2493 0.1401 
-3 0 26 -0.0594 -0.0085 
-3 0 27 -1.0148 -0.1313 
-3 1 1 -36.9090 1.0193 
-3 1 2 27.7060 -0.9003 
-3 1 3 -27.2379 1.2124 
-3 1 4 -6.1093 -0.6358 
-3 1 5 5.4331 -0.3176 
-3 1 6 -1.4562 -0.2712 
-3 1 7 -5.4145 0.5107 
-3 1 8 7.7729 0.2458 
-3 1 9 -7.9810 -0.1207 
-3 1 10 2.2777 -0.0759 
-3 1 11 -3.8028 0.0898 
-3 1 12 6.9736 0.0585 
-3 1 13 -2.8501 0.0255 
-3 1 14 -11.1796 -0.0927 
-3 1 15 0.1684 0.0085 
-3 1 16 5.4835 0.0149 
-3 1 17 -0.4188 -0.0417 
-3 1 18 -0.4813 0.1238 
-3 1 19 -1.9761 -0.0049 
-3 1 20 3.2084 -0.0562 
-3 1 21 2.4525 0.0052 
-3 1 22 7.1286 -0.0394 
-3 1 23 -0.9934 -0.0218 
-3 1 24 2.4700 -0.0517 
-3 1 25 1.0877 -0.0027 
-3 1 26 -4.6920 -0.0788 
-3 1 27 -0.9516 -0.1801 
-3 2 1 5.0953 -0.7488 
-3 2 2 -23.4989 0.1384 
-3 2 3 21.0402 -1.7577 
-3 2 4 -11.3981 0.6521 
-3 2 5 16.7387 0.2385 
-3 2 6 7.7812 -0.1803 
-3 2 7 2.0085 0.0708 
-3 2 8 -12.8600 -0.1560 
-3 2 9 24.4393 0.4508 
-3 2 10 -12.8879 -0.1083 
-3 2 11 9.3532 -0.1226 
-3 2 12 2.6434 0.1065 
-3 2 13 0.1380 -0.0129 
-3 2 14 -1.6792 0.2125 
-3 2 15 12.4428 -0.2028 
-3 2 16 2.5021 -0.0911 
-3 2 17 -1.4602 0.1031 
-3 2 18 -2.7031 0.1331 
-3 2 19 0.3478 0.0069 
-3 2 20 -5.8433 -0.1049 
-3 2 21 -0.8947 -0.0168 
-3 2 22 3.5995 0.1274 
-3 2 23 4.4404 -0.1221 
-3 2 24 -0.7435 0.0087 
-3 2 25 -2.1009 -0.0242 
-3 2 26 -2.8987 0.0408 
-3 2 27 3.8977 -0.0837 
-3 3 1 -23.3445 -0.7320 
-3 3 2 9.7438 -0.5692 
-3 3 3 -10.2259 -1.1766 
-3 3 4 9.5861 1.0036 
-3 3 5 14.5776 0.4915 
-3 3 6 -4.8264 -0.6619 
-3 3 7 -18.8820 -0.4196 
-3 3 8 0.0304 0.2640 
-3 3 9 -0.2075 0.2149 
-3 3 10 10.8101 -0.2176 
-3 3 11 -13.2392 -0.2565 
-3 3 12 6.5457 0.1481 
-3 3 13 -7.6173 0.0506 
-3 3 14 0.0701 0.0740 
-3 3 15 2.9021 -0.0645 
-3 3 16 1.7330 -0.0368 
-3 3 17 -5.4741 0.0536 
-3 3 18 -3.4101 0.0055 
-3 3 19 8.4646 -0.0319 
-3 3 20 3.2975 0.0131 
-3 3 21 1.9199 -0.1035 
-3 3 22 -2.8395 0.1583 
-3 3 23 -6.3762 -0.1026 
-3 3 24 -3.1729 0.1087 
-3 3 25 1.0892 0.0479 
-3 3 26 3.8832 -0.0244 
-3 3 27 7.8483 -0.0751 
-3 4 1 -18.8137 2.2010 
-3 4 2 -0.7127 -0.6963 
-3 4 3 8.4295 0.6275 
-3 4 4 -0.8332 -0.2475 
-3 4 5 -10.7854 0.4162 
-3 4 6 3.2884 -0.4765 
-3 4 7 -16.0417 -0.3407 
-3 4 8 13.9184 0.4086 
-3 4 9 15.0506 -0.2203 
-3 4 10 -6.9635 -0.0052 
-3 4 11 -9.3381 -0.0726 
-3 4 12 -2.6369 0.0153 
-3 4 13 1.5242 0.1370 
-3 4 14 5.0196 -0.0764 
-3 4 15 6.0240 0.0063 
-3 4 16 0.3236 0.0558 
-3 4 17 -1.4947 -0.0293 
-3 4 18 2.3347 0.0210 
-3 4 19 2.2016 -0.0548 
-3 4 20 0.9011 0.1598 
-3 4 21 1.3025 -0.0613 
-3 4 22 -0.9949 -0.0626 
-3 4 23 2.3883 0.1551 
-3 4 24 4.2808 0.0318 
-3 4 25 3.4467 -0.0999 
-3 4 26 1.8339 -0.0008 
-3 5 1 -2.1508 1.5413 
-3 5 2 14.9799 0.2881 
-3 5 3 8.7496 -0.0742 
-3 5 4 -4.0871 -0.7289 
-3 5 5 3.1819 0.1748 
-3 5 6 -14.7524 0.1998 
-3 5 7 8.2637 0.0441 
-3 5 8 3.6873 -0.1462 
-3 5 9 11.2957 -0.2273 
-3 5 10 -9.6591 0.2922 
-3 5 11 -4.4214 0.1702 
-3 5 12 0.9379 -0.1621 
-3 5 13 10.8160 -0.1766 
-3 5 14 -9.8418 0.1212 
-3 5 15 -2.9862 0.0625 
-3 5 16 -6.1989 0.0118 
-3 5 17 -0.2686 -0.1530 
-3 5 18 -0.7859 -0.0146 
-3 5 19 3.7719 0.0957 
-3 5 20 1.2130 0.0822 
-3 5 21 -6.5653 -0.0163 
-3 5 22 -0.2638 -0.1330 
-3 5 23 -0.6378 0.2161 
-3 5 24 2.4850 0.0834 
-3 5 25 -1.7068 -0.0661 
-3 5 26 -2.2570 0.0321 
-3 6 1 -3.2480 -0.3696 
-3 6 2 12.4629 1.1385 
-3 6 3 1.4719 -1.4862 
-3 6 4 -11.4857 0.3180 
-3 6 5 -1.3464 0.1704 
-3 6 6 2.6900 0.6384 
-3 6 7 -2.6163 -0.1754 
-3 6 8 0.7533 -0.4289 
-3 6 9 -8.5963 0.1523 
-3 6 10 2.6174 0.2966 
-3 6 11 -6.9955 -0.0944 
-3 6 12 8.9745 -0.2399 
-3 6 13 0.9504 -0.0852 
-3 6 14 6.1209 0.1819 
-3 6 15 -3.0485 -0.0453 
-3 6 16 -1.4165 -0.0649 
-3 6 17 3.1322 0.0433 
-3 6 18 -4.4683 -0.0795 
-3 6 19 0.2730 0.0602 
-3 6 20 -1.4039 -0.0125 
-3 6 21 -6.0373 -0.0312 
-3 6 22 2.4561 -0.0727 
-3 6 23 -2.0586 0.0065 
-3 6 24 -4.0978 0.0281 
-3 6 25 -2.1324 0.0484 
-3 7 1 9.2057 -1.1289 
-3 7 2 14.0405 0.3294 
-3 7 3 -3.6491 -0.0998 
-3 7 4 -2.5333 0.7011 
-3 7 5 -2.7587 -0.2581 
-3 7 6 9.7687 0.2156 
-3 7 7 0.7161 -0.1140 
-3 7 8 -2.8107 -0.0058 
-3 7 9 -2.0601 -0.0057 
-3 7 10 8.6256 0.0532 
-3 7 11 -1.9464 -0.0236 
-3 7 12 4.1566 -0.0038 
-3 7 13 -0.1155 0.0459 
-3 7 14 -2.0006 -0.1079 
-3 7 15 -1.7487 0.0106 
-3 7 16 0.2528 0.0588 
-3 7 17 -0.0470 0.0611 
-3 7 18 4.0952 -0.1343 
-3 7 19 2.2031 0.0330 
-3 7 20 -3.2830 0.0955 
-3 7 21 2.6196 0.0165 
-3 7 22 3.2705 -0.0543 
-3 7 23 7.9208 -0.0752 
-3 7 24 -3.2345 0.1003 
-3 7 25 2.7848 0.0721 
-3 8 1 4.1256 0.4362 
-3 8 2 0.1917 -0.0373 
-3 8 3 -2.0326 1.4266 
-3 8 4 -12.4615 -0.3506 
-3 8 5 10.6371 -0.5033 
-3 8 6 1.7531 0.1225 
-3 8 7 6.0623 0.1393 
-3 8 8 -8.3355 0.1041 
-3 8 9 -1.0231 -0.2441 
-3 8 10 -3.7799 0.0036 
-3 8 11 3.1417 0.1545 
-3 8 12 5.8028 0.0755 
-3 8 13 1.2774 -0.0162 
-3 8 14 -2.1587 -0.2130 
-3 8 15 0.8003 0.1008 
-3 8 16 -2.7550 0.1762 
-3 8 17 3.5592 -0.0775 
-3 8 18 -8.8770 -0.1271 
-3 8 19 5.9551 -0.0338 
-3 8 20 -2.3412 0.1193 
-3 8 21 -4.6658 0.0380 
-3 8 22 1.0085 -0.1077 
-3 8 23 -6.8532 -0.0219 
-3 8 24 0.7689 0.0089 
-3 9 1 3.7214 -0.1845 
-3 9 2 5.8106 0.2280 
-3 9 3 -10.8320 0.7673 
-3 9 4 -4.6807 -0.5499 
-3 9 5 2.4549 -0.3409 
-3 9 6 3.2660 0.3087 
-3 9 7 -8.9955 0.3572 
-3 9 8 -9.1028 -0.2073 
-3 9 9 5.5707 -0.0778 
-3 9 10 -4.3266 0.0812 
-3 9 11 0.5499 0.1415 
-3 9 12 3.4512 -0.0529 
-3 9 13 -1.4714 -0.1286 
-3 9 14 1.0324 -0.0863 
-3 9 15 3.6879 0.1109 
-3 9 16 -3.3790 0.0220 
-3 9 17 -5.9121 -0.0339 
-3 9 18 12.2773 -0.0158 
-3 9 19 4.6874 0.0794 
-3 9 20 11.6830 0.0193 
-3 9 21 -5.6613 0.0408 
-3 9 22 0.2324 -0.1005 
-3 9 23 3.9923 0.0008 
-3 10 1 3.5996 -0.7463 
-3 10 2 1.3885 0.1289 
-3 10 3 -0.6816 -0.4437 
-3 10 4 -1.0297 0.0321 
-3 10 5 7.3656 0.1543 
-3 10 6 2.1813 0.0487 
-3 10 7 -6.4661 0.0983 
-3 10 8 11.6204 -0.1270 
-3 10 9 1.5037 0.3054 
-3 10 10 1.3475 0.0270 
-3 10 11 -3.8693 -0.1132 
-3 10 12 4.0931 0.0261 
-3 10 13 -5.0856 0.0129 
-3 10 14 -0.0596 0.0345 
-3 10 15 0.9091 -0.0313 
-3 10 16 3.3195 -0.0928 
-3 10 17 3.6625 0.1193 
-3 10 18 -7.2297 0.0486 
-3 10 19 3.2017 -0.0268 
-3 10 20 -7.7771 -0.1223 
-3 10 21 -3.0748 0.0121 
-3 11 4 4.3514 0.4235 
-3 11 5 -1.7842 0.0675 
-3 11 6 -3.4360 -0.2400 
-3 11 7 3.3763 -0.0631 
-3 11 8 -3.1776 0.2637 
-3 11 9 -0.3224 0.1171 
-3 11 10 -5.9760 -0.2933 
-3 11 11 0.3262 -0.0772 
-3 11 12 -1.2803 0.1627 
-3 11 13 -3.4814 0.1232 
-3 11 14 -4.3514 -0.0601 
-3 11 15 11.2470 -0.1069 
-3 11 16 0.5307 0.0688 
-3 11 17 -6.7194 0.0497 
-3 11 18 -0.0976 0.0371 
-3 11 19 0.8973 -0.1636 
-3 11 20 -1.2705 -0.0138 
-3 12 1 -3.1634 0.5059 
-3 12 2 -4.0628 -0.4393 
-3 12 3 4.1407 0.4050 
-3 12 4 -9.0356 -0.0395 
-3 12 5 -5.5146 -0.0067 
-3 12 6 0.3874 -0.2774 
-3 12 7 -0.7833 -0.0466 
-3 12 8 -3.3575 0.1873 
-3 12 9 -1.7314 -0.0700 
-3 12 10 -0.8392 -0.1605 
-3 12 11 0.4561 0.0829 
-3 12 12 5.6868 0.0568 
-3 12 13 -1.4104 0.1075 
-3 12 14 -3.4735 0.0056 
-3 12 15 2.8823 -0.0207 
-3 12 16 1.9226 0.0233 
-3 12 17 -3.8029 0.0497 
-3 12 18 0.5397 -0.0366 
-3 12 19 -0.8532 -0.0299 
-3 13 1 -0.7615 0.3737 
-3 13 2 4.4232 -0.0141 
-3 13 3 4.8005 -0.1679 
-3 13 4 -0.3255 -0.2327 
-3 13 5 -2.1976 0.0944 
-3 13 6 3.7490 -0.1458 
-3 13 7 0.6428 0.0195 
-3 13 8 2.8709 0.0054 
-3 13 9 3.7216 -0.0872 
-3 13 10 2.3552 0.1188 
-3 13 11 -7.9799 -0.0202 
-3 13 12 -2.9772 -0.0258 
-3 13 13 -1.8242 -0.1133 
-3 13 14 -1.5821 0.1774 
-3 13 15 -4.0521 0.0107 
-3 13 16 -4.2875 -0.0207 
-3 14 1 -3.5620 0.0234 
-3 14 2 -2.9953 0.1448 
-3 14 3 -0.2244 -0.6898 
-3 14 4 5.8899 0.0121 
-3 14 5 3.3515 0.2979 
-3 14 6 5.0576 -0.0776 
-3 14 7 -0.1701 -0.0484 
-3 14 8 -1.8721 -0.0728 
-3 14 9 3.1880 0.1822 
-3 14 10 -7.8841 0.1072 
-3 14 11 0.5151 -0.1541 
-3 14 12 -0.0906 -0.0233 
-3 14 13 5.2176 0.1304 
-3 15 1 1.1495 0.2486 
-3 15 2 0.5590 -0.4199 
-3 15 3 1.0115 -0.1326 
-3 15 4 5.2029 0.3298 
-3 15 5 -1.8505 0.0045 
-3 15 6 1.7336 -0.0505 
-3 15 7 -0.3790 -0.0387 
-3 15 8 4.5086 0.2383 
-2 -16 1 -1.7933 -0.3126 
-2 -16 2 -1.8928 -0.0365 
-2 -16 3 1.5138 -0.0761 
-2 -16 4 4.5384 -0.2314 
-2 -16 5 3.9148 -0.1207 
-2 -16 6 0.0612 -0.0468 
-2 -15 1 -0.4647 -1.2273 
-2 -15 2 2.0409 0.5678 
-2 -15 3 0.8565 -0.1534 
-2 -15 4 -1.9185 0.3456 
-2 -15 5 -0.3064 -0.3253 
-2 -15 6 -3.5558 0.0916 
-2 -15 7 0.5172 0.1519 
-2 -15 8 1.6355 0.0910 
-2 -15 9 2.2859 0.0616 
-2 -15 10 0.5173 0.2024 
-2 -14 1 -0.2741 0.3157 
-2 -14 2 -1.8958 -0.0114 
-2 -14 3 2.0844 0.4516 
-2 -14 4 -0.1333 -0.1064 
-2 -14 5 -2.2791 -0.2032 
-2 -14 6 -1.2632 -0.2685 
-2 -14 7 -1.6521 0.2021 
-2 -14 8 -0.0957 0.0349 
-2 -14 9 2.6265 -0.0994 
-2 -14 10 -0.4407 -0.1363 
-2 -14 11 -3.7888 -0.2230 
-2 -14 12 4.1834 0.2545 
-2 -13 1 -1.6427 0.6054 
-2 -13 2 4.9059 -1.0067 
-2 -13 3 -5.7405 0.6553 
-2 -13 4 -0.7252 -0.5547 
-2 -13 5 0.8299 -0.0214 
-2 -13 6 1.4749 -0.0183 
-2 -13 7 -2.4270 0.0619 
-2 -13 8 -1.2192 0.1600 
-2 -13 9 -2.8052 -0.1079 
-2 -13 10 -0.2243 0.0488 
-2 -13 11 1.0169 0.0783 
-2 -13 12 0.5464 -0.2419 
-2 -13 13 -0.8838 0.3599 
-2 -13 14 -2.1048 -0.3225 
-2 -13 15 -2.0376 0.0553 
-2 -12 1 -2.3261 -0.5558 
-2 -12 2 -3.2466 -0.3683 
-2 -12 3 1.1782 -0.5798 
-2 -12 4 -2.0172 0.5276 
-2 -12 5 -0.0287 0.0934 
-2 -12 6 1.8850 0.0341 
-2 -12 7 3.0952 -0.0645 
-2 -12 8 -1.3990 -0.0122 
-2 -12 9 2.3626 0.0086 
-2 -12 10 -2.8249 -0.1294 
-2 -12 11 0.3113 0.2039 
-2 -12 12 1.2374 -0.0670 
-2 -12 13 -2.8708 0.1971 
-2 -12 14 -1.1433 -0.0202 
-2 -12 15 2.3245 0.1424 
-2 -12 16 3.1507 0.1767 
-2 -12 17 0.4672 0.0956 
-2 -11 1 -3.4479 -1.1903 
-2 -11 2 1.2952 0.2458 
-2 -11 3 0.2323 -0.6629 
-2 -11 4 -2.1645 0.8196 
-2 -11 5 6.5533 0.0535 
-2 -11 6 -0.7520 -0.6479 
-2 -11 7 0.3998 0.0735 
-2 -11 8 -0.3335 -0.1105 
-2 -11 9 -1.9329 0.3373 
-2 -11 10 -1.2405 -0.0968 
-2 -11 11 1.0696 -0.0395 
-2 -11 12 1.8383 0.1440 
-2 -11 13 0.8576 -0.0574 
-2 -11 14 -5.4864 0.1262 
-2 -11 15 -1.3119 -0.1472 
-2 -11 16 0.9588 0.0052 
-2 -11 17 2.8604 0.1375 
-2 -11 18 4.6317 -0.2431 
-2 -11 19 4.7831 0.4224 
-2 -10 1 -3.7658 1.7132 
-2 -10 2 -3.2692 -0.4457 
-2 -10 3 -1.2312 0.2421 
-2 -10 4 -1.1475 -0.4509 
-2 -10 5 -3.0006 0.4936 
-2 -10 6 4.2900 -0.6091 
-2 -10 7 -7.1260 -0.1898 
-2 -10 8 6.3468 0.1795 
-2 -10 9 4.1681 -0.0812 
-2 -10 10 2.1928 0.1694 
-2 -10 11 -4.1525 -0.1453 
-2 -10 12 4.4005 0.0824 
-2 -10 13 -1.0871 -0.1121 
-2 -10 14 0.0050 -0.0092 
-2 -10 15 -0.6408 -0.0735 
-2 -10 16 5.2572 -0.0298 
-2 -10 17 -2.1363 0.1224 
-2 -10 18 -6.7485 0.1411 
-2 -10 19 -2.7648 -0.2939 
-2 -10 20 0.6517 -0.2276 
-2 -9 1 -11.6756 2.0064 
-2 -9 2 6.2008 -0.5329 
-2 -9 3 -1.3070 0.0391 
-2 -9 4 5.0442 -0.7410 
-2 -9 5 8.6521 0.3788 
-2 -9 6 -9.0879 0.3206 
-2 -9 7 -6.5558 -0.3310 
-2 -9 8 -3.8997 0.2192 
-2 -9 9 10.1387 -0.1624 
-2 -9 10 2.2668 0.1722 
-2 -9 11 -0.5969 -0.0602 
-2 -9 12 -1.9229 -0.1855 
-2 -9 13 0.7958 0.1491 
-2 -9 14 -2.3300 -0.0105 
-2 -9 15 2.6920 -0.0874 
-2 -9 16 1.3802 0.0019 
-2 -9 17 -0.4869 -0.2575 
-2 -9 18 -1.2724 0.1511 
-2 -9 19 6.3859 -0.1137 
-2 -9 20 0.7359 0.0862 
-2 -9 21 0.7003 -0.1891 
-2 -8 1 1.0748 -0.5632 
-2 -8 2 -9.9930 1.1487 
-2 -8 3 14.6483 -1.4898 
-2 -8 4 -8.0002 0.4323 
-2 -8 5 1.0791 0.1209 
-2 -8 6 3.3347 0.6795 
-2 -8 7 -8.4674 -0.3002 
-2 -8 8 4.0118 -0.4069 
-2 -8 10 -13.1675 0.0845 
-2 -8 11 -6.5497 0.1049 
-2 -8 12 2.8843 -0.2163 
-2 -8 13 3.6031 0.0161 
-2 -8 14 -2.6664 0.1450 
-2 -8 15 -0.4603 -0.1032 
-2 -8 16 1.4638 0.1075 
-2 -8 17 0.0645 -0.0304 
-2 -8 18 -5.3286 0.1144 
-2 -8 19 3.3397 -0.0371 
-2 -8 20 0.8742 0.0707 
-2 -8 21 1.8746 0.0990 
-2 -8 22 1.2229 -0.4306 
-2 -7 1 -6.1066 -2.0783 
-2 -7 2 22.4564 1.4145 
-2 -7 3 -5.8136 -0.5413 
-2 -7 4 10.8397 0.6523 
-2 -7 5 -14.4268 -0.2907 
-2 -7 6 -2.6201 0.0890 
-2 -7 7 -3.9698 0.0193 
-2 -7 8 3.9252 -0.3593 
-2 -7 9 0.0408 0.0697 
-2 -7 12 3.6508 0.0613 
-2 -7 13 3.9872 -0.1773 
-2 -7 14 -0.9537 0.0003 
-2 -7 15 -6.0598 0.1009 
-2 -7 16 4.5370 -0.0367 
-2 -7 17 0.4586 0.0407 
-2 -7 18 -0.6540 -0.1817 
-2 -7 19 -3.5426 0.1308 
-2 -7 20 2.9032 -0.1473 
-2 -7 21 -3.9050 0.0115 
-2 -7 22 1.5695 -0.0001 
-2 -7 23 -3.8314 0.2704 
-2 -6 1 9.7738 1.3179 
-2 -6 2 6.5405 0.0140 
-2 -6 3 10.0414 1.7109 
-2 -6 4 -31.8293 -1.0147 
-2 -6 5 3.3350 -0.3625 
-2 -6 6 15.2928 0.1645 
-2 -6 7 -1.9420 0.2064 
-2 -6 8 5.7269 0.0447 
-2 -6 9 2.5041 -0.3047 
-2 -6 10 -6.1787 0.2340 
-2 -6 13 7.5244 -0.0816 
-2 -6 14 0.3573 -0.2063 
-2 -6 15 -3.6143 0.1241 
-2 -6 16 1.2103 -0.0508 
-2 -6 17 2.7600 0.0636 
-2 -6 18 -3.8094 -0.0273 
-2 -6 19 -0.6328 0.0434 
-2 -6 20 -6.5078 0.0988 
-2 -6 21 -0.5852 -0.0060 
-2 -6 22 0.6747 -0.1256 
-2 -6 23 -1.3400 -0.0986 
-2 -6 24 -2.1562 0.0173 
-2 -5 1 7.3469 0.8252 
-2 -5 2 8.4063 -0.5709 
-2 -5 3 -19.6820 1.4199 
-2 -5 4 -20.7882 -0.9617 
-2 -5 5 2.4023 -0.5670 
-2 -5 6 1.6559 0.6598 
-2 -5 7 13.8732 0.3455 
-2 -5 8 -20.3584 0.1425 
-2 -5 9 3.7384 -0.4245 
-2 -5 10 1.6729 0.0512 
-2 -5 14 -9.6593 -0.0879 
-2 -5 15 -2.1946 0.1571 
-2 -5 16 -1.2354 0.0516 
-2 -5 17 2.3193 -0.0133 
-2 -5 18 3.6497 0.1325 
-2 -5 19 0.3721 -0.0872 
-2 -5 20 0.7580 -0.0031 
-2 -5 21 4.8017 0.0488 
-2 -5 22 -0.6577 -0.0448 
-2 -5 23 4.3041 -0.0557 
-2 -5 24 -2.6978 -0.1742 
-2 -5 25 2.7644 0.2163 
-2 -4 1 -10.3313 -2.1920 
-2 -4 2 25.8270 0.5832 
-2 -4 3 -9.4848 -0.9578 
-2 -4 4 -9.2549 0.7327 
-2 -4 5 1.8002 -0.3691 
-2 -4 6 27.1189 0.3634 
-2 -4 7 -4.7395 0.1212 
-2 -4 8 0.8007 -0.1762 
-2 -4 9 -11.3578 0.1688 
-2 -4 10 14.6896 -0.3721 
-2 -4 15 -2.0402 -0.0032 
-2 -4 16 6.4765 0.0154 
-2 -4 17 -3.9302 0.0620 
-2 -4 18 -1.1797 0.0050 
-2 -4 19 -4.6965 0.0079 
-2 -4 20 1.1206 -0.0616 
-2 -4 21 -4.2111 0.1124 
-2 -4 22 5.2315 0.0743 
-2 -4 23 -1.5358 -0.1599 
-2 -4 24 3.2490 -0.1726 
-2 -4 25 0.2491 -0.0197 
-2 -4 26 -1.1584 0.0963 
-2 -3 1 15.5579 -2.5419 
-2 -3 2 22.8549 0.0123 
-2 -3 3 -10.6347 -0.1435 
-2 -3 4 -3.0086 1.3139 
-2 -3 5 10.6158 -0.2495 
-2 -3 6 18.6356 -0.6652 
-2 -3 7 1.6602 0.1239 
-2 -3 8 -43.1240 0.0423 
-2 -3 9 -5.2191 0.2288 
-2 -3 10 11.1806 -0.4642 
-2 -3 11 1.1299 -0.0635 
-2 -3 12 -6.6865 0.3576 
-2 -3 13 -4.1878 0.0529 
-2 -3 16 1.8716 -0.0825 
-2 -3 17 1.4466 0.1155 
-2 -3 18 -3.6438 -0.0967 
-2 -3 19 3.5204 0.0109 
-2 -3 20 -1.4367 -0.0148 
-2 -3 21 0.0483 -0.0431 
-2 -3 22 -3.2333 0.0257 
-2 -3 23 0.4174 -0.1209 
-2 -3 24 -1.4191 0.1432 
-2 -3 25 0.1872 0.1637 
-2 -3 26 0.3353 0.0093 
-2 -2 1 -71.3313 2.4152 
-2 -2 2 5.4430 -1.3290 
-2 -2 3 44.5289 1.8375 
-2 -2 4 -7.8711 -0.3842 
-2 -2 5 20.4219 0.1935 
-2 -2 6 7.1901 -0.9020 
-2 -2 7 -3.4911 0.0630 
-2 -2 8 -14.7540 0.3608 
-2 -2 9 17.7010 -0.0254 
-2 -2 10 10.2963 -0.1419 
-2 -2 11 3.2802 -0.0861 
-2 -2 12 -20.1654 0.1526 
-2 -2 13 -2.3002 0.1839 
-2 -2 14 0.1598 -0.0677 
-2 -2 15 3.6130 0.0831 
-2 -2 16 1.3577 -0.1008 
-2 -2 17 -6.9055 -0.0229 
-2 -2 18 -4.7750 0.0288 
-2 -2 19 4.1523 -0.0526 
-2 -2 20 1.2682 -0.0062 
-2 -2 21 5.1379 -0.0477 
-2 -2 22 0.2687 0.0900 
-2 -2 23 -1.4356 0.0341 
-2 -2 24 -4.1052 0.0028 
-2 -2 25 -2.7564 0.0594 
-2 -2 26 -4.1621 0.0062 
-2 -2 27 1.7036 -0.0803 
-2 -1 1 4.6314 1.9936 
-2 -1 2 14.9562 -1.2695 
-2 -1 3 -13.8228 0.1350 
-2 -1 4 -11.2256 -0.7054 
-2 -1 5 -37.4230 0.3917 
-2 -1 6 11.8327 -0.2627 
-2 -1 7 -16.8943 -0.0882 
-2 -1 8 0.7748 0.2956 
-2 -1 9 17.5134 0.0554 
-2 -1 10 24.7934 0.0677 
-2 -1 11 -21.0771 -0.0538 
-2 -1 12 4.9769 -0.1207 
-2 -1 13 0.9143 0.1008 
-2 -1 14 13.8553 -0.0246 
-2 -1 15 4.8576 -0.0118 
-2 -1 16 -2.1560 -0.0549 
-2 -1 17 -6.1790 -0.1108 
-2 -1 18 4.6015 0.1427 
-2 -1 19 3.3042 0.0311 
-2 -1 20 0.1487 0.0115 
-2 -1 21 -5.5563 -0.0862 
-2 -1 22 0.0920 -0.0164 
-2 -1 23 -1.0876 0.1905 
-2 -1 24 3.1248 -0.1027 
-2 -1 25 -0.8625 0.0179 
-2 -1 26 7.7933 -0.0214 
-2 -1 27 -0.7524 -0.1841 
-2 0 1 -2.1681 -0.4260 
-2 0 2 54.1915 0.2063 
-2 0 3 12.5281 -2.9101 
-2 0 4 -19.3620 0.6364 
-2 0 5 -7.3655 0.6433 
-2 0 6 14.7452 0.3766 
-2 0 7 -0.6082 -0.3571 
-2 0 8 2.1430 -0.1846 
-2 0 9 -1.5512 0.5629 
-2 0 10 -4.7887 0.0671 
-2 0 11 -10.5618 -0.2829 
-2 0 12 -3.2743 -0.0763 
-2 0 13 10.9071 0.1326 
-2 0 14 -5.2034 0.2418 
-2 0 15 -6.8396 -0.2171 
-2 0 16 -1.1817 0.0341 
-2 0 17 -1.3109 0.0495 
-2 0 18 0.5109 -0.0587 
-2 0 19 3.8879 0.0616 
-2 0 20 -1.4759 -0.0378 
-2 0 21 -2.2335 -0.0629 
-2 0 22 1.9601 0.0059 
-2 0 23 -1.8823 0.1058 
-2 0 24 -3.5876 0.0242 
-2 0 25 2.4983 -0.0845 
-2 0 26 -2.5284 0.0680 
-2 0 27 -0.8128 -0.0120 
-2 1 1 -12.1795 -1.5409 
-2 1 2 -11.8876 -0.1557 
-2 1 3 76.4862 -0.7178 
-2 1 4 -51.0560 0.8548 
-2 1 5 -14.5744 0.1729 
-2 1 6 5.8253 -0.2112 
-2 1 7 24.4062 -0.1563 
-2 1 8 -19.5705 -0.1719 
-2 1 9 17.1859 0.1690 
-2 1 10 -13.4185 0.1753 
-2 1 11 -4.8447 -0.1852 
-2 1 12 5.8248 0.1139 
-2 1 13 5.9680 0.0132 
-2 1 14 -5.9273 0.2030 
-2 1 15 -1.9905 -0.0880 
-2 1 16 -2.2289 -0.0255 
-2 1 17 4.8567 0.0301 
-2 1 18 0.7936 -0.1561 
-2 1 19 0.5946 0.0807 
-2 1 20 -0.9016 0.1164 
-2 1 21 3.2343 -0.1578 
-2 1 22 0.6644 0.0715 
-2 1 23 1.4146 0.0052 
-2 1 24 2.8924 0.1221 
-2 1 25 7.3114 -0.0672 
-2 1 26 -0.4515 0.0469 
-2 1 27 -4.6446 -0.0287 
-2 2 1 -32.3181 1.7620 
-2 2 2 79.4184 -0.2891 
-2 2 3 -34.1582 1.6732 
-2 2 4 -35.4972 -1.3983 
-2 2 5 -2.3187 0.1212 
-2 2 6 36.8432 -0.1849 
-2 2 7 -0.9522 0.0386 
-2 2 8 2.7630 0.0283 
-2 2 9 -17.7258 -0.4403 
-2 2 10 17.6752 0.4586 
-2 2 11 -11.7124 0.0425 
-2 2 12 5.6755 -0.1255 
-2 2 13 5.0613 -0.0906 
-2 2 14 -0.8987 -0.0151 
-2 2 15 1.0403 0.0482 
-2 2 16 6.1174 0.0038 
-2 2 17 0.4740 -0.1415 
-2 2 18 -0.7284 -0.0286 
-2 2 19 -0.3999 -0.0189 
-2 2 20 -1.3686 0.1852 
-2 2 21 2.0475 -0.1068 
-2 2 22 6.8120 -0.0028 
-2 2 23 3.3641 0.0348 
-2 2 24 -0.1027 -0.0291 
-2 2 25 0.0378 -0.1000 
-2 2 26 -4.4300 -0.0368 
-2 2 27 1.5746 0.0539 
-2 3 1 14.0988 1.0830 
-2 3 2 -21.3864 0.4519 
-2 3 3 -18.5785 0.0937 
-2 3 4 -5.3870 -1.3257 
-2 3 5 12.5194 -0.0885 
-2 3 6 35.5298 0.8831 
-2 3 7 -15.8179 0.0864 
-2 3 8 -21.2614 -0.1066 
-2 3 9 15.4897 -0.3093 
-2 3 10 -3.6275 0.3531 
-2 3 11 -1.7402 0.2437 
-2 3 12 7.5101 -0.2361 
-2 3 13 -1.1460 -0.1626 
-2 3 14 -4.9163 -0.0198 
-2 3 15 1.3156 0.1129 
-2 3 16 7.2505 0.0720 
-2 3 17 -0.4768 -0.1606 
-2 3 18 -4.2317 0.0938 
-2 3 19 -0.8310 0.0060 
-2 3 20 -0.3385 0.0877 
-2 3 21 -4.1771 0.0319 
-2 3 22 -2.8868 -0.0868 
-2 3 23 -7.0438 0.0746 
-2 3 24 4.4366 -0.1310 
-2 3 25 3.5911 -0.0330 
-2 3 26 2.1749 0.0251 
-2 3 27 -2.0265 0.0335 
-2 4 1 -8.7826 -1.6701 
-2 4 2 -8.9836 1.1323 
-2 4 3 -6.9392 -1.5950 
-2 4 4 -8.9480 0.4183 
-2 4 5 24.1229 -0.1473 
-2 4 6 -21.7189 0.8627 
-2 4 7 -8.7949 -0.1561 
-2 4 8 -12.3783 -0.3261 
-2 4 9 10.2558 0.1338 
-2 4 10 4.9245 -0.0619 
-2 4 11 0.2718 0.0864 
-2 4 12 -10.4765 -0.0690 
-2 4 13 10.4213 -0.1082 
-2 4 14 -11.4854 0.1254 
-2 4 15 5.2575 0.0154 
-2 4 16 1.0259 0.0488 
-2 4 17 1.7904 0.1325 
-2 4 18 -5.3588 -0.0331 
-2 4 19 -0.1585 -0.0360 
-2 4 20 4.4947 -0.0934 
-2 4 21 2.2087 0.1693 
-2 4 22 0.2011 -0.0219 
-2 4 23 -3.5431 -0.1192 
-2 4 24 0.2331 0.0397 
-2 4 25 0.2953 0.1379 
-2 4 26 0.1354 0.0340 
-2 4 27 0.1384 0.1539 
-2 5 1 -20.9975 -2.5205 
-2 5 2 -12.0136 0.8065 
-2 5 3 6.9655 0.6799 
-2 5 4 12.0788 0.9029 
-2 5 5 -2.2576 -0.3750 
-2 5 6 9.0063 -0.4153 
-2 5 7 -13.8177 0.1691 
-2 5 8 9.5116 0.1065 
-2 5 9 7.0806 -0.3216 
-2 5 10 9.5606 -0.3597 
-2 5 11 -15.9721 0.0508 
-2 5 12 2.0240 0.2404 
-2 5 13 -10.8522 -0.1128 
-2 5 14 -0.7891 -0.0893 
-2 5 15 -3.9406 0.0760 
-2 5 16 3.9802 0.0216 
-2 5 17 -2.6299 0.1406 
-2 5 18 -0.4401 -0.1310 
-2 5 19 1.3632 -0.0829 
-2 5 20 1.6596 -0.0693 
-2 5 21 -0.1173 0.1352 
-2 5 22 0.3112 0.0299 
-2 5 23 2.0516 -0.1611 
-2 5 24 -6.2623 0.0609 
-2 5 25 -2.2758 0.0447 
-2 5 26 -3.4709 0.0430 
-2 5 27 -4.2721 0.0145 
-2 6 1 -11.8753 1.2462 
-2 6 2 13.5776 0.3400 
-2 6 3 1.0910 1.8405 
-2 6 4 8.0917 -0.1975 
-2 6 5 -1.1011 -0.2116 
-2 6 6 -9.1077 -0.4309 
-2 6 7 -2.8231 0.2213 
-2 6 8 -4.7810 0.2526 
-2 6 9 1.5387 -0.3781 
-2 6 10 8.7189 -0.1178 
-2 6 11 -5.7826 0.3382 
-2 6 12 -0.7037 0.1417 
-2 6 13 10.1550 -0.0888 
-2 6 14 0.9750 -0.1790 
-2 6 15 7.0108 0.1242 
-2 6 16 1.0006 -0.0563 
-2 6 17 -0.8481 -0.0737 
-2 6 18 -2.7576 0.0424 
-2 6 19 -1.4424 -0.0893 
-2 6 20 -0.7855 -0.0429 
-2 6 21 -4.9996 0.1670 
-2 6 22 4.1842 0.0346 
-2 6 23 -0.4157 -0.1097 
-2 6 24 -5.7194 -0.0115 
-2 6 25 2.5472 0.0851 
-2 6 26 3.6908 0.0531 
-2 7 1 -1.9083 1.1373 
-2 7 2 -6.0667 -0.0774 
-2 7 3 21.3342 -0.0517 
-2 7 4 -8.7914 0.0894 
-2 7 5 3.8368 -0.0979 
-2 7 6 0.1702 0.0084 
-2 7 7 2.1129 0.0505 
-2 7 8 0.3629 0.1479 
-2 7 9 6.7475 0.1109 
-2 7 10 -3.9448 -0.1759 
-2 7 11 0.1227 0.2187 
-2 7 12 -3.9908 -0.1245 
-2 7 13 10.8956 0.0045 
-2 7 14 2.3943 -0.0568 
-2 7 15 3.6746 0.0476 
-2 7 16 -11.0062 -0.0468 
-2 7 17 1.2748 -0.0816 
-2 7 18 -6.0668 0.1553 
-2 7 19 3.6108 0.0058 
-2 7 20 2.4850 -0.0746 
-2 7 21 0.9050 0.0280 
-2 7 22 9.4379 0.0685 
-2 7 23 0.5087 -0.0077 
-2 7 24 0.0549 -0.1689 
-2 7 25 -1.1509 0.0262 
-2 7 26 -2.1092 0.0821 
-2 8 1 -4.9801 -0.3375 
-2 8 2 15.3757 -0.3260 
-2 8 3 -4.5411 -1.4019 
-2 8 4 -1.6067 0.8347 
-2 8 5 -10.6999 0.2908 
-2 8 6 -0.4425 -0.2321 
-2 8 7 4.7914 -0.0938 
-2 8 8 -1.3494 0.0606 
-2 8 9 -0.4551 0.3507 
-2 8 10 1.0812 -0.0991 
-2 8 11 -9.0610 -0.2388 
-2 8 12 12.6430 -0.0543 
-2 8 13 -1.7226 0.1936 
-2 8 14 -0.9660 0.0137 
-2 8 15 -5.7845 -0.1307 
-2 8 16 3.4799 -0.1019 
-2 8 17 -4.8340 0.1641 
-2 8 18 4.3261 0.0529 
-2 8 19 -2.0002 -0.0118 
-2 8 20 2.0150 -0.1313 
-2 8 21 -8.3918 0.0084 
-2 8 22 -4.6192 0.1038 
-2 8 23 -7.7015 -0.0298 
-2 8 24 -1.0443 -0.1523 
-2 8 25 3.1474 0.0721 
-2 9 1 0.1605 -0.7882 
-2 9 2 4.5626 -0.7445 
-2 9 3 1.8395 0.1721 
-2 9 4 -13.6509 0.6752 
-2 9 5 -1.5461 0.1112 
-2 9 6 11.4582 -0.6777 
-2 9 7 -5.7225 0.0843 
-2 9 8 3.0555 0.2170 
-2 9 9 -9.3671 0.0686 
-2 9 10 -7.9222 -0.0249 
-2 9 11 -0.8660 -0.1820 
-2 9 12 1.8439 0.1982 
-2 9 13 3.6560 0.1175 
-2 9 14 -0.2821 -0.0186 
-2 9 15 -2.9774 -0.0383 
-2 9 16 -1.3889 -0.0728 
-2 9 17 5.3017 0.1102 
-2 9 18 -0.1912 -0.0890 
-2 9 19 13.5301 0.0214 
-2 9 20 3.1999 -0.0493 
-2 9 21 -0.6093 -0.0166 
-2 9 22 -0.5489 0.0155 
-2 9 23 4.3891 -0.0065 
-2 9 24 -0.2584 0.0137 
-2 10 1 -1.1588 1.3133 
-2 10 2 -0.0447 -0.4855 
-2 10 5 4.1319 0.1434 
-2 10 6 -2.0440 -0.0781 
-2 10 7 12.6317 0.1060 
-2 10 8 -5.5329 -0.0313 
-2 10 9 5.8498 -0.0164 
-2 10 10 -4.6222 0.0853 
-2 10 11 5.8546 0.0246 
-2 10 12 3.5399 -0.0176 
-2 10 13 -0.5301 -0.0537 
-2 10 14 -3.0475 0.0754 
-2 10 15 3.6793 -0.0614 
-2 10 16 10.1521 0.0872 
-2 10 17 0.6103 -0.2054 
-2 10 18 -4.2803 0.0522 
-2 10 19 -7.3284 0.0958 
-2 10 20 0.1373 0.0444 
-2 10 21 2.1431 -0.1277 
-2 11 1 -2.8911 0.7594 
-2 11 2 -4.8653 -0.0508 
-2 11 3 15.0131 -0.4507 
-2 11 4 -0.7326 -0.5919 
-2 11 5 -1.9044 0.0114 
-2 11 6 0.3262 0.3134 
-2 11 7 -3.6987 -0.1536 
-2 11 8 1.4215 -0.1238 
-2 11 9 -5.3964 0.1172 
-2 11 10 5.2277 0.2035 
-2 11 11 -0.1995 0.0026 
-2 11 12 -8.7017 -0.1469 
-2 11 13 -5.6077 0.0539 
-2 11 14 -3.9934 0.0496 
-2 11 15 -1.0282 -0.0235 
-2 11 16 0.6590 0.0037 
-2 11 17 -8.0103 -0.1349 
-2 11 18 -6.5890 0.1271 
-2 11 19 2.8317 0.0680 
-2 11 20 2.0039 -0.0201 
-2 11 21 -5.5595 -0.1639 
-2 11 22 3.3546 -0.0843 
-2 12 1 -7.1248 -0.3860 
-2 12 2 3.9176 0.0721 
-2 12 3 -0.6163 -0.8791 
-2 12 4 5.3058 -0.2579 
-2 12 5 -2.8147 0.1723 
-2 12 6 -0.1650 0.2711 
-2 12 7 -2.2859 -0.2634 
-2 12 8 -3.4467 -0.0918 
-2 12 9 -4.6604 0.1486 
-2 12 10 2.7976 0.1180 
-2 12 11 -2.7874 -0.2429 
-2 12 12 2.3740 -0.0525 
-2 12 13 2.6584 0.0472 
-2 12 14 1.2736 0.0355 
-2 12 15 -1.1403 0.1056 
-2 12 16 6.7457 -0.0973 
-2 12 17 -0.2358 0.2010 
-2 12 18 2.1436 -0.1061 
-2 12 19 -0.4586 0.0355 
-2 12 20 -2.2446 0.0571 
-2 13 1 -1.0069 -0.8116 
-2 13 2 3.9840 0.0378 
-2 13 3 3.8500 0.1942 
-2 13 4 -1.2262 0.0317 
-2 13 5 -2.9110 0.0394 
-2 13 6 2.2106 0.0221 
-2 13 7 2.9984 0.0577 
-2 13 8 0.1434 0.0334 
-2 13 9 7.9324 -0.0657 
-2 13 10 -4.1194 -0.0930 
-2 13 11 -3.7097 -0.0820 
-2 13 12 -8.1816 0.2594 
-2 13 13 1.3832 -0.1118 
-2 13 14 -1.0482 0.0496 
-2 13 15 -2.2311 -0.0225 
-2 13 16 -6.4949 0.1330 
-2 13 17 -0.4204 0.0321 
-2 13 18 -2.2024 -0.1106 
-2 14 1 4.9923 0.2007 
-2 14 2 -1.7743 0.3363 
-2 14 3 -5.8154 0.5760 
-2 14 4 4.3195 -0.2191 
-2 14 5 6.0727 -0.2027 
-2 14 6 0.5360 0.2171 
-2 14 7 -1.5958 0.0260 
-2 14 8 -1.2548 -0.1397 
-2 14 9 -1.0032 -0.1075 
-2 14 10 6.7999 -0.1774 
-2 14 11 7.2402 0.2132 
-2 14 12 1.5592 -0.0678 
-2 14 13 2.1893 -0.0266 
-2 14 14 3.0330 0.0389 
-2 14 15 -3.9247 0.0521 
-2 15 1 -1.1447 -0.1569 
-2 15 2 0.5680 0.3563 
-2 15 3 4.5503 -0.0708 
-2 15 4 2.8060 -0.1465 
-2 15 5 -3.9038 -0.1204 
-2 15 6 1.8549 0.0523 
-2 15 7 4.3981 -0.0313 
-2 15 8 2.6770 0.0897 
-2 15 9 2.5604 -0.1346 
-2 15 10 -0.1425 0.1267 
-2 15 11 0.4998 0.1360 
-2 15 12 -1.3535 -0.0099 
-1 -16 1 0.2424 0.2884 
-1 -16 2 -2.2404 0.4487 
-1 -16 3 -0.9973 -0.3275 
-1 -16 4 5.2476 0.0178 
-1 -16 5 4.5581 -0.1574 
-1 -15 1 1.8748 0.8238 
-1 -15 2 -3.5725 -0.7698 
-1 -15 3 1.6019 0.1398 
-1 -15 4 0.5908 -0.4212 
-1 -15 5 -0.3586 0.0490 
-1 -15 6 2.3117 0.0761 
-1 -15 7 4.6101 -0.1428 
-1 -15 8 -1.1542 -0.2952 
-1 -15 9 2.6340 0.1025 
-1 -14 1 -6.1566 -0.0037 
-1 -14 2 2.0862 -0.4555 
-1 -14 3 -2.8622 -0.5123 
-1 -14 4 -0.0808 0.1405 
-1 -14 5 -2.2125 0.0996 
-1 -14 6 -4.3502 0.1910 
-1 -14 7 -2.8407 -0.2805 
-1 -14 8 1.7845 -0.1096 
-1 -14 9 -0.4902 0.0778 
-1 -14 10 -1.3390 0.1897 
-1 -14 11 -0.8231 -0.0489 
-1 -14 12 -0.5900 -0.0910 
-1 -13 1 4.7688 -1.0115 
-1 -13 2 -4.7278 0.3301 
-1 -13 3 -3.1661 -0.3152 
-1 -13 4 -0.4626 0.3330 
-1 -13 5 1.7507 0.0163 
-1 -13 6 -0.1405 -0.2761 
-1 -13 7 1.3945 0.0906 
-1 -13 8 -7.1592 -0.1511 
-1 -13 9 1.8241 0.1287 
-1 -13 10 2.0792 0.1318 
-1 -13 11 0.0499 0.0280 
-1 -13 12 -0.5542 0.1766 
-1 -13 13 -2.1535 -0.0554 
-1 -13 14 -2.2340 -0.0424 
-1 -13 15 0.6103 0.1927 
-1 -12 1 -6.4375 0.8582 
-1 -12 2 -1.2458 -0.0345 
-1 -12 3 3.5010 0.4209 
-1 -12 4 -0.6867 -0.8122 
-1 -12 5 -1.4154 0.1528 
-1 -12 6 -1.4941 -0.0555 
-1 -12 7 1.7748 0.1178 
-1 -12 8 1.7713 -0.0556 
-1 -12 9 -2.6722 0.0653 
-1 -12 10 1.8366 0.3350 
-1 -12 11 -0.3502 -0.0957 
-1 -12 12 0.3000 0.0425 
-1 -12 13 2.5151 -0.0665 
-1 -12 14 0.0451 0.0232 
-1 -12 15 -2.4941 0.1712 
-1 -12 16 1.3437 0.2160 
-1 -12 17 2.1943 -0.1163 
-1 -11 1 -2.6517 0.7785 
-1 -11 2 4.4915 -0.5665 
-1 -11 3 4.8636 0.1418 
-1 -11 4 1.4005 -0.8329 
-1 -11 5 -6.0203 0.1350 
-1 -11 6 9.0702 0.6128 
-1 -11 7 0.3987 -0.2168 
-1 -11 8 3.3866 0.1812 
-1 -11 9 -1.4552 -0.2899 
-1 -11 10 -2.8252 0.0940 
-1 -11 11 -3.5741 0.0711 
-1 -11 12 3.1672 -0.1918 
-1 -11 13 2.8626 0.0350 
-1 -11 14 2.4540 -0.0719 
-1 -11 15 -2.2326 0.0593 
-1 -11 16 1.4568 -0.0001 
-1 -11 17 3.6240 0.0798 
-1 -11 18 3.5025 0.4710 
-1 -10 1 -2.3951 -1.1509 
-1 -10 2 5.4618 0.6246 
-1 -10 3 -3.3959 -0.8280 
-1 -10 4 -13.3933 0.2615 
-1 -10 5 5.4955 -0.0807 
-1 -10 6 -2.4391 0.5743 
-1 -10 7 1.4320 -0.2847 
-1 -10 8 -4.8328 -0.2523 
-1 -10 9 0.5157 0.0108 
-1 -10 10 0.5295 -0.1783 
-1 -10 11 0.7588 0.0782 
-1 -10 12 -1.8349 -0.0553 
-1 -10 13 1.9228 0.1154 
-1 -10 14 -6.2351 0.0681 
-1 -10 15 -3.5646 -0.1178 
-1 -10 16 0.2817 0.0658 
-1 -10 17 2.3590 -0.2192 
-1 -10 18 -7.0388 -0.2075 
-1 -10 19 -0.8603 0.0026 
-1 -10 20 -4.1197 0.4233 
-1 -9 1 2.5363 -2.4371 
-1 -9 2 -11.4992 1.3625 
-1 -9 3 3.8719 0.3090 
-1 -9 4 -2.7226 0.4926 
-1 -9 5 2.8346 -0.4341 
-1 -9 6 13.8124 -0.3467 
-1 -9 7 -6.8837 0.2817 
-1 -9 8 -6.6220 -0.3767 
-1 -9 9 10.6523 -0.0482 
-1 -9 10 7.7848 -0.0915 
-1 -9 11 2.2955 0.1724 
-1 -9 12 -1.2494 0.2316 
-1 -9 13 0.1822 -0.3145 
-1 -9 14 1.3361 0.1808 
-1 -9 15 0.8036 -0.0261 
-1 -9 16 2.6718 -0.1150 
-1 -9 17 1.3510 0.0302 
-1 -9 18 0.3325 -0.0017 
-1 -9 19 2.6754 0.1201 
-1 -9 20 3.5690 -0.3075 
-1 -9 21 -0.1673 0.2739 
-1 -8 1 -9.1649 1.2031 
-1 -8 2 14.1512 0.2985 
-1 -8 3 -14.9775 1.4759 
-1 -8 4 4.4580 -0.4872 
-1 -8 5 0.3166 -0.1573 
-1 -8 6 5.0344 -0.4249 
-1 -8 7 -13.2024 0.3065 
-1 -8 8 -9.9613 0.1968 
-1 -8 10 0.3338 0.0297 
-1 -8 11 -8.5706 0.0926 
-1 -8 12 -1.7579 0.0832 
-1 -8 13 1.5826 -0.0979 
-1 -8 14 1.2736 -0.0873 
-1 -8 15 -5.9965 0.1480 
-1 -8 16 1.7313 -0.1012 
-1 -8 17 -0.8560 0.0060 
-1 -8 18 1.0605 -0.1131 
-1 -8 19 -1.0999 0.0816 
-1 -8 20 2.1695 -0.1712 
-1 -8 21 -0.3533 -0.1266 
-1 -8 22 3.6065 0.4234 
-1 -8 23 -2.3912 0.0656 
-1 -7 1 -1.3319 1.6328 
-1 -7 2 -22.4320 -0.9727 
-1 -7 3 22.5204 0.4066 
-1 -7 4 -7.9005 0.0091 
-1 -7 5 2.2828 -0.1535 
-1 -7 6 4.0043 0.2603 
-1 -7 7 -9.2930 -0.0547 
-1 -7 8 -6.6511 0.4794 
-1 -7 9 20.1412 -0.2518 
-1 -7 10 -0.1041 -0.1701 
-1 -7 12 -9.3048 -0.1617 
-1 -7 13 2.6699 0.2068 
-1 -7 14 2.4028 -0.2485 
-1 -7 15 1.8729 -0.0185 
-1 -7 16 -1.7883 0.0707 
-1 -7 17 4.2736 -0.0041 
-1 -7 18 -4.2760 0.2275 
-1 -7 19 -1.3246 -0.0941 
-1 -7 20 -4.6279 0.1282 
-1 -7 21 1.6088 0.1750 
-1 -7 22 -1.3800 -0.3498 
-1 -7 23 -1.6768 -0.2850 
-1 -7 24 -3.2401 0.4209 
-1 -6 1 -11.9329 -0.8418 
-1 -6 2 10.5129 -0.1055 
-1 -6 3 4.0131 -1.6358 
-1 -6 4 6.6151 1.6080 
-1 -6 5 0.2091 -0.0599 
-1 -6 6 -4.8245 0.0170 
-1 -6 7 1.3318 -0.2058 
-1 -6 8 -6.3561 0.0155 
-1 -6 9 8.2214 0.2574 
-1 -6 10 7.8548 -0.4376 
-1 -6 11 -7.7630 0.0484 
-1 -6 12 -4.4548 -0.0209 
-1 -6 14 6.1790 -0.0543 
-1 -6 15 -3.2329 -0.1554 
-1 -6 16 -2.5569 0.1293 
-1 -6 17 -3.8657 0.0155 
-1 -6 18 -0.3210 0.0649 
-1 -6 19 -0.9682 0.0375 
-1 -6 20 -1.1504 -0.0941 
-1 -6 21 -0.5861 -0.0073 
-1 -6 22 -0.2950 0.0247 
-1 -6 23 3.6627 -0.0754 
-1 -6 24 0.4188 -0.1787 
-1 -6 25 1.4337 0.5206 
-1 -5 1 -25.9908 -1.9514 
-1 -5 2 21.6344 0.0948 
-1 -5 3 8.3265 -0.1114 
-1 -5 4 -20.5144 1.2319 
-1 -5 5 -22.7748 -0.0551 
-1 -5 6 13.2334 -1.0285 
-1 -5 7 -6.6982 0.2285 
-1 -5 8 19.2094 -0.2143 
-1 -5 9 -0.2680 0.3625 
-1 -5 10 3.2216 -0.1792 
-1 -5 11 -7.8599 -0.2084 
-1 -5 12 0.6707 0.2409 
-1 -5 13 -2.7057 0.0440 
-1 -5 14 8.9338 0.0614 
-1 -5 15 -7.4261 -0.0423 
-1 -5 16 -0.1025 -0.1273 
-1 -5 17 0.5917 0.0796 
-1 -5 18 7.3564 -0.1661 
-1 -5 19 3.8306 0.1407 
-1 -5 20 0.9398 0.1022 
-1 -5 21 -6.3953 -0.0358 
-1 -5 22 1.5284 0.0953 
-1 -5 23 -0.3470 -0.0599 
-1 -5 24 1.3601 0.0698 
-1 -5 25 -2.3203 -0.5016 
-1 -4 1 -0.6349 2.9726 
-1 -4 2 19.0733 -0.9976 
-1 -4 3 11.3070 1.2548 
-1 -4 4 -9.9716 -1.0904 
-1 -4 5 -9.7786 0.4670 
-1 -4 6 -15.8975 -0.5413 
-1 -4 7 39.5811 0.1939 
-1 -4 8 -13.2614 0.0194 
-1 -4 9 -3.1413 0.1072 
-1 -4 10 -4.5278 0.3769 
-1 -4 11 -0.8331 -0.2103 
-1 -4 12 0.7910 -0.0199 
-1 -4 13 11.5116 0.0365 
-1 -4 14 -4.1426 -0.1002 
-1 -4 15 2.8403 0.0387 
-1 -4 16 -4.0471 -0.1367 
-1 -4 17 3.7088 0.0285 
-1 -4 18 -3.4568 0.0877 
-1 -4 19 0.4760 0.0611 
-1 -4 20 -0.3536 0.0617 
-1 -4 21 0.3319 -0.1311 
-1 -4 22 1.1357 0.0356 
-1 -4 23 6.2711 -0.0756 
-1 -4 24 -2.9021 -0.0764 
-1 -4 25 1.4133 0.0415 
-1 -4 26 -0.4843 -0.1246 
-1 -3 1 31.2618 2.3840 
-1 -3 2 8.3807 -1.1003 
-1 -3 3 17.1957 -0.4929 
-1 -3 5 -8.5117 0.4323 
-1 -3 6 23.1715 0.6711 
-1 -3 7 17.2072 -0.3149 
-1 -3 8 -15.4724 0.1167 
-1 -3 9 -18.5102 0.0825 
-1 -3 10 -4.4244 0.2988 
-1 -3 11 10.7954 -0.1433 
-1 -3 12 2.6941 -0.3715 
-1 -3 13 1.8585 0.2091 
-1 -3 14 -6.9856 0.0013 
-1 -3 15 -13.0597 0.0980 
-1 -3 16 5.9288 0.0701 
-1 -3 17 4.1173 -0.2050 
-1 -3 18 -5.1575 0.1770 
-1 -3 19 2.1624 -0.0435 
-1 -3 20 -3.6592 0.0547 
-1 -3 21 -2.7499 -0.1078 
-1 -3 22 -0.6816 -0.0568 
-1 -3 23 -1.0106 0.2694 
-1 -3 24 -3.0358 -0.2042 
-1 -3 25 0.4737 -0.0772 
-1 -3 26 -2.8287 0.1517 
-1 -3 27 -0.2583 0.0194 
-1 -2 1 -67.5348 -1.0446 
-1 -2 2 -3.3036 0.5997 
-1 -2 3 17.5236 -2.2685 
-1 -2 4 34.5004 0.3196 
-1 -2 5 -26.5450 0.0622 
-1 -2 6 33.4899 0.7086 
-1 -2 7 20.0079 -0.4279 
-1 -2 8 -10.7690 -0.4299 
-1 -2 9 -21.8439 0.1760 
-1 -2 10 12.8208 0.0749 
-1 -2 11 -12.6415 -0.0865 
-1 -2 12 8.7516 -0.1510 
-1 -2 13 -4.5854 0.0390 
-1 -2 14 -9.4045 0.1970 
-1 -2 15 -3.5117 -0.0329 
-1 -2 17 -0.1138 -0.0132 
-1 -2 18 -2.6677 -0.0636 
-1 -2 19 -4.5235 -0.0104 
-1 -2 20 3.2631 0.0603 
-1 -2 21 1.3695 0.0395 
-1 -2 22 5.6039 -0.1413 
-1 -2 23 -1.5111 0.0633 
-1 -2 24 5.3966 0.1124 
-1 -2 25 -4.3364 -0.0546 
-1 -2 26 4.8568 0.0572 
-1 -2 27 1.6068 0.1183 
-1 -1 1 -76.0699 -1.5528 
-1 -1 2 -48.8609 1.2432 
-1 -1 3 0.5031 0.2002 
-1 -1 4 14.3339 0.4465 
-1 -1 5 -7.4093 -0.0258 
-1 -1 6 -4.0174 -0.1310 
-1 -1 7 -2.3969 0.2148 
-1 -1 8 -10.5514 -0.3689 
-1 -1 9 8.6999 -0.1410 
-1 -1 10 16.0714 0.0534 
-1 -1 11 22.2978 0.0862 
-1 -1 12 -1.3266 0.2839 
-1 -1 13 6.0106 -0.3152 
-1 -1 14 -8.6807 0.1986 
-1 -1 15 3.3636 0.1065 
-1 -1 16 5.9481 -0.0011 
-1 -1 17 3.3776 0.0311 
-1 -1 18 -8.3629 -0.2199 
-1 -1 19 4.0407 -0.0192 
-1 -1 20 -1.1932 -0.0011 
-1 -1 21 0.3312 0.0058 
-1 -1 22 -2.3774 0.0022 
-1 -1 23 1.1290 -0.1578 
-1 -1 24 -5.0113 0.2023 
-1 -1 25 0.0665 -0.0328 
-1 -1 26 -4.2586 -0.0155 
-1 -1 27 0.0432 0.0727 
-1 0 1 72.6457 1.3230 
-1 0 2 -84.4019 2.0265 
-1 0 3 81.4890 1.2772 
-1 0 4 -13.9978 -1.8528 
-1 0 5 -39.7563 0.1018 
-1 0 6 -20.5953 0.1063 
-1 0 7 17.4017 0.3278 
-1 0 8 -23.4104 0.0572 
-1 0 9 4.4609 -0.3663 
-1 0 10 -0.1021 0.3950 
-1 0 11 -8.1769 0.2350 
-1 0 12 -6.5539 0.1125 
-1 0 13 -7.3898 -0.2347 
-1 0 14 -7.3272 -0.0417 
-1 0 15 6.9016 0.1020 
-1 0 16 3.0371 -0.0238 
-1 0 17 -4.7584 -0.0621 
-1 0 18 -2.2075 -0.0444 
-1 0 19 -0.3814 -0.0714 
-1 0 20 4.9860 0.1216 
-1 0 21 2.9484 0.0242 
-1 0 22 0.2102 -0.0198 
-1 0 23 0.0307 -0.0889 
-1 0 24 0.6038 0.0583 
-1 0 25 -1.3994 0.0343 
-1 0 26 -1.0802 0.0323 
-1 0 27 0.5754 -0.0244 
-1 1 1 -222.1957 1.7306 
-1 1 2 59.5798 -0.4181 
-1 1 3 93.5911 -0.7616 
-1 1 4 44.7926 -1.3258 
-1 1 5 -51.1514 -0.3548 
-1 1 6 6.1867 0.6431 
-1 1 7 2.0406 -0.0709 
-1 1 8 27.2611 0.4145 
-1 1 9 -19.4965 -0.4022 
-1 1 10 17.5654 0.1319 
-1 1 11 -1.2972 0.3276 
-1 1 12 -2.3572 -0.2245 
-1 1 13 4.4136 -0.0770 
-1 1 14 8.5010 -0.1215 
-1 1 15 -3.7597 0.0161 
-1 1 16 1.9050 0.0177 
-1 1 17 -3.2645 -0.0341 
-1 1 18 2.5055 0.1706 
-1 1 19 -0.1063 -0.1880 
-1 1 20 2.9782 0.0249 
-1 1 21 2.2328 0.1548 
-1 1 22 -1.4451 -0.0930 
-1 1 23 -3.5667 0.0435 
-1 1 24 2.4158 -0.0179 
-1 1 25 5.5438 0.0577 
-1 1 26 3.1117 -0.0079 
-1 1 27 1.2731 0.1335 
-1 2 1 -0.3727 0.3038 
-1 2 3 48.8760 -1.6283 
-1 2 4 -39.1828 1.5874 
-1 2 5 -51.2677 -0.3098 
-1 2 6 12.7053 0.4150 
-1 2 7 22.0754 -0.2345 
-1 2 8 -8.2943 0.3267 
-1 2 9 9.8046 -0.0486 
-1 2 10 -2.9662 -0.3980 
-1 2 11 -11.5099 0.0905 
-1 2 12 -5.3713 0.0341 
-1 2 13 4.7506 -0.0099 
-1 2 14 4.1036 -0.0279 
-1 2 15 3.2849 -0.0181 
-1 2 16 -8.2966 0.0460 
-1 2 17 3.4165 0.1278 
-1 2 18 0.6051 -0.0156 
-1 2 19 1.0025 -0.1476 
-1 2 20 2.7234 -0.1480 
-1 2 21 2.3690 0.1849 
-1 2 22 4.8813 0.0162 
-1 2 23 2.6918 -0.0998 
-1 2 24 -3.4808 0.0135 
-1 2 25 -3.3651 0.1665 
-1 2 26 3.1977 -0.0906 
-1 2 27 1.7757 -0.0301 
-1 2 28 -0.3012 -0.0649 
-1 3 1 -9.2320 -3.6119 
-1 3 2 11.9164 0.5306 
-1 3 3 -3.5925 0.7645 
-1 3 4 -46.1423 1.4686 
-1 3 5 25.7839 -0.2989 
-1 3 6 -6.6219 -0.8041 
-1 3 7 29.4644 0.3621 
-1 3 8 -11.0548 0.1794 
-1 3 9 -5.5027 0.1070 
-1 3 10 -3.6076 -0.3671 
-1 3 11 3.8800 -0.0679 
-1 3 12 -8.4774 0.4853 
-1 3 13 17.4650 -0.0777 
-1 3 14 -5.5860 -0.1184 
-1 3 15 -6.6989 -0.0811 
-1 3 16 4.1353 0.0500 
-1 3 17 3.0066 0.1419 
-1 3 18 0.8824 -0.1958 
-1 3 19 -2.3147 0.1047 
-1 3 20 -2.0544 -0.1283 
-1 3 21 -8.1875 0.0307 
-1 3 22 -7.8612 0.1044 
-1 3 23 -2.9246 -0.0403 
-1 3 24 2.4015 0.0348 
-1 3 25 4.3390 -0.0657 
-1 3 26 -0.0716 -0.0576 
-1 3 27 0.9008 0.0258 
-1 3 28 -3.0431 -0.0785 
-1 4 1 10.8460 -0.5205 
-1 4 2 8.0636 -0.4464 
-1 4 3 -10.3481 1.6170 
-1 4 4 14.6075 -0.9038 
-1 4 5 -34.3849 -0.1408 
-1 4 6 27.6637 -0.3471 
-1 4 7 -13.4194 0.3581 
-1 4 8 -3.9481 -0.1193 
-1 4 9 -5.8271 0.1253 
-1 4 10 10.8323 0.1174 
-1 4 11 -10.1112 -0.1228 
-1 4 12 10.3603 0.0168 
-1 4 13 -8.2662 0.0428 
-1 4 14 -1.7863 -0.0776 
-1 4 15 -9.1180 -0.1227 
-1 4 16 4.9454 -0.0018 
-1 4 17 2.1660 0.0226 
-1 4 18 -1.4488 0.0586 
-1 4 19 -3.8190 0.0418 
-1 4 20 -4.0455 -0.0039 
-1 4 21 -4.6025 -0.0040 
-1 4 22 0.3697 0.0513 
-1 4 23 2.9607 0.0451 
-1 4 24 1.0343 -0.0849 
-1 4 25 -0.7863 -0.1147 
-1 4 26 -0.2328 0.0267 
-1 4 27 -3.0383 -0.0257 
-1 4 28 -1.9689 0.1269 
-1 5 1 -5.5288 1.3740 
-1 5 2 8.9503 -2.4381 
-1 5 3 -13.6601 0.5213 
-1 5 4 -19.3798 0.0303 
-1 5 5 18.7776 0.0307 
-1 5 6 3.2719 0.4438 
-1 5 7 10.0170 -0.3116 
-1 5 8 -10.1328 0.0642 
-1 5 9 -6.2962 0.2770 
-1 5 10 12.2206 -0.0487 
-1 5 11 3.5007 -0.1105 
-1 5 12 -13.4441 -0.3921 
-1 5 13 11.2309 0.3070 
-1 5 14 -8.7539 -0.0530 
-1 5 15 5.6426 -0.0098 
-1 5 16 4.6753 -0.0166 
-1 5 17 -0.1867 -0.0819 
-1 5 18 2.1777 0.2639 
-1 5 19 3.7129 -0.0188 
-1 5 20 6.9249 -0.0537 
-1 5 21 -1.4617 -0.1400 
-1 5 22 5.3063 0.0253 
-1 5 23 4.7252 0.0572 
-1 5 24 -10.1184 -0.1203 
-1 5 25 -6.5528 0.0014 
-1 5 26 4.4435 0.0624 
-1 5 27 -1.0409 -0.0394 
-1 6 1 19.3169 -1.2979 
-1 6 2 -23.9281 -0.6179 
-1 6 3 13.1648 -0.1858 
-1 6 4 -0.2465 1.3305 
-1 6 5 3.3200 0.4337 
-1 6 6 9.7775 -0.0380 
-1 6 7 -6.3032 -0.3960 
-1 6 8 -17.3902 -0.1713 
-1 6 9 10.8714 0.3676 
-1 6 10 5.1470 -0.1796 
-1 6 11 2.3383 -0.3894 
-1 6 12 -1.4586 -0.1610 
-1 6 13 -0.8369 0.3474 
-1 6 14 -7.4248 0.0211 
-1 6 15 5.5902 0.0483 
-1 6 16 -0.0163 -0.0410 
-1 6 17 2.5502 0.0901 
-1 6 18 -4.2260 0.0004 
-1 6 19 -0.5891 0.1023 
-1 6 20 -7.1732 -0.0294 
-1 6 21 -4.5570 -0.1616 
-1 6 22 8.1353 0.0760 
-1 6 23 6.1022 0.0176 
-1 6 24 -1.3495 -0.0222 
-1 6 25 -0.4920 -0.0368 
-1 6 26 0.3248 0.0271 
-1 6 27 0.3793 -0.0038 
-1 7 1 -16.4502 -2.9016 
-1 7 2 7.6439 1.2766 
-1 7 3 -7.7037 1.0304 
-1 7 4 7.0319 0.4750 
-1 7 5 1.2985 0.1429 
-1 7 6 -0.1336 -0.5753 
-1 7 7 -1.1154 0.1790 
-1 7 8 0.5058 -0.4144 
-1 7 9 -3.9085 0.1323 
-1 7 10 16.1314 -0.0087 
-1 7 11 -10.6851 -0.1704 
-1 7 12 5.7785 0.2408 
-1 7 13 1.2461 -0.0286 
-1 7 14 9.3140 0.0810 
-1 7 15 3.3505 0.0235 
-1 7 16 3.8071 -0.0380 
-1 7 17 -11.3399 -0.0053 
-1 7 18 0.0711 -0.2672 
-1 7 19 -4.4455 0.1533 
-1 7 20 2.5627 0.0241 
-1 7 21 -4.0786 -0.0975 
-1 7 22 5.7075 -0.0394 
-1 7 23 1.0205 0.1061 
-1 7 24 -7.0117 0.1340 
-1 7 25 -3.3081 -0.0532 
-1 7 26 -2.9652 -0.0924 
-1 8 1 -9.2599 0.7225 
-1 8 2 -11.2976 1.3619 
-1 8 3 12.1299 0.7131 
-1 8 4 -1.2774 -1.2417 
-1 8 5 -12.4098 0.0674 
-1 8 6 8.0003 0.1488 
-1 8 7 -10.6594 0.0675 
-1 8 8 -1.8211 -0.3008 
-1 8 9 8.5846 -0.0488 
-1 8 10 -4.7701 0.3030 
-1 8 11 2.6518 0.1764 
-1 8 12 -9.4170 -0.0874 
-1 8 13 -1.1128 -0.1337 
-1 8 14 1.4236 0.1393 
-1 8 15 1.3407 -0.0136 
-1 8 16 -2.5542 0.0011 
-1 8 17 0.0558 -0.1700 
-1 8 18 -3.5282 0.0034 
-1 8 19 3.9677 0.0748 
-1 8 20 -0.1445 0.0500 
-1 8 21 -0.2709 -0.0080 
-1 8 22 -0.3481 -0.1623 
-1 8 23 -0.4652 0.1038 
-1 8 24 -3.6236 0.0394 
-1 8 25 9.1443 -0.0965 
-1 8 26 7.1463 -0.0109 
-1 9 1 0.9702 2.6473 
-1 9 2 2.2047 -0.1826 
-1 9 3 8.0851 -0.6769 
-1 9 4 -4.8615 -0.7648 
-1 9 5 7.6318 0.0747 
-1 9 6 -10.8476 0.3688 
-1 9 7 14.7269 -0.1927 
-1 9 8 -6.2019 0.2160 
-1 9 9 1.4499 -0.2587 
-1 9 10 -6.5241 0.2102 
-1 9 11 -8.2846 0.1869 
-1 9 12 5.5628 -0.2683 
-1 9 13 4.7599 0.0138 
-1 9 14 4.0018 0.0298 
-1 9 15 -1.9529 0.0504 
-1 9 16 -3.4992 0.0028 
-1 9 17 1.9077 -0.1211 
-1 9 18 4.8282 0.1611 
-1 9 19 8.7358 -0.0871 
-1 9 20 0.2524 0.1101 
-1 9 21 -1.7507 0.0119 
-1 9 22 -1.6841 -0.0585 
-1 9 23 -4.8869 0.0463 
-1 9 24 -2.2836 0.0936 
-1 9 25 -1.3097 0.0217 
-1 10 1 -6.5526 0.8349 
-1 10 2 -7.0187 0.2901 
-1 10 3 7.8596 -1.1558 
-1 10 4 -1.9182 0.2346 
-1 10 5 -10.9502 -0.0433 
-1 10 6 3.9810 -0.0833 
-1 10 7 -5.6367 -0.1473 
-1 10 8 14.6655 0.2423 
-1 10 9 -6.5863 -0.1932 
-1 10 10 -5.6781 0.0092 
-1 10 11 2.7280 0.0546 
-1 10 12 -4.5700 0.1235 
-1 10 13 1.2677 -0.0276 
-1 10 14 4.3278 -0.0434 
-1 10 15 -5.5879 0.0622 
-1 10 16 3.2039 -0.0233 
-1 10 17 1.7198 0.0754 
-1 10 18 -3.4780 -0.1113 
-1 10 19 -3.9350 -0.1295 
-1 10 20 1.1671 0.0737 
-1 10 21 1.4878 -0.0572 
-1 10 22 4.5794 0.0674 
-1 11 1 -0.4783 -0.8619 
-1 11 2 9.6194 0.5431 
-1 11 3 -4.4312 -0.3030 
-1 11 4 2.7165 0.1480 
-1 11 5 -4.9102 -0.2457 
-1 11 6 -3.8318 -0.3064 
-1 11 7 8.1721 0.3649 
-1 11 8 2.0986 0.1050 
-1 11 9 -0.4984 -0.1154 
-1 11 10 5.5241 -0.1852 
-1 11 11 -2.4974 0.0348 
-1 11 12 -4.0010 0.3174 
-1 11 13 -5.0350 -0.2316 
-1 11 14 1.2755 -0.0516 
-1 11 15 -9.4943 0.0438 
-1 11 16 0.5317 0.0701 
-1 11 17 -0.7742 0.1444 
-1 11 18 -2.1773 -0.2734 
-1 11 19 1.4205 0.1056 
-1 11 20 -3.9151 0.0143 
-1 11 21 1.1536 0.2119 
-1 11 22 -2.1969 -0.0040 
-1 12 1 2.8436 0.3762 
-1 12 2 -8.9444 0.1221 
-1 12 3 5.0357 0.0334 
-1 12 4 6.0605 -0.4118 
-1 12 5 8.3410 -0.3050 
-1 12 6 -0.1713 0.1871 
-1 12 7 -3.5152 0.2319 
-1 12 8 -5.3528 -0.0383 
-1 12 9 -2.2754 -0.0595 
-1 12 10 -3.9004 0.0010 
-1 12 11 3.2476 0.1835 
-1 12 12 -2.0408 0.0201 
-1 12 13 4.9088 -0.1270 
-1 12 14 -6.7759 -0.0145 
-1 12 15 0.7607 -0.1022 
-1 12 16 3.0690 0.1306 
-1 12 17 4.7174 -0.0916 
-1 12 18 -6.1134 0.0518 
-1 12 19 1.5539 -0.0391 
-1 12 20 -2.9960 0.0534 
-1 12 21 0.8273 0.0773 
-1 13 1 -1.8099 0.7418 
-1 13 2 3.0674 -0.9056 
-1 13 3 1.9008 -0.1751 
-1 13 4 -1.3125 0.0284 
-1 13 5 -2.7817 -0.1169 
-1 13 6 -0.1264 0.2385 
-1 13 7 7.3148 -0.1487 
-1 13 8 7.9310 0.1811 
-1 13 9 -2.2268 -0.0276 
-1 13 10 -2.3914 -0.1227 
-1 13 11 -0.5826 0.0605 
-1 13 12 -0.4206 -0.1306 
-1 13 13 -1.7803 0.1315 
-1 13 14 6.4420 -0.1328 
-1 13 15 -2.2711 -0.0520 
-1 13 16 3.0286 0.1061 
-1 13 17 -5.8524 -0.0452 
-1 13 18 -1.6468 0.2292 
-1 13 19 -0.8871 -0.0814 
-1 14 1 -3.6041 -0.7448 
-1 14 2 -1.7040 -0.5950 
-1 14 3 -5.9639 -0.0743 
-1 14 4 3.1252 0.4129 
-1 14 5 1.2381 0.1736 
-1 14 6 0.7854 -0.0429 
-1 14 7 -1.1137 -0.0632 
-1 14 8 -5.2459 0.0383 
-1 14 9 -2.7956 0.1110 
-1 14 10 4.5335 0.0193 
-1 14 11 7.7902 -0.2913 
-1 14 12 4.6696 0.0028 
-1 14 13 -3.5909 0.0849 
-1 14 14 -1.5967 -0.0452 
-1 14 15 -0.9824 0.1138 
-1 14 16 -3.2574 -0.0557 
-1 14 17 -0.4509 0.2446 
-1 15 1 -4.3881 -1.2279 
-1 15 2 -0.1824 0.0303 
-1 15 3 6.5234 0.5749 
-1 15 4 3.6113 0.3724 
-1 15 5 -1.5739 0.2545 
-1 15 6 -3.5329 -0.4697 
-1 15 7 6.7979 0.2370 
-1 15 8 0.1481 -0.2648 
-1 15 9 -2.2161 0.0855 
-1 15 10 -0.1201 -0.0500 
-1 15 11 4.0396 -0.2656 
-1 15 12 -2.3229 0.2531 
-1 15 13 1.0887 -0.1023 
-1 15 14 0.3828 0.1072 
-1 16 1 -6.2274 0.3374 
-1 16 2 0.2057 -0.0503 
-1 16 3 2.1253 0.4658 
-1 16 4 -4.1156 -0.2085 
-1 16 5 -5.8814 -0.1469 
-1 16 6 -3.0703 0.1521 
-1 16 7 1.4182 -0.2315 
-1 16 8 -1.0225 0.0596 
-1 16 9 -0.9115 0.0542 
0 -16 1 3.2730 0.7709 
0 -16 2 -8.5124 -0.3247 
0 -16 3 -0.8191 0.3853 
0 -16 4 4.9725 0.0102 
0 -15 1 -3.0855 -0.5303 
0 -15 2 3.4922 0.8318 
0 -15 3 2.8099 -0.2346 
0 -15 4 1.0755 0.0458 
0 -15 5 1.0939 -0.2192 
0 -15 6 3.2828 -0.2493 
0 -15 7 0.0212 -0.1476 
0 -15 8 -1.8574 -0.1183 
0 -14 1 1.1380 0.5394 
0 -14 2 -0.5651 0.7293 
0 -14 3 -1.2948 -0.2562 
0 -14 4 -1.3090 -0.7050 
0 -14 5 -3.4029 0.0927 
0 -14 6 -4.2671 -0.2502 
0 -14 7 5.2265 0.1269 
0 -14 8 -1.0460 -0.0767 
0 -14 9 2.6778 0.2540 
0 -14 10 0.3211 0.1243 
0 -14 11 -3.1575 0.6168 
0 -14 12 1.8469 -0.0600 
0 -13 1 3.1518 1.1472 
0 -13 2 -2.8293 -0.6197 
0 -13 3 -8.7855 -0.4392 
0 -13 4 -3.0250 -0.3597 
0 -13 5 0.2855 -0.0409 
0 -13 6 -2.3458 0.4383 
0 -13 7 -3.7238 -0.0866 
0 -13 8 0.0194 0.2019 
0 -13 9 -3.6883 -0.1818 
0 -13 10 3.7297 0.1510 
0 -13 11 3.0204 0.1864 
0 -13 12 -1.9446 0.0214 
0 -13 13 -2.1518 0.0547 
0 -13 14 2.3393 -0.2698 
0 -12 1 -6.2771 0.1323 
0 -12 2 -2.3015 -0.4148 
0 -12 3 2.4869 -0.5163 
0 -12 4 7.1787 0.5711 
0 -12 5 -2.5448 -0.1783 
0 -12 6 3.7356 0.1412 
0 -12 7 4.2580 -0.2654 
0 -12 8 -0.5281 0.1884 
0 -12 9 1.8583 0.0446 
0 -12 10 0.6627 -0.1693 
0 -12 11 -0.0615 0.1392 
0 -12 12 0.2427 -0.0739 
0 -12 13 -0.3390 -0.1181 
0 -12 14 -1.0142 -0.0399 
0 -12 15 -0.8870 -0.2786 
0 -12 16 -1.1993 0.0244 
0 -11 1 -3.1698 -1.4180 
0 -11 2 1.6291 0.5877 
0 -11 3 7.9544 0.0277 
0 -11 4 -6.4282 0.4280 
0 -11 5 -0.9156 -0.1743 
0 -11 6 -4.4351 -0.3861 
0 -11 7 0.7758 0.2094 
0 -11 8 2.3224 -0.2284 
0 -11 9 -0.3564 0.1345 
0 -11 10 -1.0527 -0.0052 
0 -11 11 1.0153 -0.0589 
0 -11 12 -3.9796 0.2660 
0 -11 13 5.6346 -0.1962 
0 -11 14 5.2182 0.1245 
0 -11 15 1.8964 -0.1664 
0 -11 16 -2.6314 0.0582 
0 -11 17 2.8451 0.0144 
0 -11 18 -1.4821 -0.2381 
0 -10 1 1.4138 -0.2073 
0 -10 2 -4.7192 -0.2332 
0 -10 3 5.9049 0.5197 
0 -10 4 0.0402 -0.6396 
0 -10 5 -1.6091 -0.0638 
0 -10 6 4.1502 -0.1837 
0 -10 7 0.4737 0.3238 
0 -10 8 -2.0156 0.0963 
0 -10 9 0.3108 0.1062 
0 -10 10 -2.9391 0.1065 
0 -10 11 -4.8357 -0.3567 
0 -10 12 -3.9121 0.1230 
0 -10 13 -1.2375 -0.0985 
0 -10 14 3.1030 0.0082 
0 -10 15 -3.9408 0.1301 
0 -10 16 0.2155 -0.2739 
0 -10 17 2.0356 0.1828 
0 -10 18 0.8300 0.2440 
0 -10 19 -4.2407 -0.0453 
0 -10 20 0.0263 0.0076 
0 -9 1 -8.5270 0.6369 
0 -9 2 15.9201 -2.2347 
0 -9 3 -6.9422 0.4031 
0 -9 4 -1.9751 -0.0351 
0 -9 7 -0.4728 -0.2872 
0 -9 8 2.6438 0.2743 
0 -9 9 -4.9252 -0.1116 
0 -9 10 8.9029 -0.1195 
0 -9 11 2.0355 -0.1309 
0 -9 12 -1.6218 -0.2487 
0 -9 13 3.5293 0.3644 
0 -9 14 3.7654 -0.1410 
0 -9 15 -6.9887 0.1116 
0 -9 16 -1.4457 0.1016 
0 -9 17 0.0476 -0.0518 
0 -9 18 0.9971 -0.0805 
0 -9 19 4.5133 -0.0717 
0 -9 20 3.8346 0.0599 
0 -9 21 2.3620 -0.2380 
0 -8 1 14.6049 -0.9337 
0 -8 2 -15.3738 -0.7346 
0 -8 3 8.9071 -0.0484 
0 -8 4 -13.4093 1.4922 
0 -8 5 -6.7015 0.0604 
0 -8 6 5.3516 0.1817 
0 -8 7 9.7164 -0.3767 
0 -8 10 -10.0561 -0.3936 
0 -8 11 4.2202 0.0477 
0 -8 12 -0.9292 -0.2005 
0 -8 13 3.5832 0.2836 
0 -8 14 0.1781 0.0205 
0 -8 15 -2.6587 -0.1066 
0 -8 16 -4.4281 0.0642 
0 -8 17 4.1051 -0.0697 
0 -8 18 -1.2164 0.1008 
0 -8 19 1.5767 0.0831 
0 -8 20 -1.0435 -0.1361 
0 -8 21 -1.0758 0.1758 
0 -8 22 -0.4714 -0.1488 
0 -8 23 1.6345 0.1724 
0 -7 1 -6.2486 -2.5669 
0 -7 2 5.8536 1.8372 
0 -7 3 -9.8713 0.6699 
0 -7 4 -1.8774 0.6575 
0 -7 5 -4.9393 0.2462 
0 -7 6 8.2482 -0.6339 
0 -7 7 6.6257 0.2751 
0 -7 8 -6.2668 -0.6408 
0 -7 9 -9.6467 0.4550 
0 -7 10 15.3693 -0.1183 
0 -7 11 3.1101 -0.0793 
0 -7 12 -3.6939 0.1356 
0 -7 13 -3.8667 -0.0957 
0 -7 14 3.1318 0.2030 
0 -7 15 -3.1684 -0.1595 
0 -7 16 2.9450 0.0036 
0 -7 17 -1.1086 0.0372 
0 -7 18 -0.3579 -0.1131 
0 -7 19 -3.3039 0.2900 
0 -7 20 1.0431 -0.0086 
0 -7 21 -2.7541 -0.2895 
0 -7 22 0.7023 0.0502 
0 -7 23 3.3669 0.1433 
0 -7 24 1.0546 -0.3194 
0 -6 1 -23.3446 0.8056 
0 -6 2 -16.6803 1.4874 
0 -6 3 10.5136 0.7965 
0 -6 4 8.3480 -1.7487 
0 -6 5 -2.1576 0.4299 
0 -6 6 27.3183 -0.1599 
0 -6 7 -13.5751 0.2469 
0 -6 8 -12.5957 -0.3597 
0 -6 9 -1.2781 0.0266 
0 -6 10 11.7524 0.4194 
0 -6 11 6.9507 -0.2453 
0 -6 12 -3.5782 -0.0444 
0 -6 13 -12.2189 -0.0303 
0 -6 14 4.5574 0.1456 
0 -6 15 2.9148 0.0926 
0 -6 16 2.9591 -0.1073 
0 -6 17 2.2574 0.0670 
0 -6 18 -3.2403 -0.0631 
0 -6 19 0.9449 0.0062 
0 -6 20 1.8247 0.1927 
0 -6 21 -4.9622 -0.0689 
0 -6 22 -1.6704 0.0560 
0 -6 23 0.3944 -0.1478 
0 -6 24 2.1393 0.1536 
0 -6 25 -1.9143 -0.6250 
0 -5 1 -6.7375 3.3218 
0 -5 2 -7.3443 -0.9573 
0 -5 3 16.6304 -0.4005 
0 -5 4 -3.6272 -1.1131 
0 -5 5 13.4385 0.2253 
0 -5 6 -27.0797 0.6198 
0 -5 7 19.9195 -0.3270 
0 -5 8 -14.5456 0.3397 
0 -5 9 6.3295 -0.5418 
0 -5 10 14.8642 0.2698 
0 -5 11 1.1946 0.2049 
0 -5 12 -15.7487 -0.3513 
0 -5 13 5.6802 0.1664 
0 -5 14 2.2268 0.0173 
0 -5 15 8.0002 0.1342 
0 -5 16 -5.2909 -0.0783 
0 -5 17 -2.0886 -0.1235 
0 -5 18 -4.1353 0.1710 
0 -5 19 2.2228 -0.1685 
0 -5 20 2.6958 0.0192 
0 -5 21 -3.1070 -0.0104 
0 -5 22 -2.6007 0.0308 
0 -5 23 9.6035 -0.0261 
0 -5 24 -1.0631 -0.3497 
0 -5 25 -2.9145 0.4221 
0 -4 1 -20.0236 1.0828 
0 -4 2 -2.7260 0.7901 
0 -4 3 30.6081 -1.5219 
0 -4 4 17.1543 0.9385 
0 -4 5 -31.1341 -0.1420 
0 -4 6 -10.5843 0.3066 
0 -4 7 -0.9124 -0.3422 
0 -4 8 16.0736 0.1303 
0 -4 9 -0.1365 -0.2914 
0 -4 10 3.4648 -0.1585 
0 -4 11 -2.4426 0.3924 
0 -4 12 -10.6522 -0.0613 
0 -4 13 -1.8810 -0.0322 
0 -4 14 11.8624 0.1454 
0 -4 15 -6.1211 0.0467 
0 -4 16 0.3698 0.0750 
0 -4 17 1.5682 -0.1971 
0 -4 18 -3.1441 -0.1155 
0 -4 19 3.9763 -0.1844 
0 -4 20 2.8959 0.0568 
0 -4 21 -3.5963 0.1892 
0 -4 22 -2.8366 -0.1705 
0 -4 23 -0.1406 0.1978 
0 -4 24 -4.0225 0.1260 
0 -4 25 -2.1252 -0.0794 
0 -4 26 2.8223 0.1015 
0 -3 1 18.5612 -1.5261 
0 -3 2 18.4027 2.3698 
0 -3 3 -2.4706 -0.4633 
0 -3 4 39.7458 0.2405 
0 -3 5 -35.6653 -0.6468 
0 -3 6 -11.8838 -0.7020 
0 -3 7 27.7412 0.5844 
0 -3 8 0.2297 -0.1942 
0 -3 9 -16.9487 0.0175 
0 -3 10 13.4715 -0.0599 
0 -3 11 -17.8802 0.2817 
0 -3 12 4.5584 0.4404 
0 -3 13 9.0997 -0.4567 
0 -3 14 4.6619 0.0506 
0 -3 15 -9.4733 -0.1092 
0 -3 16 -1.8008 -0.0034 
0 -3 17 -1.4515 0.0516 
0 -3 18 -1.1941 -0.1728 
0 -3 19 1.0268 0.0625 
0 -3 20 5.4739 0.0444 
0 -3 21 -1.5491 0.1715 
0 -3 22 5.2720 0.0928 
0 -3 23 0.6299 -0.2364 
0 -3 24 1.4576 0.1739 
0 -3 25 -1.9946 -0.2518 
0 -3 26 0.0583 -0.1822 
0 -3 27 -7.7283 0.2422 
0 -2 1 1.8085 1.6045 
0 -2 2 -6.5093 0.4737 
0 -2 3 27.8723 -0.1905 
0 -2 4 4.0929 -1.5911 
0 -2 5 -24.4100 -0.2410 
0 -2 6 -5.4573 -0.1942 
0 -2 7 39.1300 0.6362 
0 -2 8 8.0363 0.2964 
0 -2 9 3.4391 -0.1757 
0 -2 10 -23.8992 0.1930 
0 -2 11 3.5649 0.0751 
0 -2 12 -13.6170 0.1482 
0 -2 13 20.4061 -0.2670 
0 -2 14 -4.9019 -0.1498 
0 -2 15 -10.8078 -0.0020 
0 -2 16 -2.2426 0.0131 
0 -2 17 10.0123 0.1180 
0 -2 18 -3.8731 0.0091 
0 -2 19 3.2434 -0.0294 
0 -2 20 -4.4426 0.0391 
0 -2 21 -2.8993 0.0078 
0 -2 22 -2.0050 0.0249 
0 -2 23 0.7803 -0.1801 
0 -2 24 2.1861 0.0011 
0 -2 25 3.6893 0.0036 
0 -2 26 1.1198 -0.0882 
0 -2 27 5.1947 -0.0383 
0 -1 1 50.8820 2.1610 
0 -1 2 -138.7005 -1.9425 
0 -1 3 -7.1654 -0.9303 
0 -1 4 38.8239 -0.3322 
0 -1 5 5.6370 0.1538 
0 -1 6 -1.9742 0.6538 
0 -1 7 19.1940 -0.3068 
0 -1 8 -9.1915 0.8254 
0 -1 9 -6.4922 -0.2642 
0 -1 10 3.6331 -0.1553 
0 -1 11 -7.1677 -0.0415 
0 -1 12 17.0890 -0.1104 
0 -1 13 10.8236 0.2325 
0 -1 14 -10.3659 -0.2488 
0 -1 15 -8.8664 0.1010 
0 -1 16 9.2483 0.0931 
0 -1 17 3.8641 -0.0392 
0 -1 18 4.4996 0.1556 
0 -1 19 -5.3606 -0.1136 
0 -1 20 -1.3935 -0.1000 
0 -1 21 0.9118 -0.0007 
0 -1 22 -1.0565 0.0253 
0 -1 23 -0.5697 0.0496 
0 -1 24 1.4996 -0.1354 
0 -1 25 -0.9155 0.1187 
0 -1 26 -1.9303 0.0060 
0 -1 27 -2.5024 0.1049 
0 0 3 -64.2240 -0.2359 
0 0 4 12.0809 1.8505 
0 0 5 -33.5810 -0.1606 
0 0 6 3.5973 0.3430 
0 0 7 -21.3781 -0.5351 
0 0 8 10.9446 0.1235 
0 0 9 -27.0543 0.2626 
0 0 10 5.7583 -0.3953 
0 0 11 7.6826 -0.2203 
0 0 12 2.9594 0.1025 
0 0 13 -5.9872 0.3228 
0 0 14 -2.2960 -0.1085 
0 0 15 -8.5935 -0.0395 
0 0 16 7.6318 0.0536 
0 0 17 1.9714 -0.0324 
0 0 18 -0.7033 0.0203 
0 0 19 -2.2164 -0.0010 
0 0 20 1.5386 -0.2168 
0 0 21 2.0542 0.0372 
0 0 22 1.4837 0.0585 
0 0 23 -0.8604 0.0332 
0 0 24 1.5683 -0.0198 
0 0 25 1.6198 0.0815 
0 0 26 -4.6338 0.0355 
0 0 27 -4.9972 0.0631 
0 1 2 -81.2088 1.5506 
0 1 3 93.6083 1.3050 
0 1 4 78.1268 1.3088 
0 1 5 1.5487 -0.3581 
0 1 6 -6.8237 -0.6169 
0 1 7 3.0726 0.2106 
0 1 8 -20.0403 -0.3914 
0 1 9 10.8503 0.5213 
0 1 10 1.4478 -0.1744 
0 1 11 9.2964 -0.2095 
0 1 12 -3.5246 0.2779 
0 1 13 3.6131 -0.0483 
0 1 14 -5.4896 0.0623 
0 1 15 9.9254 -0.1453 
0 1 16 -2.7174 -0.0113 
0 1 17 2.4412 0.0181 
0 1 18 -3.6573 -0.1659 
0 1 19 -4.2537 0.2505 
0 1 20 0.6689 -0.1934 
0 1 21 10.2322 -0.0814 
0 1 22 -1.2738 0.1855 
0 1 23 3.8336 0.0088 
0 1 24 2.4769 -0.0044 
0 1 25 -1.9208 -0.0929 
0 1 26 -0.0729 -0.0954 
0 1 27 4.0229 0.0400 
0 1 28 0.4985 0.0428 
0 2 0 7.9562 4.3327 
0 2 1 -75.0607 1.6005 
0 2 2 -28.6689 0.7774 
0 2 4 -16.3498 -1.1331 
0 2 5 44.0887 0.1497 
0 2 6 -52.5651 -0.0550 
0 2 7 -9.1217 0.0720 
0 2 8 7.6327 -0.1779 
0 2 9 7.4691 0.4228 
0 2 10 11.0117 0.3242 
0 2 11 2.9061 -0.2330 
0 2 12 -17.2949 -0.0947 
0 2 13 2.7755 0.0259 
0 2 14 9.9263 0.0484 
0 2 15 -5.1999 -0.0895 
0 2 16 3.0891 -0.1021 
0 2 17 -3.6983 -0.0352 
0 2 18 0.2874 0.1114 
0 2 19 -3.0930 0.1963 
0 2 20 4.1354 -0.0571 
0 2 21 -0.2668 -0.1222 
0 2 22 -0.8193 0.0636 
0 2 23 -3.2065 0.0907 
0 2 24 -7.9920 -0.0275 
0 2 25 -5.7784 -0.0523 
0 2 26 2.8231 -0.0070 
0 2 27 6.9037 0.0307 
0 2 28 -1.2612 0.0352 
0 3 1 9.8268 1.9173 
0 3 2 1.0277 -2.3752 
0 3 3 -52.3109 0.2137 
0 3 4 60.2136 -0.7002 
0 3 5 -44.2872 0.4805 
0 3 6 8.7513 0.6179 
0 3 7 -15.3348 -0.5551 
0 3 8 12.8786 0.0504 
0 3 9 4.6850 0.1741 
0 3 10 6.4410 0.2468 
0 3 11 -20.1578 -0.2734 
0 3 12 1.0375 -0.4539 
0 3 13 -5.3722 0.2844 
0 3 14 4.5800 0.0008 
0 3 15 -2.8693 0.1021 
0 3 16 -3.9279 -0.0541 
0 3 17 -2.2935 -0.0692 
0 3 18 -0.8356 0.1604 
0 3 19 0.0650 -0.0379 
0 3 20 7.0932 0.0645 
0 3 21 -4.9277 -0.1621 
0 3 22 -4.3145 -0.0965 
0 3 23 0.1393 0.1021 
0 3 24 3.1793 -0.0535 
0 3 25 0.5595 0.0145 
0 3 26 2.9212 0.1227 
0 3 27 -3.3312 0.0415 
0 3 28 0.6311 0.0424 
0 4 0 -8.7377 -0.5638 
0 4 1 -12.2187 -0.9388 
0 4 2 -12.9471 -0.9273 
0 4 3 45.0783 0.8236 
0 4 4 -10.7984 0.9315 
0 4 5 12.4914 0.2471 
0 4 6 -35.0116 -0.0213 
0 4 7 22.1214 -0.3296 
0 4 8 13.2441 -0.2589 
0 4 9 -7.8131 0.0782 
0 4 10 -2.1632 0.0561 
0 4 11 6.9267 -0.0245 
0 4 12 -11.3335 -0.2742 
0 4 13 15.5527 0.1906 
0 4 14 -3.2922 0.1337 
0 4 15 -2.9979 -0.0020 
0 4 16 1.2157 -0.1166 
0 4 17 3.3947 0.0251 
0 4 18 -0.0468 -0.0689 
0 4 19 2.3011 -0.0665 
0 4 20 -6.2394 0.1131 
0 4 21 -2.7065 -0.0630 
0 4 22 -8.5714 -0.1047 
0 4 23 2.7415 -0.0248 
0 4 24 -1.4677 0.0955 
0 4 25 -2.4731 -0.0167 
0 4 26 -3.7702 -0.0048 
0 4 27 1.6733 -0.1414 
0 4 28 -2.3174 -0.1159 
0 5 0 -12.5973 4.0595 
0 5 1 40.8468 -0.2028 
0 5 2 6.9441 0.5924 
0 5 3 11.1885 0.3088 
0 5 4 -7.1871 0.3862 
0 5 5 -30.0335 -0.3362 
0 5 6 8.0293 -0.7641 
0 5 7 19.5384 0.5914 
0 5 8 -12.8503 -0.3615 
0 5 9 1.0454 -0.0754 
0 5 10 -1.4607 0.1140 
0 5 11 0.1675 0.3730 
0 5 12 3.6178 0.0849 
0 5 13 1.4079 -0.3372 
0 5 14 -0.5400 0.1838 
0 5 15 -0.2697 -0.0120 
0 5 16 -2.0627 -0.0664 
0 5 17 1.8369 0.0626 
0 5 18 5.0146 -0.1647 
0 5 19 1.9054 0.1356 
0 5 20 7.3212 0.1873 
0 5 21 -1.4404 0.0900 
0 5 22 4.3482 -0.0764 
0 5 23 2.6005 -0.0986 
0 5 24 1.3485 0.1043 
0 5 25 3.5581 -0.0313 
0 5 26 6.3696 -0.1096 
0 5 27 1.0812 0.0135 
0 5 28 -5.2686 -0.0856 
0 6 0 17.4758 4.1058 
0 6 1 -17.2584 2.6111 
0 6 2 10.9629 -0.3871 
0 6 3 -14.4441 -0.6075 
0 6 4 -5.9168 -1.1153 
0 6 5 -2.3900 -0.0277 
0 6 6 13.4525 -0.1222 
0 6 7 2.2636 0.5373 
0 6 8 4.6324 -0.0950 
0 6 9 -19.1146 -0.1759 
0 6 10 14.7936 0.1183 
0 6 11 -3.1070 0.1966 
0 6 12 1.2410 -0.0647 
0 6 13 1.7540 -0.3292 
0 6 14 -3.9171 0.0804 
0 6 15 -6.2457 0.0450 
0 6 16 12.9773 0.0068 
0 6 17 -1.2739 -0.0141 
0 6 18 1.8599 0.0803 
0 6 19 -5.6221 -0.0358 
0 6 20 -0.6132 0.0710 
0 6 21 -1.5339 0.0760 
0 6 22 -1.9055 -0.1532 
0 6 23 2.4067 -0.0037 
0 6 24 -0.3948 -0.0257 
0 6 25 -4.3082 0.0474 
0 6 26 -4.8404 0.0292 
0 6 27 -1.7178 0.0082 
0 7 0 14.3634 -1.0469 
0 7 1 15.4390 0.9465 
0 7 2 -9.5869 -1.6897 
0 7 5 -13.9449 0.4003 
0 7 6 9.5136 0.4580 
0 7 7 5.7807 -0.1447 
0 7 8 -15.9409 0.3558 
0 7 9 5.4408 -0.4269 
0 7 10 -5.3716 -0.0862 
0 7 11 10.2376 0.0245 
0 7 12 3.5437 -0.1556 
0 7 13 -0.1705 0.0476 
0 7 14 -3.9774 -0.1278 
0 7 15 3.8672 0.0742 
0 7 16 -5.5940 0.1326 
0 7 17 0.2287 0.0280 
0 7 18 -5.3838 0.1461 
0 7 19 -0.9080 -0.2352 
0 7 20 -2.7599 0.0696 
0 7 21 -3.2807 0.0615 
0 7 22 -3.5358 -0.0854 
0 7 23 2.7605 -0.0710 
0 7 24 2.8428 -0.0425 
0 7 25 0.3784 0.0967 
0 7 26 -6.1498 0.0595 
0 7 27 1.0643 -0.0203 
0 8 0 -2.3821 -4.7688 
0 8 5 6.7507 -0.0182 
0 8 6 -9.0550 0.0587 
0 8 7 9.3688 -0.1573 
0 8 8 -7.1616 0.2249 
0 8 9 -2.7108 -0.3622 
0 8 10 12.6049 -0.2207 
0 8 11 -1.1037 0.0460 
0 8 12 -4.8983 0.1627 
0 8 13 -7.1584 0.1630 
0 8 14 -0.8274 -0.1075 
0 8 15 6.3734 0.0668 
0 8 16 5.0266 0.0187 
0 8 17 5.4580 0.1340 
0 8 18 -0.5588 -0.0689 
0 8 19 1.6208 -0.2036 
0 8 20 -1.0733 -0.0134 
0 8 21 -0.5759 0.1008 
0 8 22 0.1289 0.1308 
0 8 23 2.8215 -0.2030 
0 8 24 0.8723 0.1696 
0 8 25 2.6881 0.0824 
0 8 26 5.0741 0.0161 
0 9 1 0.6579 -1.6062 
0 9 2 -3.5980 1.4799 
0 9 3 6.7425 -0.1488 
0 9 4 13.7927 0.6837 
0 9 5 -8.4824 -0.4890 
0 9 6 18.4561 -0.3691 
0 9 7 -11.1282 0.2862 
0 9 8 0.4457 -0.0676 
0 9 9 -3.3990 -0.0836 
0 9 10 -5.8786 -0.2788 
0 9 11 1.8739 0.0940 
0 9 12 -1.4278 0.4481 
0 9 13 -6.4749 -0.2301 
0 9 14 8.3182 -0.0374 
0 9 15 -3.5208 0.0228 
0 9 16 0.9568 -0.0203 
0 9 17 -4.0770 0.0278 
0 9 18 -2.1311 -0.1431 
0 9 19 1.8693 0.0521 
0 9 20 0.1698 -0.1248 
0 9 21 -0.4575 0.0662 
0 9 22 0.5138 0.1892 
0 9 23 -6.1072 -0.1138 
0 9 24 -1.6683 0.0274 
0 9 25 -0.7799 0.0286 
0 9 26 -1.2382 0.0540 
0 10 0 -6.5558 -0.3172 
0 10 1 -10.7596 0.6599 
0 10 2 -5.5048 0.8264 
0 10 3 -1.1494 -0.5556 
0 10 4 3.0747 -0.4875 
0 10 5 1.9928 -0.2923 
0 10 6 -13.5719 0.1354 
0 10 7 3.5662 0.0342 
0 10 8 1.4235 0.0285 
0 10 9 -0.9244 0.1478 
0 10 10 3.7213 -0.0895 
0 10 11 -5.7179 -0.0324 
0 10 12 -5.9957 0.1332 
0 10 13 -2.8685 -0.0759 
0 10 14 7.6152 0.0337 
0 10 15 0.8866 -0.0874 
0 10 16 -5.6436 0.0661 
0 10 17 -1.8820 -0.0728 
0 10 18 -2.4536 0.1081 
0 10 19 1.7503 0.1095 
0 10 20 2.7319 -0.1998 
0 10 21 4.4210 0.1014 
0 10 22 -0.5186 0.0303 
0 10 23 1.4230 0.1102 
0 10 24 0.2845 -0.2527 
0 10 25 2.8794 -0.0529 
0 11 0 -1.8568 -0.8637 
0 11 1 9.9514 0.4933 
0 11 2 2.7060 -0.3871 
0 11 3 13.7750 -0.0332 
0 11 4 -4.0462 -0.2701 
0 11 5 -2.7193 0.1876 
0 11 6 -2.3908 0.3611 
0 11 7 -1.7615 -0.4922 
0 11 8 2.9932 0.1527 
0 11 9 6.7412 0.1700 
0 11 10 3.2185 0.0148 
0 11 11 4.0652 -0.0623 
0 11 12 -11.2873 -0.1497 
0 11 13 2.3685 0.2639 
0 11 14 -0.4001 -0.0873 
0 11 15 -4.5872 -0.0716 
0 11 16 -3.6869 0.0806 
0 11 17 6.5501 -0.1126 
0 11 18 -3.2366 0.1429 
0 11 19 4.2732 -0.0490 
0 11 20 -1.5156 -0.0751 
0 11 21 -1.6164 -0.0170 
0 11 22 2.4968 0.0947 
0 11 23 -0.1303 0.0480 
0 12 0 2.0030 -0.7718 
0 12 1 -0.8156 -0.8775 
0 12 2 1.9780 -0.1120 
0 12 3 -8.0471 0.2388 
0 12 4 6.9672 0.3869 
0 12 5 1.2038 0.1915 
0 12 6 2.6981 0.0114 
0 12 7 1.1715 -0.1524 
0 12 8 -1.6654 -0.0090 
0 12 9 -2.2013 0.0690 
0 12 10 1.3875 0.0814 
0 12 11 -3.5328 -0.1370 
0 12 12 3.1604 -0.0458 
0 12 13 0.9393 0.0766 
0 12 14 0.6973 -0.0452 
0 12 15 -3.7436 -0.0149 
0 12 16 6.1323 -0.0796 
0 12 17 -0.1193 0.0237 
0 12 18 -5.7676 0.0593 
0 12 19 -2.1849 -0.0740 
0 12 20 1.7276 0.0994 
0 12 21 -3.5044 -0.1891 
0 12 22 1.0300 0.1158 
0 13 0 9.3343 1.7202 
0 13 1 0.7634 -0.2506 
0 13 2 3.6782 0.3084 
0 13 3 5.7340 0.0453 
0 13 4 -1.7944 0.1290 
0 13 5 -5.3662 0.0338 
0 13 6 3.4621 -0.3944 
0 13 7 3.4683 0.2471 
0 13 8 2.9499 -0.2453 
0 13 9 2.0724 0.1125 
0 13 10 0.5485 0.1338 
0 13 11 -0.2895 -0.0887 
0 13 12 0.1972 0.1214 
0 13 13 2.8015 -0.1779 
0 13 14 -2.4167 0.0428 
0 13 15 -0.6193 0.0883 
0 13 16 -3.6290 -0.1441 
0 13 17 -1.6176 0.1036 
0 13 18 -3.7775 -0.2506 
0 13 19 -0.2739 0.2786 
0 13 20 0.0394 -0.0845 
0 14 0 -3.8648 1.7262 
0 14 1 -4.3804 1.1144 
0 14 2 -7.7442 -0.0243 
0 14 3 -4.2931 -0.0162 
0 14 4 -7.7674 -0.3555 
0 14 5 -0.2325 0.0413 
0 14 6 -6.2786 -0.0471 
0 14 7 -1.0335 -0.0562 
0 14 8 -3.0661 -0.1216 
0 14 9 1.8086 0.0765 
0 14 10 0.1275 0.2071 
0 14 11 0.1477 0.0864 
0 14 12 -2.7690 -0.1520 
0 14 13 -0.6228 -0.1098 
0 14 14 5.5643 0.1337 
0 14 15 -1.2035 -0.1771 
0 14 16 3.0564 0.1109 
0 14 17 6.6718 -0.0780 
0 14 18 0.6099 0.0790 
0 15 0 1.5126 0.4149 
0 15 1 -7.5700 0.6091 
0 15 2 -3.2224 -0.6476 
0 15 3 4.3989 -0.0342 
0 15 4 4.6356 -0.1924 
0 15 5 3.8194 0.1080 
0 15 6 3.1679 0.2872 
0 15 7 6.6298 -0.1763 
0 15 8 2.5204 0.0945 
0 15 9 -3.7349 0.1054 
0 15 10 0.0014 -0.0164 
0 15 11 -3.1839 0.1536 
0 15 12 3.0773 -0.3761 
0 15 13 4.2492 0.1229 
0 15 14 0.6227 -0.0172 
0 15 15 -1.1827 0.0423 
0 16 0 1.7722 -0.1304 
0 16 1 -1.0321 -0.6374 
0 16 2 -0.6140 0.0900 
0 16 3 1.5389 0.2266 
0 16 4 -1.6584 0.1138 
0 16 5 -4.0337 0.2258 
0 16 6 -2.0908 -0.2378 
0 16 7 0.1826 -0.0781 
0 16 8 -2.4803 0.0785 
0 16 9 -6.2252 -0.2602 
0 16 10 1.6990 0.1150 
0 16 11 1.5881 -0.3564 
1 -16 0 1.5559 0.8866 
1 -16 1 -4.3991 -0.0758 
1 -15 0 -2.8562 -0.7133 
1 -15 1 0.6251 0.1300 
1 -15 2 2.9851 -0.1881 
1 -15 3 3.9448 -0.2591 
1 -15 4 1.5241 0.0160 
1 -15 5 1.4289 0.2996 
1 -15 6 0.6910 -0.1483 
1 -15 7 4.4203 -0.1471 
1 -14 0 1.2632 -2.7199 
1 -14 1 -1.8483 -0.9245 
1 -14 2 1.2642 0.1391 
1 -14 3 -2.8424 0.1753 
1 -14 4 -6.1148 0.4398 
1 -14 5 -1.2198 -0.0642 
1 -14 6 1.4715 0.1769 
1 -14 7 0.4365 -0.4079 
1 -14 8 2.8957 0.0902 
1 -14 9 -1.8799 -0.2426 
1 -14 10 -1.8050 0.0095 
1 -14 11 -0.6702 0.2465 
1 -13 0 0.6967 -1.3942 
1 -13 1 3.6392 -0.6891 
1 -13 2 -2.3142 1.0515 
1 -13 3 -6.3598 0.0594 
1 -13 4 2.5826 0.0528 
1 -13 5 2.1408 -0.2234 
1 -13 6 -2.5546 -0.3249 
1 -13 7 2.1117 -0.0498 
1 -13 8 -4.1159 -0.1140 
1 -13 9 1.9325 0.3534 
1 -13 10 3.7505 0.1605 
1 -13 11 1.5932 0.0235 
1 -13 12 1.8163 -0.0602 
1 -13 13 2.7623 -0.7392 
1 -13 14 2.0193 0.3467 
1 -12 0 1.1789 1.1667 
1 -12 1 1.0996 0.4816 
1 -12 2 -3.1198 0.4413 
1 -12 3 4.1023 -0.3101 
1 -12 4 0.4919 -0.4978 
1 -12 5 0.7652 0.0670 
1 -12 6 -0.1059 -0.0810 
1 -12 7 0.1307 0.0988 
1 -12 8 0.8341 -0.0098 
1 -12 9 -2.2272 0.1132 
1 -12 10 -0.1574 0.1007 
1 -12 11 3.1639 -0.3393 
1 -12 12 -3.6719 0.2518 
1 -12 13 -2.4779 0.0587 
1 -12 14 -1.3116 -0.2031 
1 -12 15 -0.8162 -0.0520 
1 -12 16 0.8926 -0.6719 
1 -11 0 5.1899 1.1361 
1 -11 1 2.1793 0.5668 
1 -11 2 -1.2465 -0.9741 
1 -11 3 1.4207 -0.0009 
1 -11 4 1.7122 -0.1284 
1 -11 5 -3.1745 0.1539 
1 -11 6 2.2314 0.3886 
1 -11 7 -2.8215 -0.2349 
1 -11 8 -2.6831 0.1779 
1 -11 9 0.6631 -0.0284 
1 -11 10 4.6535 0.0402 
1 -11 11 2.9693 -0.1115 
1 -11 12 0.3321 -0.2311 
1 -11 13 -3.9444 0.2439 
1 -11 14 3.1047 -0.0695 
1 -11 15 0.7502 0.2032 
1 -11 16 -0.4538 -0.2394 
1 -11 17 -1.6566 -0.3131 
1 -11 18 2.1673 -0.2576 
1 -10 0 6.3859 -0.5289 
1 -10 1 -11.0445 -0.4716 
1 -10 2 -0.6321 -0.5415 
1 -10 3 -2.0161 0.5913 
1 -10 4 4.4212 0.6332 
1 -10 5 0.4587 -0.0908 
1 -10 6 -2.2825 0.1590 
1 -10 7 -5.7052 -0.2754 
1 -10 8 1.3583 -0.1904 
1 -10 9 -2.1015 0.0455 
1 -10 10 1.9917 -0.0446 
1 -10 11 0.7031 0.2684 
1 -10 12 -11.6365 -0.1559 
1 -10 13 -0.8361 0.2074 
1 -10 14 7.4055 0.0675 
1 -10 15 1.3793 -0.1287 
1 -10 16 1.4601 0.2168 
1 -10 17 3.1846 -0.2770 
1 -10 18 -3.5008 0.0906 
1 -10 19 -1.4400 0.3141 
1 -9 0 -2.9484 2.7410 
1 -9 1 10.6742 0.1628 
1 -9 2 -5.4324 0.5518 
1 -9 3 13.0919 0.2441 
1 -9 4 0.0768 0.1443 
1 -9 6 -8.1279 -0.5908 
1 -9 7 8.3484 0.4585 
1 -9 8 -4.6789 -0.3626 
1 -9 9 5.6915 0.2941 
1 -9 10 0.5238 0.0356 
1 -9 11 -0.1592 0.0627 
1 -9 12 -5.6026 -0.0488 
1 -9 13 -0.6415 -0.2611 
1 -9 14 4.9569 0.1967 
1 -9 15 -0.7930 -0.1392 
1 -9 16 -7.2994 -0.0991 
1 -9 17 0.2937 0.0889 
1 -9 18 0.9043 0.2471 
1 -9 19 4.8995 0.0578 
1 -9 20 8.0750 0.1053 
1 -9 21 1.4611 0.4919 
1 -8 0 2.7825 4.8462 
1 -8 1 -12.0780 2.3130 
1 -8 2 5.5453 -0.4529 
1 -8 3 -4.8743 -0.4583 
1 -8 4 -2.6760 -1.0741 
1 -8 5 -14.4687 0.3427 
1 -8 9 -10.6603 -0.0433 
1 -8 10 0.2115 0.1464 
1 -8 11 -2.5574 -0.2607 
1 -8 12 -1.7111 0.0745 
1 -8 13 3.0789 -0.2649 
1 -8 14 8.1196 0.0054 
1 -8 15 -5.7553 0.0776 
1 -8 16 -1.6420 -0.0169 
1 -8 17 -3.2729 0.0925 
1 -8 18 -0.3850 0.0021 
1 -8 19 -1.1361 0.3395 
1 -8 20 1.6840 0.1635 
1 -8 21 -1.9995 -0.3864 
1 -8 22 -0.4357 0.0204 
1 -7 0 13.3309 0.6377 
1 -7 1 9.6739 0.8974 
1 -7 2 -2.4701 -1.8029 
1 -7 3 6.6694 0.0439 
1 -7 4 3.4367 -0.5723 
1 -7 5 -23.8652 0.4564 
1 -7 6 10.7595 0.4988 
1 -7 7 17.3343 -0.1484 
1 -7 8 1.2016 0.2873 
1 -7 9 -8.3415 -0.5423 
1 -7 10 -4.9547 -0.0251 
1 -7 11 3.6578 0.0388 
1 -7 12 7.1017 -0.1619 
1 -7 13 -1.3640 0.1577 
1 -7 14 3.7205 -0.0263 
1 -7 15 -0.4107 0.1662 
1 -7 16 -5.3904 -0.0014 
1 -7 17 4.1227 0.0301 
1 -7 18 -0.2761 -0.0049 
1 -7 19 -0.3948 -0.2574 
1 -7 20 3.1005 0.1190 
1 -7 21 -1.5244 0.0594 
1 -7 22 -2.5930 -0.1287 
1 -7 23 2.5430 -0.0899 
1 -6 0 0.8561 -5.5438 
1 -6 1 10.2128 -2.2894 
1 -6 2 -9.7444 0.0886 
1 -6 3 0.2909 0.5892 
1 -6 4 -9.6207 1.0509 
1 -6 5 15.6176 -0.2310 
1 -6 6 -7.8631 0.2656 
1 -6 7 22.4945 -0.3772 
1 -6 8 -8.4031 0.1365 
1 -6 9 -17.0420 -0.2656 
1 -6 10 -2.0065 -0.2977 
1 -6 11 13.8667 0.4091 
1 -6 12 -3.3890 -0.0265 
1 -6 13 -0.9103 0.1021 
1 -6 14 -10.9200 -0.0427 
1 -6 15 1.1387 -0.0027 
1 -6 16 3.7968 0.0868 
1 -6 17 5.8279 -0.1476 
1 -6 18 -2.2332 -0.0345 
1 -6 19 -4.2298 -0.1095 
1 -6 20 2.4852 -0.0081 
1 -6 21 -0.0820 0.1094 
1 -6 22 -3.6573 -0.1303 
1 -6 23 0.9175 0.0241 
1 -6 24 0.5634 -0.3785 
1 -5 0 24.4278 -2.7965 
1 -5 1 0.9457 -1.8990 
1 -5 2 -22.6457 2.4564 
1 -5 3 -4.3041 -0.0421 
1 -5 4 18.9494 0.6278 
1 -5 5 -7.5869 -0.7015 
1 -5 6 15.8649 -0.4581 
1 -5 7 -4.8294 0.3589 
1 -5 8 0.4690 -0.1723 
1 -5 9 -12.6932 0.2011 
1 -5 10 3.7096 -0.2808 
1 -5 11 17.4675 0.1364 
1 -5 12 6.5467 0.3817 
1 -5 13 -13.6402 -0.3319 
1 -5 14 4.1193 0.0370 
1 -5 15 -3.4549 -0.1102 
1 -5 16 3.0476 0.1444 
1 -5 17 3.3411 0.0578 
1 -5 18 -3.5362 -0.1149 
1 -5 19 -5.8852 0.0197 
1 -5 20 1.8267 -0.1701 
1 -5 21 -0.3456 0.0409 
1 -5 22 -4.2128 -0.0152 
1 -5 23 -0.0222 -0.0230 
1 -5 24 1.6446 0.2240 
1 -5 25 -2.0589 -0.1100 
1 -4 0 17.1542 0.1889 
1 -4 1 -11.5195 1.2669 
1 -4 2 -5.1071 1.0836 
1 -4 3 -22.7531 -0.9654 
1 -4 4 37.6986 -0.8115 
1 -4 5 4.4948 -0.1607 
1 -4 6 -28.3384 -0.1886 
1 -4 7 13.0162 0.2948 
1 -4 8 6.0783 0.1704 
1 -4 9 -15.9937 0.1418 
1 -4 10 22.5006 -0.0139 
1 -4 11 1.3356 -0.3163 
1 -4 12 -7.9239 0.2768 
1 -4 13 -6.4942 -0.1772 
1 -4 14 -1.4371 0.0219 
1 -4 15 5.0271 0.0328 
1 -4 16 2.0448 0.0352 
1 -4 17 2.5579 0.1102 
1 -4 18 -6.2850 -0.0814 
1 -4 19 -3.4216 -0.0244 
1 -4 20 6.3255 -0.1292 
1 -4 21 1.8922 -0.1049 
1 -4 22 -1.6747 0.2417 
1 -4 23 0.5460 -0.1665 
1 -4 24 2.8630 0.0673 
1 -4 25 -2.6748 -0.1203 
1 -4 26 5.1260 -0.1376 
1 -3 0 9.2896 -2.4626 
1 -3 1 15.5544 0.3098 
1 -3 2 -38.7129 -0.8644 
1 -3 3 25.9239 -0.1632 
1 -3 4 33.5167 -0.3846 
1 -3 5 12.4991 0.3887 
1 -3 6 -28.9552 0.6965 
1 -3 7 4.3564 -0.6591 
1 -3 8 -15.3066 0.4120 
1 -3 9 13.8402 -0.0676 
1 -3 10 -11.8320 -0.0949 
1 -3 11 13.1538 -0.2444 
1 -3 12 -19.4739 -0.0184 
1 -3 13 0.3731 0.3662 
1 -3 14 8.0606 -0.1642 
1 -3 15 1.4635 0.1309 
1 -3 16 -0.5716 0.0313 
1 -3 17 2.9392 -0.0784 
1 -3 18 -5.4724 -0.0330 
1 -3 19 3.2591 -0.1458 
1 -3 20 7.4331 -0.1188 
1 -3 21 2.3660 -0.1726 
1 -3 22 0.3886 0.1725 
1 -3 23 -3.9542 0.1458 
1 -3 24 -1.5511 -0.1666 
1 -3 25 -0.6920 0.1661 
1 -3 26 -2.0956 0.1953 
1 -3 27 -3.6425 -0.3021 
1 -2 0 -60.6855 -4.5843 
1 -2 1 53.2194 -2.2745 
1 -2 2 -9.4877 0.4866 
1 -2 3 -1.8114 0.7221 
1 -2 4 37.7041 1.2721 
1 -2 5 -32.7770 -0.2415 
1 -2 6 -28.0679 0.2766 
1 -2 7 11.1998 -0.6314 
1 -2 8 18.3548 -0.2287 
1 -2 9 1.6571 0.3235 
1 -2 10 18.9599 0.0062 
1 -2 11 -22.2717 0.0760 
1 -2 12 -3.2762 -0.1196 
1 -2 13 8.2540 0.3928 
1 -2 14 10.3629 0.0222 
1 -2 15 -7.7259 -0.1367 
1 -2 16 -3.7081 -0.0757 
1 -2 17 -5.7054 -0.1429 
1 -2 18 1.3043 -0.0223 
1 -2 19 -0.9278 -0.0440 
1 -2 20 -1.0116 -0.0402 
1 -2 21 0.0231 0.1063 
1 -2 22 -4.9032 0.0114 
1 -2 23 0.2625 0.2092 
1 -2 24 4.0296 -0.0327 
1 -2 25 4.1816 -0.0976 
1 -2 26 3.8105 -0.0769 
1 -2 27 0.0875 -0.0192 
1 -1 0 -4.9112 2.8306 
1 -1 1 -36.7443 -0.0903 
1 -1 2 -11.0732 1.6188 
1 -1 3 -4.8409 -0.5102 
1 -1 4 38.4002 0.5306 
1 -1 5 -9.0912 -0.6902 
1 -1 6 8.1597 -0.7899 
1 -1 7 -13.9483 0.4108 
1 -1 8 24.0905 -0.4301 
1 -1 9 3.5916 0.5998 
1 -1 10 -12.0503 0.3026 
1 -1 11 -9.4114 0.1177 
1 -1 12 -8.3695 -0.0601 
1 -1 13 6.0669 -0.2249 
1 -1 14 6.4646 0.1535 
1 -1 15 -14.3339 -0.2154 
1 -1 16 0.9491 -0.1667 
1 -1 17 7.9082 -0.0443 
1 -1 18 0.7463 -0.0345 
1 -1 19 -2.6936 0.3347 
1 -1 20 -1.2032 0.0303 
1 -1 21 -0.7165 -0.0228 
1 -1 22 0.0296 0.0543 
1 -1 23 2.0524 -0.0109 
1 -1 24 0.5655 0.0372 
1 -1 25 2.4139 -0.0965 
1 -1 26 -2.7694 -0.0589 
1 -1 27 -1.8681 -0.1623 
1 -1 28 1.2223 0.2048 
1 0 0 95.3153 5.2371 
1 0 1 150.4201 1.2598 
1 0 2 -48.3030 -0.0298 
1 0 3 -54.2625 -1.0852 
1 0 4 -36.2743 -1.1382 
1 0 6 0.6883 -0.0596 
1 0 7 34.3033 0.4111 
1 0 8 -25.4715 -0.1641 
1 0 9 -1.7803 0.3065 
1 0 10 -9.7470 0.4470 
1 0 11 6.1827 -0.2162 
1 0 12 1.8114 -0.3156 
1 0 13 17.4497 -0.2747 
1 0 14 -4.8619 0.1423 
1 0 15 0.8624 -0.0069 
1 0 16 -6.2142 -0.0640 
1 0 17 5.7025 0.1053 
1 0 18 5.3081 -0.0314 
1 0 19 2.1453 0.1792 
1 0 20 -1.1435 0.0722 
1 0 21 5.0548 -0.1353 
1 0 22 -5.3850 -0.0501 
1 0 23 -3.0293 -0.0256 
1 0 24 1.4404 0.0116 
1 0 25 -0.2986 -0.0756 
1 0 26 1.0208 -0.0576 
1 0 27 -1.2957 0.0773 
1 0 28 -3.1743 0.0282 
1 1 0 34.6669 1.4095 
1 1 1 -0.6823 -0.0974 
1 1 2 1.9684 -2.9562 
1 1 3 26.3696 0.1346 
1 1 4 -52.1751 0.4927 
1 1 5 26.9687 0.8715 
1 1 6 14.1963 0.7030 
1 1 7 -0.8668 -0.1043 
1 1 8 7.8531 0.1286 
1 1 9 -22.3689 -0.3364 
1 1 10 5.3219 0.2159 
1 1 11 11.1174 -0.0644 
1 1 12 -3.7576 -0.4715 
1 1 13 -6.1414 0.1650 
1 1 14 12.6413 0.0103 
1 1 15 -13.9208 0.1978 
1 1 16 0.6820 0.0441 
1 1 17 3.1243 0.0246 
1 1 18 -0.1035 0.0049 
1 1 19 -7.3103 -0.1790 
1 1 20 -2.2987 0.1692 
1 1 21 0.4235 -0.0399 
1 1 22 3.9327 -0.2359 
1 1 23 4.5735 0.0891 
1 1 24 1.9068 0.0788 
1 1 25 -2.6336 0.0860 
1 1 26 -1.2484 0.0148 
1 1 27 1.2894 0.0050 
1 1 28 0.2580 0.0097 
1 2 0 -54.4546 -0.4139 
1 2 1 -13.9401 -0.0526 
1 2 2 33.2811 -2.3613 
1 2 3 -71.7394 1.3562 
1 2 4 63.7169 1.2296 
1 2 5 21.2676 0.4453 
1 2 6 41.4655 -0.0833 
1 2 7 -22.2264 -0.2650 
1 2 8 -30.9538 0.0123 
1 2 9 -7.6112 -0.3150 
1 2 10 15.4408 -0.0706 
1 2 11 -1.9514 0.2772 
1 2 12 4.7433 -0.1674 
1 2 13 -1.3126 0.0644 
1 2 14 2.7606 -0.0440 
1 2 15 -0.8176 0.1245 
1 2 16 -0.7206 0.0094 
1 2 17 3.6659 -0.0010 
1 2 18 4.0848 -0.0683 
1 2 19 -8.2798 -0.1028 
1 2 20 0.3681 0.1375 
1 2 21 3.1619 0.0480 
1 2 22 0.3944 -0.0895 
1 2 23 -0.9633 -0.0814 
1 2 24 -6.6029 0.0606 
1 2 25 -9.6964 0.1067 
1 2 26 4.5426 0.0095 
1 2 27 1.2162 -0.1309 
1 2 28 -2.7055 0.0341 
1 3 1 82.4277 -0.2831 
1 3 2 -55.5579 1.2298 
1 3 3 -29.3570 0.5501 
1 3 4 -47.3713 -0.5063 
1 3 5 60.7535 -0.0032 
1 3 6 -30.0021 -0.7200 
1 3 7 -17.3146 0.2679 
1 3 8 -1.4946 -0.1969 
1 3 9 1.4922 -0.0360 
1 3 10 18.3209 -0.1129 
1 3 11 17.9769 0.2827 
1 3 12 -23.5418 0.2384 
1 3 13 0.0400 -0.3991 
1 3 14 -1.9802 0.0161 
1 3 15 0.1249 -0.0206 
1 3 16 -3.5984 0.0405 
1 3 17 5.7238 0.0272 
1 3 18 -8.0330 -0.1573 
1 3 19 -0.4565 0.0996 
1 3 20 -2.7804 0.0822 
1 3 21 4.2009 0.0906 
1 3 22 -4.9693 -0.0116 
1 3 23 1.6393 -0.1024 
1 3 24 -0.7976 0.0292 
1 3 25 6.4487 -0.0515 
1 3 26 -0.6114 -0.0595 
1 3 27 -0.8327 -0.0002 
1 3 28 -2.5789 -0.1671 
1 4 0 -21.1353 0.8284 
1 4 1 -2.2845 0.3910 
1 4 2 -22.7077 1.2369 
1 4 3 -7.4445 -0.7210 
1 4 4 59.3558 -0.6847 
1 4 5 -2.3633 0.0361 
1 4 6 -7.6982 -0.0091 
1 4 7 7.4044 0.2811 
1 4 8 -8.8353 0.0320 
1 4 9 13.1743 -0.0074 
1 4 10 -0.6776 -0.1151 
1 4 11 -6.9602 -0.0212 
1 4 12 1.8261 0.1889 
1 4 13 -6.3650 -0.2408 
1 4 14 8.0977 0.0642 
1 4 15 3.4693 -0.0305 
1 4 16 0.4954 0.1129 
1 4 17 -4.2342 0.0995 
1 4 18 5.4670 0.0513 
1 4 19 -5.6691 -0.0698 
1 4 20 8.2280 -0.0250 
1 4 21 2.9953 0.0986 
1 4 22 3.6369 -0.0560 
1 4 23 -3.8827 -0.1167 
1 4 24 -0.5656 -0.0949 
1 4 25 -3.9866 0.0784 
1 4 26 -0.8853 0.0339 
1 4 27 -3.8756 0.1454 
1 4 28 5.4151 -0.0078 
1 5 0 12.0901 -1.1139 
1 5 1 -12.1807 2.0174 
1 5 2 25.7374 -1.5439 
1 5 3 13.6589 0.3625 
1 5 4 4.8776 -0.0952 
1 5 5 -23.9344 0.3169 
1 5 6 -12.5688 0.3435 
1 5 7 -15.1196 -0.6174 
1 5 8 29.7900 0.4874 
1 5 9 -11.9727 -0.3398 
1 5 10 7.8945 -0.3466 
1 5 11 -1.9813 -0.0377 
1 5 12 -9.5588 0.1416 
1 5 13 4.2471 0.2296 
1 5 14 8.0046 -0.1785 
1 5 15 -4.1602 0.0977 
1 5 16 -0.0611 0.0995 
1 5 17 -0.8199 -0.0693 
1 5 18 3.3297 0.1909 
1 5 19 2.4335 -0.2518 
1 5 20 -3.7199 -0.1027 
1 5 21 1.8421 0.0806 
1 5 22 -3.6809 0.0763 
1 5 23 -1.9264 0.0090 
1 5 24 2.5272 -0.1414 
1 5 25 5.9900 0.1140 
1 5 26 3.0077 0.0442 
1 5 27 -0.3850 -0.0340 
1 5 28 -2.6900 0.1125 
1 6 0 -18.7694 -2.5647 
1 6 1 9.6079 0.7490 
1 6 2 -16.6776 0.0250 
1 6 3 1.3180 1.2056 
1 6 4 3.4444 -0.6210 
1 6 5 -5.7569 -0.0270 
1 6 6 -7.4188 -0.1556 
1 6 7 22.4916 -0.6009 
1 6 8 -8.8952 0.2562 
1 6 9 7.6267 -0.0549 
1 6 10 -9.0068 -0.2224 
1 6 11 3.1331 0.0406 
1 6 12 3.5069 0.3492 
1 6 13 4.2324 0.3110 
1 6 14 -1.6283 -0.2890 
1 6 15 4.7821 -0.0660 
1 6 16 -9.3181 -0.0131 
1 6 17 6.2698 -0.0409 
1 6 18 1.0767 0.0288 
1 6 19 -3.1365 -0.0662 
1 6 20 -0.2854 0.0173 
1 6 21 3.4297 0.0170 
1 6 22 -1.3269 0.2405 
1 6 23 0.9921 0.0145 
1 6 24 -1.0004 0.0052 
1 6 25 2.4646 -0.0767 
1 6 26 -5.9431 -0.0054 
1 6 27 -0.2480 -0.0068 
1 6 28 3.1715 -0.0791 
1 7 0 1.3996 -0.8461 
1 7 1 4.9939 -1.1063 
1 7 2 5.0571 2.9932 
1 7 3 15.5752 -0.4896 
1 7 4 -0.7056 -0.6134 
1 7 5 0.9264 -0.6344 
1 7 6 -11.0474 -0.4033 
1 7 7 10.0986 0.3665 
1 7 8 6.8350 -0.2602 
1 7 9 -16.6560 0.3805 
1 7 10 -2.4095 -0.0098 
1 7 11 2.5513 -0.0876 
1 7 12 -0.2215 0.3150 
1 7 13 -1.4400 -0.0854 
1 7 14 0.8295 -0.0069 
1 7 15 -5.5513 -0.1308 
1 7 16 0.2664 -0.0862 
1 7 17 -4.1883 0.0747 
1 7 18 2.9953 -0.0346 
1 7 19 -0.1862 0.1759 
1 7 20 -4.0824 -0.0632 
1 7 21 1.2829 -0.1029 
1 7 22 -1.6467 0.1465 
1 7 23 -6.3301 -0.0270 
1 7 24 0.7426 0.0699 
1 7 25 -2.7909 -0.2360 
1 7 26 -2.1420 0.0155 
1 7 27 2.1138 0.1673 
1 8 0 9.3228 -0.7595 
1 8 1 3.4512 -0.9255 
1 8 2 -7.6346 1.5145 
1 8 3 -12.3759 -1.2138 
1 8 4 9.9385 -0.0863 
1 8 5 -24.2301 -0.7834 
1 8 6 10.1725 0.3792 
1 8 7 2.3728 0.3661 
1 8 8 0.0111 -0.2317 
1 8 9 -4.8060 0.2956 
1 8 10 0.6460 0.0171 
1 8 11 3.7577 -0.2341 
1 8 12 7.8651 -0.1883 
1 8 13 -7.2632 -0.0694 
1 8 14 3.7039 0.1533 
1 8 15 -2.2504 -0.1549 
1 8 16 -2.7053 -0.0050 
1 8 17 6.2870 0.0351 
1 8 18 5.4508 0.1126 
1 8 19 -0.9269 0.1653 
1 8 20 -1.5860 -0.1401 
1 8 21 -0.6528 0.0060 
1 8 22 0.3507 -0.0116 
1 8 23 -0.7488 0.1581 
1 8 24 2.1400 -0.0750 
1 8 25 4.5167 -0.0388 
1 8 26 3.9495 -0.0359 
1 8 27 -2.8072 0.0532 
1 9 0 -1.9567 -0.3851 
1 9 1 6.5730 0.4617 
1 9 2 1.1463 -1.8375 
1 9 3 2.8394 -0.2048 
1 9 5 12.5767 -0.0919 
1 9 6 -4.6639 0.6071 
1 9 7 7.3419 -0.2073 
1 9 8 -3.6706 0.1922 
1 9 9 -4.5339 -0.1453 
1 9 10 -0.1503 0.0777 
1 9 11 3.5978 -0.0488 
1 9 12 -3.1801 -0.2920 
1 9 13 -3.3512 0.2097 
1 9 14 -7.4974 0.0301 
1 9 15 0.0929 0.0056 
1 9 16 -1.8067 0.0937 
1 9 17 2.2375 -0.1260 
1 9 18 -1.7860 0.0817 
1 9 19 -1.0921 -0.0510 
1 9 20 -1.7061 -0.0399 
1 9 21 1.9662 -0.0554 
1 9 22 -1.6045 -0.0999 
1 9 23 -6.3255 0.1650 
1 9 24 -2.7452 -0.1369 
1 9 25 4.1616 0.0621 
1 9 26 4.4200 0.0043 
1 10 0 7.2288 0.0120 
1 10 1 7.3698 -0.3303 
1 10 6 4.0991 0.1286 
1 10 7 -1.4159 0.0757 
1 10 8 1.1744 -0.0456 
1 10 9 -0.8321 -0.1763 
1 10 10 -6.3049 0.1444 
1 10 11 1.4086 -0.0834 
1 10 12 -3.2376 -0.0503 
1 10 13 -0.9077 0.0361 
1 10 14 0.7228 -0.0300 
1 10 15 0.1931 0.1090 
1 10 16 -4.7532 -0.0598 
1 10 17 4.1061 0.0376 
1 10 18 -3.7634 -0.1253 
1 10 19 2.7349 0.0091 
1 10 20 -1.5737 0.1511 
1 10 21 5.2757 -0.1392 
1 10 22 4.5188 0.0418 
1 10 23 -3.4296 0.0393 
1 10 24 4.8388 0.1206 
1 11 0 -0.5421 1.6869 
1 11 1 -7.4816 -0.9437 
1 11 2 4.0705 0.4934 
1 11 3 -3.3210 -0.1790 
1 11 4 13.8390 0.1137 
1 11 5 0.4036 0.1473 
1 11 6 -2.8418 -0.2804 
1 11 7 -0.7329 0.5268 
1 11 8 -0.5677 -0.3205 
1 11 9 -4.1888 0.0256 
1 11 10 8.7630 0.1060 
1 11 11 3.7266 0.0174 
1 11 12 2.2587 0.0570 
1 11 13 -1.7339 -0.2968 
1 11 14 -0.9968 0.0875 
1 11 15 -0.8624 0.0415 
1 11 16 4.4957 -0.0491 
1 11 17 2.9984 0.0388 
1 11 18 1.2034 -0.1589 
1 11 19 -7.2192 0.1422 
1 11 20 6.2997 0.1153 
1 11 21 -0.0700 -0.1087 
1 11 22 1.7217 -0.0314 
1 11 23 1.9056 -0.1279 
1 11 24 -2.1918 0.2253 
1 12 0 1.5764 0.9633 
1 12 1 3.4283 -0.1308 
1 12 2 -6.5300 0.0555 
1 12 3 7.7509 -0.3413 
1 12 4 3.0722 0.2033 
1 12 5 -2.9976 -0.0574 
1 12 6 0.4472 0.0733 
1 12 7 3.7208 0.1158 
1 12 8 -2.4288 -0.1646 
1 12 9 0.9061 -0.0841 
1 12 10 1.2736 0.0548 
1 12 11 2.6927 0.2041 
1 12 12 -2.7814 -0.1448 
1 12 13 -0.5426 -0.0895 
1 12 14 -1.6377 0.1462 
1 12 15 1.6340 -0.0485 
1 12 16 3.1261 0.0634 
1 12 17 -1.5370 -0.0485 
1 12 18 -7.5286 -0.0638 
1 12 19 -0.3129 0.0432 
1 12 20 1.4113 -0.1425 
1 12 21 0.0712 0.1509 
1 12 22 -2.2871 -0.1681 
1 12 23 -5.1203 0.0337 
1 13 0 3.4206 0.4423 
1 13 1 -0.6683 0.9405 
1 13 2 -3.5384 -1.1824 
1 13 3 8.1809 0.0995 
1 13 4 -3.6443 0.2484 
1 13 5 -5.5799 0.2447 
1 13 6 -2.8932 0.1250 
1 13 7 4.4042 -0.3848 
1 13 8 -5.1214 0.2960 
1 13 9 0.8942 -0.1208 
1 13 10 5.2211 -0.0314 
1 13 11 -0.8691 0.1990 
1 13 12 0.2875 -0.1440 
1 13 13 -1.6614 0.0416 
1 13 14 2.4407 -0.1391 
1 13 15 -1.8599 0.1036 
1 13 16 -6.1340 0.0776 
1 13 17 1.1780 -0.0600 
1 13 18 2.1722 0.0021 
1 13 19 -2.8441 -0.1120 
1 13 20 -0.0293 0.0068 
1 13 21 0.3467 0.1134 
1 14 0 1.4872 -0.2970 
1 14 1 -7.4444 0.2464 
1 14 2 -2.7580 -0.3974 
1 14 3 0.1278 0.5016 
1 14 4 -0.6102 -0.1824 
1 14 5 -3.2388 0.3755 
1 14 6 0.9116 -0.2198 
1 14 7 -4.6634 -0.1778 
1 14 8 0.7304 0.1799 
1 14 9 1.3553 -0.1045 
1 14 10 4.8040 -0.0342 
1 14 11 -0.0508 -0.0680 
1 14 12 -7.4286 0.2148 
1 14 13 -0.8564 0.0323 
1 14 14 5.9579 -0.1265 
1 14 15 5.2873 0.0375 
1 14 16 -1.0762 -0.0244 
1 14 17 2.7486 -0.0612 
1 14 18 0.7105 0.0192 
1 14 19 -1.6776 -0.1892 
1 15 0 -0.3241 -0.0052 
1 15 1 -1.2448 -0.2744 
1 15 2 -3.3190 1.0183 
1 15 3 1.7163 0.1228 
1 15 4 1.7133 -0.2509 
1 15 5 -0.6047 -0.0153 
1 15 6 -2.2360 -0.4304 
1 15 7 1.8146 0.0761 
1 15 8 -1.2925 -0.0429 
1 15 9 -4.6816 -0.0363 
1 15 10 0.0864 -0.0179 
1 15 11 -0.4515 0.0168 
1 15 12 1.4213 0.2594 
1 15 13 1.6442 0.0319 
1 15 14 4.0090 -0.1062 
1 15 15 -2.1133 0.0152 
1 15 16 -0.6684 -0.1554 
1 15 17 7.0685 0.1286 
1 16 0 5.1233 -0.5792 
1 16 1 -0.2428 -0.2084 
1 16 2 -0.9644 0.7864 
1 16 3 4.8504 -0.3159 
1 16 4 -1.5232 -0.2697 
1 16 5 0.0543 -0.0565 
1 16 6 -0.0815 -0.0451 
1 16 7 7.6176 0.1197 
1 16 8 6.5209 -0.1461 
1 16 9 0.9419 0.3131 
1 16 10 0.3216 -0.1201 
1 16 11 1.9924 -0.0559 
1 16 12 -1.1873 0.0959 
1 16 13 -1.1618 -0.1761 
2 -15 0 2.1776 -0.5476 
2 -15 1 -0.5407 0.1988 
2 -15 2 1.2255 0.3407 
2 -15 3 3.3531 -0.0716 
2 -15 4 -3.7321 0.0226 
2 -15 5 -3.1754 0.2573 
2 -14 0 1.9827 0.4203 
2 -14 1 -0.0393 -0.5421 
2 -14 2 1.3300 0.2682 
2 -14 3 -3.4916 -0.5132 
2 -14 4 -2.0234 -0.0429 
2 -14 5 -1.3041 -0.0600 
2 -14 6 -0.7351 -0.1246 
2 -14 7 5.6661 0.1215 
2 -14 8 0.9603 0.0084 
2 -14 9 -3.7014 0.1565 
2 -13 0 0.2336 0.4461 
2 -13 1 2.4718 -0.4860 
2 -13 2 -5.0058 -0.9064 
2 -13 3 -1.7158 -0.2395 
2 -13 4 -0.8224 0.4923 
2 -13 5 3.5850 0.2096 
2 -13 6 0.9022 0.1971 
2 -13 7 1.2769 -0.1682 
2 -13 8 3.6985 -0.1141 
2 -13 9 1.0555 -0.0464 
2 -13 10 -0.7689 -0.1217 
2 -13 11 2.4673 -0.2220 
2 -13 12 0.5163 -0.0364 
2 -13 13 0.5323 0.2752 
2 -12 0 3.0299 0.1515 
2 -12 1 -1.1694 -0.0259 
2 -12 2 -0.1815 -0.7279 
2 -12 3 -0.5646 0.5559 
2 -12 4 6.7239 0.4283 
2 -12 5 -3.7230 0.0434 
2 -12 6 -0.9018 0.0766 
2 -12 7 2.4414 -0.2239 
2 -12 8 -3.5891 -0.0551 
2 -12 9 -3.0089 -0.0145 
2 -12 10 -1.3129 0.0253 
2 -12 11 -0.7310 0.3434 
2 -12 12 -0.3488 -0.0251 
2 -12 13 -0.1470 -0.2749 
2 -12 14 0.6831 0.2592 
2 -12 15 1.1260 0.1985 
2 -11 0 -1.4725 1.0207 
2 -11 1 4.1709 0.0420 
2 -11 2 0.2083 0.2695 
2 -11 3 1.4243 0.3236 
2 -11 4 -4.3733 -0.1947 
2 -11 5 0.7977 0.1330 
2 -11 6 2.1227 -0.3627 
2 -11 7 2.9634 0.1705 
2 -11 8 -0.5981 -0.0094 
2 -11 9 -3.4933 0.1991 
2 -11 10 -2.9106 0.0811 
2 -11 11 8.1666 -0.1051 
2 -11 12 -2.3346 0.0505 
2 -11 13 -2.2087 -0.1866 
2 -11 14 -1.1418 0.2977 
2 -11 15 -1.8238 -0.3490 
2 -11 16 -1.2214 0.0166 
2 -11 17 3.3226 -0.0797 
2 -10 0 4.9022 1.1717 
2 -10 1 6.8381 0.1664 
2 -10 2 -9.0474 0.1852 
2 -10 3 0.1324 -0.1801 
2 -10 4 -0.6293 -0.4562 
2 -10 5 1.5416 0.3761 
2 -10 6 -1.7724 -0.1387 
2 -10 7 -3.2894 0.3427 
2 -10 8 -7.2763 0.0642 
2 -10 9 -7.2038 -0.1041 
2 -10 10 3.3906 0.0614 
2 -10 11 5.1746 -0.2732 
2 -10 12 3.3515 0.0676 
2 -10 13 -3.7589 -0.1862 
2 -10 14 1.1802 0.0589 
2 -10 15 1.1816 0.1473 
2 -10 16 -1.8226 -0.0416 
2 -10 17 1.7463 -0.0592 
2 -10 18 0.4369 -0.1259 
2 -10 19 -2.4020 -0.0090 
2 -9 0 3.8704 -0.0755 
2 -9 1 -12.1019 0.8548 
2 -9 2 1.9200 -0.8020 
2 -9 3 -1.5156 0.3210 
2 -9 4 6.0418 0.0862 
2 -9 5 4.1292 0.4569 
2 -9 6 -3.9862 0.2398 
2 -9 7 -3.2974 -0.3787 
2 -9 8 5.7872 0.1579 
2 -9 9 -3.5890 -0.3725 
2 -9 10 8.8168 -0.1969 
2 -9 11 5.0194 0.0419 
2 -9 12 -5.6355 0.0444 
2 -9 13 -7.0792 0.3119 
2 -9 14 5.0122 -0.1477 
2 -9 15 0.0021 0.1275 
2 -9 16 1.7463 -0.0068 
2 -9 17 -0.8987 -0.0903 
2 -9 18 -0.2653 0.0496 
2 -9 19 3.0143 0.2529 
2 -9 20 4.0848 0.2108 
2 -8 0 -6.0863 -1.8085 
2 -8 1 0.4030 0.8967 
2 -8 2 -5.4087 0.2663 
2 -8 3 -0.2324 0.9759 
2 -8 4 11.2577 -0.2325 
2 -8 8 3.0600 0.0613 
2 -8 9 3.6083 0.0363 
2 -8 10 -1.5466 -0.1779 
2 -8 11 -1.0701 0.3332 
2 -8 12 -4.0701 0.0495 
2 -8 13 -4.4038 0.2167 
2 -8 14 1.7410 -0.1232 
2 -8 15 4.4477 -0.1427 
2 -8 16 -5.6573 0.0150 
2 -8 17 -1.9173 -0.2367 
2 -8 18 0.1383 0.0689 
2 -8 19 -1.5580 0.0127 
2 -8 20 1.5868 0.1257 
2 -8 21 1.8406 0.1699 
2 -8 22 -1.5728 -0.2723 
2 -7 0 -11.0434 -0.9311 
2 -7 1 -2.3989 -0.0018 
2 -7 2 5.4105 2.4579 
2 -7 3 9.2463 -0.2949 
2 -7 4 -0.6422 -0.7905 
2 -7 5 5.9569 -0.6478 
2 -7 8 10.2320 -0.1040 
2 -7 9 -1.5427 0.5080 
2 -7 10 -3.7208 0.0208 
2 -7 11 4.5990 -0.0155 
2 -7 12 -6.7928 0.1868 
2 -7 13 5.1086 -0.2442 
2 -7 14 3.5972 -0.0238 
2 -7 15 3.8692 -0.1355 
2 -7 16 -1.0787 0.0480 
2 -7 17 1.2731 -0.1284 
2 -7 18 2.6233 -0.0062 
2 -7 19 -1.6792 0.0984 
2 -7 20 1.2458 -0.1430 
2 -7 21 -1.3496 0.1638 
2 -7 22 -2.3863 0.3558 
2 -7 23 -1.4218 -0.5244 
2 -6 0 1.3954 -0.6028 
2 -6 1 29.0562 -0.7821 
2 -6 2 4.6389 1.4499 
2 -6 3 -3.5693 -1.3233 
2 -6 4 9.5524 -0.3716 
2 -6 5 -16.4570 -0.3772 
2 -6 6 -1.3448 0.1140 
2 -6 7 -3.6620 0.5387 
2 -6 8 11.4450 -0.0307 
2 -6 9 -0.3488 0.1791 
2 -6 10 -10.2040 0.0863 
2 -6 11 -7.6229 -0.3912 
2 -6 12 9.3353 0.0580 
2 -6 13 -6.4603 -0.1418 
2 -6 14 5.2329 0.1238 
2 -6 15 -4.8746 -0.1466 
2 -6 16 -3.1083 -0.0205 
2 -6 17 -1.8366 0.2537 
2 -6 18 0.3464 -0.0980 
2 -6 19 -7.0822 -0.0448 
2 -6 20 -2.5000 -0.1863 
2 -6 21 3.3432 -0.2150 
2 -6 22 1.4948 0.0941 
2 -6 23 0.6382 0.0310 
2 -6 24 -4.3964 0.2859 
2 -5 0 2.1530 -0.8697 
2 -5 1 -0.1043 -0.1978 
2 -5 2 13.2600 -1.6092 
2 -5 3 -22.4080 -0.3952 
2 -5 4 1.3670 0.8147 
2 -5 5 13.3342 0.0246 
2 -5 6 -10.2308 0.6243 
2 -5 7 12.5249 -0.1569 
2 -5 8 16.5797 0.0666 
2 -5 9 -13.0159 -0.2172 
2 -5 10 -4.8351 0.0431 
2 -5 11 6.7816 -0.1141 
2 -5 12 6.5609 -0.1942 
2 -5 13 5.3662 0.2302 
2 -5 14 -7.9566 0.0164 
2 -5 15 -4.0204 0.1292 
2 -5 16 -4.1793 -0.0388 
2 -5 17 7.9645 -0.0297 
2 -5 18 4.8713 -0.0680 
2 -5 19 -3.3048 -0.1149 
2 -5 20 -4.3567 -0.0932 
2 -5 21 3.1609 -0.0918 
2 -5 22 1.9186 0.2449 
2 -5 23 -4.1993 -0.1214 
2 -5 24 2.9076 -0.0020 
2 -5 25 -0.2896 0.1271 
2 -4 0 12.9729 -0.9962 
2 -4 1 52.6890 -0.3083 
2 -4 2 -23.7324 -1.4026 
2 -4 3 -6.8240 0.7814 
2 -4 4 -7.6301 0.7666 
2 -4 5 10.9518 -0.2942 
2 -4 6 -9.7434 0.2298 
2 -4 7 11.9241 -0.2109 
2 -4 8 -5.1762 -0.2197 
2 -4 9 2.0162 0.0813 
2 -4 10 -14.5644 0.0867 
2 -4 11 14.1030 0.1792 
2 -4 12 5.2985 -0.2093 
2 -4 13 -2.9592 0.2239 
2 -4 14 2.4912 -0.0988 
2 -4 15 -2.5033 -0.0992 
2 -4 16 -1.8237 0.0028 
2 -4 17 6.8484 -0.0449 
2 -4 18 1.0291 0.0211 
2 -4 19 -6.7078 0.0275 
2 -4 20 0.8184 0.0843 
2 -4 21 4.7449 -0.1528 
2 -4 22 0.2063 -0.0949 
2 -4 23 -3.0739 0.1496 
2 -4 24 1.9917 -0.2152 
2 -4 25 -0.7658 -0.1972 
2 -4 26 -2.3174 0.5431 
2 -3 0 6.5608 1.8489 
2 -3 1 15.1877 -0.9334 
2 -3 2 -0.5427 0.9412 
2 -3 3 -44.0207 -0.4958 
2 -3 4 37.2924 0.2698 
2 -3 5 16.5835 -0.3306 
2 -3 6 -1.3526 -0.3545 
2 -3 7 -7.9692 0.7121 
2 -3 8 -0.8802 -0.5033 
2 -3 9 -21.3223 0.3488 
2 -3 10 14.7947 0.2285 
2 -3 11 -4.2589 0.0910 
2 -3 12 1.2294 -0.1356 
2 -3 13 -7.5911 -0.3181 
2 -3 14 -5.1247 0.2004 
2 -3 15 -3.6722 -0.1009 
2 -3 16 4.8786 0.0155 
2 -3 17 4.0411 0.0386 
2 -3 18 2.8479 -0.0751 
2 -3 19 -1.9912 0.1385 
2 -3 20 -0.9010 -0.0034 
2 -3 21 4.9536 -0.0046 
2 -3 22 0.8410 -0.2534 
2 -3 23 -4.1656 -0.0118 
2 -3 24 -1.9769 0.1159 
2 -3 25 -0.3362 -0.1182 
2 -3 26 2.8722 -0.0156 
2 -2 0 16.2100 2.4354 
2 -2 1 -2.0820 -0.9341 
2 -2 2 -33.7032 -0.0306 
2 -2 3 -15.4085 -1.2679 
2 -2 4 17.5547 0.3624 
2 -2 5 -3.7660 0.2349 
2 -2 6 4.9078 0.1041 
2 -2 7 -12.0236 0.5914 
2 -2 8 -5.9707 -0.1614 
2 -2 9 14.2926 -0.0350 
2 -2 10 -0.9593 0.1067 
2 -2 11 7.4635 -0.1162 
2 -2 12 -9.6898 -0.1260 
2 -2 13 -7.5065 -0.3527 
2 -2 14 11.9672 0.2494 
2 -2 15 4.5332 0.1093 
2 -2 16 -4.3096 -0.0308 
2 -2 17 2.3839 0.1100 
2 -2 18 -4.6552 -0.0996 
2 -2 19 -2.7359 -0.0067 
2 -2 20 -1.1174 -0.0124 
2 -2 21 3.7530 -0.0901 
2 -2 22 -1.6054 -0.0231 
2 -2 23 -1.9923 0.0008 
2 -2 24 -1.4444 0.1365 
2 -2 25 4.2244 0.1706 
2 -2 26 2.5900 0.0584 
2 -2 27 0.0509 -0.0358 
2 -1 0 -81.5317 1.1115 
2 -1 1 7.9953 0.5996 
2 -1 2 -26.4124 -3.0270 
2 -1 3 14.4473 0.3591 
2 -1 4 46.1724 0.9216 
2 -1 5 17.0227 0.7992 
2 -1 6 -30.3224 0.1956 
2 -1 7 0.3659 -0.4301 
2 -1 8 -15.4483 0.2474 
2 -1 9 16.3445 -0.5475 
2 -1 10 9.4119 -0.1075 
2 -1 11 -0.1846 0.2164 
2 -1 12 -16.9703 -0.0633 
2 -1 13 3.3917 0.0929 
2 -1 14 0.8596 -0.1202 
2 -1 15 -1.0930 0.2590 
2 -1 16 -4.4816 0.0132 
2 -1 17 -1.0022 -0.0640 
2 -1 18 4.0222 0.0036 
2 -1 19 -4.0521 -0.2241 
2 -1 20 -3.4184 0.0902 
2 -1 21 3.4061 0.0903 
2 -1 22 -1.6371 -0.0707 
2 -1 23 0.5829 0.0327 
2 -1 24 5.6006 0.1545 
2 -1 25 -2.3970 -0.0820 
2 -1 26 -2.0043 0.0156 
2 -1 27 -1.4619 0.0927 
2 -1 28 3.8298 -0.2560 
2 0 0 63.9175 -1.1689 
2 0 1 2.4781 1.3881 
2 0 2 -21.3780 -0.7178 
2 0 3 21.5324 1.4055 
2 0 4 -20.6711 0.0341 
2 0 5 -20.8970 0.7343 
2 0 6 8.6694 -0.4997 
2 0 7 -14.6637 -0.5788 
2 0 8 23.5477 0.1778 
2 0 9 -6.7001 -0.1388 
2 0 10 -2.7102 -0.1308 
2 0 11 -0.7740 0.4299 
2 0 12 -0.2064 0.2017 
2 0 13 -11.5241 0.0889 
2 0 14 22.3918 -0.3366 
2 0 15 -1.2268 0.0978 
2 0 16 -6.4772 -0.0264 
2 0 17 3.5812 -0.1224 
2 0 18 1.4971 0.0804 
2 0 19 1.2311 -0.1127 
2 0 20 1.0252 0.0865 
2 0 21 -0.1393 0.2357 
2 0 22 0.5549 0.0359 
2 0 23 -0.7843 -0.0280 
2 0 24 0.5329 -0.0076 
2 0 25 3.4996 0.0369 
2 0 26 -0.4924 -0.1174 
2 0 27 -0.1566 -0.3255 
2 0 28 -1.0843 0.1142 
2 1 0 -31.2035 0.6468 
2 1 1 -11.3368 0.7264 
2 1 3 -32.4418 -0.3272 
2 1 4 -16.3245 -1.1018 
2 1 5 -61.3975 -0.0763 
2 1 6 -16.1027 -0.5681 
2 1 7 29.1452 0.1393 
2 1 8 9.4439 0.0345 
2 1 9 -7.7748 0.4112 
2 1 10 -2.6441 -0.1123 
2 1 11 -2.4358 0.1214 
2 1 12 -1.6803 0.3036 
2 1 13 3.0340 -0.3303 
2 1 14 5.8760 -0.0957 
2 1 15 3.8910 -0.1503 
2 1 16 -14.2339 -0.0050 
2 1 17 -3.7949 0.0923 
2 1 18 8.6143 0.0687 
2 1 19 0.6130 0.1592 
2 1 20 -2.3391 -0.0488 
2 1 21 0.7585 0.0848 
2 1 22 -2.2872 0.0678 
2 1 23 -0.8891 -0.0789 
2 1 24 -1.1906 -0.1114 
2 1 25 -6.3594 -0.0445 
2 1 26 2.1580 0.0117 
2 1 27 7.8940 0.0796 
2 1 28 -2.5519 -0.0529 
2 2 0 -106.1827 0.5477 
2 2 1 33.0584 -0.4142 
2 2 3 52.4969 -1.0310 
2 2 4 -29.8223 -0.7161 
2 2 5 48.3289 0.1197 
2 2 6 17.7893 0.4116 
2 2 7 12.9777 -0.0046 
2 2 8 14.3188 0.2294 
2 2 9 -17.5587 0.1635 
2 2 10 -19.7652 -0.1990 
2 2 11 21.6745 -0.2987 
2 2 12 -8.6153 0.0871 
2 2 13 4.6258 -0.1092 
2 2 14 9.6133 0.0687 
2 2 15 2.3954 -0.0871 
2 2 16 -9.4384 0.0807 
2 2 17 5.4487 0.1468 
2 2 18 2.4949 0.0863 
2 2 19 0.5089 -0.0006 
2 2 20 -6.9780 -0.1843 
2 2 21 0.0614 0.0117 
2 2 22 1.7406 0.0856 
2 2 23 3.4995 -0.0325 
2 2 24 -1.8150 -0.1793 
2 2 25 -1.4340 -0.0025 
2 2 26 -1.4050 0.1040 
2 2 27 -2.3725 0.1851 
2 2 28 -5.0382 -0.1263 
2 3 0 22.9251 -1.2991 
2 3 1 58.7277 0.7942 
2 3 2 12.3079 -0.8742 
2 3 3 -80.7398 0.4524 
2 3 4 -0.1176 -0.1880 
2 3 5 -6.9248 0.5230 
2 3 6 10.6447 0.6287 
2 3 7 14.0521 -0.6454 
2 3 8 -25.4245 0.4089 
2 3 9 -19.8926 -0.3166 
2 3 10 8.8252 -0.1816 
2 3 11 5.6642 -0.2062 
2 3 12 17.3893 -0.0053 
2 3 13 -13.9660 0.4117 
2 3 14 2.5166 -0.1309 
2 3 15 -3.5806 0.0150 
2 3 16 -5.5285 0.0255 
2 3 17 -2.9683 -0.0159 
2 3 18 11.2076 0.1864 
2 3 19 -5.0930 -0.0943 
2 3 20 -0.5451 -0.1113 
2 3 21 0.0690 -0.0643 
2 3 22 0.9328 0.0782 
2 3 23 -1.7835 0.0846 
2 3 24 2.7435 -0.0924 
2 3 25 -1.1479 0.0045 
2 3 26 2.3625 0.0148 
2 3 27 -4.0650 0.0589 
2 3 28 0.3916 0.0663 
2 4 0 18.6105 -2.6714 
2 4 1 -3.2534 0.7796 
2 4 2 -9.3840 -0.1991 
2 4 3 -12.3420 1.3859 
2 4 4 -0.9649 -0.8231 
2 4 5 7.0017 -0.3669 
2 4 6 14.7920 -0.0261 
2 4 7 -9.8825 -0.2443 
2 4 8 19.2656 0.0273 
2 4 9 -17.1632 -0.1722 
2 4 10 3.6921 0.0126 
2 4 11 19.1132 -0.0547 
2 4 12 -8.8256 0.0803 
2 4 13 -5.9844 0.3300 
2 4 14 0.3692 -0.1068 
2 4 15 1.1240 -0.1273 
2 4 16 2.0697 -0.0120 
2 4 17 4.7763 -0.0124 
2 4 18 1.3088 0.0324 
2 4 19 -2.3203 0.0711 
2 4 20 -3.5226 0.0529 
2 4 21 2.3777 -0.1110 
2 4 22 1.8390 0.1410 
2 4 23 0.4348 0.1205 
2 4 24 -0.5369 0.0031 
2 4 25 2.2639 -0.0770 
2 4 26 1.2538 -0.0239 
2 4 27 -2.4147 -0.1097 
2 4 28 1.7801 0.1124 
2 5 0 -30.0155 0.7699 
2 5 1 13.5939 -1.1614 
2 5 2 -7.4656 1.3413 
2 5 3 11.2908 0.0927 
2 5 4 7.8829 -0.4822 
2 5 5 10.1258 -0.8692 
2 5 6 -19.7345 -0.2929 
2 5 7 8.6112 0.7341 
2 5 8 -19.4175 -0.4000 
2 5 9 12.6394 0.2874 
2 5 10 -6.4135 0.0931 
2 5 11 0.3202 -0.1391 
2 5 12 -3.8066 -0.0101 
2 5 13 -7.1949 -0.0912 
2 5 14 -2.5712 0.2254 
2 5 15 15.2548 -0.2140 
2 5 16 -4.6273 -0.0242 
2 5 17 2.9317 0.0254 
2 5 18 -0.8132 -0.0185 
2 5 19 -4.9328 0.2147 
2 5 20 -1.8119 -0.0644 
2 5 21 4.0718 -0.1727 
2 5 22 0.2650 0.0465 
2 5 23 3.1137 0.0493 
2 5 24 -1.5746 0.0739 
2 5 25 0.3022 -0.1520 
2 5 26 -3.9006 0.0144 
2 5 27 -0.4603 0.0546 
2 5 28 1.1654 0.0432 
2 6 0 8.4367 1.1126 
2 6 1 -16.2704 -1.7303 
2 6 2 -1.6333 0.8114 
2 6 3 -1.9545 -0.5676 
2 6 4 6.4780 0.4698 
2 6 5 9.2707 -0.4466 
2 6 6 -9.0849 0.2832 
2 6 7 -18.3391 0.3435 
2 6 8 15.2166 -0.3420 
2 6 9 -3.3548 0.0599 
2 6 10 7.0962 0.0535 
2 6 11 10.8403 -0.1352 
2 6 12 -1.7898 -0.1789 
2 6 13 -4.6376 0.0016 
2 6 14 8.3766 0.2806 
2 6 15 -6.9498 -0.0689 
2 6 16 2.8831 0.0475 
2 6 17 -6.7016 0.0090 
2 6 18 -0.0575 -0.0045 
2 6 19 2.8217 0.0124 
2 6 20 1.7643 -0.0459 
2 6 21 -1.7702 -0.0855 
2 6 22 -0.2329 -0.1070 
2 6 23 -2.9988 0.0557 
2 6 24 1.7944 0.0172 
2 6 25 2.1681 0.0494 
2 6 26 -1.2220 -0.0210 
2 6 27 -1.1531 0.0808 
2 6 28 -1.0193 0.0355 
2 7 0 -13.7279 -0.3114 
2 7 1 -5.8831 -0.0668 
2 7 2 0.3200 -1.5831 
2 7 3 -7.4436 0.2111 
2 7 4 24.8763 0.8460 
2 7 5 -8.1923 -0.1962 
2 7 6 -6.4283 0.0942 
2 7 7 3.2531 -0.3931 
2 7 8 8.9679 0.0962 
2 7 9 -4.6071 -0.3634 
2 7 10 -6.9579 0.1086 
2 7 11 -6.7390 0.1166 
2 7 12 1.5994 -0.1561 
2 7 13 -7.0856 0.2286 
2 7 14 1.9676 0.0492 
2 7 15 9.7562 0.0279 
2 7 16 -5.5857 -0.0049 
2 7 17 -0.7429 -0.0716 
2 7 18 2.1539 -0.0792 
2 7 19 2.0077 -0.0610 
2 7 20 -3.2225 0.1600 
2 7 21 0.7216 0.0739 
2 7 22 -1.2147 -0.0628 
2 7 23 0.3859 0.1475 
2 7 24 -1.5965 0.0835 
2 7 25 -3.1568 0.1250 
2 7 26 2.6633 -0.1331 
2 7 27 0.4444 -0.1040 
2 8 0 -6.7867 -1.1012 
2 8 1 4.1733 0.1801 
2 8 2 7.7874 -1.1372 
2 8 3 8.7705 0.7902 
2 8 4 -7.1015 0.3537 
2 8 5 4.8545 -0.1268 
2 8 6 -21.1551 -0.4969 
2 8 7 8.7917 0.0743 
2 8 8 4.0993 0.0442 
2 8 9 -2.3790 -0.2516 
2 8 10 -7.5249 0.2172 
2 8 11 3.5528 0.2589 
2 8 12 -0.7906 0.0004 
2 8 13 5.0559 -0.0825 
2 8 14 -0.1353 -0.0012 
2 8 15 -2.5352 0.0554 
2 8 16 -5.8207 -0.1359 
2 8 17 -2.4202 -0.0061 
2 8 18 2.5778 -0.1264 
2 8 19 1.9860 -0.0851 
2 8 20 -4.7433 0.1330 
2 8 21 0.4449 0.0428 
2 8 22 3.9047 -0.0994 
2 8 23 -0.3827 -0.1127 
2 8 24 -0.6263 0.1041 
2 8 25 -2.0675 0.0302 
2 8 26 -0.9793 -0.0534 
2 8 27 2.9778 -0.0275 
2 9 0 -8.6796 1.3687 
2 9 1 12.5155 -0.5408 
2 9 2 -0.2381 0.5293 
2 9 3 -4.4594 -0.3642 
2 9 4 5.0105 0.4114 
2 9 5 -7.3080 0.0791 
2 9 6 6.7852 -0.4873 
2 9 7 0.8265 0.5037 
2 9 8 3.5905 -0.1637 
2 9 9 4.6691 0.1676 
2 9 10 -1.7460 0.0206 
2 9 11 -0.6052 0.0603 
2 9 12 0.7150 0.1003 
2 9 13 -3.0253 -0.4398 
2 9 14 -3.0836 -0.0057 
2 9 15 -1.5754 0.0981 
2 9 16 -4.9933 -0.0718 
2 9 17 2.7697 0.0858 
2 9 18 0.8102 -0.0507 
2 9 19 -1.2939 0.0665 
2 9 20 -1.5088 0.0437 
2 9 21 -1.2521 0.0692 
2 9 22 4.6630 0.0311 
2 9 23 -3.8108 -0.1249 
2 9 24 -1.1692 0.1038 
2 9 25 0.6888 -0.1108 
2 10 0 3.6062 0.8921 
2 10 1 3.0196 0.0899 
2 10 2 6.3575 0.5477 
2 10 3 -13.7370 -0.9301 
2 10 4 -0.0699 0.3024 
2 10 7 -0.7129 -0.1824 
2 10 8 2.1004 -0.0041 
2 10 9 -4.9518 0.1763 
2 10 10 -0.7181 -0.1514 
2 10 11 -1.8975 0.1406 
2 10 12 5.2225 -0.0486 
2 10 13 4.5292 -0.1476 
2 10 14 -0.7927 -0.0257 
2 10 15 -5.9177 0.0291 
2 10 16 -1.2294 0.0301 
2 10 17 -3.6181 0.0730 
2 10 18 8.5871 0.0027 
2 10 19 -1.7648 -0.0747 
2 10 20 3.2313 -0.1228 
2 10 21 3.4051 0.1516 
2 10 22 2.4731 -0.0447 
2 10 23 -1.2364 -0.1553 
2 10 24 -5.9288 0.0261 
2 11 0 3.6054 -0.3196 
2 11 1 10.6746 1.1605 
2 11 2 -9.4606 -0.8731 
2 11 3 0.7206 -0.2168 
2 11 4 -1.1138 -0.0126 
2 11 5 -0.4314 0.4372 
2 11 6 -1.8559 0.4238 
2 11 7 2.1254 -0.5584 
2 11 8 -1.1251 0.3602 
2 11 9 1.3481 -0.1373 
2 11 10 -4.4343 -0.1284 
2 11 11 4.3490 0.0720 
2 11 12 1.8391 -0.0671 
2 11 13 1.3232 0.1222 
2 11 14 -3.8952 -0.1510 
2 11 15 4.7897 0.0069 
2 11 16 2.0260 0.1214 
2 11 17 5.1688 -0.0638 
2 11 18 -1.1774 0.0558 
2 11 19 -0.2698 -0.1491 
2 11 20 -2.1689 -0.0804 
2 11 21 3.0452 0.1390 
2 11 22 4.3034 -0.0717 
2 11 23 0.8555 0.1348 
2 11 24 -0.1047 -0.1316 
2 12 0 0.3704 -0.8197 
2 12 1 0.7290 0.7732 
2 12 2 -4.3402 -0.2016 
2 12 3 -1.3473 0.3517 
2 12 4 6.1686 -0.6595 
2 12 5 2.4736 0.2399 
2 12 6 -2.0912 -0.1604 
2 12 7 1.1189 -0.0022 
2 12 8 -1.3743 0.1915 
2 12 9 -2.4503 0.0095 
2 12 10 4.6597 0.1168 
2 12 11 -0.1020 -0.1269 
2 12 12 0.8491 0.0829 
2 12 13 -2.3249 0.0247 
2 12 14 1.6384 -0.1281 
2 12 15 6.2048 0.1065 
2 12 16 0.5736 -0.0541 
2 12 17 -3.3595 0.0081 
2 12 18 -3.0231 0.0677 
2 12 19 -5.7111 -0.0861 
2 12 20 3.5380 -0.0309 
2 12 21 1.1673 0.0155 
2 12 22 -2.7959 0.0906 
2 12 23 -5.2657 -0.0541 
2 13 0 5.4116 0.2272 
2 13 1 -0.1623 -0.2388 
2 13 2 -3.0239 0.8105 
2 13 3 -0.6780 0.0342 
2 13 4 0.7394 -0.3275 
2 13 5 -7.0094 0.0153 
2 13 6 1.5128 -0.2008 
2 13 7 -2.9188 0.2026 
2 13 8 -0.1183 -0.1779 
2 13 9 3.7127 0.1667 
2 13 10 1.1463 -0.0164 
2 13 11 -1.9757 -0.1569 
2 13 12 -2.8812 0.1631 
2 13 13 -2.2014 -0.0197 
2 13 14 -0.6223 0.0531 
2 13 15 -2.1807 -0.0231 
2 13 16 -4.4899 -0.0488 
2 13 17 0.5117 -0.0321 
2 13 18 4.5251 0.0081 
2 13 19 0.2533 0.0747 
2 13 20 -3.6001 -0.0087 
2 13 21 1.3321 -0.2015 
2 13 22 1.3181 0.2353 
2 14 0 -2.6648 0.1030 
2 14 1 -3.3050 -0.3221 
2 14 2 -9.3327 0.6427 
2 14 3 1.4865 -0.2537 
2 14 4 0.8036 -0.1781 
2 14 5 7.4362 -0.1827 
2 14 6 -0.4541 0.2016 
2 14 7 -0.3657 -0.0058 
2 14 8 0.0404 -0.1346 
2 14 9 -1.6306 0.1701 
2 14 10 -0.0218 -0.0499 
2 14 11 1.1929 0.0579 
2 14 12 1.8287 -0.0703 
2 14 13 -2.6991 0.0726 
2 14 14 3.2570 0.0010 
2 14 15 9.7578 -0.0468 
2 14 16 -1.0058 -0.0164 
2 14 17 -2.8706 0.0482 
2 14 18 0.6971 -0.1445 
2 14 19 -3.0380 0.1404 
2 14 20 2.3157 -0.1856 
2 15 0 1.9843 -0.3404 
2 15 1 3.2724 0.1848 
2 15 2 -2.5227 -0.4458 
2 15 3 0.6995 0.0676 
2 15 4 2.1072 0.0208 
2 15 5 0.3964 -0.2093 
2 15 6 -2.4505 0.1935 
2 15 7 -1.7939 -0.1861 
2 15 8 -0.1559 0.1542 
2 15 9 -5.1449 -0.0292 
2 15 10 -4.2570 -0.0251 
2 15 11 4.0891 -0.1548 
2 15 12 6.0115 -0.0510 
2 15 13 1.0237 0.1091 
2 15 14 2.0396 0.1171 
2 15 15 -3.6158 -0.0981 
2 15 16 -1.1778 0.1137 
2 15 17 3.9748 -0.1553 
2 16 0 0.6768 -0.4500 
2 16 1 -2.3187 -0.1046 
2 16 2 1.2083 -0.3010 
2 16 3 1.3423 0.4130 
2 16 4 6.9406 0.1106 
2 16 5 3.0520 -0.2765 
2 16 6 -0.8355 -0.0298 
2 16 7 0.9191 0.1141 
2 16 8 4.9225 -0.1461 
2 16 9 3.2221 -0.0133 
2 16 10 2.2575 0.0806 
2 16 11 -0.9407 0.0964 
2 16 12 2.2045 -0.0058 
2 16 13 -2.4506 0.1978 
2 16 14 -6.8749 0.0240 
2 17 0 -0.3280 1.1929 
2 17 1 4.8475 -1.1726 
2 17 2 2.4969 0.4671 
2 17 3 0.0541 0.1703 
2 17 4 -3.8897 -0.3858 
2 17 5 -4.5604 0.3584 
2 17 6 -8.0947 -0.4628 
2 17 7 -4.8534 0.3198 
2 17 8 4.5687 0.0931 
3 -15 0 5.1735 0.3145 
3 -15 1 0.3248 -0.2187 
3 -15 2 0.6368 0.2440 
3 -14 0 -4.5239 -0.4284 
3 -14 1 -2.4186 0.1556 
3 -14 2 -3.5291 -0.0086 
3 -14 3 5.5962 0.1054 
3 -14 4 1.5596 0.0519 
3 -14 5 3.6239 0.0403 
3 -14 6 -1.8110 -0.1012 
3 -14 7 1.2072 -0.2656 
3 -14 8 4.0005 -0.6580 
3 -13 0 4.1345 0.3371 
3 -13 1 10.0767 0.6987 
3 -13 2 4.7173 0.1063 
3 -13 3 -4.3605 -0.1128 
3 -13 4 2.5488 -0.2649 
3 -13 5 -1.1886 -0.0389 
3 -13 6 -6.4457 -0.1265 
3 -13 7 -0.4617 -0.0290 
3 -13 8 -1.0090 0.2432 
3 -13 9 -0.3787 0.2202 
3 -13 10 -1.5514 0.0517 
3 -13 11 0.1252 -0.3398 
3 -12 0 1.2151 0.6649 
3 -12 1 1.7567 -0.0054 
3 -12 2 -7.4948 0.0445 
3 -12 3 1.7761 -0.2659 
3 -12 4 -2.7540 -0.4447 
3 -12 5 -2.1594 0.3751 
3 -12 6 1.3501 0.3009 
3 -12 7 1.7451 0.1593 
3 -12 8 3.2709 0.1009 
3 -12 9 0.3823 -0.0972 
3 -12 10 -1.2271 0.1101 
3 -12 11 0.9501 -0.3320 
3 -12 12 -3.2244 -0.1212 
3 -12 13 -2.5798 -0.2343 
3 -12 14 2.2888 0.0509 
3 -11 0 -3.8300 -0.0331 
3 -11 1 0.2221 -0.0264 
3 -11 2 1.2533 -0.2065 
3 -11 3 2.4948 0.1288 
3 -11 4 -0.5137 -0.0611 
3 -11 5 -5.1748 0.3947 
3 -11 6 -0.3967 0.2441 
3 -11 7 4.1574 -0.1195 
3 -11 8 1.5006 0.1182 
3 -11 9 -4.2597 -0.3325 
3 -11 10 -1.5203 -0.0237 
3 -11 11 -6.0525 0.0324 
3 -11 12 1.0939 -0.0355 
3 -11 13 -1.5830 0.0595 
3 -11 14 1.4001 -0.1699 
3 -11 15 0.7113 0.1169 
3 -11 16 -0.6161 -0.2822 
3 -10 0 6.9881 -0.9998 
3 -10 1 -4.1062 0.5423 
3 -10 2 3.4338 0.1832 
3 -10 3 -1.5493 0.5819 
3 -10 4 -1.8867 -0.1545 
3 -10 5 -3.4684 -0.1077 
3 -10 6 1.5401 -0.0214 
3 -10 7 0.4222 -0.2572 
3 -10 8 2.8416 -0.0777 
3 -10 9 -6.5656 0.1063 
3 -10 10 -4.1775 -0.1420 
3 -10 11 7.9882 0.1534 
3 -10 12 4.2213 -0.0741 
3 -10 13 2.5814 0.0554 
3 -10 14 0.6699 -0.1345 
3 -10 15 -1.6817 -0.2733 
3 -10 16 -1.5650 0.1177 
3 -10 17 -0.7192 -0.3983 
3 -10 18 2.0046 -0.0294 
3 -9 0 -7.3381 0.1908 
3 -9 1 0.1286 0.2262 
3 -9 2 -3.3294 0.5561 
3 -9 3 -2.0629 0.1042 
3 -9 4 -3.4282 -0.5130 
3 -9 5 1.2545 -0.4851 
3 -9 6 -0.2901 -0.1697 
3 -9 7 5.0667 0.2769 
3 -9 8 -2.0480 -0.0046 
3 -9 9 -1.1424 0.1906 
3 -9 10 -2.1719 0.0042 
3 -9 11 7.2175 -0.0234 
3 -9 12 1.9240 -0.0316 
3 -9 13 -3.5235 -0.2202 
3 -9 14 -5.9858 0.1958 
3 -9 15 3.5636 -0.2820 
3 -9 16 -2.2906 0.0780 
3 -9 17 -2.6337 -0.2218 
3 -9 18 1.6525 0.0339 
3 -9 19 2.8830 -0.0268 
3 -9 20 0.9744 -0.2808 
3 -8 0 3.2939 0.6156 
3 -8 1 0.0480 -1.0785 
3 -8 2 1.0339 0.2501 
3 -8 3 -1.1660 -0.3721 
3 -8 4 -0.4115 -0.0194 
3 -8 6 -0.8544 0.0487 
3 -8 7 -1.1959 0.3499 
3 -8 8 2.0030 -0.1024 
3 -8 9 -6.0282 -0.1385 
3 -8 10 0.7342 0.0822 
3 -8 11 5.8337 -0.3347 
3 -8 12 -0.4908 0.0731 
3 -8 13 -3.3417 0.0313 
3 -8 14 1.6001 0.1875 
3 -8 15 3.4306 0.0218 
3 -8 16 2.4508 0.0680 
3 -8 17 -0.4475 -0.0055 
3 -8 18 1.2229 -0.1163 
3 -8 19 -1.3971 -0.2898 
3 -8 20 -1.4277 -0.1226 
3 -8 21 1.3541 0.1836 
3 -7 0 -12.0943 -0.4853 
3 -7 1 0.4638 -1.0770 
3 -7 2 -1.7346 -0.7057 
3 -7 3 -7.0386 0.2127 
3 -7 4 10.4217 0.8057 
3 -7 9 -0.8034 -0.2801 
3 -7 10 4.9649 0.0169 
3 -7 11 -2.3581 0.0700 
3 -7 12 3.0866 -0.0477 
3 -7 13 -13.9995 0.2561 
3 -7 14 3.0724 0.0034 
3 -7 15 0.4724 -0.0124 
3 -7 16 0.7709 -0.1579 
3 -7 17 -4.1502 0.0607 
3 -7 18 3.2278 -0.1001 
3 -7 19 -1.7912 -0.1505 
3 -7 20 -1.8896 0.0162 
3 -7 21 4.6285 -0.1298 
3 -7 22 -6.0450 0.0223 
3 -6 0 1.1392 -1.4251 
3 -6 1 -7.4607 0.1036 
3 -6 2 17.9756 -0.3546 
3 -6 3 1.7339 0.6344 
3 -6 4 3.0422 0.6009 
3 -6 5 14.1924 -0.4819 
3 -6 6 -16.4404 -0.4474 
3 -6 7 -7.3026 -0.1234 
3 -6 8 7.6032 -0.1458 
3 -6 9 8.3444 0.0941 
3 -6 10 -0.9067 0.0211 
3 -6 11 2.7378 0.4267 
3 -6 12 -7.9054 -0.1078 
3 -6 13 3.9714 0.0024 
3 -6 14 -1.1717 -0.0689 
3 -6 15 5.0377 -0.0393 
3 -6 16 -3.4945 0.0065 
3 -6 17 -1.7423 -0.1325 
3 -6 18 -1.9685 0.0411 
3 -6 19 -1.4330 0.0317 
3 -6 20 -3.5386 -0.1534 
3 -6 21 -0.7311 -0.0459 
3 -6 22 2.7133 0.1764 
3 -6 23 -1.0451 0.1571 
3 -6 24 0.3247 0.1983 
3 -5 0 -30.7604 1.0087 
3 -5 1 14.8295 0.0790 
3 -5 2 -4.0129 0.3957 
3 -5 3 3.1557 -0.5025 
3 -5 4 -3.2068 0.2146 
3 -5 5 -1.0046 -0.3464 
3 -5 6 -3.3218 -0.3554 
3 -5 7 -1.7399 0.4612 
3 -5 8 5.4980 -0.1080 
3 -5 9 11.1532 0.3822 
3 -5 10 -7.7137 0.0506 
3 -5 11 -5.4837 0.0860 
3 -5 12 1.5941 -0.0318 
3 -5 13 -3.1168 -0.3263 
3 -5 14 3.4076 0.0225 
3 -5 15 3.5894 -0.0790 
3 -5 16 -7.1088 0.0952 
3 -5 17 -0.5914 -0.0047 
3 -5 18 4.2422 -0.0845 
3 -5 19 -1.6076 0.1069 
3 -5 20 -2.5073 0.0158 
3 -5 21 4.1265 -0.1606 
3 -5 22 5.5639 -0.1731 
3 -5 23 0.0391 0.1495 
3 -5 24 4.3005 0.1444 
3 -5 25 3.0130 -0.1506 
3 -4 0 -7.7314 1.7337 
3 -4 1 2.0979 -0.5279 
3 -4 2 33.8550 0.2211 
3 -4 3 -15.4019 -1.1539 
3 -4 4 -1.9646 0.2911 
3 -4 5 1.3172 0.5714 
3 -4 6 -9.0260 0.2927 
3 -4 7 -6.0896 0.2002 
3 -4 8 13.2194 0.0613 
3 -4 9 -10.0406 -0.0549 
3 -4 10 2.1007 -0.1148 
3 -4 11 -6.4564 -0.1149 
3 -4 12 5.3284 0.1251 
3 -4 13 6.7276 -0.2636 
3 -4 14 8.7871 0.1158 
3 -4 15 -5.7531 0.1528 
3 -4 16 -5.1065 -0.0741 
3 -4 17 -1.7083 0.1072 
3 -4 18 7.8683 -0.0662 
3 -4 19 2.3716 -0.1093 
3 -4 20 -1.2912 -0.1034 
3 -4 21 -1.7382 0.0521 
3 -4 22 -3.2237 -0.0145 
3 -4 23 -7.9884 -0.1069 
3 -4 24 2.3663 0.2080 
3 -4 25 -1.2261 0.2123 
3 -3 0 0.1928 -0.2416 
3 -3 1 36.7682 0.6947 
3 -3 2 5.8521 -1.0188 
3 -3 3 -4.4880 -0.1246 
3 -3 4 -1.5198 0.3137 
3 -3 5 -0.0807 0.8357 
3 -3 6 0.9887 0.2744 
3 -3 7 2.3077 -0.5787 
3 -3 8 -8.3454 0.1501 
3 -3 9 5.5753 -0.2251 
3 -3 10 -12.8445 -0.1513 
3 -3 11 0.4271 0.1121 
3 -3 12 3.8412 0.1247 
3 -3 13 3.0987 0.1034 
3 -3 14 -4.3363 -0.1608 
3 -3 15 -2.3698 0.1124 
3 -3 16 -8.1158 -0.0520 
3 -3 17 7.5589 -0.0800 
3 -3 18 4.6735 0.0154 
3 -3 19 2.8896 -0.0318 
3 -3 20 -4.3784 0.1034 
3 -3 21 -0.1440 0.1295 
3 -3 22 1.5778 0.1005 
3 -3 23 4.6174 0.0500 
3 -3 24 1.2072 -0.0822 
3 -3 25 1.0551 -0.0577 
3 -3 26 2.9321 -0.0805 
3 -2 0 -32.9634 -2.0882 
3 -2 1 13.7357 1.8256 
3 -2 2 -5.6046 -0.3771 
3 -2 3 -32.8755 0.6940 
3 -2 4 -10.5477 -0.7225 
3 -2 6 2.7418 -0.1546 
3 -2 7 18.3814 -0.2814 
3 -2 8 -5.2788 0.1633 
3 -2 9 -4.6121 0.1498 
3 -2 10 -3.0211 -0.0246 
3 -2 11 5.0706 0.2552 
3 -2 12 3.2071 -0.0231 
3 -2 13 -5.6997 0.0813 
3 -2 14 -4.2784 -0.2611 
3 -2 15 -1.7899 -0.1259 
3 -2 16 3.0992 0.0335 
3 -2 17 -2.9241 -0.0612 
3 -2 18 4.3958 0.1860 
3 -2 19 -1.1210 -0.0063 
3 -2 20 -7.6455 0.1013 
3 -2 21 0.9307 0.1859 
3 -2 22 3.3784 -0.0970 
3 -2 23 -1.9665 -0.1915 
3 -2 24 -1.4138 0.0177 
3 -2 25 -2.7056 -0.2852 
3 -2 26 1.0300 -0.2061 
3 -2 27 -1.9583 0.4314 
3 -1 0 31.7536 0.9018 
3 -1 1 17.6319 0.6227 
3 -1 2 -22.7302 1.3224 
3 -1 3 -8.9544 -0.2070 
3 -1 4 13.9670 -0.9582 
3 -1 5 7.3146 -0.0827 
3 -1 6 29.7607 0.0897 
3 -1 7 -21.7619 0.3987 
3 -1 8 -5.9387 -0.0484 
3 -1 9 -3.6474 0.3798 
3 -1 10 5.4268 -0.0409 
3 -1 11 8.6417 -0.1777 
3 -1 12 8.4697 0.0031 
3 -1 13 -17.8920 -0.2026 
3 -1 14 1.1573 -0.0438 
3 -1 15 7.2715 -0.0756 
3 -1 16 -4.2042 0.1134 
3 -1 17 4.8079 0.0816 
3 -1 18 -0.9389 0.1294 
3 -1 19 -1.9563 0.1334 
3 -1 20 -0.3645 -0.1748 
3 -1 21 1.2085 0.0126 
3 -1 22 2.7472 0.0788 
3 -1 23 -2.2398 -0.0554 
3 -1 24 -2.7648 -0.1598 
3 -1 25 0.8032 0.0338 
3 -1 26 -4.9647 0.0994 
3 -1 27 -5.8111 -0.0642 
3 0 0 14.8087 1.7217 
3 0 1 -18.4447 -1.2293 
3 0 2 -4.4787 1.0499 
3 0 3 -25.0613 -0.9411 
3 0 4 13.8183 -0.3702 
3 0 5 14.1242 0.1963 
3 0 6 -12.2645 0.7111 
3 0 7 -7.8474 0.1036 
3 0 8 -12.2059 -0.0686 
3 0 9 0.7206 0.0285 
3 0 10 7.3022 -0.0921 
3 0 11 12.4435 -0.4833 
3 0 12 -7.8768 0.0448 
3 0 13 -7.1009 0.1330 
3 0 14 -6.7925 0.0965 
3 0 15 15.5500 -0.0097 
3 0 16 -0.0380 0.0898 
3 0 17 -3.5197 0.1394 
3 0 18 1.7223 0.0080 
3 0 19 -1.5412 0.1596 
3 0 20 -4.8839 -0.1368 
3 0 21 2.4402 -0.1324 
3 0 22 -0.4620 0.0400 
3 0 23 -1.0054 0.1198 
3 0 24 6.1113 -0.0656 
3 0 25 8.9510 0.0396 
3 0 26 1.1780 0.1276 
3 0 27 3.4465 0.2265 
3 0 28 0.7221 -0.3519 
3 1 0 -32.3640 -0.9917 
3 1 1 -9.5232 -0.3323 
3 1 2 -19.7142 -1.1116 
3 1 3 15.1033 0.8140 
3 1 4 -30.8550 -0.0228 
3 1 5 2.1720 -0.0608 
3 1 6 -12.3698 0.3953 
3 1 7 -15.8241 -0.4066 
3 1 8 16.1155 0.0581 
3 1 9 18.1003 -0.3718 
3 1 10 -16.6122 0.0997 
3 1 11 7.3480 -0.1210 
3 1 12 -4.2154 -0.1200 
3 1 13 -14.5729 0.4601 
3 1 14 13.2891 0.0112 
3 1 15 9.0773 0.0041 
3 1 16 -7.2025 -0.0497 
3 1 17 -8.9471 -0.0512 
3 1 18 0.1139 0.0206 
3 1 19 3.6275 0.0286 
3 1 20 5.0484 0.0615 
3 1 21 1.6237 -0.1187 
3 1 22 4.8291 -0.0041 
3 1 23 -5.4145 0.0946 
3 1 24 -4.7987 0.0419 
3 1 25 1.0222 -0.0997 
3 1 26 -3.3699 0.0187 
3 1 27 1.2496 -0.0348 
3 1 28 0.4613 -0.2644 
3 2 0 -63.8892 -2.5586 
3 2 2 77.3857 -0.4288 
3 2 3 0.6411 2.1402 
3 2 4 41.4107 -0.1723 
3 2 5 -3.7081 -0.7899 
3 2 6 -21.9719 -0.4845 
3 2 7 0.2754 0.0442 
3 2 8 26.5102 -0.0027 
3 2 9 3.7493 -0.2297 
3 2 10 5.2187 0.2270 
3 2 11 -14.9990 0.1883 
3 2 12 11.2462 -0.1393 
3 2 13 -3.4614 0.2191 
3 2 14 7.2315 0.0120 
3 2 15 11.3455 -0.1077 
3 2 16 1.1508 -0.0533 
3 2 17 -8.3560 -0.1484 
3 2 18 5.1786 0.0425 
3 2 19 2.2223 0.1045 
3 2 20 -3.0193 0.0950 
3 2 21 -1.3037 -0.0400 
3 2 22 -3.7046 -0.0261 
3 2 23 -4.3909 0.0653 
3 2 24 3.0993 0.1518 
3 2 25 -1.6645 -0.0819 
3 2 26 -0.0594 -0.1134 
3 2 27 -1.4712 -0.2565 
3 2 28 2.5576 0.2954 
3 3 0 0.3289 1.6189 
3 3 1 -1.5937 -1.1958 
3 3 2 -17.3286 0.8229 
3 3 3 -3.5771 -0.0715 
3 3 4 -11.4480 0.3685 
3 3 5 5.8423 -0.5579 
3 3 6 3.6420 -0.6122 
3 3 7 0.3791 0.6091 
3 3 8 22.3899 -0.0789 
3 3 9 -12.8247 0.0683 
3 3 10 -32.5932 0.0512 
3 3 11 13.4314 -0.0327 
3 3 12 1.9899 -0.0282 
3 3 13 -0.1827 -0.1902 
3 3 14 -1.2684 0.2638 
3 3 15 1.2908 -0.0377 
3 3 16 -6.2238 0.0050 
3 3 18 -1.0134 -0.0450 
3 3 19 3.7972 0.1142 
3 3 20 2.8401 0.0222 
3 3 21 1.7825 -0.0857 
3 3 22 0.2470 -0.0113 
3 3 23 -1.4226 0.0142 
3 3 24 2.9481 0.1246 
3 3 25 2.1450 -0.0067 
3 3 26 -3.4901 -0.0817 
3 3 27 -1.9393 0.0940 
3 3 28 -1.5653 0.1222 
3 4 0 -11.2993 2.2060 
3 4 1 25.0317 -1.1268 
3 4 2 9.5718 0.1685 
3 4 3 -0.5460 -1.2268 
3 4 4 -8.7368 0.7375 
3 4 5 -21.6317 0.0363 
3 4 6 -25.5397 -0.1689 
3 4 7 33.9086 0.3257 
3 4 8 4.1197 -0.0483 
3 4 9 2.3908 -0.1221 
3 4 10 -15.4111 -0.0446 
3 4 11 1.6734 -0.1279 
3 4 12 10.9082 -0.0304 
3 4 13 -1.2019 -0.1103 
3 4 14 -10.4699 0.2174 
3 4 15 9.6409 -0.0010 
3 4 16 -3.3599 -0.0117 
3 4 17 2.3775 0.0156 
3 4 18 4.1498 -0.1089 
3 4 19 2.1512 -0.0022 
3 4 20 -4.1900 -0.0132 
3 4 21 -4.7061 0.0353 
3 4 22 -6.7281 -0.0606 
3 4 23 1.9895 -0.0659 
3 4 24 -1.7472 0.1126 
3 4 25 3.9401 0.0495 
3 4 26 2.0917 -0.0933 
3 4 27 0.1183 0.1054 
3 4 28 -3.4806 -0.1095 
3 5 0 3.2977 -0.9272 
3 5 1 -15.4002 1.1041 
3 5 2 10.5938 -1.4976 
3 5 3 0.9522 0.1627 
3 5 4 -7.0393 0.5800 
3 5 5 -2.1472 0.1107 
3 5 6 17.3270 -0.2577 
3 5 7 -9.8149 -0.4813 
3 5 8 18.0120 0.2542 
3 5 9 -20.3661 -0.2134 
3 5 10 -11.8250 -0.0603 
3 5 11 5.7444 0.1797 
3 5 12 6.5001 0.0229 
3 5 13 -8.6008 0.0905 
3 5 14 4.6605 -0.0582 
3 5 15 -6.9279 0.0512 
3 5 16 9.2391 -0.0231 
3 5 17 -3.4557 -0.1111 
3 5 18 2.4674 -0.0578 
3 5 19 -1.4389 -0.0780 
3 5 20 -3.7577 0.1174 
3 5 21 -2.2347 0.1395 
3 5 22 5.8168 -0.0486 
3 5 23 7.0527 -0.0023 
3 5 24 2.5465 -0.0310 
3 5 25 -1.7918 0.1848 
3 5 26 0.6420 -0.0086 
3 5 27 -6.0313 -0.1201 
3 5 28 4.0962 -0.0832 
3 6 0 4.7172 -2.1606 
3 6 1 5.4527 1.1214 
3 6 2 -0.8553 -0.5095 
3 6 3 -14.6138 0.5235 
3 6 4 10.1559 -0.1233 
3 6 5 14.4731 0.1460 
3 6 6 -4.6769 -0.4432 
3 6 7 -2.7773 -0.4194 
3 6 8 -10.3640 0.3746 
3 6 9 0.8746 -0.0138 
3 6 10 3.3665 0.0688 
3 6 11 9.5248 0.2169 
3 6 12 9.4354 0.0448 
3 6 13 -9.7129 -0.1185 
3 6 14 -11.4169 -0.0858 
3 6 15 5.1687 0.0442 
3 6 16 -4.7721 -0.0283 
3 6 17 2.4892 -0.0235 
3 6 18 -0.3063 -0.0136 
3 6 19 0.0672 -0.0501 
3 6 20 0.9964 0.1317 
3 6 21 3.6962 0.0696 
3 6 22 1.0782 -0.0123 
3 6 23 -2.5918 -0.0952 
3 6 24 -3.6577 -0.0473 
3 6 25 -2.2179 -0.0107 
3 6 26 -0.8563 0.1057 
3 6 27 -2.5610 -0.0269 
3 6 28 -1.7108 0.0092 
3 7 0 3.8109 1.4406 
3 7 1 -10.0931 0.0976 
3 7 2 -15.3290 1.1756 
3 7 3 -5.0351 -1.2153 
3 7 4 -7.0662 -0.2087 
3 7 5 26.6062 0.4951 
3 7 6 -8.8051 -0.1634 
3 7 7 -5.8228 0.1988 
3 7 8 3.6972 -0.0813 
3 7 9 -3.1567 0.2652 
3 7 10 -6.4494 -0.0481 
3 7 11 9.1734 -0.0825 
3 7 12 -3.8894 0.1362 
3 7 13 -1.1795 -0.3362 
3 7 14 2.1581 -0.0047 
3 7 15 3.9438 0.0305 
3 7 16 3.8164 -0.0153 
3 7 17 -1.7881 0.1522 
3 7 18 -1.2043 -0.0334 
3 7 19 3.8567 -0.0103 
3 7 20 -4.1456 -0.0864 
3 7 21 -1.7574 -0.0195 
3 7 22 1.3080 0.0684 
3 7 23 -4.5245 -0.1892 
3 7 24 0.1305 -0.0822 
3 7 25 6.2427 -0.0076 
3 7 26 5.7012 0.1630 
3 7 27 4.8567 0.0514 
3 8 0 -12.2309 1.0544 
3 8 1 5.3359 -0.0600 
3 8 2 5.5401 0.9089 
3 8 3 -5.6611 -1.4065 
3 8 4 17.2451 -0.3250 
3 8 5 -3.5135 0.4285 
3 8 6 -5.0558 0.6350 
3 8 7 -4.4304 0.0103 
3 8 8 2.0388 -0.3430 
3 8 9 3.6937 0.2562 
3 8 10 -2.4748 -0.1395 
3 8 11 -7.2570 -0.0030 
3 8 12 2.5453 0.0460 
3 8 13 -3.4830 -0.0192 
3 8 14 1.0110 -0.0538 
3 8 15 2.7659 0.0007 
3 8 16 -5.5896 0.0339 
3 8 17 -7.0119 0.0721 
3 8 18 2.0453 0.0151 
3 8 19 -2.6901 -0.0380 
3 8 20 -0.4812 -0.1242 
3 8 21 1.5155 0.0878 
3 8 22 2.8787 0.1392 
3 8 23 -1.5215 0.0027 
3 8 24 4.4241 -0.0835 
3 8 25 -3.8873 0.0229 
3 8 26 -0.9502 0.1106 
3 8 27 -2.2567 0.0318 
3 9 0 -1.2874 -1.2263 
3 9 1 -9.1439 0.6445 
3 9 2 10.0236 -0.6850 
3 9 3 -1.9054 0.3806 
3 9 4 -3.3743 -0.2859 
3 9 5 6.5891 0.1049 
3 9 6 -4.9382 0.8121 
3 9 7 -4.7846 -0.5531 
3 9 8 8.8758 0.0893 
3 9 9 3.3489 -0.0286 
3 9 10 4.1233 -0.1869 
3 9 11 -0.9442 0.1348 
3 9 12 0.4790 -0.0628 
3 9 13 -2.4084 0.2670 
3 9 14 -1.9886 -0.2239 
3 9 15 -3.7933 0.0660 
3 9 16 -0.6537 0.0582 
3 9 17 -0.4579 -0.0629 
3 9 18 5.1234 0.0271 
3 9 19 -1.2445 -0.0666 
3 9 20 -5.3448 -0.1143 
3 9 21 -0.3243 -0.0418 
3 9 22 -3.1098 -0.0599 
3 9 23 4.3060 0.0782 
3 9 24 -1.3041 -0.0980 
3 9 25 2.1107 0.0394 
3 9 26 -2.4106 -0.0582 
3 10 0 -13.1315 -1.7692 
3 10 1 7.6932 -0.2242 
3 10 2 -5.4698 -0.2125 
3 10 3 -1.6469 1.1191 
3 10 4 2.1439 -0.4133 
3 10 5 2.7062 0.0093 
3 10 6 2.4382 0.2746 
3 10 7 0.5371 -0.0863 
3 10 8 -2.7251 0.0275 
3 10 9 8.9319 -0.1822 
3 10 10 -7.4415 0.1082 
3 10 11 2.3850 -0.1096 
3 10 12 2.1275 -0.0413 
3 10 13 6.5443 0.0631 
3 10 14 -1.0053 -0.1089 
3 10 15 1.9460 0.0186 
3 10 16 -2.0647 0.0183 
3 10 17 -0.6651 -0.0474 
3 10 18 3.2641 0.0425 
3 10 19 2.5986 0.0536 
3 10 20 2.1155 -0.0249 
3 10 21 0.7556 -0.0128 
3 10 22 2.2357 0.0034 
3 10 23 -3.3197 0.1182 
3 10 24 0.6071 -0.0354 
3 10 25 -3.4202 0.1013 
3 11 0 5.2844 1.0738 
3 11 1 2.9817 -0.9290 
3 11 2 7.1261 0.7673 
3 11 3 -4.0531 0.1223 
3 11 4 -2.8931 -0.0888 
3 11 5 -1.9718 -0.1076 
3 11 6 -4.6324 -0.1229 
3 11 7 -1.0599 0.4844 
3 11 8 4.4244 -0.3150 
3 11 9 -6.7732 -0.0379 
3 11 10 -2.9109 0.1660 
3 11 11 -0.7849 -0.1547 
3 11 12 5.2884 0.1953 
3 11 13 -0.2997 -0.0651 
3 11 14 -2.9174 0.1168 
3 11 15 5.4953 -0.0201 
3 11 16 3.5737 0.0066 
3 11 17 -2.8441 -0.0126 
3 11 18 2.4822 -0.0742 
3 11 19 -2.5463 0.0605 
3 11 20 2.7247 -0.0591 
3 11 21 2.7844 -0.1407 
3 11 22 4.6278 0.0420 
3 11 23 5.1891 -0.0139 
3 11 24 -0.6690 0.0366 
3 12 0 -2.0093 0.7611 
3 12 1 1.4391 -0.6587 
3 12 2 -1.0424 0.2699 
3 12 3 -0.4019 -0.1595 
3 12 4 0.6402 0.1834 
3 12 5 -3.5624 -0.3033 
3 12 6 2.3214 0.1612 
3 12 7 -3.1097 0.3369 
3 12 8 -0.3734 -0.2908 
3 12 9 0.6512 -0.0205 
3 12 10 -0.9307 -0.0721 
3 12 11 1.2714 0.0632 
3 12 12 1.7478 -0.1175 
3 12 13 -4.1076 0.1223 
3 12 14 2.0404 0.0921 
3 12 15 7.5075 -0.0734 
3 12 16 2.7443 0.0334 
3 12 17 -1.7465 -0.0166 
3 12 18 -2.6549 -0.0190 
3 12 19 -5.5769 0.0425 
3 12 20 -3.6638 0.0216 
3 12 21 3.0998 -0.1112 
3 12 22 -0.3962 0.0242 
3 12 23 -3.2751 -0.0430 
3 13 0 -2.6048 -0.2120 
3 13 1 4.7153 0.3595 
3 13 2 -1.7533 -0.8885 
3 13 3 2.0058 0.3714 
3 13 4 -5.0072 0.2489 
3 13 5 4.9811 -0.4042 
3 13 6 1.5671 -0.1218 
3 13 7 1.1105 -0.1060 
3 13 8 -0.6636 0.2908 
3 13 9 1.9396 -0.0641 
3 13 10 0.4924 -0.0138 
3 13 11 -1.7544 0.1719 
3 13 12 -3.3257 -0.0964 
3 13 13 -0.2241 0.0817 
3 13 14 -4.6172 -0.0395 
3 13 15 -1.3979 -0.0143 
3 13 16 -4.5260 -0.0046 
3 13 17 -0.0317 -0.0839 
3 13 18 3.5832 -0.0265 
3 13 19 -2.7218 0.0526 
3 13 20 -2.8412 0.0185 
3 13 21 3.1034 0.0675 
3 13 22 1.9506 -0.1269 
3 14 0 0.5850 -0.6967 
3 14 1 -3.1407 -0.0005 
3 14 2 -3.5144 -0.2746 
3 14 3 -5.3288 0.4404 
3 14 4 1.9087 0.2390 
3 14 5 1.3170 -0.1632 
3 14 6 2.6489 -0.3914 
3 14 7 -5.7225 0.0512 
3 14 8 -1.2317 0.1476 
3 14 9 -0.6408 -0.1547 
3 14 10 1.9666 0.0430 
3 14 11 1.1512 -0.0199 
3 14 12 7.4253 0.0395 
3 14 13 -4.9693 -0.0396 
3 14 14 1.6862 0.0659 
3 14 15 4.1561 0.0555 
3 14 16 1.9047 -0.0751 
3 14 17 1.2993 0.0047 
3 14 18 0.6963 -0.0448 
3 14 19 0.7954 -0.0086 
3 14 20 0.9211 0.1123 
3 15 0 3.2485 0.8953 
3 15 1 2.3062 -0.0352 
3 15 2 2.6313 0.1965 
3 15 3 -0.4691 -0.3039 
3 15 4 0.4363 0.1275 
3 15 5 3.8046 0.1909 
3 15 6 2.4538 -0.4789 
3 15 7 1.5640 0.1631 
3 15 8 3.6364 -0.0062 
3 15 9 1.6402 0.0682 
3 15 10 -3.8427 0.1112 
3 15 11 0.5890 0.0271 
3 15 12 1.5497 0.1447 
3 15 13 3.5215 -0.1332 
3 15 14 -3.0464 0.0777 
3 15 15 0.7408 -0.0520 
3 15 16 -2.1851 0.0185 
3 15 17 0.8119 0.0868 
3 15 18 0.2425 0.0251 
3 16 0 -4.0356 0.4835 
3 16 1 2.2811 0.0474 
3 16 2 -2.4665 0.2011 
3 16 3 -1.1787 -0.3781 
3 16 4 0.9168 -0.2844 
3 16 5 3.7538 0.2365 
3 16 6 0.1424 0.0143 
3 16 7 -4.4212 -0.0222 
3 16 8 -0.5961 0.1405 
3 16 9 0.9526 0.0093 
3 16 10 -5.3295 -0.0653 
3 16 11 -6.8397 0.0501 
3 16 12 -0.7877 0.0479 
3 16 13 1.8794 -0.0681 
3 16 14 1.5683 -0.1403 
3 16 15 -4.1734 0.1069 
3 17 0 -2.8562 -0.7127 
3 17 1 4.1770 0.8956 
3 17 2 2.5891 -0.2971 
3 17 3 0.7714 -0.3175 
3 17 4 -0.6924 0.5470 
3 17 5 2.0037 -0.2841 
3 17 6 -3.5521 0.2214 
3 17 7 -6.4739 -0.0161 
3 17 8 -0.1564 -0.2399 
3 17 9 2.1114 0.1661 
3 17 10 6.5359 -0.1244 
4 -14 0 -7.1392 0.5501 
4 -14 1 -2.9557 0.0082 
4 -14 2 0.8106 -0.1137 
4 -14 3 3.5717 -0.3063 
4 -14 4 6.7775 -0.4043 
4 -14 5 3.0484 -0.0804 
4 -13 0 -0.8525 0.0059 
4 -13 1 2.4285 -0.3849 
4 -13 2 -2.6554 -0.1481 
4 -13 3 3.6011 0.2676 
4 -13 4 2.9550 0.1185 
4 -13 5 -0.7840 0.1352 
4 -13 6 -1.3804 0.1414 
4 -13 7 -2.8339 -0.0147 
4 -13 8 0.1637 -0.1793 
4 -13 9 -2.8386 -0.1347 
4 -12 0 0.2223 -0.6778 
4 -12 1 3.8805 -0.1606 
4 -12 2 1.1691 0.0644 
4 -12 3 1.3028 0.5978 
4 -12 4 -4.0464 0.0786 
4 -12 5 -7.6312 -0.1781 
4 -12 6 -4.9649 -0.1508 
4 -12 7 4.6046 -0.0681 
4 -12 8 -5.1036 -0.0785 
4 -12 9 -7.4021 0.0874 
4 -12 10 1.4143 0.1060 
4 -12 11 1.8141 -0.1700 
4 -12 12 1.3680 -0.4635 
4 -11 0 1.1292 0.3480 
4 -11 1 -7.8375 0.1000 
4 -11 2 0.8098 0.2261 
4 -11 3 2.9235 0.1086 
4 -11 4 3.3458 -0.0917 
4 -11 5 -2.8294 -0.2579 
4 -11 6 3.9735 -0.2016 
4 -11 7 1.3711 0.1815 
4 -11 8 4.1153 0.0820 
4 -11 9 4.3298 -0.0180 
4 -11 10 -1.6214 0.0506 
4 -11 11 3.2778 -0.2614 
4 -11 12 -6.3862 -0.0364 
4 -11 13 -0.0397 -0.3936 
4 -11 14 -0.1725 -0.1294 
4 -11 15 1.5845 -0.2726 
4 -10 0 -3.0932 0.8104 
4 -10 1 -0.6512 -0.3327 
4 -10 2 -5.7171 -0.1005 
4 -10 3 5.3191 -0.4107 
4 -10 4 2.5833 0.1174 
4 -10 5 -1.7808 0.1064 
4 -10 6 -6.5354 -0.1602 
4 -10 7 0.9823 0.2030 
4 -10 8 1.9215 0.0092 
4 -10 9 3.8071 -0.1576 
4 -10 10 0.3720 0.0487 
4 -10 11 -2.2433 -0.2688 
4 -10 12 2.3766 0.1645 
4 -10 13 2.7217 -0.0761 
4 -10 14 -1.2295 0.1385 
4 -10 15 3.4224 -0.2634 
4 -10 16 0.9138 -0.4068 
4 -10 17 0.6853 -0.0798 
4 -9 0 0.8345 -0.5559 
4 -9 1 -1.9815 -0.0886 
4 -9 2 6.2723 -0.4049 
4 -9 3 3.1866 0.1389 
4 -9 4 -4.5680 0.3867 
4 -9 5 -3.5838 0.0948 
4 -9 6 -3.1637 -0.3180 
4 -9 7 -0.8062 -0.1725 
4 -9 8 6.9477 -0.0078 
4 -9 9 -2.6349 -0.0376 
4 -9 10 -4.2523 0.0241 
4 -9 11 -1.8184 0.0712 
4 -9 12 6.3146 0.0728 
4 -9 13 -3.1631 0.0730 
4 -9 14 -1.3914 -0.0767 
4 -9 15 -2.6096 -0.1293 
4 -9 16 0.7192 -0.1738 
4 -9 17 -3.7997 -0.3532 
4 -9 18 0.3767 -0.1891 
4 -9 19 4.7917 -0.0546 
4 -8 0 1.0704 -1.4016 
4 -8 1 2.6881 0.5943 
4 -8 2 4.7644 0.0546 
4 -8 3 -6.1933 0.2581 
4 -8 4 0.8126 0.2117 
4 -8 5 1.0457 -0.2276 
4 -8 6 8.2183 -0.3959 
4 -8 7 5.8551 -0.2151 
4 -8 8 4.0993 0.0493 
4 -8 9 -1.3423 0.2855 
4 -8 10 -3.1448 0.0429 
4 -8 11 -0.0967 0.3344 
4 -8 12 8.1735 -0.2324 
4 -8 13 -1.3097 -0.0742 
4 -8 14 -1.2124 -0.0015 
4 -8 15 0.4992 -0.2191 
4 -8 16 4.0402 0.0003 
4 -8 17 -1.1333 -0.0459 
4 -8 18 1.6348 0.2297 
4 -8 19 0.7573 -0.2278 
4 -8 20 -5.8306 -0.0906 
4 -7 0 7.8572 0.8628 
4 -7 1 1.5968 0.6426 
4 -7 2 6.2436 0.4753 
4 -7 3 -1.5949 -0.8483 
4 -7 4 -11.8621 -0.2504 
4 -7 6 0.9097 -0.0560 
4 -7 7 -0.2736 0.2380 
4 -7 8 -2.0759 0.1064 
4 -7 9 -1.4373 0.2505 
4 -7 10 -7.4810 -0.1224 
4 -7 11 6.4333 -0.1048 
4 -7 12 -4.2678 -0.0073 
4 -7 13 -0.2285 -0.2635 
4 -7 14 -5.0312 0.1220 
4 -7 15 3.8809 0.0664 
4 -7 16 -2.6239 0.2031 
4 -7 17 0.7252 0.0544 
4 -7 18 -1.2341 0.2581 
4 -7 19 -2.2676 0.1884 
4 -7 20 -3.5684 -0.4790 
4 -7 21 0.9607 -0.3035 
4 -7 22 -0.8811 -0.2227 
4 -6 0 -4.7622 1.4421 
4 -6 1 3.8512 -0.2648 
4 -6 2 -5.3136 0.1268 
4 -6 3 -7.5628 -1.1879 
4 -6 4 6.0770 -0.2683 
4 -6 5 5.6171 0.6151 
4 -6 6 3.3008 0.4716 
4 -6 7 -4.6406 0.1727 
4 -6 8 1.0644 -0.1542 
4 -6 9 1.0714 -0.0334 
4 -6 10 1.9697 -0.0786 
4 -6 11 -0.6773 -0.2846 
4 -6 12 8.8623 0.1232 
4 -6 13 -6.6818 -0.0452 
4 -6 14 -7.2041 0.0480 
4 -6 15 1.0181 0.1636 
4 -6 16 0.7369 0.0395 
4 -6 17 -1.6359 0.0100 
4 -6 18 2.1772 -0.1173 
4 -6 19 -2.0634 0.0611 
4 -6 20 -1.1579 0.0739 
4 -6 21 4.1496 -0.2413 
4 -6 22 6.9009 0.0024 
4 -6 23 0.8515 0.0192 
4 -5 0 4.2678 -0.7201 
4 -5 1 -14.1020 -0.0034 
4 -5 2 4.8786 -0.5838 
4 -5 3 -3.8581 0.4300 
4 -5 4 -3.9692 -0.1076 
4 -5 5 12.6551 0.3349 
4 -5 6 -2.7873 0.5647 
4 -5 7 -14.4385 -0.4136 
4 -5 8 3.2881 -0.1364 
4 -5 9 -1.3990 -0.0715 
4 -5 10 4.4493 -0.1530 
4 -5 11 -3.0569 0.1559 
4 -5 12 -3.6936 0.0703 
4 -5 13 -6.9781 0.1987 
4 -5 14 5.8290 -0.1446 
4 -5 15 3.2955 0.0282 
4 -5 16 6.6802 -0.0534 
4 -5 17 -3.8319 -0.0255 
4 -5 18 -3.1277 0.0811 
4 -5 19 -2.4510 -0.1074 
4 -5 20 -0.7020 0.0520 
4 -5 21 2.2472 0.0827 
4 -5 22 3.4094 -0.1490 
4 -5 23 -4.7462 -0.1777 
4 -5 24 -2.4786 0.4311 
4 -4 0 -15.4229 -2.0835 
4 -4 1 -2.7514 0.3162 
4 -4 2 -4.1384 0.0054 
4 -4 3 2.0603 1.3205 
4 -4 4 2.0939 -0.3848 
4 -4 5 0.5423 -0.1976 
4 -4 6 -5.7608 0.3055 
4 -4 7 -3.7783 -0.3395 
4 -4 8 -6.6813 -0.0451 
4 -4 9 10.3211 0.1360 
4 -4 10 -7.3224 -0.0434 
4 -4 11 2.2039 0.2513 
4 -4 12 -2.2229 -0.1046 
4 -4 13 5.6218 0.0980 
4 -4 14 -1.0856 -0.1477 
4 -4 15 8.3480 -0.1411 
4 -4 16 -8.7953 0.1388 
4 -4 17 0.1172 -0.0925 
4 -4 18 2.3355 0.0407 
4 -4 19 2.3382 0.1041 
4 -4 20 2.1536 -0.0123 
4 -4 21 2.4112 0.1205 
4 -4 22 -4.2138 -0.0123 
4 -4 23 -5.0972 0.0354 
4 -4 24 1.5111 0.0479 
4 -4 25 5.6676 0.1004 
4 -3 0 -17.5919 1.1049 
4 -3 1 -9.9534 -0.4618 
4 -3 2 21.7705 0.6711 
4 -3 3 6.2529 -0.0905 
4 -3 4 10.6540 -0.3362 
4 -3 5 1.5747 -0.2486 
4 -3 6 -14.2850 0.2871 
4 -3 7 -5.8011 0.3725 
4 -3 8 3.8116 -0.0393 
4 -3 9 0.8505 0.0408 
4 -3 10 3.8436 -0.0067 
4 -3 11 -7.2004 -0.1762 
4 -3 12 -1.7129 -0.0876 
4 -3 13 2.5249 -0.0724 
4 -3 14 6.6298 0.1316 
4 -3 15 0.4889 -0.0544 
4 -3 16 1.4158 0.0893 
4 -3 17 -7.2913 0.1034 
4 -3 18 -2.4682 0.0068 
4 -3 19 7.7550 0.0387 
4 -3 20 0.8310 -0.1466 
4 -3 21 -3.6881 0.0310 
4 -3 22 -0.3667 -0.0140 
4 -3 23 -0.9749 -0.0135 
4 -3 24 5.4757 0.0443 
4 -3 25 2.1909 0.1756 
4 -3 26 4.2151 -0.0958 
4 -2 0 -25.2969 1.9332 
4 -2 1 -6.1133 -1.4216 
4 -2 2 8.9344 0.2631 
4 -2 3 5.4407 -0.4553 
4 -2 4 -4.3618 0.2413 
4 -2 5 -20.7577 -0.0587 
4 -2 6 11.9165 0.2941 
4 -2 7 9.0286 0.4277 
4 -2 8 5.4035 -0.2779 
4 -2 9 1.9206 -0.2791 
4 -2 10 -8.8421 -0.0085 
4 -2 11 -5.8961 -0.2486 
4 -2 12 12.4586 0.1221 
4 -2 13 0.1335 0.1099 
4 -2 14 -5.6462 0.1236 
4 -2 15 1.0823 0.0446 
4 -2 16 -7.0612 -0.0156 
4 -2 17 -4.2674 0.1026 
4 -2 18 4.4493 -0.1636 
4 -2 19 5.3821 0.1274 
4 -2 20 0.0963 -0.0354 
4 -2 21 -7.3780 -0.0791 
4 -2 22 1.7545 0.1936 
4 -2 23 2.0900 0.0936 
4 -2 24 -1.4993 -0.0955 
4 -2 25 -3.9487 -0.0554 
4 -2 26 -0.4505 -0.0228 
4 -1 0 -6.5221 -0.7153 
4 -1 1 8.4811 -0.1236 
4 -1 2 13.6924 -1.0728 
4 -1 3 -16.2517 1.1612 
4 -1 4 -16.3453 0.4599 
4 -1 5 0.9221 -0.3531 
4 -1 6 5.8464 -0.2385 
4 -1 7 14.7719 -0.1549 
4 -1 8 -1.5376 0.0111 
4 -1 9 -0.3254 -0.2510 
4 -1 10 -12.3871 0.1075 
4 -1 11 7.2082 0.2499 
4 -1 12 4.0982 -0.0651 
4 -1 13 3.7507 0.2581 
4 -1 14 -11.4816 0.0026 
4 -1 15 4.3109 -0.0098 
4 -1 16 -1.1339 -0.1640 
4 -1 17 -1.8135 -0.1137 
4 -1 18 3.6346 0.0044 
4 -1 19 2.3409 0.0608 
4 -1 20 -5.1911 0.2225 
4 -1 21 1.4960 0.0119 
4 -1 22 3.6173 0.0499 
4 -1 23 -1.1488 0.0706 
4 -1 24 -2.0777 -0.0302 
4 -1 25 1.6886 -0.1021 
4 -1 26 -2.5775 -0.2274 
4 -1 27 -4.0793 -0.3171 
4 0 0 4.3255 -2.1289 
4 0 1 17.1557 0.7944 
4 0 2 -6.4736 -0.5328 
4 0 3 12.4476 1.3165 
4 0 4 -29.8163 0.1646 
4 0 5 -0.1395 -0.6312 
4 0 6 20.0799 -0.7965 
4 0 7 -6.2099 -0.0790 
4 0 8 -12.6208 0.4660 
4 0 9 -3.9841 -0.0130 
4 0 10 -7.8124 0.1653 
4 0 11 9.2715 0.2550 
4 0 12 20.8645 -0.2201 
4 0 13 -12.6296 -0.0779 
4 0 14 -3.1443 -0.0624 
4 0 15 0.2301 -0.0664 
4 0 16 5.5067 -0.0207 
4 0 17 -0.1867 -0.0938 
4 0 18 4.8823 0.1649 
4 0 19 -3.0942 0.0559 
4 0 20 -1.8429 0.1788 
4 0 21 -2.6231 -0.0346 
4 0 22 5.6649 -0.0943 
4 0 23 0.5057 -0.0189 
4 0 24 -4.6523 0.0896 
4 0 25 11.7998 -0.1903 
4 0 26 3.1240 -0.1353 
4 0 27 -1.9477 0.0330 
4 1 0 -3.6126 2.0316 
4 1 1 -26.6123 0.1165 
4 1 2 34.3370 0.8228 
4 1 3 -39.8461 -1.1785 
4 1 4 -4.6183 0.3444 
4 1 5 12.4075 -0.0967 
4 1 6 12.8761 -0.7552 
4 1 7 -8.1356 0.3817 
4 1 8 1.5795 0.2391 
4 1 9 -3.8700 0.1079 
4 1 10 8.7864 0.0625 
4 1 11 -0.2167 -0.1791 
4 1 12 5.7102 -0.0656 
4 1 13 -7.7546 -0.3019 
4 1 14 -10.3586 0.1865 
4 1 15 6.6066 0.0072 
4 1 16 4.4533 0.0935 
4 1 17 -4.5552 0.1254 
4 1 18 -3.1422 0.0160 
4 1 19 3.2419 0.0507 
4 1 20 -2.2426 0.0061 
4 1 21 5.7902 0.0244 
4 1 22 6.8046 -0.0602 
4 1 23 -4.8873 -0.1020 
4 1 24 -2.8079 0.1155 
4 1 25 1.2685 -0.1343 
4 1 26 3.9175 0.1121 
4 1 27 -1.3805 -0.0115 
4 1 28 -1.9597 0.2528 
4 2 0 -9.7026 2.0011 
4 2 1 17.8517 -0.1657 
4 2 2 2.9948 0.3813 
4 2 3 15.2288 -1.8908 
4 2 4 1.5308 0.2870 
4 2 5 24.5812 0.4240 
4 2 6 -4.5318 -0.1395 
4 2 7 -32.6947 0.2176 
4 2 8 -0.2102 -0.0610 
4 2 9 24.7460 0.0353 
4 2 10 -8.0681 -0.0925 
4 2 11 7.7613 -0.1998 
4 2 12 1.1316 0.1134 
4 2 13 -3.4145 -0.0646 
4 2 14 -3.5941 0.1426 
4 2 15 7.1068 0.1321 
4 2 16 4.1317 -0.0447 
4 2 17 -0.7545 0.1427 
4 2 18 -4.7344 -0.0596 
4 2 19 3.0393 -0.0732 
4 2 20 -1.7181 -0.1077 
4 2 21 -5.2000 0.1050 
4 2 22 2.4321 0.0112 
4 2 23 -3.3864 -0.1673 
4 2 24 -6.9092 0.0819 
4 2 25 2.5851 0.0961 
4 2 26 -7.8112 -0.1175 
4 2 27 -0.7694 0.2706 
4 2 28 2.5956 -0.1312 
4 3 0 -19.8969 -1.3714 
4 3 1 -19.7083 1.4058 
4 3 2 -17.1418 -1.2698 
4 3 3 -15.0654 0.0281 
4 3 4 28.4077 -0.0047 
4 3 5 21.5483 0.6487 
4 3 6 -24.4807 -0.1075 
4 3 7 -0.1818 -0.5825 
4 3 8 5.3606 0.2316 
4 3 9 14.4040 -0.1050 
4 3 10 -6.6725 -0.0256 
4 3 11 -13.1774 0.0492 
4 3 12 1.6111 0.0722 
4 3 13 2.1684 0.1413 
4 3 14 -7.9820 -0.1836 
4 3 15 7.6303 0.1323 
4 3 16 10.3159 -0.0699 
4 3 17 -4.4134 -0.1485 
4 3 18 -1.7337 0.0224 
4 3 19 1.1615 -0.1146 
4 3 20 -0.0847 -0.0680 
4 3 21 2.0669 0.1740 
4 3 22 -1.7219 0.1014 
4 3 23 -1.4978 -0.0447 
4 3 24 -1.9370 -0.0737 
4 3 25 0.2548 0.1889 
4 3 26 1.6876 0.0321 
4 3 27 -0.0139 -0.0232 
4 3 28 1.9402 -0.2377 
4 4 0 14.1990 -2.6488 
4 4 1 -6.2519 1.1373 
4 4 2 1.8039 0.0408 
4 4 3 17.3806 0.6077 
4 4 4 3.6766 -0.4608 
4 4 6 -10.6725 0.0818 
4 4 7 -25.5350 -0.5007 
4 4 8 37.6925 0.0232 
4 4 9 7.7965 0.0753 
4 4 10 -12.9954 0.1685 
4 4 11 -13.6117 -0.0405 
4 4 12 4.9760 0.0375 
4 4 13 -1.3707 -0.0046 
4 4 14 4.5413 -0.1167 
4 4 15 -7.6915 0.0421 
4 4 16 6.9790 0.0794 
4 4 17 -7.9870 -0.1331 
4 4 18 -6.1837 0.0389 
4 4 19 2.2188 -0.0669 
4 4 20 0.4028 -0.0902 
4 4 21 -5.3113 0.0186 
4 4 22 2.7117 0.1448 
4 4 23 0.3477 0.0378 
4 4 24 -0.1075 -0.1294 
4 4 25 -3.6479 -0.0134 
4 4 26 6.5261 0.1906 
4 4 27 -2.8447 -0.0236 
4 4 28 -3.8711 0.0267 
4 5 0 -19.0754 1.1300 
4 5 1 5.2132 -0.6119 
4 5 2 14.8427 1.6264 
4 5 3 3.9146 -0.9380 
4 5 4 -2.1980 -0.5272 
4 5 5 0.7954 0.1139 
4 5 6 -27.4618 0.5759 
4 5 7 11.8766 0.0240 
4 5 8 4.1952 -0.4265 
4 5 9 14.2441 0.2022 
4 5 10 -14.0450 0.0313 
4 5 11 -14.9488 -0.1598 
4 5 12 8.6416 0.1411 
4 5 13 6.9057 -0.1318 
4 5 14 -10.3687 0.0358 
4 5 15 6.0095 -0.0776 
4 5 16 -2.1482 0.1085 
4 5 17 0.1193 0.0749 
4 5 18 4.3966 -0.0769 
4 5 19 9.7600 -0.0306 
4 5 20 -0.6696 -0.0795 
4 5 21 -2.9913 -0.0291 
4 5 22 -0.9208 0.0829 
4 5 23 4.5410 -0.0793 
4 5 24 -4.0778 -0.0536 
4 5 25 0.4548 -0.1197 
4 5 26 5.4205 0.0836 
4 5 27 -0.8235 0.1279 
4 5 28 -0.9710 -0.0194 
4 6 0 6.2370 0.9063 
4 6 1 1.3339 -1.2430 
4 6 2 -2.3146 0.7156 
4 6 3 1.4807 -0.6735 
4 6 4 -9.3228 -0.3919 
4 6 5 10.5014 -0.0487 
4 6 6 8.6463 0.6081 
4 6 7 -7.8830 0.2091 
4 6 8 10.1796 -0.3817 
4 6 9 0.3784 -0.0779 
4 6 10 -16.5317 -0.0354 
4 6 11 9.9352 0.0028 
4 6 12 6.9901 0.0471 
4 6 13 2.5159 0.0855 
4 6 14 -7.1633 -0.0446 
4 6 15 -5.6243 -0.0487 
4 6 16 2.5355 -0.0247 
4 6 17 0.1781 0.0748 
4 6 18 -3.2349 -0.0694 
4 6 19 3.8864 -0.0448 
4 6 20 -4.6998 -0.0332 
4 6 21 -1.8357 0.0033 
4 6 22 4.5093 0.1135 
4 6 23 3.0107 0.0427 
4 6 24 1.1127 -0.0325 
4 6 25 3.3771 0.0448 
4 6 26 1.9695 0.0232 
4 6 27 -1.2128 -0.0025 
4 6 28 -4.6727 -0.0610 
4 7 0 -0.6831 -1.2624 
4 7 1 7.6968 0.0388 
4 7 2 6.1059 -1.1702 
4 7 3 -21.5626 1.3953 
4 7 4 -0.6372 -0.1106 
4 7 5 4.2520 -0.1804 
4 7 6 4.9548 0.3269 
4 7 7 -1.3401 -0.0763 
4 7 8 -0.7515 -0.0187 
4 7 9 -7.2124 -0.0930 
4 7 10 2.2532 0.0028 
4 7 11 -3.4869 0.2562 
4 7 12 16.3900 -0.0922 
4 7 13 -4.7065 0.2567 
4 7 14 -3.1090 -0.2312 
4 7 15 1.3114 -0.0314 
4 7 16 2.4493 -0.0003 
4 7 17 -2.9670 -0.0479 
4 7 18 4.2403 -0.0199 
4 7 19 0.4741 -0.0097 
4 7 20 -1.2172 0.0303 
4 7 21 -2.1742 -0.0172 
4 7 22 6.6875 -0.0589 
4 7 23 -3.8192 0.1283 
4 7 24 -4.7727 -0.1115 
4 7 25 -1.5123 -0.0036 
4 7 26 4.9659 -0.0778 
4 7 27 3.1572 0.0125 
4 8 0 9.2922 -1.5303 
4 8 1 -1.6295 -0.3074 
4 8 2 4.6965 -0.2076 
4 8 3 -2.8705 1.6491 
4 8 4 -14.1655 -0.0107 
4 8 5 12.4393 -0.6200 
4 8 6 7.7606 0.1209 
4 8 7 -5.4420 0.0129 
4 8 8 3.0089 0.0104 
4 8 9 -2.4721 -0.0536 
4 8 10 -5.6501 0.0661 
4 8 11 -0.5596 0.1341 
4 8 12 -1.3588 -0.1218 
4 8 13 -0.8126 0.0214 
4 8 14 -2.3948 -0.0562 
4 8 15 4.2778 -0.0751 
4 8 16 0.3295 0.0503 
4 8 17 -7.7123 0.0265 
4 8 18 -3.6029 0.0108 
4 8 19 1.1865 0.0592 
4 8 20 -6.6668 -0.0128 
4 8 21 3.4704 -0.0410 
4 8 22 -1.3169 -0.1380 
4 8 23 0.8666 0.0357 
4 8 24 -1.2491 -0.0139 
4 8 25 2.8405 -0.0953 
4 8 26 -0.2551 -0.0816 
4 8 27 0.0733 0.0244 
4 9 0 -12.3746 1.8595 
4 9 1 6.0135 -1.0631 
4 9 2 -1.1602 0.7649 
4 9 3 -3.7471 -0.2122 
4 9 4 5.2870 0.3154 
4 9 5 6.0925 -0.6487 
4 9 6 0.0404 -0.3395 
4 9 7 -1.7465 0.3960 
4 9 8 -9.8755 0.0851 
4 9 9 12.4036 -0.0458 
4 9 10 2.4295 -0.0113 
4 9 11 4.3050 -0.0034 
4 9 12 5.2484 0.0356 
4 9 13 -4.1119 -0.1247 
4 9 14 -2.9476 0.1224 
4 9 15 1.5770 -0.0771 
4 9 16 -0.0713 -0.0179 
4 9 17 -2.9653 0.0575 
4 9 18 3.0664 -0.0306 
4 9 19 -0.9540 0.0670 
4 9 20 0.9576 0.0670 
4 9 21 -1.7600 0.0244 
4 9 22 3.4134 -0.0563 
4 9 23 -5.0293 0.0584 
4 9 24 0.2133 0.1104 
4 9 25 -2.4777 -0.0251 
4 9 26 0.4002 -0.0174 
4 10 0 3.7077 1.2407 
4 10 1 -8.6551 -0.4853 
4 10 2 2.5410 -0.1346 
4 10 3 -2.3128 -0.6535 
4 10 4 -4.3183 0.4668 
4 10 5 8.9095 -0.1872 
4 10 6 -0.9141 -0.3483 
4 10 7 -9.9906 0.3477 
4 10 8 9.7730 0.1502 
4 10 9 5.9399 -0.0113 
4 10 10 -0.2755 -0.0791 
4 10 11 -4.0018 -0.0277 
4 10 12 -4.6661 -0.0439 
4 10 13 2.8954 0.0482 
4 10 14 1.4544 0.1294 
4 10 15 1.2643 0.0022 
4 10 16 -1.2157 -0.0130 
4 10 17 -1.0440 0.0027 
4 10 18 6.7638 -0.0624 
4 10 19 4.0973 -0.0761 
4 10 20 2.0269 0.0295 
4 10 21 -0.9169 -0.0786 
4 10 22 -6.3330 -0.0805 
4 10 23 -0.2727 -0.1511 
4 10 24 0.0624 -0.0174 
4 10 25 5.5581 0.0078 
4 11 0 0.0381 -0.3151 
4 11 1 0.3145 1.0473 
4 11 2 -0.3729 -1.4796 
4 11 3 -4.1078 0.2116 
4 11 4 1.7721 0.4534 
4 11 5 -7.4018 0.3110 
4 11 6 0.7046 -0.2993 
4 11 7 -2.3625 -0.0846 
4 11 8 -2.1343 0.3307 
4 11 9 3.9269 0.0051 
4 11 10 -5.1602 -0.1818 
4 11 11 -4.4661 0.0239 
4 11 12 4.7277 -0.2548 
4 11 13 2.2326 0.0786 
4 11 14 3.0584 0.0326 
4 11 15 5.4125 0.0603 
4 11 16 4.6094 0.0124 
4 11 17 -3.2068 0.0037 
4 11 18 1.1597 0.0332 
4 11 19 2.0665 -0.0136 
4 11 20 -0.4155 0.0664 
4 11 21 3.5550 0.0626 
4 11 22 0.9138 -0.0460 
4 11 23 2.9529 -0.0919 
4 11 24 -0.1720 0.1036 
4 12 0 -3.2810 -0.9496 
4 12 1 -0.9982 0.7887 
4 12 2 1.5247 -0.1839 
4 12 3 5.8550 0.0611 
4 12 4 -5.6645 0.1134 
4 12 5 3.8190 0.3445 
4 12 6 -2.4415 -0.2218 
4 12 7 -1.1634 -0.1932 
4 12 8 4.1265 0.0876 
4 12 9 0.3284 0.0204 
4 12 10 -6.3502 0.0210 
4 12 11 -0.5064 -0.1270 
4 12 12 -1.8331 0.0985 
4 12 13 2.0339 -0.0032 
4 12 14 -4.2891 0.1245 
4 12 15 1.1666 0.0633 
4 12 16 -2.6054 -0.0823 
4 12 17 0.8489 -0.0160 
4 12 18 1.6730 -0.0042 
4 12 19 -5.7731 0.0087 
4 12 20 -6.1374 -0.0176 
4 12 21 -2.2639 0.0667 
4 12 22 3.2960 -0.1481 
4 12 23 5.8138 0.0764 
4 13 0 -3.0302 0.8005 
4 13 1 -3.6322 -0.1039 
4 13 2 4.0026 0.8106 
4 13 3 -2.8830 -0.8640 
4 13 4 2.3407 -0.1068 
4 13 5 -2.6311 0.3910 
4 13 6 7.6864 -0.0535 
4 13 7 -2.6095 0.0851 
4 13 8 1.0520 -0.0827 
4 13 9 -3.8765 0.0155 
4 13 10 -2.3440 -0.0688 
4 13 11 -3.5590 -0.1871 
4 13 12 5.4368 0.1338 
4 13 13 0.7484 -0.1256 
4 13 14 3.2387 0.1312 
4 13 15 -1.9485 0.0539 
4 13 16 -3.0472 -0.0473 
4 13 17 2.7330 0.0510 
4 13 18 4.3828 0.0113 
4 13 19 -2.0625 -0.0151 
4 13 20 -4.7521 -0.0016 
4 13 21 0.7464 -0.1048 
4 13 22 1.5679 0.1064 
4 14 0 0.4206 0.3366 
4 14 1 2.2890 0.1416 
4 14 2 -1.2257 0.3829 
4 14 3 3.0099 -0.5971 
4 14 4 -5.3901 -0.3634 
4 14 5 2.7363 0.0918 
4 14 6 0.0772 0.1452 
4 14 7 1.7295 -0.1393 
4 14 8 -1.8828 0.0659 
4 14 9 3.4141 0.1932 
4 14 10 3.2668 0.0610 
4 14 11 4.3180 0.0553 
4 14 12 -0.0792 -0.0282 
4 14 13 -0.0506 -0.0584 
4 14 14 -7.1655 0.1038 
4 14 15 -1.8124 -0.0240 
4 14 16 -2.4666 -0.0261 
4 14 17 0.7000 -0.0472 
4 14 18 4.8121 0.1290 
4 14 19 1.2678 -0.0988 
4 14 20 -1.3047 -0.0011 
4 15 0 1.7467 -0.5986 
4 15 1 3.1171 0.3083 
4 15 2 1.7048 -0.3486 
4 15 3 -1.8024 0.1500 
4 15 4 -0.9819 -0.1702 
4 15 5 3.4651 0.2035 
4 15 6 5.0921 0.3026 
4 15 7 -1.1176 -0.2375 
4 15 8 -2.2755 -0.0461 
4 15 9 -2.7429 0.1218 
4 15 10 -2.8608 -0.0442 
4 15 11 0.0790 -0.0327 
4 15 12 6.1819 -0.0494 
4 15 13 -2.3573 0.0873 
4 15 14 0.4792 -0.1526 
4 15 15 0.9327 0.1747 
4 15 16 1.4828 -0.1084 
4 15 17 4.5728 0.0262 
4 15 18 -2.1654 -0.0154 
4 16 0 -1.1550 -1.0505 
4 16 1 2.0870 -0.0034 
4 16 2 2.2441 0.3568 
4 16 3 -1.0405 0.2219 
4 16 4 0.2161 -0.0552 
4 16 5 -0.6103 -0.1219 
4 16 6 1.9182 0.1585 
4 16 7 -3.9578 0.0333 
4 16 8 2.6781 -0.2288 
4 16 9 4.3071 -0.0265 
4 16 10 -2.3437 0.1360 
4 16 11 -6.7986 -0.1322 
4 16 12 -5.9496 0.2323 
4 16 13 -1.6368 -0.1353 
4 16 14 3.3133 0.1158 
4 16 15 0.4797 -0.2385 
4 17 0 -1.0059 0.5956 
4 17 1 3.4432 -0.5325 
4 17 2 -0.9137 0.2731 
4 17 3 -1.1449 0.5711 
4 17 4 -3.1159 -0.6075 
4 17 5 -0.7381 -0.1047 
4 17 6 2.2036 0.2122 
4 17 7 -4.0557 -0.2024 
4 17 8 -2.9230 0.2269 
4 17 9 -1.4155 -0.0622 
4 17 10 0.8705 -0.1876 
5 -13 0 0.0581 0.1999 
5 -13 1 -2.7148 0.1104 
5 -13 2 -6.8058 0.1245 
5 -13 3 -2.7245 -0.1635 
5 -13 4 5.8835 -0.0934 
5 -13 5 1.6206 -0.0517 
5 -13 6 -4.8965 0.0119 
5 -12 0 1.9140 0.4144 
5 -12 1 -1.9194 0.0903 
5 -12 2 -5.0508 -0.1512 
5 -12 3 2.6070 -0.4009 
5 -12 4 1.0768 0.0414 
5 -12 5 -8.6904 0.1181 
5 -12 6 -0.0884 0.0616 
5 -12 7 -0.3114 -0.1639 
5 -12 8 -3.0071 -0.0065 
5 -12 9 -9.1319 -0.1548 
5 -12 10 -8.4324 0.0351 
5 -11 0 -2.9066 -0.2558 
5 -11 1 1.6997 0.0667 
5 -11 2 1.7739 -0.3715 
5 -11 3 5.0130 -0.0003 
5 -11 4 5.1544 0.2241 
5 -11 5 4.8423 0.3387 
5 -11 6 -0.8276 -0.2769 
5 -11 7 5.0400 -0.1582 
5 -11 8 0.1714 -0.2359 
5 -11 9 2.6714 -0.2818 
5 -11 10 6.4015 0.1306 
5 -11 11 -0.9341 0.0401 
5 -11 12 0.4205 0.2230 
5 -11 13 -1.5171 -0.1121 
5 -10 0 4.1016 -0.8177 
5 -10 1 -7.1401 0.4087 
5 -10 2 -4.0847 0.1462 
5 -10 3 -2.5505 0.1555 
5 -10 4 1.0889 -0.0254 
5 -10 5 3.5259 -0.0412 
5 -10 6 -0.2986 -0.2007 
5 -10 7 -3.3478 -0.0876 
5 -10 8 1.6908 -0.0906 
5 -10 9 6.3629 0.2887 
5 -10 10 5.1088 0.1087 
5 -10 11 -1.1523 0.0282 
5 -10 12 -0.3478 -0.0695 
5 -10 13 -1.0945 -0.2527 
5 -10 14 2.2672 0.1325 
5 -10 15 -2.7087 -0.0945 
5 -10 16 3.3081 -0.5873 
5 -9 0 1.6459 0.2196 
5 -9 1 3.6450 0.0546 
5 -9 2 2.9608 0.4501 
5 -9 3 -1.9403 -0.4068 
5 -9 4 3.6746 -0.2284 
5 -9 5 -2.2393 -0.0667 
5 -9 6 -0.4650 0.2412 
5 -9 7 -4.9428 0.1014 
5 -9 8 -3.5959 -0.1163 
5 -9 9 3.6095 0.1910 
5 -9 10 -2.6256 0.0144 
5 -9 11 -3.9450 -0.1175 
5 -9 12 -0.8194 0.0575 
5 -9 13 3.4514 -0.2188 
5 -9 14 -0.5660 0.2340 
5 -9 15 3.0082 -0.3106 
5 -9 16 1.2840 0.3145 
5 -9 17 0.2802 0.0558 
5 -9 18 -1.8454 -0.3664 
5 -8 0 2.2517 0.5662 
5 -8 1 -0.4105 -0.5777 
5 -8 2 -0.6830 -0.0190 
5 -8 3 6.4671 -0.3867 
5 -8 4 -3.8912 -0.1620 
5 -8 5 5.1958 0.2777 
5 -8 6 -0.3760 0.3366 
5 -8 7 0.9374 0.1114 
5 -8 8 3.1325 -0.0806 
5 -8 9 3.4366 -0.1773 
5 -8 10 -1.9552 -0.0118 
5 -8 11 -0.3563 -0.1350 
5 -8 12 1.7182 0.1454 
5 -8 13 1.6509 0.0589 
5 -8 14 -3.1740 0.0301 
5 -8 15 -0.6943 0.0556 
5 -8 16 -4.4945 -0.0463 
5 -8 17 0.9816 -0.1051 
5 -8 18 -0.9288 0.2276 
5 -8 19 3.6240 0.2976 
5 -7 0 -3.3366 -0.5507 
5 -7 1 1.4217 -0.3324 
5 -7 2 5.1085 -0.4727 
5 -7 3 -2.2612 0.8809 
5 -7 4 -0.8632 -0.1099 
5 -7 5 -2.8074 0.1524 
5 -7 6 1.0226 0.1124 
5 -7 7 -0.8220 -0.1478 
5 -7 8 5.4481 -0.1377 
5 -7 9 4.1752 -0.1239 
5 -7 10 2.5586 0.1102 
5 -7 11 -7.0346 0.2483 
5 -7 12 2.8961 0.0880 
5 -7 13 2.5508 0.1365 
5 -7 14 4.2887 -0.2161 
5 -7 15 -3.2158 -0.0166 
5 -7 16 1.1865 0.0214 
5 -7 17 -2.4627 -0.1066 
5 -7 18 3.4009 0.0920 
5 -7 19 0.8502 0.1160 
5 -7 20 -4.4446 0.4374 
5 -7 21 -3.4070 -0.0401 
5 -6 0 3.1678 -1.2464 
5 -6 1 -1.2468 0.1566 
5 -6 2 7.5159 0.1379 
5 -6 3 -1.0459 1.1180 
5 -6 4 -10.3984 -0.1307 
5 -6 6 1.7640 0.1042 
5 -6 7 -5.4507 -0.0967 
5 -6 8 2.3767 0.0449 
5 -6 9 -5.1199 0.2311 
5 -6 10 -8.6084 -0.1135 
5 -6 11 -0.1459 0.2928 
5 -6 12 4.3687 -0.1614 
5 -6 13 -1.6201 -0.0265 
5 -6 14 -7.1685 -0.0666 
5 -6 15 -7.3647 -0.1505 
5 -6 16 0.0118 0.2554 
5 -6 17 4.1882 0.0234 
5 -6 18 1.0144 0.1745 
5 -6 19 -1.0138 0.1787 
5 -6 20 -1.2913 0.1222 
5 -6 21 2.5179 0.0772 
5 -6 22 4.4928 -0.6107 
5 -5 0 -0.7609 0.9965 
5 -5 1 12.6329 -0.3553 
5 -5 2 0.6718 0.5797 
5 -5 3 -5.9605 -0.2387 
5 -5 4 -4.5844 0.0152 
5 -5 5 4.6707 -0.7124 
5 -5 6 4.0865 0.1967 
5 -5 7 -0.8334 0.2484 
5 -5 8 -14.2330 0.1776 
5 -5 9 5.7439 0.0384 
5 -5 10 0.7710 -0.1680 
5 -5 11 0.5980 -0.0078 
5 -5 12 -2.3199 -0.1566 
5 -5 13 5.0444 -0.0383 
5 -5 14 -8.3886 0.1272 
5 -5 15 6.6088 -0.0953 
5 -5 16 3.5178 0.1539 
5 -5 17 0.2176 0.1505 
5 -5 18 -1.0389 -0.0415 
5 -5 19 -4.6720 0.0841 
5 -5 20 1.0084 -0.0849 
5 -5 21 -0.2622 0.2766 
5 -5 22 3.1488 -0.1229 
5 -5 23 0.4358 -0.1765 
5 -4 0 10.8953 1.4619 
5 -4 1 -7.4582 -0.8554 
5 -4 2 0.5859 -0.1920 
5 -4 3 -10.8909 -0.5949 
5 -4 4 -8.6241 0.3864 
5 -4 5 6.9184 -0.0082 
5 -4 6 5.7473 -0.1266 
5 -4 7 -6.4536 0.3408 
5 -4 8 4.3602 0.1430 
5 -4 9 -3.1462 -0.2850 
5 -4 10 -0.3357 -0.1099 
5 -4 11 0.1044 -0.0513 
5 -4 12 2.3482 -0.0287 
5 -4 13 -0.9567 0.0420 
5 -4 14 1.8150 0.1293 
5 -4 15 -4.1006 0.1066 
5 -4 16 7.5283 -0.1661 
5 -4 17 5.0999 0.1642 
5 -4 18 -1.0038 -0.1196 
5 -4 19 2.3289 -0.0259 
5 -4 20 -0.0034 0.0600 
5 -4 21 -2.3211 0.1031 
5 -4 22 3.7522 0.1058 
5 -4 23 -4.6401 -0.0417 
5 -4 24 -0.8112 -0.0781 
5 -3 0 2.0316 -0.3821 
5 -3 1 -9.0076 0.4859 
5 -3 2 -8.7241 -1.0871 
5 -3 3 6.0979 0.5126 
5 -3 4 15.1414 0.4837 
5 -3 5 1.6782 0.3699 
5 -3 6 -6.4786 -0.5067 
5 -3 7 -5.0402 -0.0630 
5 -3 8 -7.1808 0.0910 
5 -3 9 7.4730 -0.1184 
5 -3 10 5.7582 0.0031 
5 -3 11 -3.0105 0.1354 
5 -3 12 3.3473 -0.0314 
5 -3 13 -3.4741 0.1152 
5 -3 14 -3.9912 -0.1183 
5 -3 15 7.2054 0.0739 
5 -3 16 4.7195 -0.1067 
5 -3 17 -8.1589 -0.0585 
5 -3 18 -6.9037 0.0387 
5 -3 19 -3.2551 0.0506 
5 -3 20 2.4422 0.1421 
5 -3 21 -0.7295 -0.1423 
5 -3 22 1.4343 0.2493 
5 -3 23 2.9918 -0.1307 
5 -3 24 1.8384 -0.2970 
5 -3 25 3.3219 -0.0018 
5 -2 0 -13.7533 -1.4525 
5 -2 1 -24.4736 1.5080 
5 -2 2 0.0019 -0.0626 
5 -2 3 9.4501 0.3066 
5 -2 4 3.8530 0.1014 
5 -2 5 4.2395 -0.0048 
5 -2 6 -5.8983 -0.3462 
5 -2 7 5.8716 -0.1897 
5 -2 8 1.1229 0.1142 
5 -2 9 8.4963 0.1769 
5 -2 10 -4.4740 0.0558 
5 -2 11 0.4447 0.0316 
5 -2 12 -3.6572 -0.1403 
5 -2 13 7.0836 -0.0597 
5 -2 14 -8.4896 0.0175 
5 -2 15 6.7372 -0.0046 
5 -2 16 6.9233 0.1333 
5 -2 17 -5.5691 -0.0659 
5 -2 18 -3.9375 0.1530 
5 -2 19 8.9446 -0.0159 
5 -2 20 3.8886 0.1280 
5 -2 21 -0.7328 -0.1062 
5 -2 22 -1.5004 -0.1425 
5 -2 23 -3.8052 0.1197 
5 -2 24 -3.5995 0.0483 
5 -2 25 -1.9760 -0.1602 
5 -2 26 -0.6496 0.2895 
5 -1 0 -14.0217 1.3714 
5 -1 1 -6.4953 0.3115 
5 -1 2 -11.8697 0.9551 
5 -1 3 15.5052 -1.6444 
5 -1 4 -3.8688 -0.0554 
5 -1 5 -17.8818 0.1153 
5 -1 6 7.1603 0.0318 
5 -1 7 -0.5835 -0.0230 
5 -1 8 6.6154 0.1451 
5 -1 9 7.2035 0.1907 
5 -1 10 -8.3880 -0.1074 
5 -1 11 -13.4871 -0.2992 
5 -1 12 12.1673 -0.0088 
5 -1 13 -5.0014 -0.1838 
5 -1 14 0.0851 0.2484 
5 -1 15 0.7520 0.1051 
5 -1 16 0.2789 0.0772 
5 -1 17 -9.6049 0.0321 
5 -1 18 0.4643 0.0801 
5 -1 19 0.9472 -0.0115 
5 -1 20 1.3968 -0.1403 
5 -1 21 -1.8476 -0.0332 
5 -1 22 0.0083 -0.1071 
5 -1 23 4.5192 -0.0354 
5 -1 24 0.6497 -0.0225 
5 -1 25 4.6820 0.2303 
5 -1 26 0.2477 0.0624 
5 0 0 9.7619 1.0676 
5 0 1 -26.0961 -0.6142 
5 0 2 39.3718 0.4155 
5 0 3 4.6974 -1.3530 
5 0 4 -10.9715 -0.1556 
5 0 5 -13.6289 0.6640 
5 0 6 0.1759 0.0564 
5 0 7 4.4273 -0.0247 
5 0 8 8.4840 -0.1823 
5 0 9 -0.2326 -0.0105 
5 0 10 -5.1628 0.0209 
5 0 11 -7.1386 -0.2473 
5 0 12 7.5098 0.2345 
5 0 13 11.1079 0.0050 
5 0 14 -1.2568 0.0636 
5 0 15 2.5127 0.2312 
5 0 16 -1.1579 -0.1469 
5 0 17 -5.8660 0.0344 
5 0 18 -1.5740 -0.1719 
5 0 19 6.7298 -0.1263 
5 0 20 -0.7496 -0.0146 
5 0 21 -2.7111 0.0332 
5 0 22 3.6256 0.0635 
5 0 23 1.2764 -0.0004 
5 0 24 -1.6587 0.1410 
5 0 25 -2.0040 -0.0395 
5 0 26 1.9097 0.1159 
5 0 27 -0.3030 -0.3643 
5 1 0 -10.2826 -1.6727 
5 1 1 22.1986 0.5921 
5 1 2 11.5875 -0.6984 
5 1 3 19.0268 0.8462 
5 1 4 -29.9571 -0.3337 
5 1 5 -7.3058 0.6206 
5 1 6 20.0666 -0.0157 
5 1 7 0.8987 -0.4075 
5 1 8 -2.6972 -0.2785 
5 1 9 5.6131 0.0303 
5 1 10 -16.9274 0.2584 
5 1 11 -2.0767 0.0015 
5 1 12 12.0943 0.1538 
5 1 13 4.3264 0.1796 
5 1 14 -10.4898 -0.2346 
5 1 15 -4.3857 0.0566 
5 1 16 1.2677 -0.1411 
5 1 17 5.1379 -0.0432 
5 1 18 -1.3900 -0.0299 
5 1 19 6.3886 -0.0859 
5 1 20 0.4396 0.0203 
5 1 21 -4.2267 0.0798 
5 1 22 3.3309 0.1826 
5 1 23 4.2657 0.0499 
5 1 24 -6.7148 0.1643 
5 1 25 2.4493 0.0283 
5 1 26 3.6465 -0.3058 
5 1 27 4.0248 0.0984 
5 2 0 4.4424 -2.2609 
5 2 1 1.5703 0.4477 
5 2 2 11.7764 0.2813 
5 2 3 -23.8019 1.0808 
5 2 4 -12.9360 -0.7458 
5 2 5 28.8676 -0.2872 
5 2 6 3.0964 0.4531 
5 2 7 -2.2120 -0.3388 
5 2 8 -13.5220 -0.1541 
5 2 9 -1.2943 0.0713 
5 2 10 2.2090 0.3079 
5 2 11 -2.1913 0.0412 
5 2 12 11.5342 -0.0525 
5 2 13 3.5730 0.0023 
5 2 14 -10.0689 -0.1712 
5 2 15 -8.2272 -0.0781 
5 2 16 11.5307 0.0929 
5 2 17 -5.8460 -0.1398 
5 2 18 -4.2217 0.2141 
5 2 19 2.8516 0.0207 
5 2 20 -4.0585 -0.1097 
5 2 21 -8.1485 0.0931 
5 2 22 0.9321 0.0385 
5 2 23 2.7502 0.0937 
5 2 24 -6.3056 -0.0616 
5 2 25 -8.2511 -0.1129 
5 2 26 -4.4815 -0.0889 
5 2 27 -0.7106 -0.0763 
5 3 0 15.5015 1.3962 
5 3 1 -2.6588 -1.2393 
5 3 2 -18.9039 1.2390 
5 3 3 -10.3592 -0.3210 
5 3 4 7.8545 -0.3471 
5 3 5 6.8054 -0.7317 
5 3 6 27.0503 0.4667 
5 3 7 -31.1162 0.3623 
5 3 8 -2.3670 -0.1131 
5 3 9 6.3566 0.0321 
5 3 10 4.3612 0.1118 
5 3 11 0.5696 -0.0970 
5 3 12 -0.4748 0.0545 
5 3 13 -3.3084 -0.1374 
5 3 14 -4.4885 -0.0166 
5 3 15 0.4651 -0.0661 
5 3 16 13.6054 0.1305 
5 3 17 3.8023 -0.0020 
5 3 18 -4.8617 0.0010 
5 3 19 3.5502 0.0408 
5 3 20 2.7389 -0.0730 
5 3 21 -6.0129 -0.0868 
5 3 22 2.6982 -0.0383 
5 3 23 1.3205 0.0017 
5 3 24 -0.5869 -0.0657 
5 3 25 -1.1820 -0.3111 
5 3 26 1.4100 0.2056 
5 3 27 -1.3558 0.0448 
5 4 0 -1.5910 1.0962 
5 4 1 -1.4939 -1.5168 
5 4 2 0.6073 0.1506 
5 4 3 -7.2509 0.1495 
5 4 4 -6.8611 0.2638 
5 4 5 21.4607 -0.3775 
5 4 6 -14.0826 0.0552 
5 4 7 -3.1432 0.4747 
5 4 8 -14.9102 -0.2187 
5 4 9 17.5402 -0.1509 
5 4 10 10.6649 -0.0291 
5 4 11 -14.0562 0.0605 
5 4 12 -6.1296 0.1264 
5 4 13 6.7091 0.0545 
5 4 14 -7.4414 -0.0811 
5 4 15 3.1155 -0.0317 
5 4 16 3.3159 -0.0595 
5 4 17 -4.4421 0.0648 
5 4 18 -7.8191 -0.1523 
5 4 19 5.1031 -0.0084 
5 4 20 -1.8043 0.0536 
5 4 21 -0.7288 -0.0556 
5 4 22 -1.9220 -0.0039 
5 4 23 2.6380 0.0596 
5 4 24 0.0410 0.0384 
5 4 25 -4.0952 0.0355 
5 4 26 3.2355 -0.0531 
5 4 27 1.5744 0.2137 
5 4 28 -2.2853 -0.1237 
5 5 0 -3.1588 -0.8030 
5 5 1 2.2929 0.3064 
5 5 2 5.3754 -1.6560 
5 5 3 10.9255 1.3551 
5 5 4 -0.2961 0.4179 
5 5 5 -1.3048 -0.0295 
5 5 6 4.1512 -0.1898 
5 5 7 -28.3272 -0.0452 
5 5 8 -1.0269 0.2116 
5 5 9 22.2013 -0.3075 
5 5 10 -0.5301 -0.1147 
5 5 11 -7.6163 0.2502 
5 5 12 -7.5259 -0.0723 
5 5 13 2.3351 0.2012 
5 5 14 1.1610 -0.1492 
5 5 15 -4.1363 -0.0564 
5 5 16 3.2682 0.0290 
5 5 17 -1.1342 0.0111 
5 5 18 -2.9358 -0.0492 
5 5 19 8.4140 -0.0473 
5 5 21 -3.8834 0.0065 
5 5 22 4.1590 -0.0942 
5 5 23 2.4960 0.0785 
5 5 24 -2.7177 0.0891 
5 5 25 -3.1520 0.0755 
5 5 26 2.9037 -0.2142 
5 5 27 2.2106 0.1068 
5 6 0 -14.6504 -0.6435 
5 6 1 -11.7573 0.7203 
5 6 2 1.3472 -0.6114 
5 6 3 -5.5405 0.6364 
5 6 4 6.1926 0.2650 
5 6 5 7.1483 -0.3987 
5 6 6 0.9406 -0.1980 
5 6 7 -6.0080 0.1122 
5 6 8 4.2930 0.3566 
5 6 9 4.2454 -0.1682 
5 6 10 11.9210 -0.1269 
5 6 11 -14.6276 0.1797 
5 6 12 12.4150 -0.1489 
5 6 13 1.9892 0.0229 
5 6 14 -1.6132 -0.0129 
5 6 15 -1.0504 -0.1531 
5 6 16 0.3540 0.0512 
5 6 17 -1.7597 0.0186 
5 6 18 3.0160 0.1005 
5 6 19 -0.1079 -0.0367 
5 6 20 2.5938 -0.0587 
5 6 21 -0.9505 0.0369 
5 6 22 0.3635 -0.2045 
5 6 23 1.0831 0.0006 
5 6 24 5.5358 -0.0647 
5 6 25 3.2575 -0.0269 
5 6 26 5.8270 -0.0332 
5 6 27 1.8029 -0.1720 
5 7 0 0.4722 2.1708 
5 7 1 0.2722 -0.1528 
5 7 2 5.9948 0.6185 
5 7 3 10.9700 -1.2687 
5 7 4 -14.8464 0.5769 
5 7 5 -1.4661 -0.2490 
5 7 6 4.3375 -0.4126 
5 7 7 -4.2275 0.2668 
5 7 8 -2.2876 0.1853 
5 7 9 7.1543 0.1773 
5 7 10 -9.9058 -0.2267 
5 7 11 2.1478 -0.0914 
5 7 12 -2.1226 0.0118 
5 7 13 8.5303 -0.0983 
5 7 14 0.0387 0.1465 
5 7 15 -3.8967 -0.0352 
5 7 16 1.5036 -0.0202 
5 7 17 -0.3011 0.0576 
5 7 18 -5.2216 0.0324 
5 7 19 3.7591 0.0352 
5 7 20 -5.0345 -0.0613 
5 7 21 -0.6972 0.0328 
5 7 22 -0.2575 -0.0149 
5 7 23 1.8524 -0.0715 
5 7 24 -4.7289 0.1318 
5 7 25 -1.8098 0.1046 
5 7 26 -1.9751 0.0811 
5 7 27 4.3992 -0.0635 
5 8 0 -11.7226 0.8456 
5 8 1 5.2084 -0.0660 
5 8 2 9.0251 0.0959 
5 8 3 -6.4946 -1.1645 
5 8 4 -4.3484 0.4544 
5 8 5 -0.3909 0.4532 
5 8 6 7.2446 -0.2138 
5 8 7 6.7721 -0.1446 
5 8 8 -2.7596 0.0471 
5 8 9 0.3216 0.2380 
5 8 10 -0.8223 -0.2030 
5 8 11 -8.0019 -0.0845 
5 8 12 6.2391 0.0016 
5 8 13 2.2834 0.0401 
5 8 14 -5.4197 0.1323 
5 8 15 -0.4973 0.1408 
5 8 16 -2.0315 -0.0757 
5 8 17 -2.8806 -0.0099 
5 8 18 -0.1090 -0.0468 
5 8 19 -0.2196 -0.0215 
5 8 20 1.7438 -0.0130 
5 8 21 -5.6889 -0.0666 
5 8 22 0.6752 0.0696 
5 8 23 -1.4133 -0.1454 
5 8 24 -0.5359 0.1454 
5 8 25 -2.3903 -0.0529 
5 8 26 -1.0506 0.1019 
5 8 27 -0.2934 -0.0779 
5 9 0 9.0149 -1.0588 
5 9 1 1.0168 1.2268 
5 9 2 6.2380 -1.0827 
5 9 3 5.2228 0.0871 
5 9 4 -6.9939 -0.1016 
5 9 5 4.2203 0.8193 
5 9 6 7.5449 -0.0683 
5 9 7 -6.9418 -0.4686 
5 9 8 2.5357 0.0600 
5 9 9 2.4858 0.0540 
5 9 10 -0.5718 -0.0321 
5 9 11 3.3082 0.0566 
5 9 12 -0.1071 -0.1538 
5 9 13 -2.4778 0.1071 
5 9 14 -1.6410 0.0517 
5 9 15 3.5171 0.1046 
5 9 16 5.8344 -0.0210 
5 9 17 -0.3169 -0.0931 
5 9 18 -0.9030 0.0031 
5 9 19 -1.7824 -0.0248 
5 9 20 -0.5107 0.0120 
5 9 21 3.4732 0.0189 
5 9 22 -1.5847 -0.0561 
5 9 23 4.6561 -0.0545 
5 9 24 -0.2556 -0.0279 
5 9 25 -2.1770 -0.0294 
5 9 26 0.3506 0.0082 
5 10 0 1.7944 -1.5236 
5 10 1 -2.1639 0.7162 
5 10 2 -3.8801 0.2937 
5 10 3 -11.1071 0.1161 
5 10 4 0.8121 -0.4991 
5 10 5 1.6009 0.2620 
5 10 6 0.5714 0.0670 
5 10 7 0.8589 -0.2249 
5 10 8 -6.8293 -0.1408 
5 10 9 4.8446 0.0402 
5 10 10 1.6350 0.1840 
5 10 11 -2.5770 0.0333 
5 10 12 2.9513 0.0261 
5 10 13 2.7239 -0.0575 
5 10 14 6.2198 0.0506 
5 10 15 -2.5364 0.0732 
5 10 16 -1.2459 -0.0823 
5 10 17 -2.1526 -0.1182 
5 10 18 0.7637 0.0282 
5 10 19 4.8018 0.0610 
5 10 20 2.2815 -0.0153 
5 10 21 -0.0171 0.1122 
5 10 22 -2.2044 0.0219 
5 10 23 -0.1667 0.1980 
5 10 24 -3.3173 -0.0274 
5 10 25 0.3183 -0.0973 
5 11 0 4.2486 0.6412 
5 11 1 -1.4381 -0.5847 
5 11 2 -3.2973 1.3371 
5 11 3 5.7850 -0.6448 
5 11 4 -8.0514 -0.2813 
5 11 5 0.9043 -0.0088 
5 11 6 1.2684 0.1861 
5 11 7 -4.9676 0.0582 
5 11 8 -0.9218 -0.2749 
5 11 9 0.7691 0.1041 
5 11 10 0.9679 0.1591 
5 11 11 3.5375 -0.1456 
5 11 12 -10.1574 0.1888 
5 11 13 -3.1085 -0.0869 
5 11 14 -1.5171 0.0195 
5 11 15 4.2420 0.0577 
5 11 16 4.7874 -0.0024 
5 11 17 -1.3415 -0.0657 
5 11 18 1.8414 -0.0355 
5 11 19 0.3459 0.1054 
5 11 20 7.1228 -0.0778 
5 11 21 0.3187 -0.0938 
5 11 22 -5.1322 -0.0476 
5 11 23 -1.6646 0.0403 
5 11 24 1.1211 -0.1786 
5 12 0 1.9162 0.0970 
5 12 1 -8.2987 -0.6853 
5 12 2 2.7812 0.5166 
5 12 3 0.1277 -0.0419 
5 12 4 7.1437 -0.2821 
5 12 5 -4.3128 0.0396 
5 12 6 2.0264 0.5003 
5 12 7 -2.7574 0.0052 
5 12 8 -4.5140 -0.1721 
5 12 9 3.8538 -0.0123 
5 12 10 2.1670 0.1255 
5 12 11 -1.4394 -0.0750 
5 12 12 3.5117 -0.0495 
5 12 13 -2.1757 -0.1998 
5 12 14 0.4750 -0.0418 
5 12 15 0.5672 0.0205 
5 12 16 -2.4014 0.0565 
5 12 17 0.4664 0.0561 
5 12 18 1.3434 0.0754 
5 12 19 1.6506 -0.0267 
5 12 20 -4.1376 0.1383 
5 12 21 -2.5466 -0.0461 
5 12 22 0.2194 0.1521 
5 12 23 5.6156 -0.0442 
5 13 0 -1.5233 -0.5998 
5 13 1 0.1812 0.2291 
5 13 2 -1.1026 -0.5914 
5 13 3 8.4665 0.8750 
5 13 4 -6.4348 -0.2246 
5 13 5 1.4526 -0.1490 
5 13 6 -1.1838 0.2518 
5 13 7 1.2965 0.0135 
5 13 8 4.8913 -0.0492 
5 13 9 -2.2767 -0.1046 
5 13 10 -2.5021 0.0275 
5 13 11 -0.1850 0.1533 
5 13 12 -6.7204 -0.0149 
5 13 13 1.0096 0.0296 
5 13 14 1.9051 -0.0450 
5 13 15 -0.2104 0.0346 
5 13 16 -1.7672 0.1194 
5 13 17 0.4342 -0.0471 
5 13 18 1.5034 -0.0483 
5 13 19 -1.5186 -0.0648 
5 13 20 -3.5211 0.1344 
5 13 21 -0.5407 -0.2430 
5 13 22 -2.7613 0.0711 
5 14 0 -1.5427 -0.5116 
5 14 1 -2.0357 -0.3146 
5 14 2 1.8687 -0.1465 
5 14 3 0.2629 0.5563 
5 14 4 -0.7018 -0.0399 
5 14 5 -7.4041 -0.2743 
5 14 6 2.9134 0.0014 
5 14 7 1.0406 0.4240 
5 14 8 -0.9193 -0.0402 
5 14 9 3.2960 -0.1689 
5 14 10 3.5594 0.0036 
5 14 11 -3.2214 -0.0439 
5 14 12 -3.3136 -0.0392 
5 14 13 -0.9251 0.0512 
5 14 14 1.0852 -0.1095 
5 14 15 -0.0334 -0.0462 
5 14 16 -4.8949 0.1422 
5 14 17 -0.3525 0.1968 
5 14 18 1.7796 -0.0510 
5 14 19 1.2897 0.1591 
5 14 20 2.5067 -0.1931 
5 15 0 -0.7534 1.0171 
5 15 1 -1.2870 -0.3372 
5 15 2 5.5793 0.3635 
5 15 3 2.6350 -0.0865 
5 15 4 -4.2938 0.1475 
5 15 5 -0.7063 -0.4690 
5 15 6 6.6882 -0.3534 
5 15 7 3.3707 0.2477 
5 15 8 1.4502 0.1605 
5 15 9 -1.8451 0.0275 
5 15 10 -3.1869 -0.0393 
5 15 11 -4.1094 0.1041 
5 15 12 6.3343 0.1212 
5 15 13 1.5714 -0.1585 
5 15 14 -0.3341 -0.1657 
5 15 15 2.2146 -0.1621 
5 15 16 0.8016 0.0844 
5 15 17 2.1416 -0.0537 
5 15 18 -0.8406 0.0132 
5 16 0 -2.7815 0.5694 
5 16 1 6.8955 0.0286 
5 16 2 2.5145 -0.3562 
5 16 3 -0.0972 0.0133 
5 16 4 -0.8281 0.1270 
5 16 5 -0.0232 -0.2553 
5 16 6 4.3164 0.1886 
5 16 7 -0.9132 -0.1389 
5 16 8 -2.2220 0.0684 
5 16 9 0.7794 0.1245 
5 16 10 -7.5526 -0.0840 
5 16 11 1.9951 0.0455 
5 16 12 -0.8853 -0.3017 
5 16 13 0.3055 0.1529 
5 16 14 2.5296 -0.2380 
5 16 15 -1.4401 0.1595 
5 17 0 1.3567 0.0260 
5 17 1 -0.5978 -0.1331 
5 17 2 -1.4216 -0.1187 
5 17 3 -1.3119 -0.4924 
5 17 4 -4.3969 0.5539 
5 17 5 -2.4719 0.2792 
5 17 6 0.7536 -0.6282 
5 17 7 -0.0819 0.2922 
5 17 8 -2.2835 -0.0880 
5 17 9 3.9791 -0.1939 
5 17 10 2.0929 0.2624 
6 -13 0 0.5591 -0.3155 
6 -13 1 4.3100 -0.0601 
6 -12 0 -0.9839 -0.3974 
6 -12 1 -0.2633 0.1659 
6 -12 2 -2.2194 0.0812 
6 -12 3 -1.1256 0.1370 
6 -12 4 2.4322 -0.1334 
6 -12 5 4.5003 -0.0639 
6 -12 6 -3.7351 -0.2025 
6 -12 7 4.4376 -0.3116 
6 -11 0 2.8135 0.2101 
6 -11 1 1.7462 -0.0501 
6 -11 2 2.8652 0.1638 
6 -11 3 4.0924 -0.1742 
6 -11 4 1.1038 -0.2055 
6 -11 5 0.5670 -0.2083 
6 -11 6 3.4919 0.0559 
6 -11 7 -2.4631 0.1980 
6 -11 8 0.5817 -0.0106 
6 -11 9 2.7645 0.2919 
6 -11 10 2.5366 -0.0932 
6 -11 11 2.2049 -0.1772 
6 -10 0 1.7575 0.1805 
6 -10 1 -1.0436 -0.5206 
6 -10 2 -2.1845 -0.2034 
6 -10 3 -5.3753 0.1010 
6 -10 4 0.0039 0.0945 
6 -10 5 2.4798 0.0993 
6 -10 6 5.3126 0.1843 
6 -10 7 7.7435 0.1403 
6 -10 8 -2.4600 -0.1403 
6 -10 9 1.8917 -0.1819 
6 -10 10 4.9310 0.0543 
6 -10 11 1.7874 -0.2696 
6 -10 12 -0.9532 0.3398 
6 -10 13 2.2477 0.1000 
6 -10 14 -2.1039 0.4064 
6 -9 0 5.7895 -0.1703 
6 -9 1 1.9887 -0.1156 
6 -9 2 -4.7972 -0.3856 
6 -9 3 -0.9774 0.5737 
6 -9 4 -5.6911 0.0762 
6 -9 5 2.2865 0.1167 
6 -9 6 -0.3967 0.0113 
6 -9 7 -3.5570 -0.1327 
6 -9 8 -2.9567 0.0781 
6 -9 9 -2.2416 -0.1241 
6 -9 10 2.8203 0.0575 
6 -9 11 0.1037 0.1279 
6 -9 12 -1.3865 0.0417 
6 -9 13 -3.0689 0.0192 
6 -9 14 0.6249 -0.0607 
6 -9 15 3.0069 -0.0197 
6 -9 16 -0.3989 0.4464 
6 -8 0 4.8041 -0.2822 
6 -8 1 -3.0223 0.5447 
6 -8 2 -0.1853 -0.0382 
6 -8 3 0.8712 0.3233 
6 -8 4 6.7673 -0.0522 
6 -8 5 -1.0614 -0.3949 
6 -8 6 -0.5364 0.0135 
6 -8 7 3.4856 0.0552 
6 -8 8 -0.9463 0.2672 
6 -8 9 0.6362 0.1032 
6 -8 10 -1.1134 -0.0548 
6 -8 11 -0.1848 0.0949 
6 -8 12 1.4335 -0.1159 
6 -8 13 -4.0639 0.0212 
6 -8 14 4.8908 -0.0913 
6 -8 15 2.9200 -0.2439 
6 -8 16 4.0715 0.2841 
6 -8 17 -1.2779 0.0818 
6 -8 18 -1.3617 0.5798 
6 -7 0 -1.3019 0.8601 
6 -7 1 -8.7099 0.2100 
6 -7 2 -5.5870 0.1828 
6 -7 3 1.1151 -0.7205 
6 -7 4 0.6351 0.1651 
6 -7 5 -0.5834 -0.2594 
6 -7 6 0.1759 0.1037 
6 -7 7 -4.6293 0.2572 
6 -7 8 2.1380 0.2347 
6 -7 9 2.1243 0.1129 
6 -7 10 2.9237 -0.3230 
6 -7 11 0.8048 -0.0126 
6 -7 12 -3.5573 -0.1600 
6 -7 13 2.0335 -0.1250 
6 -7 14 1.5004 0.2652 
6 -7 15 -0.9983 0.0617 
6 -7 16 -7.8903 -0.0623 
6 -7 17 -1.8289 -0.0622 
6 -7 18 0.5063 0.2394 
6 -7 19 1.8424 0.0647 
6 -7 20 1.7922 0.0335 
6 -6 0 -12.8376 0.7214 
6 -6 1 5.5083 -0.3615 
6 -6 2 2.3266 0.0198 
6 -6 3 6.6137 -0.6526 
6 -6 4 0.4397 0.3069 
6 -6 5 -6.9146 0.3705 
6 -6 6 -7.8747 -0.0103 
6 -6 7 2.6494 -0.0316 
6 -6 8 -5.7830 -0.0707 
6 -6 9 -1.6633 -0.0667 
6 -6 10 -2.8384 -0.2331 
6 -6 11 -1.6223 0.0131 
6 -6 12 -0.8982 0.0977 
6 -6 13 5.4922 0.2643 
6 -6 14 -2.2494 0.0689 
6 -6 15 -3.5328 0.0002 
6 -6 16 -0.2640 -0.0227 
6 -6 17 -0.7230 0.1315 
6 -6 18 3.9563 -0.2341 
6 -6 19 -0.1775 0.0279 
6 -6 20 2.4768 0.2606 
6 -6 21 0.1256 0.1907 
6 -5 0 3.1372 -0.6545 
6 -5 1 -2.1162 0.3785 
6 -5 2 10.0618 -0.4258 
6 -5 3 8.6448 0.2301 
6 -5 4 -8.0026 0.1168 
6 -5 5 -6.7453 0.5505 
6 -5 6 7.7144 -0.3731 
6 -5 7 0.3050 -0.3150 
6 -5 8 -1.3595 -0.1562 
6 -5 9 -2.6229 -0.0825 
6 -5 10 -1.3374 0.0737 
6 -5 11 -1.4967 0.1784 
6 -5 12 -0.1145 -0.0219 
6 -5 13 -0.3727 0.1253 
6 -5 14 3.2714 0.0186 
6 -5 15 -5.1780 0.1220 
6 -5 16 0.1970 -0.1923 
6 -5 17 3.0023 -0.0364 
6 -5 18 -2.2653 0.1920 
6 -5 19 -0.8439 -0.1564 
6 -5 20 2.9575 0.0557 
6 -5 21 -0.5472 0.2456 
6 -5 22 -0.0945 0.2580 
6 -4 0 -0.3411 -1.1268 
6 -4 1 6.8552 0.9793 
6 -4 2 2.3023 0.2264 
6 -4 3 -1.7602 -0.0517 
6 -4 4 -6.2668 -0.3185 
6 -4 5 -7.9789 -0.0099 
6 -4 6 3.5170 -0.1153 
6 -4 7 10.3616 -0.2230 
6 -4 8 -4.5185 0.0256 
6 -4 9 -2.8356 0.1907 
6 -4 10 2.4131 0.0975 
6 -4 11 -5.0278 0.0820 
6 -4 12 7.3211 -0.1094 
6 -4 13 6.3389 -0.0855 
6 -4 14 -3.5016 -0.0561 
6 -4 15 -1.9681 0.0393 
6 -4 16 2.1000 0.1412 
6 -4 17 3.2277 -0.2573 
6 -4 18 4.2051 0.1247 
6 -4 19 1.7984 -0.0096 
6 -4 20 -0.4810 0.0235 
6 -4 21 -3.8631 -0.0582 
6 -4 22 -3.0632 0.2667 
6 -4 23 1.4096 -0.0890 
6 -3 0 3.7820 0.6355 
6 -3 1 -3.5600 -0.2316 
6 -3 2 -6.1525 0.9377 
6 -3 3 3.5806 -0.8925 
6 -3 4 -9.1087 -0.1992 
6 -3 5 8.0172 -0.0800 
6 -3 6 4.9394 0.2417 
6 -3 7 3.0171 0.0257 
6 -3 8 -0.8887 -0.0959 
6 -3 9 3.3656 0.1586 
6 -3 10 -0.6463 0.0958 
6 -3 11 7.9636 -0.1585 
6 -3 12 -4.0420 0.0319 
6 -3 13 3.4930 -0.0623 
6 -3 14 -6.2287 0.0232 
6 -3 15 -4.9825 -0.0108 
6 -3 16 8.0883 0.0823 
6 -3 17 1.7706 -0.0538 
6 -3 18 -3.2389 -0.0505 
6 -3 19 -0.9490 0.0696 
6 -3 20 -2.4879 -0.0210 
6 -3 21 -4.9525 0.0127 
6 -3 22 5.9947 0.0932 
6 -3 23 5.3845 0.1555 
6 -3 24 5.2280 -0.1010 
6 -2 0 5.5661 0.3052 
6 -2 1 -1.7564 -1.2311 
6 -2 2 -12.4776 0.4507 
6 -2 3 -4.5888 -0.1199 
6 -2 4 14.6332 -0.1037 
6 -2 5 -1.2244 0.3534 
6 -2 6 7.2888 0.2195 
6 -2 8 -12.6120 -0.3857 
6 -2 9 3.5643 -0.0082 
6 -2 10 7.0519 0.1564 
6 -2 11 -8.1833 -0.1235 
6 -2 12 9.9185 0.1759 
6 -2 13 0.5724 -0.0523 
6 -2 14 -7.6464 -0.0389 
6 -2 15 -0.3141 0.1513 
6 -2 16 9.6200 -0.1798 
6 -2 17 -1.8521 -0.0350 
6 -2 18 -2.0418 -0.1112 
6 -2 19 -4.4320 -0.0114 
6 -2 20 3.8857 0.1053 
6 -2 21 2.0244 0.1149 
6 -2 22 -0.2103 -0.1200 
6 -2 23 -2.4851 0.0329 
6 -2 24 -2.9273 -0.0211 
6 -2 25 -3.3790 -0.1312 
6 -1 0 18.8346 -1.3796 
6 -1 1 -24.7370 -0.1168 
6 -1 2 -6.1292 -0.5287 
6 -1 3 -0.2646 1.3487 
6 -1 4 -2.7173 -0.2957 
6 -1 5 3.7046 0.1538 
6 -1 6 5.6689 -0.0934 
6 -1 8 2.1900 -0.1628 
6 -1 9 6.4763 -0.1519 
6 -1 10 4.8869 0.3031 
6 -1 11 -3.9273 0.0317 
6 -1 12 -2.6502 0.0674 
6 -1 13 0.8939 0.0205 
6 -1 14 -9.4532 -0.2419 
6 -1 15 -1.7748 0.0108 
6 -1 16 8.7063 -0.0481 
6 -1 17 2.3431 0.0817 
6 -1 18 -7.0198 0.0551 
6 -1 19 2.2020 -0.0763 
6 -1 20 -0.0748 0.1329 
6 -1 21 3.2763 -0.1119 
6 -1 22 -2.6171 -0.1347 
6 -1 23 2.2357 0.0594 
6 -1 24 2.8044 0.0437 
6 -1 25 2.0626 -0.2052 
6 0 0 -9.8927 -1.0118 
6 0 1 -1.2498 0.4634 
6 0 2 -11.2277 -0.0495 
6 0 3 25.7463 0.9842 
6 0 4 5.7460 -0.4198 
6 0 5 -11.7796 -0.8160 
6 0 6 -2.0735 0.1574 
6 0 7 -11.2054 0.1210 
6 0 8 -4.6941 0.1850 
6 0 9 19.8045 -0.1104 
6 0 10 0.2158 0.1800 
6 0 11 -13.8517 0.1014 
6 0 12 -4.7396 -0.1327 
6 0 13 4.7131 -0.1234 
6 0 14 2.6428 -0.0475 
6 0 16 -3.4091 0.1633 
6 0 17 -6.2641 0.0636 
6 0 18 -12.1162 0.1788 
6 0 19 2.6238 -0.0675 
6 0 20 3.7715 -0.0412 
6 0 21 -1.4220 -0.0714 
6 0 22 -0.8104 -0.1814 
6 0 23 2.8524 -0.0294 
6 0 24 -1.3227 -0.0001 
6 0 25 -4.2129 -0.1714 
6 0 26 -0.4685 0.2433 
6 1 0 0.6470 2.0506 
6 1 1 -14.3660 -0.6096 
6 1 2 19.0158 0.2734 
6 1 3 18.8934 -0.5497 
6 1 4 -13.3225 0.1922 
6 1 5 -2.2624 -0.8226 
6 1 6 -9.5690 0.2443 
6 1 7 -1.4329 0.4708 
6 1 8 7.0192 0.2148 
6 1 9 5.0665 0.0513 
6 1 10 2.9485 -0.1825 
6 1 11 -16.8137 -0.0930 
6 1 12 1.4572 0.0165 
6 1 13 9.8203 -0.0295 
6 1 14 0.8264 0.0260 
6 1 15 -8.7186 -0.0188 
6 1 16 8.3559 0.0944 
6 1 17 0.4792 0.0504 
6 1 18 0.4276 -0.0344 
6 1 19 3.9531 -0.0864 
6 1 20 3.7066 -0.1757 
6 1 21 -3.9535 -0.0930 
6 1 22 -3.4512 -0.0749 
6 1 23 1.1675 0.1649 
6 1 24 -2.7829 -0.0241 
6 1 25 0.0893 -0.0276 
6 1 26 1.4696 0.2715 
6 2 0 -3.1827 1.3988 
6 2 1 -4.4955 -0.8273 
6 2 2 7.2438 -0.5505 
6 2 3 3.3922 -0.2118 
6 2 4 4.9463 0.6213 
6 2 5 -18.3640 0.1662 
6 2 6 22.2011 -0.1392 
6 2 7 -2.6333 0.3004 
6 2 8 1.0393 0.0170 
6 2 9 5.6651 -0.1017 
6 2 10 -14.5543 -0.1700 
6 2 11 -8.5780 -0.0630 
6 2 12 0.0377 0.1372 
6 2 13 10.8849 0.0580 
6 2 14 -1.6272 0.0052 
6 2 15 -7.5427 0.0437 
6 2 16 0.7228 -0.1494 
6 2 17 1.6568 0.0622 
6 2 18 -4.4640 -0.1804 
6 2 19 -0.4806 -0.0482 
6 2 20 0.6428 -0.0391 
6 2 21 -7.0911 0.0191 
6 2 22 0.3962 0.0338 
6 2 23 3.2664 0.0663 
6 2 24 -0.2275 0.2884 
6 2 25 -7.9702 -0.0330 
6 2 26 -3.7748 0.2390 
6 2 27 -0.0485 -0.1445 
6 3 0 -3.2646 -0.5728 
6 3 1 2.8742 0.9638 
6 3 2 5.0224 -1.5209 
6 3 3 0.1424 0.7016 
6 3 4 -21.4640 0.4493 
6 3 5 3.8705 0.3828 
6 3 6 -2.2752 -0.4495 
6 3 7 12.9052 -0.2494 
6 3 8 -9.8055 0.1963 
6 3 9 -6.6804 -0.2113 
6 3 10 6.3717 -0.0607 
6 3 11 -2.6853 0.1845 
6 3 12 3.7647 0.0785 
6 3 13 9.6903 0.0996 
6 3 14 -5.5474 -0.0215 
6 3 15 -4.2193 -0.0719 
6 3 16 8.2165 -0.1181 
6 3 17 3.8036 0.0413 
6 3 18 -4.6416 0.0472 
6 3 19 4.0910 -0.0884 
6 3 20 -1.2871 0.0758 
6 3 21 0.7356 0.0737 
6 3 22 0.1284 -0.0507 
6 3 23 -0.2497 0.0926 
6 3 24 0.9768 0.0624 
6 3 25 -1.7730 -0.0634 
6 3 26 -1.9871 -0.1992 
6 3 27 -3.0140 -0.2266 
6 4 0 7.2163 -0.7686 
6 4 1 9.1287 1.3086 
6 4 2 -3.2414 -0.3596 
6 4 3 3.9604 -0.3263 
6 4 4 -12.0659 0.0797 
6 4 5 -12.1655 -0.0955 
6 4 6 25.5989 -0.0818 
6 4 7 2.7200 -0.2703 
6 4 8 -12.0836 0.3766 
6 4 9 0.7947 0.0854 
6 4 10 3.2996 -0.1426 
6 4 11 3.0404 0.1482 
6 4 12 0.8290 -0.0501 
6 4 13 -0.1964 0.0389 
6 4 14 -2.8595 -0.0035 
6 4 15 -7.1904 -0.1712 
6 4 16 4.7814 0.0474 
6 4 17 3.0178 -0.0414 
6 4 18 -3.7833 0.1423 
6 4 19 -1.6553 0.0234 
6 4 20 6.2893 -0.0547 
6 4 21 -1.4798 0.0468 
6 4 22 -1.5612 -0.1587 
6 4 23 0.1967 -0.0624 
6 4 24 3.2140 -0.2432 
6 4 25 2.6247 0.0543 
6 4 26 3.6961 -0.1835 
6 4 27 3.3400 -0.0399 
6 5 0 4.3974 1.5992 
6 5 1 -6.8664 -0.1140 
6 5 2 9.3642 0.9365 
6 5 3 0.0316 -1.5915 
6 5 4 -3.3269 0.3205 
6 5 5 0.7379 0.3405 
6 5 6 6.9465 0.0521 
6 5 7 -0.9002 -0.0719 
6 5 8 -11.1778 -0.0086 
6 5 9 -8.0033 0.3387 
6 5 10 14.6785 -0.2015 
6 5 11 -4.8223 -0.1247 
6 5 12 1.5541 -0.0269 
6 5 13 -0.0124 -0.0161 
6 5 14 -5.9068 0.1049 
6 5 15 4.0779 -0.0786 
6 5 16 2.6405 -0.0548 
6 5 17 -1.3740 -0.0570 
6 5 18 -1.5785 0.0236 
6 5 19 3.2782 0.0279 
6 5 20 -0.7449 -0.0789 
6 5 21 0.3075 0.0910 
6 5 22 1.4313 -0.0058 
6 5 23 -2.2386 -0.0444 
6 5 24 0.7351 0.0621 
6 5 25 -1.7657 0.0152 
6 5 26 1.2134 0.1178 
6 5 27 1.1403 0.0458 
6 6 0 0.4676 -0.0750 
6 6 1 -10.2707 -0.4460 
6 6 2 -13.8874 0.7144 
6 6 3 10.0440 -0.6617 
6 6 4 2.8994 -0.0442 
6 6 5 -0.5562 0.8414 
6 6 6 6.0872 0.0576 
6 6 7 -2.7307 -0.2065 
6 6 8 -11.7307 -0.4927 
6 6 9 10.0854 0.1426 
6 6 10 5.5442 0.0172 
6 6 11 12.4748 -0.0429 
6 6 12 -3.8007 -0.0832 
6 6 13 -3.8492 0.0399 
6 6 14 3.4072 0.0958 
6 6 15 -2.8199 0.1499 
6 6 16 -0.5024 -0.0893 
6 6 17 1.9970 -0.0574 
6 6 18 -4.5556 -0.0621 
6 6 19 0.8091 0.0617 
6 6 20 -0.6671 -0.0508 
6 6 21 1.4687 -0.0521 
6 6 22 1.8330 0.1757 
6 6 23 4.2589 -0.1335 
6 6 24 3.0193 0.1192 
6 6 25 2.0689 0.0324 
6 6 26 -1.6505 0.0940 
6 6 27 -0.0325 -0.0380 
6 7 0 -8.0136 -2.0200 
6 7 1 -7.7138 0.5828 
6 7 2 5.6670 -0.1933 
6 7 3 -0.6123 0.7204 
6 7 4 0.4975 -0.6258 
6 7 5 -6.4716 0.3269 
6 7 6 5.1041 0.0658 
6 7 7 1.6190 -0.3817 
6 7 8 -5.4296 -0.2316 
6 7 9 -2.5751 -0.0562 
6 7 10 10.6043 0.1939 
6 7 11 -5.0006 0.0287 
6 7 12 -6.7338 -0.0474 
6 7 13 3.2261 0.0493 
6 7 14 2.2310 -0.0759 
6 7 15 4.6749 0.1941 
6 7 16 -0.9223 0.0097 
6 7 17 -2.4865 -0.1260 
6 7 18 -1.1242 -0.0385 
6 7 19 -3.2396 0.0472 
6 7 20 0.4922 0.0828 
6 7 21 -2.0605 -0.1271 
6 7 22 -2.1404 0.0360 
6 7 23 -1.1253 -0.1432 
6 7 24 -1.1618 -0.0432 
6 7 25 -1.2353 -0.1585 
6 7 26 -1.9129 -0.0302 
6 8 0 0.0314 -1.6081 
6 8 1 -3.4213 0.0608 
6 8 2 4.9292 0.5757 
6 8 3 10.6084 0.6200 
6 8 4 -2.5041 -0.7585 
6 8 5 1.7543 -0.5869 
6 8 6 8.1154 0.2516 
6 8 7 -2.7479 0.0563 
6 8 8 -2.4384 -0.0510 
6 8 9 -0.1167 0.0498 
6 8 10 -1.1267 0.2022 
6 8 11 -4.1334 0.0392 
6 8 12 -2.8606 -0.0773 
6 8 13 2.8175 -0.1175 
6 8 14 4.0811 0.0119 
6 8 15 -2.1784 0.0236 
6 8 16 -0.5468 0.0780 
6 8 17 -4.5701 -0.0996 
6 8 18 -2.0797 0.0111 
6 8 19 3.4889 0.1231 
6 8 20 1.7249 0.0726 
6 8 21 1.7515 0.0396 
6 8 22 -1.5623 -0.1269 
6 8 23 -0.7097 0.0900 
6 8 24 -1.4905 0.0541 
6 8 25 -3.0373 0.0937 
6 8 26 -1.4750 0.1629 
6 9 0 -0.8940 1.2876 
6 9 1 8.3110 -1.1292 
6 9 2 5.2503 1.0850 
6 9 3 0.1114 -0.1795 
6 9 4 -3.4026 -0.1028 
6 9 5 -4.3064 -0.4908 
6 9 6 -3.1628 0.1867 
6 9 7 8.8908 0.4451 
6 9 8 -1.7141 -0.1249 
6 9 9 5.2278 0.0289 
6 9 10 2.0361 0.0722 
6 9 11 -3.9964 0.0022 
6 9 12 -2.3353 -0.0408 
6 9 13 -3.3881 -0.0739 
6 9 14 1.6439 0.0306 
6 9 15 1.2960 0.0364 
6 9 16 -0.5229 0.1290 
6 9 17 0.9752 -0.0130 
6 9 18 0.9674 -0.0584 
6 9 19 -0.8255 -0.0015 
6 9 20 1.9228 -0.0385 
6 9 21 -0.3454 -0.0228 
6 9 22 -4.8311 -0.0709 
6 9 23 3.3367 -0.0167 
6 9 24 -0.0323 -0.0825 
6 9 25 1.0756 0.0550 
6 10 0 -0.0210 0.4907 
6 10 1 -2.7838 -0.9909 
6 10 2 -8.8791 -0.0154 
6 10 3 -0.9938 0.3770 
6 10 4 -8.2110 0.0402 
6 10 5 0.8059 -0.2279 
6 10 6 8.6545 0.1651 
6 10 7 -0.3406 0.3433 
6 10 8 0.7164 -0.0931 
6 10 9 -4.4581 -0.1703 
6 10 10 -5.3362 0.0154 
6 10 11 2.7297 -0.0422 
6 10 12 2.0279 -0.0161 
6 10 13 7.1291 0.0538 
6 10 14 7.9383 -0.0576 
6 10 15 -3.3311 0.0546 
6 10 16 -1.2952 0.1030 
6 10 17 -1.0727 0.0813 
6 10 18 3.2399 -0.0529 
6 10 19 1.9583 -0.0686 
6 10 20 4.2676 0.0718 
6 10 21 3.8689 -0.1479 
6 10 22 0.4379 -0.0160 
6 10 23 0.5372 -0.0299 
6 10 24 1.5100 0.1288 
6 10 25 -3.8824 -0.0613 
6 11 0 6.7335 -0.2945 
6 11 1 -1.6502 0.3461 
6 11 2 2.2222 -1.3419 
6 11 3 -2.8278 1.0056 
6 11 4 -2.1293 0.2548 
6 11 5 -3.9338 -0.2360 
6 11 6 -1.3188 -0.1513 
6 11 7 6.7622 0.0192 
6 11 8 -8.3499 0.2929 
6 11 9 -5.1931 -0.2410 
6 11 10 1.0661 -0.0658 
6 11 11 1.9134 -0.0440 
6 11 12 1.5767 0.2079 
6 11 13 -3.0421 0.0498 
6 11 14 -3.8628 -0.1050 
6 11 15 -1.8359 -0.0582 
6 11 16 1.2179 -0.0014 
6 11 17 3.3933 0.0167 
6 11 18 -2.5680 -0.0159 
6 11 19 -0.7223 -0.0373 
6 11 20 -1.1798 0.0500 
6 11 21 -1.7062 0.1025 
6 11 22 -5.9398 0.1023 
6 11 23 -4.0599 0.0070 
6 11 24 2.2422 0.2629 
6 12 0 -1.2157 -0.1608 
6 12 1 -2.3015 0.3287 
6 12 2 -4.5914 -0.5482 
6 12 3 7.3411 0.2350 
6 12 4 4.0435 0.3149 
6 12 5 4.1230 -0.1313 
6 12 6 2.7027 -0.2812 
6 12 7 -6.6330 0.1295 
6 12 8 -1.3381 0.2299 
6 12 9 0.3496 -0.0317 
6 12 10 1.6779 -0.1615 
6 12 11 8.0894 -0.0570 
6 12 12 -0.8580 0.0756 
6 12 13 -2.4390 0.1445 
6 12 14 -4.2106 0.0925 
6 12 15 -3.9361 -0.1997 
6 12 16 1.2861 0.0143 
6 12 17 3.4132 0.0145 
6 12 18 2.9549 -0.0110 
6 12 19 1.5758 -0.0119 
6 12 20 2.3787 -0.1779 
6 12 21 4.2385 -0.0328 
6 12 22 1.5088 -0.0786 
6 12 23 2.5836 0.1088 
6 13 0 3.9476 1.4412 
6 13 1 3.5588 -0.0904 
6 13 2 6.3289 0.2436 
6 13 3 0.1352 -0.7220 
6 13 4 4.4469 0.4895 
6 13 5 -6.3465 0.1121 
6 13 6 -4.0145 -0.2208 
6 13 7 0.2041 0.1907 
6 13 8 0.8920 0.1246 
6 13 9 -1.6316 0.1354 
6 13 10 0.8563 -0.1343 
6 13 11 1.8691 -0.0540 
6 13 12 -0.2806 -0.0601 
6 13 13 -3.9523 -0.0189 
6 13 14 -2.3348 0.0204 
6 13 15 0.4438 -0.1921 
6 13 16 -1.0534 -0.0255 
6 13 17 2.0513 0.1972 
6 13 18 -0.8472 0.2556 
6 13 19 -4.4313 0.0478 
6 13 20 -2.8946 -0.0915 
6 13 21 -2.3224 0.1453 
6 14 0 4.4973 0.3230 
6 14 1 -1.9262 0.3938 
6 14 2 -6.2871 -0.1002 
6 14 3 0.7412 -0.3924 
6 14 4 -3.6986 0.3434 
6 14 5 -3.5681 0.1949 
6 14 6 1.1984 -0.0640 
6 14 7 0.8996 -0.2839 
6 14 8 1.7957 -0.0276 
6 14 9 -5.1241 0.1087 
6 14 10 4.0903 -0.1403 
6 14 11 -2.2180 0.0228 
6 14 12 -6.5656 -0.0799 
6 14 13 -1.4845 0.1069 
6 14 14 0.8046 0.0565 
6 14 15 0.0839 -0.0989 
6 14 16 -0.0921 -0.1226 
6 14 17 -0.9265 0.0139 
6 14 18 -0.2823 0.1884 
6 14 19 -0.4624 -0.1775 
6 14 20 -0.4240 0.1395 
6 15 0 -2.2640 -0.6017 
6 15 1 -1.6599 0.6663 
6 15 2 2.1338 -0.3857 
6 15 3 6.2412 -0.2766 
6 15 4 2.1414 0.0401 
6 15 5 -5.9929 0.3008 
6 15 6 -1.9531 -0.0761 
6 15 7 7.0574 -0.1337 
6 15 8 0.0608 0.1910 
6 15 9 8.7342 -0.0545 
6 15 10 -1.1187 -0.0665 
6 15 11 -0.3240 -0.2306 
6 15 12 0.7035 -0.0286 
6 15 13 1.4633 0.0248 
6 15 14 3.1093 -0.0172 
6 15 15 4.6082 0.0157 
6 15 16 1.2350 0.0385 
6 15 17 -0.3214 0.1560 
6 16 0 -3.4266 -0.5856 
6 16 1 -0.8015 -0.1719 
6 16 2 1.0531 0.7563 
6 16 3 2.2466 -0.1124 
6 16 4 -2.2346 -0.4470 
6 16 5 0.5276 0.3612 
6 16 6 5.4317 -0.5109 
6 16 7 3.3596 -0.1311 
6 16 8 -2.1363 -0.0145 
6 16 9 -0.1641 0.1356 
6 16 10 -1.4650 0.3263 
6 16 11 -1.5063 -0.1941 
6 16 12 3.6741 0.1576 
6 16 13 -2.5977 -0.1627 
6 17 1 -1.6305 0.5333 
6 17 2 -0.0033 -0.0654 
6 17 3 0.1875 0.0058 
6 17 4 1.7571 -0.1548 
6 17 5 -6.0955 -0.3980 
6 17 6 0.9763 0.5690 
6 17 7 -5.1755 -0.1632 
6 17 8 0.9667 -0.1985 
7 -12 0 2.3217 0.4196 
7 -12 1 3.6920 -0.1508 
7 -12 2 1.0884 -0.2708 
7 -11 0 -6.2783 -0.2271 
7 -11 1 -0.4808 -0.0620 
7 -11 2 -0.4747 -0.2711 
7 -11 3 3.9671 0.3266 
7 -11 4 -2.2661 0.1541 
7 -11 5 1.8489 0.1077 
7 -11 6 -2.2494 -0.0228 
7 -11 7 4.9512 -0.2317 
7 -11 8 -0.4102 0.0872 
7 -10 0 5.9139 -0.0836 
7 -10 1 1.4964 0.4273 
7 -10 2 0.8511 -0.0207 
7 -10 3 1.7390 -0.0300 
7 -10 4 -6.7257 -0.0841 
7 -10 5 -1.0608 -0.1858 
7 -10 6 6.1103 0.1282 
7 -10 7 4.7090 -0.1754 
7 -10 8 2.9383 0.2671 
7 -10 9 -2.0346 0.1263 
7 -10 10 -1.1384 0.0351 
7 -10 11 2.8833 0.0190 
7 -9 0 5.7429 0.6000 
7 -9 1 1.4010 0.1409 
7 -9 2 -4.6055 0.0978 
7 -9 3 -9.3806 -0.5974 
7 -9 4 -2.6769 0.0882 
7 -9 5 2.6528 0.0345 
7 -9 6 -2.3609 0.1790 
7 -9 7 3.3289 0.1983 
7 -9 8 -3.6682 0.1205 
7 -9 9 0.6573 0.0838 
7 -9 10 1.0097 -0.2115 
7 -9 11 -0.2703 -0.0106 
7 -9 12 1.6742 -0.3237 
7 -9 13 -2.6178 -0.0639 
7 -9 14 -2.8842 0.3793 
7 -8 0 6.2251 0.1231 
7 -8 1 -1.2098 -0.3151 
7 -8 2 -3.4187 0.1531 
7 -8 3 0.8576 -0.2803 
7 -8 4 3.2383 0.1089 
7 -8 5 -1.9165 0.4392 
7 -8 6 -1.5772 0.0084 
7 -8 7 -2.9196 0.0521 
7 -8 8 8.5444 -0.1619 
7 -8 9 -0.0365 -0.0932 
7 -8 10 -2.6448 -0.1500 
7 -8 11 1.0436 0.0724 
7 -8 12 3.1985 0.0115 
7 -8 13 0.5200 0.0427 
7 -8 14 0.9919 -0.1253 
7 -8 15 7.6948 -0.0750 
7 -8 16 4.3720 0.1399 
7 -7 0 -5.1249 -0.8568 
7 -7 1 -1.0441 -0.0257 
7 -7 2 -8.4100 0.2049 
7 -7 3 -3.8429 0.4174 
7 -7 4 4.4477 -0.1292 
7 -7 5 1.4649 0.1286 
7 -7 6 -6.0845 -0.2495 
7 -7 7 0.1956 -0.2123 
7 -7 8 -8.3892 -0.1147 
7 -7 9 -1.2215 0.0961 
7 -7 10 -1.3672 0.1784 
7 -7 11 -0.3093 0.0646 
7 -7 12 -1.2300 -0.0475 
7 -7 13 -3.5529 -0.0023 
7 -7 14 -4.0539 -0.1538 
7 -7 15 -3.7389 0.0360 
7 -7 16 -2.0541 -0.1383 
7 -7 17 0.0445 -0.0898 
7 -7 18 -1.8210 0.4853 
7 -6 0 3.3262 -0.7859 
7 -6 1 -1.5325 0.3188 
7 -6 2 0.1179 0.4152 
7 -6 3 10.3603 0.0799 
7 -6 4 4.3336 -0.4021 
7 -6 5 -5.3563 -0.3813 
7 -6 6 1.6678 -0.0135 
7 -6 7 -1.1664 0.0215 
7 -6 8 -0.1691 0.1205 
7 -6 9 -0.8721 0.1015 
7 -6 10 0.7939 0.1658 
7 -6 11 2.4982 -0.0064 
7 -6 12 2.4618 -0.1709 
7 -6 13 1.3229 -0.1425 
7 -6 14 4.6736 -0.0688 
7 -6 15 0.6355 -0.0121 
7 -6 16 1.1295 0.1986 
7 -6 17 -1.4746 -0.0459 
7 -6 18 1.9053 -0.0489 
7 -6 19 2.4759 -0.0984 
7 -5 0 -1.1621 0.5511 
7 -5 1 2.6301 -0.3690 
7 -5 2 1.7277 0.4273 
7 -5 3 4.9400 -0.3496 
7 -5 4 1.8436 -0.1947 
7 -5 5 -9.8620 -0.2800 
7 -5 6 -4.1102 0.2867 
7 -5 7 4.9567 0.3267 
7 -5 8 -0.3722 -0.1235 
7 -5 9 0.1236 0.0591 
7 -5 10 3.6558 -0.0934 
7 -5 11 -8.2658 -0.1369 
7 -5 12 -2.1738 -0.0627 
7 -5 13 0.3545 0.0147 
7 -5 14 -0.4427 0.1177 
7 -5 15 1.8880 0.1356 
7 -5 16 -2.5239 0.2530 
7 -5 17 -5.8332 -0.2045 
7 -5 18 -2.3872 -0.2463 
7 -5 19 -2.4034 0.0111 
7 -5 20 2.1303 -0.1315 
7 -5 21 -0.0423 -0.0588 
7 -4 0 1.9252 0.3934 
7 -4 1 -2.3903 -0.8970 
7 -4 2 -10.2702 -0.0652 
7 -4 3 14.4211 0.3094 
7 -4 4 -4.9385 0.0662 
7 -4 5 -7.0212 0.1550 
7 -4 6 0.8870 0.0065 
7 -4 7 5.8836 0.2105 
7 -4 8 5.5872 -0.3867 
7 -4 9 1.6779 -0.2558 
7 -4 10 -7.5994 0.0429 
7 -4 11 -0.1228 0.0618 
7 -4 12 -2.5793 0.1313 
7 -4 13 7.2359 0.1451 
7 -4 14 5.2770 -0.0338 
7 -4 15 -4.8212 0.1366 
7 -4 16 0.1258 -0.0465 
7 -4 17 1.3757 -0.0147 
7 -4 18 4.0638 -0.1048 
7 -4 19 2.4886 -0.2156 
7 -4 20 4.0258 0.0256 
7 -4 21 -3.5081 -0.0451 
7 -4 22 -0.2265 -0.1394 
7 -3 0 -8.9288 -0.6768 
7 -3 1 -1.1620 0.1204 
7 -3 2 6.8633 -0.6437 
7 -3 3 -1.0918 1.0359 
7 -3 4 5.9190 0.0023 
7 -3 6 4.9037 -0.3418 
7 -3 7 6.9189 -0.1283 
7 -3 8 -1.7343 0.0577 
7 -3 9 -1.0652 -0.1555 
7 -3 10 4.4145 0.2272 
7 -3 11 -6.0904 0.0043 
7 -3 12 5.2827 0.1734 
7 -3 13 5.8148 0.0699 
7 -3 14 -1.6483 -0.1710 
7 -3 15 -1.9849 0.0307 
7 -3 16 1.7878 -0.0457 
7 -3 17 0.1273 -0.1647 
7 -3 18 3.3778 -0.0558 
7 -3 19 1.4776 -0.1097 
7 -3 20 -0.5601 0.0027 
7 -3 21 -1.1425 -0.1542 
7 -3 22 -0.6704 0.1148 
7 -3 23 4.2285 0.2719 
7 -2 0 6.9667 -0.1103 
7 -2 1 -4.4958 0.6911 
7 -2 2 -7.5207 -0.4747 
7 -2 3 0.8144 0.2527 
7 -2 4 -5.0177 0.0692 
7 -2 5 0.3676 -0.5251 
7 -2 7 3.1098 -0.0519 
7 -2 8 -4.0558 0.4458 
7 -2 9 -4.0189 0.0156 
7 -2 10 -0.3729 0.0419 
7 -2 11 0.3704 0.0230 
7 -2 12 0.0019 -0.0909 
7 -2 13 6.0826 -0.1100 
7 -2 14 -4.5407 0.0646 
7 -2 15 -11.2054 -0.2270 
7 -2 16 -0.8743 0.0264 
7 -2 17 4.2941 0.0248 
7 -2 18 -4.7690 0.0057 
7 -2 19 1.5464 -0.1073 
7 -2 20 -6.3598 -0.0633 
7 -2 21 1.7151 0.0763 
7 -2 22 -6.4465 -0.1538 
7 -2 23 1.4841 0.3452 
7 -2 24 2.0843 0.1359 
7 -1 0 8.4150 1.8620 
7 -1 1 10.4680 -0.0281 
7 -1 2 -4.9948 -0.1219 
7 -1 3 -1.4786 -0.9792 
7 -1 4 -2.0872 0.5439 
7 -1 5 -3.9774 -0.0304 
7 -1 6 12.3859 0.1821 
7 -1 8 -15.9399 0.1864 
7 -1 9 -2.6682 0.0350 
7 -1 10 7.0224 -0.3373 
7 -1 11 2.5182 0.0526 
7 -1 12 1.0106 0.0026 
7 -1 13 -0.1315 0.0100 
7 -1 14 -8.0203 0.1508 
7 -1 15 0.4718 -0.1117 
7 -1 16 3.4139 -0.0920 
7 -1 17 6.7154 0.0386 
7 -1 18 2.1409 -0.0949 
7 -1 19 -5.8370 -0.0107 
7 -1 20 5.2156 -0.1078 
7 -1 21 1.0998 0.1945 
7 -1 22 2.2947 0.0154 
7 -1 23 0.6697 0.0507 
7 -1 24 4.7806 0.1415 
7 0 0 11.5520 0.6637 
7 0 1 -6.8619 -0.2619 
7 0 2 -7.7473 -0.3292 
7 0 3 0.5618 -0.4963 
7 0 4 -2.7243 0.4824 
7 0 5 1.4156 0.7286 
7 0 6 7.2211 -0.1057 
7 0 8 -2.8806 -0.1917 
7 0 9 -0.4975 -0.0208 
7 0 10 12.9766 -0.1476 
7 0 11 -1.2344 0.0097 
7 0 12 -10.7532 0.1556 
7 0 13 1.4296 0.1604 
7 0 14 1.8097 -0.0358 
7 0 15 -2.4618 0.0206 
7 0 16 1.1134 -0.2514 
7 0 17 -4.3034 -0.0099 
7 0 18 -5.2888 -0.0136 
7 0 19 -2.5104 0.1064 
7 0 20 -0.9404 0.0350 
7 0 21 -6.6164 -0.1222 
7 0 22 -1.5729 0.0608 
7 0 23 0.6435 0.1509 
7 0 24 -1.6697 -0.2035 
7 0 25 -7.0155 -0.1838 
7 1 0 3.0141 -1.2059 
7 1 1 1.5658 0.8444 
7 1 2 -4.4523 -0.5624 
7 1 3 -0.4769 0.3904 
7 1 4 18.1359 -0.0074 
7 1 5 -3.3425 0.4798 
7 1 6 0.4461 -0.2226 
7 1 7 -12.7571 -0.4677 
7 1 8 -17.0051 0.1854 
7 1 9 9.9567 0.0334 
7 1 10 6.6580 0.0869 
7 1 11 -0.8413 -0.0422 
7 1 12 -6.9921 0.0899 
7 1 13 -0.7621 -0.0267 
7 1 14 3.5559 -0.0480 
7 1 15 1.0572 -0.0374 
7 1 16 -1.3407 -0.1684 
7 1 17 2.8516 0.0775 
7 1 18 -0.3613 0.1388 
7 1 19 -0.1722 0.1120 
7 1 20 0.1586 0.0967 
7 1 21 5.4781 -0.1386 
7 1 22 0.6586 -0.2365 
7 1 23 -3.1551 -0.1644 
7 1 24 -3.3604 -0.1057 
7 1 25 -2.6661 -0.2080 
7 1 26 2.9814 0.2247 
7 2 0 1.0628 -1.1928 
7 2 1 -7.7323 0.9697 
7 2 2 -5.9545 0.5737 
7 2 3 10.7185 -0.2746 
7 2 4 -0.8005 -0.3918 
7 2 5 10.6675 -0.2125 
7 2 6 -8.6474 0.1725 
7 2 7 0.7257 -0.3831 
7 2 8 2.4261 0.2861 
7 2 9 2.2672 0.2995 
7 2 10 8.2154 0.0139 
7 2 11 -9.7044 0.0205 
7 2 12 -11.1194 -0.0740 
7 2 13 4.7754 -0.1777 
7 2 14 6.9289 0.0544 
7 2 15 -4.4888 -0.0154 
7 2 16 -0.1721 0.0616 
7 2 17 3.9119 -0.0373 
7 2 18 -0.6967 0.1333 
7 2 19 3.2126 0.0166 
7 2 20 -3.8841 -0.0757 
7 2 21 0.8625 -0.1226 
7 2 22 -3.6069 -0.0967 
7 2 23 3.3665 -0.1107 
7 2 24 0.4766 -0.0254 
7 2 25 -0.4017 -0.0142 
7 2 26 -0.6990 0.2034 
7 3 0 -3.7056 0.8420 
7 3 1 0.6910 -0.4639 
7 3 2 -7.3371 1.2431 
7 3 3 4.6854 -1.0415 
7 3 4 8.3092 -0.2471 
7 3 5 -17.0277 0.0614 
7 3 6 -1.4521 0.3362 
7 3 7 1.0512 0.1385 
7 3 8 0.8964 -0.2893 
7 3 9 8.4867 0.2594 
7 3 10 2.9973 -0.0887 
7 3 11 -5.5214 0.0362 
7 3 12 -4.5876 -0.1434 
7 3 13 3.1893 0.0151 
7 3 14 8.6460 0.0942 
7 3 15 -2.9301 -0.0378 
7 3 16 1.7822 0.0189 
7 3 17 -0.4753 -0.0431 
7 3 18 4.2003 0.0009 
7 3 19 -3.5635 0.0258 
7 3 20 5.2104 -0.1113 
7 3 21 -0.8742 0.0214 
7 3 22 -0.2622 -0.0899 
7 3 23 -0.9546 0.2364 
7 3 24 2.1871 0.1052 
7 3 25 -0.4159 0.1350 
7 3 26 -3.1958 0.2230 
7 4 0 8.3559 -0.1611 
7 4 1 -0.9038 -1.0323 
7 4 2 7.7733 0.5636 
7 4 3 1.8158 0.0533 
7 4 4 -3.5716 -0.3574 
7 4 5 -8.8388 0.3516 
7 4 6 -1.5231 0.1888 
7 4 7 11.1878 0.2805 
7 4 8 3.0740 -0.5573 
7 4 9 -5.2848 -0.1438 
7 4 10 0.4371 0.0861 
7 4 11 -2.2348 -0.0073 
7 4 12 -0.2128 -0.0044 
7 4 13 12.6819 -0.0001 
7 4 14 -4.8004 0.0144 
7 4 15 -4.0347 0.1786 
7 4 16 -3.8241 -0.0917 
7 4 17 4.5261 -0.0408 
7 4 18 0.3546 -0.0911 
7 4 19 -0.9561 0.0771 
7 4 20 -3.8976 0.0082 
7 4 21 -2.7212 -0.0763 
7 4 22 0.7915 0.1568 
7 4 23 0.9861 0.0827 
7 4 24 7.4431 -0.0258 
7 4 25 1.5293 -0.0301 
7 4 26 -0.7557 -0.2010 
7 5 0 -1.0719 -1.4073 
7 5 1 -0.3255 0.0949 
7 5 2 -7.4007 -0.3586 
7 5 3 6.4540 1.2670 
7 5 4 2.3077 -0.5360 
7 5 5 -12.1696 -0.3445 
7 5 6 5.8557 -0.0748 
7 5 7 8.3110 0.0109 
7 5 8 -1.0817 0.0296 
7 5 9 -2.9610 -0.1698 
7 5 10 -3.0152 0.2075 
7 5 11 4.0397 0.0438 
7 5 12 6.7857 0.0573 
7 5 13 -0.6746 -0.1091 
7 5 14 1.7339 -0.1303 
7 5 15 -4.4477 0.1047 
7 5 16 -2.1589 0.0581 
7 5 17 5.5484 -0.0784 
7 5 18 0.5766 -0.0351 
7 5 19 1.6504 0.0935 
7 5 20 4.4590 0.1325 
7 5 21 0.9412 -0.1215 
7 5 22 1.1261 0.0251 
7 5 23 -1.3479 -0.2070 
7 5 24 -3.3931 -0.0726 
7 5 25 -4.7047 -0.2332 
7 5 26 5.5852 -0.2009 
7 6 0 5.3729 -0.6426 
7 6 1 -3.9151 -0.0312 
7 6 2 -2.8608 0.1132 
7 6 3 2.6961 0.7827 
7 6 4 7.4108 -0.2692 
7 6 5 -0.3821 -0.8096 
7 6 6 -4.7449 0.0737 
7 6 7 5.6419 0.1226 
7 6 8 -0.7881 0.1479 
7 6 9 -8.0435 -0.1003 
7 6 10 5.5849 0.1227 
7 6 11 5.7430 0.0469 
7 6 12 -0.2175 -0.1491 
7 6 13 -2.4275 -0.0012 
7 6 14 -2.9351 -0.0437 
7 6 15 -2.2143 -0.0267 
7 6 16 1.0069 0.1666 
7 6 17 1.6304 -0.0879 
7 6 18 -3.5192 -0.0922 
7 6 19 -4.4783 -0.0379 
7 6 20 -8.2552 0.1533 
7 6 21 -0.4148 0.0700 
7 6 22 -1.2777 -0.0836 
7 6 23 0.7693 0.0813 
7 6 24 1.3306 0.0498 
7 6 25 3.3539 -0.0093 
7 6 26 -4.4878 0.2608 
7 7 0 8.3822 2.0099 
7 7 1 -2.9673 -0.9829 
7 7 2 -7.1650 0.2080 
7 7 3 1.7699 -0.4805 
7 7 4 -1.4244 0.5137 
7 7 5 -3.5014 -0.3249 
7 7 6 5.3718 -0.0805 
7 7 7 4.4565 0.4742 
7 7 8 -4.4079 -0.0723 
7 7 9 -3.4665 -0.1402 
7 7 10 3.5656 -0.2484 
7 7 11 6.3146 0.0158 
7 7 12 -5.1546 -0.0082 
7 7 13 -2.2000 0.0696 
7 7 14 2.3189 0.0554 
7 7 15 -0.3564 0.0294 
7 7 16 5.9834 0.1129 
7 7 17 3.6931 0.0367 
7 7 18 -3.6113 -0.0490 
7 7 19 -0.5570 -0.2176 
7 7 20 2.1343 0.0272 
7 7 21 -0.2822 0.0277 
7 7 22 -0.6542 0.0174 
7 7 23 2.3961 0.0156 
7 7 24 4.0219 0.1118 
7 7 25 -0.0587 0.1335 
7 7 26 0.1054 -0.0947 
7 8 0 -2.4214 1.0294 
7 8 1 0.0887 -0.4753 
7 8 2 -0.5753 -0.7791 
7 8 3 4.7788 -0.1035 
7 8 4 7.6796 0.5073 
7 8 5 1.3439 0.2233 
7 8 6 -4.5750 -0.2585 
7 8 7 5.3344 0.1999 
7 8 8 -7.6889 -0.0104 
7 8 9 -5.4174 -0.1142 
7 8 10 0.7911 -0.2837 
7 8 11 -2.9594 0.0218 
7 8 12 -2.1003 0.1009 
7 8 13 0.8321 0.1291 
7 8 14 -1.9850 0.0650 
7 8 15 2.8210 -0.0283 
7 8 16 4.4049 -0.0226 
7 8 17 -5.5957 0.1170 
7 8 18 -2.5232 -0.0105 
7 8 19 -2.7897 -0.1706 
7 8 20 1.6998 0.0229 
7 8 21 5.5574 -0.0485 
7 8 22 -0.4594 0.0554 
7 8 23 3.4874 -0.1062 
7 8 24 -3.2631 -0.1479 
7 8 25 -1.8057 -0.1633 
7 9 0 4.0254 -0.4761 
7 9 1 0.5934 0.9894 
7 9 2 -5.5620 -1.4190 
7 9 3 6.3553 0.5658 
7 9 4 0.6490 0.3652 
7 9 5 -7.6992 0.1937 
7 9 6 2.9547 -0.3584 
7 9 7 2.2905 -0.3519 
7 9 8 6.0561 0.4099 
7 9 9 -0.8065 0.0616 
7 9 10 -1.0510 0.0324 
7 9 11 -1.5098 -0.0525 
7 9 12 -3.8661 0.0588 
7 9 13 -4.3675 0.1319 
7 9 14 1.3259 -0.0106 
7 9 15 0.0935 -0.1343 
7 9 16 0.0794 -0.0928 
7 9 17 1.3304 0.0050 
7 9 18 -1.5170 0.1009 
7 9 19 0.1602 0.0258 
7 9 20 1.4280 -0.0407 
7 9 21 -0.6630 0.1186 
7 9 22 -0.4164 0.1348 
7 9 23 -3.5702 0.1126 
7 9 24 0.2682 0.1152 
7 9 25 -4.8098 0.1125 
7 10 0 -0.8207 -0.4241 
7 10 1 -1.7200 0.8168 
7 10 2 -3.0141 -0.0937 
7 10 3 0.2986 -0.1631 
7 10 4 -1.7588 0.2708 
7 10 5 -4.6238 0.2106 
7 10 6 -2.2528 -0.1126 
7 10 7 6.5856 -0.3474 
7 10 8 -2.8956 0.2409 
7 10 9 -1.3949 0.1243 
7 10 10 1.3575 0.1153 
7 10 11 -0.1203 -0.1303 
7 10 12 3.4269 -0.0025 
7 10 13 2.7455 0.0022 
7 10 14 2.3949 0.1057 
7 10 15 -0.4875 -0.0514 
7 10 16 0.2218 -0.1017 
7 10 17 1.7519 0.0012 
7 10 18 -0.6342 0.1284 
7 10 19 4.9784 0.1443 
7 10 20 5.0752 -0.2452 
7 10 21 5.0312 0.0023 
7 10 22 0.1303 -0.0844 
7 10 23 2.8690 0.0088 
7 10 24 -0.8132 -0.3051 
7 11 0 1.0253 1.1779 
7 11 1 -4.0843 -0.0909 
7 11 2 -5.0256 0.5914 
7 11 3 1.5118 -1.1988 
7 11 4 -4.1539 0.2121 
7 11 5 -4.2965 0.3848 
7 11 6 -0.7935 0.1258 
7 11 7 1.0682 -0.0888 
7 11 8 4.0169 -0.1278 
7 11 9 -1.1100 0.2591 
7 11 10 -3.7703 -0.0814 
7 11 11 1.4980 -0.0585 
7 11 12 0.1600 -0.0753 
7 11 13 3.4475 -0.1699 
7 11 14 2.6744 0.1216 
7 11 15 -3.2355 -0.0631 
7 11 16 0.1863 -0.0035 
7 11 17 -1.4634 0.0781 
7 11 18 -2.8321 0.0623 
7 11 19 -0.6301 0.0866 
7 11 20 -2.0647 -0.0869 
7 11 21 -4.7462 -0.0022 
7 11 22 -3.8815 -0.0820 
7 11 23 -3.5009 0.0877 
7 12 0 -0.4671 -0.1656 
7 12 1 0.2782 0.1054 
7 12 2 4.8751 0.2459 
7 12 3 1.9330 -0.4956 
7 12 4 5.7216 -0.1562 
7 12 5 0.4327 0.2882 
7 12 6 -0.5900 0.2306 
7 12 7 1.0839 -0.1307 
7 12 8 1.6536 -0.2321 
7 12 9 -0.6494 0.2059 
7 12 10 0.8057 0.0494 
7 12 11 -6.8642 0.1202 
7 12 12 -4.1789 -0.0942 
7 12 13 -1.9707 -0.0336 
7 12 14 -1.2051 0.0294 
7 12 15 -4.4237 -0.0262 
7 12 16 -0.6517 0.0003 
7 12 17 2.6931 -0.2037 
7 12 18 2.1016 0.1636 
7 12 19 -3.1108 0.0908 
7 12 20 2.1256 -0.0985 
7 12 21 -0.4445 -0.0629 
7 12 22 6.0197 0.1571 
7 13 0 -0.6869 -1.2596 
7 13 1 2.1970 0.4734 
7 13 2 5.8358 -0.1191 
7 13 3 4.4108 0.3792 
7 13 4 -0.1394 -0.3823 
7 13 5 -2.3643 0.1421 
7 13 6 -3.0135 0.1576 
7 13 7 -1.9111 -0.2039 
7 13 8 -0.5377 -0.0970 
7 13 9 -1.9374 -0.1096 
7 13 10 -4.4299 0.0767 
7 13 11 5.8627 -0.0844 
7 13 12 0.4508 -0.0498 
7 13 13 4.1112 -0.0523 
7 13 14 1.7482 -0.0307 
7 13 15 -1.4302 0.1701 
7 13 16 -0.3921 0.0031 
7 13 17 -0.3779 -0.0716 
7 13 18 -2.8165 -0.0171 
7 13 19 6.0796 0.1267 
7 13 20 -0.5932 0.0914 
7 13 21 0.9250 -0.3955 
7 14 0 -4.8110 -0.6418 
7 14 1 4.0835 -0.2426 
7 14 2 -1.7596 0.6732 
7 14 3 -4.3206 0.3686 
7 14 4 -1.6414 -0.5493 
7 14 5 0.4288 -0.1099 
7 14 6 -0.8369 0.0952 
7 14 7 7.2514 0.2044 
7 14 8 1.1778 -0.0862 
7 14 9 -5.7645 -0.1404 
7 14 10 -3.0226 0.2457 
7 14 11 1.2223 -0.1234 
7 14 12 -0.0724 0.0599 
7 14 13 5.1300 -0.4376 
7 14 14 -2.4495 0.0091 
7 14 15 -2.5675 0.1105 
7 14 16 -3.3040 0.0016 
7 14 17 -1.2811 -0.0050 
7 14 18 1.0439 -0.0930 
7 14 19 -2.4094 0.5514 
7 15 0 3.4319 0.4831 
7 15 1 0.0599 -0.5138 
7 15 2 -1.0368 0.5165 
7 15 3 1.4987 0.1333 
7 15 4 3.9471 -0.1035 
7 15 5 -3.8179 -0.2558 
7 15 6 -2.5243 0.1088 
7 15 7 -1.3891 0.0813 
7 15 8 2.1646 -0.2960 
7 15 9 0.7908 0.0264 
7 15 10 3.2222 -0.1579 
7 15 11 -3.3430 0.1851 
7 15 12 5.6819 0.1042 
7 15 13 2.5476 -0.2093 
7 15 14 -0.4796 0.0721 
7 15 15 2.1485 0.3233 
7 15 16 1.0553 0.3242 
7 16 0 3.1810 -0.2131 
7 16 1 2.9838 -0.4646 
7 16 2 1.6138 -0.4420 
7 16 3 -4.8166 0.1017 
7 16 4 2.6017 0.1342 
7 16 5 1.0557 -0.2960 
7 16 6 2.8822 0.3397 
7 16 7 2.6726 0.1126 
7 16 8 -2.0322 0.0620 
7 16 9 6.9852 -0.0476 
7 16 10 7.4359 -0.2338 
7 16 11 4.4061 0.0851 
7 16 12 1.5206 -0.4834 
7 16 13 -7.6157 0.3093 
8 -11 0 0.4805 0.0986 
8 -11 1 -4.3499 -0.0400 
8 -11 2 -2.3593 -0.0420 
8 -10 0 0.5574 0.1310 
8 -10 1 -5.7062 -0.2925 
8 -10 2 -1.5739 0.0763 
8 -10 3 5.1036 -0.1038 
8 -10 4 -4.6833 -0.0018 
8 -10 5 -2.1714 0.2966 
8 -10 6 -2.3131 0.0312 
8 -10 7 3.0913 0.1693 
8 -10 8 -0.8993 -0.0017 
8 -9 0 0.1954 -0.3718 
8 -9 1 -3.7033 -0.0271 
8 -9 2 3.3395 0.1526 
8 -9 3 -2.8605 0.3584 
8 -9 4 -4.7030 -0.0342 
8 -9 5 -2.4829 -0.0472 
8 -9 6 2.7379 -0.2677 
8 -9 7 -3.0112 -0.0840 
8 -9 8 4.2606 0.0561 
8 -9 9 1.9257 -0.1634 
8 -9 10 2.1981 0.0743 
8 -9 11 -2.6614 0.3153 
8 -8 0 -4.3362 -0.2240 
8 -8 1 1.6985 0.2562 
8 -8 2 -1.2468 0.2777 
8 -8 3 -0.4323 0.1395 
8 -8 4 -3.5460 -0.2069 
8 -8 5 -0.3537 -0.3537 
8 -8 6 -2.3166 -0.0307 
8 -8 7 6.2909 0.0419 
8 -8 8 -0.4253 0.1866 
8 -8 9 3.0648 0.0380 
8 -8 10 -0.9133 0.1287 
8 -8 11 -2.3467 -0.1546 
8 -8 12 3.4233 -0.4144 
8 -8 13 5.3862 0.0167 
8 -8 14 1.2218 -0.0457 
8 -7 0 4.9184 0.6730 
8 -7 1 -0.1161 -0.1228 
8 -7 2 -3.4305 -0.0404 
8 -7 3 2.0064 -0.3894 
8 -7 4 2.2516 -0.0079 
8 -7 5 -2.2287 -0.0700 
8 -7 6 -1.3674 0.1354 
8 -7 7 -6.8578 0.2830 
8 -7 8 -5.2254 -0.0575 
8 -7 9 -2.2670 -0.0557 
8 -7 10 -2.1066 -0.1747 
8 -7 11 -1.7442 -0.0887 
8 -7 12 -0.0631 0.0408 
8 -7 13 -2.4556 -0.0388 
8 -7 14 -0.1747 -0.1549 
8 -7 15 -5.2070 -0.0395 
8 -7 16 -0.1474 -0.1035 
8 -6 0 3.2544 0.4625 
8 -6 1 2.7869 -0.3603 
8 -6 2 2.6045 -0.4865 
8 -6 3 4.0524 0.0420 
8 -6 4 3.9488 0.1827 
8 -6 5 -3.2719 0.2882 
8 -6 6 3.7114 -0.1207 
8 -6 7 7.5980 0.1242 
8 -6 8 -2.5312 -0.2765 
8 -6 9 -4.7915 -0.0727 
8 -6 10 4.4308 -0.0352 
8 -6 11 2.4289 0.0286 
8 -6 12 4.1670 0.1163 
8 -6 13 2.4317 0.0231 
8 -6 14 -2.6142 0.0217 
8 -6 15 0.6299 -0.0687 
8 -6 16 2.5280 -0.2711 
8 -6 17 1.2252 -0.0826 
8 -6 18 2.4251 -0.1905 
8 -5 0 1.9879 -0.3092 
8 -5 1 4.0031 0.2546 
8 -5 2 -8.6433 -0.5943 
8 -5 3 7.8948 0.5572 
8 -5 4 1.4351 0.1358 
8 -5 5 -5.6672 0.0256 
8 -5 6 1.5474 -0.2789 
8 -5 7 -2.9876 -0.2198 
8 -5 8 0.3299 0.1510 
8 -5 9 4.5716 0.0233 
8 -5 10 1.2507 0.2856 
8 -5 11 0.8737 0.1207 
8 -5 12 -8.7526 -0.0494 
8 -5 13 -2.6105 -0.0502 
8 -5 14 2.6500 -0.2126 
8 -5 15 1.9244 -0.1350 
8 -5 16 -0.2286 0.0355 
8 -5 18 -6.1804 0.2212 
8 -5 19 -2.6231 -0.1292 
8 -4 0 4.6515 -0.2643 
8 -4 1 -3.1896 0.6662 
8 -4 2 -0.3651 -0.1034 
8 -4 3 -5.8140 -0.0735 
8 -4 4 9.2554 0.1133 
8 -4 5 -10.2883 -0.2344 
8 -4 6 -1.4965 0.0544 
8 -4 7 2.2286 -0.2905 
8 -4 8 0.5235 0.4231 
8 -4 9 0.4636 0.0775 
8 -4 10 4.3382 0.0352 
8 -4 11 -7.6432 -0.0342 
8 -4 12 -1.3976 -0.0705 
8 -4 13 2.6690 -0.0740 
8 -4 14 2.7011 0.0795 
8 -4 15 1.6922 0.0134 
8 -4 16 0.2452 0.0074 
8 -4 17 4.3488 0.0425 
8 -4 18 3.9538 0.1157 
8 -4 19 1.5958 -0.2722 
8 -4 20 0.2263 -0.3566 
8 -3 0 0.0898 0.6629 
8 -3 1 -1.4610 -0.0360 
8 -3 2 -5.2756 0.1348 
8 -3 3 8.7687 -0.8432 
8 -3 4 3.9240 0.3518 
8 -3 5 -1.4891 0.1743 
8 -3 6 -4.2204 0.2600 
8 -3 7 1.6393 -0.0064 
8 -3 8 -2.6103 -0.1086 
8 -3 9 2.2513 0.1029 
8 -3 10 2.6655 -0.2987 
8 -3 11 1.2157 -0.0451 
8 -3 12 -7.9241 0.0068 
8 -3 13 4.6436 -0.0255 
8 -3 14 6.1563 0.2712 
8 -3 15 -3.3025 0.0055 
8 -3 16 0.6124 0.0173 
8 -3 17 -3.0735 0.0462 
8 -3 18 -5.0668 -0.3503 
8 -3 19 2.1475 -0.0386 
8 -3 20 2.2674 -0.2625 
8 -3 21 4.0543 -0.0938 
8 -3 22 -0.0384 -0.4570 
8 -2 0 -2.9575 -0.0051 
8 -2 1 1.4227 -0.3685 
8 -2 2 -5.7626 0.0539 
8 -2 3 -0.2180 -0.2595 
8 -2 4 4.9160 0.1030 
8 -2 5 -5.5038 0.5960 
8 -2 6 -3.4435 -0.0638 
8 -2 7 8.8741 -0.0285 
8 -2 8 2.5441 -0.3000 
8 -2 9 1.1731 -0.0011 
8 -2 10 -1.5928 -0.0746 
8 -2 11 -8.1284 0.1431 
8 -2 12 0.0001 0.1186 
8 -2 13 1.7851 0.0598 
8 -2 14 -4.2701 0.0563 
8 -2 15 -2.5625 0.0248 
8 -2 16 -4.4379 -0.2186 
8 -2 17 -2.5309 -0.0225 
8 -2 18 6.2409 -0.1504 
8 -2 19 -2.4140 0.0383 
8 -2 20 2.7703 -0.1937 
8 -2 21 -4.7290 -0.2654 
8 -2 22 -4.0858 0.2162 
8 -1 0 4.5658 -1.2171 
8 -1 1 0.7063 0.3960 
8 -1 2 -4.4150 0.2234 
8 -1 3 0.4921 0.5924 
8 -1 4 2.2353 -0.3721 
8 -1 5 -9.0970 0.1071 
8 -1 6 5.1815 -0.0364 
8 -1 7 7.5283 -0.2550 
8 -1 8 3.6901 0.1164 
8 -1 9 -7.6681 0.0533 
8 -1 10 -2.3570 0.3188 
8 -1 11 8.6180 0.0498 
8 -1 12 -3.4611 -0.0271 
8 -1 13 2.3354 -0.0680 
8 -1 14 0.7332 -0.1203 
8 -1 15 -1.1331 -0.0681 
8 -1 16 -1.4427 -0.1028 
8 -1 17 2.2269 -0.0658 
8 -1 18 -0.2558 -0.0478 
8 -1 19 -1.8899 0.1277 
8 -1 20 0.7619 0.2066 
8 -1 21 0.4140 -0.2632 
8 -1 22 -1.6931 0.1223 
8 -1 23 0.0555 0.3113 
8 0 0 3.9389 -0.8658 
8 0 1 2.8942 0.4420 
8 0 2 3.6901 0.8496 
8 0 3 -6.3005 0.1204 
8 0 4 0.5257 -0.4532 
8 0 5 -3.5328 -0.4806 
8 0 7 9.0162 0.0001 
8 0 8 -3.0316 0.1868 
8 0 9 -4.2983 0.0654 
8 0 10 -1.5256 0.0871 
8 0 11 2.8044 -0.0694 
8 0 12 1.4955 -0.2110 
8 0 13 -3.7886 -0.1140 
8 0 14 0.8956 0.0231 
8 0 15 2.5144 0.0309 
8 0 16 -2.6419 0.0787 
8 0 17 -0.8019 -0.1211 
8 0 18 1.0673 0.0401 
8 0 19 2.9772 0.1096 
8 0 20 -6.4526 -0.0332 
8 0 21 -3.6746 -0.0089 
8 0 22 -5.0541 -0.0008 
8 0 23 1.3974 0.1078 
8 0 24 -0.6322 -0.2286 
8 1 0 -0.6165 0.8886 
8 1 1 4.5087 -0.7685 
8 1 2 0.5445 0.6351 
8 1 3 -0.9375 -0.4970 
8 1 4 -4.6903 -0.1357 
8 1 5 8.1237 -0.2082 
8 1 6 0.9359 0.2905 
8 1 7 -2.9562 0.4786 
8 1 8 -5.0850 -0.2649 
8 1 9 -10.3956 -0.0276 
8 1 10 3.7874 -0.2522 
8 1 11 6.9395 -0.0026 
8 1 12 -3.1287 -0.0156 
8 1 13 -3.2917 0.0195 
8 1 14 4.1496 0.1162 
8 1 15 -0.1259 0.1322 
8 1 16 -4.4759 0.0533 
8 1 17 -2.5250 -0.0032 
8 1 18 0.5368 -0.1561 
8 1 19 -0.1075 0.0409 
8 1 20 -3.8486 0.0217 
8 1 21 2.4268 -0.0212 
8 1 22 3.2247 0.0294 
8 1 23 -0.2557 -0.1021 
8 1 24 -2.7907 -0.0014 
8 2 0 -0.7397 0.4292 
8 2 1 8.5193 -1.0667 
8 2 2 -2.1732 -0.2290 
8 2 3 -6.9356 0.2829 
8 2 4 9.1054 -0.1421 
8 2 5 2.5571 0.1270 
8 2 6 5.1214 -0.1090 
8 2 7 -0.8596 0.3992 
8 2 8 -7.4131 -0.2915 
8 2 9 -5.2010 -0.2459 
8 2 10 6.1341 0.0120 
8 2 11 3.4648 0.0637 
8 2 12 -3.6931 0.0983 
8 2 13 -4.9699 0.0653 
8 2 14 7.7869 0.0106 
8 2 15 0.8508 -0.0309 
8 2 16 -0.6850 -0.0407 
8 2 17 1.8207 0.0672 
8 2 18 8.3918 -0.0185 
8 2 19 -2.0761 0.0222 
8 2 20 3.0878 0.1042 
8 2 21 3.2415 -0.0702 
8 2 22 2.6042 -0.0719 
8 2 23 -1.1516 -0.0795 
8 2 24 5.4426 -0.3238 
8 2 25 -1.1252 -0.2468 
8 3 0 2.7464 -0.4459 
8 3 1 -7.1066 0.2046 
8 3 2 -3.5550 -0.8049 
8 3 3 0.8363 0.9795 
8 3 5 5.9096 -0.2353 
8 3 6 -4.3327 -0.2910 
8 3 7 1.3353 0.0030 
8 3 8 -2.6167 0.2685 
8 3 9 1.3542 -0.2582 
8 3 10 7.1136 0.2175 
8 3 11 6.8068 -0.0615 
8 3 12 -8.3931 0.0204 
8 3 13 2.8321 0.0127 
8 3 14 2.4023 -0.1396 
8 3 15 3.1774 -0.0168 
8 3 16 0.2211 -0.0008 
8 3 17 -0.7152 0.0652 
8 3 18 -2.9471 0.0400 
8 3 19 0.8683 -0.0504 
8 3 20 -2.4972 0.0585 
8 3 21 1.7581 -0.0389 
8 3 22 -1.9000 -0.0075 
8 3 23 0.0047 -0.0226 
8 3 24 2.8699 -0.2091 
8 3 25 0.7808 0.0396 
8 4 0 -0.8668 0.0116 
8 4 1 1.4897 0.4830 
8 4 2 -2.2864 -0.2441 
8 4 3 0.6399 0.1919 
8 4 4 5.5139 0.2942 
8 4 5 -10.9892 -0.4872 
8 4 6 -2.1837 -0.1090 
8 4 7 0.0710 -0.1029 
8 4 8 0.9857 0.2469 
8 4 9 1.5910 0.0097 
8 4 10 4.5555 0.0439 
8 4 11 0.7176 -0.0293 
8 4 12 -0.4101 -0.0880 
8 4 13 -1.5825 -0.0152 
8 4 14 6.1201 -0.0461 
8 4 15 0.4205 0.0124 
8 4 16 -5.3887 0.1174 
8 4 17 0.8499 -0.0828 
8 4 18 5.2258 0.0052 
8 4 19 -1.7946 -0.0297 
8 4 20 0.2898 0.0052 
8 4 21 1.2474 0.0511 
8 4 22 -4.6151 0.1047 
8 4 23 0.7989 0.1135 
8 4 24 1.3747 0.1707 
8 4 25 1.6436 0.1298 
8 5 0 -2.8036 1.5904 
8 5 1 -5.9187 -0.2639 
8 5 2 1.6151 -0.1622 
8 5 3 6.8885 -0.8463 
8 5 4 0.4088 0.6392 
8 5 5 -2.4626 0.1006 
8 5 6 -7.8008 -0.2676 
8 5 7 5.2348 0.0647 
8 5 8 6.6146 -0.0972 
8 5 9 -1.6011 0.1090 
8 5 10 1.5666 -0.3400 
8 5 11 0.7498 0.0638 
8 5 12 -0.9141 0.0254 
8 5 13 -0.1113 0.1277 
8 5 14 3.6150 0.0539 
8 5 15 -3.5760 -0.0422 
8 5 16 -9.2719 0.0833 
8 5 17 -0.2411 0.0391 
8 5 18 2.2336 -0.0366 
8 5 19 3.0120 -0.1957 
8 5 20 0.3458 0.0270 
8 5 21 -2.4327 0.0780 
8 5 22 -1.4735 0.0621 
8 5 23 -4.8537 0.0089 
8 5 24 -0.7943 0.0762 
8 5 25 -0.0952 0.0341 
8 6 0 2.7235 0.4315 
8 6 1 2.6205 -0.0039 
8 6 2 -0.7336 -0.5342 
8 6 3 2.3154 -0.4555 
8 6 4 4.1508 0.2843 
8 6 5 -2.9554 0.5773 
8 6 6 -3.3024 -0.3321 
8 6 7 2.9731 -0.2108 
8 6 8 3.9265 -0.0394 
8 6 9 0.4087 0.2022 
8 6 10 -4.2491 -0.0882 
8 6 11 3.7380 -0.0191 
8 6 12 -3.4117 0.0831 
8 6 13 2.0527 0.1379 
8 6 14 2.6141 0.0064 
8 6 15 -2.8325 -0.0924 
8 6 16 -3.0296 -0.1121 
8 6 17 6.8627 0.0564 
8 6 18 1.0744 0.1465 
8 6 19 -4.0044 -0.2090 
8 6 20 -1.7157 0.0873 
8 6 21 -0.6894 0.0505 
8 6 22 1.9825 0.0366 
8 6 23 -2.2938 -0.1482 
8 6 24 4.5986 -0.2046 
8 6 25 0.2951 -0.2525 
8 7 0 2.3208 -1.0961 
8 7 1 8.2178 1.1502 
8 7 2 -4.0357 -0.4630 
8 7 3 -7.3534 0.3137 
8 7 4 0.2371 -0.0675 
8 7 5 3.3976 0.3486 
8 7 6 -2.2057 -0.0694 
8 7 7 5.4017 -0.5225 
8 7 8 3.9428 0.1644 
8 7 9 -6.5600 0.1947 
8 7 10 -0.0745 0.1845 
8 7 11 -1.7552 -0.1119 
8 7 12 -2.9419 -0.0417 
8 7 13 2.4976 -0.0285 
8 7 14 0.2750 0.0559 
8 7 15 -4.8063 -0.0942 
8 7 16 3.4641 -0.1295 
8 7 17 2.8230 -0.0315 
8 7 18 0.5465 0.2024 
8 7 19 -0.0676 0.0508 
8 7 20 -5.3464 -0.0734 
8 7 21 3.2218 0.0803 
8 7 22 -4.3334 0.0998 
8 7 23 0.5008 0.0638 
8 7 24 3.8075 -0.0127 
8 7 25 1.3955 0.2246 
8 8 0 6.3137 -1.0159 
8 8 1 6.5973 0.6790 
8 8 2 -8.3237 0.7076 
8 8 3 -3.1287 -0.1499 
8 8 4 3.1471 -0.2989 
8 8 5 0.7358 0.0351 
8 8 6 0.9425 0.3401 
8 8 7 -1.1591 -0.2840 
8 8 8 -3.3205 -0.0401 
8 8 9 -7.1799 0.1081 
8 8 10 -4.5230 0.1323 
8 8 11 -1.2773 -0.0331 
8 8 12 3.1531 -0.1898 
8 8 13 0.0920 -0.1038 
8 8 14 -2.5153 0.1705 
8 8 15 -4.3139 0.0482 
8 8 16 1.8225 -0.0317 
8 8 17 2.5006 -0.0729 
8 8 18 1.2260 0.0742 
8 8 19 -0.9516 0.0910 
8 8 20 1.9200 -0.2688 
8 8 21 2.6832 0.0070 
8 8 22 3.0228 -0.0084 
8 8 23 2.9055 0.2558 
8 8 24 2.6721 0.0078 
8 9 0 2.4331 0.6445 
8 9 1 -0.0146 -0.4988 
8 9 2 -5.2046 1.0808 
8 9 3 -2.6046 -0.7683 
8 9 4 10.0408 -0.3310 
8 9 5 2.3136 0.0565 
8 9 6 -3.9360 0.3642 
8 9 7 3.7970 0.1450 
8 9 8 -0.9023 -0.2132 
8 9 9 -2.3251 0.1049 
8 9 10 1.7628 -0.1497 
8 9 11 -2.2928 -0.0358 
8 9 12 -1.1694 -0.0251 
8 9 13 0.3166 -0.0752 
8 9 14 -0.3864 0.1232 
8 9 15 -0.9125 0.1762 
8 9 16 0.2445 0.0958 
8 9 17 2.0743 -0.0593 
8 9 18 1.9366 -0.0153 
8 9 19 -1.7249 0.1216 
8 9 20 -2.1174 -0.1454 
8 9 21 3.2282 -0.1913 
8 9 22 -2.9663 -0.1951 
8 9 23 0.3587 0.0917 
8 9 24 -2.1819 -0.0182 
8 10 0 -0.3502 -0.1878 
8 10 1 5.4237 -0.6208 
8 10 2 -3.6532 0.3498 
8 10 3 1.5120 0.0636 
8 10 4 -0.5345 -0.3711 
8 10 5 -1.8345 -0.0475 
8 10 6 2.0944 0.3301 
8 10 7 -2.3223 0.2478 
8 10 8 -0.4279 -0.2020 
8 10 9 1.7534 -0.0400 
8 10 10 1.4305 0.0539 
8 10 11 6.0913 0.0556 
8 10 12 -0.2529 0.0086 
8 10 13 -1.7234 -0.1254 
8 10 14 -0.3223 -0.0420 
8 10 15 -4.7356 0.0823 
8 10 16 1.8997 0.0138 
8 10 17 6.7919 -0.1167 
8 10 18 -0.6809 -0.0303 
8 10 19 -0.9316 0.1031 
8 10 20 3.4829 0.1710 
8 10 21 -4.2475 0.0780 
8 10 22 0.3450 0.0166 
8 10 23 -1.0555 0.2698 
8 11 0 0.3409 -0.8323 
8 11 1 -2.0382 0.1944 
8 11 2 -3.6326 -0.3102 
8 11 3 -4.0920 0.9442 
8 11 4 1.9808 -0.2379 
8 11 5 -1.1396 -0.2383 
8 11 6 -7.4753 0.0861 
8 11 7 -4.2097 0.1837 
8 11 8 4.5518 0.0432 
8 11 9 2.6583 -0.2153 
8 11 10 4.8129 0.0583 
8 11 11 -2.5386 0.1209 
8 11 12 -2.7051 0.0856 
8 11 13 1.6781 -0.0700 
8 11 14 4.7417 -0.0125 
8 11 15 -0.6871 0.0119 
8 11 16 -0.2235 0.0218 
8 11 17 -2.2275 0.0202 
8 11 18 -3.4582 -0.1967 
8 11 19 -2.7746 0.0339 
8 11 20 3.2295 0.0113 
8 11 21 2.0189 -0.0713 
8 11 22 -2.8086 -0.3305 
8 12 0 4.2991 -0.1541 
8 12 1 0.9762 -0.2260 
8 12 2 -0.0535 0.1365 
8 12 3 0.7507 0.5242 
8 12 4 0.5447 -0.2636 
8 12 5 2.8801 -0.4275 
8 12 6 -3.3177 -0.0188 
8 12 7 2.8217 0.2807 
8 12 8 3.4273 0.1370 
8 12 9 4.5927 -0.3090 
8 12 10 -3.1667 -0.0557 
8 12 11 -2.6052 -0.0155 
8 12 12 -12.2548 0.1233 
8 12 13 -0.2114 -0.1813 
8 12 14 3.0651 -0.1379 
8 12 15 -3.2232 -0.0512 
8 12 16 -3.6332 0.0489 
8 12 17 6.3880 0.3281 
8 12 18 -5.6150 -0.0590 
8 12 19 -3.0525 0.1235 
8 12 20 -1.5204 0.0137 
8 12 21 -0.2324 0.2337 
8 13 0 -4.6470 1.2352 
8 13 1 0.8900 -0.5620 
8 13 2 3.6882 0.0647 
8 13 3 5.6048 -0.1698 
8 13 4 3.7051 0.2663 
8 13 5 -3.4079 -0.3546 
8 13 6 -5.6379 -0.2226 
8 13 7 -3.9861 0.1692 
8 13 8 2.2689 0.0286 
8 13 9 -4.0591 0.0364 
8 13 10 0.0198 -0.1372 
8 13 11 0.9813 -0.0575 
8 13 12 -3.9302 0.2734 
8 13 13 2.0389 0.0045 
8 13 14 5.1711 -0.1576 
8 13 15 2.1168 -0.2999 
8 13 16 3.6838 0.0635 
8 13 17 -0.9798 0.0705 
8 13 18 -0.3438 -0.2010 
8 13 19 1.4493 -0.1065 
8 13 20 6.9550 0.0469 
8 14 0 -1.1879 0.4092 
8 14 1 -4.1024 -0.0626 
8 14 2 1.3035 -0.5332 
8 14 3 -4.4668 -0.1016 
8 14 4 1.3015 0.4238 
8 14 5 1.3024 -0.1871 
8 14 6 2.1748 -0.0180 
8 14 7 5.5422 0.0624 
8 14 8 6.0392 0.0495 
8 14 9 -0.7501 -0.0047 
8 14 10 -1.6420 -0.3024 
8 14 11 -2.7099 -0.0524 
8 14 12 4.8132 -0.0698 
8 14 13 5.8538 0.2401 
8 14 14 3.0770 0.0043 
8 14 15 -5.6611 -0.0632 
8 14 16 -1.1869 0.2359 
8 14 17 -3.4706 0.2056 
8 14 18 -3.3535 0.1859 
8 15 0 -8.8275 0.0450 
8 15 1 0.0121 0.4382 
8 15 2 -2.4144 -0.6392 
8 15 3 -3.0409 0.3473 
8 15 4 1.9107 0.1382 
8 15 5 3.9265 0.1220 
8 15 6 -3.1375 -0.2228 
8 15 7 -1.2077 -0.1535 
8 15 8 -3.7174 0.3863 
8 15 9 0.3296 0.0090 
8 15 10 -2.7525 -0.0269 
8 15 11 -4.6677 -0.0726 
8 15 12 -0.9297 -0.1544 
8 15 13 9.3976 0.1861 
8 15 14 -0.6830 -0.2552 
8 15 15 -1.8563 -0.0362 
8 16 0 3.7609 0.1374 
8 16 1 9.6151 0.2149 
8 16 2 8.8663 0.2426 
8 16 3 -2.0597 -0.0261 
8 16 4 -0.9474 0.0564 
8 16 5 1.4384 0.2529 
8 16 6 3.3227 -0.2995 
8 16 7 -2.5480 0.0110 
8 16 8 -5.3884 -0.0394 
8 16 9 8.4610 -0.1970 
8 16 10 12.2587 -0.1251 
8 16 11 1.5422 -0.3681 
9 -9 0 -4.1323 0.2680 
9 -9 1 -0.7582 -0.0045 
9 -9 2 -2.0531 -0.0881 
9 -9 3 6.2996 -0.1863 
9 -9 4 2.1153 0.0655 
9 -9 5 -1.4860 -0.0094 
9 -9 6 -7.2441 0.0828 
9 -9 7 -1.5499 0.1720 
9 -8 0 4.7275 0.0702 
9 -8 1 -7.2813 -0.1412 
9 -8 2 -3.4223 -0.2535 
9 -8 3 1.3378 0.0309 
9 -8 4 -3.0611 0.1764 
9 -8 5 -0.8611 0.2561 
9 -8 6 4.0563 -0.1836 
9 -8 7 4.8262 -0.0925 
9 -8 8 2.5381 -0.3045 
9 -8 9 -0.6951 0.0224 
9 -8 10 -0.8339 0.2048 
9 -8 11 0.3103 -0.1146 
9 -7 0 1.0135 -0.3591 
9 -7 1 -2.5024 0.1704 
9 -7 2 3.6596 -0.0420 
9 -7 3 5.2340 0.3697 
9 -7 4 4.1439 -0.0307 
9 -7 5 -6.1136 0.0052 
9 -7 6 -5.7342 -0.0774 
9 -7 7 -5.4908 -0.2735 
9 -7 8 0.3619 0.0621 
9 -7 9 1.4754 0.0521 
9 -7 10 -0.9725 0.1133 
9 -7 11 -5.2829 -0.0516 
9 -7 12 -1.0679 0.0816 
9 -7 13 2.2987 -0.1940 
9 -6 0 -0.0739 -0.3500 
9 -6 1 5.8178 0.4652 
9 -6 2 -0.1090 0.2913 
9 -6 3 2.1380 -0.0051 
9 -6 4 1.2992 -0.1221 
9 -6 5 -1.2519 -0.2787 
9 -6 6 6.4455 0.2156 
9 -6 7 6.3068 -0.1079 
9 -6 8 2.5821 0.2790 
9 -6 9 -5.0959 0.1638 
9 -6 10 -4.3980 -0.0469 
9 -6 11 7.4039 -0.0129 
9 -6 12 4.3840 -0.2684 
9 -6 13 -0.6969 -0.1858 
9 -6 14 -1.3971 0.0541 
9 -6 15 -3.6111 0.0346 
9 -5 0 0.9061 0.0934 
9 -5 1 -4.0187 -0.1526 
9 -5 2 4.7814 0.3160 
9 -5 3 -2.9458 -0.4363 
9 -5 4 5.9190 -0.0569 
9 -5 5 -4.1829 0.0160 
9 -5 6 -2.3205 0.3386 
9 -5 7 -1.7298 0.0834 
9 -5 8 -3.5039 -0.1055 
9 -5 9 -0.2041 0.0734 
9 -5 10 3.6814 -0.2470 
9 -5 11 0.1186 0.0303 
9 -5 12 -5.1491 0.0964 
9 -5 13 -3.5796 0.0323 
9 -5 14 -1.3176 0.0032 
9 -5 15 5.1813 0.0202 
9 -5 16 2.8785 -0.0519 
9 -5 17 -2.6323 -0.0342 
9 -4 0 1.6804 -0.0468 
9 -4 1 6.8472 -0.5466 
9 -4 2 -4.3670 0.1322 
9 -4 3 -3.2474 0.0194 
9 -4 4 -1.9136 -0.0631 
9 -4 5 2.2185 0.2380 
9 -4 6 -5.1939 -0.0016 
9 -4 7 3.7258 0.1211 
9 -4 8 -1.2309 -0.2305 
9 -4 9 -2.3512 0.0235 
9 -4 10 -1.5827 0.0819 
9 -4 11 6.1386 0.0462 
9 -4 12 -4.9254 0.1540 
9 -4 13 -0.3824 -0.0806 
9 -4 14 5.5724 0.0174 
9 -4 15 -3.5659 -0.0116 
9 -4 16 0.3858 -0.2460 
9 -4 17 0.2109 -0.1707 
9 -4 18 1.1595 -0.0984 
9 -4 19 -4.3720 0.0555 
9 -3 0 -8.3849 -0.5284 
9 -3 1 1.8783 0.0213 
9 -3 2 -0.3997 0.0928 
9 -3 3 -0.8475 0.5204 
9 -3 4 9.5573 -0.2282 
9 -3 5 -1.2926 -0.0728 
9 -3 6 -0.8539 -0.0578 
9 -3 7 2.3941 0.0115 
9 -3 8 -3.9698 0.0849 
9 -3 9 -3.6867 -0.1098 
9 -3 10 7.1311 0.2559 
9 -3 11 -2.1489 0.0459 
9 -3 12 -3.2589 0.0327 
9 -3 13 -3.5959 -0.0893 
9 -3 14 -0.6342 -0.1139 
9 -3 15 2.8512 0.0161 
9 -3 16 -1.4929 0.0561 
9 -3 17 0.0413 0.0311 
9 -3 18 0.9804 -0.0108 
9 -3 19 0.0365 -0.0800 
9 -3 20 4.5432 0.0333 
9 -2 1 6.4220 0.1770 
9 -2 2 -1.3148 0.2022 
9 -2 3 -4.6540 0.0978 
9 -2 4 5.6592 -0.1456 
9 -2 5 -0.8387 -0.4205 
9 -2 6 -5.6930 0.2893 
9 -2 7 -4.4379 0.1614 
9 -2 8 0.5385 0.1014 
9 -2 9 1.9789 -0.0422 
9 -2 10 1.2822 -0.0644 
9 -2 11 3.8667 -0.0762 
9 -2 12 -5.9554 -0.0965 
9 -2 13 -2.1902 0.0921 
9 -2 14 -0.8100 -0.0143 
9 -2 15 -1.5554 0.1039 
9 -2 16 0.9783 0.0408 
9 -2 17 -2.3090 -0.0071 
9 -2 18 -3.1133 -0.1086 
9 -2 19 -1.5328 -0.0573 
9 -2 20 -1.8132 -0.1097 
9 -2 21 1.9210 -0.3349 
9 -1 0 0.4154 1.0306 
9 -1 1 -0.1707 -0.4719 
9 -1 2 0.0639 -0.0961 
9 -1 3 -6.2489 -0.3222 
9 -1 4 0.0362 0.2381 
9 -1 5 7.6300 -0.0041 
9 -1 6 -2.3006 -0.0206 
9 -1 7 3.1522 0.3341 
9 -1 8 5.0630 -0.1364 
9 -1 9 7.5829 -0.0838 
9 -1 10 -0.7086 -0.2599 
9 -1 11 -0.9196 0.0241 
9 -1 12 0.4381 -0.0299 
9 -1 13 -3.4220 0.1285 
9 -1 14 2.4340 0.1744 
9 -1 15 4.3408 -0.0236 
9 -1 16 -4.3209 -0.0365 
9 -1 17 -1.6091 -0.0487 
9 -1 18 3.1866 -0.1265 
9 -1 19 -2.3548 0.0111 
9 -1 20 0.5190 -0.2224 
9 -1 21 -0.4855 -0.0726 
9 -1 22 -3.2290 -0.0118 
9 0 0 4.5635 0.5502 
9 0 1 6.5612 -0.6015 
9 0 2 -3.0357 -0.5088 
9 0 3 -4.1669 0.1344 
9 0 4 -0.7049 0.2954 
9 0 5 4.8634 0.4033 
9 0 6 -7.2601 -0.3975 
9 0 7 -4.7290 0.0544 
9 0 8 6.7232 -0.0826 
9 0 9 -0.9163 -0.1020 
9 0 10 -2.6905 0.1014 
9 0 11 1.4895 -0.0631 
9 0 12 -0.3166 0.2015 
9 0 13 0.6906 0.0475 
9 0 14 5.3495 -0.0568 
9 0 15 0.4099 -0.1027 
9 0 16 -0.8642 -0.1398 
9 0 17 -1.9998 0.0453 
9 0 18 -0.8868 0.0015 
9 0 19 2.1540 0.1334 
9 0 20 2.7611 0.0994 
9 0 21 -2.3782 -0.0474 
9 0 22 -1.0038 0.2203 
9 1 0 -4.0635 -0.3085 
9 1 1 6.1928 0.5805 
9 1 2 6.7128 -0.5566 
9 1 3 -2.3645 0.4567 
9 1 4 0.3337 0.1845 
9 1 5 -0.7579 -0.0467 
9 1 6 -1.2264 -0.3608 
9 1 7 1.3766 -0.3068 
9 1 8 6.3195 0.3220 
9 1 9 -3.1526 -0.0987 
9 1 10 -5.0826 0.2576 
9 1 11 -0.2333 0.0061 
9 1 12 0.9916 -0.0127 
9 1 13 -2.3958 -0.0353 
9 1 14 -1.5545 -0.1615 
9 1 15 2.6149 -0.0959 
9 1 16 -4.7052 -0.0540 
9 1 17 -1.9097 0.1151 
9 1 18 3.7177 0.2860 
9 1 19 2.7681 -0.1803 
9 1 20 -5.5624 0.1352 
9 1 21 -2.7248 0.1179 
9 1 22 -0.3493 0.0211 
9 1 23 -2.7938 0.1751 
9 2 0 2.0156 -0.2038 
9 2 1 -2.1968 0.8458 
9 2 2 -1.2548 -0.0295 
9 2 3 -1.7435 -0.2939 
9 2 4 -1.5166 0.0799 
9 2 5 4.0854 -0.1517 
9 2 6 -2.5612 0.0399 
9 2 7 1.1489 -0.2451 
9 2 8 1.0867 0.2231 
9 2 9 -4.7722 0.1001 
9 2 10 -1.7353 -0.1040 
9 2 11 4.9575 -0.0516 
9 2 12 -1.2986 -0.2461 
9 2 13 -1.3427 0.1117 
9 2 14 5.8846 0.0559 
9 2 15 2.2575 0.0089 
9 2 16 0.7821 0.0649 
9 2 17 -0.7740 0.0231 
9 2 18 1.2046 0.1531 
9 2 19 4.6927 0.0602 
9 2 20 0.1631 -0.2066 
9 2 21 4.6730 -0.1114 
9 2 22 2.0725 0.1027 
9 2 23 4.8483 0.1644 
9 3 0 2.9368 0.7267 
9 3 1 -3.3925 -0.0993 
9 3 2 -4.2257 0.1892 
9 3 3 -2.2723 -0.8920 
9 3 4 9.3138 0.1257 
9 3 5 0.1665 0.2702 
9 3 6 4.1193 0.0019 
9 3 7 6.0075 0.0242 
9 3 8 -0.9142 -0.1367 
9 3 9 -7.2195 0.2506 
9 3 10 -2.5530 -0.2480 
9 3 11 3.2191 -0.0962 
9 3 12 4.0672 -0.0911 
9 3 13 -1.9025 0.0757 
9 3 14 1.9988 0.1013 
9 3 15 3.9011 0.0539 
9 3 16 1.3886 0.0757 
9 3 17 0.2558 -0.0071 
9 3 18 1.8800 0.0033 
9 3 19 -1.6068 -0.0032 
9 3 20 -8.9680 -0.1156 
9 3 21 -1.4656 0.0461 
9 3 22 -0.3747 0.0076 
9 3 23 4.7080 -0.1602 
9 3 24 -0.0701 -0.3449 
9 4 0 3.2102 -0.3650 
9 4 1 -5.8928 -0.1477 
9 4 2 -4.6991 0.2104 
9 4 3 0.5201 -0.2187 
9 4 4 -2.0076 -0.1661 
9 4 5 -0.1917 0.4097 
9 4 6 -4.3655 -0.0802 
9 4 7 0.3067 -0.1602 
9 4 8 3.0800 -0.1757 
9 4 9 -1.1392 0.1357 
9 4 10 1.2906 0.1247 
9 4 11 6.0971 -0.0451 
9 4 12 4.2196 0.0263 
9 4 13 -1.3955 -0.0900 
9 4 14 1.3469 0.0617 
9 4 15 4.8130 0.0038 
9 4 16 -0.9360 0.0009 
9 4 17 -4.6963 -0.0218 
9 4 18 2.7321 0.1444 
9 4 19 -3.3045 -0.0900 
9 4 20 0.2751 0.0470 
9 4 21 2.8251 -0.1082 
9 4 22 8.3119 0.0030 
9 4 23 -6.0871 -0.0071 
9 4 24 -1.7053 0.0659 
9 5 0 -0.0060 -1.4045 
9 5 1 -3.1766 0.6920 
9 5 2 -5.5357 0.1667 
9 5 3 5.2868 0.4838 
9 5 4 7.9294 -0.3980 
9 5 5 -0.9100 -0.0478 
9 5 6 -5.2538 0.1946 
9 5 7 -1.3277 -0.2726 
9 5 8 1.1389 -0.0052 
9 5 9 1.2211 -0.0218 
9 5 10 -2.8968 0.2322 
9 5 11 5.3801 0.0449 
9 5 12 -4.0991 0.0249 
9 5 13 -5.7424 -0.0500 
9 5 14 -1.7663 -0.0498 
9 5 15 2.1709 0.0217 
9 5 16 -8.7350 -0.0344 
9 5 17 -2.6289 -0.0992 
9 5 18 -0.3397 0.0785 
9 5 19 -0.7196 -0.0449 
9 5 20 1.5362 -0.0164 
9 5 21 -1.3734 0.1355 
9 5 22 -6.2999 0.0717 
9 5 23 -8.5680 0.2487 
9 6 0 -6.4757 -0.6558 
9 6 1 1.8920 0.1514 
9 6 2 3.2607 0.5968 
9 6 3 2.6213 0.0208 
9 6 4 2.1824 -0.3501 
9 6 5 0.7264 -0.3576 
9 6 6 -5.4938 0.4880 
9 6 7 -4.1136 0.1296 
9 6 8 5.5621 -0.1322 
9 6 9 1.4182 -0.0776 
9 6 10 0.2955 -0.0642 
9 6 11 1.4082 0.0346 
9 6 12 -0.7643 -0.0930 
9 6 13 1.1106 0.0272 
9 6 14 3.0808 0.1317 
9 6 15 2.1445 0.0156 
9 6 16 -0.2198 0.1116 
9 6 17 2.7022 -0.0457 
9 6 18 0.6066 -0.0435 
9 6 19 3.4425 0.0664 
9 6 20 -0.0942 -0.1571 
9 6 21 6.5787 -0.1532 
9 6 22 5.0612 -0.1013 
9 7 0 0.0050 0.9621 
9 7 1 4.8434 -0.9346 
9 7 2 -3.0766 0.5053 
9 7 3 -1.4607 -0.2492 
9 7 4 0.4726 -0.0863 
9 7 5 1.7279 -0.1556 
9 7 6 -1.6329 0.1902 
9 7 7 -3.1127 0.4076 
9 7 8 3.2311 -0.2100 
9 7 9 -0.4797 -0.0072 
9 7 10 -1.2050 -0.1644 
9 7 11 -5.9422 0.1040 
9 7 12 -1.2384 0.0422 
9 7 13 -3.3514 -0.0644 
9 7 14 2.9633 0.0198 
9 7 15 -5.3702 0.0090 
9 7 16 -2.4855 0.0633 
9 7 17 -4.0865 -0.1029 
9 7 18 2.2754 -0.0418 
9 7 19 0.3261 0.0754 
9 7 20 -1.7489 0.0370 
9 7 21 0.9958 0.0346 
9 7 22 -2.5337 -0.0235 
9 7 23 -5.9974 -0.0518 
9 7 24 1.6952 -0.1378 
9 8 0 0.3897 0.2787 
9 8 1 4.6956 -0.7828 
9 8 2 2.2119 -0.1460 
9 8 3 -10.0310 0.5324 
9 8 4 -5.0307 0.0648 
9 8 5 -0.5285 -0.0664 
9 8 6 -0.9922 -0.1492 
9 8 7 4.0489 0.2337 
9 8 8 1.1173 -0.1295 
9 8 9 -3.3045 -0.1465 
9 8 10 -3.3363 0.0906 
9 8 11 -1.1278 0.0758 
9 8 12 -1.8428 0.1222 
9 8 13 2.8357 -0.0719 
9 8 14 -3.6831 -0.0861 
9 8 15 -2.3500 -0.0288 
9 8 16 0.2528 0.0386 
9 8 17 0.5914 -0.1014 
9 8 18 5.3940 -0.1481 
9 8 19 5.7888 0.0926 
9 8 20 -0.8794 0.1727 
9 8 21 3.4949 0.1294 
9 8 22 -0.9381 0.0140 
9 8 23 0.9013 0.2061 
9 9 0 -0.6227 -0.4288 
9 9 1 4.2056 0.1637 
9 9 2 0.5962 -0.7741 
9 9 3 -2.4440 0.8369 
9 9 4 6.1463 0.2252 
9 9 5 1.9764 -0.2083 
9 9 6 2.9406 -0.2478 
9 9 7 -0.1821 -0.0258 
9 9 8 -2.5434 0.2300 
9 9 9 -1.3540 -0.3482 
9 9 10 -3.7450 -0.0338 
9 9 11 1.0969 0.0299 
9 9 12 2.4684 0.1336 
9 9 13 -1.0676 0.0511 
9 9 14 3.7603 -0.1214 
9 9 15 3.8138 -0.0875 
9 9 16 -1.1733 0.0656 
9 9 17 2.5196 0.1267 
9 9 18 3.0432 -0.1530 
9 9 19 -1.6226 -0.0162 
9 9 20 1.1059 0.0002 
9 9 21 0.4574 0.1794 
9 9 22 0.2259 -0.2830 
9 9 23 -1.6393 -0.3506 
9 10 0 -2.3447 0.3010 
9 10 1 2.6630 0.1358 
9 10 2 1.3113 -0.3171 
9 10 3 0.6940 0.0867 
9 10 4 -0.0195 0.1991 
9 10 5 1.4028 -0.2107 
9 10 6 0.4951 -0.2214 
9 10 7 1.0178 0.0471 
9 10 8 0.1209 0.3445 
9 10 9 -3.0959 -0.0182 
9 10 10 2.5311 -0.0934 
9 10 11 6.2648 -0.1057 
9 10 12 0.8354 0.0158 
9 10 13 -4.2497 0.0804 
9 10 14 -1.4034 -0.0363 
9 10 15 -4.5505 -0.0093 
9 10 16 -3.1189 -0.0255 
9 10 17 -0.9832 0.3239 
9 10 18 -1.5897 0.0113 
9 10 19 -3.9289 -0.0613 
9 10 20 -4.8265 -0.1764 
9 10 21 -0.2769 0.0486 
9 10 22 -4.7065 -0.2295 
9 11 0 -1.4559 1.2922 
9 11 1 1.4019 -0.2225 
9 11 2 -0.7063 0.0371 
9 11 3 -0.2615 -0.5150 
9 11 4 -4.4368 0.3879 
9 11 5 -1.8721 0.0890 
9 11 6 -1.5116 -0.3113 
9 11 7 -3.5101 -0.0568 
9 11 8 2.8960 0.1726 
9 11 9 2.4794 0.3273 
9 11 10 -2.6514 -0.0350 
9 11 11 2.0385 -0.1301 
9 11 12 -5.7684 -0.0015 
9 11 13 -2.7738 -0.0092 
9 11 14 6.2494 0.0074 
9 11 15 2.4349 -0.1464 
9 11 16 -1.3234 -0.1741 
9 11 17 5.3641 0.2426 
9 11 18 1.0997 0.1711 
9 11 19 -0.5092 0.0138 
9 11 20 4.3409 -0.0839 
9 11 21 3.9045 0.2643 
9 12 0 -0.6589 -0.0361 
9 12 1 1.1299 0.1253 
9 12 2 1.5202 -0.2204 
9 12 3 -3.2660 -0.1802 
9 12 4 -1.4157 0.4452 
9 12 5 4.4648 0.2710 
9 12 6 0.9059 -0.1710 
9 12 7 -1.2620 -0.3497 
9 12 8 4.9254 -0.0568 
9 12 9 -1.2618 0.1854 
9 12 10 2.9983 -0.0273 
9 12 11 3.4252 -0.0008 
9 12 12 -3.0366 -0.1592 
9 12 13 -0.3884 -0.0307 
9 12 14 6.4813 0.2303 
9 12 15 -3.0173 -0.0040 
9 12 16 -6.6251 -0.1222 
9 12 17 -1.5246 -0.0819 
9 12 18 0.2446 0.0960 
9 12 19 -9.2504 -0.0799 
9 12 20 1.1443 -0.3284 
9 13 0 -0.3594 -0.7141 
9 13 1 -0.0381 0.6875 
9 13 2 3.6941 -0.2682 
9 13 3 2.4224 -0.0018 
9 13 4 0.4872 -0.1025 
9 13 5 -2.0494 0.2950 
9 13 6 -7.9329 0.0333 
9 13 7 -5.7009 -0.3863 
9 13 8 -5.1962 0.1766 
9 13 9 0.6277 0.1112 
9 13 10 -0.0716 0.1055 
9 13 11 3.3925 -0.1030 
9 13 12 -3.0249 -0.3271 
9 13 13 -4.3525 -0.0576 
9 13 14 3.5518 0.0452 
9 13 15 -1.1382 0.0271 
9 13 16 0.9731 0.0079 
9 13 17 3.0660 0.0113 
9 13 18 0.0058 0.3873 
9 14 0 -3.6051 -0.7413 
9 14 1 1.0508 0.1420 
9 14 2 -3.4180 0.4698 
9 14 3 -4.9247 -0.0400 
9 14 4 3.1356 -0.2892 
9 14 5 7.4291 0.1560 
9 14 6 3.8353 -0.0875 
9 14 7 4.0205 -0.1819 
9 14 8 7.7993 -0.1897 
9 14 9 6.0610 0.0969 
9 14 10 1.4647 0.3249 
9 14 11 2.0021 0.0438 
9 14 12 -3.8442 -0.1006 
9 14 13 3.4007 -0.0540 
9 14 14 -0.4275 0.1689 
9 14 15 0.9079 0.0966 
9 14 16 1.7446 -0.6192 
9 15 0 -3.3172 -0.1978 
9 15 1 -3.2721 -0.1744 
9 15 2 -0.6789 0.5606 
9 15 3 -4.3391 -0.3255 
9 15 4 0.0552 -0.0167 
9 15 5 0.6359 -0.1240 
9 15 6 -0.3674 0.1011 
9 15 7 -4.0679 0.2180 
9 15 8 -5.9239 -0.2212 
9 15 9 -3.3226 0.0115 
9 15 10 1.2309 -0.0381 
9 15 11 -10.9613 -0.2454 
9 15 12 -0.1561 -0.3393 
9 15 13 2.7965 -0.1560 
9 16 4 -1.1556 0.0960 
9 16 5 0.2701 -0.1878 
9 16 6 5.6700 -0.0987 
10 -8 0 4.4965 -0.1023 
10 -8 1 -0.9002 0.3205 
10 -8 2 -2.8911 0.0658 
10 -8 3 -2.8748 -0.1604 
10 -8 4 1.0302 -0.0806 
10 -8 5 1.1195 -0.2007 
10 -8 6 5.1847 0.1972 
10 -7 0 1.4822 0.2828 
10 -7 1 -1.6870 -0.1066 
10 -7 2 -0.6187 0.0705 
10 -7 3 1.5767 -0.0904 
10 -7 4 -1.8965 0.0337 
10 -7 5 0.7703 -0.0376 
10 -7 6 -1.0210 0.1890 
10 -7 7 -6.3828 0.1421 
10 -7 8 3.1113 -0.0675 
10 -7 9 6.9263 0.0157 
10 -7 10 -0.6084 -0.3701 
10 -6 0 3.9755 0.0769 
10 -6 1 -2.7227 -0.4260 
10 -6 2 0.9121 0.0575 
10 -6 3 3.5715 0.1341 
10 -6 4 2.6619 0.1724 
10 -6 5 2.5828 0.2667 
10 -6 6 -0.0880 -0.1513 
10 -6 7 3.3326 -0.0120 
10 -6 8 1.7081 -0.2113 
10 -6 9 0.3299 -0.1127 
10 -6 10 -6.3723 0.1333 
10 -6 11 1.2166 0.1190 
10 -6 12 1.0886 0.0543 
10 -5 0 -6.0670 -0.1672 
10 -5 1 -11.0725 -0.0130 
10 -5 2 3.2941 -0.0452 
10 -5 3 0.3836 0.3304 
10 -5 4 -2.1093 0.0421 
10 -5 5 1.1919 -0.1576 
10 -5 6 -5.6709 -0.1330 
10 -5 7 -3.7205 -0.0103 
10 -5 8 -5.5982 0.1534 
10 -5 9 -5.2870 -0.0568 
10 -5 10 0.1452 0.2148 
10 -5 11 6.8926 -0.1185 
10 -5 12 1.5650 -0.0095 
10 -5 13 -4.1892 0.0652 
10 -5 14 -1.0092 -0.1265 
10 -4 0 -1.1839 0.1751 
10 -4 1 2.9582 0.2080 
10 -4 2 8.7180 -0.1510 
10 -4 3 -4.2963 -0.1253 
10 -4 4 -0.3769 0.0367 
10 -4 5 -2.2567 -0.1848 
10 -4 6 2.7779 0.0403 
10 -4 7 1.6823 0.0976 
10 -4 8 0.4964 0.1810 
10 -4 9 -0.6265 -0.0103 
10 -4 10 1.7456 -0.0427 
10 -4 11 -2.0233 -0.0171 
10 -4 12 -1.6913 -0.1934 
10 -4 13 -5.6979 0.0840 
10 -4 14 -2.0996 0.0113 
10 -4 15 1.7512 0.1690 
10 -4 16 -1.9284 0.1252 
10 -3 0 -7.6244 0.6763 
10 -3 1 -3.6780 -0.2138 
10 -3 2 1.7852 -0.2889 
10 -3 3 -3.0286 -0.3054 
10 -3 4 3.4026 0.1814 
10 -3 5 3.9922 0.1603 
10 -3 6 0.0983 -0.0471 
10 -3 7 0.7931 0.2533 
10 -3 8 3.7452 -0.1312 
10 -3 9 -3.4607 0.0486 
10 -3 10 -3.0233 -0.0278 
10 -3 11 1.6147 -0.0014 
10 -3 12 -5.7796 0.0275 
10 -3 13 0.2489 0.1978 
10 -3 14 5.2153 -0.0707 
10 -3 15 1.4684 -0.0049 
10 -3 16 -1.1778 -0.2346 
10 -3 17 0.5907 -0.0764 
10 -3 18 2.8396 -0.0594 
10 -2 0 -4.2353 0.0665 
10 -2 1 0.3089 -0.1247 
10 -2 2 -3.3608 -0.1632 
10 -2 3 4.6023 0.1079 
10 -2 4 -3.4534 0.1552 
10 -2 5 5.9870 0.3233 
10 -2 6 -5.2051 -0.3947 
10 -2 7 -3.4682 -0.1672 
10 -2 8 -5.7214 -0.0657 
10 -2 9 5.1269 0.0231 
10 -2 10 1.1784 0.2245 
10 -2 11 -0.0002 -0.0748 
10 -2 12 5.9679 0.1807 
10 -2 13 -2.3197 -0.0935 
10 -2 14 -6.3565 0.0168 
10 -2 15 -1.1553 -0.0375 
10 -2 16 -1.6013 -0.1906 
10 -2 17 -2.9202 -0.0152 
10 -2 18 1.6997 0.0904 
10 -2 19 -6.8689 0.0644 
10 -1 1 5.8656 0.5388 
10 -1 2 10.2832 -0.0432 
10 -1 3 1.0579 0.2284 
10 -1 4 -3.9055 -0.0976 
10 -1 5 9.5048 -0.0320 
10 -1 6 2.8138 -0.0962 
10 -1 7 -7.3925 -0.3583 
10 -1 8 2.5638 0.2251 
10 -1 9 2.3800 -0.0432 
10 -1 10 2.6033 0.2080 
10 -1 11 4.9007 -0.1280 
10 -1 12 2.8339 -0.0523 
10 -1 13 -5.3471 -0.0533 
10 -1 14 2.5201 -0.0341 
10 -1 15 0.9822 0.1088 
10 -1 16 -1.3080 0.0688 
10 -1 17 2.2388 -0.0116 
10 -1 18 1.2251 0.1365 
10 -1 19 -0.8290 -0.1808 
10 -1 20 -2.3155 -0.1066 
10 0 0 3.1616 -0.3467 
10 0 1 4.2205 0.6122 
10 0 2 0.2675 0.1753 
10 0 3 -8.9943 -0.4110 
10 0 4 -1.5764 -0.2509 
10 0 5 2.1472 -0.1865 
10 0 6 0.7231 0.3360 
10 0 7 -4.5391 -0.0379 
10 0 8 4.6892 0.0864 
10 0 9 4.1200 0.1048 
10 0 10 -2.0080 -0.1529 
10 0 11 1.6103 0.0143 
10 0 12 -1.5806 -0.2943 
10 0 13 1.9004 0.1453 
10 0 14 2.2228 0.0027 
10 0 15 6.8980 0.1504 
10 0 16 -1.5055 0.0444 
10 0 17 -2.6421 -0.0359 
10 0 18 -0.5371 0.1366 
10 0 19 1.8835 -0.1760 
10 0 20 1.7460 -0.2544 
10 0 21 0.4446 -0.0679 
10 1 0 8.1762 0.3521 
10 1 1 -1.6340 -0.1831 
10 1 2 6.5213 0.3316 
10 1 3 3.1150 -0.5068 
10 1 4 -0.4848 -0.1513 
10 1 5 -2.8410 0.1653 
10 1 6 -1.8334 0.3238 
10 1 7 -2.2154 0.1796 
10 1 8 5.1680 -0.2978 
10 1 9 -1.4800 0.1043 
10 1 10 -0.7751 -0.2242 
10 1 11 1.7748 -0.0027 
10 1 12 0.1669 -0.0267 
10 1 13 -5.2339 0.0170 
10 1 14 -2.5139 0.1096 
10 1 15 -2.0330 -0.0662 
10 1 16 1.9841 0.0245 
10 1 17 -1.7579 -0.1107 
10 1 18 -1.3061 -0.0165 
10 1 19 1.7942 0.2777 
10 1 20 -1.1589 0.0345 
10 1 21 -2.6918 0.2775 
10 2 0 -4.6690 -0.2404 
10 2 1 -1.5750 -0.4976 
10 2 2 -2.4332 0.3083 
10 2 3 -2.3484 0.3086 
10 2 4 0.8383 -0.1510 
10 2 5 -0.2811 0.1469 
10 2 6 -1.8580 0.0235 
10 2 7 1.6492 -0.0233 
10 2 8 0.5172 -0.2840 
10 2 9 -0.7126 -0.0900 
10 2 10 -2.8731 0.1604 
10 2 11 -1.5723 -0.0775 
10 2 12 2.0912 0.1739 
10 2 13 0.0260 -0.1052 
10 2 14 1.1080 0.0140 
10 2 15 7.5492 -0.0307 
10 2 16 -2.3625 -0.0225 
10 2 17 -3.1464 -0.0744 
10 2 18 -1.2603 0.0003 
10 2 19 6.9841 0.1528 
10 2 20 -0.3926 0.2666 
10 2 21 0.9651 0.2565 
10 2 22 -1.2493 0.1626 
10 3 0 2.5222 -0.7260 
10 3 1 -0.9123 0.0781 
10 3 2 -1.7499 0.0049 
10 3 3 2.3496 0.6234 
10 3 4 -1.2021 -0.1614 
10 3 5 2.3374 -0.3621 
10 3 6 0.2893 0.0462 
10 3 7 0.8774 -0.1373 
10 3 8 -0.5793 0.0704 
10 3 9 -0.7921 -0.1377 
10 3 10 -0.0236 0.1082 
10 3 11 1.4458 0.0834 
10 3 12 2.4725 0.0854 
10 3 13 -0.2442 -0.0609 
10 3 14 0.4813 -0.0836 
10 3 15 0.5837 0.1086 
10 3 16 6.4765 0.1820 
10 3 17 0.6119 -0.0501 
10 3 18 3.8830 0.0049 
10 3 19 0.5542 0.0471 
10 3 20 -3.7786 0.0213 
10 3 21 -5.4301 -0.0889 
10 3 22 3.3058 -0.3243 
10 4 0 4.2813 0.0855 
10 4 1 6.5263 -0.0622 
10 4 2 -0.5021 -0.0484 
10 4 3 -4.8975 -0.0299 
10 4 4 -2.6188 -0.0661 
10 4 5 -2.6182 -0.3915 
10 4 6 1.4030 0.2135 
10 4 7 5.9166 0.2048 
10 4 8 3.6439 0.0750 
10 4 9 3.6946 0.0196 
10 4 10 -7.3358 -0.2246 
10 4 11 -4.1022 0.1111 
10 4 12 3.5904 -0.0408 
10 4 13 0.3490 0.1241 
10 4 14 -2.9146 -0.0625 
10 4 15 2.5680 -0.0261 
10 4 16 -1.0309 0.0786 
10 4 17 -1.2564 0.0274 
10 4 18 -0.0168 0.0836 
10 4 19 -3.8717 -0.0626 
10 4 20 -3.4547 -0.1049 
10 4 21 1.6950 -0.0174 
10 4 22 0.7530 -0.2897 
10 5 0 4.0913 1.2484 
10 5 1 -4.0370 -0.7870 
10 5 2 -9.4947 -0.1028 
10 5 3 -4.6783 -0.2481 
10 5 4 -0.2189 0.2995 
10 5 5 5.9377 0.0185 
10 5 6 1.6991 -0.1282 
10 5 7 -4.2568 0.3609 
10 5 8 0.4417 -0.0520 
10 5 9 0.7853 0.0396 
10 5 10 -3.7749 -0.1937 
10 5 11 4.1533 0.0544 
10 5 12 2.1839 0.0356 
10 5 13 1.0490 -0.0234 
10 5 14 -3.9008 0.0446 
10 5 15 2.9764 -0.0954 
10 5 16 1.6145 0.0730 
10 5 17 -1.2311 0.1005 
10 5 18 -0.3387 0.0071 
10 5 19 -3.7537 -0.0001 
10 5 20 1.4139 0.0665 
10 5 21 0.5806 -0.1103 
10 5 22 -2.0516 -0.1724 
10 6 0 -2.2242 0.2904 
10 6 1 3.4757 -0.4129 
10 6 2 2.0592 -0.3469 
10 6 3 -1.1833 0.3912 
10 6 4 4.2449 0.4234 
10 6 5 -1.7791 0.2075 
10 6 6 1.0163 -0.4635 
10 6 7 -6.1838 -0.0505 
10 6 8 -0.0061 0.0342 
10 6 9 -1.3902 -0.0739 
10 6 10 0.5233 0.1271 
10 6 11 -3.7617 -0.0339 
10 6 12 3.7527 0.1922 
10 6 13 -4.8813 -0.0885 
10 6 14 -0.9495 -0.0491 
10 6 15 -2.3411 -0.0961 
10 6 16 1.5732 0.0021 
10 6 17 1.1379 -0.0699 
10 6 18 -0.3797 -0.0538 
10 6 19 -0.6558 0.0097 
10 6 20 -0.3982 0.1237 
10 6 21 4.1919 0.1811 
10 6 22 7.2053 0.1362 
10 7 0 -3.1151 -0.5735 
10 7 1 -3.5065 0.6749 
10 7 2 -2.3683 -0.5937 
10 7 3 -0.4842 0.3583 
10 7 4 2.6038 0.1635 
10 7 5 6.1250 0.0472 
10 7 6 -2.3652 -0.3218 
10 7 7 -4.8257 -0.3077 
10 7 8 -3.7780 0.3313 
10 7 9 0.9770 -0.0545 
10 7 10 -0.1265 0.0711 
10 7 11 2.5372 -0.1077 
10 7 12 -5.4385 0.0065 
10 7 13 -2.0277 0.0686 
10 7 14 -2.0948 -0.0557 
10 7 15 1.0188 -0.0519 
10 7 16 -2.3428 0.0861 
10 7 17 -2.4761 0.1134 
10 7 18 0.4605 -0.1855 
10 7 19 4.5370 -0.1698 
10 7 20 -1.2298 -0.1049 
10 7 21 5.8670 0.2122 
10 7 22 3.6176 -0.2832 
10 8 0 -0.2990 -0.0155 
10 8 1 1.9763 0.6041 
10 8 2 2.8126 -0.0534 
10 8 3 -3.5253 -0.4886 
10 8 4 -1.5529 -0.0685 
10 8 5 -2.2857 0.0302 
10 8 6 2.2456 0.0078 
10 8 7 -0.2254 -0.1197 
10 8 8 1.6726 0.2347 
10 8 9 3.3190 0.0951 
10 8 10 0.6634 -0.0738 
10 8 11 -2.1573 -0.1103 
10 8 12 0.4201 -0.2196 
10 8 13 0.1875 0.1571 
10 8 14 2.1470 0.1020 
10 8 15 0.2214 -0.0644 
10 8 16 -2.1077 -0.1201 
10 8 17 -3.5611 0.2563 
10 8 18 1.4359 0.1119 
10 8 19 3.6162 -0.0017 
10 8 20 0.6847 -0.1168 
10 8 21 2.6342 0.1229 
10 8 22 -3.1955 0.0070 
10 9 0 2.2401 0.7645 
10 9 1 7.3356 -0.0190 
10 9 2 0.9055 0.4258 
10 9 3 1.0388 -0.7475 
10 9 4 -2.4011 0.0255 
10 9 5 2.6631 0.2643 
10 9 6 -5.2087 0.0557 
10 9 7 1.6934 -0.0601 
10 9 8 1.7425 -0.1227 
10 9 9 1.5744 0.1274 
10 9 10 -0.6028 0.0256 
10 9 11 -1.6327 -0.0068 
10 9 12 2.7790 -0.1906 
10 9 13 -0.4484 0.0334 
10 9 14 1.3773 0.0828 
10 9 15 1.0020 -0.0375 
10 9 16 3.4030 -0.1567 
10 9 17 1.3148 -0.0196 
10 9 18 3.3390 0.1237 
10 9 19 1.3024 0.0182 
10 9 20 -3.7103 -0.0383 
10 9 21 0.5389 0.2801 
10 10 0 -2.2582 -0.4225 
10 10 1 -1.4183 -0.0000 
10 10 2 0.3996 0.1622 
10 10 3 2.0543 -0.0434 
10 10 4 6.2252 -0.0924 
10 10 5 -2.0787 0.3095 
10 10 6 2.2728 0.0938 
10 10 7 -1.4762 -0.1923 
10 10 8 0.2656 -0.2674 
10 10 9 -2.1616 -0.0065 
10 10 10 -8.1180 0.1292 
10 10 11 -0.2888 0.0160 
10 10 12 -0.3246 -0.0937 
10 10 13 -3.7571 0.0794 
10 10 14 2.5324 0.1718 
10 10 15 -0.9746 0.0573 
10 10 16 -6.0031 -0.1440 
10 10 17 -2.2645 -0.1813 
10 10 18 -3.4196 0.0074 
10 10 19 -6.5282 0.0776 
10 10 20 -2.8625 -0.2344 
10 11 0 3.0295 -1.0235 
10 11 1 -1.2259 0.4406 
10 11 2 -2.5700 0.0131 
10 11 3 2.0554 0.3090 
10 11 4 -5.3260 -0.3596 
10 11 5 -2.9883 0.0286 
10 11 6 3.8072 0.2783 
10 11 7 -0.9501 -0.1706 
10 11 8 5.1441 -0.1018 
10 11 9 0.7589 -0.0612 
10 11 10 -3.0380 0.1507 
10 11 11 2.0103 0.0524 
10 11 12 0.7003 -0.1226 
10 11 13 2.2458 -0.0658 
10 11 14 2.5766 0.0490 
10 11 15 1.7913 0.1925 
10 11 16 -1.3208 0.1588 
10 11 17 2.8600 -0.0533 
10 11 18 4.8491 -0.0605 
10 11 19 -1.0736 0.3429 
10 12 0 -4.1557 -0.2240 
10 12 1 -4.3158 -0.0883 
10 12 2 -1.0939 0.3845 
10 12 3 1.9940 0.0678 
10 12 4 -1.4475 -0.2340 
10 12 5 0.7634 -0.0591 
10 12 6 -1.5033 0.2581 
10 12 7 1.0927 0.1284 
10 12 8 -0.2101 -0.0680 
10 12 9 4.8305 -0.0285 
10 12 10 -0.6786 0.2291 
10 12 11 4.6759 0.2207 
10 12 12 0.1495 -0.0311 
10 12 13 -3.4087 -0.2911 
10 12 14 4.0659 -0.1444 
10 12 15 -2.1789 -0.0269 
10 12 16 -4.3544 0.0887 
10 12 17 0.8786 -0.1889 
10 12 18 0.7550 -0.2091 
10 13 0 -1.2160 0.4854 
10 13 1 -0.7470 -0.6768 
10 13 2 3.9283 0.2550 
10 13 3 2.3620 -0.0939 
10 13 4 1.6370 0.1514 
10 13 5 -1.2535 0.0581 
10 13 6 -3.3747 0.1837 
10 13 7 -8.1905 0.1369 
10 13 8 -3.3677 -0.3614 
10 13 9 -5.8015 -0.1779 
10 13 10 2.4642 -0.0687 
10 13 11 4.5116 0.1537 
10 13 12 2.2322 0.1744 
10 13 13 -0.8620 -0.0052 
10 13 14 1.4134 -0.2533 
10 13 15 0.0226 0.1108 
10 13 16 -4.5349 0.4338 
10 14 0 2.2337 -0.2462 
10 14 1 1.1924 -0.3967 
10 14 2 -3.5216 -0.1748 
10 14 3 -4.3266 -0.0391 
10 14 4 2.2400 0.1717 
10 14 5 2.7304 -0.1332 
10 14 6 6.0843 0.0132 
10 14 7 4.4915 0.1701 
10 14 8 0.3448 0.0669 
10 14 9 6.9125 -0.1430 
10 14 10 4.6613 -0.1321 
10 14 11 -0.2099 0.1323 
10 14 12 0.2898 -0.0823 
10 14 13 -4.2201 -0.3577 
10 14 14 -3.5242 -0.5264 
10 15 1 1.3015 -0.7176 
10 15 2 0.6687 -0.3721 
10 15 3 -2.9582 0.3027 
10 15 4 -0.6617 0.0627 
10 15 5 0.3707 -0.0415 
10 15 6 -3.0379 -0.2215 
10 15 7 -1.3435 -0.2621 
10 15 8 -6.0347 -0.2138 
10 15 9 -1.0197 -0.4064 
11 -7 0 -2.0645 -0.1588 
11 -7 1 1.8312 0.0124 
11 -6 0 10.5746 -0.1197 
11 -6 1 -4.2355 0.2996 
11 -6 2 6.1724 0.0782 
11 -6 3 1.4938 -0.2739 
11 -6 4 1.1638 -0.0825 
11 -6 5 0.6077 -0.0413 
11 -6 6 -5.1065 0.0905 
11 -6 7 -3.0726 0.0812 
11 -6 8 3.2699 0.1299 
11 -5 0 5.5078 0.2330 
11 -5 1 -8.0291 0.0137 
11 -5 2 -7.7336 0.0155 
11 -5 3 -2.5565 -0.3242 
11 -5 4 0.2926 0.0384 
11 -5 5 -0.7863 0.1792 
11 -5 6 2.9848 0.0075 
11 -5 7 -1.1258 0.1473 
11 -5 8 -6.5091 -0.1800 
11 -5 9 -8.0484 -0.0756 
11 -5 10 -1.0435 -0.1736 
11 -5 11 2.0372 0.0253 
11 -4 0 4.1408 -0.1726 
11 -4 1 -0.4328 -0.0954 
11 -4 2 8.6544 -0.0040 
11 -4 3 4.5478 0.2170 
11 -4 4 -4.9282 -0.1169 
11 -4 5 2.8820 0.2679 
11 -4 6 0.5263 -0.0630 
11 -4 7 0.9981 -0.1312 
11 -4 8 -0.0741 -0.0935 
11 -4 9 -0.0842 -0.0915 
11 -4 10 -0.1238 0.2585 
11 -4 11 2.6383 -0.0283 
11 -4 12 -3.8395 0.1726 
11 -4 13 -4.7604 -0.1215 
11 -3 0 -2.4110 -0.4455 
11 -3 1 -2.9674 0.3147 
11 -3 2 -8.7673 0.1088 
11 -3 3 1.2871 0.1472 
11 -3 4 -6.3403 -0.2616 
11 -3 5 2.4038 -0.1335 
11 -3 6 2.1945 0.0054 
11 -3 7 1.7654 -0.1904 
11 -3 8 -1.8697 0.2505 
11 -3 9 5.6150 -0.0288 
11 -3 10 1.5000 0.1617 
11 -3 11 -4.6369 -0.0283 
11 -3 12 0.3519 -0.0291 
11 -3 13 -0.9413 -0.1129 
11 -3 14 5.4296 -0.0654 
11 -3 15 4.4943 0.0784 
11 -2 0 -5.1275 -0.0695 
11 -2 1 -12.0594 0.2650 
11 -2 2 2.8041 0.0960 
11 -2 3 0.6157 -0.2618 
11 -2 4 2.7629 -0.2174 
11 -2 5 3.7163 -0.2220 
11 -2 6 5.7003 0.3088 
11 -2 7 -8.1661 -0.0010 
11 -2 8 4.0005 0.0776 
11 -2 9 4.1048 0.1293 
11 -2 10 1.1453 -0.1331 
11 -2 11 -2.8892 0.0449 
11 -2 12 -1.3517 -0.1685 
11 -2 13 -0.0250 0.0779 
11 -2 14 -2.6758 0.0102 
11 -2 15 -2.9499 0.0712 
11 -2 16 -3.1974 0.0281 
11 -1 0 -7.5543 0.3858 
11 -1 1 3.4785 -0.4328 
11 -1 2 4.4504 -0.0567 
11 -1 3 1.5366 -0.2756 
11 -1 4 3.0233 0.0888 
11 -1 5 8.7156 0.0957 
11 -1 6 7.1229 0.1570 
11 -1 7 -12.4413 0.1479 
11 -1 8 -8.4950 -0.2594 
11 -1 9 -1.4908 -0.0525 
11 -1 10 -0.6899 -0.1754 
11 -1 11 2.6271 0.1338 
11 -1 12 8.2340 0.1934 
11 -1 13 5.0563 0.0556 
11 -1 14 -2.1790 -0.0792 
11 -1 15 2.7381 -0.1067 
11 -1 16 -0.1978 -0.0962 
11 -1 17 -1.2426 0.0300 
11 0 0 5.9319 -0.0083 
11 0 2 -0.2871 -0.0032 
11 0 3 0.7870 0.3873 
11 0 4 -2.9734 0.1731 
11 0 5 0.1837 0.0374 
11 0 6 -4.8815 -0.1714 
11 0 7 -1.3041 -0.0118 
11 0 8 8.6701 -0.1830 
11 0 9 9.2614 -0.1131 
11 0 10 -2.3152 0.1121 
11 0 11 0.0740 -0.0609 
11 0 12 4.6838 0.2134 
11 0 13 -0.3570 -0.0277 
11 0 14 0.8039 0.0182 
11 0 15 -0.1554 -0.2456 
11 0 16 0.7949 0.0391 
11 0 17 0.7318 0.1430 
11 0 18 -0.4405 -0.0844 
11 1 0 3.4877 -0.2425 
11 1 1 -4.0856 0.1260 
11 1 2 -2.8976 -0.1314 
11 1 3 4.1402 0.4828 
11 1 4 4.5829 0.1114 
11 1 5 -4.3948 -0.2647 
11 1 6 -4.7402 -0.2048 
11 1 7 2.9324 -0.0669 
11 1 8 -0.5914 0.2430 
11 1 9 -0.2738 -0.0111 
11 1 10 -5.8012 0.0382 
11 1 11 0.4218 -0.0919 
11 1 12 2.9048 -0.0405 
11 1 13 -2.0790 -0.0876 
11 1 14 -11.3962 -0.0104 
11 1 15 -0.1304 0.1987 
11 1 16 6.2042 -0.0287 
11 1 17 -1.5620 0.0205 
11 1 18 -4.4087 0.2328 
11 1 19 1.1039 0.0098 
11 2 0 4.7401 0.2841 
11 2 1 -7.1593 0.2353 
11 2 2 1.4140 -0.1568 
11 2 3 3.3319 -0.2084 
11 2 4 -2.3589 0.1453 
11 2 5 -4.0729 -0.2072 
11 2 6 2.4594 -0.0279 
11 2 7 1.6453 0.1669 
11 2 8 3.7979 0.1955 
11 2 9 -0.7726 0.1863 
11 2 10 -2.6325 -0.2690 
11 2 11 0.7675 0.0081 
11 2 12 3.4828 -0.1860 
11 2 13 0.4863 0.1211 
11 2 14 0.9117 -0.0222 
11 2 15 5.0370 0.0164 
11 2 16 2.7591 0.2496 
11 2 17 -3.0544 0.1487 
11 2 18 -1.2703 -0.0252 
11 2 19 0.3180 0.0594 
11 2 20 0.9660 0.1001 
11 3 0 -4.9806 0.8594 
11 3 1 3.2473 -0.2273 
11 3 2 1.2428 -0.1157 
11 3 3 -0.8590 -0.3863 
11 3 4 -0.4013 0.2656 
11 3 5 0.0190 0.1596 
11 3 6 -0.3112 -0.1465 
11 3 7 -1.4462 0.1535 
11 3 8 -7.8093 -0.0989 
11 3 9 -4.1712 0.0056 
11 3 10 3.0626 -0.1656 
11 3 11 -3.1988 0.0506 
11 3 12 2.1228 0.1194 
11 3 13 -0.8240 0.0279 
11 3 14 -0.6109 0.1062 
11 3 15 3.0381 -0.1606 
11 3 16 -1.6845 -0.0408 
11 3 17 1.9684 0.0358 
11 3 18 2.2295 0.1945 
11 3 19 -0.0910 -0.0852 
11 3 20 1.1413 0.1275 
11 4 0 4.4535 -0.0500 
11 4 1 2.6666 -0.0006 
11 4 2 -5.5462 -0.1477 
11 4 3 3.9579 0.1054 
11 4 4 -4.8940 0.0921 
11 4 5 -3.8018 0.3005 
11 4 6 2.9815 -0.2475 
11 4 7 5.0066 -0.1746 
11 4 8 5.3954 -0.0153 
11 4 9 5.8977 -0.0523 
11 4 10 -0.6064 0.1300 
11 4 11 -0.9181 -0.0980 
11 4 12 -1.6310 0.1848 
11 4 13 -0.0811 0.0393 
11 4 14 -2.2086 0.1306 
11 4 15 -1.9163 -0.0007 
11 4 16 2.4920 -0.0996 
11 4 17 -0.3149 0.0647 
11 4 18 1.7949 0.0492 
11 4 19 -2.7856 -0.1727 
11 4 20 -2.5949 -0.1516 
11 5 0 1.9380 -0.6692 
11 5 1 -4.8156 0.6796 
11 5 2 4.3921 -0.0330 
11 5 3 -4.9317 0.1149 
11 5 4 2.3271 -0.2647 
11 5 5 -0.5355 0.0337 
11 5 6 -0.7695 0.0548 
11 5 7 -0.0851 -0.2536 
11 5 8 -3.2926 0.2191 
11 5 9 1.2863 -0.0156 
11 5 10 -1.5449 0.1328 
11 5 11 -3.9440 -0.0908 
11 5 12 4.6020 -0.1756 
11 5 13 0.1320 0.0390 
11 5 14 2.7737 0.0137 
11 5 15 0.7732 0.1084 
11 5 16 -1.4816 0.0707 
11 5 17 -1.5067 -0.0758 
11 5 18 1.0120 -0.0881 
11 5 19 -0.4043 0.0401 
11 5 20 1.2427 -0.1698 
11 5 21 0.5328 0.0062 
11 6 0 -0.6630 -0.2310 
11 6 1 1.6312 0.4610 
11 6 2 -4.8583 0.3149 
11 6 3 -3.4777 -0.4409 
11 6 4 -6.1937 -0.3477 
11 6 5 -3.2784 -0.0884 
11 6 6 0.5984 0.3159 
11 6 7 -3.3035 -0.0075 
11 6 8 0.0876 0.0627 
11 6 9 1.5941 0.0983 
11 6 10 -3.0428 0.0020 
11 6 11 2.4443 0.0291 
11 6 12 -2.7393 -0.2593 
11 6 13 -0.8049 -0.0247 
11 6 14 -6.4874 -0.1103 
11 6 15 -1.7033 0.0372 
11 6 16 -0.1610 0.0704 
11 6 17 1.3884 -0.0655 
11 6 18 4.8568 0.0806 
11 6 19 0.9890 -0.0116 
11 6 20 -3.0130 0.1113 
11 7 0 -1.7276 0.3250 
11 7 1 0.9035 -0.3278 
11 7 2 2.9240 0.4459 
11 7 3 2.4073 -0.4043 
11 7 4 9.3211 -0.1744 
11 7 5 1.9859 0.1445 
11 7 6 2.7609 0.2151 
11 7 7 -1.2600 0.0577 
11 7 8 -5.8605 -0.3186 
11 7 9 -0.2418 -0.0271 
11 7 10 2.0278 -0.0078 
11 7 11 1.0710 0.0813 
11 7 12 -1.2723 0.0880 
11 7 13 -8.8726 0.0499 
11 7 14 -2.0970 -0.0225 
11 7 15 3.7212 -0.0707 
11 7 16 -0.4403 -0.1269 
11 7 17 -2.3887 -0.0848 
11 7 18 1.4725 -0.0350 
11 7 19 5.0608 -0.0649 
11 7 20 -3.1864 0.0593 
11 8 0 -1.3479 -0.3955 
11 8 1 1.7225 -0.4849 
11 8 2 -3.1512 0.0898 
11 8 3 1.0838 0.3086 
11 8 4 -8.3289 -0.1433 
11 8 5 4.2971 0.0559 
11 8 6 2.2985 0.1098 
11 8 7 1.4024 -0.0340 
11 8 8 4.2299 -0.2718 
11 8 9 1.1985 -0.1679 
11 8 10 3.9077 0.0958 
11 8 11 -2.5874 0.0156 
11 8 12 -1.1069 0.0634 
11 8 13 1.1558 0.0527 
11 8 14 5.8019 0.0572 
11 8 15 2.9494 0.0173 
11 8 16 0.0840 -0.0229 
11 8 17 -3.7916 -0.0827 
11 8 18 -4.7014 0.0950 
11 8 19 4.8648 0.0472 
11 8 20 -0.1243 -0.4582 
11 9 0 4.5094 -0.6241 
11 9 1 4.2524 0.1552 
11 9 2 5.9282 -0.1139 
11 9 3 3.2365 0.5438 
11 9 4 3.8927 -0.2043 
11 9 5 -5.6617 -0.2510 
11 9 6 0.6510 0.0682 
11 9 7 -3.0434 0.0645 
11 9 8 -2.8786 0.1143 
11 9 9 0.7210 -0.0431 
11 9 10 -0.7430 0.1314 
11 9 11 2.3408 0.0914 
11 9 12 3.5131 -0.1287 
11 9 13 -0.2359 -0.1322 
11 9 14 1.6433 -0.0612 
11 9 15 0.2858 0.1436 
11 9 16 -1.6644 0.0921 
11 9 17 -1.0802 -0.1217 
11 9 18 0.2565 0.1214 
11 9 19 -1.2993 0.5830 
11 10 0 -2.2370 0.1516 
11 10 1 -1.0903 -0.0601 
11 10 2 -2.5122 0.0756 
11 10 3 3.6104 0.1748 
11 10 4 -1.8883 0.0817 
11 10 5 -5.7018 -0.3022 
11 10 6 0.7864 -0.0670 
11 10 7 -0.3826 0.0795 
11 10 8 -3.1781 0.0475 
11 10 9 -2.1430 -0.0156 
11 10 10 -1.6627 -0.0361 
11 10 11 -3.9802 0.1911 
11 10 12 -6.2033 0.0320 
11 10 13 -2.1468 -0.1522 
11 10 14 1.3572 -0.2149 
11 10 15 1.6194 -0.0547 
11 10 16 -3.1081 0.1707 
11 10 17 -0.6728 -0.1641 
11 10 18 2.8414 -0.2511 
11 11 0 0.6716 0.9573 
11 11 1 -1.4300 -0.5613 
11 11 2 -1.1290 -0.2052 
11 11 3 1.6666 -0.1996 
11 11 4 -3.8103 0.4406 
11 11 5 2.5597 0.1112 
11 11 6 7.3081 -0.0604 
11 11 7 5.9878 0.1827 
11 11 8 -2.0729 -0.1168 
11 11 9 4.0934 -0.1299 
11 11 10 -3.5368 -0.1453 
11 11 11 1.7698 0.0260 
11 11 12 -1.4032 0.1697 
11 11 13 -0.7956 0.1663 
11 11 14 7.7221 -0.0655 
11 11 15 -0.1794 -0.0158 
11 11 16 -0.9479 0.3099 
11 11 17 1.1602 -0.1323 
11 12 0 0.6938 0.1599 
11 12 1 -2.3076 -0.1030 
11 12 2 -2.3717 -0.4309 
11 12 3 -2.0589 0.0006 
11 12 4 -0.4449 0.4594 
11 12 5 -5.9202 0.0801 
11 12 6 -1.7360 -0.0853 
11 12 7 -5.5978 0.1640 
11 12 8 5.1876 0.1525 
11 12 9 2.5610 -0.0420 
11 12 10 5.4731 -0.0687 
11 12 11 1.6983 -0.1041 
11 12 12 2.4095 -0.0357 
11 12 13 -0.7099 0.1684 
11 12 14 -0.1960 -0.0837 
11 12 15 1.0599 -0.1205 
11 12 16 -4.9227 0.5533 
11 13 0 -2.7129 -0.0596 
11 13 1 0.9677 0.5193 
11 13 2 -2.8403 -0.2150 
11 13 3 -1.2942 0.1042 
11 13 4 8.6367 0.1747 
11 13 5 3.8052 0.0268 
11 13 6 -2.4746 -0.2383 
11 13 7 1.6097 -0.0564 
11 13 8 -7.6024 0.2488 
11 13 9 -0.9440 0.1623 
11 13 10 -0.1392 0.1156 
11 13 11 2.7978 -0.1189 
11 13 12 0.0746 0.0615 
11 13 13 -0.8286 0.2054 
11 14 0 4.4995 -0.1618 
11 14 1 3.5188 0.1349 
11 14 2 -0.7055 -0.0606 
11 14 3 -0.0532 -0.1996 
11 14 4 0.7403 -0.2975 
11 14 5 -0.1879 0.2064 
11 14 6 1.5324 -0.0199 
11 14 7 3.7124 0.0212 
11 14 8 -0.2678 -0.2556 
11 14 9 -3.1468 -0.4084 
11 14 10 0.3772 -0.3993 
12 -5 0 8.2423 -0.1699 
12 -5 1 1.5186 0.1368 
12 -5 2 3.1866 0.0413 
12 -5 3 3.1243 0.4201 
12 -4 0 8.3994 0.1453 
12 -4 1 5.9887 0.0024 
12 -4 2 3.0089 -0.0344 
12 -4 3 -0.8795 -0.0632 
12 -4 4 -2.9452 -0.0419 
12 -4 5 -5.7585 -0.1717 
12 -4 6 4.4189 0.2651 
12 -4 7 3.0324 -0.0207 
12 -4 8 -0.5933 0.0250 
12 -3 0 4.0753 0.2909 
12 -3 1 -8.9709 -0.3943 
12 -3 2 -1.6122 -0.1272 
12 -3 3 -3.1780 -0.0051 
12 -3 4 -3.3831 0.1825 
12 -3 5 -2.7843 0.0066 
12 -3 6 5.9033 -0.0554 
12 -3 7 -2.9394 0.0127 
12 -3 8 5.5197 0.0227 
12 -3 9 1.7133 -0.0161 
12 -3 10 -0.7451 -0.2100 
12 -3 11 1.8923 0.0846 
12 -2 0 -7.2696 -0.0457 
12 -2 1 2.9371 -0.3875 
12 -2 2 1.6295 -0.1425 
12 -2 3 5.2776 0.1796 
12 -2 4 -3.0899 0.2240 
12 -2 5 0.6465 0.1132 
12 -2 6 2.2249 -0.1926 
12 -2 7 -2.3186 -0.0338 
12 -2 8 0.7152 0.0162 
12 -2 9 2.3108 -0.1302 
12 -2 10 1.9076 0.2494 
12 -2 11 -2.5692 -0.0293 
12 -2 12 -1.5658 0.0927 
12 -2 13 -1.9961 -0.1761 
12 -1 0 4.9577 -0.1885 
12 -1 1 -1.4740 0.2640 
12 -1 2 -3.5764 0.0560 
12 -1 3 -2.4113 0.1572 
12 -1 4 0.0302 -0.0399 
12 -1 5 13.2581 -0.1899 
12 -1 6 7.4173 -0.1248 
12 -1 7 -1.7897 0.0473 
12 -1 8 -13.1940 0.2177 
12 -1 9 -2.9762 0.1561 
12 -1 10 -1.2406 0.0281 
12 -1 11 2.5181 -0.0404 
12 -1 12 5.2367 -0.1879 
12 -1 13 3.6777 0.0009 
12 -1 14 2.5754 -0.1460 
12 0 0 1.8955 0.1715 
12 0 1 -2.9497 0.4455 
12 0 2 -0.7068 0.0982 
12 0 3 -11.3976 -0.3049 
12 0 4 -0.5311 -0.0831 
12 0 5 -3.9876 -0.0998 
12 0 6 1.2457 0.0693 
12 0 7 0.0001 0.0716 
12 0 8 1.6286 0.0190 
12 0 9 9.1517 0.1804 
12 0 10 -0.2159 -0.1683 
12 0 11 -4.3257 -0.1055 
12 0 12 0.0222 -0.1212 
12 0 13 3.4538 0.1674 
12 0 14 -1.8815 0.0990 
12 0 15 -4.0369 0.1383 
12 1 0 0.7476 0.2619 
12 1 1 -8.3620 -0.0922 
12 1 2 -5.0695 0.0178 
12 1 4 9.4415 0.0744 
12 1 5 1.0254 0.3023 
12 1 6 2.9424 0.0067 
12 1 7 -6.3114 0.0410 
12 1 8 0.7636 -0.1506 
12 1 9 1.6859 -0.1117 
12 1 10 -1.9017 -0.0997 
12 1 11 -2.3350 0.0972 
12 1 12 5.3583 0.1305 
12 1 13 4.9760 -0.0891 
12 1 14 -2.9028 0.3991 
12 1 15 -1.8654 0.1943 
12 1 16 -0.7035 0.0769 
12 2 0 2.0137 -0.2990 
12 2 1 2.8117 -0.0707 
12 2 2 1.3224 0.0676 
12 2 3 6.6370 0.0535 
12 2 4 -6.1155 -0.1367 
12 2 5 -3.2066 0.3551 
12 2 6 -2.7972 -0.0211 
12 2 7 3.4511 -0.1809 
12 2 8 1.3415 -0.0583 
12 2 9 -0.3766 -0.0867 
12 2 10 -0.3923 0.1068 
12 2 11 -5.2572 -0.0255 
12 2 12 2.0241 0.2376 
12 2 13 -0.4940 -0.0862 
12 2 14 -4.2690 -0.0056 
12 2 15 1.4684 0.1835 
12 2 16 2.6597 0.0054 
12 2 17 1.9968 0.2407 
12 3 0 1.8907 -0.5008 
12 3 1 9.3187 0.3738 
12 3 2 -1.6323 0.1952 
12 3 3 -4.0009 0.1332 
12 3 4 -6.4702 -0.3626 
12 3 5 0.1559 -0.1192 
12 3 6 0.3744 0.1771 
12 3 7 -4.0716 -0.0150 
12 3 8 -4.4784 0.0755 
12 3 9 -3.8444 -0.0063 
12 3 10 -2.1321 0.1681 
12 3 11 0.7195 -0.0009 
12 3 12 0.4000 -0.2485 
12 3 13 1.2352 0.0424 
12 3 14 2.7727 -0.0521 
12 3 15 0.6800 0.0986 
12 3 16 -0.1208 0.0359 
12 3 17 -0.6828 0.0587 
12 3 18 2.0588 0.4636 
12 4 0 11.4663 -0.0595 
12 4 1 -4.8144 0.0659 
12 4 2 -6.5194 0.2844 
12 4 3 -3.8145 -0.1186 
12 4 4 4.8234 -0.1193 
12 4 5 4.4409 -0.2961 
12 4 6 0.5053 0.1845 
12 4 7 8.3341 0.0158 
12 4 8 0.2767 -0.0375 
12 4 9 3.2690 0.0437 
12 4 10 2.4986 -0.1780 
12 4 11 2.0091 0.2156 
12 4 12 2.4110 -0.2009 
12 4 13 -5.2561 -0.0859 
12 4 14 -4.7620 0.0756 
12 4 15 1.6613 0.0851 
12 4 16 1.0577 0.0103 
12 4 17 1.3272 -0.2906 
12 4 18 -0.2172 -0.1147 
12 5 0 -1.1902 0.2469 
12 5 1 2.7714 -0.6489 
12 5 2 -1.3744 0.0837 
12 5 3 1.6358 -0.0422 
12 5 4 -0.0096 0.1447 
12 5 5 -8.4606 -0.0254 
12 5 6 -0.3177 -0.0137 
12 5 7 -8.6315 -0.0036 
12 5 8 0.0748 -0.1905 
12 5 9 2.1779 -0.0653 
12 5 10 -1.5446 -0.0678 
12 5 11 -2.5121 0.1397 
12 5 12 -1.4974 0.1633 
12 5 13 1.8606 0.0125 
12 5 14 0.5437 -0.1038 
12 5 15 1.8636 -0.0590 
12 5 16 0.7462 0.1329 
12 5 17 -5.4346 -0.3767 
12 5 18 0.3648 -0.0892 
12 6 0 -2.3980 -0.1496 
12 6 1 -6.2829 -0.4255 
12 6 2 -1.3174 -0.2159 
12 6 3 -6.8885 0.3359 
12 6 4 -1.6112 0.0815 
12 6 5 3.2334 -0.0290 
12 6 6 -6.1509 -0.2263 
12 6 7 1.3729 0.0781 
12 6 8 -1.4583 0.0642 
12 6 9 4.0360 -0.1096 
12 6 10 0.9926 0.1057 
12 6 11 -2.8572 -0.1394 
12 6 12 4.5691 0.1151 
12 6 13 -2.6276 0.0349 
12 6 14 -3.9066 -0.0930 
12 6 15 -0.6474 -0.0527 
12 6 16 0.8396 0.0352 
12 6 17 -0.7793 0.1448 
12 6 18 0.1353 -0.0822 
12 7 0 1.2907 -0.2313 
12 7 1 5.6191 0.3353 
12 7 2 -2.4820 -0.2249 
12 7 3 7.6244 0.3336 
12 7 4 4.6301 0.0144 
12 7 5 0.7252 -0.3063 
12 7 6 10.0962 -0.1827 
12 7 7 1.2408 0.0395 
12 7 8 -0.7057 0.2894 
12 7 9 -1.8904 0.1031 
12 7 10 -1.2892 0.0924 
12 7 11 3.8082 -0.1688 
12 7 12 -1.2571 -0.1370 
12 7 13 -5.5833 0.0603 
12 7 14 -4.7036 -0.1108 
12 7 15 1.6686 -0.0435 
12 7 16 1.4023 0.0223 
12 7 17 -0.9165 0.1511 
12 7 18 -2.0841 0.4339 
12 8 0 -1.8719 0.3455 
12 8 1 4.8524 0.1853 
12 8 2 1.6854 -0.0134 
12 8 3 -0.3516 -0.0170 
12 8 4 2.9027 0.2327 
12 8 5 -4.0244 -0.1611 
12 8 6 1.5619 -0.0646 
12 8 7 -0.4425 -0.0035 
12 8 8 -0.8495 0.0727 
12 8 9 1.2383 0.1763 
12 8 10 0.3541 0.0238 
12 8 11 -2.1665 -0.0165 
12 8 12 0.7748 -0.0853 
12 8 13 1.8692 0.0300 
12 8 14 1.2974 -0.0034 
12 8 15 2.0855 -0.0536 
12 8 16 1.6502 -0.0164 
12 8 17 -1.3435 -0.4082 
12 9 0 3.0943 0.6682 
12 9 1 -1.8278 -0.2633 
12 9 2 -2.6401 -0.1937 
12 9 3 11.0051 -0.3360 
12 9 4 -2.7142 0.3208 
12 9 5 -7.2511 0.2984 
12 9 6 -1.2801 -0.0965 
12 9 7 0.8958 -0.0498 
12 9 8 0.4620 -0.2070 
12 9 9 -4.9551 0.0728 
12 9 10 2.3530 -0.1248 
12 9 11 3.7156 -0.0646 
12 9 12 1.5134 0.1546 
12 9 13 2.2750 0.0939 
12 9 14 -0.4913 -0.0119 
12 9 15 -0.6233 0.1194 
12 9 16 1.2864 0.2056 
12 9 17 -1.0742 -0.2001 
12 10 0 3.2853 -0.1084 
12 10 1 -4.8757 0.1882 
12 10 2 -2.1115 -0.2828 
12 10 3 3.5672 -0.1639 
12 10 4 2.4052 0.0802 
12 10 5 -3.0247 0.2976 
12 10 6 0.7863 0.1042 
12 10 7 5.2462 0.0179 
12 10 8 -8.5303 -0.0273 
12 10 9 -2.6951 0.0342 
12 10 10 -5.6555 0.0326 
12 10 11 1.2570 -0.0723 
12 10 12 -1.0542 -0.0013 
12 10 13 -3.8038 0.0334 
12 10 14 2.8752 -0.0918 
12 10 15 -0.3093 0.1527 
12 10 16 -4.1091 0.4542 
12 11 0 -3.5038 -0.2173 
12 11 1 -1.5421 0.5802 
12 11 2 0.1737 0.0540 
12 11 3 -1.8608 0.1447 
12 11 4 -0.3176 -0.1558 
12 11 5 -2.7715 0.0623 
12 11 6 4.4603 0.1007 
12 11 7 -0.7745 -0.2522 
12 11 8 -2.0223 0.0249 
12 11 9 -2.2632 0.0344 
12 11 10 5.1920 0.1039 
12 11 11 1.2624 -0.0168 
12 11 12 0.0240 0.0935 
12 11 13 -5.1879 -0.0293 
12 11 14 -3.9184 -0.3293 
12 12 0 -2.2329 -0.2103 
12 12 1 -0.0456 0.3443 
12 12 2 -0.6222 0.2192 
12 12 3 -0.6385 -0.2484 
12 12 4 -0.0605 -0.2004 
12 12 5 -1.8843 0.0503 
12 12 6 -4.4833 0.1849 
12 12 7 2.5852 0.0706 
12 12 8 6.9365 -0.0860 
12 12 9 9.3567 -0.0483 
12 12 10 3.3005 -0.1573 
12 12 11 4.5454 -0.1717 
12 12 12 0.1454 0.1989 
12 13 2 1.0117 0.0068 
12 13 3 -4.7378 -0.1859 
12 13 4 5.5860 -0.2017 
12 13 5 4.1224 -0.0442 
12 13 6 -2.2345 0.1645 
12 13 7 -2.1507 0.4813 
12 13 8 -5.5084 0.2528 
13 -2 0 2.1756 0.0194 
13 -2 1 3.9932 0.2733 
13 -2 2 12.2930 -0.0427 
13 -2 3 -0.2125 -0.3635 
13 -2 4 -2.2200 0.0805 
13 -2 5 -1.7916 0.1076 
13 -2 6 -1.2374 0.1724 
13 -1 0 6.0224 0.1547 
13 -1 1 0.8616 -0.1091 
13 -1 2 5.2671 -0.0811 
13 -1 3 -3.4835 -0.1890 
13 -1 4 2.9620 0.0388 
13 -1 5 2.0877 0.1592 
13 -1 6 3.1119 0.0754 
13 -1 7 -1.8786 0.1376 
13 -1 8 -4.2375 -0.1681 
13 -1 9 -2.2877 -0.0485 
13 0 0 -0.7415 -0.1559 
13 0 1 2.8819 -0.1310 
13 0 2 -12.1381 -0.0870 
13 0 3 -10.7393 0.2643 
13 0 4 -18.4337 0.0221 
13 0 5 -6.2328 0.0851 
13 0 6 11.4810 -0.0875 
13 0 7 9.7726 -0.1730 
13 0 8 1.6068 0.0294 
13 0 9 0.6831 0.0853 
13 0 10 -3.1540 0.3628 
13 0 11 -8.7824 -0.0058 
13 1 0 -0.8425 -0.1488 
13 1 1 -3.4459 0.1793 
13 1 2 -3.3974 0.0554 
13 1 3 10.1259 0.2454 
13 1 4 7.9417 -0.1982 
13 1 5 12.6689 -0.3016 
13 1 6 3.5383 -0.0243 
13 1 7 0.6941 0.0100 
13 1 8 -6.0577 0.0773 
13 1 9 6.5196 -0.0043 
13 1 10 5.2355 0.0404 
13 1 11 4.2954 0.2995 
13 1 12 3.5645 0.0301 
13 2 0 3.7276 0.2517 
13 2 1 -0.2804 -0.0551 
13 2 2 0.5159 0.0517 
13 2 3 4.2719 -0.0910 
13 2 4 -4.0076 0.0002 
13 2 5 -7.7066 -0.2076 
13 2 6 2.3237 0.0389 
13 2 7 -8.0569 0.0685 
13 2 8 -1.3358 0.0479 
13 2 9 -6.5785 -0.0062 
13 2 10 -8.4900 -0.2197 
13 2 11 -3.7998 0.0914 
13 2 12 -5.9457 -0.0208 
13 2 13 -1.5111 0.3476 
13 3 0 -3.5728 0.3128 
13 3 1 7.7643 -0.5070 
13 3 2 1.8579 -0.0575 
13 3 3 -6.0886 -0.0101 
13 3 4 -3.8813 0.2133 
13 3 5 1.9803 0.0575 
13 3 6 2.4596 -0.0751 
13 3 7 0.0509 0.0665 
13 3 8 0.3338 -0.2117 
13 3 9 2.3618 0.0699 
13 3 10 4.8827 -0.0323 
13 3 11 1.5382 -0.2218 
13 3 12 2.3563 -0.0380 
13 3 13 2.3719 -0.0258 
13 3 14 -0.5114 0.3357 
13 4 0 6.0276 -0.0621 
13 4 1 6.7210 -0.1557 
13 4 2 -2.4780 -0.1679 
13 4 3 2.4380 0.1633 
13 4 4 2.4586 0.1540 
13 4 5 0.9619 -0.0229 
13 4 6 1.6259 -0.2557 
13 4 7 -2.6166 0.0858 
13 4 8 -0.9760 0.0146 
13 4 9 -5.3736 -0.0131 
13 4 10 2.3722 0.1001 
13 4 11 -1.1374 -0.0719 
13 4 12 1.3513 -0.0569 
13 4 13 -2.8603 -0.2277 
13 4 14 -2.1706 -0.3704 
13 4 15 -3.6857 -0.0062 
13 5 0 0.4260 -0.1593 
13 5 1 -0.6009 0.5113 
13 5 2 1.8968 -0.0692 
13 5 3 -5.0016 -0.1065 
13 5 4 -15.8718 -0.0518 
13 5 5 -2.4129 -0.1251 
13 5 6 -4.6180 -0.1163 
13 5 7 0.8664 -0.0828 
13 5 8 -4.8154 0.2170 
13 5 9 10.9634 0.0581 
13 5 10 3.2726 -0.0233 
13 5 11 -4.1818 -0.0943 
13 5 12 0.5920 0.0433 
13 5 13 -0.0357 0.0011 
13 5 14 -0.1317 -0.2878 
13 5 15 -0.9935 -0.1672 
13 6 0 -5.4965 0.0841 
13 6 1 -1.5905 0.3016 
13 6 2 -1.8686 0.0821 
13 6 3 1.2715 -0.3970 
13 6 4 9.7304 -0.0018 
13 6 5 1.2569 0.0680 
13 6 6 2.4321 0.1442 
13 6 7 -3.9399 -0.1469 
13 6 8 -0.7482 -0.0441 
13 6 9 7.4628 0.0951 
13 6 10 -3.4744 -0.0723 
13 6 11 -3.6613 -0.0457 
13 6 12 -1.9582 0.1655 
13 6 13 4.8733 0.4624 
13 6 14 -2.6954 0.1587 
13 6 15 -1.1591 -0.0629 
13 7 0 -1.7252 0.2045 
13 7 1 -0.5160 -0.1296 
13 7 2 2.5024 0.0246 
13 7 3 -1.7049 -0.2826 
13 7 4 1.6344 0.1612 
13 7 5 -1.2576 0.3790 
13 7 6 5.4500 0.1387 
13 7 7 5.4879 -0.0700 
13 7 8 5.0672 -0.2109 
13 7 9 -5.9720 0.0267 
13 7 10 -0.4659 0.0415 
13 7 11 0.3859 -0.0191 
13 7 12 2.7021 -0.0866 
13 7 13 -0.7431 -0.1154 
13 7 14 -2.6826 0.1646 
13 8 0 2.4077 -0.3522 
13 8 1 7.5258 0.0846 
13 8 2 -3.1649 0.0830 
13 8 3 6.1396 0.1699 
13 8 4 3.6801 -0.2014 
13 8 5 -4.3351 0.2611 
13 8 6 3.2906 0.0433 
13 8 7 0.6118 -0.0645 
13 8 8 -0.7887 -0.0281 
13 8 9 -2.4433 0.0193 
13 8 10 -5.0511 0.2795 
13 8 11 -1.0710 0.1608 
13 8 12 0.5557 -0.1262 
13 8 13 2.6489 -0.5557 
13 8 14 1.3380 -0.3833 
13 9 0 -3.1084 -0.3350 
13 9 1 -3.4014 0.2893 
13 9 2 3.9691 0.0406 
13 9 3 2.7001 0.2839 
13 9 4 -0.6092 -0.1387 
13 9 5 -7.8376 0.0058 
13 9 6 -10.0139 0.1011 
13 9 7 -0.0385 -0.0935 
13 9 8 -4.2181 -0.0005 
13 9 9 -1.9801 -0.1193 
13 9 10 1.8653 0.1289 
13 9 11 7.6099 0.3751 
13 9 12 1.0979 0.2934 
13 9 13 1.1150 -0.1683 
13 10 0 4.7629 0.1209 
13 10 1 1.4608 -0.1666 
13 10 2 -6.4399 -0.1241 
13 10 3 1.1275 -0.0107 
13 10 4 3.3362 -0.0129 
13 10 5 4.7019 -0.1335 
13 10 6 6.8655 0.3665 
13 10 7 6.0166 -0.0234 
13 10 8 3.6262 -0.2370 
13 10 9 -3.8201 -0.2524 
13 10 10 -1.4527 -0.3049 
13 10 11 -7.2218 -0.0674 
13 11 1 1.9106 -0.3209 
13 11 2 -1.8396 -0.2509 
13 11 3 -8.8118 0.0988 
13 11 4 -2.0336 -0.0571 
13 11 5 -0.7343 -0.3130 
13 11 6 -1.4812 0.1577 
13 11 7 -4.0516 0.3759 
13 11 8 -8.0599 0.1614 
14 1 2 -2.5946 -0.1089 
14 1 3 4.3133 -0.2120 
14 2 0 -1.3175 -0.1567 
14 2 1 1.2043 0.1344 
14 2 2 -1.2133 0.1678 
14 2 3 -0.0794 0.1302 
14 2 4 -4.3881 -0.0428 
14 2 5 -5.0269 0.0436 
14 2 6 -4.9626 -0.4232 
14 2 7 -5.2363 -0.1506 
14 3 0 0.0952 -0.2223 
14 3 1 7.3012 0.3309 
14 3 2 -2.1099 0.1829 
14 3 3 4.0488 -0.0829 
14 3 4 -3.1722 0.0424 
14 3 5 7.0090 0.0253 
14 3 6 6.2714 -0.1720 
14 3 7 2.3527 -0.1305 
14 3 8 4.3146 -0.1542 
14 4 0 -1.2911 0.0371 
14 4 1 -2.7355 0.1301 
14 4 2 1.0086 -0.0971 
14 4 3 1.4825 -0.4918 
14 4 4 -1.9591 0.1227 
14 4 5 -7.9640 0.1437 
14 4 6 -7.3273 0.2200 
14 4 7 0.7182 0.2280 
14 4 8 -7.1315 -0.1734 
14 4 9 3.1193 -0.2176 
14 5 0 -2.7669 0.1036 
14 5 1 1.4588 -0.0318 
14 5 2 3.5430 -0.0742 
14 5 3 0.1078 -0.2173 
14 5 4 -6.6573 0.0381 
14 5 5 -4.6272 -0.0314 
14 5 6 6.2008 0.0884 
14 5 7 -0.5236 0.2417 
14 5 8 -0.9141 0.0127 
14 5 9 -0.2483 0.0876 
14 6 0 0.2590 -0.2649 
14 6 1 -9.5369 0.0250 
14 6 2 -0.0438 0.1555 
14 6 3 0.4140 0.5018 
14 6 4 3.5321 -0.0305 
14 6 5 3.1856 -0.2460 
14 6 6 2.2554 -0.1880 
14 6 7 -3.9159 -0.1326 
14 6 8 3.2141 0.0133 
14 6 9 4.4938 0.2288 
14 7 0 -0.1959 -0.1576 
14 7 1 2.0268 -0.0177 
14 7 2 1.8173 -0.0477 
14 7 3 4.4854 0.5089 
14 7 4 7.7623 -0.0187 
14 7 5 1.2762 -0.1634 
14 7 6 -2.9195 0.1186 
14 7 7 3.8181 -0.2243 
14 7 8 -1.8173 0.0747 
14 8 2 -1.1374 -0.3038 
14 8 3 -4.5593 0.0034 
14 8 4 -3.2068 -0.0497 
14 8 5 -1.5111 0.0643 
14 8 6 -2.8765 0.4275 
14 8 7 2.0952 0.1239 
0 0 0 0.0 0.0 
;
_shelx_fab_checksum              81427
loop_
_space_group_symop_operation_xyz
'x, y, z'
'-x, -y, -z'
loop_
_atom_site_label
_atom_site_type_symbol
_atom_site_fract_x
_atom_site_fract_y
_atom_site_fract_z
_atom_site_U_iso_or_equiv
_atom_site_adp_type
_atom_site_occupancy
_atom_site_site_symmetry_order
_atom_site_calc_flag
_atom_site_refinement_flags_posn
_atom_site_refinement_flags_adp
_atom_site_refinement_flags_occupancy
_atom_site_disorder_assembly
_atom_site_disorder_group
W2 W 0.51609(7) 0.25311(5) 0.86684(3) 0.0899(3) Uani 1 1 d D . . . .
W1 W 0.39961(7) 1.10303(4) 0.37490(3) 0.0813(2) Uani 1 1 d . . . . .
Zn1 Zn 0.000000 0.500000 0.500000 0.0866(9) Uani 1 2 d S . P . .
N14 N 0.1154(9) 0.5492(6) 0.5325(4) 0.066(3) Uani 1 1 d . . . . .
N13 N -0.0138(8) 0.6106(5) 0.4361(3) 0.056(2) Uani 1 1 d . . . . .
N2 N 0.5093(11) 1.2687(7) 0.3119(4) 0.080(3) Uani 1 1 d . . . . .
C10 C -0.0838(10) 0.6303(8) 0.3916(4) 0.059(3) Uani 1 1 d . . . . .
N9 N 0.5120(10) 0.1031(7) 0.8950(4) 0.078(3) Uani 1 1 d . . . . .
N1 N 0.5303(11) 1.1942(7) 0.3552(4) 0.080(3) Uani 1 1 d . . . . .
O1 O 0.6005(14) 0.9134(9) 0.3725(5) 0.144(3) Uani 1 1 d . . . . .
C19 C 0.1572(10) 0.4261(8) 0.6173(4) 0.063(3) Uani 1 1 d . . . . .
N11 N 0.6933(10) 0.1829(8) 0.8315(4) 0.083(3) Uani 1 1 d . . . . .
N3 N 0.3899(11) 1.1273(8) 0.2864(5) 0.092(4) Uani 1 1 d . . . . .
N6 N 0.2965(12) 1.3198(8) 0.3257(5) 0.091(4) Uani 1 1 d . . . . .
N4 N 0.3912(10) 1.2169(8) 0.2529(4) 0.083(3) Uani 1 1 d . . . . .
N8 N 0.6924(11) 0.1459(9) 0.9598(4) 0.092(4) Uani 1 1 d . . . . .
N10 N 0.6054(11) 0.0378(8) 0.9210(4) 0.084(3) Uani 1 1 d . . . . .
C20 C 0.2276(11) 0.3910(8) 0.6657(5) 0.065(3) Uani 1 1 d . . . . .
C15 C 0.1529(10) 0.6294(8) 0.5134(5) 0.064(3) Uani 1 1 d . . . . .
C21 C 0.2028(13) 0.4333(10) 0.7130(5) 0.085(4) Uani 1 1 d . . . . .
H21 H 0.139001 0.486282 0.714761 0.102 Uiso 1 1 calc R U . . .
C18 C 0.1671(10) 0.5086(8) 0.5816(5) 0.063(3) Uani 1 1 d . . . . .
N5 N 0.2782(14) 1.2442(9) 0.3677(5) 0.112(5) Uani 1 1 d . . . . .
C12 C 0.0088(12) 0.7459(8) 0.3770(4) 0.073(3) Uani 1 1 d . . . . .
H12 H 0.034838 0.799695 0.361841 0.087 Uiso 1 1 calc R U . . .
C14 C 0.1188(10) 0.6912(7) 0.4631(4) 0.061(3) Uani 1 1 d . . . . .
N7 N 0.6058(13) 0.2274(10) 0.9502(5) 0.111(5) Uani 1 1 d . . . . .
C13 C 0.0441(11) 0.6832(7) 0.4278(4) 0.060(3) Uani 1 1 d . . . . .
N12 N 0.7610(13) 0.1013(9) 0.8632(5) 0.101(4) Uani 1 1 d . . . . .
C7 C 0.1733(12) 0.7758(8) 0.4489(5) 0.071(3) Uani 1 1 d . . . . .
O2 O 0.4189(14) 1.0915(9) 0.5025(5) 0.144(3) Uani 1 1 d . . . . .
C8 C 0.2868(14) 0.7641(9) 0.4307(6) 0.094(5) Uani 1 1 d . . . . .
H8 H 0.334265 0.702600 0.427838 0.112 Uiso 1 1 calc R U . . .
C11 C -0.0671(12) 0.7138(8) 0.3557(5) 0.072(4) Uani 1 1 d . . . . .
H11 H -0.103374 0.741152 0.322838 0.086 Uiso 1 1 calc R U . . .
C4 C 0.2681(13) 0.9351(9) 0.4168(6) 0.079(4) Uani 1 1 d . . . . .
C6 C 0.1040(13) 0.8687(9) 0.4511(6) 0.083(4) Uani 1 1 d . . . . .
H6 H 0.025311 0.879340 0.461732 0.100 Uiso 1 1 calc R U . . .
C17 C 0.2450(11) 0.5622(8) 0.5909(5) 0.073(4) Uani 1 1 d . . . . .
H17 H 0.293861 0.547521 0.619904 0.087 Uiso 1 1 calc R U . . .
C22 C 0.2695(13) 0.4004(11) 0.7594(6) 0.091(5) Uani 1 1 d . . . . .
H22 H 0.250798 0.432285 0.790809 0.110 Uiso 1 1 calc R U . . .
C9 C 0.3323(13) 0.8421(10) 0.4164(6) 0.088(4) Uani 1 1 d . . . . .
H9 H 0.411141 0.830809 0.406008 0.105 Uiso 1 1 calc R U . . .
C23 C 0.3621(13) 0.3213(9) 0.7583(5) 0.082(4) Uani 1 1 d . . . . .
C55 C 0.7505(17) 0.1974(12) 0.7827(7) 0.108(6) Uani 1 1 d . . . . .
C5 C 0.1536(14) 0.9465(10) 0.4370(6) 0.096(5) Uani 1 1 d . . . . .
H5 H 0.107930 1.008073 0.441462 0.116 Uiso 1 1 calc R U . . .
C32 C 0.6040(14) 1.3078(10) 0.3039(6) 0.091(4) Uani 1 1 d . . . . .
C26 C 0.4358(14) 0.2852(9) 0.8050(6) 0.091(5) Uani 1 1 d . . . . .
O4 O 0.5403(14) 0.4625(9) 0.8419(5) 0.144(3) Uani 1 1 d . . . . .
C52 C 0.5721(19) -0.0445(11) 0.9397(5) 0.106(6) Uani 1 1 d . . . . .
C42 C 0.3797(17) 1.2168(13) 0.2002(6) 0.105(5) Uani 1 1 d . . . . .
C1 C 0.3160(16) 1.0129(10) 0.3975(6) 0.098(5) Uani 1 1 d . . . . .
C16 C 0.2341(11) 0.6383(8) 0.5495(5) 0.070(3) Uani 1 1 d . . . . .
H16 H 0.271857 0.686806 0.545437 0.084 Uiso 1 1 calc R U . . .
C30 C 0.6354(15) 1.1850(11) 0.3734(6) 0.096(5) Uani 1 1 d . . . . .
C51 C 0.4693(18) -0.0378(13) 0.9227(6) 0.112(6) Uani 1 1 d . . . . .
H51 H 0.431771 -0.086528 0.927187 0.134 Uiso 1 1 calc R U . . .
C25 C 0.3186(16) 0.3113(13) 0.6660(6) 0.116(6) Uani 1 1 d . . . . .
H25 H 0.335010 0.279679 0.634414 0.139 Uiso 1 1 calc R U . . .
C46 C 0.6809(19) 0.2371(14) 1.0271(7) 0.124(8) Uani 1 1 d . . . . .
H46 H 0.693521 0.258689 1.059297 0.148 Uiso 1 1 calc R U . . .
C47 C 0.7410(17) 0.1542(17) 1.0071(6) 0.117(7) Uani 1 1 d . . . . .
C35 C 0.180(2) 1.2863(11) 0.3985(8) 0.149(9) Uani 1 1 d . . . . .
C28 C 0.5311(18) 0.3823(11) 0.8520(6) 0.118(4) Uani 1 1 d . . . . .
C49 C 0.3179(16) 0.1029(13) 0.8710(6) 0.120(7) Uani 1 1 d . . . . .
H49A H 0.257253 0.119360 0.899942 0.180 Uiso 1 1 calc R U . . .
H49B H 0.301088 0.058168 0.850389 0.180 Uiso 1 1 calc R U . . .
H49C H 0.323226 0.160081 0.845957 0.180 Uiso 1 1 calc R U . . .
C37 C 0.2062(16) 1.3990(12) 0.3293(8) 0.114(6) Uani 1 1 d . . . . .
C40 C 0.3762(14) 1.0720(12) 0.2483(6) 0.094(5) Uani 1 1 d . . . . .
C45 C 0.5981(19) 0.2825(11) 0.9904(7) 0.120(7) Uani 1 1 d . . . . .
C3 C 0.4082(19) 1.0975(10) 0.4565(6) 0.118(4) Uani 1 1 d . . . . .
C38 C 0.1976(19) 1.4902(12) 0.2898(9) 0.158(9) Uani 1 1 d . . . . .
H38A H 0.273124 1.500791 0.280866 0.237 Uiso 1 1 calc R U . . .
H38B H 0.147595 1.543046 0.307036 0.237 Uiso 1 1 calc R U . . .
H38C H 0.166477 1.485388 0.255991 0.237 Uiso 1 1 calc R U . . .
C24 C 0.3884(15) 0.2741(11) 0.7101(7) 0.112(6) Uani 1 1 d . . . . .
H24 H 0.450478 0.219827 0.708102 0.134 Uiso 1 1 calc R U . . .
C56 C 0.853(2) 0.1274(15) 0.7805(7) 0.137(8) Uani 1 1 d . . . . .
H56 H 0.908249 0.121062 0.750008 0.164 Uiso 1 1 calc R U . . .
C44 C 0.508(2) 0.3754(13) 0.9929(8) 0.182(12) Uani 1 1 d . . . . .
H44A H 0.475647 0.397121 0.957141 0.272 Uiso 1 1 calc R U . . .
H44B H 0.541497 0.422629 1.002092 0.272 Uiso 1 1 calc R U . . .
H44C H 0.447279 0.366103 1.021175 0.272 Uiso 1 1 calc R U . . .
C33 C 0.6076(18) 1.3925(12) 0.2595(7) 0.142(8) Uani 1 1 d . . . . .
H33A H 0.588289 1.380355 0.224544 0.214 Uiso 1 1 calc R U . . .
H33B H 0.683912 1.402058 0.255022 0.214 Uiso 1 1 calc R U . . .
H33C H 0.552810 1.449223 0.270651 0.214 Uiso 1 1 calc R U . . .
C50 C 0.4269(16) 0.0595(11) 0.8961(5) 0.095(5) Uani 1 1 d . . . . .
C57 C 0.8618(17) 0.0691(16) 0.8304(8) 0.127(7) Uani 1 1 d . . . . .
C41 C 0.3668(15) 1.1278(15) 0.1935(6) 0.117(6) Uani 1 1 d . . . . .
H41 H 0.354596 1.108343 0.160595 0.140 Uiso 1 1 calc R U . . .
B2 B 0.7115(17) 0.0673(13) 0.9229(6) 0.094(6) Uani 1 1 d D . . . .
H2 H 0.779(2) 0.0016(18) 0.9420(7) 0.112 Uiso 1 1 calc DR U . . .
C53 C 0.6617(17) -0.1347(9) 0.9685(6) 0.114(6) Uani 1 1 d . . . . .
H53A H 0.721116 -0.160526 0.940945 0.171 Uiso 1 1 calc R U . . .
H53B H 0.622788 -0.182822 0.985128 0.171 Uiso 1 1 calc R U . . .
H53C H 0.695951 -0.115736 0.997155 0.171 Uiso 1 1 calc R U . . .
C29 C 0.6857(15) 1.1100(10) 0.4184(6) 0.102(5) Uani 1 1 d . . . . .
H29A H 0.625228 1.097266 0.445551 0.154 Uiso 1 1 calc R U . . .
H29B H 0.739217 1.131293 0.436185 0.154 Uiso 1 1 calc R U . . .
H29C H 0.725675 1.052171 0.402798 0.154 Uiso 1 1 calc R U . . .
C54 C 0.7063(18) 0.2776(12) 0.7389(6) 0.133(7) Uani 1 1 d . . . . .
H54A H 0.639409 0.321737 0.754233 0.199 Uiso 1 1 calc R U . . .
H54B H 0.685354 0.253129 0.708336 0.199 Uiso 1 1 calc R U . . .
H54C H 0.765108 0.310452 0.725583 0.199 Uiso 1 1 calc R U . . .
C31 C 0.6816(16) 1.2567(11) 0.3418(6) 0.106(6) Uani 1 1 d . . . . .
H31 H 0.752310 1.267639 0.345912 0.128 Uiso 1 1 calc R U . . .
C48 C 0.8429(18) 0.0783(14) 1.0280(6) 0.150(9) Uani 1 1 d . . . . .
H48A H 0.826053 0.016776 1.033353 0.226 Uiso 1 1 calc R U . . .
H48B H 0.860369 0.091481 1.063064 0.226 Uiso 1 1 calc R U . . .
H48C H 0.908223 0.077551 1.001092 0.226 Uiso 1 1 calc R U . . .
B1 B 0.3972(17) 1.2974(13) 0.2818(7) 0.091(6) Uani 1 1 d . . . . .
H1 H 0.3959(17) 1.360(8) 0.251(4) 0.110 Uiso 1 1 calc R U . . .
C36 C 0.138(2) 1.3789(12) 0.3777(8) 0.150(9) Uani 1 1 d . . . . .
H36 H 0.074778 1.422129 0.393028 0.180 Uiso 1 1 calc R U . . .
C39 C 0.3668(18) 0.9720(11) 0.2654(7) 0.121(7) Uani 1 1 d . . . . .
H39A H 0.422691 0.938878 0.291936 0.181 Uiso 1 1 calc R U . . .
H39B H 0.381233 0.939226 0.232942 0.181 Uiso 1 1 calc R U . . .
H39C H 0.290418 0.973194 0.282291 0.181 Uiso 1 1 calc R U . . .
C43 C 0.384(2) 1.2983(15) 0.1542(7) 0.159(9) Uani 1 1 d . . . . .
H43A H 0.447867 1.323627 0.158461 0.238 Uiso 1 1 calc R U . . .
H43B H 0.313307 1.348090 0.156261 0.238 Uiso 1 1 calc R U . . .
H43C H 0.395014 1.275442 0.118490 0.238 Uiso 1 1 calc R U . . .
C34 C 0.140(2) 1.2220(15) 0.4486(9) 0.197(13) Uani 1 1 d . . . . .
H34A H 0.198263 1.200274 0.474938 0.296 Uiso 1 1 calc R U . . .
H34B H 0.125997 1.167436 0.435948 0.296 Uiso 1 1 calc R U . . .
H34C H 0.069407 1.257861 0.466520 0.296 Uiso 1 1 calc R U . . .
C58 C 0.9570(17) -0.0195(17) 0.8511(8) 0.179(11) Uani 1 1 d . . . . .
H58A H 1.008062 -0.000488 0.871835 0.269 Uiso 1 1 calc R U . . .
H58B H 1.000056 -0.048163 0.819487 0.269 Uiso 1 1 calc R U . . .
H58C H 0.922767 -0.065270 0.874928 0.269 Uiso 1 1 calc R U . . .
C2 C 0.5294(19) 0.9842(11) 0.3723(6) 0.118(4) Uani 1 1 d . . . . .
C27 C 0.3897(13) 0.3121(9) 0.9057(5) 0.118(4) Uani 1 1 d D . . . .
O3 O 0.2858(13) 0.3305(9) 0.9209(5) 0.144(3) Uani 1 1 d D . . . .
loop_
_atom_site_aniso_label
_atom_site_aniso_U_11
_atom_site_aniso_U_22
_atom_site_aniso_U_33
_atom_site_aniso_U_23
_atom_site_aniso_U_13
_atom_site_aniso_U_12
W2 0.1288(6) 0.0717(4) 0.0804(4) 0.0318(3) -0.0618(4) -0.0470(4)
W1 0.1095(6) 0.0560(4) 0.0799(4) 0.0070(3) 0.0011(3) -0.0373(4)
Zn1 0.146(2) 0.0579(13) 0.0731(13) 0.0331(11) -0.0592(15) -0.0575(15)
N14 0.088(7) 0.045(5) 0.067(5) 0.021(4) -0.036(5) -0.022(5)
N13 0.084(7) 0.035(4) 0.055(4) 0.006(3) -0.021(4) -0.025(4)
N2 0.117(9) 0.058(6) 0.072(6) 0.016(5) -0.029(6) -0.042(6)
C10 0.068(8) 0.052(6) 0.055(5) 0.009(5) -0.018(5) -0.019(6)
N9 0.107(9) 0.060(6) 0.071(6) 0.010(5) -0.034(6) -0.029(6)
N1 0.109(9) 0.056(6) 0.075(6) 0.015(5) -0.010(6) -0.035(6)
O1 0.221(8) 0.102(4) 0.126(5) 0.026(4) -0.064(5) -0.075(5)
C19 0.076(8) 0.058(7) 0.056(6) 0.016(5) -0.031(6) -0.023(6)
N11 0.085(8) 0.090(8) 0.080(7) 0.014(6) -0.030(6) -0.037(7)
N3 0.117(10) 0.063(7) 0.109(8) -0.017(6) -0.021(7) -0.037(7)
N6 0.112(11) 0.060(7) 0.099(8) 0.006(6) -0.002(7) -0.031(7)
N4 0.097(9) 0.086(8) 0.073(6) 0.012(5) -0.026(6) -0.038(7)
N8 0.104(9) 0.095(8) 0.081(7) 0.030(6) -0.061(7) -0.035(7)
N10 0.102(9) 0.069(7) 0.082(7) 0.026(5) -0.032(6) -0.031(6)
C20 0.067(8) 0.049(6) 0.073(7) 0.017(5) -0.030(6) -0.014(6)
C15 0.065(8) 0.049(6) 0.075(7) 0.020(5) -0.024(6) -0.018(6)
C21 0.083(10) 0.078(9) 0.085(9) 0.010(7) -0.026(7) -0.010(8)
C18 0.068(8) 0.052(6) 0.070(6) 0.007(5) -0.029(6) -0.015(6)
N5 0.149(14) 0.072(8) 0.103(9) 0.002(7) 0.037(9) -0.039(9)
C12 0.100(10) 0.048(6) 0.069(7) 0.018(5) -0.012(7) -0.031(7)
C14 0.074(8) 0.047(6) 0.056(6) 0.013(5) -0.013(5) -0.018(6)
N7 0.144(13) 0.111(10) 0.102(8) 0.033(8) -0.077(9) -0.071(10)
C13 0.085(9) 0.041(6) 0.062(6) 0.010(4) -0.018(6) -0.032(6)
N12 0.117(11) 0.097(9) 0.091(8) 0.024(7) -0.070(8) -0.028(8)
C7 0.092(10) 0.050(7) 0.068(7) 0.019(5) -0.015(7) -0.025(7)
O2 0.221(8) 0.102(4) 0.126(5) 0.026(4) -0.064(5) -0.075(5)
C8 0.102(12) 0.043(7) 0.123(11) 0.009(7) 0.008(9) -0.016(7)
C11 0.096(10) 0.055(7) 0.068(6) 0.018(5) -0.030(7) -0.030(7)
C4 0.096(11) 0.052(7) 0.094(9) -0.004(6) -0.004(8) -0.031(7)
C6 0.088(10) 0.061(8) 0.102(9) 0.002(7) -0.001(8) -0.031(7)
C17 0.077(9) 0.064(7) 0.078(7) 0.020(6) -0.033(6) -0.027(7)
C22 0.105(12) 0.095(11) 0.081(8) 0.018(7) -0.050(8) -0.037(9)
C9 0.080(10) 0.064(9) 0.110(10) -0.004(7) 0.015(8) -0.019(7)
C23 0.108(12) 0.060(7) 0.080(8) 0.024(6) -0.050(8) -0.026(8)
C55 0.141(16) 0.096(12) 0.098(11) 0.044(9) -0.055(11) -0.064(11)
C5 0.110(13) 0.068(9) 0.111(10) 0.010(8) 0.016(9) -0.045(9)
C32 0.115(13) 0.074(9) 0.087(8) 0.017(7) -0.008(8) -0.047(9)
C26 0.114(12) 0.061(8) 0.100(9) 0.023(7) -0.037(9) -0.034(8)
O4 0.221(8) 0.102(4) 0.126(5) 0.026(4) -0.064(5) -0.075(5)
C52 0.184(19) 0.082(10) 0.064(7) 0.008(7) -0.033(10) -0.057(12)
C42 0.144(16) 0.105(13) 0.073(9) -0.011(8) -0.016(9) -0.042(12)
C1 0.139(15) 0.074(9) 0.085(9) 0.001(7) -0.022(9) -0.036(10)
C16 0.076(9) 0.052(7) 0.086(7) 0.016(6) -0.022(6) -0.030(6)
C30 0.122(13) 0.097(11) 0.090(9) -0.002(8) -0.042(9) -0.058(10)
C51 0.158(18) 0.099(13) 0.089(10) -0.004(9) -0.011(11) -0.055(13)
C25 0.126(15) 0.129(15) 0.085(9) -0.004(9) -0.058(10) -0.007(12)
C46 0.19(2) 0.121(14) 0.090(11) 0.015(10) -0.077(13) -0.082(15)
C47 0.132(16) 0.167(18) 0.074(9) 0.021(10) -0.048(10) -0.080(15)
C35 0.22(2) 0.043(8) 0.148(16) 0.003(9) 0.070(16) -0.016(11)
C28 0.225(11) 0.077(5) 0.078(4) 0.030(4) -0.063(6) -0.082(6)
C49 0.153(17) 0.133(15) 0.103(11) 0.008(10) -0.043(11) -0.086(14)
C37 0.103(14) 0.065(10) 0.153(15) 0.003(10) 0.029(11) -0.012(9)
C40 0.089(11) 0.098(11) 0.102(10) -0.028(9) -0.030(9) -0.019(9)
C45 0.21(2) 0.070(10) 0.110(11) 0.007(8) -0.077(13) -0.069(12)
C3 0.225(11) 0.077(5) 0.078(4) 0.030(4) -0.063(6) -0.082(6)
C38 0.17(2) 0.067(11) 0.21(2) 0.038(12) -0.008(17) -0.020(12)
C24 0.125(15) 0.081(10) 0.109(11) -0.014(9) -0.059(11) 0.027(9)
C56 0.18(2) 0.152(18) 0.090(11) 0.044(12) -0.064(13) -0.073(17)
C44 0.36(4) 0.098(15) 0.123(14) 0.009(11) -0.11(2) -0.10(2)
C33 0.173(19) 0.098(12) 0.165(16) 0.072(12) -0.066(14) -0.080(13)
C50 0.134(14) 0.092(11) 0.070(8) 0.007(7) -0.014(8) -0.055(11)
C57 0.080(13) 0.163(19) 0.129(15) 0.007(13) -0.032(11) -0.023(13)
C41 0.113(14) 0.170(19) 0.071(9) -0.031(10) -0.026(9) -0.027(13)
B2 0.113(15) 0.095(12) 0.064(8) 0.032(8) -0.027(9) -0.029(11)
C53 0.20(2) 0.053(8) 0.075(8) 0.006(6) -0.027(10) -0.017(10)
C29 0.135(15) 0.081(10) 0.091(9) 0.011(8) -0.033(9) -0.031(10)
C54 0.19(2) 0.103(12) 0.112(11) 0.051(10) -0.073(13) -0.070(13)
C31 0.130(15) 0.096(11) 0.113(11) 0.013(9) -0.046(10) -0.062(11)
C48 0.18(2) 0.19(2) 0.090(10) 0.033(12) -0.090(13) -0.059(16)
B1 0.118(16) 0.082(11) 0.092(10) 0.002(9) -0.009(10) -0.063(11)
C36 0.18(2) 0.067(11) 0.158(17) 0.009(11) 0.053(15) -0.001(12)
C39 0.18(2) 0.092(12) 0.111(12) -0.020(9) -0.053(12) -0.054(13)
C43 0.20(2) 0.17(2) 0.105(12) 0.057(13) -0.049(14) -0.082(18)
C34 0.23(3) 0.126(18) 0.18(2) 0.013(15) 0.12(2) -0.022(18)
C58 0.108(16) 0.24(3) 0.130(15) 0.052(16) -0.047(13) 0.020(16)
C2 0.225(11) 0.077(5) 0.078(4) 0.030(4) -0.063(6) -0.082(6)
C27 0.225(11) 0.077(5) 0.078(4) 0.030(4) -0.063(6) -0.082(6)
O3 0.221(8) 0.102(4) 0.126(5) 0.026(4) -0.064(5) -0.075(5)
loop_
_atom_type_symbol
_atom_type_description
_atom_type_scat_dispersion_real
_atom_type_scat_dispersion_imag
_atom_type_scat_source
C C 0.0181 0.0091 'International Tables Vol C Tables 4.2.6.8 and 6.1.1.4'
H H 0.0000 0.0000 'International Tables Vol C Tables 4.2.6.8 and 6.1.1.4'
B B 0.0090 0.0039 'International Tables Vol C Tables 4.2.6.8 and 6.1.1.4'
N N 0.0311 0.0180 'International Tables Vol C Tables 4.2.6.8 and 6.1.1.4'
O O 0.0492 0.0322 'International Tables Vol C Tables 4.2.6.8 and 6.1.1.4'
W W -5.4734 5.5774 'International Tables Vol C Tables 4.2.6.8 and 6.1.1.4'
Zn Zn -1.5491 0.6778 'International Tables Vol C Tables 4.2.6.8 and 6.1.1.4'
loop_
_geom_angle_atom_site_label_1
_geom_angle_atom_site_label_2
_geom_angle_atom_site_label_3
_geom_angle
_geom_angle_site_symmetry_1
_geom_angle_site_symmetry_3
_geom_angle_publ_flag
C27 W2 C26 88.9(7) . . ?
C27 W2 C28 80.2(8) . . ?
C26 W2 C28 85.4(6) . . ?
C27 W2 N9 99.2(5) . . ?
C26 W2 N9 103.0(5) . . ?
C28 W2 N9 171.6(5) . . ?
C27 W2 N11 168.8(5) . . ?
C26 W2 N11 101.6(6) . . ?
C28 W2 N11 96.5(7) . . ?
N9 W2 N11 82.5(4) . . ?
C27 W2 N7 85.5(6) . . ?
C26 W2 N7 173.5(6) . . ?
C28 W2 N7 90.6(5) . . ?
N9 W2 N7 81.0(4) . . ?
N11 W2 N7 83.9(5) . . ?
C1 W1 C3 83.6(6) . . ?
C1 W1 C2 81.4(7) . . ?
C3 W1 C2 91.5(7) . . ?
C1 W1 N3 102.3(5) . . ?
C3 W1 N3 172.9(5) . . ?
C2 W1 N3 93.3(5) . . ?
C1 W1 N5 107.8(6) . . ?
C3 W1 N5 93.3(6) . . ?
C2 W1 N5 170.0(6) . . ?
N3 W1 N5 81.2(5) . . ?
C1 W1 N1 169.4(6) . . ?
C3 W1 N1 91.0(5) . . ?
C2 W1 N1 89.6(5) . . ?
N3 W1 N1 83.7(4) . . ?
N5 W1 N1 81.6(5) . . ?
N14 Zn1 N14 180.0(4) 2_566 . ?
N14 Zn1 N13 90.8(3) 2_566 . ?
N14 Zn1 N13 89.2(3) . . ?
N14 Zn1 N13 89.2(3) 2_566 2_566 ?
N14 Zn1 N13 90.8(3) . 2_566 ?
N13 Zn1 N13 180.0(6) . 2_566 ?
C15 N14 C18 106.4(9) . . ?
C15 N14 Zn1 128.5(6) . . ?
C18 N14 Zn1 125.0(7) . . ?
C10 N13 C13 105.7(7) . . ?
C10 N13 Zn1 126.9(6) . . ?
C13 N13 Zn1 127.4(6) . . ?
N1 N2 C32 107.4(10) . . ?
N1 N2 B1 121.9(10) . . ?
C32 N2 B1 130.7(10) . . ?
N13 C10 C19 125.0(8) . 2_566 ?
N13 C10 C11 109.3(9) . . ?
C19 C10 C11 125.7(9) 2_566 . ?
C50 N9 N10 108.7(11) . . ?
C50 N9 W2 130.8(10) . . ?
N10 N9 W2 120.3(8) . . ?
C30 N1 N2 109.0(10) . . ?
C30 N1 W1 133.4(8) . . ?
N2 N1 W1 117.1(8) . . ?
C18 C19 C10 123.0(9) . 2_566 ?
C18 C19 C20 120.3(9) . . ?
C10 C19 C20 116.6(9) 2_566 . ?
C55 N11 N12 107.9(14) . . ?
C55 N11 W2 132.9(11) . . ?
N12 N11 W2 118.9(9) . . ?
C40 N3 N4 103.3(12) . . ?
C40 N3 W1 133.4(10) . . ?
N4 N3 W1 123.2(8) . . ?
C37 N6 N5 109.4(13) . . ?
C37 N6 B1 131.4(13) . . ?
N5 N6 B1 118.5(12) . . ?
C42 N4 N3 112.8(12) . . ?
C42 N4 B1 129.1(13) . . ?
N3 N4 B1 118.0(10) . . ?
N7 N8 C47 106.0(15) . . ?
N7 N8 B2 119.5(10) . . ?
C47 N8 B2 134.4(15) . . ?
C52 N10 N9 106.7(12) . . ?
C52 N10 B2 134.3(13) . . ?
N9 N10 B2 119.0(10) . . ?
C21 C20 C25 116.6(11) . . ?
C21 C20 C19 122.2(12) . . ?
C25 C20 C19 121.2(12) . . ?
N14 C15 C14 123.4(10) . . ?
N14 C15 C16 110.3(8) . . ?
C14 C15 C16 126.2(10) . . ?
C20 C21 C22 122.6(14) . . ?
C20 C21 H21 118.7 . . ?
C22 C21 H21 118.7 . . ?
N14 C18 C19 129.2(10) . . ?
N14 C18 C17 109.3(9) . . ?
C19 C18 C17 121.4(9) . . ?
C35 N5 N6 104.1(12) . . ?
C35 N5 W1 134.4(10) . . ?
N6 N5 W1 121.4(10) . . ?
C11 C12 C13 108.2(9) . . ?
C11 C12 H12 125.9 . . ?
C13 C12 H12 125.9 . . ?
C13 C14 C15 127.2(10) . . ?
C13 C14 C7 118.0(8) . . ?
C15 C14 C7 114.8(9) . . ?
C45 N7 N8 109.4(12) . . ?
C45 N7 W2 132.8(12) . . ?
N8 N7 W2 117.4(10) . . ?
C14 C13 N13 124.2(8) . . ?
C14 C13 C12 127.4(9) . . ?
N13 C13 C12 108.4(9) . . ?
C57 N12 N11 106.9(13) . . ?
C57 N12 B2 134.8(14) . . ?
N11 N12 B2 118.3(14) . . ?
C8 C7 C6 118.2(11) . . ?
C8 C7 C14 122.3(12) . . ?
C6 C7 C14 119.4(12) . . ?
C7 C8 C9 120.9(13) . . ?
C7 C8 H8 119.6 . . ?
C9 C8 H8 119.6 . . ?
C12 C11 C10 108.4(9) . . ?
C12 C11 H11 125.8 . . ?
C10 C11 H11 125.8 . . ?
C9 C4 C5 115.3(12) . . ?
C9 C4 C1 121.7(15) . . ?
C5 C4 C1 123.0(14) . . ?
C7 C6 C5 119.4(14) . . ?
C7 C6 H6 120.3 . . ?
C5 C6 H6 120.3 . . ?
C16 C17 C18 107.2(10) . . ?
C16 C17 H17 126.4 . . ?
C18 C17 H17 126.4 . . ?
C23 C22 C21 119.8(14) . . ?
C23 C22 H22 120.1 . . ?
C21 C22 H22 120.1 . . ?
C4 C9 C8 123.6(15) . . ?
C4 C9 H9 118.2 . . ?
C8 C9 H9 118.2 . . ?
C22 C23 C24 118.9(11) . . ?
C22 C23 C26 122.1(14) . . ?
C24 C23 C26 119.0(14) . . ?
N11 C55 C56 109.4(14) . . ?
N11 C55 C54 123.0(19) . . ?
C56 C55 C54 127.6(18) . . ?
C4 C5 C6 122.4(14) . . ?
C4 C5 H5 118.8 . . ?
C6 C5 H5 118.8 . . ?
C31 C32 N2 108.0(11) . . ?
C31 C32 C33 131.1(14) . . ?
N2 C32 C33 120.9(13) . . ?
C23 C26 W2 172.9(13) . . ?
C51 C52 N10 110.7(14) . . ?
C51 C52 C53 129.6(15) . . ?
N10 C52 C53 119.0(16) . . ?
N4 C42 C41 108.7(14) . . ?
N4 C42 C43 125.3(16) . . ?
C41 C42 C43 126.0(15) . . ?
C4 C1 W1 171.6(14) . . ?
C17 C16 C15 106.7(10) . . ?
C17 C16 H16 126.7 . . ?
C15 C16 H16 126.7 . . ?
N1 C30 C31 108.0(13) . . ?
N1 C30 C29 122.9(13) . . ?
C31 C30 C29 129.1(15) . . ?
C52 C51 C50 106.8(15) . . ?
C52 C51 H51 126.6 . . ?
C50 C51 H51 126.6 . . ?
C20 C25 C24 124.3(15) . . ?
C20 C25 H25 117.9 . . ?
C24 C25 H25 117.9 . . ?
C47 C46 C45 106.2(15) . . ?
C47 C46 H46 126.9 . . ?
C45 C46 H46 126.9 . . ?
C46 C47 N8 109.3(16) . . ?
C46 C47 C48 130.5(15) . . ?
N8 C47 C48 120.2(19) . . ?
C36 C35 N5 111.2(16) . . ?
C36 C35 C34 133(2) . . ?
N5 C35 C34 116.3(15) . . ?
O4 C28 W2 178.9(12) . . ?
C50 C49 H49A 109.5 . . ?
C50 C49 H49B 109.5 . . ?
H49A C49 H49B 109.5 . . ?
C50 C49 H49C 109.5 . . ?
H49A C49 H49C 109.5 . . ?
H49B C49 H49C 109.5 . . ?
N6 C37 C36 106.6(15) . . ?
N6 C37 C38 122.7(16) . . ?
C36 C37 C38 130.4(18) . . ?
N3 C40 C41 109.7(15) . . ?
N3 C40 C39 122.1(14) . . ?
C41 C40 C39 128.2(14) . . ?
N7 C45 C46 109.0(18) . . ?
N7 C45 C44 122.3(15) . . ?
C46 C45 C44 128.6(16) . . ?
O2 C3 W1 176(2) . . ?
C37 C38 H38A 109.5 . . ?
C37 C38 H38B 109.5 . . ?
H38A C38 H38B 109.5 . . ?
C37 C38 H38C 109.5 . . ?
H38A C38 H38C 109.5 . . ?
H38B C38 H38C 109.5 . . ?
C25 C24 C23 117.7(15) . . ?
C25 C24 H24 121.1 . . ?
C23 C24 H24 121.1 . . ?
C57 C56 C55 108(2) . . ?
C57 C56 H56 125.8 . . ?
C55 C56 H56 125.8 . . ?
C45 C44 H44A 109.5 . . ?
C45 C44 H44B 109.5 . . ?
H44A C44 H44B 109.5 . . ?
C45 C44 H44C 109.5 . . ?
H44A C44 H44C 109.5 . . ?
H44B C44 H44C 109.5 . . ?
C32 C33 H33A 109.5 . . ?
C32 C33 H33B 109.5 . . ?
H33A C33 H33B 109.5 . . ?
C32 C33 H33C 109.5 . . ?
H33A C33 H33C 109.5 . . ?
H33B C33 H33C 109.5 . . ?
N9 C50 C51 106.9(15) . . ?
N9 C50 C49 124.9(13) . . ?
C51 C50 C49 128.1(15) . . ?
C56 C57 N12 107.2(18) . . ?
C56 C57 C58 131(2) . . ?
N12 C57 C58 121.9(17) . . ?
C42 C41 C40 105.5(13) . . ?
C42 C41 H41 127.3 . . ?
C40 C41 H41 127.3 . . ?
N10 B2 N8 111.8(15) . . ?
N10 B2 N12 111.7(12) . . ?
N8 B2 N12 109.8(12) . . ?
N10 B2 H2 107.8 . . ?
N8 B2 H2 107.8 . . ?
N12 B2 H2 107.8 . . ?
C52 C53 H53A 109.5 . . ?
C52 C53 H53B 109.5 . . ?
H53A C53 H53B 109.5 . . ?
C52 C53 H53C 109.5 . . ?
H53A C53 H53C 109.5 . . ?
H53B C53 H53C 109.5 . . ?
C30 C29 H29A 109.5 . . ?
C30 C29 H29B 109.5 . . ?
H29A C29 H29B 109.5 . . ?
C30 C29 H29C 109.5 . . ?
H29A C29 H29C 109.5 . . ?
H29B C29 H29C 109.5 . . ?
C55 C54 H54A 109.5 . . ?
C55 C54 H54B 109.5 . . ?
H54A C54 H54B 109.5 . . ?
C55 C54 H54C 109.5 . . ?
H54A C54 H54C 109.5 . . ?
H54B C54 H54C 109.5 . . ?
C32 C31 C30 107.6(13) . . ?
C32 C31 H31 126.2 . . ?
C30 C31 H31 126.2 . . ?
C47 C48 H48A 109.5 . . ?
C47 C48 H48B 109.5 . . ?
H48A C48 H48B 109.5 . . ?
C47 C48 H48C 109.5 . . ?
H48A C48 H48C 109.5 . . ?
H48B C48 H48C 109.5 . . ?
N4 B1 N6 110.8(11) . . ?
N4 B1 N2 109.4(14) . . ?
N6 B1 N2 107.7(12) . . ?
N4 B1 H1 109.6 . . ?
N6 B1 H1 109.6 . . ?
N2 B1 H1 109.6 . . ?
C35 C36 C37 108.1(18) . . ?
C35 C36 H36 125.9 . . ?
C37 C36 H36 125.9 . . ?
C40 C39 H39A 109.5 . . ?
C40 C39 H39B 109.5 . . ?
H39A C39 H39B 109.5 . . ?
C40 C39 H39C 109.5 . . ?
H39A C39 H39C 109.5 . . ?
H39B C39 H39C 109.5 . . ?
C42 C43 H43A 109.5 . . ?
C42 C43 H43B 109.5 . . ?
H43A C43 H43B 109.5 . . ?
C42 C43 H43C 109.5 . . ?
H43A C43 H43C 109.5 . . ?
H43B C43 H43C 109.5 . . ?
C35 C34 H34A 109.5 . . ?
C35 C34 H34B 109.5 . . ?
H34A C34 H34B 109.5 . . ?
C35 C34 H34C 109.5 . . ?
H34A C34 H34C 109.5 . . ?
H34B C34 H34C 109.5 . . ?
C57 C58 H58A 109.5 . . ?
C57 C58 H58B 109.5 . . ?
H58A C58 H58B 109.5 . . ?
C57 C58 H58C 109.5 . . ?
H58A C58 H58C 109.5 . . ?
H58B C58 H58C 109.5 . . ?
O1 C2 W1 176.5(16) . . ?
O3 C27 W2 154.0(14) . . ?
loop_
_geom_bond_atom_site_label_1
_geom_bond_atom_site_label_2
_geom_bond_distance
_geom_bond_site_symmetry_2
_geom_bond_publ_flag
W2 C27 1.775(14) . ?
W2 C26 1.807(13) . ?
W2 C28 1.916(13) . ?
W2 N9 2.196(9) . ?
W2 N11 2.234(13) . ?
W2 N7 2.330(10) . ?
W1 C1 1.848(15) . ?
W1 C3 1.978(13) . ?
W1 C2 1.99(2) . ?
W1 N3 2.127(12) . ?
W1 N5 2.165(14) . ?
W1 N1 2.294(10) . ?
Zn1 N14 2.018(9) 2_566 ?
Zn1 N14 2.018(9) . ?
Zn1 N13 2.030(7) . ?
Zn1 N13 2.030(7) 2_566 ?
N14 C15 1.363(13) . ?
N14 C18 1.376(12) . ?
N13 C10 1.392(12) . ?
N13 C13 1.399(12) . ?
N2 N1 1.372(12) . ?
N2 C32 1.393(17) . ?
N2 B1 1.53(2) . ?
C10 C19 1.421(14) 2_566 ?
C10 C11 1.424(13) . ?
N9 C50 1.347(17) . ?
N9 N10 1.396(14) . ?
N1 C30 1.356(17) . ?
O1 C2 1.14(2) . ?
C19 C18 1.388(13) . ?
C19 C20 1.468(13) . ?
N11 C55 1.313(19) . ?
N11 N12 1.407(14) . ?
N3 C40 1.371(16) . ?
N3 N4 1.424(14) . ?
N6 C37 1.357(19) . ?
N6 N5 1.420(14) . ?
N6 B1 1.52(2) . ?
N4 C42 1.301(16) . ?
N4 B1 1.485(18) . ?
N8 N7 1.355(18) . ?
N8 C47 1.384(16) . ?
N8 B2 1.52(2) . ?
N10 C52 1.362(17) . ?
N10 B2 1.47(2) . ?
C20 C21 1.353(18) . ?
C20 C25 1.36(2) . ?
C15 C14 1.420(13) . ?
C15 C16 1.432(15) . ?
C21 C22 1.401(15) . ?
C21 H21 0.9300 . ?
C18 C17 1.437(15) . ?
N5 C35 1.37(2) . ?
C12 C11 1.326(15) . ?
C12 C13 1.439(13) . ?
C12 H12 0.9300 . ?
C14 C13 1.354(14) . ?
C14 C7 1.527(14) . ?
N7 C45 1.343(19) . ?
N12 C57 1.38(2) . ?
N12 B2 1.556(19) . ?
C7 C8 1.361(19) . ?
C7 C6 1.387(18) . ?
O2 C3 1.125(15) . ?
C8 C9 1.374(17) . ?
C8 H8 0.9300 . ?
C11 H11 0.9300 . ?
C4 C9 1.364(18) . ?
C4 C5 1.38(2) . ?
C4 C1 1.403(18) . ?
C6 C5 1.403(16) . ?
C6 H6 0.9300 . ?
C17 C16 1.356(14) . ?
C17 H17 0.9300 . ?
C22 C23 1.37(2) . ?
C22 H22 0.9300 . ?
C9 H9 0.9300 . ?
C23 C24 1.41(2) . ?
C23 C26 1.458(16) . ?
C55 C56 1.37(3) . ?
C55 C54 1.471(17) . ?
C5 H5 0.9300 . ?
C32 C31 1.367(19) . ?
C32 C33 1.507(16) . ?
O4 C28 1.190(16) . ?
C52 C51 1.33(2) . ?
C52 C53 1.57(2) . ?
C42 C41 1.39(2) . ?
C42 C43 1.50(2) . ?
C16 H16 0.9300 . ?
C30 C31 1.396(19) . ?
C30 C29 1.467(18) . ?
C51 C50 1.44(2) . ?
C51 H51 0.9300 . ?
C25 C24 1.384(17) . ?
C25 H25 0.9300 . ?
C46 C47 1.36(3) . ?
C46 C45 1.37(2) . ?
C46 H46 0.9300 . ?
C47 C48 1.48(3) . ?
C35 C36 1.34(2) . ?
C35 C34 1.53(2) . ?
C49 C50 1.45(2) . ?
C49 H49A 0.9600 . ?
C49 H49B 0.9600 . ?
C49 H49C 0.9600 . ?
C37 C36 1.39(2) . ?
C37 C38 1.49(2) . ?
C40 C41 1.44(2) . ?
C40 C39 1.48(2) . ?
C45 C44 1.49(3) . ?
C38 H38A 0.9600 . ?
C38 H38B 0.9600 . ?
C38 H38C 0.9600 . ?
C24 H24 0.9300 . ?
C56 C57 1.36(2) . ?
C56 H56 0.9300 . ?
C44 H44A 0.9600 . ?
C44 H44B 0.9600 . ?
C44 H44C 0.9600 . ?
C33 H33A 0.9600 . ?
C33 H33B 0.9600 . ?
C33 H33C 0.9600 . ?
C57 C58 1.53(2) . ?
C41 H41 0.9300 . ?
B2 H2 1.15(2) . ?
C53 H53A 0.9600 . ?
C53 H53B 0.9600 . ?
C53 H53C 0.9600 . ?
C29 H29A 0.9600 . ?
C29 H29B 0.9600 . ?
C29 H29C 0.9600 . ?
C54 H54A 0.9600 . ?
C54 H54B 0.9600 . ?
C54 H54C 0.9600 . ?
C31 H31 0.9300 . ?
C48 H48A 0.9600 . ?
C48 H48B 0.9600 . ?
C48 H48C 0.9600 . ?
B1 H1 1.08(14) . ?
C36 H36 0.9300 . ?
C39 H39A 0.9600 . ?
C39 H39B 0.9600 . ?
C39 H39C 0.9600 . ?
C43 H43A 0.9600 . ?
C43 H43B 0.9600 . ?
C43 H43C 0.9600 . ?
C34 H34A 0.9600 . ?
C34 H34B 0.9600 . ?
C34 H34C 0.9600 . ?
C58 H58A 0.9600 . ?
C58 H58B 0.9600 . ?
C58 H58C 0.9600 . ?
C27 O3 1.232(14) . ?
loop_
_geom_torsion_atom_site_label_1
_geom_torsion_atom_site_label_2
_geom_torsion_atom_site_label_3
_geom_torsion_atom_site_label_4
_geom_torsion
_geom_torsion_site_symmetry_1
_geom_torsion_site_symmetry_2
_geom_torsion_site_symmetry_3
_geom_torsion_site_symmetry_4
_geom_torsion_publ_flag
C13 N13 C10 C19 179.2(12) . . . 2_566 ?
Zn1 N13 C10 C19 -1.3(18) . . . 2_566 ?
C13 N13 C10 C11 1.0(14) . . . . ?
Zn1 N13 C10 C11 -179.4(8) . . . . ?
C32 N2 N1 C30 -1.1(16) . . . . ?
B1 N2 N1 C30 179.8(14) . . . . ?
C32 N2 N1 W1 -174.4(9) . . . . ?
B1 N2 N1 W1 6.5(16) . . . . ?
C40 N3 N4 C42 -0.1(18) . . . . ?
W1 N3 N4 C42 -177.4(12) . . . . ?
C40 N3 N4 B1 176.1(14) . . . . ?
W1 N3 N4 B1 -1.2(18) . . . . ?
C50 N9 N10 C52 -2.5(16) . . . . ?
W2 N9 N10 C52 172.6(9) . . . . ?
C50 N9 N10 B2 177.4(13) . . . . ?
W2 N9 N10 B2 -7.6(17) . . . . ?
C18 C19 C20 C21 76.2(17) . . . . ?
C10 C19 C20 C21 -106.1(15) 2_566 . . . ?
C18 C19 C20 C25 -106.7(16) . . . . ?
C10 C19 C20 C25 71.0(18) 2_566 . . . ?
C18 N14 C15 C14 179.8(12) . . . . ?
Zn1 N14 C15 C14 -3.6(19) . . . . ?
C18 N14 C15 C16 2.5(15) . . . . ?
Zn1 N14 C15 C16 179.1(9) . . . . ?
C25 C20 C21 C22 3(2) . . . . ?
C19 C20 C21 C22 -179.9(12) . . . . ?
C15 N14 C18 C19 180.0(14) . . . . ?
Zn1 N14 C18 C19 3(2) . . . . ?
C15 N14 C18 C17 -3.9(15) . . . . ?
Zn1 N14 C18 C17 179.3(9) . . . . ?
C10 C19 C18 N14 -2(2) 2_566 . . . ?
C20 C19 C18 N14 175.2(13) . . . . ?
C10 C19 C18 C17 -178.1(13) 2_566 . . . ?
C20 C19 C18 C17 0(2) . . . . ?
C37 N6 N5 C35 -6(2) . . . . ?
B1 N6 N5 C35 -177.6(16) . . . . ?
C37 N6 N5 W1 178.0(12) . . . . ?
B1 N6 N5 W1 6.2(18) . . . . ?
N14 C15 C14 C13 2(2) . . . . ?
C16 C15 C14 C13 178.7(13) . . . . ?
N14 C15 C14 C7 -178.7(12) . . . . ?
C16 C15 C14 C7 -2(2) . . . . ?
C47 N8 N7 C45 -1.9(17) . . . . ?
B2 N8 N7 C45 174.5(14) . . . . ?
C47 N8 N7 W2 171.9(10) . . . . ?
B2 N8 N7 W2 -11.7(17) . . . . ?
C15 C14 C13 N13 1(2) . . . . ?
C7 C14 C13 N13 -178.7(12) . . . . ?
C15 C14 C13 C12 179.6(13) . . . . ?
C7 C14 C13 C12 0(2) . . . . ?
C10 N13 C13 C14 178.3(12) . . . . ?
Zn1 N13 C13 C14 -1.3(18) . . . . ?
C10 N13 C13 C12 -0.8(13) . . . . ?
Zn1 N13 C13 C12 179.6(8) . . . . ?
C11 C12 C13 C14 -178.7(13) . . . . ?
C11 C12 C13 N13 0.4(16) . . . . ?
C55 N11 N12 C57 0.6(17) . . . . ?
W2 N11 N12 C57 176.1(11) . . . . ?
C55 N11 N12 B2 -178.9(13) . . . . ?
W2 N11 N12 B2 -3.4(15) . . . . ?
C13 C14 C7 C8 -108.5(15) . . . . ?
C15 C14 C7 C8 72.0(17) . . . . ?
C13 C14 C7 C6 67.3(16) . . . . ?
C15 C14 C7 C6 -112.2(13) . . . . ?
C6 C7 C8 C9 2(2) . . . . ?
C14 C7 C8 C9 177.8(12) . . . . ?
C13 C12 C11 C10 0.2(16) . . . . ?
N13 C10 C11 C12 -0.7(16) . . . . ?
C19 C10 C11 C12 -178.9(13) 2_566 . . . ?
C8 C7 C6 C5 -3(2) . . . . ?
C14 C7 C6 C5 -178.8(11) . . . . ?
N14 C18 C17 C16 4.0(16) . . . . ?
C19 C18 C17 C16 -179.6(13) . . . . ?
C20 C21 C22 C23 -2(2) . . . . ?
C5 C4 C9 C8 5(2) . . . . ?
C1 C4 C9 C8 -174.7(14) . . . . ?
C7 C8 C9 C4 -3(2) . . . . ?
C21 C22 C23 C24 0(2) . . . . ?
C21 C22 C23 C26 178.7(13) . . . . ?
N12 N11 C55 C56 0.7(18) . . . . ?
W2 N11 C55 C56 -174.0(11) . . . . ?
N12 N11 C55 C54 -179.2(13) . . . . ?
W2 N11 C55 C54 6(2) . . . . ?
C9 C4 C5 C6 -6(2) . . . . ?
C1 C4 C5 C6 173.7(14) . . . . ?
C7 C6 C5 C4 5(2) . . . . ?
N1 N2 C32 C31 0.5(18) . . . . ?
B1 N2 C32 C31 179.4(15) . . . . ?
N1 N2 C32 C33 -179.1(15) . . . . ?
B1 N2 C32 C33 0(3) . . . . ?
N9 N10 C52 C51 5.7(19) . . . . ?
B2 N10 C52 C51 -174.2(17) . . . . ?
N9 N10 C52 C53 176.9(12) . . . . ?
B2 N10 C52 C53 -3(3) . . . . ?
N3 N4 C42 C41 1(2) . . . . ?
B1 N4 C42 C41 -174.2(16) . . . . ?
N3 N4 C42 C43 -176.4(18) . . . . ?
B1 N4 C42 C43 8(3) . . . . ?
C18 C17 C16 C15 -2.3(16) . . . . ?
N14 C15 C16 C17 -0.1(16) . . . . ?
C14 C15 C16 C17 -177.2(13) . . . . ?
N2 N1 C30 C31 1.4(18) . . . . ?
W1 N1 C30 C31 173.1(11) . . . . ?
N2 N1 C30 C29 -178.1(14) . . . . ?
W1 N1 C30 C29 -6(2) . . . . ?
N10 C52 C51 C50 -6(2) . . . . ?
C53 C52 C51 C50 -176.5(15) . . . . ?
C21 C20 C25 C24 -3(3) . . . . ?
C19 C20 C25 C24 -179.9(16) . . . . ?
C45 C46 C47 N8 -3(2) . . . . ?
C45 C46 C47 C48 177.3(19) . . . . ?
N7 N8 C47 C46 2.9(19) . . . . ?
B2 N8 C47 C46 -172.6(16) . . . . ?
N7 N8 C47 C48 -177.2(15) . . . . ?
B2 N8 C47 C48 7(3) . . . . ?
N6 N5 C35 C36 1(3) . . . . ?
W1 N5 C35 C36 176.9(16) . . . . ?
N6 N5 C35 C34 -179(2) . . . . ?
W1 N5 C35 C34 -3(4) . . . . ?
N5 N6 C37 C36 8(2) . . . . ?
B1 N6 C37 C36 178.3(17) . . . . ?
N5 N6 C37 C38 -178.1(18) . . . . ?
B1 N6 C37 C38 -8(3) . . . . ?
N4 N3 C40 C41 -1.3(17) . . . . ?
W1 N3 C40 C41 175.6(12) . . . . ?
N4 N3 C40 C39 -178.2(15) . . . . ?
W1 N3 C40 C39 -1(2) . . . . ?
N8 N7 C45 C46 0(2) . . . . ?
W2 N7 C45 C46 -172.3(12) . . . . ?
N8 N7 C45 C44 -177.4(17) . . . . ?
W2 N7 C45 C44 10(3) . . . . ?
C47 C46 C45 N7 2(2) . . . . ?
C47 C46 C45 C44 179(2) . . . . ?
C20 C25 C24 C23 1(3) . . . . ?
C22 C23 C24 C25 0(3) . . . . ?
C26 C23 C24 C25 -178.5(15) . . . . ?
N11 C55 C56 C57 -2(2) . . . . ?
C54 C55 C56 C57 178.2(17) . . . . ?
N10 N9 C50 C51 -1.3(17) . . . . ?
W2 N9 C50 C51 -175.6(9) . . . . ?
N10 N9 C50 C49 -177.2(15) . . . . ?
W2 N9 C50 C49 8(2) . . . . ?
C52 C51 C50 N9 4.7(19) . . . . ?
C52 C51 C50 C49 -179.5(17) . . . . ?
C55 C56 C57 N12 2(2) . . . . ?
C55 C56 C57 C58 -180(2) . . . . ?
N11 N12 C57 C56 -2(2) . . . . ?
B2 N12 C57 C56 177.7(16) . . . . ?
N11 N12 C57 C58 -179.8(18) . . . . ?
B2 N12 C57 C58 0(3) . . . . ?
N4 C42 C41 C40 -2(2) . . . . ?
C43 C42 C41 C40 175.7(19) . . . . ?
N3 C40 C41 C42 2(2) . . . . ?
C39 C40 C41 C42 178.8(18) . . . . ?
C52 N10 B2 N8 -113.2(19) . . . . ?
N9 N10 B2 N8 67.0(14) . . . . ?
C52 N10 B2 N12 123.4(17) . . . . ?
N9 N10 B2 N12 -56(2) . . . . ?
N7 N8 B2 N10 -53.8(16) . . . . ?
C47 N8 B2 N10 121.3(18) . . . . ?
N7 N8 B2 N12 70.8(18) . . . . ?
C47 N8 B2 N12 -114.2(17) . . . . ?
C57 N12 B2 N10 -116(2) . . . . ?
N11 N12 B2 N10 62.9(18) . . . . ?
C57 N12 B2 N8 119(2) . . . . ?
N11 N12 B2 N8 -61.7(16) . . . . ?
N2 C32 C31 C30 0(2) . . . . ?
C33 C32 C31 C30 179.9(18) . . . . ?
N1 C30 C31 C32 -1(2) . . . . ?
C29 C30 C31 C32 178.3(17) . . . . ?
C42 N4 B1 N6 117.6(18) . . . . ?
N3 N4 B1 N6 -57.9(18) . . . . ?
C42 N4 B1 N2 -123.7(17) . . . . ?
N3 N4 B1 N2 60.8(16) . . . . ?
C37 N6 B1 N4 -114.9(19) . . . . ?
N5 N6 B1 N4 54.9(18) . . . . ?
C37 N6 B1 N2 125.4(18) . . . . ?
N5 N6 B1 N2 -64.9(15) . . . . ?
N1 N2 B1 N4 -64.0(17) . . . . ?
C32 N2 B1 N4 117.2(15) . . . . ?
N1 N2 B1 N6 56.6(16) . . . . ?
C32 N2 B1 N6 -122.3(15) . . . . ?
N5 C35 C36 C37 3(3) . . . . ?
C34 C35 C36 C37 -177(3) . . . . ?
N6 C37 C36 C35 -7(3) . . . . ?
C38 C37 C36 C35 180(2) . . . . ?
C26 W2 C27 O3 48(3) . . . . ?
C28 W2 C27 O3 133(3) . . . . ?
N9 W2 C27 O3 -55(3) . . . . ?
N11 W2 C27 O3 -153(2) . . . . ?
N7 W2 C27 O3 -135(3) . . . . ?
loop_
_smtbx_masks_void_nr
_smtbx_masks_void_average_x
_smtbx_masks_void_average_y
_smtbx_masks_void_average_z
_smtbx_masks_void_volume
_smtbx_masks_void_count_electrons
_smtbx_masks_void_content
1 0.093 -0.129 -0.093 1628.4 337.3 ?
