#------------------------------------------------------------------------------
#$Date: 2021-09-06 13:54:56 +0300 (Mon, 06 Sep 2021) $
#$Revision: 268712 $
#$URL: file:///home/coder/svn-repositories/cod/cif/7/70/77/7707702.cif $
#------------------------------------------------------------------------------
#
# This file is available in the Crystallography Open Database (COD),
# http://www.crystallography.net/
#
# All data on this site have been placed in the public domain by the
# contributors.
#
data_7707702
loop_
_publ_author_name
'Fu, Li-Jie'
'An, Bo-Hsun'
'Chou, Chih-Hsuan'
'Chen, Chi-Min'
'To, Ching Tat'
_publ_section_title
;
 Base-promoted perfluoroalkylation of rhodium(III) porphyrin complexes.
;
_journal_issue                   28
_journal_name_full
'Dalton transactions (Cambridge, England : 2003)'
_journal_page_first              9949
_journal_page_last               9957
_journal_paper_doi               10.1039/d1dt01118a
_journal_volume                  50
_journal_year                    2021
_chemical_formula_moiety         'C64 H63 F7 N4 O Rh'
_chemical_formula_sum            'C64 H63 F7 N4 O Rh'
_chemical_formula_weight         1141.10
_space_group_crystal_system      monoclinic
_space_group_IT_number           9
_space_group_name_Hall           'C -2yc'
_space_group_name_H-M_alt        'C 1 c 1'
_atom_sites_solution_hydrogens   geom
_audit_creation_method           SHELXL-2018/3
_audit_update_record
;
2021-06-10 deposited with the CCDC.	2021-06-14 downloaded from the CCDC.
;
_cell_angle_alpha                90
_cell_angle_beta                 110.572(9)
_cell_angle_gamma                90
_cell_formula_units_Z            4
_cell_length_a                   29.171(5)
_cell_length_b                   10.6913(18)
_cell_length_c                   21.741(3)
_cell_measurement_reflns_used    9707
_cell_measurement_temperature    150(2)
_cell_measurement_theta_max      27.554
_cell_measurement_theta_min      2.840
_cell_volume                     6348.1(18)
_computing_cell_refinement       'SAINT V7.34A (Bruker AXS, 2006)'
_computing_data_collection       'APEX2 (Bruker AXS, 2010)'
_computing_data_reduction        'SAINT V7.34A (Bruker AXS, 2006)'
_computing_molecular_graphics    'SHELXTL (Sheldrick, 2008)'
_computing_publication_material  SHELXTL
_computing_structure_refinement  'SHELXL-2014/7 (Sheldrick, 2014)'
_computing_structure_solution    'SHELXL-2014/7 (Sheldrick, 2014)'
_diffrn_ambient_temperature      150(2)
_diffrn_measured_fraction_theta_full 0.997
_diffrn_measured_fraction_theta_max 0.991
_diffrn_measurement_device_type  'Bruker APEX-II CCD'
_diffrn_measurement_method       '\f and \w scans'
_diffrn_radiation_probe          x-ray
_diffrn_radiation_type           MoK\a
_diffrn_radiation_wavelength     0.71073
_diffrn_reflns_av_R_equivalents  0.0763
_diffrn_reflns_av_unetI/netI     0.0818
_diffrn_reflns_Laue_measured_fraction_full 0.997
_diffrn_reflns_Laue_measured_fraction_max 0.991
_diffrn_reflns_limit_h_max       38
_diffrn_reflns_limit_h_min       -38
_diffrn_reflns_limit_k_max       14
_diffrn_reflns_limit_k_min       -14
_diffrn_reflns_limit_l_max       26
_diffrn_reflns_limit_l_min       -28
_diffrn_reflns_number            50400
_diffrn_reflns_point_group_measured_fraction_full 0.977
_diffrn_reflns_point_group_measured_fraction_max 0.952
_diffrn_reflns_theta_full        25.242
_diffrn_reflns_theta_max         28.107
_diffrn_reflns_theta_min         2.390
_exptl_absorpt_coefficient_mu    0.330
_exptl_absorpt_correction_T_max  0.9281
_exptl_absorpt_correction_T_min  0.6753
_exptl_absorpt_correction_type   multi-scan
_exptl_absorpt_process_details   'SADABS V2012/1 (Bruker AXS Inc.)'
_exptl_crystal_density_diffrn    1.194
_exptl_crystal_description       parallelepiped
_exptl_crystal_F_000             2368
_exptl_crystal_recrystallization_method 'Re-crystallisation from solvent'
_exptl_crystal_size_max          0.560
_exptl_crystal_size_mid          0.280
_exptl_crystal_size_min          0.130
_refine_diff_density_max         1.187
_refine_diff_density_min         -1.440
_refine_diff_density_rms         0.139
_refine_ls_abs_structure_details
;
 Refined as an inversion twin.
;
_refine_ls_abs_structure_Flack   0.27(8)
_refine_ls_extinction_method     none
_refine_ls_goodness_of_fit_ref   1.053
_refine_ls_hydrogen_treatment    constr
_refine_ls_matrix_type           full
_refine_ls_number_parameters     709
_refine_ls_number_reflns         14779
_refine_ls_number_restraints     33
_refine_ls_restrained_S_all      1.054
_refine_ls_R_factor_all          0.1325
_refine_ls_R_factor_gt           0.0961
_refine_ls_shift/su_max          0.045
_refine_ls_shift/su_mean         0.003
_refine_ls_structure_factor_coef Fsqd
_refine_ls_weighting_details
'w=1/[\s^2^(Fo^2^)+(0.1412P)^2^+39.4422P] where P=(Fo^2^+2Fc^2^)/3'
_refine_ls_weighting_scheme      calc
_refine_ls_wR_factor_gt          0.2483
_refine_ls_wR_factor_ref         0.2857
_reflns_Friedel_coverage         0.922
_reflns_Friedel_fraction_full    0.957
_reflns_Friedel_fraction_max     0.914
_reflns_number_gt                10786
_reflns_number_total             14779
_reflns_threshold_expression     'I > 2\s(I)'
_cod_data_source_file            d1dt01118a2.cif
_cod_data_source_block           ljf026
_cod_depositor_comments
'Adding full bibliography for 7707701--7707702.cif.'
_cod_original_cell_volume        6348.3(18)
_cod_original_sg_symbol_H-M      'C c'
_cod_database_code               7707702
_shelx_shelxl_version_number     2018/3
_shelx_space_group_comment
;
The symmetry employed for this shelxl refinement is uniquely defined
by the following loop, which should always be used as a source of
symmetry information in preference to the above space-group names.
They are only intended as comments.
;
_shelx_estimated_absorpt_t_min   0.837
_shelx_estimated_absorpt_t_max   0.958
_shelx_res_file
;
TITL LJF026_a.res in Cc
    ljf026.res
    created by SHELXL-2018/3 at 17:13:01 on 12-May-2021
CELL  0.71073  29.1715  10.6913  21.7412   90.000  110.572   90.000
ZERR    4.000   0.0048   0.0018   0.0034    0.000    0.009    0.000
LATT -7
SYMM X, -Y, 1/2+Z
SFAC C  H  F  N  O  Rh
UNIT 256  256  28  16  4  4
REM Old TITL LJF026 in C2
REM SHELXT solution in Cc
REM R1 0.189,  Rweak 0.032,  Alpha 0.039,  Orientation as input
REM Flack x=  0.359 ( 0.017 ) from Parsons' quotients
REM Formula found by SHELXT:  C54 F5 N18 Rh
L.S. 16
ACTA
BOND $H
FMAP 2
PLAN 0
SIZE 0.13 0.28 0.56
TEMP -123.150
EADP C7 C8
EADP C28 C28'
EADP C29 C29'
EADP C27 C30 C30'
EADP C38 C38'
EADP C39 C39'
EADP C40 C40'
EADP C48 C48'
EADP C49 C49'
EADP C50 C50'
EADP C58 C58'
EADP C59 C59'
EADP C60 C60'
EADP C61 > C63
EADP O C64 C64'
ISOR 0.002 C11
ISOR 0.002 C17
DELU 0.002 F1 C61
DELU 0.002 C27 C28 C30
DELU 0.002 C37 C38 C40
DELU 0.002 C57 C58' C59'
DELU 0.002 C57 C60'
SADI C27 C29 C27 C29'
SADI C27 C30 C27 C30'
DFIX 1.580 0.02 C27 C28
DFIX 1.580 0.02 C37 C40
DFIX 1.580 0.02 C37 C38'
DFIX 1.580 0.02 C57 C58'
DFIX 1.580 0.02 C47 C48'
DFIX 1.580 0.02 C47 C50'
TWIN
ABIN
WGHT    0.141200   39.442200
BASF   0.26945
FVAR       0.30915   0.20010   0.46840   0.80839   0.56286   0.66902
RH    6    0.502787    1.511084    1.530605    11.00000    0.04252    0.04998 =
         0.04898    0.00860    0.01944    0.01237
N1    4    0.517707    1.605150    1.458246    11.00000    0.03666    0.03608 =
         0.02605    0.00642    0.01010    0.01633
N2    4    0.572713    1.438166    1.560779    11.00000    0.03391    0.01603 =
         0.06380    0.00200    0.02293    0.00566
N3    4    0.488347    1.413776    1.601498    11.00000    0.02907    0.03179 =
         0.05691   -0.00214    0.02004    0.01077
N4    4    0.434562    1.582154    1.499560    11.00000    0.03825    0.02190 =
         0.03655    0.00493    0.01574    0.00718
C1    1    0.486553    1.685840    1.413098    11.00000    0.04629    0.05201 =
         0.03388    0.01232    0.01642    0.02515
C2    1    0.510041    1.729971    1.371101    11.00000    0.03131    0.05961 =
         0.04798    0.01362    0.02582    0.02533
AFIX  43
H2A   2    0.496625    1.787659    1.336131    11.00000   -1.20000
AFIX   0
C3    1    0.553408    1.678797    1.387909    11.00000    0.04236    0.06854 =
         0.03134    0.02443    0.01716    0.02435
AFIX  43
H3A   2    0.576621    1.690553    1.366829    11.00000   -1.20000
AFIX   0
C4    1    0.559389    1.601491    1.444201    11.00000    0.04786    0.01941 =
         0.07227    0.01772    0.01836    0.01640
C5    1    0.600996    1.531921    1.475432    11.00000    0.03313    0.04623 =
         0.05032    0.01014    0.02888    0.01221
C6    1    0.603368    1.454985    1.529988    11.00000    0.04601    0.03264 =
         0.07198    0.01791    0.01151    0.02583
C7    1    0.646491    1.382959    1.565678    11.00000    0.04279    0.07587 =
         0.07163    0.04453    0.03511    0.04128
AFIX  43
H7A   2    0.675990    1.380817    1.556455    11.00000   -1.20000
AFIX   0
C8    1    0.638256    1.321075    1.612846    11.00000    0.04279    0.07587 =
         0.07163    0.04453    0.03511    0.04128
AFIX  43
H8A   2    0.659710    1.263971    1.642822    11.00000   -1.20000
AFIX   0
C9    1    0.590781    1.356936    1.609881    11.00000    0.03791    0.03029 =
         0.05201    0.00171    0.02818    0.00639
C10   1    0.567023    1.309887    1.651890    11.00000    0.03892    0.04398 =
         0.02817    0.00838    0.01334    0.01387
C11   1    0.517598    1.336073    1.645933    11.00000    0.02924    0.03220 =
         0.03102   -0.00168    0.01558    0.00091
C12   1    0.493245    1.285035    1.687250    11.00000    0.04881    0.06311 =
         0.03111    0.01822    0.01517    0.01209
AFIX  43
H12A  2    0.507262    1.230735    1.723629    11.00000   -1.20000
AFIX   0
C13   1    0.446444    1.328504    1.664879    11.00000    0.03585    0.06268 =
         0.04705    0.02220    0.02605    0.01813
AFIX  43
H13A  2    0.420805    1.307702    1.680491    11.00000   -1.20000
AFIX   0
C14   1    0.444266    1.413511    1.612006    11.00000    0.03445    0.04328 =
         0.02787    0.01005    0.02124    0.01366
C15   1    0.401355    1.478129    1.576432    11.00000    0.06297    0.04364 =
         0.07143    0.03066    0.03590    0.03891
C16   1    0.396729    1.556393    1.521946    11.00000    0.02705    0.06673 =
         0.04552    0.02122    0.02686    0.02528
C17   1    0.352973    1.621395    1.485722    11.00000    0.05025    0.05527 =
         0.05594    0.00635    0.01829    0.00688
AFIX  43
H17A  2    0.322859    1.620829    1.493391    11.00000   -1.20000
AFIX   0
C18   1    0.363262    1.684320    1.437960    11.00000    0.04833    0.09988 =
         0.05308    0.03881    0.03295    0.04330
AFIX  43
H18A  2    0.340724    1.733641    1.404542    11.00000   -1.20000
AFIX   0
C19   1    0.415093    1.663778    1.446307    11.00000    0.03006    0.02354 =
         0.04594    0.01362    0.01603    0.01639
C20   1    0.438114    1.708951    1.406934    11.00000    0.04293    0.04809 =
         0.05161   -0.00460    0.02907    0.00875
C21   1    0.643216    1.536931    1.450934    11.00000    0.02515    0.06752 =
         0.05795    0.03919    0.02578    0.02498
C22   1    0.639565    1.473693    1.394067    11.00000    0.06514    0.06999 =
         0.09692    0.04344    0.04854    0.04001
AFIX  43
H22A  2    0.610501    1.429595    1.370064    11.00000   -1.20000
AFIX   0
C23   1    0.681507    1.475706    1.371189    11.00000    0.07394    0.07009 =
         0.07443    0.02115    0.05041    0.03737
AFIX  43
H23A  2    0.679351    1.434611    1.331525    11.00000   -1.20000
AFIX   0
C24   1    0.723622    1.537040    1.407308    11.00000    0.04262    0.07987 =
         0.06328    0.02832    0.03757    0.02326
C25   1    0.725863    1.600057    1.462976    11.00000    0.05165    0.09586 =
         0.06239    0.02932    0.03389    0.02557
AFIX  43
H25A  2    0.754870    1.644122    1.487235    11.00000   -1.20000
AFIX   0
C26   1    0.685973    1.600683    1.484864    11.00000    0.02735    0.10201 =
         0.04657    0.01984    0.01758    0.02049
AFIX  43
H26A  2    0.688341    1.645561    1.523576    11.00000   -1.20000
AFIX   0
C27   1    0.769090    1.536881    1.384421    11.00000    0.06060    0.13426 =
         0.09173    0.02274    0.05700    0.04152
PART   1
C28   1    0.760481    1.620349    1.320897    21.00000    0.07176    0.09949 =
         0.10524    0.02410    0.03423    0.01167
AFIX  33
H28A  2    0.748867    1.703352    1.327788    21.00000   -1.50000
H28B  2    0.791325    1.628730    1.312777    21.00000   -1.50000
H28C  2    0.735938    1.580460    1.282933    21.00000   -1.50000
AFIX   0
C29   1    0.787357    1.405537    1.376041    21.00000    0.06564    0.14353 =
         0.08600   -0.02225    0.05642    0.01301
AFIX  33
H29A  2    0.815605    1.412523    1.361777    21.00000   -1.50000
H29B  2    0.797023    1.360872    1.418041    21.00000   -1.50000
H29C  2    0.761101    1.359379    1.342956    21.00000   -1.50000
AFIX   0
C30   1    0.812852    1.598380    1.433977    21.00000    0.06060    0.13426 =
         0.09173    0.02274    0.05700    0.04152
AFIX  33
H30A  2    0.804308    1.683772    1.442332    21.00000   -1.50000
H30B  2    0.823017    1.550481    1.475018    21.00000   -1.50000
H30C  2    0.839782    1.601010    1.416913    21.00000   -1.50000
AFIX   0
PART   2
C28'  1    0.778804    1.668688    1.364608   -21.00000    0.07176    0.09949 =
         0.10524    0.02410    0.03423    0.01167
AFIX  33
H28D  2    0.782350    1.726640    1.400918   -21.00000   -1.50000
H28E  2    0.808970    1.668648    1.354420   -21.00000   -1.50000
H28F  2    0.751319    1.695262    1.325785   -21.00000   -1.50000
AFIX   0
C29'  1    0.762858    1.437466    1.331338   -21.00000    0.06564    0.14353 =
         0.08600   -0.02225    0.05642    0.01301
AFIX  33
H29D  2    0.756786    1.355954    1.347630   -21.00000   -1.50000
H29E  2    0.735076    1.459734    1.291897   -21.00000   -1.50000
H29F  2    0.792727    1.433119    1.320532   -21.00000   -1.50000
AFIX   0
C30'  1    0.812432    1.503690    1.443427   -21.00000    0.06060    0.13426 =
         0.09173    0.02274    0.05700    0.04152
AFIX  33
H30D  2    0.816738    1.566778    1.477708   -21.00000   -1.50000
H30E  2    0.807206    1.421588    1.459903   -21.00000   -1.50000
H30F  2    0.841792    1.500923    1.431392   -21.00000   -1.50000
AFIX   0
PART   0
C31   1    0.594640    1.222189    1.705626    11.00000    0.02661    0.05863 =
         0.03926    0.00627    0.02219    0.01194
C32   1    0.588982    1.095251    1.701635    11.00000    0.04962    0.05691 =
         0.03919   -0.00364   -0.00167    0.01356
AFIX  43
H32A  2    0.569890    1.058592    1.660866    11.00000   -1.20000
AFIX   0
C33   1    0.611386    1.015002    1.758066    11.00000    0.08308    0.06192 =
         0.04531   -0.01791    0.00411    0.02402
AFIX  43
H33A  2    0.604239    0.928049    1.755288    11.00000   -1.20000
AFIX   0
C34   1    0.642271    1.063997    1.814270    11.00000    0.03818    0.04884 =
         0.02666    0.00551    0.00598    0.00681
C35   1    0.648258    1.192844    1.817766    11.00000    0.06836    0.05406 =
         0.03403   -0.01282   -0.00274    0.00326
AFIX  43
H35A  2    0.668934    1.229970    1.857538    11.00000   -1.20000
AFIX   0
C36   1    0.624376    1.268789    1.763759    11.00000    0.05885    0.05100 =
         0.04509    0.00031    0.00442    0.00342
AFIX  43
H36A  2    0.629210    1.356691    1.768022    11.00000   -1.20000
AFIX   0
C37   1    0.668686    0.980664    1.874488    11.00000    0.05640    0.09958 =
         0.04571    0.03783    0.00320    0.01043
PART   1
C38   1    0.658399    0.841194    1.850596    31.00000    0.09603    0.08448 =
         0.07917    0.05600    0.03042    0.00862
AFIX  33
H38A  2    0.674533    0.784737    1.887362    31.00000   -1.50000
H38B  2    0.623031    0.825750    1.834345    31.00000   -1.50000
H38C  2    0.671222    0.826193    1.815195    31.00000   -1.50000
AFIX   0
C39   1    0.716998    1.030061    1.909985    31.00000    0.12807    0.07071 =
         0.05825    0.03394   -0.03404    0.01213
AFIX  33
H39A  2    0.733433    0.976693    1.948013    31.00000   -1.50000
H39B  2    0.736200    1.031812    1.880970    31.00000   -1.50000
H39C  2    0.714060    1.115113    1.924999    31.00000   -1.50000
AFIX   0
C40   1    0.652112    1.033329    1.932181    31.00000    0.10975    0.16704 =
         0.05055    0.00204    0.03030   -0.04664
AFIX  33
H40A  2    0.667697    0.984181    1.972154    31.00000   -1.50000
H40B  2    0.662024    1.121097    1.940597    31.00000   -1.50000
H40C  2    0.616445    1.027029    1.919197    31.00000   -1.50000
AFIX   0
PART   2
C38'  1    0.625827    0.903892    1.888323   -31.00000    0.09603    0.08448 =
         0.07917    0.05600    0.03042    0.00862
AFIX  33
H38D  2    0.606385    0.858595    1.848511   -31.00000   -1.50000
H38E  2    0.640334    0.844157    1.924091   -31.00000   -1.50000
H38F  2    0.604670    0.962190    1.900790   -31.00000   -1.50000
AFIX   0
C39'  1    0.694252    0.874196    1.854600   -31.00000    0.12807    0.07071 =
         0.05825    0.03394   -0.03404    0.01213
AFIX  33
H39D  2    0.673953    0.844354    1.810879   -31.00000   -1.50000
H39E  2    0.725861    0.903075    1.853584   -31.00000   -1.50000
H39F  2    0.699587    0.805838    1.886389   -31.00000   -1.50000
AFIX   0
C40'  1    0.691412    1.036857    1.935290   -31.00000    0.10975    0.16704 =
         0.05055    0.00204    0.03030   -0.04664
AFIX  33
H40D  2    0.670559    1.104115    1.941321   -31.00000   -1.50000
H40E  2    0.696714    0.974418    1.970111   -31.00000   -1.50000
H40F  2    0.722988    1.071655    1.937306   -31.00000   -1.50000
AFIX   0
PART   0
C41   1    0.358498    1.468564    1.596910    11.00000    0.05741    0.04965 =
         0.05220    0.02923    0.01989    0.02121
C42   1    0.359544    1.532177    1.653056    11.00000    0.05112    0.06924 =
         0.08336   -0.01450    0.04960   -0.00181
AFIX  43
H42A  2    0.387313    1.580784    1.677156    11.00000   -1.20000
AFIX   0
C43   1    0.320038    1.524259    1.673518    11.00000    0.05822    0.05113 =
         0.06803   -0.00471    0.03925   -0.00693
AFIX  43
H43A  2    0.321388    1.569151    1.711826    11.00000   -1.20000
AFIX   0
C44   1    0.278942    1.455520    1.641913    11.00000    0.04980    0.06579 =
         0.05765    0.02010    0.02181    0.01855
C45   1    0.279027    1.392193    1.588593    11.00000    0.03154    0.08571 =
         0.04967    0.00298    0.01173    0.00279
AFIX  43
H45A  2    0.251063    1.343514    1.565296    11.00000   -1.20000
AFIX   0
C46   1    0.317991    1.394270    1.565750    11.00000    0.05262    0.08847 =
         0.03720    0.00203    0.02033    0.00323
AFIX  43
H46A  2    0.316853    1.344925    1.528903    11.00000   -1.20000
AFIX   0
C47   1    0.234496    1.450170    1.667145    11.00000    0.04238    0.08002 =
         0.06051    0.00462    0.02467    0.00732
PART   1
C48   1    0.228280    1.322392    1.688710    41.00000    0.05273    0.10576 =
         0.10472    0.03060    0.06140    0.01241
AFIX  33
H48A  2    0.226557    1.262822    1.653707    41.00000   -1.50000
H48B  2    0.256180    1.301458    1.728274    41.00000   -1.50000
H48C  2    0.197976    1.318060    1.698467    41.00000   -1.50000
AFIX   0
C49   1    0.237584    1.550562    1.719102    41.00000    0.04952    0.12301 =
         0.04808    0.00207    0.03362    0.00485
AFIX  33
H49A  2    0.241677    1.633029    1.702038    41.00000   -1.50000
H49B  2    0.207419    1.549618    1.729288    41.00000   -1.50000
H49C  2    0.265623    1.533017    1.759094    41.00000   -1.50000
AFIX   0
C50   1    0.185346    1.491310    1.609754    41.00000    0.03127    0.18937 =
         0.07445    0.01197    0.02938    0.04157
AFIX  33
H50A  2    0.189228    1.576125    1.595200    41.00000   -1.50000
H50B  2    0.178606    1.433264    1.572733    41.00000   -1.50000
H50C  2    0.158033    1.489792    1.626101    41.00000   -1.50000
AFIX   0
PART   2
C48'  1    0.205769    1.340579    1.620094   -41.00000    0.05273    0.10576 =
         0.10472    0.03060    0.06140    0.01241
AFIX  33
H48D  2    0.185147    1.284426    1.585912   -41.00000   -1.50000
H48E  2    0.240324    1.323213    1.627742   -41.00000   -1.50000
H48F  2    0.199259    1.327109    1.660854   -41.00000   -1.50000
AFIX   0
C49'  1    0.256755    1.391170    1.737406   -41.00000    0.04952    0.12301 =
         0.04808    0.00207    0.03362    0.00485
AFIX  33
H49D  2    0.231230    1.384393    1.756876   -41.00000   -1.50000
H49E  2    0.269640    1.307766    1.734119   -41.00000   -1.50000
H49F  2    0.283315    1.444456    1.765160   -41.00000   -1.50000
AFIX   0
C50'  1    0.194120    1.477115    1.597764   -41.00000    0.03127    0.18937 =
         0.07445    0.01197    0.02938    0.04157
AFIX  33
H50D  2    0.168549    1.478954    1.554097   -41.00000   -1.50000
H50E  2    0.182662    1.521637    1.629040   -41.00000   -1.50000
H50F  2    0.223726    1.517741    1.595927   -41.00000   -1.50000
AFIX   0
PART   0
C51   1    0.410267    1.793465    1.350511    11.00000    0.03951    0.04972 =
         0.03494    0.00568    0.01817    0.00704
C52   1    0.411724    1.917273    1.355005    11.00000    0.09506    0.05955 =
         0.04138   -0.00097    0.01771    0.02881
AFIX  43
H52A  2    0.430929    1.952397    1.396137    11.00000   -1.20000
AFIX   0
C53   1    0.388524    1.996810    1.306701    11.00000    0.06228    0.05163 =
         0.04225    0.00733    0.00447    0.02584
AFIX  43
H53A  2    0.389911    2.084408    1.314477    11.00000   -1.20000
AFIX   0
C54   1    0.361402    1.947304    1.242692    11.00000    0.04044    0.05384 =
         0.04551    0.00933    0.01706    0.01392
C55   1    0.356311    1.818624    1.239112    11.00000    0.03675    0.07781 =
         0.03826    0.01345    0.00723    0.00745
AFIX  43
H55A  2    0.335577    1.782143    1.199186    11.00000   -1.20000
AFIX   0
C56   1    0.380033    1.741800    1.290955    11.00000    0.04145    0.05506 =
         0.03776    0.00717    0.00890    0.01336
AFIX  43
H56A  2    0.375968    1.653704    1.286485    11.00000   -1.20000
AFIX   0
C57   1    0.337713    2.026641    1.184553    11.00000    0.06730    0.09369 =
         0.03320   -0.00057    0.00789    0.00086
PART   1
C58   1    0.296278    2.101862    1.192541    51.00000    0.04409    0.10646 =
         0.08639    0.01036   -0.00550    0.04345
AFIX  33
H58A  2    0.273263    2.045386    1.202297    51.00000   -1.50000
H58B  2    0.309491    2.161493    1.228711    51.00000   -1.50000
H58C  2    0.279219    2.147468    1.151793    51.00000   -1.50000
AFIX   0
C59   1    0.307940    1.959791    1.121093    51.00000    0.07532    0.07685 =
         0.03106    0.01720    0.01045    0.01496
AFIX  33
H59A  2    0.283133    1.906849    1.128968    51.00000   -1.50000
H59B  2    0.291813    2.021819    1.087202    51.00000   -1.50000
H59C  2    0.329743    1.907754    1.106337    51.00000   -1.50000
AFIX   0
C60   1    0.376972    2.110269    1.168599    51.00000    0.09830    0.05316 =
         0.09252    0.01011   -0.00630   -0.00866
AFIX  33
H60A  2    0.360531    2.162101    1.129935    51.00000   -1.50000
H60B  2    0.393618    2.164256    1.206276    51.00000   -1.50000
H60C  2    0.401050    2.056175    1.159718    51.00000   -1.50000
AFIX   0
PART   2
C58'  1    0.281230    1.985644    1.157186   -51.00000    0.04409    0.10646 =
         0.08639    0.01036   -0.00550    0.04345
AFIX  33
H58D  2    0.266103    2.006915    1.189567   -51.00000   -1.50000
H58E  2    0.264164    2.029750    1.115947   -51.00000   -1.50000
H58F  2    0.278910    1.895215    1.149322   -51.00000   -1.50000
AFIX   0
C59'  1    0.370794    2.001821    1.140455   -51.00000    0.07532    0.07685 =
         0.03106    0.01720    0.01045    0.01496
AFIX  33
H59D  2    0.358095    2.050815    1.099872   -51.00000   -1.50000
H59E  2    0.404644    2.026809    1.164940   -51.00000   -1.50000
H59F  2    0.369863    1.912669    1.129601   -51.00000   -1.50000
AFIX   0
C60'  1    0.323815    2.152797    1.204559   -51.00000    0.09830    0.05316 =
         0.09252    0.01011   -0.00630   -0.00866
AFIX  33
H60D  2    0.303365    2.140605    1.231468   -51.00000   -1.50000
H60E  2    0.353547    2.198568    1.229990   -51.00000   -1.50000
H60F  2    0.305545    2.200798    1.165157   -51.00000   -1.50000
AFIX   0
PART   0
C61   1    0.527300    1.669604    1.594568    11.00000    0.09507    0.05200 =
         0.10135   -0.01925    0.05976    0.00054
C62   1    0.581789    1.708798    1.612171    11.00000    0.09507    0.05200 =
         0.10135   -0.01925    0.05976    0.00054
C63   1    0.510102    1.682463    1.645527    11.00000    0.09507    0.05200 =
         0.10135   -0.01925    0.05976    0.00054
F1    3    0.505447    1.782990    1.550652    11.00000    0.19411    0.05586 =
         0.14876    0.00339    0.08696    0.01414
F2    3    0.597640    1.709996    1.562782    11.00000    0.08499    0.16865 =
         0.13268   -0.06186    0.07029   -0.02910
F3    3    0.592286    1.812620    1.643463    11.00000    0.11136    0.15846 =
         0.17838   -0.09614    0.08591   -0.05575
F4    3    0.607798    1.619704    1.656231    11.00000    0.07107    0.14262 =
         0.08374   -0.01543   -0.00588    0.02397
F5    3    0.525341    1.793473    1.679852    11.00000    0.43960    0.16078 =
         0.19482   -0.13711    0.23687   -0.18874
F6    3    0.528444    1.602807    1.694347    11.00000    0.17128    0.17409 =
         0.05656    0.00136    0.05478   -0.02272
F7    3    0.463242    1.676713    1.630763    11.00000    0.15327    0.09563 =
         0.11305   -0.03458    0.08635   -0.02348
O     5    0.478446    1.353360    1.465172    11.00000    0.04243    0.05453 =
         0.05546   -0.01193    0.01685    0.00890
PART   1
C64   1    0.427608    1.318711    1.440315    61.00000    0.04243    0.05453 =
         0.05546   -0.01193    0.01685    0.00890
AFIX  33
H64A  2    0.423153    1.245648    1.411576    61.00000   -1.50000
H64B  2    0.416903    1.298238    1.477097    61.00000   -1.50000
H64C  2    0.408101    1.388620    1.415323    61.00000   -1.50000
AFIX   0
PART   2
C64'  1    0.493680    1.240944    1.505302   -61.00000    0.04243    0.05453 =
         0.05546   -0.01193    0.01685    0.00890
AFIX  33
H64D  2    0.483302    1.166743    1.477377   -61.00000   -1.50000
H64E  2    0.529401    1.240602    1.526417   -61.00000   -1.50000
H64F  2    0.478565    1.240013    1.539054   -61.00000   -1.50000
PART   0

AFIX   0
HKLF 4




REM  LJF026_a.res in Cc
REM wR2 = 0.285720, GooF = S = 1.05324, Restrained GooF = 1.05363 for all data
REM R1 = 0.096070 for 10786 Fo > 4sig(Fo) and 0.132534 for all 14779 data
REM 709 parameters refined using 33 restraints

END

WGHT      0.1415     40.7290

REM Highest difference peak  1.187,  deepest hole -1.440,  1-sigma level  0.139
Q1    1   0.5205  1.1428  1.5199  11.00000  0.05    1.19
Q2    1   0.5432  1.8186  1.5419  11.00000  0.05    1.07
Q3    1   0.5103  1.5173  1.5708  11.00000  0.05    1.05
Q4    1   0.5036  1.5807  1.5280  11.00000  0.05    1.03
Q5    1   0.4943  1.5171  1.4898  11.00000  0.05    0.97
Q6    1   0.5251  1.8786  1.6201  11.00000  0.05    0.95
Q7    1   0.4705  1.8271  1.5286  11.00000  0.05    0.95
Q8    1   0.4855  1.1345  1.5365  11.00000  0.05    0.90
Q9    1   0.4489  1.1740  1.5044  11.00000  0.05    0.88
Q10   1   0.4386  1.3562  1.3998  11.00000  0.05    0.85
Q11   1   0.5000  1.4287  1.5294  11.00000  0.05    0.81
Q12   1   0.5628  1.6410  1.6639  11.00000  0.05    0.73
Q13   1   0.5942  1.2170  1.6401  11.00000  0.05    0.71
Q14   1   0.4805  1.6759  1.4703  11.00000  0.05    0.70
Q15   1   0.4800  1.1324  1.4442  11.00000  0.05    0.65
Q16   1   0.5206  1.4160  1.5834  11.00000  0.05    0.64
Q17   1   0.5741  1.5275  1.4895  11.00000  0.05    0.64
Q18   1   0.3575  1.3781  1.3672  11.00000  0.05    0.60
Q19   1   0.5749  1.7340  1.7067  11.00000  0.05    0.59
Q20   1   0.5171  1.8843  1.5301  11.00000  0.05    0.58
;
_shelx_res_checksum              56334
_shelx_fab_file
;
   -6    0   28     -2.27      1.72
   -8    0   28     -0.37     -2.05
  -10    0   28     -0.39     -4.29
  -12    0   28      4.37     -1.77
  -14    0   28      1.43      0.70
  -16    0   28      2.69      4.32
  -18    0   28      2.30      1.69
  -20    0   28      4.54     -0.47
   -5    1   28     -0.56      1.01
   -7    1   28      1.07      0.57
   -9    1   28      4.13     -0.05
  -11    1   28      8.12      1.76
  -13    1   28     10.79      3.58
  -15    1   28      9.21      5.79
  -17    1   28      5.58      4.00
  -19    1   28      1.81      2.23
   -8    2   28     -3.30     -1.24
  -10    2   28     -1.01     -0.23
  -12    2   28     -2.98      0.54
  -14    2   28     -2.30      2.13
  -16    2   28     -3.93      0.51
  -18    2   28     -2.11      0.49
  -11    3   28      4.66      2.61
  -13    3   28      3.09      3.19
  -15    3   28      1.88     -0.02
   -3    1   27     -2.77      1.89
   -5    1   27     -2.09     -0.40
   -7    1   27     -2.44     -0.29
   -9    1   27      1.27      1.38
  -11    1   27     -3.18      2.33
  -13    1   27     -3.32      2.51
  -15    1   27     -7.66     -1.13
  -17    1   27     -4.59     -0.31
  -19    1   27     -2.86      0.50
  -21    1   27     -1.54      2.07
  -23    1   27     -0.11      1.33
   -2    2   27      0.17     -2.70
   -4    2   27      1.54     -2.80
   -6    2   27      2.07      0.79
   -8    2   27      0.63      4.31
  -10    2   27     -1.91      3.86
  -12    2   27     -4.46      3.23
  -14    2   27     -3.88      0.22
  -16    2   27     -4.01      0.40
  -18    2   27     -2.87     -1.13
  -20    2   27     -2.75     -0.43
  -22    2   27     -1.79     -0.67
   -3    3   27      0.82     -0.88
   -5    3   27      0.90     -2.29
   -7    3   27      2.13     -4.03
   -9    3   27      0.03     -4.50
  -11    3   27     -1.77     -2.50
  -13    3   27     -5.55     -3.22
  -15    3   27     -4.51     -4.05
  -17    3   27     -1.47     -4.86
  -19    3   27      0.96     -2.95
  -21    3   27      1.61     -0.71
   -6    4   27     -0.12      0.97
   -8    4   27     -2.21      3.00
  -10    4   27     -3.87      4.14
  -12    4   27     -1.96      1.67
  -14    4   27     -0.18      2.26
  -16    4   27      2.75      2.21
  -18    4   27      2.09      3.99
    2    0   26      1.60      1.72
    0    0   26      1.20     -1.53
   -2    0   26      1.65      0.44
   -4    0   26      3.09     -1.95
   -6    0   26      1.96      0.32
   -8    0   26      4.68      2.96
  -10    0   26     -3.41      5.81
  -12    0   26     -7.34      7.75
  -14    0   26    -16.70      5.28
  -16    0   26    -12.50      5.22
  -18    0   26     -7.42      3.27
  -20    0   26     -1.78      2.81
  -22    0   26      0.10     -0.01
  -24    0   26     -2.05     -1.96
  -26    0   26     -0.94     -3.63
    1    1   26     -4.46     -2.26
   -1    1   26     -5.35     -2.43
   -3    1   26     -5.10     -2.60
   -5    1   26     -3.92     -1.42
   -7    1   26     -2.49      0.30
   -9    1   26     -1.63      1.95
  -11    1   26     -2.60      3.52
  -13    1   26     -2.41      1.06
  -15    1   26     -2.74     -1.16
  -17    1   26     -2.61     -3.08
  -19    1   26     -4.03     -1.57
  -21    1   26     -4.39     -0.16
  -23    1   26     -3.66      0.47
  -25    1   26     -2.09      0.09
  -27    1   26     -1.33     -0.20
    0    2   26      2.11     -0.16
   -2    2   26      3.61     -3.29
   -4    2   26      3.92     -3.20
   -6    2   26      4.43     -3.46
   -8    2   26     -0.75     -1.98
  -10    2   26     -2.56      0.50
  -12    2   26     -8.36      0.08
  -14    2   26     -6.16     -0.18
  -16    2   26     -4.66     -2.24
  -18    2   26     -0.28     -1.69
  -20    2   26      1.72     -1.39
  -22    2   26      0.62     -1.14
  -24    2   26      0.94     -1.04
  -26    2   26      0.41     -0.14
   -1    3   26     -2.94     -1.01
   -3    3   26     -3.62     -1.19
   -5    3   26     -4.41     -1.81
   -7    3   26     -3.81     -1.03
   -9    3   26     -2.75      0.21
  -11    3   26      0.59     -1.66
  -13    3   26      2.03     -1.33
  -15    3   26      4.67     -3.11
  -17    3   26      3.74     -1.60
  -19    3   26      2.69     -1.08
  -21    3   26      0.95      1.00
  -23    3   26     -0.07      2.65
  -25    3   26     -0.03      2.89
   -2    4   26      1.76      3.42
   -4    4   26      1.52      5.48
   -6    4   26      0.48      4.61
   -8    4   26      0.79      3.43
  -10    4   26     -0.67      0.63
  -12    4   26     -1.32     -0.01
  -14    4   26     -1.26     -0.66
  -16    4   26     -0.83      0.46
  -18    4   26      0.54      1.64
  -20    4   26     -0.06      1.57
  -22    4   26      0.45      0.98
   -5    5   26     -2.40     -0.93
   -7    5   26     -2.84     -2.67
   -9    5   26     -0.59     -3.73
  -11    5   26      1.42     -2.72
  -13    5   26      3.65     -3.39
  -15    5   26      2.27     -2.59
  -17    5   26      1.36     -2.36
  -19    5   26      0.00     -1.24
  -10    6   26     -0.88     -1.70
  -12    6   26     -2.56     -2.38
  -14    6   26     -3.74     -1.57
    5    1   25     -0.08      1.86
    3    1   25     -1.72     -0.15
    1    1   25     -1.80      2.11
   -1    1   25     -1.57     -1.12
   -3    1   25     -1.84      0.20
   -5    1   25     -0.72     -2.08
   -7    1   25     -3.78     -2.10
   -9    1   25      0.62     -2.27
  -11    1   25     -1.64     -3.40
  -13    1   25      3.17     -3.71
  -15    1   25      0.21     -5.40
  -17    1   25      2.00     -3.85
  -19    1   25      1.60     -2.85
  -21    1   25      1.69     -0.93
  -23    1   25      3.43     -0.13
  -25    1   25      3.23      1.73
  -27    1   25      4.53      1.06
  -29    1   25      3.60      1.35
    4    2   25      2.13     -0.86
    2    2   25      3.77     -0.38
    0    2   25      3.69     -1.82
   -2    2   25      2.57     -2.70
   -4    2   25      1.90     -3.33
   -6    2   25      1.65     -1.21
   -8    2   25     -1.18      0.24
  -10    2   25     -0.94     -3.28
  -12    2   25      1.02     -4.78
  -14    2   25      6.73     -5.69
  -16    2   25      7.29     -2.71
  -18    2   25      6.22     -2.11
  -20    2   25      4.26     -1.04
  -22    2   25      4.24      0.30
  -24    2   25      4.19      0.97
  -26    2   25      3.05      1.06
  -28    2   25      0.51      0.75
    3    3   25     -2.72      0.35
    1    3   25     -0.74      0.77
   -1    3   25      0.65      4.95
   -3    3   25      1.73      8.36
   -5    3   25      0.22      7.86
   -7    3   25      1.63      3.68
   -9    3   25      1.03     -1.78
  -11    3   25      3.23     -2.38
  -13    3   25      0.79     -1.51
  -15    3   25     -0.62      1.38
  -17    3   25     -2.14      2.83
  -19    3   25     -2.68      3.49
  -21    3   25     -1.87      3.10
  -23    3   25     -2.53      1.73
  -25    3   25     -1.50      1.54
  -27    3   25     -1.18      1.87
    2    4   25      2.40     -2.03
    0    4   25      2.23     -0.89
   -2    4   25      1.54     -2.15
   -4    4   25      1.77     -2.46
   -6    4   25      0.65     -2.15
   -8    4   25      0.53     -1.48
  -10    4   25     -0.80     -1.03
  -12    4   25      1.13     -3.55
  -14    4   25      1.67     -2.30
  -16    4   25      3.35     -1.06
  -18    4   25      2.14      0.91
  -20    4   25      0.12      0.48
  -22    4   25     -0.52     -1.93
  -24    4   25     -0.39     -2.54
  -26    4   25      1.34     -2.18
   -1    5   25     -1.66      0.97
   -3    5   25     -2.41     -0.66
   -5    5   25     -1.05     -0.48
   -7    5   25     -0.86     -1.72
   -9    5   25     -0.86     -1.08
  -11    5   25     -1.03     -0.84
  -13    5   25     -1.68      1.36
  -15    5   25     -1.86      2.34
  -17    5   25     -3.88      1.91
  -19    5   25     -3.34      1.28
  -21    5   25     -2.65      0.57
  -23    5   25     -1.72      0.88
   -4    6   25     -0.91     -1.27
   -6    6   25      0.15     -0.99
   -8    6   25     -0.17      0.36
  -10    6   25     -0.49      1.48
  -12    6   25     -1.63      2.18
  -14    6   25     -1.27      0.84
  -16    6   25     -0.92     -0.59
  -18    6   25     -0.10     -0.94
  -20    6   25     -0.46     -1.74
  -11    7   25      1.28      2.97
    6    0   24      0.83      2.84
    4    0   24      1.76      0.18
    2    0   24      4.04      3.75
    0    0   24      3.54     -0.23
   -2    0   24      1.62     -0.64
   -4    0   24      1.95     -5.35
   -6    0   24     -0.39     -4.49
   -8    0   24      3.50     -4.77
  -10    0   24     -1.42     -6.16
  -12    0   24      1.32     -6.66
  -14    0   24     -3.78     -5.80
  -16    0   24     -0.18     -2.96
  -18    0   24      2.28     -3.18
  -20    0   24      6.45     -2.88
  -22    0   24      8.70     -2.69
  -24    0   24      6.46     -0.67
  -26    0   24      5.24     -2.50
  -28    0   24      2.85     -2.15
  -30    0   24      1.53     -4.48
    7    1   24      1.53      1.30
    5    1   24     -0.30     -0.47
    3    1   24     -0.92     -1.64
    1    1   24     -0.43     -1.96
   -1    1   24     -0.32      0.23
   -3    1   24     -0.86      2.29
   -5    1   24     -1.24      3.61
   -7    1   24     -3.11      3.24
   -9    1   24     -2.17     -0.36
  -11    1   24      0.72     -3.46
  -13    1   24      7.01     -6.65
  -15    1   24      8.50     -6.25
  -17    1   24      6.71     -5.02
  -19    1   24      3.09     -2.72
  -21    1   24      2.63     -0.64
  -23    1   24      3.61      0.38
  -25    1   24      3.84      1.54
  -27    1   24      1.42      1.53
  -29    1   24     -0.42      0.72
    6    2   24     -0.51      1.09
    4    2   24      0.07      1.93
    2    2   24      2.06     -0.96
    0    2   24      4.48      0.87
   -2    2   24      7.30      0.20
   -4    2   24      7.29      1.13
   -6    2   24      7.80     -0.10
   -8    2   24      1.78     -1.79
  -10    2   24      1.51     -1.96
  -12    2   24     -3.23     -1.02
  -14    2   24     -1.28      2.71
  -16    2   24     -2.04      4.87
  -18    2   24     -0.28      5.51
  -20    2   24      0.31      3.68
  -22    2   24     -1.55      1.72
  -24    2   24     -2.05      0.61
  -26    2   24     -2.70      1.59
  -28    2   24     -1.40      1.63
  -30    2   24     -0.77      2.10
    5    3   24     -0.55     -0.79
    3    3   24     -1.66     -1.44
    1    3   24     -1.83      0.34
   -1    3   24     -1.58      0.84
   -3    3   24     -0.91      1.96
   -5    3   24     -1.72      2.04
   -7    3   24      0.44      1.30
   -9    3   24      0.97      1.24
  -11    3   24      4.58     -0.92
  -13    3   24      4.36      0.60
  -15    3   24      5.35      0.51
  -17    3   24      2.63      1.52
  -19    3   24      0.12      1.45
  -21    3   24     -1.73      0.97
  -23    3   24     -2.37      1.70
  -25    3   24     -1.67      0.32
  -27    3   24     -0.85     -0.93
  -29    3   24     -0.09     -1.83
    4    4   24      0.73      1.01
    2    4   24     -0.22      0.54
    0    4   24     -0.13     -1.14
   -2    4   24     -1.21     -3.86
   -4    4   24      0.71     -3.93
   -6    4   24      1.13     -3.90
   -8    4   24      2.23     -1.03
  -10    4   24      0.32      0.30
  -12    4   24     -0.81      2.33
  -14    4   24     -1.83      1.64
  -16    4   24     -2.48      0.57
  -18    4   24     -1.65     -0.89
  -20    4   24     -1.53     -2.76
  -22    4   24     -0.20     -3.21
  -24    4   24      0.13     -3.18
  -26    4   24     -0.09     -1.19
  -28    4   24     -0.72     -0.76
    3    5   24      0.30      1.65
    1    5   24     -1.92      1.21
   -1    5   24     -2.48      0.59
   -3    5   24     -2.49     -0.92
   -5    5   24     -1.02     -0.26
   -7    5   24     -1.34      1.26
   -9    5   24      1.01      2.50
  -11    5   24      2.70      3.55
  -13    5   24      4.52      2.38
  -15    5   24      2.50      1.65
  -17    5   24      0.21      0.77
  -19    5   24     -0.97     -0.57
  -21    5   24     -1.18      0.10
  -23    5   24      0.35     -0.28
  -25    5   24     -0.34      0.78
    0    6   24      0.30     -2.61
   -2    6   24      2.25     -2.24
   -4    6   24      3.41     -1.72
   -6    6   24      5.21      0.25
   -8    6   24      5.75     -0.43
  -10    6   24      4.18     -0.51
  -12    6   24      2.21     -0.68
  -14    6   24     -0.13      0.23
  -16    6   24      0.09      0.46
  -18    6   24     -0.19     -0.46
  -20    6   24      0.34     -0.97
  -22    6   24      1.30     -1.48
   -3    7   24      1.20      0.31
   -5    7   24      0.74      0.69
   -7    7   24     -0.21      0.86
   -9    7   24     -0.36      0.45
  -11    7   24      0.67      0.27
  -13    7   24      1.72      0.14
  -15    7   24      1.68      0.75
  -17    7   24      0.55      0.44
  -19    7   24     -0.07      0.55
    9    1   23      0.68     -0.93
    7    1   23      0.38     -3.07
    5    1   23      0.18      0.69
    3    1   23     -1.63     -1.18
    1    1   23     -1.05      2.04
   -1    1   23      1.55      0.97
   -3    1   23      2.38      4.19
   -5    1   23      2.81      3.12
   -7    1   23     -1.82      2.41
   -9    1   23      1.82      2.08
  -11    1   23     -1.43      3.38
  -13    1   23      1.54      4.75
  -15    1   23     -1.69      5.10
  -17    1   23     -0.64      6.13
  -19    1   23     -2.67      6.23
  -21    1   23     -5.94      5.63
  -23    1   23     -6.48      3.56
  -25    1   23     -4.97      4.08
  -27    1   23     -0.67      2.40
  -29    1   23      2.32      2.91
  -31    1   23      3.42     -0.20
    8    2   23     -0.13      2.67
    6    2   23     -0.82      1.87
    4    2   23      0.47      0.35
    2    2   23      1.24      0.49
    0    2   23      1.23     -0.74
   -2    2   23      1.09     -2.17
   -4    2   23      0.32     -3.01
   -6    2   23      2.26     -2.55
   -8    2   23      0.61      0.28
  -10    2   23      1.42      0.52
  -12    2   23     -0.01      2.32
  -14    2   23      2.82      1.20
  -16    2   23      2.06      1.31
  -18    2   23      0.94      1.17
  -20    2   23     -1.39      1.30
  -22    2   23     -1.93      2.59
  -24    2   23     -2.69      0.84
  -26    2   23     -3.07     -0.91
  -28    2   23     -3.94     -3.10
  -30    2   23     -2.60     -3.77
    7    3   23     -0.93     -2.68
    5    3   23      0.56     -1.54
    3    3   23     -1.15      2.13
    1    3   23     -2.53      2.42
   -1    3   23     -4.69      3.72
   -3    3   23     -4.22      5.44
   -5    3   23     -5.32      4.42
   -7    3   23     -1.30      1.54
   -9    3   23      0.69     -1.84
  -11    3   23      4.53     -1.04
  -13    3   23      1.19     -0.39
  -15    3   23     -1.92     -0.02
  -17    3   23     -4.44     -0.99
  -19    3   23     -4.74     -2.39
  -21    3   23     -3.19     -3.19
  -23    3   23     -2.59     -3.20
  -25    3   23     -1.79     -1.19
  -27    3   23     -1.62      0.06
  -29    3   23     -0.77      0.15
    6    4   23      0.58      0.83
    4    4   23      2.20     -0.13
    2    4   23      1.61     -0.44
    0    4   23     -0.30     -0.72
   -2    4   23     -3.20     -3.18
   -4    4   23     -3.27     -4.35
   -6    4   23     -4.15     -2.80
   -8    4   23     -0.64      0.24
  -10    4   23     -0.67      3.78
  -12    4   23      0.40      2.95
  -14    4   23     -1.64      1.78
  -16    4   23     -1.12     -0.30
  -18    4   23     -0.88     -2.05
  -20    4   23     -0.85     -1.70
  -22    4   23      0.16     -2.82
  -24    4   23      0.07     -0.95
  -26    4   23      0.28     -0.71
  -28    4   23     -0.91     -0.24
    5    5   23     -1.68     -0.26
    3    5   23     -1.48      0.40
    1    5   23     -1.39     -0.55
   -1    5   23      1.62      0.97
   -3    5   23      2.65      1.87
   -5    5   23      3.76      3.33
   -7    5   23      2.23      0.05
   -9    5   23      1.31     -2.36
  -11    5   23      1.53     -4.06
  -13    5   23      2.06     -1.67
  -15    5   23      2.30      0.68
  -17    5   23      0.48      1.59
  -19    5   23      1.00      1.16
  -21    5   23      2.86      0.19
  -23    5   23      3.57      1.22
  -25    5   23      2.51      0.98
  -27    5   23     -0.07      1.10
    4    6   23     -1.04     -1.81
    2    6   23     -0.09     -2.79
    0    6   23      0.34     -2.97
   -2    6   23      1.72     -1.10
   -4    6   23      0.26     -0.33
   -6    6   23     -0.79      0.13
   -8    6   23     -2.42     -0.40
  -10    6   23     -2.37      0.09
  -12    6   23     -2.67      0.39
  -14    6   23     -2.20      0.00
  -16    6   23     -1.05     -1.69
  -18    6   23      0.03     -1.69
  -20    6   23      0.29     -2.41
  -22    6   23     -1.11     -1.33
  -24    6   23     -0.23     -1.57
    1    7   23      0.59      1.44
   -1    7   23      0.68      0.70
   -3    7   23     -0.13      0.12
   -5    7   23     -1.42     -0.88
   -7    7   23     -2.03     -0.32
   -9    7   23     -1.22     -0.66
  -11    7   23     -0.53     -0.93
  -13    7   23      1.16     -1.17
  -15    7   23      1.66     -0.47
  -17    7   23      2.15      0.71
  -19    7   23      2.41      1.19
  -21    7   23      2.08      1.90
   -4    8   23     -1.55      1.14
   -6    8   23     -1.09      0.32
   -8    8   23     -1.24      0.08
  -10    8   23     -0.89     -0.60
  -12    8   23     -0.87     -0.21
  -14    8   23     -0.31     -0.74
  -16    8   23     -0.37     -0.48
    6    0   22     -2.13      1.65
    4    0   22     -0.67     -0.28
    2    0   22      1.22      2.95
    0    0   22      2.54     -1.23
   -2    0   22      2.97     -1.24
   -4    0   22      3.53     -3.21
   -6    0   22      1.14     -1.71
   -8    0   22      5.13     -0.57
  -10    0   22      1.12      2.56
  -12    0   22      1.68      5.40
  -14    0   22     -3.17      7.88
  -16    0   22     -0.18      8.72
  -18    0   22      0.69      8.77
  -20    0   22     -0.93      9.25
  -22    0   22     -3.42      8.68
  -24    0   22     -4.83      7.96
  -26    0   22     -2.31      2.37
  -28    0   22      1.04      0.08
  -30    0   22      2.52     -3.39
  -32    0   22      1.29     -0.61
    9    1   22      1.57     -0.56
    7    1   22      1.19     -0.92
    5    1   22      0.58     -1.03
    3    1   22     -1.78     -0.34
    1    1   22     -2.81     -0.15
   -1    1   22     -2.00      0.77
   -3    1   22     -1.47      2.50
   -5    1   22     -0.76      3.02
   -7    1   22     -2.37      3.56
   -9    1   22     -1.24      2.57
  -11    1   22     -1.15      2.28
  -13    1   22      1.56     -1.29
  -15    1   22      1.45     -3.34
  -17    1   22      0.59     -2.01
  -19    1   22     -2.78      1.34
  -21    1   22     -4.34      3.48
  -23    1   22     -4.40      1.34
  -25    1   22     -2.21      0.18
  -27    1   22     -1.58     -0.51
  -29    1   22     -0.44     -0.12
  -31    1   22     -0.81      0.06
  -33    1   22     -0.17     -0.06
   12    2   22     -1.68      3.00
   10    2   22     -4.30      1.32
    8    2   22     -5.05      2.10
    6    2   22     -1.51     -0.60
    4    2   22      1.81      1.97
    2    2   22      2.80      0.59
    0    2   22      0.46      1.43
   -2    2   22     -0.62     -0.57
   -4    2   22     -1.74     -2.03
   -6    2   22      1.66     -3.90
   -8    2   22      0.64     -4.79
  -10    2   22      3.23     -3.93
  -12    2   22     -1.57     -2.07
  -14    2   22     -2.60     -0.18
  -16    2   22     -4.63      0.33
  -18    2   22     -3.00     -0.98
  -20    2   22     -1.21     -3.10
  -22    2   22     -1.37     -4.27
  -24    2   22     -1.61     -3.69
  -26    2   22     -2.01     -0.99
  -28    2   22     -1.64      0.38
  -30    2   22     -0.84      2.04
  -32    2   22     -0.05      0.86
    9    3   22     -0.90      0.76
    7    3   22      0.65     -1.63
    5    3   22     -0.79     -2.68
    3    3   22     -1.68     -2.25
    1    3   22     -3.11     -0.03
   -1    3   22     -5.14      2.30
   -3    3   22     -5.86      3.96
   -5    3   22     -8.11      4.78
   -7    3   22     -4.30      3.10
   -9    3   22     -3.45      2.86
  -11    3   22      0.36      0.50
  -13    3   22     -0.89      0.87
  -15    3   22     -0.06     -0.34
  -17    3   22     -1.39     -1.87
  -19    3   22     -1.13     -1.56
  -21    3   22     -0.48     -1.73
  -23    3   22      0.43      1.43
  -25    3   22      0.21      0.81
  -27    3   22      0.57      0.80
  -29    3   22      0.69      0.64
  -31    3   22      2.15      1.34
    8    4   22     -0.66      0.93
    6    4   22     -2.11      2.15
    4    4   22     -0.41      1.24
    2    4   22      0.49     -0.45
    0    4   22      4.10     -1.63
   -2    4   22      4.35     -3.03
   -4    4   22      5.39     -2.20
   -6    4   22      2.74     -2.57
   -8    4   22      1.43     -0.35
  -10    4   22     -1.72      1.04
  -12    4   22     -1.88      3.18
  -14    4   22     -1.23      2.95
  -16    4   22      0.62      2.27
  -18    4   22      3.15      1.43
  -20    4   22      4.47      0.12
  -22    4   22      4.19     -0.50
  -24    4   22      3.11     -2.18
  -26    4   22      1.96     -1.20
  -28    4   22      1.27     -0.92
  -30    4   22      0.80      0.59
    9    5   22      1.02     -0.40
    7    5   22     -0.22     -1.01
    5    5   22     -0.50     -1.04
    3    5   22     -0.63     -1.80
    1    5   22     -0.33     -1.19
   -1    5   22      1.51      0.85
   -3    5   22      0.29      1.69
   -5    5   22     -0.15      2.23
   -7    5   22     -4.06      2.17
   -9    5   22     -3.89      1.38
  -11    5   22     -3.73     -0.56
  -13    5   22     -0.83     -2.81
  -15    5   22      0.56     -4.12
  -17    5   22      1.71     -2.66
  -19    5   22      2.21     -2.05
  -21    5   22      0.51      1.38
  -23    5   22     -0.52      0.87
  -25    5   22     -2.34      0.48
  -27    5   22     -0.88     -1.77
  -29    5   22     -0.33     -1.76
    6    6   22      0.45      1.33
    4    6   22      0.48      0.34
    2    6   22      2.13      0.74
    0    6   22      2.16      0.60
   -2    6   22      0.74      2.20
   -4    6   22     -1.62      1.76
   -6    6   22     -1.20      1.77
   -8    6   22      0.15      0.43
  -10    6   22     -0.43      1.35
  -12    6   22     -1.60      1.92
  -14    6   22     -2.86      2.22
  -16    6   22     -1.67      0.99
  -18    6   22     -0.10      0.29
  -20    6   22      0.94      1.39
  -22    6   22      2.02      2.50
  -24    6   22      0.58      3.73
  -26    6   22      0.67      2.60
    3    7   22      1.06      0.48
    1    7   22      2.17      1.82
   -1    7   22      0.05      2.59
   -3    7   22     -1.16      2.97
   -5    7   22     -2.41      1.01
   -7    7   22     -1.73      1.03
   -9    7   22     -0.51      0.40
  -11    7   22      0.24      0.59
  -13    7   22      0.67     -1.35
  -15    7   22      0.35     -1.73
  -17    7   22      0.33     -2.27
  -19    7   22      0.01     -1.46
  -21    7   22     -0.18     -1.39
  -23    7   22     -1.04     -1.05
  -25    7   22     -0.41     -0.99
    0    8   22     -0.67      0.37
   -2    8   22      0.63      0.83
   -4    8   22      1.13      0.88
   -6    8   22      1.66      0.26
   -8    8   22      0.95      0.33
  -10    8   22      0.62      0.25
  -12    8   22     -0.78      0.66
  -14    8   22     -1.39      0.79
  -16    8   22     -1.47      0.59
  -18    8   22     -0.70      0.69
  -20    8   22      1.00      1.05
   -7    9   22      0.91     -0.28
   -9    9   22      0.93      0.55
  -11    9   22      0.98      0.89
  -13    9   22      0.12      2.12
   11    1   21     -1.82     -1.76
    9    1   21     -2.37     -0.38
    7    1   21     -0.69     -4.38
    5    1   21      0.32     -2.37
    3    1   21      0.33     -4.27
    1    1   21     -0.56     -0.79
   -1    1   21     -1.11     -0.56
   -3    1   21     -1.78      0.30
   -5    1   21     -0.56     -1.84
   -7    1   21     -2.21     -4.01
   -9    1   21      1.61     -6.23
  -11    1   21     -0.25     -5.54
  -13    1   21      1.01     -3.84
  -15    1   21     -2.41     -1.36
  -17    1   21     -2.94     -1.89
  -19    1   21     -3.24     -4.75
  -21    1   21     -3.87     -7.08
  -23    1   21     -3.03     -6.88
  -25    1   21     -1.35     -2.16
  -27    1   21      0.65      0.52
  -29    1   21      1.96      3.58
  -31    1   21      2.04      1.51
  -33    1   21      1.79      2.50
   12    2   21     -0.05      2.99
   10    2   21      0.68      4.61
    8    2   21      1.75      5.30
    6    2   21     -0.93      5.46
    4    2   21     -0.79      3.67
    2    2   21     -0.98      2.79
    0    2   21     -2.17      2.74
   -2    2   21     -3.67      1.11
   -4    2   21     -4.95     -0.09
   -6    2   21     -0.98     -0.65
   -8    2   21     -1.54      2.75
  -10    2   21      0.01      2.93
  -12    2   21     -1.06      4.32
  -14    2   21      1.14      3.05
  -16    2   21     -0.59      0.77
  -18    2   21     -0.05     -1.86
  -20    2   21      2.41     -4.07
  -22    2   21      6.88     -1.09
  -24    2   21      6.01     -0.31
  -26    2   21      4.21      1.06
  -28    2   21      1.14      1.16
  -30    2   21      2.18      1.78
  -32    2   21      1.52      1.92
   11    3   21      0.45     -3.84
    9    3   21      1.24     -7.08
    7    3   21     -0.60     -3.96
    5    3   21     -1.02     -3.10
    3    3   21     -3.02     -1.84
    1    3   21     -0.94     -3.68
   -1    3   21      0.91     -4.12
   -3    3   21      5.06     -1.96
   -5    3   21      4.59     -0.27
   -7    3   21      5.16      0.97
   -9    3   21      2.41      0.33
  -11    3   21      4.23      0.18
  -13    3   21      3.57      0.24
  -15    3   21      3.92      0.46
  -17    3   21      3.40     -0.26
  -19    3   21      3.30     -2.26
  -21    3   21      2.53     -3.42
  -23    3   21      1.06     -4.60
  -25    3   21      0.52     -4.07
  -27    3   21      1.56     -3.73
  -29    3   21      2.19     -1.44
  -31    3   21      1.21      1.08
  -33    3   21      0.19      1.73
   10    4   21      1.57      1.14
    8    4   21      1.35      3.14
    6    4   21      2.76      3.56
    4    4   21      1.78      1.78
    2    4   21      2.27      0.52
    0    4   21      2.52     -1.36
   -2    4   21     -0.37     -4.52
   -4    4   21     -0.33     -7.03
   -6    4   21     -2.52     -4.93
   -8    4   21      0.41     -0.80
  -10    4   21     -1.68      3.45
  -12    4   21     -1.77      2.96
  -14    4   21     -3.53      0.17
  -16    4   21     -1.16     -1.96
  -18    4   21      1.27     -3.44
  -20    4   21      2.32      0.70
  -22    4   21      1.31      1.19
  -24    4   21     -0.38      2.16
  -26    4   21     -0.56     -1.06
  -28    4   21      0.28     -1.66
  -30    4   21      0.18     -1.01
  -32    4   21     -0.39     -0.20
   11    5   21      0.50     -2.59
    9    5   21      0.95     -3.15
    7    5   21      2.32     -2.75
    5    5   21      1.10     -1.28
    3    5   21      1.58      0.09
    1    5   21      0.12      0.61
   -1    5   21      1.07      2.85
   -3    5   21      1.52      3.03
   -5    5   21      4.19      3.36
   -7    5   21      3.60      0.82
   -9    5   21      1.72     -0.80
  -11    5   21     -0.48     -3.01
  -13    5   21     -0.71     -2.57
  -15    5   21     -0.59     -1.28
  -17    5   21     -1.18      0.81
  -19    5   21     -1.27      1.86
  -21    5   21      0.93      1.47
  -23    5   21      1.66      2.33
  -25    5   21      2.15      1.36
  -27    5   21      1.32      2.08
  -29    5   21      0.65      1.28
    8    6   21     -0.32      1.43
    6    6   21     -0.60     -0.13
    4    6   21      0.32     -0.36
    2    6   21      1.13     -0.61
    0    6   21     -1.12     -0.84
   -2    6   21     -1.52     -1.12
   -4    6   21     -3.21     -2.73
   -6    6   21     -0.97     -2.78
   -8    6   21      0.21     -2.73
  -10    6   21      2.19      0.10
  -12    6   21      1.10      1.34
  -14    6   21     -0.63      2.05
  -16    6   21     -1.41     -0.27
  -18    6   21     -1.47     -0.30
  -20    6   21     -1.68     -1.01
  -22    6   21     -3.75      0.04
  -24    6   21     -2.76     -1.22
  -26    6   21     -1.63     -1.21
  -28    6   21      1.35     -1.35
    7    7   21      0.68      0.03
    5    7   21      1.26      1.30
    3    7   21      1.10      2.09
    1    7   21      0.25      3.40
   -1    7   21      0.72      2.07
   -3    7   21      0.99      0.67
   -5    7   21      1.32     -0.41
   -7    7   21      0.66      0.34
   -9    7   21      0.44     -0.08
  -11    7   21     -1.01     -0.29
  -13    7   21     -1.26     -0.72
  -15    7   21     -1.27     -0.05
  -17    7   21     -0.72      0.36
  -19    7   21      0.71      0.77
  -21    7   21      0.18      0.96
  -23    7   21      0.91     -0.15
  -25    7   21     -0.96     -0.55
    4    8   21     -1.57     -1.15
    2    8   21     -2.51     -1.98
    0    8   21     -1.37     -2.95
   -2    8   21     -0.58     -3.85
   -4    8   21      1.50     -1.97
   -6    8   21      2.01     -1.71
   -8    8   21      0.82      0.22
  -10    8   21      0.46     -0.01
  -12    8   21      0.38      1.59
  -14    8   21      1.11      1.28
  -16    8   21      0.72      1.51
  -18    8   21      0.04      1.21
  -20    8   21     -1.08      0.09
  -22    8   21     -1.65      0.08
   -1    9   21     -0.57      0.26
   -3    9   21     -0.52      0.56
   -5    9   21     -1.67      0.74
   -7    9   21     -1.48      0.21
   -9    9   21     -1.19      0.29
  -11    9   21     -0.29      0.17
  -13    9   21     -0.94      0.21
  -15    9   21     -1.35     -0.78
  -17    9   21     -0.68     -1.38
    8    0   20     -2.94     -0.49
    6    0   20     -3.19      0.72
    4    0   20     -0.35     -3.84
    2    0   20      2.37     -1.84
    0    0   20      2.44     -1.21
   -2    0   20     -0.28      0.47
   -4    0   20     -3.37     -0.52
   -6    0   20     -6.47     -2.44
   -8    0   20     -4.87     -5.92
  -10    0   20     -5.34     -6.72
  -12    0   20     -1.39     -4.04
  -14    0   20     -1.89      2.98
  -16    0   20     -3.39      4.34
  -18    0   20     -6.09     -0.95
  -20    0   20     -6.85     -6.79
  -22    0   20     -3.59     -6.62
  -24    0   20     -1.20     -1.03
  -26    0   20     -0.15      1.00
  -28    0   20      0.12      2.84
  -30    0   20      0.03      0.79
  -32    0   20      0.22      2.26
  -34    0   20      0.55      0.15
   11    1   20      2.37      0.95
    9    1   20      3.63     -0.15
    7    1   20      1.94      0.17
    5    1   20      0.47     -0.12
    3    1   20     -1.46      0.14
    1    1   20     -1.21      1.70
   -1    1   20     -0.28      3.37
   -3    1   20      0.04      4.68
   -5    1   20      1.47      3.84
   -7    1   20      0.53      3.77
   -9    1   20      1.94      1.57
  -11    1   20      3.31      0.44
  -13    1   20      6.49     -1.34
  -15    1   20      5.01     -1.10
  -17    1   20      2.47     -0.22
  -19    1   20      0.46     -1.07
  -21    1   20      2.45     -1.43
  -23    1   20      3.08     -2.65
  -25    1   20      4.29     -1.33
  -27    1   20      3.06     -0.59
  -29    1   20      3.79     -0.50
  -31    1   20      2.65     -1.63
  -33    1   20      3.18     -2.96
  -35    1   20      2.50     -2.41
   12    2   20     -1.00     -1.91
   10    2   20     -1.83     -3.49
    8    2   20     -3.62      1.69
    6    2   20     -1.36      1.76
    4    2   20      0.14      3.89
    2    2   20      2.66      1.37
    0    2   20      2.44     -0.11
   -2    2   20      2.99     -1.51
   -4    2   20      2.33     -1.37
   -6    2   20      3.49      0.71
   -8    2   20      1.16      2.67
  -10    2   20      2.50      2.59
  -12    2   20      1.06      2.56
  -14    2   20      1.82      2.42
  -16    2   20      0.95      2.40
  -18    2   20      1.00      0.24
  -20    2   20      1.25     -2.30
  -22    2   20      0.16     -4.27
  -24    2   20     -1.25     -4.85
  -26    2   20     -2.06     -4.20
  -28    2   20     -2.42     -2.89
  -30    2   20     -2.53     -0.46
  -32    2   20     -2.58     -0.64
  -34    2   20     -2.46      0.03
   15    3   20     -0.36     -0.17
   13    3   20     -1.04     -1.05
   11    3   20      2.45     -3.09
    9    3   20      3.50     -3.99
    7    3   20      5.64     -5.13
    5    3   20      2.31     -5.18
    3    3   20      1.38     -4.45
    1    3   20      0.57     -4.10
   -1    3   20     -0.28     -3.10
   -3    3   20      0.70     -2.35
   -5    3   20     -1.80     -0.11
   -7    3   20      0.33     -0.47
   -9    3   20     -1.62      0.60
  -11    3   20     -0.37     -0.86
  -13    3   20     -1.93     -1.24
  -15    3   20     -0.02     -2.03
  -17    3   20      0.14     -2.81
  -19    3   20      0.91      0.74
  -21    3   20      0.00      1.80
  -23    3   20      0.64      4.55
  -25    3   20     -1.09      1.84
  -27    3   20     -0.84     -0.02
  -29    3   20     -2.32     -0.88
  -31    3   20     -1.40      0.27
  -33    3   20     -2.61      2.64
   12    4   20     -1.74     -0.38
   10    4   20     -3.27      1.66
    8    4   20     -2.29      1.04
    6    4   20     -2.27      2.27
    4    4   20      0.83      2.13
    2    4   20      0.51      2.41
    0    4   20      1.82      2.33
   -2    4   20      0.61      0.44
   -4    4   20      2.02     -0.48
   -6    4   20      0.66     -2.24
   -8    4   20      0.85     -2.03
  -10    4   20     -1.23     -0.97
  -12    4   20     -1.52      1.22
  -14    4   20     -2.48      2.61
  -16    4   20     -1.78      4.58
  -18    4   20     -1.38      6.27
  -20    4   20     -0.52      5.12
  -22    4   20     -0.28      2.69
  -24    4   20      2.17     -0.75
  -26    4   20      3.77      1.09
  -28    4   20      2.91      1.71
  -30    4   20      0.44      2.04
  -32    4   20     -1.48      0.01
   11    5   20     -0.34      0.14
    9    5   20      1.08     -0.42
    7    5   20     -0.54     -2.39
    5    5   20      0.82     -2.56
    3    5   20      0.11     -2.03
    1    5   20     -2.07      0.45
   -1    5   20     -1.39      1.62
   -3    5   20     -2.25      1.23
   -5    5   20      0.43      0.72
   -7    5   20     -1.76      0.28
   -9    5   20     -0.16     -0.42
  -11    5   20     -0.40     -2.14
  -13    5   20      1.80     -2.08
  -15    5   20      2.25     -1.86
  -17    5   20      2.06      1.00
  -19    5   20      0.19      0.13
  -21    5   20     -2.04      1.11
  -23    5   20     -1.65     -1.21
  -25    5   20     -0.85     -0.40
  -27    5   20      0.22     -0.96
  -29    5   20     -0.24     -0.67
  -31    5   20     -0.21     -1.25
   10    6   20     -1.49      0.60
    8    6   20     -1.39      1.09
    6    6   20     -0.69      2.19
    4    6   20     -1.00      3.07
    2    6   20     -1.16      3.24
    0    6   20     -1.80      0.11
   -2    6   20     -1.31     -1.40
   -4    6   20     -0.71     -1.68
   -6    6   20      0.44     -0.64
   -8    6   20      1.12     -1.36
  -10    6   20      1.26     -0.58
  -12    6   20      1.25      0.68
  -14    6   20      0.84      2.61
  -16    6   20     -0.55      2.19
  -18    6   20     -0.96      1.64
  -20    6   20     -2.43      0.78
  -22    6   20     -0.90     -0.67
  -24    6   20     -1.23      0.02
  -26    6   20     -0.54     -0.06
  -28    6   20     -0.56      1.12
  -30    6   20     -0.85     -0.14
    9    7   20     -0.05     -1.97
    7    7   20     -0.27     -1.18
    5    7   20     -0.39     -0.93
    3    7   20     -1.34     -0.01
    1    7   20     -1.02     -0.22
   -1    7   20     -2.13     -1.58
   -3    7   20      0.05     -1.66
   -5    7   20      0.27     -2.03
   -7    7   20      1.10      0.86
   -9    7   20      0.69      0.83
  -11    7   20      1.06      1.47
  -13    7   20      1.99     -0.81
  -15    7   20      3.15     -0.52
  -17    7   20      4.12      0.10
  -19    7   20      2.79      1.14
  -21    7   20      1.33      0.56
  -23    7   20      0.03     -0.83
  -25    7   20      1.79     -1.78
  -27    7   20      1.59     -0.90
    6    8   20      1.24     -0.97
    4    8   20      0.02     -0.25
    2    8   20     -0.97      0.06
    0    8   20     -2.56      0.59
   -2    8   20     -1.09      0.05
   -4    8   20     -0.41     -0.25
   -6    8   20      0.55     -0.50
   -8    8   20     -0.29     -0.13
  -10    8   20      0.07     -1.07
  -12    8   20     -0.21     -1.35
  -14    8   20     -0.22     -1.53
  -16    8   20     -0.45     -0.35
  -18    8   20     -1.61      0.06
  -20    8   20     -0.49     -0.08
  -22    8   20     -0.93     -0.03
  -24    8   20      0.28     -0.60
    1    9   20      1.60      0.82
   -1    9   20      1.06      1.67
   -3    9   20     -1.12      1.52
   -5    9   20     -1.59      2.39
   -7    9   20     -0.70      0.09
   -9    9   20     -0.67      0.19
  -11    9   20     -0.42     -1.01
  -13    9   20     -0.20     -0.21
  -15    9   20      1.04     -0.12
  -17    9   20      1.15      0.01
  -19    9   20      0.57      0.86
  -21    9   20      0.02     -0.72
   -6   10   20      0.65     -0.98
   -8   10   20      0.33     -0.76
  -10   10   20     -0.41     -0.32
  -12   10   20     -0.35     -1.41
   11    1   19      0.05     -3.67
    9    1   19     -1.92     -0.07
    7    1   19      0.85     -2.19
    5    1   19      1.09      1.44
    3    1   19      1.75      0.77
    1    1   19      1.18      0.75
   -1    1   19      2.27      0.04
   -3    1   19      3.95      0.46
   -5    1   19      4.92      1.91
   -7    1   19      4.18      2.30
   -9    1   19      5.28      1.42
  -11    1   19      2.52      1.52
  -13    1   19      0.55     -0.42
  -15    1   19      0.34     -1.55
  -17    1   19      3.28     -1.59
  -19    1   19      4.51      0.22
  -21    1   19     -0.13      1.36
  -23    1   19     -3.84      0.00
  -25    1   19     -4.42     -0.67
  -27    1   19     -2.81     -1.88
  -29    1   19     -1.99     -0.42
  -31    1   19     -2.08     -0.82
  -33    1   19     -2.24      1.68
  -35    1   19     -2.12      0.86
   14    2   19     -3.32      0.24
   12    2   19     -1.36     -1.08
   10    2   19     -0.66     -1.29
    8    2   19      1.91     -2.24
    6    2   19      0.47     -1.92
    4    2   19      1.69     -2.30
    2    2   19      0.95     -2.54
    0    2   19     -0.38     -2.12
   -2    2   19     -1.99     -2.40
   -4    2   19     -4.38     -1.34
   -6    2   19     -2.09     -0.71
   -8    2   19     -2.28      3.80
  -10    2   19     -2.15      6.06
  -12    2   19     -5.61      6.87
  -14    2   19     -5.87      3.11
  -16    2   19     -5.29     -0.77
  -18    2   19     -1.34      0.73
  -20    2   19      1.00      2.61
  -22    2   19      3.67      5.33
  -24    2   19      0.15      3.29
  -26    2   19     -1.61      2.28
  -28    2   19     -4.90      1.65
  -30    2   19     -2.33      0.99
  -32    2   19     -1.42      1.11
  -34    2   19      0.84      0.33
   15    3   19     -0.05      3.17
   13    3   19      1.73      0.97
   11    3   19      0.79      2.59
    9    3   19     -0.01     -0.86
    7    3   19     -2.93     -0.34
    5    3   19     -1.80     -1.52
    3    3   19     -3.39      0.22
    1    3   19     -1.63      0.56
   -1    3   19      0.08      0.84
   -3    3   19      3.75      2.84
   -5    3   19      2.09      2.85
   -7    3   19     -0.16      0.80
   -9    3   19     -3.69     -1.48
  -11    3   19     -2.87     -2.56
  -13    3   19     -1.94     -2.06
  -15    3   19      1.93     -0.51
  -17    3   19      4.94      2.73
  -19    3   19      5.02      5.05
  -21    3   19      1.91      5.04
  -23    3   19      1.33      1.59
  -25    3   19      3.48      0.88
  -27    3   19      4.33      0.54
  -29    3   19      1.81      1.94
  -31    3   19     -1.28      2.42
  -33    3   19     -1.84      2.15
   14    4   19     -0.98     -1.11
   12    4   19     -1.98      1.99
   10    4   19      0.27      4.77
    8    4   19     -1.86      5.47
    6    4   19      0.35      3.86
    4    4   19      0.10      1.78
    2    4   19      1.75      2.31
    0    4   19      3.04      2.68
   -2    4   19     -0.28      2.95
   -4    4   19     -1.33      2.02
   -6    4   19     -4.84      2.17
   -8    4   19     -1.15      1.42
  -10    4   19     -0.51      1.94
  -12    4   19      1.15      2.38
  -14    4   19     -0.41      1.27
  -16    4   19      0.44      1.13
  -18    4   19      0.31     -0.69
  -20    4   19      0.04      2.16
  -22    4   19     -1.62      1.06
  -24    4   19     -1.06      2.30
  -26    4   19     -1.38      1.18
  -28    4   19     -0.91      0.10
  -30    4   19     -1.71     -3.50
  -32    4   19     -0.34     -7.69
   13    5   19      1.66      1.08
   11    5   19      1.47     -0.02
    9    5   19      0.01      0.24
    7    5   19     -0.09      0.23
    5    5   19     -1.46      1.10
    3    5   19     -1.36      1.11
    1    5   19     -2.23      0.36
   -1    5   19      0.23      1.64
   -3    5   19      2.33      2.79
   -5    5   19      4.70      3.87
   -7    5   19      2.79      2.84
   -9    5   19      0.24      0.76
  -11    5   19     -1.58     -2.50
  -13    5   19      0.32     -3.92
  -15    5   19      1.16     -3.66
  -17    5   19      1.48     -1.36
  -19    5   19     -0.86     -0.62
  -21    5   19      0.37     -2.03
  -23    5   19      0.40     -0.96
  -25    5   19      0.74     -0.23
  -27    5   19     -0.98      2.72
  -29    5   19     -2.89      1.84
  -31    5   19     -2.67      1.35
   12    6   19      1.30     -1.16
   10    6   19      0.07     -0.25
    8    6   19      0.48      1.47
    6    6   19     -1.37      1.26
    4    6   19     -1.16      1.62
    2    6   19     -0.03     -0.34
    0    6   19     -1.16     -1.50
   -2    6   19      0.22     -1.40
   -4    6   19     -2.14     -0.91
   -6    6   19     -0.43      0.40
   -8    6   19     -0.33     -0.04
  -10    6   19      2.74      1.58
  -12    6   19      2.83      1.23
  -14    6   19      2.32      1.74
  -16    6   19      1.36     -0.45
  -18    6   19      1.01     -0.57
  -20    6   19      0.78     -0.98
  -22    6   19     -0.70      0.78
  -24    6   19     -0.22      0.27
  -26    6   19      0.06      0.38
  -28    6   19      1.47     -1.00
  -30    6   19      1.22     -1.14
    9    7   19     -0.92     -0.24
    7    7   19     -0.01     -1.34
    5    7   19     -0.76     -1.76
    3    7   19     -0.61     -2.08
    1    7   19      0.52     -0.17
   -1    7   19      2.65      1.30
   -3    7   19      1.92      2.19
   -5    7   19      0.96      1.74
   -7    7   19      0.00      1.29
   -9    7   19     -0.27     -0.26
  -11    7   19     -1.56     -1.32
  -13    7   19     -2.08     -2.74
  -15    7   19     -0.62     -1.71
  -17    7   19     -0.53     -1.14
  -19    7   19      1.82     -0.32
  -21    7   19      1.85     -0.11
  -23    7   19      3.96     -0.62
  -25    7   19      2.51      0.77
  -27    7   19      0.60      1.19
  -29    7   19     -0.67      2.09
    8    8   19      0.61      0.55
    6    8   19     -0.52      1.08
    4    8   19     -0.03      0.35
    2    8   19      0.01     -0.81
    0    8   19      1.29     -0.65
   -2    8   19      0.22     -0.11
   -4    8   19      0.73      1.62
   -6    8   19      0.03     -0.22
   -8    8   19     -0.72      0.99
  -10    8   19     -1.36     -0.35
  -12    8   19     -1.06      0.31
  -14    8   19      0.18     -0.39
  -16    8   19     -0.07      0.22
  -18    8   19     -1.10      0.93
  -20    8   19     -2.94     -0.94
  -22    8   19     -2.73     -1.37
  -24    8   19     -1.92     -0.98
  -26    8   19     -0.38      0.18
    5    9   19      0.69     -0.13
    3    9   19      0.10     -1.12
    1    9   19      1.00     -1.04
   -1    9   19      0.45     -0.10
   -3    9   19      0.76      0.26
   -5    9   19     -0.38      0.29
   -7    9   19      0.14     -0.31
   -9    9   19      0.47      0.21
  -11    9   19      1.18      0.05
  -13    9   19      0.68      0.71
  -15    9   19     -0.29     -0.25
  -17    9   19      0.40     -0.36
  -19    9   19      0.81      0.37
  -21    9   19      2.79      1.71
  -23    9   19      2.13      2.97
    0   10   19     -0.35     -1.36
   -2   10   19     -0.11     -2.52
   -4   10   19     -0.05     -3.40
   -6   10   19      0.79     -0.96
   -8   10   19      1.10     -0.53
  -10   10   19      0.05      0.48
  -12   10   19     -0.30     -0.57
  -14   10   19      0.07     -0.15
  -16   10   19      0.66      1.04
    8    0   18      1.25     -0.70
    6    0   18      2.78      3.60
    4    0   18      5.85      2.73
    2    0   18      5.28      1.84
    0    0   18      4.38     -0.75
   -2    0   18      4.25     -4.00
   -4    0   18      3.82     -4.90
   -6    0   18      5.43     -5.74
   -8    0   18      8.64     -4.42
  -10    0   18      8.38      1.00
  -12    0   18      4.23      4.77
  -14    0   18     -0.15      4.23
  -16    0   18     -0.24     -1.56
  -18    0   18      3.03     -5.14
  -20    0   18      2.03     -2.87
  -22    0   18      0.95     -0.20
  -24    0   18     -1.24      1.21
  -26    0   18     -1.21     -0.79
  -28    0   18     -1.52      0.78
  -30    0   18     -0.54      1.73
  -32    0   18      0.13      5.48
  -34    0   18     -0.49      5.02
  -36    0   18     -1.68      4.00
   11    1   18      0.20     -3.31
    9    1   18      1.68     -6.33
    7    1   18      1.33     -6.00
    5    1   18      0.53     -3.57
    3    1   18     -3.96     -0.26
    1    1   18     -7.80      1.58
   -1    1   18     -9.93      1.78
   -3    1   18    -10.05      1.02
   -5    1   18     -6.95     -1.60
   -7    1   18     -3.15     -2.26
   -9    1   18      0.16     -0.78
  -11    1   18     -1.78      2.54
  -13    1   18     -6.23      1.66
  -15    1   18     -8.97     -2.06
  -17    1   18     -5.31     -2.80
  -19    1   18     -0.80     -0.72
  -21    1   18      1.96      2.51
  -23    1   18     -0.48      2.51
  -25    1   18     -0.29      2.63
  -27    1   18     -1.27      2.59
  -29    1   18      0.23      1.54
  -31    1   18     -0.36      0.65
  -33    1   18      0.78      0.04
  -35    1   18      0.81      0.53
   14    2   18     -0.39      1.50
   12    2   18     -1.63      3.33
   10    2   18     -1.07      1.10
    8    2   18     -3.45      4.95
    6    2   18     -1.01      3.19
    4    2   18     -1.32      3.93
    2    2   18      0.45      2.28
    0    2   18      0.05     -0.24
   -2    2   18      0.04     -2.27
   -4    2   18     -0.83     -4.46
   -6    2   18     -0.95     -3.93
   -8    2   18     -1.24     -1.51
  -10    2   18      0.40      0.00
  -12    2   18      1.13      1.43
  -14    2   18      2.70      1.42
  -16    2   18      4.28      1.59
  -18    2   18      5.14      1.53
  -20    2   18      5.07      0.81
  -22    2   18      3.95     -0.96
  -24    2   18      4.37     -2.08
  -26    2   18      4.48     -1.24
  -28    2   18      3.76      1.08
  -30    2   18      2.02      2.82
  -32    2   18      1.32      1.48
  -34    2   18      1.49      0.99
   15    3   18     -0.72      0.52
   13    3   18     -0.06      2.40
   11    3   18      4.68      1.47
    9    3   18      4.76      0.82
    7    3   18      6.39     -0.47
    5    3   18      2.21      0.25
    3    3   18      0.80      1.31
    1    3   18     -0.41      1.96
   -1    3   18     -1.62      2.77
   -3    3   18     -1.04      2.20
   -5    3   18     -3.15      1.13
   -7    3   18     -1.90     -2.28
   -9    3   18     -3.30     -3.42
  -11    3   18     -2.67     -3.74
  -13    3   18     -3.35     -3.28
  -15    3   18     -2.57     -2.78
  -17    3   18     -3.96     -5.10
  -19    3   18     -3.34     -3.70
  -21    3   18     -2.93     -3.16
  -23    3   18      0.98      1.16
  -25    3   18     -0.63      2.01
  -27    3   18     -0.90      0.40
  -29    3   18     -3.60     -2.38
  -31    3   18     -2.00     -4.68
  -33    3   18     -2.21     -2.94
  -35    3   18     -2.08     -1.63
   16    4   18     -1.28     -2.22
   14    4   18     -0.67     -1.79
   12    4   18     -1.61     -2.51
   10    4   18     -3.03      0.79
    8    4   18     -1.24      1.30
    6    4   18     -0.99      3.18
    4    4   18      1.02      2.17
    2    4   18      0.22      0.64
    0    4   18      1.35     -0.30
   -2    4   18      0.38     -1.37
   -4    4   18      1.34     -1.47
   -6    4   18      1.14     -1.50
   -8    4   18      2.18     -1.68
  -10    4   18      1.77     -1.70
  -12    4   18      2.36     -1.66
  -14    4   18      0.19     -0.83
  -16    4   18     -1.58      0.85
  -18    4   18     -4.08      1.22
  -20    4   18     -2.85     -0.26
  -22    4   18     -2.70      0.40
  -24    4   18     -1.62      0.49
  -26    4   18     -0.67      3.27
  -28    4   18      0.11      2.17
  -30    4   18      0.25      1.56
  -32    4   18     -0.52     -0.33
  -34    4   18     -0.01     -1.34
   15    5   18      0.71      0.78
   13    5   18      2.58     -0.73
   11    5   18      1.01     -2.30
    9    5   18      3.44     -2.93
    7    5   18      1.06     -3.00
    5    5   18      1.57     -2.29
    3    5   18      0.69     -2.96
    1    5   18     -0.45     -1.02
   -1    5   18      0.82      0.41
   -3    5   18     -1.74      0.71
   -5    5   18      0.22     -0.16
   -7    5   18     -1.54      0.04
   -9    5   18     -0.24      1.21
  -11    5   18     -2.38      0.19
  -13    5   18     -2.02      0.04
  -15    5   18     -2.23     -1.63
  -17    5   18     -1.45     -1.51
  -19    5   18     -1.08     -4.22
  -21    5   18      0.42     -2.61
  -23    5   18      0.80     -1.90
  -25    5   18     -0.38     -0.23
  -27    5   18     -1.90     -1.84
  -29    5   18     -0.72     -2.15
  -31    5   18      1.49     -0.64
  -33    5   18      2.41      1.32
   14    6   18     -1.34     -0.86
   12    6   18     -1.90     -0.39
   10    6   18     -2.13     -0.75
    8    6   18     -1.32     -1.16
    6    6   18     -1.25     -0.41
    4    6   18     -1.23     -0.08
    2    6   18     -0.39     -0.46
    0    6   18      0.50     -1.75
   -2    6   18      0.32     -0.77
   -4    6   18     -0.64      0.80
   -6    6   18     -0.79      0.82
   -8    6   18     -0.46     -0.45
  -10    6   18      0.26     -0.56
  -12    6   18     -0.08      0.04
  -14    6   18     -0.03      1.96
  -16    6   18     -3.34      1.91
  -18    6   18     -2.75      1.75
  -20    6   18     -2.70      1.18
  -22    6   18      1.28      0.92
  -24    6   18      0.96      3.10
  -26    6   18      0.44      2.76
  -28    6   18      0.86      2.75
  -30    6   18      1.65      1.59
   11    7   18      2.32      0.67
    9    7   18      0.76      0.35
    7    7   18      0.52      0.76
    5    7   18     -0.51     -1.19
    3    7   18     -0.63     -2.00
    1    7   18      1.75     -2.00
   -1    7   18      0.94     -0.20
   -3    7   18      1.53      1.50
   -5    7   18     -1.28      0.70
   -7    7   18     -1.23      2.26
   -9    7   18     -2.78      1.83
  -11    7   18     -3.05      3.12
  -13    7   18     -3.39      1.30
  -15    7   18     -2.19      0.53
  -17    7   18     -0.40     -0.07
  -19    7   18     -0.30     -0.31
  -21    7   18     -0.74     -0.11
  -23    7   18     -2.07     -0.18
  -25    7   18     -1.46     -1.10
  -27    7   18     -1.17     -0.63
  -29    7   18     -0.62     -0.61
   10    8   18      0.72      0.50
    8    8   18      1.08      0.67
    6    8   18      2.08      0.24
    4    8   18      0.79      0.42
    2    8   18      0.09      0.58
    0    8   18     -1.31      0.76
   -2    8   18      0.05      0.05
   -4    8   18      0.27     -0.27
   -6    8   18      1.00      0.28
   -8    8   18      0.87      1.11
  -10    8   18      1.91      0.15
  -12    8   18      2.89      0.38
  -14    8   18      1.78      0.60
  -16    8   18      0.95      2.13
  -18    8   18     -1.73      1.27
  -20    8   18      0.28      0.32
  -22    8   18      0.61      1.29
  -24    8   18      1.07      2.21
  -26    8   18     -0.51      2.85
    7    9   18     -1.68      0.29
    5    9   18     -2.32      0.16
    3    9   18     -1.39     -0.61
    1    9   18     -1.73     -2.20
   -1    9   18     -1.57     -2.11
   -3    9   18     -2.09     -1.59
   -5    9   18     -0.94      1.07
   -7    9   18     -0.41     -0.64
   -9    9   18     -0.74      0.34
  -11    9   18     -1.07      0.10
  -13    9   18     -1.56      1.38
  -15    9   18     -1.44      1.02
  -17    9   18     -1.51     -0.77
  -19    9   18     -0.35     -0.13
  -21    9   18      0.57     -0.74
  -23    9   18      0.94      0.13
    2   10   18     -0.54      1.50
    0   10   18     -0.03      1.48
   -2   10   18      0.36      0.41
   -4   10   18      0.93     -1.06
   -6   10   18      0.26     -0.95
   -8   10   18      0.45     -0.65
  -10   10   18      1.34      0.36
  -12   10   18      1.85     -0.11
  -14   10   18      1.92      0.64
  -16   10   18      1.17     -0.24
  -18   10   18      1.63     -0.95
  -20   10   18      0.80     -1.18
   -7   11   18     -0.71      1.81
   -9   11   18     -0.44      0.48
   11    1   17      3.11     -2.53
    7    1   17     -0.57      0.05
    5    1   17     -4.29      1.75
    3    1   17     -4.08      1.00
    1    1   17     -4.46     -0.38
   -1    1   17     -3.48     -0.50
   -3    1   17     -1.53     -1.13
   -5    1   17     -1.78      1.03
   -7    1   17     -3.59      2.41
   -9    1   17     -5.35      0.31
  -11    1   17     -4.52     -2.40
  -13    1   17     -0.65     -4.11
  -15    1   17      3.83     -2.06
  -17    1   17      4.67      1.22
  -19    1   17      3.02      1.55
  -21    1   17     -1.09      1.50
  -23    1   17     -0.40     -0.15
  -25    1   17      1.16      0.53
  -27    1   17      3.34     -0.23
  -29    1   17      1.96      1.08
  -31    1   17      0.58      0.07
  -33    1   17      0.19      0.30
  -35    1   17      0.47     -0.79
   14    2   17     -0.84      2.96
   12    2   17      2.10      3.35
   10    2   17      2.83      4.13
    8    2   17      4.77      3.13
    6    2   17      2.93      2.39
    4    2   17      4.65     -0.73
    2    2   17      5.67     -1.94
    0    2   17      5.38     -2.04
   -2    2   17      2.82     -2.36
   -4    2   17     -0.01     -2.97
   -6    2   17     -0.07     -2.16
   -8    2   17     -1.34      0.46
  -10    2   17     -2.17      0.43
  -12    2   17     -0.82     -1.17
  -14    2   17      1.28     -0.42
  -16    2   17     -1.51      0.46
  -18    2   17     -4.49      0.75
  -20    2   17     -4.10     -3.69
  -22    2   17      2.52     -4.50
  -24    2   17      1.75     -2.55
  -26    2   17      0.37     -0.06
  -28    2   17     -3.59      0.40
  -30    2   17     -2.29     -2.48
  -32    2   17     -3.39     -3.61
  -34    2   17     -2.56     -4.45
  -36    2   17     -0.70     -2.04
   15    3   17      0.26     -1.74
   13    3   17      0.72     -4.66
   11    3   17     -0.80     -2.16
    9    3   17     -0.46     -4.35
    7    3   17     -2.91     -2.50
    5    3   17     -1.81     -3.09
    3    3   17     -4.05     -2.02
    1    3   17     -3.84     -1.35
   -1    3   17     -3.13     -1.98
   -3    3   17      0.48     -1.66
   -5    3   17      2.03     -1.39
   -7    3   17      0.32     -1.78
   -9    3   17     -3.33     -2.63
  -11    3   17     -3.85     -5.07
  -13    3   17     -2.40     -4.69
  -15    3   17     -0.68     -0.68
  -17    3   17     -3.12      3.36
  -19    3   17     -6.33      4.24
  -21    3   17     -7.90      3.84
  -23    3   17     -5.79      2.58
  -25    3   17     -2.35      2.04
  -27    3   17     -0.68     -1.01
  -29    3   17      0.40     -0.57
  -31    3   17      0.71      2.39
  -33    3   17      0.32      5.29
  -35    3   17     -0.61      4.94
   18    4   17      1.24     -2.79
   16    4   17      1.08     -1.78
   14    4   17     -0.31     -1.59
   12    4   17     -4.57      0.24
   10    4   17     -2.32      0.03
    8    4   17     -2.86     -0.03
    6    4   17      0.98     -1.18
    4    4   17      1.59     -2.19
    2    4   17      2.71     -1.67
    0    4   17      2.57     -1.33
   -2    4   17     -1.87     -1.16
   -4    4   17     -2.21     -1.54
   -6    4   17     -2.33     -0.93
   -8    4   17      2.40     -0.28
  -10    4   17      3.69      0.15
  -12    4   17      4.56      2.17
  -14    4   17      2.72      2.48
  -16    4   17      1.67      3.03
  -18    4   17      0.43     -1.21
  -20    4   17      2.29     -1.83
  -22    4   17      1.68     -2.42
  -24    4   17      1.43     -0.08
  -26    4   17     -1.08      0.09
  -28    4   17      1.25     -1.25
  -30    4   17      3.02     -2.10
  -32    4   17      4.43     -3.51
  -34    4   17      3.47     -2.69
   17    5   17      0.94     -0.30
   15    5   17      1.09      0.74
   13    5   17      1.19      1.20
   11    5   17     -0.76     -1.26
    9    5   17     -2.36     -2.20
    7    5   17     -2.52     -2.68
    5    5   17     -2.73     -1.89
    3    5   17     -2.39     -0.78
    1    5   17     -3.24      0.02
   -1    5   17     -2.38      1.00
   -3    5   17     -0.97      0.50
   -5    5   17      1.33     -0.69
   -7    5   17      1.22     -0.04
   -9    5   17     -0.67      0.83
  -11    5   17     -3.59      0.58
  -13    5   17     -2.89     -0.02
  -15    5   17     -3.43      0.36
  -17    5   17     -1.82      2.86
  -19    5   17     -3.80      3.56
  -21    5   17     -1.84      0.91
  -23    5   17     -1.95     -0.22
  -25    5   17     -1.35     -2.29
  -27    5   17     -0.79     -0.93
  -29    5   17      0.65     -0.58
  -31    5   17      2.50      1.80
  -33    5   17      2.37      2.91
   16    6   17     -0.13     -0.09
   14    6   17     -1.72      0.41
   12    6   17      0.73      0.19
   10    6   17     -0.42      0.03
    8    6   17      1.67      0.11
    6    6   17      1.00     -0.48
    4    6   17      2.01      1.21
    2    6   17      1.73      0.70
    0    6   17     -2.32      0.26
   -2    6   17     -2.18     -1.50
   -4    6   17     -4.06     -1.96
   -6    6   17     -1.43     -0.80
   -8    6   17     -1.51     -0.89
  -10    6   17      2.16      0.63
  -12    6   17      3.44      0.61
  -14    6   17      4.27      1.71
  -16    6   17      3.54      0.56
  -18    6   17      3.04      0.58
  -20    6   17      1.61      1.23
  -22    6   17     -0.68      3.24
  -24    6   17     -1.77      2.47
  -26    6   17     -0.89      1.13
  -28    6   17      1.07     -1.07
  -30    6   17      2.32     -0.92
  -32    6   17      1.78     -0.19
   13    7   17      0.10      0.78
   11    7   17      0.54      0.81
    9    7   17      0.80      0.54
    7    7   17      2.11     -1.22
    5    7   17      1.00     -1.68
    3    7   17      0.79     -0.76
    1    7   17      0.23      1.15
   -1    7   17      0.97      1.05
   -3    7   17      0.39     -0.15
   -5    7   17      0.64      0.03
   -7    7   17      0.50      0.29
   -9    7   17     -0.08     -0.31
  -11    7   17     -0.67     -0.52
  -13    7   17     -2.23     -1.08
  -15    7   17     -0.66     -0.34
  -17    7   17     -2.10     -1.15
  -19    7   17      0.44     -1.04
  -21    7   17     -0.51     -0.64
  -23    7   17      0.44     -1.32
  -25    7   17     -0.93     -0.99
  -27    7   17     -1.94     -1.27
  -29    7   17     -1.79     -0.67
   12    8   17     -0.42     -1.03
   10    8   17      0.14     -1.09
    8    8   17     -1.00     -0.75
    6    8   17      0.17      0.62
    4    8   17      1.97      1.12
    2    8   17      0.55      1.82
    0    8   17     -1.37      1.45
   -2    8   17     -3.78      0.03
   -4    8   17     -1.77     -0.44
   -6    8   17     -1.43     -2.80
   -8    8   17     -0.53     -1.41
  -10    8   17     -0.01     -1.94
  -12    8   17      1.67     -0.33
  -14    8   17      2.48      0.48
  -16    8   17      1.81      0.87
  -18    8   17      1.17      1.79
  -20    8   17     -0.36      0.24
  -22    8   17     -1.19     -0.02
  -24    8   17     -1.20     -0.36
  -26    8   17     -0.54     -0.76
  -28    8   17      0.29     -0.41
    9    9   17      0.45     -0.09
    7    9   17      0.83     -0.55
    5    9   17      1.41     -0.79
    3    9   17      0.59     -0.63
    1    9   17      1.07     -0.04
   -1    9   17      0.44      0.12
   -3    9   17      0.19      0.23
   -5    9   17     -1.71      0.24
   -7    9   17     -2.40     -0.22
   -9    9   17     -1.60     -0.28
  -11    9   17     -0.55     -0.64
  -13    9   17     -0.09      0.56
  -15    9   17     -2.38     -0.87
  -17    9   17     -1.59     -1.91
  -19    9   17     -1.35     -2.06
  -21    9   17      0.82     -0.89
  -23    9   17      0.33      0.21
  -25    9   17     -0.26     -1.11
    4   10   17      0.90      1.66
    2   10   17      2.58      1.79
    0   10   17      2.90      0.95
   -2   10   17      2.14      1.14
   -4   10   17      0.47      0.59
   -6   10   17      0.13      2.06
   -8   10   17      0.11      0.37
  -10   10   17     -0.42      0.26
  -12   10   17     -0.40     -0.79
  -14   10   17      0.53     -0.75
  -16   10   17      1.74      0.68
  -18   10   17      1.09      0.55
  -20   10   17     -0.94      1.18
   -1   11   17     -0.36      0.53
   -3   11   17      0.63      1.59
   -5   11   17      0.21      0.93
   -7   11   17     -0.84     -0.16
   -9   11   17     -1.38     -1.19
  -11   11   17     -0.55     -0.37
  -13   11   17     -1.17     -0.55
  -15   11   17     -1.77      0.37
   10    0   16      0.92      4.06
    8    0   16      0.43      4.42
    6    0   16     -6.48      7.41
    4    0   16     -5.99      3.91
    2    0   16     -4.72     -0.47
    0    0   16     -2.05     -3.17
   -2    0   16      0.84     -5.96
   -4    0   16      1.36     -2.20
   -6    0   16     -0.06      6.25
   -8    0   16     -4.99     12.52
  -10    0   16     -8.29     12.38
  -12    0   16     -5.14      5.33
  -14    0   16      2.85      0.29
  -16    0   16      7.39      0.44
  -18    0   16      6.61      1.30
  -20    0   16      2.41      4.57
  -22    0   16      3.54      3.73
  -24    0   16      2.39      4.82
  -26    0   16      1.66      1.37
  -28    0   16     -1.41      1.75
  -30    0   16     -1.14      0.09
  -32    0   16     -1.31     -0.24
  -34    0   16     -1.18     -1.99
  -36    0   16     -0.35     -2.12
   13    1   16      3.97     -0.83
   11    1   16      5.90      0.87
    9    1   16      5.54      0.85
    7    1   16      2.94     -0.37
    5    1   16      2.03     -3.95
    3    1   16      1.25     -5.65
    1    1   16      2.00     -5.99
   -1    1   16      3.52     -3.70
   -3    1   16      6.87     -0.86
   -5    1   16      9.70      2.85
   -7    1   16      8.42      5.28
   -9    1   16      2.37      4.23
  -11    1   16     -2.17     -0.68
  -13    1   16     -2.25     -3.94
  -15    1   16     -0.29     -2.71
  -17    1   16     -0.01      1.69
  -19    1   16     -1.83      1.44
  -21    1   16     -1.23     -0.75
  -23    1   16     -1.58     -1.21
  -25    1   16      0.01      0.53
  -27    1   16     -1.31      0.95
  -29    1   16     -1.31     -1.57
  -31    1   16     -3.06     -2.29
  -33    1   16     -2.90     -2.40
  -35    1   16     -1.87     -1.55
  -37    1   16     -0.54     -1.08
   14    2   16     -0.21     -5.67
   12    2   16     -2.31     -0.33
   10    2   16     -1.40      0.32
    8    2   16     -5.41      5.76
    6    2   16     -4.48      3.06
    4    2   16     -5.08      0.78
    2    2   16     -1.21     -1.55
    0    2   16      1.33     -4.24
   -2    2   16      2.97     -4.84
   -4    2   16      3.47     -3.73
   -6    2   16      1.46      0.38
   -8    2   16     -1.26      4.86
  -10    2   16     -2.94      3.81
  -12    2   16     -1.76      1.29
  -14    2   16      1.34      0.64
  -16    2   16      2.71      2.52
  -18    2   16      1.76      5.57
  -20    2   16      0.42      5.62
  -22    2   16     -1.76      4.99
  -24    2   16     -2.38      2.05
  -26    2   16     -3.83      0.04
  -28    2   16     -2.28     -0.82
  -30    2   16     -0.88      0.82
  -32    2   16     -0.01      1.77
  -34    2   16      0.03      1.54
  -36    2   16     -0.33      0.60
   17    3   16      0.62     -1.20
   15    3   16     -0.09     -1.42
   13    3   16     -0.95      1.33
   11    3   16      0.80      0.09
    9    3   16     -1.00     -1.09
    7    3   16      0.54     -3.60
    5    3   16     -0.39     -3.05
    3    3   16      0.44     -2.23
    1    3   16      0.66      0.31
   -1    3   16      1.56      2.30
   -3    3   16      4.58      4.07
   -5    3   16      5.90      2.53
   -7    3   16      6.93     -0.53
   -9    3   16      6.09     -2.90
  -11    3   16      4.50     -0.86
  -13    3   16      2.31      0.04
  -15    3   16      1.30      0.43
  -17    3   16      0.51     -3.58
  -19    3   16      1.93     -3.22
  -21    3   16      0.93     -2.76
  -23    3   16      2.40     -0.75
  -25    3   16     -0.68     -0.63
  -27    3   16     -0.10     -2.80
  -29    3   16     -0.22     -3.44
  -31    3   16      2.87     -4.26
  -33    3   16      2.86     -1.40
  -35    3   16      0.87     -0.63
   18    4   16     -0.29     -1.38
   16    4   16      0.28     -2.15
   14    4   16      0.98     -0.91
   12    4   16     -0.76     -0.34
   10    4   16     -2.99      3.96
    8    4   16     -2.42      4.40
    6    4   16     -2.39      5.25
    4    4   16     -0.68      4.90
    2    4   16     -1.41      3.27
    0    4   16     -0.83      0.95
   -2    4   16     -0.45     -1.40
   -4    4   16      0.64     -1.17
   -6    4   16      1.13      1.05
   -8    4   16      1.24      1.28
  -10    4   16      1.63      1.01
  -12    4   16      2.57      0.06
  -14    4   16      1.29     -0.67
  -16    4   16      3.18      0.00
  -18    4   16      3.95      1.37
  -20    4   16      4.67      2.14
  -22    4   16      0.35      2.38
  -24    4   16     -2.03     -0.61
  -26    4   16      0.20     -0.67
  -28    4   16      3.24     -1.17
  -30    4   16      3.33      0.60
  -32    4   16      0.91     -0.23
  -34    4   16     -1.17     -1.54
   19    5   16     -1.32      0.54
   17    5   16     -0.29      0.62
   15    5   16      0.14      1.59
   13    5   16      3.92     -0.49
   11    5   16      3.23     -1.39
    9    5   16      5.20     -1.76
    7    5   16      1.80     -1.39
    5    5   16      1.83     -0.81
    3    5   16      1.31     -0.87
    1    5   16      0.08      1.17
   -1    5   16      1.30      1.26
   -3    5   16     -0.60      0.25
   -5    5   16      0.85     -0.83
   -7    5   16     -0.63     -0.92
   -9    5   16      0.89      0.91
  -11    5   16     -0.16      0.89
  -13    5   16      0.11      1.30
  -15    5   16      0.60     -1.84
  -19    5   16      3.22     -2.79
  -21    5   16      2.42      0.00
  -23    5   16      0.09     -0.35
  -25    5   16      0.04     -1.43
  -27    5   16     -1.09     -1.61
  -29    5   16     -1.46     -0.61
  -31    5   16     -1.82      0.69
  -33    5   16     -0.98      0.86
   18    6   16      0.13     -0.02
   16    6   16      0.02     -0.51
   14    6   16     -0.92      0.04
   12    6   16      0.67      1.07
   10    6   16      0.39      1.45
    8    6   16      0.79      0.38
    6    6   16      0.41      0.74
    4    6   16      0.66      1.76
    2    6   16     -0.74      2.23
    0    6   16     -2.33     -0.14
   -2    6   16     -2.69     -1.80
   -4    6   16     -1.40     -0.54
   -6    6   16     -1.06     -0.43
   -8    6   16     -1.11     -1.95
  -10    6   16      0.73     -4.23
  -12    6   16      1.53     -5.09
  -14    6   16      2.43     -4.25
  -16    6   16     -2.33     -4.70
  -18    6   16     -1.71     -4.33
  -20    6   16     -2.93     -3.29
  -22    6   16     -0.43     -2.98
  -24    6   16     -0.37     -1.24
  -26    6   16      0.41     -0.84
  -28    6   16      0.65      0.82
  -30    6   16     -0.02      1.09
  -32    6   16     -0.51      0.90
   15    7   16      0.73     -1.12
   13    7   16     -0.10     -1.55
   11    7   16      1.55     -1.16
    9    7   16     -0.02      0.28
    7    7   16      0.80      1.26
    5    7   16      0.18     -0.61
    3    7   16      0.28     -0.91
    1    7   16      2.12     -1.57
   -1    7   16      1.10     -0.27
   -3    7   16      1.59     -0.09
   -5    7   16     -1.77     -1.51
   -7    7   16     -1.70     -1.12
   -9    7   16     -2.80     -1.33
  -11    7   16     -1.69      1.36
  -13    7   16     -1.89      2.28
  -15    7   16     -0.68      1.63
  -17    7   16      1.81      0.59
  -19    7   16      3.27     -0.21
  -21    7   16      2.08      0.42
  -23    7   16     -0.24     -0.70
  -25    7   16     -1.15     -2.99
  -27    7   16     -0.60     -2.53
  -29    7   16     -1.30     -0.98
  -31    7   16     -1.93      0.61
   14    8   16      0.40      0.64
   12    8   16     -1.20      0.87
   10    8   16     -1.31     -0.07
    8    8   16     -1.53     -0.82
    6    8   16      0.38     -1.31
    4    8   16      0.30     -0.71
    2    8   16      0.68      0.24
    0    8   16     -0.38      0.55
   -2    8   16     -0.17      0.66
   -4    8   16     -1.31      0.22
   -6    8   16     -1.36      1.13
   -8    8   16     -0.63      0.87
  -10    8   16      0.12     -1.16
  -12    8   16      1.57     -2.39
  -14    8   16     -0.25     -3.04
  -16    8   16      0.36     -1.44
  -18    8   16     -2.67     -1.33
  -20    8   16     -1.79     -1.83
  -22    8   16     -2.21     -1.89
  -24    8   16     -0.93     -1.53
  -26    8   16     -0.32     -0.32
  -28    8   16     -0.27      0.02
   11    9   16      0.42      0.61
    9    9   16      0.74      1.23
    7    9   16     -0.01      1.53
    5    9   16     -0.38      1.30
    3    9   16      0.16     -0.99
    1    9   16      0.33     -3.37
   -1    9   16      1.04     -3.14
   -3    9   16      0.95     -1.92
   -5    9   16      2.00      0.13
   -7    9   16      1.33     -2.03
   -9    9   16      0.22     -0.62
  -11    9   16     -1.51      0.43
  -13    9   16     -2.61      1.12
  -15    9   16     -2.43      0.40
  -17    9   16     -1.25     -1.13
  -19    9   16      0.36      1.32
  -21    9   16      0.80      1.75
  -23    9   16     -0.40      1.62
  -25    9   16      0.14      0.16
    8   10   16     -0.73     -1.07
    6   10   16     -0.34     -1.05
    4   10   16      0.17      0.25
    2   10   16      0.50      1.52
    0   10   16      1.81      2.49
   -2   10   16      2.33      1.30
   -4   10   16      1.71     -0.01
   -6   10   16      0.57     -0.36
   -8   10   16     -0.36     -0.02
  -10   10   16     -0.18      0.26
  -12   10   16     -0.91     -1.11
  -14   10   16      0.73     -0.31
  -16   10   16      0.94     -0.38
  -18   10   16      2.09     -0.16
  -20   10   16      0.45     -0.33
  -22   10   16     -0.38     -0.45
    3   11   16     -1.17     -1.50
    1   11   16     -1.52     -1.24
   -1   11   16     -1.73     -1.29
   -3   11   16     -1.06     -0.87
   -5   11   16      0.07     -1.28
   -7   11   16      0.92      0.11
   -9   11   16      0.69      0.02
  -11   11   16      0.24      0.16
  -13   11   16      0.33     -0.03
  -15   11   16      0.62     -0.21
  -17   11   16     -0.05      1.50
   13    1   15     -1.76      2.25
   11    1   15     -0.09     -1.09
    9    1   15     -1.92      1.64
    7    1   15      2.35     -2.23
    5    1   15      1.38     -0.49
    3    1   15      2.44      0.41
    1    1   15      2.00     -0.50
   -1    1   15      2.98     -0.16
   -3    1   15      4.00      0.19
   -5    1   15      1.21     -1.17
   -7    1   15     -1.37     -3.81
   -9    1   15     -1.34     -7.88
  -11    1   15     -0.24     -5.95
  -13    1   15     -0.41     -2.68
  -15    1   15     -1.77     -1.97
  -17    1   15     -0.90     -1.22
  -19    1   15      0.18     -1.22
  -21    1   15     -3.08      3.86
  -23    1   15     -4.42      2.02
  -25    1   15     -5.20      1.22
  -27    1   15     -1.87     -2.51
  -29    1   15     -0.66     -0.45
  -31    1   15      2.04      0.71
  -33    1   15      3.90      2.14
  -35    1   15      3.20      3.12
  -37    1   15     -0.09      2.08
   14    2   15     -1.32      2.58
   12    2   15     -3.01      2.85
   10    2   15     -4.95      2.21
    8    2   15     -3.32      0.25
    6    2   15     -1.86      1.05
    4    2   15      1.13      0.27
    2    2   15      3.40      2.37
    0    2   15      5.04      3.26
   -2    2   15      3.09      5.21
   -4    2   15     -0.87      2.13
   -6    2   15     -3.08     -2.20
   -8    2   15     -0.17     -7.21
  -10    2   15      3.80     -5.73
  -12    2   15      5.79     -2.20
  -14    2   15      3.03      2.12
  -16    2   15     -0.88     -0.45
  -18    2   15     -0.44     -3.01
  -20    2   15      1.25     -6.47
  -22    2   15      3.46     -6.38
  -24    2   15     -0.61     -4.20
  -26    2   15     -1.27     -2.16
  -28    2   15     -1.80     -0.76
  -30    2   15     -0.18     -3.62
  -32    2   15     -1.39     -4.22
  -34    2   15     -2.08     -4.10
  -36    2   15     -1.06     -1.64
   17    3   15      1.61      3.05
   15    3   15      2.06      2.02
   13    3   15      2.58     -1.97
   11    3   15      1.65     -0.23
    9    3   15      3.63     -2.88
    7    3   15      3.67     -0.53
    5    3   15      5.98      1.98
    3    3   15      3.33      4.42
    1    3   15      1.95      5.03
   -1    3   15      2.50      3.63
   -3    3   15      4.11      3.58
   -5    3   15      4.03      3.52
   -7    3   15      1.47      0.47
   -9    3   15      1.72     -1.01
  -11    3   15      2.92     -1.31
  -13    3   15      1.59     -0.88
  -15    3   15      1.43     -1.98
  -17    3   15      2.42     -3.50
  -19    3   15      4.16     -0.24
  -21    3   15      1.96      3.89
  -23    3   15     -0.71      3.88
  -25    3   15      0.83     -0.38
  -27    3   15      2.21     -3.81
  -29    3   15      2.96     -2.22
  -31    3   15      3.27      0.20
  -33    3   15      3.69      2.62
  -35    3   15      3.03      2.70
   18    4   15      0.27     -0.23
   16    4   15      0.25      0.34
   14    4   15      0.17     -0.95
   12    4   15     -1.59     -0.36
   10    4   15      1.26     -1.33
    8    4   15      1.02     -0.31
    6    4   15      2.92      0.11
    4    4   15      2.35      0.55
    2    4   15      2.15     -0.54
    0    4   15      1.88     -1.28
   -2    4   15     -1.54     -1.07
   -4    4   15     -3.75      1.57
   -6    4   15     -5.79      1.93
   -8    4   15     -3.61      1.65
  -10    4   15     -1.04     -0.24
  -12    4   15      0.53      2.26
  -14    4   15     -1.09      1.17
  -16    4   15     -1.85     -0.54
  -18    4   15     -1.47     -5.21
  -20    4   15      1.35     -4.71
  -22    4   15      0.09     -3.24
  -24    4   15      0.52     -1.26
  -26    4   15     -0.31      1.41
  -28    4   15      0.39      2.66
  -30    4   15     -2.31      3.14
  -32    4   15     -4.32     -0.60
  -34    4   15     -3.29     -1.88
   19    5   15     -0.64      1.49
   17    5   15     -0.58      1.85
   15    5   15     -0.42      0.64
   13    5   15      2.38     -0.98
   11    5   15      2.54     -2.31
    9    5   15      1.80     -0.99
    7    5   15     -0.11      0.79
    5    5   15     -2.62      0.70
    3    5   15     -3.42      0.17
    1    5   15     -2.04     -0.61
   -1    5   15      1.30      1.32
   -3    5   15      3.20      3.58
   -5    5   15      2.14      3.43
   -7    5   15      0.99      2.56
   -9    5   15      0.25      0.20
  -11    5   15     -0.45     -2.02
  -13    5   15      0.09     -3.34
  -15    5   15     -2.97     -3.31
  -17    5   15     -2.62     -1.00
  -19    5   15     -4.54      0.36
  -21    5   15     -1.80     -1.33
  -23    5   15     -0.30     -2.16
  -25    5   15      1.07     -2.96
  -27    5   15      0.83      0.39
  -29    5   15      0.08      2.03
  -31    5   15     -0.03      3.57
  -33    5   15      1.61      2.38
   18    6   15      1.99      0.01
   16    6   15      1.14     -0.90
   14    6   15     -1.49     -0.04
   12    6   15      0.56     -0.02
   10    6   15     -0.68      0.72
    8    6   15      1.80      0.61
    6    6   15      1.52     -0.01
    4    6   15      2.45      0.64
    2    6   15      2.75     -1.43
    0    6   15      0.91     -1.40
   -2    6   15      1.90     -1.16
   -4    6   15     -0.96      0.39
   -6    6   15     -1.86      1.68
   -8    6   15     -4.77      0.68
  -10    6   15     -2.80      1.30
  -12    6   15     -1.53      1.45
  -14    6   15     -0.16      2.94
  -16    6   15     -0.68      2.42
  -18    6   15     -0.85      0.58
  -20    6   15     -1.67     -0.50
  -22    6   15     -1.51     -0.08
  -24    6   15     -1.73      0.77
  -26    6   15     -0.86      1.22
  -28    6   15     -1.22      1.00
  -30    6   15     -1.33      0.40
  -32    6   15     -1.67      0.08
   17    7   15     -0.83     -0.97
   15    7   15      0.05     -0.53
   13    7   15     -1.99      1.44
   11    7   15     -1.76      1.96
    9    7   15     -2.03      2.49
    7    7   15     -1.24      1.75
    5    7   15     -3.82      1.36
    3    7   15     -3.70     -0.50
    1    7   15     -0.75     -1.90
   -1    7   15      3.72     -1.28
   -3    7   15      4.45      0.13
   -5    7   15      4.67      2.42
   -7    7   15      5.07      1.88
   -9    7   15      4.44      1.64
  -11    7   15      3.17      1.91
  -13    7   15     -0.06      1.56
  -15    7   15      2.12      1.28
  -17    7   15      0.77      0.07
  -19    7   15      3.30     -0.55
  -21    7   15      2.49     -1.24
  -23    7   15      3.73     -2.21
  -25    7   15      3.33     -1.52
  -27    7   15      2.63     -0.35
  -29    7   15      1.18      0.89
  -31    7   15     -0.39      1.30
   16    8   15      0.75      1.29
   14    8   15      1.82      0.37
   12    8   15      1.11      0.42
   10    8   15      1.21      0.42
    8    8   15     -0.35      1.32
    6    8   15      0.70      2.34
    4    8   15      0.96      0.91
    2    8   15     -0.32      0.33
    0    8   15     -0.76     -0.33
   -2    8   15     -1.26     -0.29
   -4    8   15      0.77     -1.02
   -6    8   15      0.22     -3.63
   -8    8   15      0.88     -2.12
  -10    8   15     -0.37     -1.04
  -12    8   15     -1.07      0.00
  -14    8   15     -1.99      0.25
  -16    8   15     -2.14      0.14
  -18    8   15     -2.29      2.23
  -20    8   15     -2.74      1.34
  -22    8   15     -3.09      1.46
  -24    8   15     -1.23      1.49
  -26    8   15     -0.32      1.50
  -28    8   15      0.75      1.38
   13    9   15     -0.98      1.04
   11    9   15     -1.20      0.70
    9    9   15     -0.19      0.29
    7    9   15     -0.51      0.37
    5    9   15     -0.68      1.56
    3    9   15     -1.34      2.09
    1    9   15      0.00      1.84
   -1    9   15      0.96     -0.69
   -3    9   15      2.09     -1.71
   -5    9   15      2.02     -2.33
   -7    9   15      1.80     -0.66
   -9    9   15      2.09      0.78
  -11    9   15      0.70      1.06
  -13    9   15      1.33      1.26
  -15    9   15     -0.69     -0.49
  -17    9   15      0.99     -1.41
  -19    9   15      1.16     -2.03
  -21    9   15      3.84     -1.45
  -23    9   15      4.47     -0.56
  -25    9   15      3.57     -0.48
  -27    9   15      2.03     -0.76
    8   10   15     -1.59      0.50
    6   10   15     -2.44      0.31
    4   10   15     -1.92      0.56
    2   10   15     -0.97      0.50
    0   10   15     -0.82     -0.13
   -2   10   15     -1.55     -0.39
   -4   10   15     -1.34     -1.61
   -6   10   15      0.84     -0.43
   -8   10   15      1.84     -0.86
  -10   10   15      1.16      0.02
  -12   10   15      0.36     -0.25
  -14   10   15      1.64     -1.00
  -16   10   15      2.74      0.49
  -18   10   15      2.07      0.34
  -20   10   15     -0.75      0.96
  -22   10   15     -1.29     -0.62
  -24   10   15     -1.98     -0.36
    5   11   15     -0.03     -1.38
    3   11   15     -0.80     -0.97
    1   11   15     -1.77      0.01
   -1   11   15     -1.99      1.75
   -3   11   15     -0.66      1.42
   -5   11   15     -0.11      0.66
   -7   11   15      0.74     -0.19
   -9   11   15      1.22     -0.39
  -11   11   15      2.54      0.53
  -13   11   15      0.19      0.15
  -15   11   15     -1.32      0.89
  -17   11   15     -2.84      0.12
  -19   11   15     -0.84     -0.38
   -4   12   15     -1.94     -1.50
   -6   12   15     -1.63     -1.70
   -8   12   15     -0.71     -1.18
  -10   12   15     -0.41     -0.44
   22    0   14     -1.05     -0.43
   20    0   14      3.49     -3.68
   10    0   14     -2.09      4.00
    8    0   14      0.58     -1.48
    6    0   14     -0.35      0.56
    4    0   14      3.30      0.29
    2    0   14      5.40     -1.45
    0    0   14      6.82     -3.68
   -2    0   14      3.41     -4.95
   -4    0   14     -7.54     -7.58
   -6    0   14    -17.52     -9.51
   -8    0   14    -16.64    -15.75
  -10    0   14     -6.85    -14.44
  -12    0   14      3.03     -9.88
  -14    0   14      1.87     -5.87
  -16    0   14     -2.01     -6.02
  -18    0   14     -3.31     -9.36
  -20    0   14     -1.34     -2.59
  -22    0   14      1.10     -1.30
  -24    0   14     -1.58      2.22
  -26    0   14     -1.54     -2.42
  -28    0   14     -1.39      0.36
  -30    0   14      2.05     -0.19
  -32    0   14      2.74     -0.69
  -34    0   14      2.21     -0.03
  -36    0   14     -0.04      0.37
   23    1   14      0.25     -1.95
   21    1   14     -0.94     -2.33
   19    1   14     -1.36     -0.16
   13    1   14     -0.83      4.54
   11    1   14     -4.10      3.33
    9    1   14     -4.04     -1.30
    7    1   14     -0.12     -4.04
    5    1   14      3.30     -4.40
    3    1   14      3.17     -0.56
    1    1   14      2.72      2.79
   -1    1   14      2.50      9.33
   -3    1   14      1.65     12.59
   -5    1   14     -2.26     10.21
   -7    1   14     -5.42     -0.56
   -9    1   14     -6.28     -8.90
  -11    1   14     -3.96    -10.47
  -13    1   14     -2.91     -4.14
  -15    1   14     -3.47      0.75
  -17    1   14     -4.24      3.15
  -19    1   14     -6.12      0.62
  -21    1   14     -7.81     -1.79
  -23    1   14     -9.19     -2.91
  -25    1   14     -5.07     -2.44
  -27    1   14     -1.15     -1.32
  -29    1   14      0.94     -1.59
  -31    1   14      0.92     -0.56
  -33    1   14      1.85      0.47
  -35    1   14      2.58      1.91
  -37    1   14      1.33      1.27
   24    2   14     -0.78      0.75
   22    2   14     -0.98      0.52
   20    2   14      2.13     -1.34
   18    2   14      4.50     -2.19
   14    2   14      2.45     -2.95
   12    2   14     -1.61     -0.27
   10    2   14     -0.34     -3.48
    8    2   14     -1.37      0.44
    6    2   14      1.65      1.24
    4    2   14      1.76      2.66
    2    2   14      4.24      2.36
    0    2   14      4.29      0.34
   -2    2   14      0.74     -1.60
   -4    2   14     -3.10     -1.35
   -6    2   14     -5.28     -1.64
   -8    2   14     -2.05      0.81
  -10    2   14      3.17     -0.10
  -12    2   14      5.85     -0.69
  -14    2   14      6.96     -2.02
  -16    2   14      5.51     -4.17
  -18    2   14      6.17     -2.76
  -20    2   14      7.14     -2.76
  -22    2   14      6.29     -0.04
  -24    2   14      6.08     -2.97
  -26    2   14      4.36     -2.55
  -28    2   14      4.42     -2.09
  -30    2   14      2.46      0.19
  -32    2   14      0.71      0.60
  -34    2   14      0.12     -1.24
  -36    2   14      0.85     -0.70
   21    3   14      1.06      1.37
   19    3   14      0.60      2.03
   17    3   14      1.66      3.48
   15    3   14      0.72      3.25
   13    3   14      0.67      3.18
   11    3   14      1.47     -0.37
    9    3   14      0.73     -2.39
    7    3   14      1.58     -4.43
    5    3   14      0.47     -3.47
    3    3   14     -1.42     -4.10
    1    3   14     -3.60     -0.25
   -1    3   14     -4.06      3.16
   -3    3   14     -3.03      8.08
   -5    3   14     -2.05      5.99
   -7    3   14     -1.43      3.60
   -9    3   14     -0.85     -0.10
  -11    3   14     -1.38      2.58
  -13    3   14     -2.80      3.09
  -15    3   14     -4.41      5.43
  -17    3   14     -7.25      2.93
  -19    3   14     -7.58      2.62
  -21    3   14     -7.39      0.51
  -23    3   14     -2.46     -0.11
  -25    3   14     -1.07      1.42
  -27    3   14     -0.21      2.74
  -29    3   14     -1.66      4.50
  -31    3   14     -1.40      2.24
  -33    3   14     -0.18      1.57
  -35    3   14      0.22      0.02
  -37    3   14      0.12      0.13
   22    4   14      1.80     -1.56
   20    4   14      1.39     -0.62
   18    4   14      1.56      0.25
   16    4   14      0.03     -0.85
   14    4   14     -0.78     -1.40
   12    4   14     -2.17     -2.61
   10    4   14     -2.64      0.20
    8    4   14     -2.13      1.31
    6    4   14     -4.29      2.11
    4    4   14     -4.63      2.30
    2    4   14     -4.57     -0.36
    0    4   14     -2.65     -2.12
   -2    4   14     -1.46     -2.66
   -4    4   14     -1.57     -0.61
   -6    4   14     -0.59      3.31
   -8    4   14     -2.29      4.23
  -10    4   14     -4.06      1.78
  -12    4   14     -4.08     -2.82
  -14    4   14     -3.62     -4.26
  -16    4   14     -0.65      0.21
  -18    4   14     -1.35      3.66
  -20    4   14     -0.70      3.04
  -22    4   14     -0.51      0.92
  -24    4   14      0.87      0.24
  -26    4   14      3.21      1.93
  -28    4   14      4.30      1.53
  -30    4   14      3.83      2.64
  -32    4   14      2.70      1.33
  -34    4   14      0.94      0.46
  -36    4   14      1.13     -1.31
   21    5   14     -0.13     -0.59
   19    5   14      0.71     -0.30
   17    5   14      1.36      0.23
   15    5   14      0.68      2.89
   13    5   14      1.88      2.00
   11    5   14      0.32      1.36
    9    5   14      1.88      0.58
    7    5   14     -0.71      0.92
    5    5   14     -1.81     -0.55
    3    5   14     -1.58     -3.42
    1    5   14      0.73     -2.93
   -1    5   14      4.12     -0.79
   -3    5   14      2.69     -0.72
   -5    5   14      2.42     -1.93
   -7    5   14      1.67     -2.88
   -9    5   14      2.56      1.35
  -11    5   14      0.48      3.46
  -13    5   14      0.74      5.33
  -15    5   14      2.40      3.78
  -17    5   14      3.77      3.88
  -19    5   14      0.75      3.09
  -21    5   14     -0.50      1.90
  -23    5   14     -1.21      0.96
  -25    5   14     -0.63      0.90
  -27    5   14     -2.93      2.18
  -29    5   14     -3.89      1.14
  -31    5   14     -3.07      0.50
  -33    5   14     -1.61     -0.58
  -35    5   14     -0.55      1.15
   20    6   14      0.86     -1.18
   18    6   14     -0.12     -0.77
   16    6   14      0.46      0.07
   14    6   14     -0.94      2.86
   12    6   14     -0.28      3.98
   10    6   14     -1.76      2.93
    8    6   14     -1.01     -0.65
    6    6   14     -0.12     -1.18
    4    6   14      1.07     -1.10
    2    6   14      0.55     -0.26
    0    6   14     -0.88     -1.58
   -2    6   14     -1.19     -2.79
   -4    6   14      1.39     -2.17
   -6    6   14      3.15     -2.04
   -8    6   14      3.92     -0.40
  -10    6   14      3.52      0.53
  -12    6   14      2.07     -0.06
  -14    6   14      3.90     -0.69
  -16    6   14      1.38     -0.64
  -18    6   14      2.13      0.49
  -20    6   14      0.24      0.47
  -22    6   14      2.42     -0.22
  -24    6   14      3.24      1.43
  -26    6   14      3.18      1.50
  -28    6   14      2.14      0.88
  -30    6   14      2.13     -0.70
  -32    6   14      0.88      0.46
  -34    6   14      0.66      1.17
   19    7   14     -0.47      1.19
   17    7   14     -0.17      1.51
   15    7   14      0.75     -0.22
   13    7   14     -1.40     -0.31
   11    7   14     -0.15     -0.86
    9    7   14     -0.69      0.69
    7    7   14      0.78      2.07
    5    7   14     -0.56      0.82
    3    7   14     -0.58      0.79
    1    7   14      1.51     -0.52
   -1    7   14      1.76      0.18
   -3    7   14      2.50     -1.48
   -5    7   14      0.67     -4.50
   -7    7   14      2.55     -4.44
   -9    7   14      1.68     -2.54
  -11    7   14      0.70      1.06
  -13    7   14     -1.52      1.76
  -15    7   14     -0.33      0.13
  -17    7   14      2.32      0.50
  -19    7   14      4.34      0.69
  -21    7   14      3.21      2.54
  -23    7   14      2.26      1.73
  -25    7   14      0.38      0.07
  -27    7   14      0.28     -1.41
  -29    7   14     -0.54     -1.61
  -31    7   14     -0.76     -1.17
   16    8   14      0.71      1.84
   14    8   14      1.91      1.61
   12    8   14      0.86      0.89
   10    8   14      1.00     -0.80
    8    8   14     -0.20     -1.16
    6    8   14      1.10     -1.19
    4    8   14      1.55     -0.06
    2    8   14      1.96      1.86
    0    8   14     -0.38      1.73
   -2    8   14     -2.51      1.18
   -4    8   14     -4.14     -0.99
   -6    8   14     -2.63      0.80
   -8    8   14     -0.30      1.48
  -10    8   14     -0.39      0.48
  -12    8   14      0.77     -1.91
  -14    8   14     -0.48     -3.01
  -16    8   14      1.65     -0.78
  -18    8   14     -1.61      0.70
  -20    8   14     -2.04      0.34
  -22    8   14     -1.92     -1.00
  -24    8   14      0.25     -0.41
  -26    8   14      0.69      0.93
  -28    8   14      0.19      1.09
  -30    8   14     -0.21     -0.35
   15    9   14     -1.85     -0.95
   13    9   14     -1.53     -1.98
   11    9   14     -1.07     -1.13
    9    9   14     -0.08     -0.10
    7    9   14     -1.05      0.81
    5    9   14     -0.48      1.26
    3    9   14      0.07      0.03
    1    9   14      0.34     -0.07
   -1    9   14      0.20      0.87
   -3    9   14      0.58      1.33
   -5    9   14      2.35      1.21
   -7    9   14      1.74     -1.61
   -9    9   14      1.61     -1.21
  -11    9   14      1.43     -0.02
  -13    9   14      1.88      0.30
  -15    9   14      1.01      0.63
  -17    9   14      0.72     -1.04
  -19    9   14      0.86      0.36
  -21    9   14      2.27     -0.35
  -23    9   14      1.09     -0.10
  -25    9   14      1.36     -0.30
  -27    9   14      0.36     -0.20
   10   10   14     -0.23     -1.07
    8   10   14     -0.57     -1.71
    6   10   14     -0.78     -2.39
    4   10   14     -0.83     -1.42
    2   10   14     -0.35     -0.02
    0   10   14      0.71      2.71
   -2   10   14      0.54      2.66
   -4   10   14     -0.66      3.41
   -6   10   14     -1.06      2.47
   -8   10   14     -0.89      1.47
  -10   10   14      1.00     -0.40
  -12   10   14      0.32     -1.87
  -14   10   14      2.35     -0.38
  -16   10   14      1.46      0.22
  -18   10   14      1.74      0.13
  -20   10   14     -0.37     -0.89
  -22   10   14     -0.44     -1.07
  -24   10   14     -0.09     -0.27
    5   11   14      0.52     -0.27
    3   11   14     -0.60     -0.56
    1   11   14     -1.53     -0.52
   -1   11   14     -1.02      0.09
   -3   11   14     -1.21      1.54
   -5   11   14     -1.64      0.96
   -7   11   14     -1.65      0.39
   -9   11   14     -1.24     -0.33
  -11   11   14     -0.61      0.01
  -13   11   14     -1.48      1.04
  -15   11   14     -2.08      0.06
  -17   11   14     -3.03      0.88
  -19   11   14     -1.71      0.41
   -2   12   14      1.05     -0.31
   -4   12   14      1.04     -0.20
   -6   12   14      0.07      0.11
   -8   12   14     -0.16     -0.10
  -10   12   14     -0.37     -0.23
  -12   12   14      0.98      0.97
   25    1   13     -0.61     -1.88
   23    1   13     -1.07     -0.85
   21    1   13      0.90      0.32
   19    1   13      1.60      2.51
   17    1   13      1.06      2.99
   15    1   13     -1.08     -2.02
   13    1   13     -4.12      0.17
   11    1   13     -1.50     -3.07
    9    1   13     -1.73      1.03
    7    1   13      1.15     -0.01
    5    1   13      0.04      2.61
    3    1   13      0.11      3.53
    1    1   13     -1.47      4.47
   -1    1   13     -1.56      2.90
   -3    1   13      2.87      3.50
   -5    1   13      8.37      0.74
   -7    1   13     11.98      4.72
   -9    1   13     12.56      5.42
  -11    1   13      7.86      8.12
  -13    1   13      5.61      5.55
  -15    1   13      2.93      1.16
  -17    1   13      4.90      0.21
  -19    1   13      4.98     -2.25
  -21    1   13      4.03      2.08
  -23    1   13      4.16     -2.42
  -25    1   13      3.03     -1.06
  -27    1   13      2.86     -3.98
  -29    1   13      0.96      0.03
  -31    1   13      1.49      1.42
  -33    1   13      1.47     -0.38
  -35    1   13      1.89     -1.37
  -37    1   13     -0.38     -3.29
   24    2   13     -0.02      2.44
   22    2   13      1.15      2.99
   20    2   13     -1.36      0.64
   18    2   13     -0.67     -0.42
   16    2   13     -1.81      0.29
   14    2   13      0.22      0.17
   12    2   13      1.49     -1.83
   10    2   13      2.29     -0.51
    8    2   13      0.48      1.36
    6    2   13     -3.41      2.22
    4    2   13     -5.71     -1.79
    2    2   13     -5.62     -0.47
    0    2   13     -5.40     -0.30
   -2    2   13     -7.34      1.09
   -4    2   13     -5.67     -2.92
   -6    2   13      0.29     -1.81
   -8    2   13      5.63      0.69
  -10    2   13      4.59      5.47
  -12    2   13      1.86      3.78
  -14    2   13      2.25      4.77
  -16    2   13      2.05      5.22
  -18    2   13      0.69      6.77
  -20    2   13     -1.29      0.30
  -22    2   13      2.10     -4.65
  -24    2   13      3.76     -3.00
  -26    2   13      4.58      2.54
  -28    2   13      2.65      5.39
  -30    2   13     -0.62      3.56
  -32    2   13     -4.77      3.31
  -34    2   13     -7.57      2.22
  -36    2   13     -4.92      1.45
   25    3   13      0.36     -2.20
   23    3   13      1.01     -3.80
   21    3   13      1.00     -1.57
   19    3   13      1.75      2.06
   17    3   13      0.01      2.35
   15    3   13     -1.34      1.60
   13    3   13     -0.91     -2.43
   11    3   13     -0.25     -0.02
    9    3   13      0.51      0.05
    7    3   13     -3.24      2.34
    5    3   13     -4.66      3.48
    3    3   13     -7.57      3.35
    1    3   13     -8.40      3.19
   -1    3   13     -6.93      1.84
   -3    3   13     -3.60     -0.17
   -5    3   13      1.45      0.77
   -7    3   13      1.60      2.42
   -9    3   13     -1.28      6.51
  -11    3   13     -6.25      6.50
  -13    3   13     -9.98      4.01
  -15    3   13     -6.95      3.31
  -17    3   13     -4.26      4.47
  -19    3   13     -2.29      8.35
  -21    3   13     -2.01      7.53
  -23    3   13     -0.45      6.47
  -25    3   13      1.79      2.50
  -27    3   13      0.83      0.56
  -29    3   13      1.15      0.02
  -31    3   13      3.58     -0.79
  -33    3   13      5.27      0.03
  -35    3   13      3.53     -1.41
  -37    3   13      0.66     -0.61
   24    4   13      1.16      1.05
   22    4   13     -0.81      1.04
   20    4   13      0.20     -1.06
   18    4   13      0.31     -2.70
   16    4   13      1.65     -0.80
   14    4   13      1.58      1.11
   12    4   13      0.38      2.97
   10    4   13      0.93      2.44
    8    4   13     -0.47      2.54
    6    4   13     -0.32      0.89
    4    4   13      0.77      0.35
    2    4   13      2.33     -1.31
    0    4   13      1.12     -1.61
   -2    4   13     -2.87     -5.45
   -4    4   13     -4.17     -7.07
   -6    4   13     -2.05     -8.54
   -8    4   13      1.77     -3.53
  -10    4   13      2.89     -0.46
  -12    4   13      4.18      3.58
  -14    4   13      5.13      1.24
  -16    4   13      6.57      0.28
  -18    4   13      4.24     -3.16
  -20    4   13      2.96     -4.27
  -22    4   13      0.70     -4.11
  -24    4   13      1.41     -1.63
  -26    4   13      0.62      1.78
  -28    4   13     -0.12      1.84
  -30    4   13     -1.93      2.29
  -32    4   13     -4.65      1.66
  -34    4   13     -4.57      2.92
  -36    4   13     -2.51      1.72
   23    5   13     -0.34      0.51
   21    5   13     -1.12      0.48
   19    5   13     -2.72      1.09
   17    5   13     -1.36      1.48
   15    5   13     -0.33      1.34
   13    5   13      1.97      0.68
   11    5   13      0.91      0.10
    9    5   13     -0.51     -0.36
    7    5   13     -1.68     -0.72
    5    5   13     -3.19     -3.36
    3    5   13     -2.77     -2.42
    1    5   13     -3.07     -1.35
   -1    5   13     -3.26      0.35
   -3    5   13     -3.24     -1.11
   -5    5   13     -3.04     -4.32
   -7    5   13      1.03     -5.04
   -9    5   13      3.34     -3.39
  -11    5   13      3.04     -2.28
  -13    5   13      2.28     -2.94
  -15    5   13     -0.15     -4.32
  -17    5   13      1.48     -2.20
  -19    5   13      0.62     -0.02
  -21    5   13      2.04      0.21
  -23    5   13      2.24     -0.54
  -25    5   13      1.28     -1.69
  -27    5   13     -0.60     -1.07
  -29    5   13     -0.82     -2.37
  -31    5   13      0.07     -0.62
  -33    5   13      1.85     -0.36
  -35    5   13      0.53      0.51
   22    6   13      0.75      0.42
   20    6   13      1.20      0.37
   18    6   13      1.66      0.66
   16    6   13      1.52     -0.39
   14    6   13     -0.65      0.80
   12    6   13      0.39      0.29
   10    6   13     -1.29      0.16
    8    6   13      0.16     -1.78
    6    6   13      1.75     -3.18
    4    6   13      5.36     -0.69
    2    6   13      5.24      1.83
    0    6   13      0.17      3.84
   -2    6   13     -2.98      1.20
   -4    6   13     -4.55     -2.83
   -6    6   13     -2.08     -3.41
   -8    6   13     -1.96     -2.80
  -10    6   13     -0.23      0.18
  -12    6   13     -0.89      0.97
  -14    6   13     -0.96      1.33
  -16    6   13     -1.38      0.17
  -18    6   13      0.19     -1.97
  -20    6   13      0.21     -1.04
  -22    6   13      0.62      0.15
  -24    6   13     -0.99      1.81
  -26    6   13     -1.31      0.71
  -28    6   13     -2.10     -0.16
  -30    6   13     -1.71     -1.54
  -32    6   13     -0.55     -0.94
  -34    6   13     -0.01     -0.53
   19    7   13     -0.27      0.26
   17    7   13     -1.18     -0.17
   15    7   13     -0.32     -1.56
   13    7   13     -2.26     -1.56
   11    7   13     -1.15     -2.17
    9    7   13     -1.46     -0.34
    7    7   13     -1.33      0.26
    5    7   13     -3.01      1.46
    3    7   13     -3.29      1.10
    1    7   13     -3.02      0.80
   -1    7   13     -3.61      1.73
   -3    7   13     -5.38      2.29
   -5    7   13     -4.01      4.42
   -7    7   13     -2.45      3.07
   -9    7   13     -2.39      1.41
  -11    7   13     -2.65     -0.07
  -13    7   13     -4.29     -0.52
  -15    7   13     -1.51     -0.15
  -17    7   13     -2.15     -0.29
  -19    7   13      0.34      0.42
  -21    7   13     -0.06      0.30
  -23    7   13     -0.12     -0.62
  -25    7   13     -0.90     -1.63
  -27    7   13     -0.35     -2.24
  -29    7   13     -0.25     -1.73
  -31    7   13      0.64     -1.79
   18    8   13     -0.26      0.67
   16    8   13     -1.00      0.63
   14    8   13     -0.06     -2.11
   12    8   13     -0.02     -2.40
   10    8   13      0.95     -2.04
    8    8   13     -0.47     -1.12
    6    8   13      0.90     -1.52
    4    8   13      1.35     -3.38
    2    8   13      1.36     -1.25
    0    8   13      1.09      1.02
   -2    8   13      1.17      2.75
   -4    8   13      2.55      2.41
   -6    8   13      0.38      0.73
   -8    8   13     -0.11      0.63
  -10    8   13     -0.25     -1.03
  -12    8   13      2.11     -2.51
  -14    8   13      2.74     -1.31
  -16    8   13      2.54     -0.71
  -18    8   13      0.81      1.67
  -20    8   13     -0.12      0.35
  -22    8   13     -2.27      1.44
  -24    8   13     -1.29      2.12
  -26    8   13     -1.38      3.36
  -28    8   13     -0.25      3.20
  -30    8   13     -0.04      1.53
   15    9   13     -1.31     -0.57
   13    9   13     -0.86      0.02
   11    9   13     -1.48     -0.36
    9    9   13     -1.29     -1.91
    7    9   13     -2.18     -2.29
    5    9   13     -2.23     -0.75
    3    9   13     -2.10      0.33
    1    9   13     -0.51      1.50
   -1    9   13      0.53     -0.37
   -3    9   13      2.00      0.97
   -5    9   13      1.86      1.22
   -7    9   13      0.41      3.22
   -9    9   13     -0.28      2.33
  -11    9   13     -1.85      1.29
  -13    9   13      0.10      1.24
  -15    9   13     -1.56      0.57
  -17    9   13     -0.22      0.09
  -19    9   13     -0.33     -0.62
  -21    9   13      1.53      0.26
  -23    9   13      1.54     -0.03
  -25    9   13      0.77     -0.99
  -27    9   13     -0.46     -2.42
   12   10   13      1.02     -0.45
   10   10   13      1.47     -0.48
    8   10   13      2.29     -0.69
    6   10   13      0.99     -0.99
    4   10   13      0.31     -0.84
    2   10   13     -0.91     -1.59
    0   10   13     -0.33     -1.79
   -2   10   13     -0.69     -0.16
   -4   10   13     -1.14      1.21
   -6   10   13     -1.17      2.25
   -8   10   13     -1.98      1.09
  -10   10   13     -2.02      0.38
  -12   10   13     -1.75      0.60
  -14   10   13      0.50     -0.83
  -16   10   13      1.57     -0.08
  -18   10   13      2.58     -0.86
  -20   10   13      0.48      0.70
  -22   10   13      0.00      0.44
  -24   10   13     -1.89      0.93
    9   11   13      1.13     -1.11
    7   11   13      1.70     -0.98
    5   11   13      2.85     -1.14
    3   11   13      1.91     -0.70
    1   11   13      0.70     -1.15
   -1   11   13      0.72     -0.09
   -3   11   13      1.65     -0.72
   -5   11   13      1.16      0.91
   -7   11   13      0.50      1.74
   -9   11   13     -0.25      1.92
  -11   11   13      1.54      1.55
  -13   11   13     -0.39      1.07
  -15   11   13     -0.93      2.29
  -17   11   13     -2.77      2.04
  -19   11   13     -0.99      1.10
  -21   11   13     -0.36      0.87
    2   12   13      1.85      0.19
    0   12   13      0.93     -0.77
   -2   12   13      0.30     -2.23
   -4   12   13      0.01     -2.33
   -6   12   13      0.74     -1.20
   -8   12   13      0.26      0.26
  -10   12   13     -1.62      1.19
  -12   12   13     -1.33     -0.80
  -14   12   13      0.26     -1.80
  -16   12   13      2.84     -3.08
   26    0   12      0.41     -0.76
   24    0   12     -0.37      3.80
   22    0   12      1.53      4.03
   20    0   12      2.37      2.27
   18    0   12      1.89      0.32
   16    0   12     -3.25     -1.94
   14    0   12     -6.89      0.33
   10    0   12      0.55      0.50
    8    0   12      2.47      3.60
    6    0   12      1.27      9.19
    4    0   12      4.81      9.68
    2    0   12      7.37     12.59
    0    0   12      5.03      9.56
   -2    0   12      0.58      5.13
   -4    0   12     -0.88     -6.42
   -6    0   12      4.31     -3.30
   -8    0   12     15.77      0.85
  -10    0   12     21.29     11.87
  -12    0   12     22.61     13.49
  -14    0   12     11.88     10.67
  -16    0   12      4.32      4.09
  -18    0   12     -0.80     -5.50
  -20    0   12      3.75     -5.27
  -22    0   12      8.82     -9.92
  -24    0   12      7.93     -3.32
  -26    0   12      2.93     -4.34
  -28    0   12     -1.25      1.27
  -30    0   12     -0.98      1.07
  -32    0   12     -3.71     -0.17
  -34    0   12     -5.41     -0.58
  -36    0   12     -7.14     -2.80
  -38    0   12     -2.48     -0.67
   27    1   12     -1.51     -1.01
   25    1   12     -1.15     -3.14
   23    1   12      1.47     -3.91
   21    1   12      0.31     -1.13
   19    1   12     -0.32      3.58
   17    1   12     -2.05      5.98
   15    1   12     -0.93      4.36
   13    1   12     -1.45      2.04
   11    1   12     -0.84      0.87
    9    1   12     -0.24     -1.15
    7    1   12      0.16     -3.45
    5    1   12     -1.42     -5.83
    3    1   12     -4.59     -3.09
    1    1   12     -6.93     -0.96
   -1    1   12     -6.08      1.77
   -3    1   12      1.65     -0.65
   -5    1   12     12.08     -3.64
   -7    1   12     18.04     -5.69
   -9    1   12     14.26     -2.58
  -11    1   12      5.53      0.07
  -13    1   12      1.81      2.30
  -15    1   12      4.86      3.01
  -17    1   12      9.32      6.51
  -19    1   12      6.71      5.74
  -21    1   12      1.69      3.05
  -23    1   12     -1.19      0.14
  -25    1   12      0.66      0.68
  -27    1   12      1.44      0.69
  -29    1   12      0.10     -0.02
  -31    1   12     -0.09      0.59
  -33    1   12      0.32      1.67
  -35    1   12      1.36      1.83
  -37    1   12      0.77      0.35
   26    2   12      0.42     -1.31
   24    2   12      1.18     -0.90
   22    2   12     -0.02      0.46
   20    2   12      1.11      0.20
   18    2   12      0.31     -0.62
   16    2   12     -1.20      0.07
   14    2   12     -2.42     -4.76
   12    2   12     -2.21     -3.75
   10    2   12      0.27     -4.11
    8    2   12     -2.08      2.39
    6    2   12     -2.62      5.74
    4    2   12     -2.54      8.06
    2    2   12     -0.91      7.69
    0    2   12     -3.64      6.47
   -2    2   12    -11.03      0.63
   -4    2   12    -14.70      0.22
   -6    2   12    -13.58      0.84
   -8    2   12     -9.20      9.27
  -10    2   12     -5.30     12.15
  -12    2   12     -6.03     12.88
  -14    2   12     -4.77      9.68
  -16    2   12     -5.91      5.60
  -18    2   12     -2.84      5.20
  -20    2   12      0.53      1.63
  -22    2   12      4.09      4.47
  -24    2   12      4.77      1.35
  -26    2   12      1.91      2.94
  -28    2   12      0.02      0.26
  -30    2   12     -1.38     -0.31
  -32    2   12     -1.48      0.45
  -34    2   12     -2.73     -0.43
  -36    2   12     -1.01      0.92
   25    3   12      0.80     -0.54
   23    3   12     -0.89     -0.14
   21    3   12      0.18     -0.02
   19    3   12     -2.11      0.16
   17    3   12     -0.57      0.20
   15    3   12      0.53      1.71
   13    3   12      3.05      3.40
   11    3   12      2.66      3.47
    9    3   12      1.28      1.84
    7    3   12      2.49     -2.99
    5    3   12      5.30     -5.03
    3    3   12      6.50     -6.89
    1    3   12      4.81     -2.60
   -1    3   12      4.80     -2.02
   -3    3   12      5.82     -0.61
   -5    3   12      6.07     -4.41
   -7    3   12      5.43     -6.53
   -9    3   12      5.68     -9.87
  -11    3   12      8.45     -6.70
  -13    3   12      8.00     -5.21
  -15    3   12      6.05     -2.58
  -17    3   12      1.02     -5.85
  -19    3   12     -0.41     -5.05
  -21    3   12     -2.40     -4.34
  -23    3   12     -1.60     -1.83
  -25    3   12     -2.62     -0.59
  -27    3   12     -2.87      0.16
  -29    3   12     -2.21      0.48
  -31    3   12     -1.51     -0.60
  -33    3   12      0.62      0.14
  -35    3   12      0.18      0.07
  -37    3   12      0.13      0.63
   24    4   12     -0.49      0.12
   22    4   12      0.01     -0.17
   20    4   12     -0.86      0.39
   18    4   12     -0.66      0.86
   16    4   12     -1.08     -1.16
   14    4   12     -0.39     -1.21
   12    4   12     -1.49     -1.00
   10    4   12     -3.33     -0.24
    8    4   12     -3.45     -2.47
    6    4   12     -3.21     -4.88
    4    4   12      1.21     -1.90
    2    4   12      1.98     -0.02
    0    4   12     -0.46      0.76
   -2    4   12     -4.72     -0.56
   -4    4   12     -8.23     -0.28
   -6    4   12     -7.08      1.78
   -8    4   12     -7.02      1.46
  -10    4   12     -5.18     -1.70
  -12    4   12     -3.30     -4.91
  -14    4   12     -4.48     -6.11
  -16    4   12     -3.89     -4.05
  -18    4   12     -3.35     -4.11
  -20    4   12     -0.06     -2.74
  -22    4   12      0.42     -2.01
  -24    4   12     -1.22     -0.21
  -26    4   12     -2.18     -1.04
  -28    4   12     -2.14     -3.20
  -30    4   12     -1.34     -1.50
  -32    4   12     -0.28     -0.83
  -34    4   12     -0.18      1.25
  -36    4   12     -0.38     -0.12
   23    5   12      0.82      1.26
   21    5   12     -0.67      2.20
   19    5   12     -0.47      1.51
   17    5   12     -0.67      0.41
   15    5   12     -0.88      0.81
   13    5   12      0.02     -0.13
   11    5   12     -0.45     -0.10
    9    5   12      1.04     -0.49
    7    5   12      1.51     -0.63
    5    5   12      3.24     -2.10
    3    5   12      4.46     -2.09
    1    5   12      6.18      0.66
   -1    5   12      7.27      4.90
   -3    5   12      5.53      5.16
   -5    5   12      3.42      4.01
   -7    5   12      0.81     -0.89
   -9    5   12      2.25     -2.20
  -11    5   12      2.99     -2.29
  -13    5   12      4.36      2.34
  -15    5   12      2.14      2.93
  -17    5   12      0.85      0.80
  -19    5   12     -1.08     -1.36
  -21    5   12     -0.57     -1.58
  -23    5   12     -2.17     -0.94
  -25    5   12     -2.20     -1.88
  -27    5   12     -1.84     -0.54
  -29    5   12     -1.58     -0.08
  -31    5   12     -1.33     -0.33
  -33    5   12     -1.89     -2.55
  -35    5   12     -0.71     -1.47
   22    6   12     -0.78     -1.35
   20    6   12      0.17     -1.70
   18    6   12     -2.07     -0.93
   16    6   12     -2.51     -1.42
   14    6   12     -3.11     -0.88
   12    6   12     -0.51     -0.33
   10    6   12     -1.09      1.06
    8    6   12     -1.23     -0.74
    6    6   12      0.82      0.09
    4    6   12      1.93      1.01
    2    6   12      1.21      4.01
    0    6   12     -2.26      4.37
   -2    6   12     -2.60      4.77
   -4    6   12      0.45      7.66
   -6    6   12     -1.28     10.14
   -8    6   12     -5.18      9.29
  -10    6   12     -7.45      4.90
  -12    6   12     -5.68      1.48
  -14    6   12     -2.13      3.08
  -16    6   12     -4.73      4.74
  -18    6   12     -5.05      4.68
  -20    6   12     -5.20      1.93
  -22    6   12     -2.94      0.92
  -24    6   12     -1.84      1.29
  -26    6   12     -0.99      0.39
  -28    6   12     -0.66      0.00
  -30    6   12      0.34     -1.87
  -32    6   12     -0.41     -0.45
  -34    6   12      0.29     -0.71
   21    7   12      0.30      0.70
   19    7   12     -0.05      0.76
   17    7   12     -0.74      0.70
   15    7   12     -1.24     -1.51
   13    7   12     -3.04     -1.12
   11    7   12     -1.24     -0.96
    9    7   12     -0.48      1.09
    7    7   12      0.69      2.52
    5    7   12     -1.69      1.57
    3    7   12     -2.18      1.05
    1    7   12      0.35     -1.56
   -1    7   12      4.06     -1.64
   -3    7   12      7.26     -0.51
   -5    7   12      5.08      0.75
   -7    7   12      3.06      2.22
   -9    7   12     -0.20      0.59
  -11    7   12      0.99     -0.42
  -13    7   12      2.09     -0.19
  -15    7   12      3.44     -0.54
  -17    7   12      3.09      0.08
  -19    7   12      3.93     -2.07
  -21    7   12      2.64     -0.19
  -23    7   12      2.21     -0.40
  -25    7   12      0.52      0.04
  -27    7   12      1.24     -0.72
  -29    7   12      1.10      0.19
  -31    7   12      0.00     -0.03
  -33    7   12     -0.65     -0.67
   20    8   12     -1.68     -0.16
   18    8   12     -0.98     -0.48
   16    8   12     -0.85      0.81
   14    8   12      2.19      0.62
   12    8   12      1.77      0.91
   10    8   12      1.12     -0.90
    8    8   12     -0.52     -1.47
    6    8   12      0.46     -1.49
    4    8   12      1.40     -0.06
    2    8   12      1.54      1.46
    0    8   12      0.56     -0.60
   -2    8   12      0.58     -1.13
   -4    8   12      0.00     -1.99
   -6    8   12      0.79      1.60
   -8    8   12      1.11      2.00
  -10    8   12      0.07      0.77
  -12    8   12      1.14     -1.09
  -14    8   12     -0.22     -1.28
  -16    8   12      0.40      0.37
  -18    8   12     -2.96      0.42
  -20    8   12     -3.74      0.48
  -22    8   12     -3.52     -0.63
  -24    8   12     -1.98     -0.17
  -26    8   12     -1.56      0.24
  -28    8   12     -1.14      0.41
  -30    8   12     -1.62      0.60
   17    9   12     -0.05     -0.41
   15    9   12     -0.69      0.15
   13    9   12     -0.48     -0.12
   11    9   12     -0.55      0.54
    9    9   12      0.57      0.12
    7    9   12     -0.22      0.19
    5    9   12      0.29      1.14
    3    9   12     -1.84      0.29
    1    9   12     -3.01     -0.48
   -1    9   12     -2.82     -1.22
   -3    9   12     -0.56     -0.99
   -5    9   12      1.32     -0.35
   -7    9   12     -0.64     -0.57
   -9    9   12     -1.00      0.88
  -11    9   12     -0.49      3.22
  -13    9   12      0.29      3.31
  -15    9   12     -2.03      3.54
  -17    9   12     -2.13      0.04
  -19    9   12     -0.54     -0.08
  -21    9   12      3.45     -1.05
  -23    9   12      2.25      0.43
  -25    9   12      1.38      0.35
  -27    9   12     -0.13     -0.11
  -29    9   12      0.55      0.27
   14   10   12      1.25      0.26
   12   10   12      1.31      0.07
   10   10   12      1.37      0.20
    8   10   12      1.65     -0.08
    6   10   12      2.23     -0.70
    4   10   12      2.01      0.06
    2   10   12      0.70     -0.27
    0   10   12     -0.67      0.44
   -2   10   12     -2.43     -2.24
   -4   10   12     -1.94     -1.04
   -6   10   12      0.45     -0.37
   -8   10   12      1.58      1.30
  -10   10   12      2.07      0.35
  -12   10   12     -0.89     -1.03
  -14   10   12      0.90     -0.60
  -16   10   12      0.59     -0.40
  -18   10   12      1.17     -0.16
  -20   10   12     -1.03     -0.48
  -22   10   12     -1.30      0.52
  -24   10   12     -1.54      1.29
  -26   10   12     -0.95      1.30
   11   11   12     -0.22      0.23
    9   11   12      0.36      0.72
    7   11   12      1.08      0.67
    5   11   12      0.10     -0.23
    3   11   12      0.29     -0.46
    1   11   12     -1.27     -0.45
   -1   11   12     -1.15     -1.42
   -3   11   12     -1.28     -2.66
   -5   11   12     -0.26     -3.50
   -7   11   12      0.47     -2.66
   -9   11   12     -0.15     -0.30
  -11   11   12     -0.66      0.01
  -13   11   12     -2.25      0.35
  -15   11   12     -1.84     -1.85
  -17   11   12     -2.16     -0.73
  -19   11   12      0.23     -0.19
  -21   11   12      0.15      1.27
    6   12   12     -1.77      2.57
    4   12   12     -0.23      1.93
    2   12   12      0.38      1.58
    0   12   12     -0.25      0.36
   -2   12   12     -0.61      0.27
   -4   12   12      0.37     -1.45
   -6   12   12      1.39     -1.24
   -8   12   12      1.55     -0.66
  -10   12   12      0.12     -0.62
  -12   12   12      1.19     -0.70
  -14   12   12      0.59     -0.92
  -16   12   12      1.52     -0.44
   27    1   11     -0.86      0.25
   25    1   11     -0.89     -2.12
   23    1   11     -2.94     -1.41
   21    1   11     -0.79     -0.45
   19    1   11     -0.73      0.42
   17    1   11      0.38     -0.47
   15    1   11     -0.03     -4.29
   13    1   11     -1.18     -0.56
   11    1   11     -1.93     -1.84
    9    1   11     -3.86     -0.48
    7    1   11     -2.54     -1.87
    5    1   11     -2.11      1.58
    3    1   11     -4.18      1.31
    1    1   11     -7.05      3.17
   -1    1   11     -7.96      0.59
   -3    1   11     -5.76      7.13
   -5    1   11     -6.95      6.37
   -7    1   11    -12.61     10.25
   -9    1   11    -13.73      5.46
  -11    1   11    -14.57      6.90
  -13    1   11    -10.43      5.58
  -15    1   11    -11.70      4.25
  -17    1   11     -6.79      2.89
  -19    1   11     -2.86      0.51
  -21    1   11      1.74      8.13
  -23    1   11      0.94      4.76
  -25    1   11     -0.79      5.38
  -27    1   11     -1.78     -1.00
  -29    1   11     -1.71      0.49
  -31    1   11      1.09      0.26
  -33    1   11      1.82     -2.32
  -35    1   11      4.30     -1.83
  -37    1   11      1.09     -2.06
   26    2   11      1.72      0.24
   24    2   11      1.13      1.93
   22    2   11      1.90      1.24
   20    2   11     -2.16     -0.91
   18    2   11     -2.23     -3.16
   16    2   11     -1.41     -2.31
   14    2   11      2.57     -1.81
   12    2   11      2.32     -0.17
   10    2   11      1.26      1.22
    8    2   11      0.69     -0.18
    6    2   11      1.43     -2.37
    4    2   11      3.57     -7.37
    2    2   11      5.96     -6.91
    0    2   11      7.89     -7.59
   -2    2   11      4.43     -4.63
   -4    2   11     -0.04     -2.44
   -6    2   11     -2.31     -0.04
   -8    2   11     -3.13     -1.58
  -10    2   11     -1.81     -5.50
  -12    2   11     -1.03    -10.87
  -14    2   11      2.05    -10.13
  -16    2   11      0.21     -8.45
  -18    2   11     -0.94     -3.63
  -20    2   11     -3.42     -4.32
  -22    2   11     -1.96     -2.49
  -24    2   11     -1.70     -0.97
  -26    2   11     -0.16      1.69
  -28    2   11      0.58     -0.21
  -30    2   11     -1.36     -2.34
  -32    2   11     -1.89     -1.78
  -34    2   11     -2.29      0.31
  -36    2   11      0.28      1.88
  -38    2   11      0.46      0.08
   27    3   11      0.62      2.04
   25    3   11     -0.89      0.71
   23    3   11     -0.55     -0.60
   21    3   11     -1.00      1.13
   19    3   11     -0.50      3.31
   17    3   11     -1.43      1.07
   15    3   11     -0.08      0.64
   13    3   11      1.24     -0.02
   11    3   11      0.58      1.54
    9    3   11      0.23     -2.08
    7    3   11     -0.20     -5.14
    5    3   11      2.37     -4.70
    3    3   11      0.73     -3.96
    1    3   11     -0.41     -4.94
   -1    3   11      2.27     -4.94
   -3    3   11      5.50     -4.07
   -5    3   11      5.59     -0.45
   -7    3   11     -1.20     -2.61
   -9    3   11     -6.79     -6.38
  -11    3   11     -8.64    -10.40
  -13    3   11    -11.42     -9.51
  -15    3   11    -11.53     -6.92
  -17    3   11    -10.94     -7.15
  -19    3   11     -5.19     -3.09
  -21    3   11     -2.34     -0.44
  -23    3   11     -3.05      4.83
  -25    3   11     -5.92      1.51
  -27    3   11     -7.05      0.04
  -29    3   11     -4.23     -0.75
  -31    3   11     -0.03     -3.13
  -33    3   11      4.13     -4.01
  -35    3   11      3.25     -4.37
  -37    3   11      1.63     -0.17
   26    4   11     -0.92      0.61
   24    4   11      0.52      0.99
   22    4   11     -0.41      1.52
   20    4   11      0.52     -0.68
   18    4   11     -0.57     -1.87
   16    4   11     -0.03     -1.63
   14    4   11     -0.69      0.43
   12    4   11     -1.72      1.36
   10    4   11     -2.04      0.20
    8    4   11     -1.48     -0.24
    6    4   11      0.52     -0.94
    4    4   11      1.69      0.66
    2    4   11      3.79     -1.01
    0    4   11      4.16     -0.51
   -2    4   11      4.48     -1.11
   -4    4   11      3.65      2.33
   -6    4   11      0.91      4.45
   -8    4   11     -0.68      6.91
  -10    4   11     -1.65      5.52
  -12    4   11      3.54      6.53
  -14    4   11      5.83      5.54
  -16    4   11      6.80      5.71
  -18    4   11      3.02      1.95
  -20    4   11      2.38      0.93
  -22    4   11     -0.16      1.29
  -24    4   11     -0.52      2.32
  -26    4   11      0.00      0.98
  -28    4   11      0.96     -0.93
  -30    4   11      0.62     -1.25
  -32    4   11     -2.91     -1.10
  -34    4   11     -2.29     -0.07
  -36    4   11     -1.12     -0.34
   25    5   11     -0.89     -0.43
   23    5   11     -0.81     -0.91
   21    5   11     -0.84      0.26
   19    5   11     -2.85      1.75
   17    5   11     -3.19      2.55
   15    5   11     -3.70      0.89
   13    5   11     -1.07     -1.20
   11    5   11      1.23     -1.54
    9    5   11      4.15     -1.30
    7    5   11      6.69      1.24
    5    5   11      2.46      0.53
    3    5   11     -0.29      0.77
    1    5   11     -1.27     -2.02
   -1    5   11      4.29     -2.02
   -3    5   11     10.47      0.05
   -5    5   11     10.53      3.85
   -7    5   11      7.99      5.36
   -9    5   11      1.69      4.02
  -11    5   11     -1.93     -0.64
  -13    5   11     -1.26     -3.38
  -15    5   11     -0.17     -4.13
  -17    5   11      2.40     -0.16
  -19    5   11      1.85      1.21
  -21    5   11      2.15      1.99
  -23    5   11      1.79      0.24
  -25    5   11      1.05     -0.46
  -27    5   11      0.33     -0.14
  -29    5   11      0.38     -2.05
  -31    5   11      0.71     -1.33
  -33    5   11      1.81     -2.87
  -35    5   11      1.61     -1.08
   24    6   11      0.11     -0.25
   22    6   11      0.81     -1.40
   20    6   11      1.26     -0.98
   18    6   11      1.41     -0.32
   16    6   11      0.69     -0.17
   14    6   11     -0.73      1.62
   12    6   11     -0.24      1.40
   10    6   11     -1.04      0.81
    8    6   11     -0.23     -0.19
    6    6   11      0.42      0.60
    4    6   11      1.98      2.68
    2    6   11      0.89      1.92
    0    6   11     -0.37     -1.22
   -2    6   11      0.64     -4.42
   -4    6   11      1.17     -5.50
   -6    6   11      1.86     -1.01
   -8    6   11     -1.06      2.45
  -10    6   11     -0.92      5.08
  -12    6   11     -1.52      4.06
  -14    6   11      0.29      3.18
  -16    6   11      0.41      2.74
  -18    6   11      1.18      0.29
  -20    6   11     -0.12      0.77
  -22    6   11      0.67      0.34
  -24    6   11      0.41      2.19
  -26    6   11      0.68      1.45
  -28    6   11      0.19      1.72
  -30    6   11     -0.80      0.82
  -32    6   11     -0.41      0.33
  -34    6   11     -0.51     -0.78
   23    7   11      0.32      0.19
   21    7   11     -0.90      1.00
   19    7   11     -0.32     -0.26
   17    7   11     -0.06     -0.54
   15    7   11      2.92     -1.01
   13    7   11      1.41      0.22
   11    7   11      0.97     -1.04
    9    7   11      0.64     -0.65
    7    7   11      1.22     -0.83
    5    7   11      1.47      0.35
    3    7   11     -0.05     -1.80
    1    7   11      0.48     -5.73
   -1    7   11      0.91     -6.32
   -3    7   11      0.28     -4.32
   -5    7   11      1.65     -1.17
   -7    7   11      2.13     -2.38
   -9    7   11      2.27     -3.95
  -11    7   11      1.39     -4.36
  -13    7   11     -0.67     -5.11
  -15    7   11      0.44     -5.09
  -17    7   11     -0.09     -5.14
  -19    7   11      1.60     -2.39
  -21    7   11      1.93     -1.86
  -23    7   11      1.39     -1.67
  -25    7   11      0.00     -2.54
  -27    7   11     -0.06     -3.65
  -29    7   11      0.44     -2.19
  -31    7   11      1.86     -1.65
  -33    7   11      0.77      0.62
   20    8   11      0.64     -0.15
   18    8   11      0.98      0.69
   16    8   11      1.11      1.33
   14    8   11      1.75     -0.21
   12    8   11      1.07      0.32
   10    8   11      1.18      0.02
    8    8   11     -0.12     -0.52
    6    8   11      0.84     -1.47
    4    8   11     -0.16     -2.73
    2    8   11     -0.38     -0.37
    0    8   11     -0.16      1.07
   -2    8   11      0.19      1.43
   -4    8   11      0.02      0.12
   -6    8   11     -2.90     -1.74
   -8    8   11     -1.88     -1.20
  -10    8   11     -0.93     -0.31
  -12    8   11      0.05      0.44
  -14    8   11     -1.89      2.93
  -16    8   11     -2.60      2.64
  -18    8   11     -3.72      3.97
  -20    8   11     -2.77      0.39
  -22    8   11     -3.02      0.61
  -24    8   11     -0.54      0.76
  -26    8   11      0.01      3.10
  -28    8   11      0.81      3.51
  -30    8   11      1.05      2.80
   19    9   11     -0.51     -1.21
   17    9   11      0.63     -2.17
   15    9   11      0.46     -0.21
   13    9   11      1.17      0.93
   11    9   11      0.74      1.95
    9    9   11      0.68      1.24
    7    9   11      0.41      1.12
    5    9   11      0.76      1.66
    3    9   11      0.94      1.10
    1    9   11      0.61      2.32
   -1    9   11     -1.66      0.65
   -3    9   11     -1.94      1.66
   -5    9   11     -1.24     -0.43
   -7    9   11      0.35      0.18
   -9    9   11      1.60      0.17
  -11    9   11     -0.41      1.57
  -13    9   11      0.16      2.45
  -15    9   11     -1.28      1.52
  -17    9   11      0.29      1.34
  -19    9   11      0.44      0.89
  -21    9   11      1.80      2.19
  -23    9   11      1.84      1.17
  -25    9   11      1.35     -0.41
  -27    9   11     -0.01     -2.43
  -29    9   11      0.16     -3.15
   16   10   11      0.18      0.30
   14   10   11      0.09      0.58
   12   10   11      0.90      0.67
   10   10   11      1.64      1.37
    8   10   11      2.81      1.23
    6   10   11      0.75      0.25
    4   10   11      0.92     -0.99
    2   10   11      0.38     -2.24
    0   10   11      1.62     -1.95
   -2   10   11      0.18     -0.71
   -4   10   11     -1.56     -0.42
   -6   10   11     -2.18     -1.83
   -8   10   11     -2.53     -2.74
  -10   10   11     -1.73     -2.66
  -12   10   11     -1.84     -0.57
  -14   10   11     -0.39     -1.82
  -16   10   11     -0.65     -0.91
  -18   10   11      0.11     -1.82
  -20   10   11     -2.16     -0.80
  -22   10   11     -1.66     -1.47
  -24   10   11     -1.97     -0.78
  -26   10   11     -0.13      0.69
   11   11   11     -0.92      1.57
    9   11   11     -1.56      2.97
    7   11   11     -2.42      3.38
    5   11   11     -1.37      2.29
    3   11   11     -0.54      2.11
    1   11   11     -0.26      1.23
   -1   11   11      0.72      2.21
   -3   11   11      0.30      0.26
   -5   11   11     -0.74      0.52
   -7   11   11     -0.92     -0.35
   -9   11   11     -0.56     -0.91
  -11   11   11      2.28     -1.32
  -13   11   11      0.54     -0.16
  -15   11   11      0.32      2.25
  -17   11   11     -1.67      3.13
  -19   11   11     -0.61      2.32
  -21   11   11     -0.76      1.65
  -23   11   11      0.22      0.73
    8   12   11      0.24      0.42
    6   12   11      0.24      0.74
    4   12   11     -0.46      0.81
    2   12   11      0.86      0.18
    0   12   11      0.83      0.09
   -2   12   11      1.06      0.57
   -4   12   11     -0.59      0.92
   -6   12   11     -1.52      0.86
   -8   12   11     -1.85     -0.46
  -10   12   11     -1.97      1.08
  -12   12   11     -0.53      0.73
  -14   12   11     -0.32      1.21
  -16   12   11      1.18     -0.65
  -18   12   11      0.01     -0.26
   -3   13   11      0.41      1.15
   -5   13   11     -0.37      1.75
   -7   13   11     -1.11      0.71
   28    0   10     -1.86     -0.11
   26    0   10      0.73      0.57
   24    0   10     -0.52      5.98
   22    0   10      2.85      6.64
   20    0   10      1.37      5.25
   18    0   10     -1.28      1.17
   16    0   10     -6.54     -4.01
   14    0   10     -6.73     -5.30
   12    0   10     -3.72     -8.37
   10    0   10     -2.34     -3.70
    8    0   10     -2.27      0.69
    6    0   10     -1.67      5.83
    4    0   10     -0.65      3.30
    2    0   10      1.70      5.04
    0    0   10      1.66     -0.05
   -2    0   10     -1.98      3.21
   -4    0   10    -10.35      0.69
   -6    0   10    -20.60     10.64
   -8    0   10    -20.14     10.71
  -10    0   10    -16.50     12.83
  -12    0   10     -7.03      7.88
  -14    0   10    -10.52      8.71
  -16    0   10    -14.48      6.80
  -18    0   10    -17.68      0.58
  -20    0   10     -7.06      0.52
  -22    0   10      1.57     -5.05
  -24    0   10      5.16     -0.45
  -26    0   10      2.21     -4.00
  -28    0   10      1.58     -0.18
  -30    0   10      3.03     -0.41
  -32    0   10      0.02     -1.33
  -34    0   10      0.35     -0.60
  -36    0   10     -2.27     -0.97
  -38    0   10      0.60      0.14
   29    1   10      1.65      0.53
   27    1   10      1.27      0.59
   25    1   10     -0.70     -1.89
   23    1   10     -0.85     -4.51
   21    1   10     -3.87     -3.76
   19    1   10     -4.66     -2.54
   17    1   10     -3.21     -2.80
   15    1   10      2.32     -3.21
   13    1   10      4.00      1.20
   11    1   10      3.11      4.49
    9    1   10      2.13      2.30
    7    1   10      1.55     -0.14
    5    1   10     -2.50     -1.67
    3    1   10     -9.59     -2.38
    1    1   10    -10.43     -6.13
   -1    1   10     -3.93     -4.10
   -3    1   10      6.21      3.43
   -5    1   10     10.52      7.73
   -7    1   10      5.76      6.11
   -9    1   10     -4.24      0.68
  -11    1   10    -15.23     -3.51
  -13    1   10    -17.23     -6.53
  -15    1   10    -11.69     -8.26
  -17    1   10     -0.92     -4.15
  -19    1   10      2.00      0.64
  -21    1   10     -0.53      6.48
  -23    1   10     -4.50      6.53
  -25    1   10     -2.44      5.45
  -27    1   10      0.63      1.88
  -29    1   10      0.39      1.19
  -31    1   10      0.46      0.21
  -33    1   10      0.95     -0.52
  -35    1   10      3.03     -0.91
  -37    1   10      1.35     -0.86
   28    2   10      1.97     -0.28
   26    2   10      2.10      1.14
   24    2   10      4.19      2.11
   22    2   10      2.98      3.71
   20    2   10      3.98      3.14
   18    2   10      2.41      1.41
   16    2   10      1.92      0.81
   14    2   10      1.13     -3.56
   12    2   10      1.96     -5.54
   10    2   10      3.98     -7.78
    8    2   10      3.93     -4.62
    6    2   10      3.74     -2.27
    4    2   10      3.81     -2.18
    2    2   10      5.47     -8.80
    0    2   10      6.07    -11.88
   -2    2   10      1.34    -16.75
   -4    2   10     -4.53    -13.46
   -6    2   10     -7.84    -13.12
   -8    2   10     -8.60     -7.23
  -10    2   10     -6.21     -6.55
  -12    2   10     -7.54     -4.09
  -14    2   10     -6.90     -4.26
  -16    2   10    -10.41     -3.96
  -18    2   10     -9.18     -1.98
  -20    2   10     -7.47     -4.88
  -22    2   10     -2.53     -0.95
  -24    2   10     -1.54     -3.74
  -26    2   10     -1.20     -0.55
  -28    2   10     -0.79     -2.04
  -30    2   10     -1.15     -2.05
  -32    2   10     -0.18     -1.93
  -34    2   10     -1.90     -2.67
  -36    2   10      1.05     -0.32
  -38    2   10      0.02      0.76
   27    3   10     -1.15      0.42
   25    3   10     -0.11      0.02
   23    3   10     -1.82      0.92
   21    3   10     -1.45      0.38
   19    3   10     -3.83      0.50
   17    3   10     -3.23     -0.23
   15    3   10     -3.11      1.96
   13    3   10     -1.60      2.18
   11    3   10     -0.98      1.93
    9    3   10      0.69      2.82
    7    3   10      2.42      3.64
    5    3   10     -1.34      7.40
    3    3   10     -6.84      6.52
    1    3   10    -10.69      6.90
   -1    3   10     -3.76      4.39
   -3    3   10      4.79      3.99
   -5    3   10      9.07      5.63
   -7    3   10      8.80      6.67
   -9    3   10      5.28      7.22
  -11    3   10      6.67      7.14
  -13    3   10      6.04      5.35
  -15    3   10      8.77      4.69
  -17    3   10      5.86      1.09
  -19    3   10      4.82      2.44
  -21    3   10      0.20      1.78
  -23    3   10      0.01      3.40
  -25    3   10      0.08      1.89
  -27    3   10      1.95      2.92
  -29    3   10      3.61      2.12
  -31    3   10      1.70      1.78
  -33    3   10      1.65      1.05
  -35    3   10     -0.21      0.55
  -37    3   10      0.87      1.45
   26    4   10     -0.31     -0.39
   24    4   10     -0.01     -1.74
   22    4   10      1.44     -2.07
   20    4   10      2.03     -1.58
   18    4   10      3.28      1.04
   16    4   10      1.36      0.63
   14    4   10     -0.22     -0.67
   12    4   10     -0.57     -3.93
   10    4   10      2.03     -6.50
    8    4   10      5.83     -4.97
    6    4   10      3.46     -1.14
    4    4   10      2.51      3.99
    2    4   10     -1.08      1.77
    0    4   10     -2.41     -3.72
   -2    4   10     -2.86     -8.32
   -4    4   10     -1.57     -9.07
   -6    4   10      3.92     -6.28
   -8    4   10      6.07     -0.93
  -10    4   10      4.65      2.64
  -12    4   10      0.77      1.40
  -14    4   10     -1.73     -3.50
  -16    4   10      2.27     -3.57
  -18    4   10      5.20     -3.21
  -20    4   10      7.34     -0.27
  -22    4   10      6.43     -2.51
  -24    4   10      5.91     -1.26
  -26    4   10      3.88     -2.04
  -28    4   10      0.72     -3.11
  -30    4   10     -0.43     -2.09
  -32    4   10     -0.11     -2.22
  -34    4   10      1.22     -0.81
  -36    4   10      0.35     -2.28
   25    5   10      0.93     -0.16
   23    5   10      1.26      0.60
   21    5   10     -0.34      1.94
   19    5   10     -0.26      0.37
   17    5   10     -0.25      0.46
   15    5   10     -1.32      1.78
   13    5   10     -3.32      1.40
   11    5   10     -3.37      0.03
    9    5   10      0.29      0.87
    7    5   10      2.36      5.43
    5    5   10      1.10      7.24
    3    5   10     -3.96      6.81
    1    5   10     -4.97      4.08
   -1    5   10     -4.94      3.52
   -3    5   10     -5.52      0.68
   -5    5   10     -5.02     -2.66
   -7    5   10     -3.13     -6.36
   -9    5   10      2.41     -3.97
  -11    5   10      1.31      0.53
  -13    5   10      0.13      3.60
  -15    5   10     -2.24      0.56
  -17    5   10     -0.16     -2.63
  -19    5   10     -1.12     -2.00
  -21    5   10     -1.28     -0.83
  -23    5   10     -2.79     -0.44
  -25    5   10     -1.41     -0.60
  -27    5   10      0.85      1.53
  -29    5   10      1.81      3.33
  -31    5   10      2.57      3.08
  -33    5   10      0.59      1.32
  -35    5   10      1.06      0.49
   24    6   10      0.76     -0.59
   22    6   10      1.00     -1.68
   20    6   10      2.15     -1.79
   18    6   10      1.25     -1.72
   16    6   10      2.84     -2.17
   14    6   10      2.13     -2.22
   12    6   10      2.38     -3.02
   10    6   10      0.23     -2.37
    8    6   10     -2.06     -4.08
    6    6   10      0.40     -3.34
    4    6   10     -0.14     -3.63
    2    6   10     -0.66     -2.46
    0    6   10     -5.87     -3.00
   -2    6   10     -8.75     -3.81
   -4    6   10     -7.33     -5.02
   -6    6   10     -6.10     -5.72
   -8    6   10     -2.79     -5.79
  -10    6   10     -1.76     -3.44
  -12    6   10     -2.75     -2.30
  -14    6   10     -3.65     -0.49
  -16    6   10     -4.46     -1.13
  -18    6   10     -1.49      0.85
  -20    6   10      0.46     -0.36
  -22    6   10      1.95      0.26
  -24    6   10      2.12      0.31
  -26    6   10      0.73      0.01
  -28    6   10     -0.60     -0.19
  -30    6   10      0.26     -2.67
  -32    6   10      1.38     -0.10
  -34    6   10      1.37      0.17
   23    7   10     -0.04      1.15
   21    7   10     -0.17      0.43
   19    7   10      0.26     -0.82
   17    7   10      0.93     -1.66
   15    7   10      0.21     -1.98
   13    7   10     -2.26     -0.12
   11    7   10     -1.95      0.39
    9    7   10     -0.87      1.72
    7    7   10     -0.66      3.52
    5    7   10     -4.17      3.43
    3    7   10     -4.74      2.92
    1    7   10     -2.14      1.47
   -1    7   10      0.36      2.20
   -3    7   10      0.19      2.77
   -5    7   10     -3.56     -0.68
   -7    7   10     -2.17     -3.70
   -9    7   10     -0.89     -4.73
  -11    7   10      0.66     -1.16
  -13    7   10     -2.47      2.10
  -15    7   10     -3.39      0.62
  -17    7   10     -2.16      0.61
  -19    7   10      1.05     -1.42
  -21    7   10      0.54      1.49
  -23    7   10      0.00      0.42
  -25    7   10     -0.81      0.93
  -27    7   10      0.12     -0.32
  -29    7   10      1.46      0.01
  -31    7   10      1.48      0.14
  -33    7   10      1.34      0.32
   22    8   10     -0.12      0.44
   20    8   10     -1.45      1.15
   18    8   10     -0.87      0.52
   16    8   10     -1.42      1.54
   14    8   10      0.91      0.36
   12    8   10      1.01      0.12
   10    8   10      0.96     -1.30
    8    8   10      0.10     -0.84
    6    8   10     -0.68     -0.99
    4    8   10      0.51     -1.17
    2    8   10      1.50      0.91
    0    8   10      1.20      1.92
   -2    8   10     -0.76      4.31
   -4    8   10     -4.32      2.70
   -6    8   10     -3.83      1.91
   -8    8   10     -1.34      0.08
  -10    8   10      0.21      0.58
  -12    8   10      1.65      1.87
  -14    8   10      1.36      1.25
  -16    8   10      3.59      1.48
  -18    8   10      3.07      1.32
  -20    8   10      1.97      3.76
  -22    8   10      1.01      2.60
  -24    8   10      1.46      1.37
  -26    8   10      1.77      0.35
  -28    8   10      1.37     -0.59
  -30    8   10      0.34      0.12
   19    9   10      0.33     -1.75
   17    9   10      0.15     -1.97
   15    9   10     -0.24     -0.58
   13    9   10      0.14     -0.25
   11    9   10      0.66      0.93
    9    9   10      2.24      1.51
    7    9   10      0.49      2.24
    5    9   10     -0.22      1.95
    3    9   10     -2.09     -1.07
    1    9   10     -0.57     -2.38
   -1    9   10      1.61     -2.08
   -3    9   10      3.00     -0.65
   -5    9   10      2.10     -0.45
   -7    9   10     -1.69     -0.94
   -9    9   10     -1.59     -0.78
  -11    9   10     -0.03      0.44
  -13    9   10      1.31     -0.84
  -15    9   10     -1.10     -0.26
  -17    9   10     -1.47     -2.37
  -19    9   10     -1.72     -0.92
  -21    9   10     -0.20     -2.15
  -23    9   10     -1.67     -1.74
  -25    9   10     -1.06     -2.45
  -27    9   10     -0.52     -2.26
  -29    9   10      0.36     -1.20
   16   10   10      0.19      0.29
   14   10   10      0.27      0.17
   12   10   10     -0.74     -0.14
   10   10   10     -1.50      0.57
    8   10   10     -2.17      0.59
    6   10   10     -1.63     -0.13
    4   10   10     -0.45     -0.35
    2   10   10      0.76     -1.98
    0   10   10      2.14     -0.08
   -2   10   10      0.03      0.62
   -4   10   10     -1.45      4.38
   -6   10   10     -1.33      3.99
   -8   10   10     -0.95      2.64
  -10   10   10      0.03     -0.35
  -12   10   10     -1.97     -1.63
  -14   10   10      1.07     -1.28
  -16   10   10      2.64     -1.02
  -18   10   10      3.90      0.20
  -20   10   10      1.00      0.72
  -22   10   10     -0.51      1.23
  -24   10   10     -0.99      0.70
  -26   10   10      0.08      0.76
   13   11   10      0.33      0.30
   11   11   10     -0.27      0.63
    9   11   10     -1.00      0.29
    7   11   10     -0.10     -0.19
    5   11   10     -1.60      0.23
    3   11   10     -0.88     -0.06
    1   11   10     -0.16     -1.01
   -1   11   10      4.09     -1.45
   -3   11   10      5.06     -0.63
   -5   11   10      3.07      0.63
   -7   11   10      0.30     -0.73
   -9   11   10     -0.16     -0.59
  -11   11   10      2.04     -1.37
  -13   11   10      1.44      0.57
  -15   11   10      0.88     -0.57
  -17   11   10     -1.04      0.12
  -19   11   10      0.86     -0.06
  -21   11   10      0.21      0.08
  -23   11   10      0.44     -0.76
    8   12   10     -1.51     -1.40
    6   12   10     -1.34     -0.84
    4   12   10     -0.21     -0.98
    2   12   10      0.29     -1.01
    0   12   10     -0.31     -1.38
   -2   12   10      0.62      0.78
   -4   12   10      0.64      1.57
   -6   12   10      0.29      2.64
   -8   12   10     -0.06      2.21
  -10   12   10     -0.92      1.39
  -12   12   10      1.25      0.25
  -14   12   10      1.61      0.27
  -16   12   10      3.16      0.32
  -18   12   10      1.62      0.73
    1   13   10      0.48      0.14
   -1   13   10      0.79      0.16
   -3   13   10      1.34      0.38
   -5   13   10      0.55     -0.44
   -7   13   10      0.89     -0.94
   -9   13   10      1.42     -2.76
  -11   13   10      0.53     -1.33
   29    1    9      2.69     -1.70
   27    1    9      0.84     -1.04
   25    1    9      2.15     -3.48
   23    1    9     -1.03     -1.79
   21    1    9      1.29     -1.82
   19    1    9      2.40     -1.41
   17    1    9      5.56     -1.72
   15    1    9      5.25     -2.26
   13    1    9      4.42     -1.36
   11    1    9      3.14     -4.35
    9    1    9      2.75     -5.89
    7    1    9      3.26     -6.97
    5    1    9      3.88     -3.50
    3    1    9     -0.27     -6.45
    1    1    9     -4.23     -5.40
   -1    1    9     -3.64    -11.72
   -3    1    9      0.91     -9.74
   -5    1    9      4.43    -13.33
   -7    1    9     -0.37     -9.70
   -9    1    9     -0.22    -11.21
  -11    1    9     -0.81     -5.74
  -13    1    9      2.98     -3.94
  -15    1    9      0.25     -0.64
  -17    1    9      0.14     -0.51
  -19    1    9     -2.28     -2.58
  -21    1    9     -0.81      3.03
  -23    1    9     -3.37      0.55
  -25    1    9     -3.31      3.52
  -27    1    9     -3.25     -0.21
  -29    1    9     -1.64      1.54
  -31    1    9      1.52      1.52
  -33    1    9     -1.16      0.10
  -35    1    9      0.14     -0.07
  -37    1    9     -2.34     -0.05
   28    2    9     -2.25     -0.34
   26    2    9     -0.15      0.98
   24    2    9     -0.16      3.05
   22    2    9      0.65      1.68
   20    2    9     -0.84     -0.65
   18    2    9      1.07     -0.84
   16    2    9      0.76      3.23
   14    2    9     -0.96      2.69
   12    2    9     -3.00      0.90
   10    2    9     -1.65      1.93
    8    2    9     -0.02      3.57
    6    2    9     -2.39      5.58
    4    2    9     -0.87      3.40
    2    2    9      1.06      4.67
    0    2    9      3.35      4.99
   -2    2    9     -2.46      2.80
   -4    2    9     -4.03      3.18
   -6    2    9      2.89      1.75
   -8    2    9     11.21      5.59
  -10    2    9     17.02      3.96
  -12    2    9     15.50     -0.42
  -14    2    9     18.05     -5.15
  -16    2    9     14.97     -6.00
  -18    2    9     11.09     -0.33
  -20    2    9      0.86     -1.66
  -22    2    9     -1.08     -2.95
  -24    2    9      0.40     -5.39
  -26    2    9      4.50     -1.13
  -28    2    9      4.32     -1.53
  -30    2    9      0.53     -0.47
  -32    2    9      0.09      0.97
  -34    2    9     -1.05      3.30
  -36    2    9      1.32      2.53
  -38    2    9      0.75     -0.76
   29    3    9     -0.94     -0.19
   27    3    9     -0.26     -0.50
   25    3    9     -1.66     -2.50
   23    3    9     -1.03     -3.59
   21    3    9     -0.73     -2.60
   19    3    9      1.93      0.21
   17    3    9      1.22      1.38
   15    3    9     -0.10      3.33
   13    3    9     -1.62      2.49
   11    3    9     -1.32      0.42
    9    3    9      0.30     -1.13
    7    3    9      0.07      0.05
    5    3    9      1.32      3.89
    3    3    9     -1.32      7.52
    1    3    9     -2.86      7.16
   -1    3    9     -0.36      5.78
   -3    3    9      5.52      1.21
   -5    3    9      9.37     -1.41
   -7    3    9      8.62     -5.01
   -9    3    9      6.60     -5.46
  -11    3    9      5.68     -4.21
  -13    3    9      2.17     -0.16
  -15    3    9      1.43      1.71
  -17    3    9      1.16     -0.86
  -19    3    9      4.48     -0.20
  -21    3    9      3.68     -3.51
  -23    3    9      3.52     -1.58
  -25    3    9      1.08     -4.04
  -27    3    9      0.14     -0.51
  -29    3    9      1.55      2.16
  -31    3    9      2.21      2.25
  -33    3    9      3.00      1.19
  -35    3    9     -1.76     -0.59
  -37    3    9     -2.42     -0.64
   28    4    9      0.78     -0.28
   26    4    9      0.25      0.95
   24    4    9      0.85      1.53
   22    4    9     -0.30      1.27
   20    4    9      0.52     -2.56
   18    4    9      1.27     -3.66
   16    4    9      2.18     -3.12
   14    4    9      0.57     -0.54
   12    4    9     -0.84      0.38
   10    4    9     -0.97      1.13
    8    4    9     -1.38      3.67
    6    4    9      0.49      1.61
    4    4    9      1.53      0.38
    2    4    9      5.83     -2.46
    0    4    9      2.19     -0.39
   -2    4    9     -4.15      1.47
   -4    4    9    -11.73      0.30
   -6    4    9    -14.69     -1.16
   -8    4    9     -9.22     -3.51
  -10    4    9     -3.93     -2.06
  -12    4    9      3.88      0.33
  -14    4    9      3.61      1.05
  -16    4    9      3.93      1.44
  -18    4    9     -0.89     -0.17
  -20    4    9     -1.83      0.12
  -22    4    9     -4.79     -1.05
  -24    4    9     -2.97     -0.38
  -26    4    9     -0.76     -1.35
  -28    4    9      1.28      0.09
  -30    4    9      2.83      1.17
  -32    4    9      0.48      3.97
  -34    4    9      0.39      4.09
  -36    4    9     -1.45      1.33
   27    5    9      0.67     -2.36
   25    5    9      0.98     -1.40
   23    5    9      0.73     -1.97
   21    5    9      0.67     -0.73
   19    5    9     -0.91     -0.87
   17    5    9     -0.17     -0.39
   15    5    9     -1.21     -1.30
   13    5    9     -0.11     -1.02
   11    5    9      0.37      2.61
    9    5    9     -0.92      4.61
    7    5    9     -1.18      4.77
    5    5    9     -6.57      0.02
    3    5    9     -5.26     -1.10
    1    5    9     -4.33      0.70
   -1    5    9     -0.93      6.04
   -3    5    9      0.36      9.26
   -5    5    9     -1.80      9.29
   -7    5    9     -1.98      4.56
   -9    5    9     -3.31      1.73
  -11    5    9     -3.83      0.85
  -13    5    9     -4.29      3.62
  -15    5    9     -5.10      3.85
  -17    5    9     -2.82      6.82
  -19    5    9     -2.67      5.07
  -21    5    9     -2.21      4.71
  -23    5    9     -2.60      0.20
  -25    5    9     -1.52     -0.38
  -27    5    9     -0.11      0.67
  -29    5    9      0.46      0.17
  -31    5    9      1.50      1.51
  -33    5    9      1.27      1.12
  -35    5    9      0.57      2.82
   26    6    9      0.89      1.93
   24    6    9     -0.20      2.45
   22    6    9     -0.97      0.00
   20    6    9     -0.37     -1.03
   18    6    9      0.26     -2.26
   16    6    9     -0.01     -2.56
   14    6    9      0.40     -2.18
   12    6    9      2.02     -2.09
   10    6    9      1.76     -1.12
    8    6    9     -0.45      0.06
    6    6    9     -2.37      1.08
    4    6    9      0.75      1.04
    2    6    9      3.22      1.42
    0    6    9      4.06      0.85
   -2    6    9      1.95     -0.68
   -4    6    9     -2.50     -4.44
   -6    6    9     -3.76     -6.09
   -8    6    9     -4.72     -7.96
  -10    6    9      0.46     -7.49
  -12    6    9      2.89     -4.91
  -14    6    9      4.92     -0.92
  -16    6    9      2.82      2.06
  -18    6    9      1.69     -0.36
  -20    6    9     -0.46      0.08
  -22    6    9     -0.28     -1.07
  -24    6    9     -0.11     -0.07
  -26    6    9      0.68     -1.07
  -28    6    9      1.33     -0.40
  -30    6    9      0.32      0.44
  -32    6    9      0.60      0.52
  -34    6    9     -0.19      0.55
   25    7    9     -0.24      1.10
   23    7    9     -0.03      2.04
   21    7    9     -1.64      2.18
   19    7    9     -1.57      1.38
   17    7    9     -2.82      1.78
   15    7    9     -0.62      1.44
   13    7    9     -1.08      2.44
   11    7    9     -0.29      2.35
    9    7    9      0.54      4.69
    7    7    9     -1.35      5.61
    5    7    9     -1.31      5.31
    3    7    9     -2.80      3.04
    1    7    9     -0.42      1.30
   -1    7    9      0.76      3.93
   -3    7    9      0.67      7.76
   -5    7    9      2.08     10.20
   -7    7    9      1.57      9.12
   -9    7    9      1.62      6.85
  -11    7    9      2.37      5.86
  -13    7    9      2.92      3.17
  -15    7    9      3.68      2.49
  -17    7    9      2.26      0.73
  -19    7    9      2.57      3.55
  -21    7    9      2.57      2.97
  -23    7    9      1.15      2.31
  -25    7    9     -0.07     -0.39
  -27    7    9     -0.48     -2.73
  -29    7    9      0.05     -1.14
  -31    7    9      0.27     -0.97
  -33    7    9      0.46      1.20
   22    8    9      0.41     -0.55
   20    8    9      1.34     -0.43
   18    8    9      1.99      1.01
   16    8    9      1.18      1.49
   14    8    9      0.93     -1.14
   12    8    9      1.74     -2.65
   10    8    9      3.71     -3.37
    8    8    9      3.38     -3.30
    6    8    9      3.00     -2.58
    4    8    9      0.87     -2.41
    2    8    9      0.60      0.14
    0    8    9      0.99      0.14
   -2    8    9      0.95     -2.17
   -4    8    9      1.50     -4.69
   -6    8    9     -0.10     -5.70
   -8    8    9      1.66     -5.17
  -10    8    9      1.97     -6.93
  -12    8    9      2.87     -9.63
  -14    8    9      1.53     -8.06
  -16    8    9      0.62     -7.21
  -18    8    9     -2.03     -3.54
  -20    8    9     -3.95     -5.50
  -22    8    9     -5.53     -4.14
  -24    8    9     -3.30     -4.18
  -26    8    9     -0.22     -1.08
  -28    8    9      1.34      1.28
  -30    8    9      1.02      2.00
   21    9    9      0.23     -0.51
   19    9    9     -0.64     -0.13
   17    9    9     -0.45     -1.12
   15    9    9     -1.66      0.24
   13    9    9     -2.54      0.44
   11    9    9     -3.87      1.41
    9    9    9     -4.39      1.20
    7    9    9     -2.61      1.29
    5    9    9     -0.51      2.03
    3    9    9      0.30      1.14
    1    9    9     -0.80      2.50
   -1    9    9     -3.34      1.58
   -3    9    9     -2.08      3.07
   -5    9    9      0.49      2.09
   -7    9    9      2.27      3.39
   -9    9    9      1.86      3.92
  -11    9    9     -1.55      4.56
  -13    9    9     -1.39      4.27
  -15    9    9     -1.79      2.12
  -17    9    9      0.07      1.76
  -19    9    9      1.09      1.62
  -21    9    9      2.12      4.38
  -23    9    9      1.27      4.38
  -25    9    9     -0.33      2.84
  -27    9    9     -1.58      1.04
  -29    9    9     -1.94     -0.08
   18   10    9      1.06      0.71
   16   10    9      0.28      0.75
   14   10    9     -0.66      1.10
   12   10    9     -0.85      0.01
   10   10    9     -1.17     -0.91
    8   10    9      0.29     -2.44
    6   10    9     -0.69     -2.11
    4   10    9      0.10     -0.77
    2   10    9     -0.92     -1.02
    0   10    9      0.71     -1.98
   -2   10    9      1.27     -2.86
   -4   10    9      1.43     -2.29
   -6   10    9      0.73     -3.12
   -8   10    9     -1.05     -3.16
  -10   10    9     -1.28     -4.24
  -12   10    9     -1.49     -3.30
  -14   10    9      0.23     -4.97
  -16   10    9     -0.09     -4.15
  -18   10    9      0.88     -5.33
  -20   10    9     -0.95     -5.17
  -22   10    9     -0.92     -5.49
  -24   10    9     -1.45     -4.23
  -26   10    9      0.13     -1.45
   15   11    9     -1.37      0.03
   13   11    9     -1.67     -0.47
   11   11    9     -3.08     -1.04
    9   11    9     -2.51     -0.42
    7   11    9     -1.88     -0.14
    5   11    9     -0.23     -0.11
    3   11    9      0.58      1.48
    1   11    9     -0.96      1.55
   -1   11    9     -0.75      1.50
   -3   11    9     -0.98     -1.57
   -5   11    9      0.34     -1.04
   -7   11    9      1.97      0.11
   -9   11    9      1.38      1.45
  -11   11    9      1.73      0.27
  -13   11    9     -0.82     -0.18
  -15   11    9     -0.18      0.33
  -17   11    9     -0.69      1.14
  -19   11    9      0.74      1.11
  -21   11    9      0.79      1.94
  -23   11    9      1.48      2.24
   10   12    9      0.50     -1.55
    8   12    9      0.96     -1.60
    6   12    9      1.41     -1.65
    4   12    9      0.42     -1.08
    2   12    9      1.36     -0.86
    0   12    9     -0.03      0.28
   -2   12    9     -0.55      0.76
   -4   12    9     -1.46     -0.99
   -6   12    9     -0.29     -1.36
   -8   12    9      0.31     -1.47
  -10   12    9     -1.13      2.22
  -12   12    9     -1.70      1.82
  -14   12    9     -2.97      1.23
  -16   12    9     -1.48     -0.66
  -18   12    9     -2.17     -0.11
    3   13    9     -0.18     -0.14
    1   13    9      0.26      0.43
   -1   13    9     -0.95      0.15
   -3   13    9     -0.34      0.15
   -5   13    9     -0.01     -0.54
   -7   13    9      0.70     -0.43
   -9   13    9      0.77     -0.73
  -11   13    9     -0.36     -0.46
   30    0    8     -0.79     -3.06
   28    0    8     -3.66     -2.90
   26    0    8     -0.12     -3.79
   24    0    8     -1.64      2.16
   22    0    8      2.55      1.01
   20    0    8      4.16     -1.50
   18    0    8      6.63     -3.76
   16    0    8      2.56     -2.60
   14    0    8     -1.96     -4.60
   12    0    8     -4.54     -9.23
   10    0    8     -4.24     -8.89
    8    0    8     -4.44     -8.31
    6    0    8      0.22     -7.84
    4    0    8      6.82     -8.97
    2    0    8     10.17      4.34
    0    0    8      3.27      3.63
   -2    0    8    -10.72     -7.83
   -4    0    8    -13.57    -27.21
   -6    0    8    -13.25    -24.13
   -8    0    8     -1.97    -14.53
  -10    0    8      5.15     -5.61
  -12    0    8     16.78     -7.80
  -14    0    8     17.31     -2.46
  -16    0    8      8.75      2.59
  -18    0    8     -5.00      4.02
  -20    0    8     -6.46      3.61
  -22    0    8     -3.94     -2.10
  -24    0    8     -0.18      2.75
  -26    0    8     -3.37      2.13
  -28    0    8     -4.33      3.41
  -30    0    8     -0.88      0.11
  -32    0    8     -1.45     -0.24
  -34    0    8      1.07      1.96
  -36    0    8     -1.18      2.98
  -38    0    8      1.79      1.80
   29    1    8      1.50     -0.14
   27    1    8      2.25      0.94
   25    1    8      0.41      0.30
   23    1    8     -2.15     -1.01
   21    1    8     -6.11     -2.41
   19    1    8     -4.54     -4.16
   17    1    8      1.15     -3.67
   15    1    8      6.71     -0.15
   13    1    8      6.47      6.16
   11    1    8      2.96      8.86
    9    1    8      0.17      4.90
    7    1    8     -2.02      2.18
    5    1    8     -3.04      1.45
    3    1    8     -9.07      2.55
    1    1    8    -12.99      1.78
   -1    1    8    -12.92      1.40
   -3    1    8     -1.81      6.87
   -5    1    8     10.05      5.77
   -7    1    8     14.58      2.75
   -9    1    8     12.15     -6.56
  -11    1    8      5.21    -10.54
  -13    1    8      3.71    -14.11
  -15    1    8      5.55    -16.50
  -17    1    8     12.97    -14.76
  -19    1    8     12.02    -10.40
  -21    1    8      7.09     -2.38
  -23    1    8      0.13      0.17
  -25    1    8      0.11      1.85
  -27    1    8      0.47     -0.70
  -29    1    8     -1.01     -0.10
  -31    1    8     -0.78     -0.55
  -33    1    8     -0.96      0.27
  -35    1    8      0.38     -0.29
  -37    1    8     -1.17     -1.16
   30    2    8     -2.23      1.69
   28    2    8     -0.84      0.95
   26    2    8     -2.34      2.37
   24    2    8     -0.35      2.06
   22    2    8     -0.93      2.30
   20    2    8      2.21      1.39
   18    2    8      2.58      2.62
   16    2    8      1.68      4.91
   14    2    8     -1.17      4.59
   12    2    8     -1.87      3.33
   10    2    8     -2.11      4.27
    8    2    8     -3.56      6.82
    6    2    8     -1.53      5.35
    4    2    8      7.68      5.57
    2    2    8     18.18      5.53
    0    2    8     18.53     11.04
   -2    2    8      9.95      7.48
   -4    2    8     -1.60      2.36
   -6    2    8     -3.39     -3.92
   -8    2    8     -2.40     -2.80
  -10    2    8      4.14     -2.11
  -12    2    8      7.25      1.85
  -14    2    8      8.72      3.35
  -16    2    8      4.28      5.22
  -18    2    8      1.91      5.17
  -20    2    8     -0.06     -1.54
  -22    2    8      3.00     -2.16
  -24    2    8      0.92     -5.56
  -26    2    8     -1.00     -0.62
  -28    2    8     -2.19     -0.16
  -30    2    8     -2.26      0.74
  -32    2    8      1.08      0.23
  -34    2    8     -1.42      0.07
  -36    2    8     -0.17     -0.30
   29    3    8      1.79     -0.01
   27    3    8      1.25      0.18
   25    3    8      1.40      0.48
   23    3    8     -0.62      0.60
   21    3    8     -1.39     -0.80
   19    3    8     -3.64     -2.00
   17    3    8     -3.51     -4.29
   15    3    8     -1.22     -3.21
   13    3    8      2.27     -0.48
   11    3    8      2.75      3.46
    9    3    8     -1.11      6.29
    7    3    8     -2.76     -0.93
    5    3    8     -6.62     -7.08
    3    3    8     -4.68    -11.24
    1    3    8     -7.33     -7.65
   -1    3    8     -3.17     -2.40
   -3    3    8     -2.41     -2.02
   -5    3    8     -2.72      4.42
   -7    3    8     -5.60      2.48
   -9    3    8     -9.64      1.90
  -11    3    8     -5.16     -3.54
  -13    3    8     -2.42     -3.23
  -15    3    8      3.02     -1.13
  -17    3    8     -0.37     -2.51
  -19    3    8      0.32     -1.58
  -21    3    8     -3.62     -2.06
  -23    3    8     -2.73      1.46
  -25    3    8     -3.65     -0.34
  -27    3    8     -0.50      0.61
  -29    3    8      3.14     -1.47
  -31    3    8      2.68      0.50
  -33    3    8      3.04      1.27
  -35    3    8     -0.38      2.67
  -37    3    8      0.39      2.75
   28    4    8      0.52     -1.24
   26    4    8      0.30      1.09
   24    4    8     -1.23     -0.11
   22    4    8     -1.11     -0.61
   20    4    8     -1.46     -1.46
   18    4    8     -0.04     -0.58
   16    4    8     -0.16     -2.83
   14    4    8      3.16     -3.28
   12    4    8      6.28      0.49
   10    4    8      5.21      3.71
    8    4    8      1.51      4.71
    6    4    8     -4.82      1.07
    4    4    8     -0.65     -2.60
    2    4    8      4.39     -4.62
    0    4    8      9.43     -1.69
   -2    4    8      8.85      5.67
   -4    4    8      5.54     12.73
   -6    4    8      2.45     15.17
   -8    4    8     -1.23     15.01
  -10    4    8     -3.06     12.57
  -12    4    8     -3.01      9.94
  -14    4    8     -2.68      8.06
  -16    4    8      0.32     10.51
  -18    4    8      0.80      8.82
  -20    4    8      3.08      9.25
  -22    4    8      1.69      4.63
  -24    4    8      1.54      5.45
  -26    4    8     -1.12      3.28
  -28    4    8     -4.28      2.28
  -30    4    8     -4.26      1.87
  -32    4    8     -3.24      1.18
  -34    4    8      0.23      1.05
  -36    4    8     -0.38      0.31
   27    5    8      0.91      0.72
   25    5    8      1.16      2.06
   23    5    8      0.16      2.60
   21    5    8     -1.39      2.96
   19    5    8     -2.37     -0.22
   17    5    8     -2.33     -2.15
   15    5    8     -0.49     -3.51
   13    5    8      1.15     -3.03
   11    5    8      1.27     -0.72
    9    5    8     -0.29      1.44
    7    5    8     -4.27      3.30
    5    5    8     -5.10     -1.07
    3    5    8     -5.73     -3.67
    1    5    8      0.95     -5.71
   -1    5    8      5.45     -4.78
   -3    5    8      7.65     -3.81
   -5    5    8      6.72     -4.38
   -7    5    8      1.87     -4.74
   -9    5    8      0.44     -7.59
  -11    5    8     -1.50     -9.28
  -13    5    8      3.30     -9.14
  -15    5    8      3.82     -6.88
  -17    5    8      3.02     -5.19
  -19    5    8     -2.06     -3.10
  -21    5    8     -2.97     -2.60
  -23    5    8     -4.61     -2.99
  -25    5    8     -3.24     -4.24
  -27    5    8     -0.40     -4.70
  -29    5    8      1.19     -2.08
  -31    5    8      1.18     -1.27
  -33    5    8     -1.41     -0.69
  -35    5    8      0.24     -1.11
   26    6    8     -0.67      1.18
   24    6    8     -1.51      1.64
   22    6    8     -1.70      0.14
   20    6    8      0.46      1.99
   18    6    8     -0.78      4.03
   16    6    8      1.03      3.40
   14    6    8      2.01      1.15
   12    6    8      4.49     -0.43
   10    6    8      3.54      1.46
    8    6    8     -1.26      0.52
    6    6    8      1.18     -1.09
    4    6    8      2.04     -2.71
    2    6    8      5.41     -2.04
    0    6    8      3.29     -1.73
   -2    6    8      3.31     -1.94
   -4    6    8      7.35     -0.56
   -6    6    8      8.38      5.17
   -8    6    8      6.70      8.77
  -10    6    8      2.32      7.41
  -12    6    8      1.09      0.23
  -14    6    8      3.27     -0.93
  -16    6    8      2.67     -0.23
  -18    6    8      2.03      4.01
  -20    6    8      0.96      0.59
  -22    6    8      2.52     -0.12
  -24    6    8      3.43     -1.29
  -26    6    8      1.69     -0.71
  -28    6    8     -0.30      0.46
  -30    6    8     -2.11     -0.56
  -32    6    8     -1.38      0.70
  -34    6    8     -0.78     -0.24
   25    7    8     -0.44     -0.96
   23    7    8      0.33      0.11
   21    7    8      0.47     -1.27
   19    7    8      1.99     -1.97
   17    7    8      3.02     -2.71
   15    7    8      2.57     -2.39
   13    7    8      1.28     -1.00
   11    7    8      1.17     -0.63
    9    7    8      1.69     -1.41
    7    7    8      1.65     -1.33
    5    7    8     -0.90     -1.03
    3    7    8     -1.58     -0.15
    1    7    8     -0.85     -0.39
   -1    7    8      0.59     -0.57
   -3    7    8      3.33     -0.30
   -5    7    8      3.76     -1.32
   -7    7    8      6.34     -0.90
   -9    7    8      3.31     -1.82
  -11    7    8      0.54     -3.29
  -13    7    8     -3.40     -4.30
  -15    7    8     -4.01     -5.40
  -17    7    8     -4.45     -2.25
  -19    7    8     -4.65     -3.34
  -21    7    8     -5.39     -0.61
  -23    7    8     -5.04     -1.16
  -25    7    8     -3.35      0.70
  -27    7    8     -1.41      1.17
  -29    7    8      0.22      2.34
  -31    7    8     -1.09      2.68
  -33    7    8     -2.07      0.96
   24    8    8     -1.67     -1.12
   22    8    8     -0.44     -1.47
   20    8    8     -0.32      0.26
   18    8    8      0.34      0.74
   16    8    8     -1.56      1.65
   14    8    8     -0.77      0.20
   12    8    8     -1.75      0.22
   10    8    8     -3.92     -1.17
    8    8    8     -4.00     -3.74
    6    8    8     -2.27     -6.55
    4    8    8      2.84     -7.35
    2    8    8      4.26     -3.35
    0    8    8      2.59     -1.41
   -2    8    8      0.43     -0.69
   -4    8    8     -0.73     -2.81
   -6    8    8      0.72     -2.52
   -8    8    8      0.22     -1.21
  -10    8    8     -2.90      0.17
  -12    8    8     -3.25      1.00
  -14    8    8     -1.92     -0.37
  -16    8    8      0.51      1.00
  -18    8    8     -0.41      0.54
  -20    8    8     -1.25      2.48
  -22    8    8      0.07      1.40
  -24    8    8      1.39      1.76
  -26    8    8      2.01      2.16
  -28    8    8      0.48      1.35
  -30    8    8     -0.52      1.48
   21    9    8     -0.03     -0.70
   19    9    8      0.17     -1.20
   17    9    8      0.59     -0.53
   15    9    8      0.28      1.54
   13    9    8      0.12      2.10
   11    9    8     -0.29      2.81
    9    9    8      0.71      2.38
    7    9    8      0.43      2.18
    5    9    8      1.28      3.64
    3    9    8     -1.16      3.83
    1    9    8     -3.12      3.86
   -1    9    8     -3.52      0.68
   -3    9    8     -1.74     -2.33
   -5    9    8      0.56     -3.14
   -7    9    8     -0.73      0.02
   -9    9    8     -0.45      3.35
  -11    9    8      0.11      4.61
  -13    9    8      1.64      2.55
  -15    9    8      0.31      3.42
  -17    9    8     -0.47      1.32
  -19    9    8     -1.27      0.23
  -21    9    8     -0.12     -3.00
  -23    9    8     -0.27     -2.03
  -25    9    8     -0.79     -0.46
  -27    9    8     -1.18      0.24
  -29    9    8     -0.69      0.47
   18   10    8      0.67      2.15
   16   10    8      0.22      1.33
   14   10    8      0.01      0.30
   12   10    8     -0.24     -1.35
   10   10    8      0.35     -1.33
    8   10    8     -0.03     -1.40
    6   10    8      1.15     -2.51
    4   10    8      3.65     -2.07
    2   10    8      4.06     -1.58
    0   10    8      1.90      1.40
   -2   10    8     -3.93      0.90
   -4   10    8     -5.19      0.72
   -6   10    8     -1.75     -1.66
   -8   10    8      0.22     -1.80
  -10   10    8     -0.46     -1.98
  -12   10    8     -4.63     -1.39
  -14   10    8     -3.14     -1.07
  -16   10    8     -1.54     -1.20
  -18   10    8     -0.26     -0.82
  -20   10    8     -0.78     -1.21
  -22   10    8      0.72     -0.65
  -24   10    8      1.91      0.43
  -26   10    8      1.79      1.52
   15   11    8     -0.67     -0.15
   13   11    8     -0.25      0.03
   11   11    8      0.97     -0.95
    9   11    8      1.51     -1.01
    7   11    8      2.19     -1.34
    5   11    8     -0.10      0.18
    3   11    8     -0.22      2.09
    1   11    8     -1.47      3.27
   -1   11    8     -0.21      2.55
   -3   11    8     -0.37     -0.46
   -5   11    8     -0.15     -1.19
   -7   11    8      0.34     -1.85
   -9   11    8      1.57      0.77
  -11   11    8      3.90      1.05
  -13   11    8      2.57      3.19
  -15   11    8      0.90      3.42
  -17   11    8     -2.51      4.43
  -19   11    8     -0.91      3.78
  -21   11    8      0.11      2.04
  -23   11    8      1.62      1.22
   12   12    8      1.52     -0.64
   10   12    8      0.86     -0.93
    8   12    8      1.17      0.47
    6   12    8      1.10      0.61
    4   12    8      2.37     -0.06
    2   12    8      3.56      0.85
    0   12    8      0.21      2.50
   -2   12    8     -2.34      3.39
   -4   12    8     -3.82      0.72
   -6   12    8     -2.28     -0.22
   -8   12    8     -1.00      0.02
  -10   12    8     -2.46      1.50
  -12   12    8     -2.12      0.64
  -14   12    8     -1.73      0.89
  -16   12    8      0.28      0.39
  -18   12    8     -0.39      0.53
    5   13    8     -0.86     -0.89
    3   13    8     -1.39      0.41
    1   13    8     -0.63      0.88
   -1   13    8     -0.58      1.13
   -3   13    8      1.00      1.36
   -5   13    8      1.35      0.48
   -7   13    8      1.78      0.18
   -9   13    8      1.85     -2.35
  -11   13    8      1.19     -1.96
  -13   13    8      1.57     -2.33
   31    1    7      0.46      2.85
   29    1    7      3.80      2.04
   27    1    7      0.73      3.83
   25    1    7      1.61     -0.08
   23    1    7     -0.77      1.53
   21    1    7      1.81      3.34
   19    1    7      0.78      7.01
   17    1    7      0.32      6.05
   15    1    7      1.03      4.88
   13    1    7      3.61      4.22
   11    1    7      3.68      4.29
    9    1    7      3.45      4.76
    7    1    7      4.46      3.19
    5    1    7      7.19      4.62
    3    1    7      7.38     -1.27
    1    1    7      7.54     -0.89
   -1    1    7     17.43     -1.27
   -3    1    7     18.47      3.49
   -5    1    7     16.52      4.62
   -7    1    7     -0.66      3.14
   -9    1    7     -5.04     -0.58
  -11    1    7     -4.73      2.08
  -13    1    7     -0.23      4.95
  -15    1    7      0.43      8.53
  -17    1    7      0.40      3.91
  -19    1    7      1.30     -3.73
  -21    1    7      4.59     -3.20
  -23    1    7      1.10     -4.18
  -25    1    7     -1.70     -0.44
  -27    1    7     -2.50     -2.92
  -29    1    7     -0.24     -1.37
  -31    1    7      3.99     -1.47
  -33    1    7      0.02     -1.01
  -35    1    7     -0.17     -1.08
  -37    1    7     -3.13      0.60
   30    2    7      1.14     -0.42
   28    2    7      0.05     -0.96
   26    2    7      0.99      1.14
   24    2    7      0.81      1.26
   22    2    7      1.83     -0.16
   20    2    7      0.28     -1.09
   18    2    7     -1.45     -0.65
   16    2    7     -3.10     -0.47
   14    2    7     -2.62     -2.07
   12    2    7      0.14     -1.59
   10    2    7      1.63      3.93
    8    2    7      0.75      3.62
    6    2    7     -7.41      0.97
    4    2    7     -4.55     -7.91
    2    2    7      1.13    -12.36
    0    2    7     10.17     -5.72
   -2    2    7      0.25      3.51
   -4    2    7    -10.79     18.55
   -6    2    7    -13.36     15.72
   -8    2    7     -6.08     17.12
  -10    2    7      1.71     12.45
  -12    2    7     -0.10     11.92
  -14    2    7      0.41      7.27
  -16    2    7     -2.52      4.31
  -18    2    7     -0.35      6.15
  -20    2    7     -4.52      3.86
  -22    2    7     -2.26      2.54
  -24    2    7     -1.62     -1.46
  -26    2    7      2.04      0.63
  -28    2    7      1.19     -1.41
  -30    2    7     -2.63     -0.22
  -32    2    7     -1.84     -1.36
  -34    2    7     -1.34     -0.43
  -36    2    7      2.47     -0.91
   29    3    7      0.03      0.24
   27    3    7      1.48      0.13
   25    3    7     -0.38     -1.67
   23    3    7      0.13     -2.04
   21    3    7     -0.36      0.13
   19    3    7     -0.81      2.86
   17    3    7     -3.77      0.97
   15    3    7     -2.29     -2.34
   13    3    7      1.31     -3.52
   11    3    7      2.48     -5.74
    9    3    7      1.57     -8.43
    7    3    7     -0.19     -9.42
    5    3    7     -0.12     -7.15
    3    3    7     -4.73     -2.28
    1    3    7     -4.35     -1.57
   -1    3    7      1.83     -1.06
   -3    3    7     12.90     -1.35
   -5    3    7     13.36     -1.44
   -7    3    7      7.80     -1.36
   -9    3    7     -0.45     -0.26
  -11    3    7     -4.20      1.99
  -13    3    7     -6.01      6.37
  -15    3    7     -5.19      8.06
  -17    3    7     -4.31      4.36
  -19    3    7      1.13      3.02
  -21    3    7      2.88      0.25
  -23    3    7      4.93      4.29
  -25    3    7      0.86      1.95
  -27    3    7     -1.46      2.59
  -29    3    7     -0.32      1.07
  -31    3    7     -0.45      0.42
  -33    3    7      2.01     -1.79
  -35    3    7      0.81     -1.14
  -37    3    7      2.88      0.03
   30    4    7      0.00     -0.42
   28    4    7      0.40     -0.13
   26    4    7      0.14      1.05
   24    4    7      0.52      2.44
   22    4    7      0.26      2.71
   20    4    7     -0.10      0.82
   18    4    7     -0.74     -0.41
   16    4    7     -0.43     -2.21
   14    4    7     -0.88     -2.35
   12    4    7     -2.35     -1.10
   10    4    7     -2.72     -1.19
    8    4    7     -2.44      3.26
    6    4    7      3.64      3.35
    4    4    7      4.08      5.86
    2    4    7      8.79      2.63
    0    4    7      4.32     -0.64
   -2    4    7      1.74     -0.17
   -4    4    7     -3.57     -3.47
   -6    4    7     -4.51      0.26
   -8    4    7     -0.65     -0.90
  -10    4    7      0.05      2.08
  -12    4    7      2.83     -0.48
  -14    4    7      0.21     -2.09
  -16    4    7      0.81     -1.93
  -18    4    7     -3.25     -1.56
  -20    4    7     -1.18     -0.98
  -22    4    7     -2.13     -1.73
  -24    4    7     -0.17     -0.20
  -26    4    7     -2.23     -2.09
  -28    4    7     -3.82     -1.39
  -30    4    7     -4.27     -2.82
  -32    4    7     -5.85     -1.12
  -34    4    7     -2.97     -2.82
  -36    4    7     -2.34     -3.12
   29    5    7     -0.59      2.30
   27    5    7     -1.51      0.11
   25    5    7     -0.70      0.30
   23    5    7      0.54     -0.90
   21    5    7      3.01      1.63
   19    5    7      2.54      2.68
   17    5    7      4.31      3.34
   15    5    7      2.55      2.14
   13    5    7      1.25      0.43
   11    5    7     -0.73      0.49
    9    5    7     -2.82     -2.73
    7    5    7      0.33     -5.27
    5    5    7     -2.06     -5.79
    3    5    7     -1.40     -2.73
    1    5    7     -4.26      0.02
   -1    5    7     -4.09      0.35
   -3    5    7     -1.79     -2.52
   -5    5    7      1.58     -5.63
   -7    5    7      6.21     -7.80
   -9    5    7      4.75     -4.99
  -11    5    7     -1.14     -2.67
  -13    5    7     -6.35     -1.80
  -15    5    7     -8.36     -5.06
  -17    5    7     -3.91     -2.89
  -19    5    7     -2.37     -4.55
  -21    5    7      0.67     -3.32
  -23    5    7      0.94     -6.25
  -25    5    7      1.98     -3.83
  -27    5    7      1.61     -1.59
  -29    5    7     -0.91     -0.74
  -31    5    7     -1.44     -1.08
  -33    5    7     -1.79     -2.05
  -35    5    7      0.60     -1.31
   28    6    7     -0.50      1.50
   26    6    7     -1.53      0.22
   24    6    7     -1.40     -0.49
   22    6    7     -1.19     -2.52
   20    6    7      0.97     -2.01
   18    6    7      2.05     -1.79
   16    6    7      1.44      0.69
   14    6    7      0.04      2.79
   12    6    7     -2.34      2.29
   10    6    7     -4.52     -1.37
    8    6    7     -3.48     -5.30
    6    6    7      0.31     -4.08
    4    6    7      6.49     -0.72
    2    6    7      5.99      4.02
    0    6    7      2.88      4.79
   -2    6    7     -1.02      2.30
   -4    6    7     -3.65     -1.25
   -6    6    7     -0.92     -2.51
   -8    6    7     -0.11     -1.21
  -10    6    7      2.19      0.88
  -12    6    7     -0.65      3.41
  -14    6    7     -1.62      4.37
  -16    6    7     -3.07      4.90
  -18    6    7     -3.09      0.88
  -20    6    7     -3.15      0.77
  -22    6    7     -0.58      0.27
  -24    6    7      1.67      2.85
  -26    6    7      2.11      3.73
  -28    6    7      1.50      3.16
  -30    6    7     -0.04      2.55
  -32    6    7     -0.35      0.46
  -34    6    7     -1.36      0.29
   25    7    7     -1.76     -1.43
   23    7    7      0.51     -0.72
   21    7    7     -0.43     -0.35
   19    7    7     -0.70     -1.33
   17    7    7     -2.58     -2.10
   15    7    7      0.07     -2.34
   13    7    7     -0.88      0.46
   11    7    7     -3.22      1.51
    9    7    7     -3.77      0.45
    7    7    7     -5.17     -2.86
    5    7    7     -2.58     -5.86
    3    7    7     -4.02     -6.47
    1    7    7     -3.21     -6.49
   -1    7    7     -2.48     -4.01
   -3    7    7     -1.65     -1.33
   -5    7    7     -0.10      0.31
   -7    7    7     -1.19      1.74
   -9    7    7     -2.18      4.13
  -11    7    7     -2.25      7.34
  -13    7    7     -2.81      4.89
  -15    7    7     -1.96      2.66
  -17    7    7     -1.66     -1.33
  -19    7    7      1.28      1.08
  -21    7    7      3.84      0.70
  -23    7    7      4.04      2.66
  -25    7    7      2.75      2.83
  -27    7    7     -0.58      1.52
  -29    7    7     -1.22      0.71
  -31    7    7     -1.67     -0.57
  -33    7    7     -0.72      0.49
   24    8    7     -1.10     -1.03
   22    8    7     -0.39     -0.01
   20    8    7     -0.24      0.95
   18    8    7      0.63      2.72
   16    8    7      0.47      3.93
   14    8    7      0.57      3.68
   12    8    7      0.87      3.39
   10    8    7      1.38      2.95
    8    8    7      0.58      1.66
    6    8    7      0.52      2.31
    4    8    7     -0.36      2.70
    2    8    7     -0.20      4.59
    0    8    7     -0.19      2.77
   -2    8    7     -1.75     -0.14
   -4    8    7     -1.76     -1.11
   -6    8    7     -3.03      0.42
   -8    8    7      0.29      2.81
  -10    8    7      1.62      2.63
  -12    8    7      3.06      1.26
  -14    8    7      2.87      2.17
  -16    8    7      3.13      0.72
  -18    8    7      1.82      1.15
  -20    8    7     -1.01     -3.25
  -22    8    7     -1.94     -3.83
  -24    8    7     -0.73     -3.75
  -26    8    7      1.28     -0.87
  -28    8    7      0.84      0.38
  -30    8    7      0.90     -0.60
   23    9    7      0.87      0.91
   21    9    7      0.68      0.82
   19    9    7     -0.65      1.02
   17    9    7     -0.12     -1.25
   15    9    7      0.23     -1.97
   13    9    7      1.02     -2.64
   11    9    7      1.31     -1.64
    9    9    7      0.83     -0.08
    7    9    7      1.49      0.21
    5    9    7      1.24     -0.26
    3    9    7      0.54     -3.05
    1    9    7     -0.68     -2.18
   -1    9    7     -2.28     -0.98
   -3    9    7     -1.20      1.76
   -5    9    7      0.57      1.28
   -7    9    7      1.28      1.03
   -9    9    7      1.87      0.60
  -11    9    7      0.53      1.60
  -13    9    7      1.17      2.70
  -15    9    7      0.12      1.43
  -17    9    7      0.11      0.96
  -19    9    7      1.27     -0.45
  -21    9    7      3.47      0.80
  -23    9    7      4.73      1.11
  -25    9    7      2.64      1.44
  -27    9    7      0.31      0.90
  -29    9    7     -1.29     -0.23
   20   10    7     -0.04     -0.14
   18   10    7     -0.79     -0.31
   16   10    7     -0.79     -1.43
   14   10    7      0.51     -1.21
   12   10    7      2.51     -1.98
   10   10    7      2.98     -1.28
    8   10    7      2.57     -0.45
    6   10    7     -1.11      1.03
    4   10    7     -2.18      1.96
    2   10    7     -2.54      0.08
    0   10    7      0.42     -1.00
   -2   10    7      2.35     -1.40
   -4   10    7      2.60      0.78
   -6   10    7      1.39      0.42
   -8   10    7     -0.57     -0.29
  -10   10    7      0.39     -2.28
  -12   10    7      1.35     -0.99
  -14   10    7      3.26      0.33
  -16   10    7      2.38      3.58
  -18   10    7      2.15      3.90
  -20   10    7     -0.40      2.09
  -22   10    7     -1.47     -0.81
  -24   10    7     -1.69     -2.71
  -26   10    7     -0.55     -1.53
   17   11    7      0.02     -0.72
   15   11    7     -0.03     -1.91
   13   11    7      0.73     -1.64
   11   11    7     -0.31     -0.70
    9   11    7     -0.20      0.80
    7   11    7     -0.35      0.81
    5   11    7      0.44     -0.35
    3   11    7      2.17     -0.21
    1   11    7      1.54     -0.03
   -1   11    7      1.93      0.38
   -3   11    7      0.50     -1.22
   -5   11    7      0.24     -0.29
   -7   11    7      1.07     -0.15
   -9   11    7      1.02      0.03
  -11   11    7      2.32     -1.83
  -13   11    7      1.30     -1.38
  -15   11    7      1.33     -0.89
  -17   11    7      0.07     -0.35
  -19   11    7      0.05     -0.59
  -21   11    7      0.04      0.57
  -23   11    7      1.11      1.35
   12   12    7      0.97      0.49
   10   12    7      0.90      0.31
    8   12    7      0.63      0.85
    6   12    7      0.63      0.48
    4   12    7     -1.24      0.87
    2   12    7     -1.17      0.19
    0   12    7     -1.39      0.11
   -2   12    7      0.61      1.10
   -4   12    7      0.58      0.53
   -6   12    7     -0.23      0.69
   -8   12    7     -1.25     -1.45
  -10   12    7     -1.49     -0.44
  -12   12    7      0.65     -1.22
  -14   12    7     -0.01     -1.09
  -16   12    7      0.44     -1.41
  -18   12    7     -1.51     -0.71
  -20   12    7     -0.87      0.74
    7   13    7      0.17      0.57
    5   13    7      0.34      0.48
    3   13    7     -0.45      0.68
    1   13    7     -0.80     -0.89
   -1   13    7     -1.96     -2.98
   -3   13    7      0.01     -2.48
   -5   13    7      0.39     -1.09
   -7   13    7      0.21      0.75
   -9   13    7     -0.47     -0.49
  -11   13    7     -0.78     -0.45
  -13   13    7     -0.43     -1.06
   32    0    6      1.00      2.97
   30    0    6      3.23      1.06
   28    0    6     -1.48      3.78
   26    0    6     -1.48      0.70
   22    0    6      5.54     -0.67
   20    0    6     11.72      2.60
   18    0    6     11.00      6.78
   16    0    6      2.15      8.97
   14    0    6     -4.38      2.43
   12    0    6     -3.99     -2.95
   10    0    6      0.60     -0.43
    8    0    6     -0.07      0.30
    6    0    6     -2.18     -3.09
    4    0    6      3.78    -15.50
    2    0    6     18.12    -16.69
    0    0    6     38.79    -19.24
   -2    0    6     26.63    -25.88
   -4    0    6     11.34    -32.26
   -6    0    6    -14.78    -32.42
   -8    0    6    -11.17    -21.46
  -10    0    6     -3.13    -11.03
  -12    0    6      9.37     -5.55
  -14    0    6     15.49      2.13
  -16    0    6      9.03      7.21
  -18    0    6     -0.72      7.97
  -20    0    6     -5.61      3.13
  -22    0    6     -5.49     -5.43
  -24    0    6     -3.17     -3.86
  -26    0    6     -3.52     -2.77
  -28    0    6     -2.61     -0.15
  -30    0    6      1.59     -2.25
  -32    0    6     -0.23     -2.00
  -34    0    6      1.04     -0.83
  -36    0    6     -0.95      1.67
  -38    0    6      0.62      1.50
   31    1    6      2.80      0.18
   29    1    6      2.81      0.47
   27    1    6      2.84      1.38
   25    1    6      1.28     -1.27
   23    1    6      0.53     -2.43
   21    1    6     -1.88     -0.76
   19    1    6     -4.03      1.41
   17    1    6     -3.08     -0.02
   15    1    6      2.15     -0.95
   13    1    6      6.86      0.92
   11    1    6      7.76      3.28
    9    1    6      8.67      1.32
    7    1    6      5.25      4.73
    5    1    6     -2.94      3.76
    3    1    6    -18.65    -10.34
    1    1    6    -14.67    -25.92
   -1    1    6      7.24    -19.37
   -3    1    6     34.17     19.92
   -5    1    6     37.45     45.68
   -7    1    6     23.51     48.41
   -9    1    6      9.04     29.55
  -11    1    6     -1.05     21.29
  -13    1    6     -5.87     17.22
  -15    1    6     -7.85     11.72
  -17    1    6     -0.26      4.63
  -19    1    6      2.76      1.35
  -21    1    6      2.58      4.27
  -23    1    6     -2.36      2.93
  -25    1    6     -0.14     -0.48
  -27    1    6      3.15     -5.66
  -29    1    6      3.73     -3.21
  -31    1    6      2.59     -0.89
  -33    1    6     -0.69      1.17
  -35    1    6     -0.45     -0.05
  -37    1    6     -1.84     -0.60
   32    2    6     -0.61     -0.08
   30    2    6     -3.39      1.00
   28    2    6     -2.26     -0.78
   26    2    6     -4.27     -0.47
   24    2    6     -1.89     -2.66
   22    2    6     -0.61     -3.02
   20    2    6      2.38     -2.74
   18    2    6      1.40     -0.41
   16    2    6     -2.33      0.22
   14    2    6     -6.91     -1.62
   12    2    6     -9.43     -7.26
   10    2    6     -9.89    -11.74
    8    2    6     -9.43    -11.21
    6    2    6     -8.11     -9.63
    4    2    6     -5.43     -4.49
    2    2    6      3.16     -5.39
    0    2    6      3.31     -6.78
   -2    2    6      2.74    -12.35
   -4    2    6    -12.85    -21.36
   -6    2    6    -14.22    -25.31
   -8    2    6    -13.43    -22.10
  -10    2    6     -4.60    -12.66
  -12    2    6     -0.67     -3.58
  -14    2    6     -1.20      0.34
  -16    2    6     -2.12      4.77
  -18    2    6     -1.81      8.91
  -20    2    6     -1.34      6.07
  -22    2    6      2.87      3.66
  -24    2    6      2.49     -1.92
  -26    2    6      1.81      1.27
  -28    2    6      1.06      2.08
  -30    2    6     -0.70      4.07
  -32    2    6      1.78      1.16
  -34    2    6      0.42     -0.47
  -36    2    6      2.98     -2.74
   31    3    6     -1.07     -0.02
   29    3    6     -0.87      1.20
   27    3    6     -2.01     -0.40
   25    3    6     -0.86      0.01
   23    3    6     -0.15      0.00
   21    3    6      0.48      0.72
   19    3    6     -0.35      0.32
   17    3    6      0.01      0.39
   15    3    6      0.15      2.00
   13    3    6     -1.78      4.90
   11    3    6     -3.22      2.97
    9    3    6     -1.62      3.84
    7    3    6      9.28     -0.52
    5    3    6      9.99      4.74
    3    3    6      9.80      9.34
    1    3    6     -3.72     10.00
   -1    3    6     -4.96      7.93
   -3    3    6     -5.63     -2.98
   -5    3    6      1.60      2.28
   -7    3    6      5.40      0.42
   -9    3    6      3.32      5.89
  -11    3    6      0.85      1.91
  -13    3    6     -3.70      1.27
  -15    3    6     -1.51     -0.22
  -17    3    6     -4.36     -1.28
  -19    3    6     -2.29      0.66
  -21    3    6     -5.81      0.99
  -23    3    6     -2.83      2.44
  -25    3    6     -3.17     -1.22
  -27    3    6     -0.58     -1.15
  -29    3    6      0.42     -3.95
  -31    3    6     -2.09     -1.25
  -33    3    6     -1.48     -1.50
  -35    3    6     -3.03      0.19
  -37    3    6      0.33      0.01
   30    4    6      1.31      1.09
   28    4    6     -0.73      0.78
   26    4    6     -1.09      1.16
   24    4    6     -0.77     -2.11
   22    4    6      2.10     -2.64
   20    4    6      4.33     -3.09
   18    4    6      8.30     -1.17
   16    4    6      6.98      0.91
   14    4    6      3.15      2.44
   12    4    6     -1.97      2.97
   10    4    6     -4.77     -2.72
    8    4    6     -1.09     -6.63
    6    4    6      1.38     -5.12
    4    4    6      5.15     -1.68
    2    4    6      1.06     -0.36
    0    4    6     -3.20     -1.46
   -2    4    6     -8.73     -1.58
   -4    4    6    -10.95     -2.77
   -6    4    6    -11.29     -7.94
   -8    4    6     -7.89    -10.49
  -10    4    6     -3.53     -7.62
  -12    4    6     -3.19     -2.07
  -14    4    6     -6.54      0.32
  -16    4    6     -4.66      1.18
  -18    4    6     -2.59     -2.72
  -20    4    6      2.60     -3.18
  -22    4    6      1.57     -7.42
  -24    4    6      3.82     -4.81
  -26    4    6      2.89     -3.21
  -28    4    6     -0.32      1.10
  -30    4    6     -1.52      1.41
  -32    4    6     -2.22      1.43
  -34    4    6      0.09     -0.27
  -36    4    6     -0.98     -0.18
   29    5    6     -1.11      1.78
   27    5    6     -1.78      0.50
   25    5    6     -0.85     -0.63
   23    5    6     -0.31     -0.33
   21    5    6     -0.14      0.29
   19    5    6     -0.42     -1.31
   17    5    6      0.56      0.68
   15    5    6      1.30      4.96
   13    5    6     -1.59      7.15
   11    5    6     -4.81      5.66
    9    5    6     -3.52     -0.28
    7    5    6     -1.53     -0.15
    5    5    6      3.00     -0.76
    3    5    6      0.30      5.42
    1    5    6      1.57     10.35
   -1    5    6     -2.05     12.01
   -3    5    6     -4.31     11.47
   -5    5    6     -5.93      4.31
   -7    5    6     -6.10      0.52
   -9    5    6     -1.43     -3.54
  -11    5    6      0.69     -0.55
  -13    5    6      3.60      2.16
  -15    5    6      1.17      2.86
  -17    5    6      0.08      0.54
  -19    5    6     -2.04      1.89
  -21    5    6     -0.25      3.95
  -23    5    6     -0.92      5.34
  -25    5    6      0.82      4.56
  -27    5    6      2.57      1.36
  -29    5    6      4.03      0.62
  -31    5    6      4.13     -1.65
  -33    5    6      1.40     -0.17
  -35    5    6      1.16     -0.81
   28    6    6     -0.26     -0.92
   26    6    6     -1.63     -2.10
   24    6    6     -1.30     -2.59
   22    6    6     -1.21     -4.15
   20    6    6      1.03     -1.89
   18    6    6     -0.87      1.16
   16    6    6      0.34      2.51
   14    6    6     -1.04      3.06
   12    6    6     -1.49      1.21
   10    6    6     -1.69      0.21
    8    6    6     -3.90     -2.38
    6    6    6      0.12     -4.06
    4    6    6      0.11     -3.24
    2    6    6      0.31     -1.84
    0    6    6     -3.78     -1.68
   -2    6    6     -6.60     -3.15
   -4    6    6     -5.44     -2.95
   -6    6    6     -5.10      0.64
   -8    6    6     -2.50      3.52
  -10    6    6      0.74      4.68
  -12    6    6      2.91      2.82
  -14    6    6      4.03      3.16
  -16    6    6      1.61      0.01
  -18    6    6      3.55      0.67
  -20    6    6      4.27     -2.46
  -22    6    6      6.67     -0.84
  -24    6    6      6.74     -0.93
  -26    6    6      3.82      0.41
  -28    6    6      0.95     -0.13
  -30    6    6     -1.17     -1.84
  -32    6    6      0.96     -1.64
  -34    6    6      1.26     -0.17
   27    7    6      0.89     -0.25
   25    7    6      1.69     -0.55
   23    7    6      2.69      2.12
   21    7    6      0.21      2.62
   19    7    6     -0.31      2.08
   17    7    6      0.21      0.42
   15    7    6      0.58      1.13
   13    7    6      0.06      1.89
   11    7    6      1.29      1.22
    9    7    6      4.80      0.23
    7    7    6      7.34      3.23
    5    7    6      4.06      7.35
    3    7    6     -0.11      8.68
    1    7    6     -2.81      6.28
   -1    7    6     -2.81      5.03
   -3    7    6     -0.84      6.38
   -5    7    6     -2.71      6.49
   -7    7    6     -0.78      3.76
   -9    7    6      0.16     -0.77
  -11    7    6      3.30     -1.99
  -13    7    6      1.85     -0.05
  -15    7    6     -0.51     -0.99
  -17    7    6     -0.85     -1.52
  -19    7    6     -0.19     -4.67
  -21    7    6     -0.08     -1.66
  -23    7    6     -2.20     -0.37
  -25    7    6     -2.69      1.24
  -27    7    6     -2.47      1.13
  -29    7    6     -0.74      0.24
  -31    7    6     -0.06      0.03
  -33    7    6      0.07     -0.94
   26    8    6      0.76     -1.28
   24    8    6      0.18     -1.37
   22    8    6      1.94     -0.70
   20    8    6      1.62      1.48
   18    8    6      1.69      1.90
   16    8    6     -0.69      1.89
   14    8    6      0.26     -0.30
   12    8    6      0.97     -1.16
   10    8    6      0.78     -0.12
    8    8    6      1.12      1.23
    6    8    6     -0.89      2.11
    4    8    6     -0.71      0.04
    2    8    6     -0.90     -0.28
    0    8    6      0.26     -0.78
   -2    8    6      1.73      0.70
   -4    8    6      1.71      1.22
   -6    8    6      0.45      0.48
   -8    8    6     -1.07     -2.60
  -10    8    6     -1.84     -4.78
  -12    8    6      1.03     -3.74
  -14    8    6      2.42     -3.44
  -16    8    6      2.82     -1.66
  -18    8    6      1.68     -2.45
  -20    8    6      1.08     -0.18
  -22    8    6      1.57     -0.98
  -24    8    6      0.63     -1.42
  -26    8    6      1.14     -2.22
  -28    8    6     -0.16     -2.75
  -30    8    6      0.11     -2.85
   23    9    6      0.87     -0.40
   21    9    6     -0.16     -0.82
   19    9    6     -2.04     -1.88
   17    9    6     -1.67     -3.23
   15    9    6     -1.22     -2.54
   13    9    6     -0.94     -2.64
   11    9    6     -0.34     -2.78
    9    9    6      2.20     -2.12
    7    9    6      2.65     -0.34
    5    9    6      1.49      3.43
    3    9    6     -2.68      2.61
    1    9    6     -3.78      0.63
   -1    9    6     -0.94     -3.44
   -3    9    6      1.69     -4.03
   -5    9    6      2.05     -2.68
   -7    9    6     -1.70     -0.62
   -9    9    6     -1.06     -0.62
  -11    9    6      0.78     -1.05
  -13    9    6      2.58     -0.73
  -15    9    6      1.16      2.22
  -17    9    6      0.78      1.79
  -19    9    6      1.36      1.33
  -21    9    6      0.54      0.12
  -23    9    6     -1.59      0.04
  -25    9    6     -3.64     -0.43
  -27    9    6     -2.69     -1.40
  -29    9    6     -1.31     -0.57
   20   10    6     -0.66      0.08
   18   10    6     -1.28      0.80
   16   10    6     -1.68      0.21
   14   10    6     -1.54      0.35
   12   10    6     -1.99      1.01
   10   10    6     -2.51      2.18
    8   10    6     -3.85      2.97
    6   10    6     -3.72      1.03
    4   10    6     -1.44     -1.64
    2   10    6      0.68     -5.06
    0   10    6      2.94     -4.30
   -2   10    6      2.23     -1.38
   -4   10    6      1.64      2.84
   -6   10    6      1.98      2.21
   -8   10    6      0.60      0.46
  -10   10    6     -0.62     -1.40
  -12   10    6     -3.27     -0.65
  -14   10    6     -2.57     -0.98
  -16   10    6     -1.02     -2.53
  -18   10    6      0.47     -2.41
  -20   10    6      0.92     -0.56
  -22   10    6      0.81      1.23
  -24   10    6      1.10      0.88
  -26   10    6      1.48      0.21
   17   11    6      0.58     -0.85
   15   11    6      0.82     -0.67
   13   11    6      1.22      1.62
   11   11    6      1.05      1.48
    9   11    6      0.72      0.36
    7   11    6      1.18     -0.83
    5   11    6     -1.92      1.19
    3   11    6     -4.70      2.94
    1   11    6     -6.29      0.06
   -1   11    6     -1.77     -3.95
   -3   11    6      2.31     -6.19
   -5   11    6      2.66     -2.32
   -7   11    6      0.64     -0.51
   -9   11    6      0.12      0.23
  -11   11    6      3.24     -2.46
  -13   11    6      2.42     -2.98
  -15   11    6      0.66     -3.12
  -17   11    6     -2.53     -2.32
  -19   11    6     -0.69     -0.33
  -21   11    6     -0.42      0.44
  -23   11    6     -0.83      1.32
   14   12    6     -0.35      0.39
   12   12    6      0.30      0.17
   10   12    6     -0.88     -0.20
    8   12    6     -0.40      1.02
    6   12    6      0.20      1.16
    4   12    6      0.26      0.21
    2   12    6      0.76     -1.21
    0   12    6     -1.19     -0.99
   -2   12    6     -0.76      1.16
   -4   12    6     -1.15      1.77
   -6   12    6     -0.37      2.85
   -8   12    6     -0.14      2.52
  -10   12    6     -1.46      4.27
  -12   12    6     -2.37      3.46
  -14   12    6     -2.08      2.63
  -16   12    6      0.46     -0.62
  -18   12    6      1.90     -2.02
  -20   12    6      1.69     -2.94
    9   13    6     -0.29     -1.49
    7   13    6     -0.38     -1.32
    5   13    6     -1.67     -0.97
    3   13    6     -4.79      0.03
    1   13    6     -5.11     -1.65
   -1   13    6     -2.74     -3.32
   -3   13    6      2.10     -2.61
   -5   13    6      4.08     -1.84
   -7   13    6      4.12     -0.98
   -9   13    6      4.23     -2.44
  -11   13    6      3.73     -1.49
  -13   13    6      4.39     -1.16
   31    1    5     -3.35      2.82
   29    1    5     -0.88      0.00
   27    1    5     -3.00      0.34
   25    1    5     -1.22     -3.89
   23    1    5     -3.37     -1.59
   21    1    5     -3.77      0.18
   19    1    5     -4.94      1.78
   17    1    5     -4.55      0.52
   15    1    5     -3.16      1.17
   13    1    5     -4.97      1.31
   11    1    5    -11.35     -1.53
    9    1    5    -13.47     -3.67
    7    1    5     -7.18     -6.28
    5    1    5     -0.25      4.48
    3    1    5      0.70     17.58
    1    1    5    -19.74     29.43
   -1    1    5    -20.10     24.60
   -3    1    5    -26.17      3.34
   -5    1    5     -6.21     -7.14
   -7    1    5     -8.14     -8.42
   -9    1    5     -5.63      0.54
  -11    1    5     -8.42      3.88
  -13    1    5     -8.91      4.45
  -15    1    5     -4.05      5.86
  -17    1    5     -2.48      4.71
  -19    1    5      2.22      1.13
  -21    1    5      6.39      1.46
  -23    1    5      5.91      0.33
  -25    1    5      2.88      2.90
  -27    1    5      1.04      0.39
  -29    1    5      0.79      0.79
  -31    1    5      4.69     -1.27
  -33    1    5      2.35     -0.92
  -35    1    5      2.44     -2.18
  -37    1    5      0.58     -1.16
   32    2    5     -1.94     -0.29
   30    2    5     -2.52      0.59
   28    2    5     -4.29     -1.03
   26    2    5     -1.85      2.06
   24    2    5     -0.56      2.80
   22    2    5     -0.86      1.93
   20    2    5     -2.29     -3.43
   18    2    5     -0.29     -5.29
   16    2    5      0.96     -3.62
   14    2    5     -0.82      0.88
   12    2    5     -1.04      1.15
   10    2    5      1.19      5.01
    8    2    5      6.53      1.60
    6    2    5      5.30      2.08
    4    2    5     15.61      1.08
    2    2    5     14.39      5.00
    0    2    5      4.59     14.94
   -2    2    5    -25.25     11.95
   -4    2    5    -35.77     11.89
   -6    2    5    -25.34     -2.53
   -8    2    5     -5.39     -2.03
  -10    2    5      3.70     -5.24
  -12    2    5     -0.87     -4.78
  -14    2    5     -3.93     -8.91
  -16    2    5     -6.45     -8.46
  -18    2    5     -2.41     -1.71
  -20    2    5     -5.59      2.10
  -22    2    5     -3.72      1.90
  -24    2    5     -2.53     -2.06
  -26    2    5      3.03      0.84
  -28    2    5      2.94      2.38
  -30    2    5     -1.97      6.33
  -32    2    5     -2.32      4.13
  -34    2    5     -3.22      3.52
  -36    2    5     -0.09      0.80
   31    3    5      1.21      1.14
   29    3    5      0.12      2.58
   27    3    5      0.82      1.38
   25    3    5     -0.25     -1.69
   23    3    5      0.90     -2.26
   21    3    5      1.66     -1.77
   19    3    5      3.90     -0.77
   17    3    5      4.76      0.43
   15    3    5      5.54      2.40
   13    3    5      4.99      5.44
   11    3    5      2.51      3.91
    9    3    5      0.76      0.60
    7    3    5      0.67     -0.49
    5    3    5      3.16      1.92
    3    3    5     -2.79     13.02
    1    3    5     -7.40     20.62
   -1    3    5    -12.95     15.64
   -3    3    5     -0.80      1.42
   -5    3    5      4.85    -10.34
   -7    3    5      7.34     -8.54
   -9    3    5     -0.11     -3.95
  -11    3    5     -3.68     -1.10
  -13    3    5     -1.20      1.03
  -15    3    5      1.85      1.76
  -17    3    5      1.38     -1.45
  -19    3    5      2.39     -2.92
  -21    3    5      0.27     -4.49
  -23    3    5      1.95     -0.29
  -25    3    5     -0.25     -1.54
  -27    3    5     -1.03      0.05
  -29    3    5      0.64     -2.33
  -31    3    5      0.54     -1.07
  -33    3    5      2.30     -1.73
  -35    3    5      0.42      1.14
  -37    3    5      1.00      0.46
   30    4    5      0.26     -1.16
   28    4    5      0.30     -0.01
   26    4    5     -0.05     -0.09
   24    4    5      0.07      1.40
   22    4    5     -0.56      0.50
   20    4    5     -1.23     -1.07
   18    4    5     -1.29     -1.53
   16    4    5     -0.47     -0.57
   14    4    5     -1.31     -1.18
   12    4    5     -1.52     -0.29
   10    4    5      0.16     -2.34
    8    4    5     -2.10      4.36
    6    4    5     -0.77      2.15
    4    4    5     -5.29      1.62
    2    4    5      0.64     -2.45
    0    4    5     -2.74     -4.78
   -2    4    5     -1.65      0.67
   -4    4    5     -5.15      0.40
   -6    4    5     -5.51      8.92
   -8    4    5     -5.42      5.70
  -10    4    5     -4.96      2.56
  -12    4    5     -0.29     -5.55
  -14    4    5      0.80     -7.78
  -16    4    5      2.01     -6.51
  -18    4    5     -1.38     -4.09
  -20    4    5      1.02     -1.97
  -22    4    5      0.23      0.20
  -24    4    5      3.35      2.87
  -26    4    5      2.94      1.41
  -28    4    5      3.71      1.76
  -30    4    5      4.72     -1.03
  -32    4    5      3.21      1.73
  -34    4    5      2.91      1.10
  -36    4    5     -1.08      1.99
   29    5    5     -1.63     -0.18
   27    5    5     -2.04     -2.28
   25    5    5     -1.48     -0.95
   23    5    5     -2.09     -1.18
   21    5    5     -1.24      1.45
   19    5    5     -2.39      3.19
   17    5    5      0.14      3.73
   15    5    5      0.28      2.98
   13    5    5      2.60     -0.65
   11    5    5      6.49      0.68
    9    5    5      6.04      3.00
    7    5    5      2.99      5.60
    5    5    5     -5.94      5.56
    3    5    5     -7.84      3.15
    1    5    5     -6.14      1.40
   -1    5    5     -1.08      0.26
   -3    5    5      5.23      0.39
   -5    5    5      9.38      1.70
   -7    5    5     11.57      2.63
   -9    5    5      9.18      2.83
  -11    5    5      6.20      1.71
  -13    5    5      4.83      0.67
  -15    5    5      2.15     -1.55
  -17    5    5      5.40      0.97
  -19    5    5      4.75      1.44
  -21    5    5      6.55      4.57
  -23    5    5      3.00      1.80
  -25    5    5      2.20      1.04
  -27    5    5      2.22     -1.37
  -29    5    5      1.11     -1.03
  -31    5    5      1.29     -1.72
  -33    5    5      0.56     -0.17
  -35    5    5      1.20      0.61
   28    6    5      1.70     -1.80
   26    6    5      2.26     -1.46
   24    6    5      2.20      0.00
   22    6    5     -0.02     -0.13
   20    6    5      0.34      0.06
   18    6    5     -0.40     -0.90
   16    6    5     -2.83     -0.28
   14    6    5     -4.44     -1.63
   12    6    5     -3.49     -5.14
   10    6    5     -0.25     -6.44
    8    6    5      3.75     -4.86
    6    6    5      4.33      1.25
    4    6    5      5.01      2.46
    2    6    5      0.27      1.39
    0    6    5     -2.34     -2.60
   -2    6    5     -3.22     -6.74
   -4    6    5     -2.87     -6.20
   -6    6    5     -1.42     -3.98
   -8    6    5     -5.03     -2.85
  -10    6    5     -6.21     -6.09
  -12    6    5     -6.58     -7.87
  -14    6    5     -3.63     -6.67
  -16    6    5     -2.54     -3.51
  -18    6    5     -3.76     -4.80
  -20    6    5     -5.22     -3.07
  -22    6    5     -4.96     -1.97
  -24    6    5     -4.55      0.22
  -26    6    5     -3.50      0.85
  -28    6    5     -1.57      0.24
  -30    6    5      0.26      1.35
  -32    6    5      1.13      0.11
  -34    6    5      0.60      0.82
   27    7    5     -0.03     -1.07
   25    7    5      0.63     -0.66
   23    7    5      2.92      0.82
   21    7    5      1.99      1.50
   19    7    5      2.47      1.17
   17    7    5      0.07      0.59
   15    7    5      1.65     -2.22
   13    7    5      2.39     -3.12
   11    7    5      4.64     -2.21
    9    7    5      8.38      1.05
    7    7    5      6.47      4.19
    5    7    5      3.89      3.99
    3    7    5     -0.86      2.58
    1    7    5     -0.23      0.25
   -1    7    5      4.22      0.66
   -3    7    5      7.73      1.95
   -5    7    5      8.36      2.71
   -7    7    5      3.91      2.01
   -9    7    5     -0.10      1.14
  -11    7    5      0.58      0.31
  -13    7    5      1.78     -1.99
  -15    7    5      3.50     -0.64
  -17    7    5      2.10     -0.53
  -19    7    5      3.10      3.00
  -21    7    5      2.85      2.75
  -23    7    5      0.36      3.75
  -25    7    5     -1.31      1.75
  -27    7    5     -2.49     -0.15
  -29    7    5     -0.51     -0.84
  -31    7    5     -0.75      0.13
  -33    7    5     -0.77      0.52
   26    8    5      0.98      0.25
   24    8    5     -1.42     -0.61
   22    8    5     -2.32     -1.37
   20    8    5     -3.23     -2.48
   18    8    5     -1.88     -2.02
   16    8    5     -2.60     -0.30
   14    8    5     -3.96     -0.15
   12    8    5     -4.32     -2.06
   10    8    5     -2.88     -3.15
    8    8    5     -2.46     -3.82
    6    8    5     -1.67     -1.46
    4    8    5     -1.62     -1.36
    2    8    5      0.11     -0.96
    0    8    5      1.11     -3.49
   -2    8    5     -1.52     -4.65
   -4    8    5     -3.45     -4.46
   -6    8    5     -6.67     -3.55
   -8    8    5     -4.83     -2.98
  -10    8    5     -5.26     -3.72
  -12    8    5     -4.64     -3.43
  -14    8    5     -3.89     -0.86
  -16    8    5     -2.35     -0.20
  -18    8    5     -1.34      1.35
  -20    8    5     -3.92      0.24
  -22    8    5     -5.33      0.40
  -24    8    5     -6.09     -0.63
  -26    8    5     -3.10     -1.54
  -28    8    5     -0.95     -0.88
  -30    8    5      0.59     -0.42
   23    9    5     -0.20      1.21
   21    9    5     -0.49      0.54
   19    9    5     -0.63      0.29
   17    9    5      1.28     -0.14
   15    9    5      1.17      1.31
   13    9    5      0.24      3.16
   11    9    5     -1.87      3.74
    9    9    5     -3.42      3.23
    7    9    5     -2.22     -0.44
    5    9    5     -0.54     -3.30
    3    9    5      0.47     -5.80
    1    9    5      0.48     -3.84
   -1    9    5     -0.05     -0.63
   -3    9    5     -0.27      2.59
   -5    9    5     -0.03      2.19
   -7    9    5     -0.52      1.91
   -9    9    5      0.63      1.62
  -11    9    5      0.42      2.60
  -13    9    5      0.67      2.50
  -15    9    5     -0.53      0.21
  -17    9    5     -0.97     -0.71
  -19    9    5      1.80     -0.98
  -21    9    5      4.51      1.70
  -23    9    5      5.60      2.90
  -25    9    5      2.38      2.60
  -27    9    5      1.08      0.86
  -29    9    5      0.64      0.79
   22   10    5      0.11      0.56
   20   10    5      0.59     -0.63
   18   10    5      0.66      0.05
   16   10    5      0.97      0.29
   14   10    5      1.51      1.61
   12   10    5      1.72      0.45
   10   10    5      0.90     -1.15
    8   10    5      1.12     -2.01
    6   10    5      0.41     -1.08
    4   10    5      1.34      2.34
    2   10    5      0.59      1.96
    0   10    5      1.14      1.11
   -2   10    5      1.95     -1.21
   -4   10    5      2.38     -0.15
   -6   10    5      2.81     -0.09
   -8   10    5      1.00      0.94
  -10   10    5      0.08      0.64
  -12   10    5     -3.20      0.69
  -14   10    5     -4.02     -0.34
  -16   10    5     -4.11     -0.42
  -18   10    5     -1.60      0.03
  -20   10    5     -1.25     -0.17
  -22   10    5     -2.34      0.58
  -24   10    5     -3.17     -0.44
  -26   10    5     -2.63     -0.17
   19   11    5      1.16      0.00
   17   11    5      2.26      0.36
   15   11    5      1.63      0.44
   13   11    5      0.65      0.80
   11   11    5     -1.22      0.90
    9   11    5     -1.63      0.81
    7   11    5     -1.41      0.08
    5   11    5     -0.85     -0.83
    3   11    5      1.00     -0.51
    1   11    5      0.55      0.62
   -1   11    5      0.50      1.71
   -3   11    5     -1.37      0.89
   -5   11    5     -1.44      1.29
   -7   11    5      0.68      0.69
   -9   11    5      2.08      2.20
  -11   11    5      2.19      1.96
  -13   11    5      0.55      2.27
  -15   11    5     -0.62      0.27
  -17   11    5     -1.30     -1.63
  -19   11    5     -1.22     -2.90
  -21   11    5     -0.05     -1.43
  -23   11    5      1.63      0.49
   14   12    5     -1.15      0.39
   12   12    5     -1.44     -0.24
   10   12    5     -0.65     -1.59
    8   12    5      0.37     -1.10
    6   12    5      0.61     -0.91
    4   12    5     -1.41     -0.43
    2   12    5     -1.16     -0.40
    0   12    5      0.04     -0.05
   -2   12    5      2.63      1.41
   -4   12    5      2.70      0.06
   -6   12    5      1.37     -0.41
   -8   12    5      0.69     -1.52
  -10   12    5     -0.01      0.55
  -12   12    5      1.91      0.64
  -14   12    5      1.49     -0.02
  -16   12    5      3.17     -0.12
  -18   12    5      2.08      0.03
  -20   12    5      2.39      1.20
    9   13    5     -0.57      1.89
    7   13    5     -0.90      2.58
    5   13    5     -0.05      1.67
    3   13    5      0.62      0.65
    1   13    5      1.42     -1.12
   -1   13    5     -1.01     -2.46
   -3   13    5     -0.73     -1.65
   -5   13    5     -0.88     -1.10
   -7   13    5      0.32      1.26
   -9   13    5     -0.64      0.81
  -11   13    5     -1.62      1.62
  -13   13    5     -2.22      0.95
  -15   13    5     -1.35      1.98
   32    0    4     -2.84      2.87
   30    0    4     -1.16     -1.55
   28    0    4     -3.75     -0.75
   26    0    4     -1.98     -2.48
   24    0    4     -3.86      3.06
   22    0    4     -1.86      3.67
   20    0    4      0.93      3.07
   18    0    4      2.50      4.84
   16    0    4     -1.76     10.21
   14    0    4    -10.25     12.75
   12    0    4    -17.45     11.87
   10    0    4    -19.10     14.36
    8    0    4    -17.84      6.59
    6    0    4     -1.11      4.80
    4    0    4     46.27     24.88
    2    0    4     69.62     83.98
    0    0    4     57.26    129.33
   -2    0    4    -34.17    103.03
   -4    0    4    -77.77     35.85
   -6    0    4    -85.17    -22.49
  -10    0    4     -7.80     -9.82
  -12    0    4      2.35     -0.51
  -14    0    4      8.74      0.72
  -16    0    4      4.24      5.03
  -18    0    4      2.15      7.07
  -20    0    4     -0.46      2.75
  -22    0    4      3.52     -5.58
  -24    0    4      5.88     -2.40
  -26    0    4      4.87      3.11
  -28    0    4      0.99      6.94
  -30    0    4      1.96      1.29
  -32    0    4      0.64     -3.75
  -34    0    4      2.42     -6.34
  -36    0    4      1.81     -5.11
   33    1    4     -1.68      0.78
   31    1    4     -1.86      1.65
   29    1    4     -2.77     -0.06
   27    1    4     -0.12     -0.60
   25    1    4      2.70     -2.84
   23    1    4      2.61     -0.40
   21    1    4     -3.07      1.31
   19    1    4     -7.37      0.15
   17    1    4     -4.91     -5.05
   15    1    4      1.94     -5.43
   13    1    4      4.94     -3.75
   11    1    4      2.29     -2.25
    9    1    4      3.41     -9.11
    7    1    4      8.02    -11.53
    5    1    4     13.22    -11.35
    3    1    4     -3.35     -7.38
    1    1    4    -24.88      2.33
   -1    1    4    -36.39     12.10
   -3    1    4    -16.30     28.32
   -5    1    4      9.81     28.77
   -7    1    4     22.05     25.08
   -9    1    4     15.15     12.15
  -11    1    4      1.80      7.56
  -13    1    4     -7.76      5.73
  -15    1    4    -13.11      2.80
  -17    1    4     -9.57     -3.74
  -19    1    4     -5.61     -7.49
  -21    1    4     -0.81     -3.72
  -23    1    4     -1.08      0.18
  -25    1    4      0.58      0.92
  -27    1    4      1.01     -1.89
  -29    1    4     -0.56      0.35
  -31    1    4     -0.96      1.87
  -33    1    4     -2.57      4.18
  -35    1    4     -1.14      2.97
  -37    1    4     -1.83      2.15
   32    2    4      0.46     -1.75
   30    2    4     -0.53     -0.35
   28    2    4      2.09     -1.47
   26    2    4      1.70      0.59
   22    2    4      2.83      0.22
   20    2    4      4.41     -1.10
   18    2    4      4.82      0.33
   16    2    4      2.07      3.20
   14    2    4     -0.03      4.06
   12    2    4      2.35      2.29
   10    2    4      4.72      1.08
    8    2    4      3.80      4.68
    6    2    4      7.30      4.08
    4    2    4     18.80     11.55
    0    2    4     35.30     33.98
   -2    2    4     20.63     26.89
   -4    2    4    -17.78     -1.77
   -6    2    4    -21.48    -19.80
   -8    2    4    -19.48    -25.35
  -10    2    4     -5.92    -18.12
  -12    2    4      4.44    -14.43
  -14    2    4      6.07    -11.50
  -16    2    4      5.02     -6.49
  -18    2    4     -0.10     -1.45
  -20    2    4     -2.43     -2.70
  -22    2    4      0.44     -2.55
  -24    2    4      1.14     -2.70
  -26    2    4     -0.05      3.87
  -28    2    4     -1.04      4.15
  -30    2    4     -2.49      4.28
  -32    2    4      0.59     -0.24
  -34    2    4      0.54     -0.27
  -36    2    4      1.42     -1.21
   33    3    4      1.57     -0.17
   31    3    4      0.33     -2.18
   29    3    4      1.62     -1.35
   27    3    4      1.49     -3.63
   25    3    4      2.51     -1.12
   23    3    4      1.67     -1.14
   21    3    4      0.90      0.38
   19    3    4     -1.34      0.13
   17    3    4     -2.19      0.24
   15    3    4     -2.98     -3.57
   13    3    4     -1.70     -4.03
   11    3    4      0.75     -5.14
    9    3    4     -1.21      5.09
    7    3    4     -2.52      3.26
    5    3    4    -13.77      1.45
    3    3    4    -12.17     -5.33
    1    3    4    -15.16    -10.98
   -1    3    4     -4.25     -8.43
   -3    3    4      2.38    -11.62
   -5    3    4     14.87      2.95
   -7    3    4     17.69      7.75
   -9    3    4     11.54     13.64
  -11    3    4      3.96      6.41
  -13    3    4      0.25      0.69
  -15    3    4      1.70     -2.73
  -17    3    4     -2.75     -3.92
  -19    3    4     -3.18     -3.02
  -21    3    4     -4.88     -0.58
  -23    3    4     -0.28      2.94
  -25    3    4     -0.89      1.39
  -27    3    4     -0.62     -0.50
  -29    3    4     -0.23     -6.33
  -31    3    4     -1.64     -3.91
  -33    3    4      0.44     -2.98
  -35    3    4     -1.11      1.52
   30    4    4     -0.98     -1.30
   28    4    4     -1.03     -2.27
   26    4    4     -0.13      0.57
   24    4    4     -1.13      1.10
   22    4    4     -0.93      3.83
   20    4    4     -0.86      5.86
   18    4    4      0.19      6.53
   16    4    4     -2.05      4.57
   14    4    4     -2.51     -1.26
   12    4    4      0.88     -2.76
   10    4    4      3.93     -2.88
    8    4    4      5.15      1.70
    6    4    4      1.25      7.47
    4    4    4     -1.40      5.89
    2    4    4     -4.96     -2.02
    0    4    4      0.25     -9.73
   -2    4    4      6.16     -9.47
   -4    4    4     11.75     -3.85
   -6    4    4      8.21     -1.55
   -8    4    4      3.95     -2.07
  -10    4    4      2.19     -2.96
  -12    4    4      0.68     -2.23
  -14    4    4     -2.00     -0.10
  -16    4    4      0.34      1.95
  -18    4    4      1.21     -0.15
  -20    4    4      6.07     -1.63
  -22    4    4      3.63     -4.87
  -24    4    4      4.24     -2.53
  -26    4    4      2.50     -2.41
  -28    4    4      0.89      1.51
  -30    4    4      1.27      0.85
  -32    4    4      1.04      2.26
  -34    4    4      1.91      0.34
  -36    4    4      0.49      1.39
   31    5    4     -1.51      0.56
   29    5    4     -1.38     -1.39
   27    5    4      0.10     -2.32
   25    5    4      2.34     -1.78
   23    5    4      2.16      0.93
   21    5    4      0.49      1.79
   19    5    4     -3.00     -0.05
   17    5    4     -6.39     -1.05
   15    5    4     -6.79     -2.38
   13    5    4     -5.61     -5.28
   11    5    4     -2.28     -3.44
    9    5    4      1.64     -3.52
    7    5    4      0.42      1.64
    5    5    4      1.07     -2.05
    3    5    4     -2.89     -2.72
    1    5    4      1.39     -3.49
   -1    5    4      1.18     -4.89
   -3    5    4      2.64     -3.26
   -5    5    4      3.26     -6.60
   -7    5    4      3.21     -4.18
   -9    5    4      1.87     -3.01
  -11    5    4     -1.85     -0.54
  -13    5    4     -1.63     -0.83
  -15    5    4     -0.86     -0.89
  -17    5    4     -1.06      0.00
  -19    5    4     -4.18      3.89
  -21    5    4     -4.82      5.41
  -23    5    4     -7.27      6.35
  -25    5    4     -6.73      5.47
  -27    5    4     -4.87      1.99
  -29    5    4     -1.01      1.94
  -31    5    4      0.64      0.19
  -33    5    4     -0.99      1.60
  -35    5    4     -0.54     -0.90
   28    6    4      1.63      0.28
   26    6    4      0.83      0.43
   24    6    4      0.60      0.65
   22    6    4      0.03     -1.72
   20    6    4      2.85     -1.72
   18    6    4      0.89      0.29
   16    6    4      0.08     -1.24
   14    6    4     -0.94     -2.78
   12    6    4      1.23     -4.67
   10    6    4      3.98     -1.59
    8    6    4      1.37      0.38
    6    6    4      0.72     -0.14
    4    6    4     -0.57     -1.64
    2    6    4      0.22     -3.68
    0    6    4      1.14     -5.34
   -2    6    4      0.16     -7.37
   -4    6    4      1.41     -7.10
   -6    6    4      0.73     -3.94
   -8    6    4      1.28      1.51
  -10    6    4      0.63      3.82
  -12    6    4     -0.69      1.67
  -14    6    4      2.23     -0.19
  -16    6    4      1.91     -1.05
  -18    6    4      3.12      2.01
  -20    6    4     -1.10      0.57
  -22    6    4     -1.45     -0.11
  -24    6    4     -0.93     -2.34
  -26    6    4     -0.51     -1.04
  -28    6    4     -0.22     -0.60
  -30    6    4     -1.20      1.00
  -32    6    4     -0.58      0.37
  -34    6    4     -0.40      0.20
   29    7    4      0.46      1.22
   27    7    4      1.62      1.77
   25    7    4      0.89      2.14
   23    7    4      0.13      3.71
   21    7    4     -3.72      3.19
   19    7    4     -4.12      1.37
   17    7    4     -3.48     -0.92
   15    7    4     -2.85     -0.64
   13    7    4     -3.35      0.50
   11    7    4     -3.82      0.87
    9    7    4     -3.99     -0.54
    7    7    4     -3.02     -1.47
    5    7    4     -4.24     -1.94
    3    7    4     -3.35     -3.44
    1    7    4     -1.72     -5.39
   -1    7    4      0.91     -3.53
   -3    7    4      3.10     -0.04
   -5    7    4      0.90      1.60
   -7    7    4      2.46      0.45
   -9    7    4      2.18     -0.85
  -11    7    4      2.64      0.61
  -13    7    4      0.59      2.83
  -15    7    4     -0.50      2.93
  -17    7    4      0.66      3.51
  -19    7    4     -0.09      1.57
  -21    7    4     -0.67      2.29
  -23    7    4     -2.45      2.02
  -25    7    4     -2.09      1.52
  -27    7    4     -0.92      1.21
  -29    7    4      0.99      0.67
  -31    7    4      1.54      1.55
   26    8    4      0.37      0.96
   24    8    4     -1.54      0.93
   22    8    4     -0.44     -0.45
   20    8    4     -0.17     -0.71
   18    8    4      1.30     -0.14
   16    8    4     -0.01      1.15
   14    8    4      2.11      1.08
   12    8    4      2.76      2.19
   10    8    4     -0.05      5.31
    8    8    4     -4.13      5.11
    6    8    4     -7.35      1.61
    4    8    4     -5.11     -3.78
    2    8    4     -1.73     -4.21
    0    8    4     -0.26     -1.64
   -2    8    4     -1.27      1.38
   -4    8    4     -2.09      1.20
   -6    8    4     -1.02      1.00
   -8    8    4      0.55      1.45
  -10    8    4     -1.11      3.60
  -12    8    4     -2.03      3.22
  -14    8    4     -2.29     -0.71
  -16    8    4     -0.58     -1.50
  -18    8    4      0.58     -0.85
  -20    8    4      0.83      1.69
  -22    8    4      2.41      0.33
  -24    8    4      2.06     -0.21
  -26    8    4      2.70     -0.56
  -28    8    4      0.99      0.01
  -30    8    4      0.63     -0.67
   25    9    4      1.85      1.82
   23    9    4      1.10      2.19
   21    9    4      0.68      0.92
   19    9    4      0.27     -0.09
   17    9    4      1.84     -2.11
   15    9    4      2.25     -1.70
   13    9    4      1.22     -1.49
   11    9    4     -0.46     -2.61
    9    9    4      0.38     -4.26
    7    9    4      1.75     -6.57
    5    9    4      5.09     -3.41
    3    9    4      5.47     -0.57
    1    9    4      4.47      3.75
   -1    9    4      2.30      2.38
   -3    9    4     -0.57     -0.12
   -5    9    4      0.02     -2.87
   -7    9    4      0.58     -2.03
   -9    9    4      4.29      0.06
  -11    9    4      3.76      1.34
  -13    9    4      2.52      1.29
  -15    9    4      0.90      1.76
  -17    9    4      1.10      1.03
  -19    9    4      1.81     -0.72
  -21    9    4      0.88     -1.75
  -23    9    4      0.97     -2.08
  -25    9    4     -0.23     -0.12
  -27    9    4     -0.49      0.06
  -29    9    4     -0.96      0.46
   22   10    4      0.09     -0.93
   20   10    4      1.62     -1.06
   18   10    4      1.64      0.30
   16   10    4      0.94      0.75
   14   10    4     -0.12     -0.35
   12   10    4      0.25     -0.66
   10   10    4      0.41      0.65
    8   10    4     -0.23      3.18
    6   10    4     -0.35      1.58
    4   10    4      2.92     -2.05
    2   10    4      6.21     -3.98
    0   10    4      7.06     -1.02
   -2   10    4      3.80      2.30
   -4   10    4      0.87      2.69
   -6   10    4      1.27     -1.52
   -8   10    4      0.71     -2.26
  -10   10    4     -1.46     -0.58
  -12   10    4     -4.23      2.41
  -14   10    4     -4.25      2.17
  -16   10    4     -2.49      1.15
  -18   10    4     -3.31      1.67
  -20   10    4     -3.62      2.05
  -22   10    4     -2.31      1.32
  -24   10    4      1.64      0.57
  -26   10    4      3.36      1.46
   19   11    4      0.10     -0.24
   17   11    4     -0.30     -0.46
   15   11    4     -1.07     -1.19
   13   11    4     -0.47     -0.56
   11   11    4      1.42     -1.70
    9   11    4      2.80     -2.92
    7   11    4      3.43     -2.76
    5   11    4      0.97      0.13
    3   11    4     -0.11      5.25
    1   11    4     -1.16      6.45
   -1   11    4     -0.77      5.56
   -3   11    4     -1.50      1.86
   -5   11    4     -3.25      2.57
   -7   11    4     -3.24      2.77
   -9   11    4     -2.31      2.47
  -11   11    4      2.42     -1.69
  -13   11    4      4.04     -4.44
  -15   11    4      5.61     -3.54
  -17   11    4      3.42     -1.31
  -19   11    4      3.08      0.92
  -21   11    4      1.74     -0.94
  -23   11    4      1.26     -0.99
   14   12    4      0.43      0.99
   12   12    4      0.98      1.22
   10   12    4     -0.08      2.23
    8   12    4     -0.78      3.42
    6   12    4     -0.30     -0.34
    4   12    4      2.23     -6.67
    2   12    4      6.97     -9.74
    0   12    4      5.93     -5.71
   -2   12    4      2.52      0.35
   -4   12    4     -2.48      0.94
   -6   12    4     -2.98      0.43
   -8   12    4     -3.11     -0.26
  -10   12    4     -4.12      3.23
  -12   12    4     -5.54      4.67
  -14   12    4     -3.83      5.75
  -16   12    4     -0.93      4.36
  -18   12    4     -0.06      3.11
  -20   12    4     -1.02      0.80
    9   13    4      1.61     -1.03
    7   13    4      0.94     -1.09
    5   13    4      0.32     -0.73
    3   13    4     -0.76      2.18
    1   13    4     -0.82      4.68
   -1   13    4     -0.65      5.10
   -3   13    4      1.10      4.30
   -5   13    4      2.37      2.61
   -7   13    4      1.66      2.33
   -9   13    4      0.75      0.57
  -11   13    4     -0.85     -0.78
  -13   13    4      0.53     -2.06
   33    1    3     -0.32     -1.98
   31    1    3     -0.48      0.75
   29    1    3      3.53     -0.78
   27    1    3      2.38      0.82
   25    1    3      2.17     -3.13
   23    1    3      0.77     -4.97
   21    1    3      2.14     -3.78
   19    1    3      2.21     -1.14
   17    1    3      0.61     -0.25
   15    1    3      1.05     -4.29
   13    1    3      3.94     -8.13
   11    1    3      2.83    -13.64
    9    1    3      2.86    -11.13
    7    1    3      3.08    -12.52
    5    1    3    -10.18     -8.53
    3    1    3    -15.62    -17.36
    1    1    3    -34.65    -36.24
   -1    1    3     -0.54    -55.48
   -3    1    3      5.76    -66.51
   -5    1    3     26.67    -46.55
   -7    1    3      2.80    -27.40
   -9    1    3     -8.17     -9.66
  -11    1    3    -12.58    -10.47
  -13    1    3    -10.78     -9.54
  -15    1    3     -2.53     -7.60
  -17    1    3     -4.69     -4.02
  -19    1    3     -2.83     -4.40
  -21    1    3     -0.78     -1.70
  -23    1    3      1.25     -0.18
  -25    1    3     -1.88      4.22
  -27    1    3     -4.63      1.77
  -29    1    3     -5.85      0.88
  -31    1    3     -0.90     -1.18
  -33    1    3      0.62      0.68
  -35    1    3      1.93      1.60
  -37    1    3      0.98      1.88
   34    2    3      1.81     -1.43
   32    2    3      0.24     -4.45
   30    2    3      1.08     -4.46
   28    2    3      0.64     -5.68
   26    2    3      3.03      0.72
   22    2    3      1.87      2.51
   20    2    3      0.11     -1.09
   18    2    3      0.08     -0.54
   16    2    3     -2.35     -0.86
   14    2    3     -3.44      0.77
   12    2    3      0.79     -1.16
   10    2    3      7.16      8.08
    8    2    3      9.32     15.15
    6    2    3     -6.36     22.98
    4    2    3    -15.44      6.98
    2    2    3    -19.40    -28.91
    0    2    3     -1.27    -49.32
   -2    2    3      9.48    -42.16
   -4    2    3     14.83     -2.68
   -6    2    3      8.71     13.81
   -8    2    3      6.52     14.59
  -10    2    3      9.01      2.75
  -12    2    3     10.24     -2.39
  -14    2    3      8.54     -4.49
  -16    2    3      4.40     -4.09
  -18    2    3      4.59      0.50
  -20    2    3      0.47      4.47
  -22    2    3     -1.55      4.40
  -24    2    3     -3.48      0.43
  -26    2    3     -0.86     -0.59
  -28    2    3      0.57     -2.84
  -30    2    3     -2.29     -0.15
  -32    2    3     -1.47     -1.87
  -34    2    3     -2.67     -0.13
  -36    2    3     -0.15     -0.97
   33    3    3     -1.66      0.54
   31    3    3     -1.24      0.00
   29    3    3     -1.36     -0.21
   27    3    3     -0.22     -0.70
   25    3    3     -1.41     -1.98
   23    3    3     -0.68     -0.12
   21    3    3      1.29      2.30
   19    3    3      2.35      4.36
   17    3    3      0.89      3.19
   15    3    3     -0.21     -0.88
   13    3    3     -0.56     -2.24
   11    3    3     -3.15     -3.92
    9    3    3     -6.23     -7.87
    7    3    3     -7.08     -8.82
    5    3    3     -8.33     -7.05
    3    3    3    -22.34     -0.49
    1    3    3    -22.02     -2.05
   -1    3    3    -17.50    -11.84
   -3    3    3      8.06    -17.84
   -5    3    3     10.10    -18.16
   -7    3    3      7.06     -9.76
   -9    3    3     -3.26     -3.91
  -11    3    3     -7.57      2.57
  -13    3    3     -5.79      7.27
  -15    3    3     -3.68      8.09
  -17    3    3     -2.64      3.93
  -19    3    3     -0.11     -0.04
  -21    3    3     -0.64     -2.66
  -23    3    3      1.06     -0.13
  -25    3    3     -2.01     -1.42
  -27    3    3     -4.48      0.07
  -29    3    3     -3.22     -3.33
  -31    3    3     -1.76     -1.42
  -33    3    3      0.62     -2.23
  -35    3    3      0.85      0.02
   32    4    3     -0.01      0.55
   30    4    3     -0.97     -1.84
   28    4    3     -0.25      0.06
   26    4    3      0.19     -0.19
   24    4    3      1.37      1.95
   22    4    3      1.34      1.23
   20    4    3      0.04      1.19
   18    4    3     -3.16      1.27
   16    4    3     -3.63      2.08
   14    4    3     -3.83      1.67
   12    4    3     -2.97      5.82
   10    4    3     -2.01      1.28
    8    4    3     -1.33      2.16
    6    4    3      6.07     -5.49
    4    4    3      4.93     -6.48
    2    4    3      9.08     -9.45
    0    4    3      4.83    -12.00
   -2    4    3      5.81     -2.86
   -4    4    3     -0.20      0.65
   -6    4    3     -3.55      6.78
   -8    4    3     -2.47      1.69
  -10    4    3      2.25     -0.43
  -12    4    3      6.27     -0.88
  -14    4    3      6.84     -0.23
  -16    4    3      7.24      0.90
  -18    4    3      4.79      1.97
  -20    4    3      3.33      1.56
  -22    4    3     -1.10      2.30
  -24    4    3     -1.07      3.92
  -26    4    3     -1.72      3.51
  -28    4    3     -0.40      4.46
  -30    4    3      1.35      0.54
  -32    4    3      0.10      1.53
  -34    4    3      0.08     -1.70
   31    5    3      1.05     -1.20
   29    5    3      1.52     -0.21
   27    5    3      1.05     -1.77
   25    5    3      0.94     -1.14
   23    5    3     -0.22     -2.76
   21    5    3     -0.42     -2.62
   19    5    3     -2.18     -2.25
   17    5    3     -0.91     -4.41
   15    5    3      0.52     -4.20
   13    5    3      1.34     -5.41
   11    5    3      1.48     -2.29
    9    5    3     -2.16     -3.31
    7    5    3     -4.45     -5.34
    5    5    3     -5.70     -6.25
    3    5    3     -2.74     -5.23
    1    5    3      2.00     -1.92
   -1    5    3      3.84      3.11
   -3    5    3      2.13      7.94
   -5    5    3     -3.48      6.89
   -7    5    3     -4.01      1.69
   -9    5    3     -0.66     -1.97
  -11    5    3      2.75     -0.09
  -13    5    3      2.77      1.13
  -15    5    3     -2.41      0.16
  -17    5    3     -0.62      0.76
  -19    5    3     -2.90      2.43
  -21    5    3     -1.78      4.27
  -23    5    3     -4.54      1.51
  -25    5    3     -3.26      0.91
  -27    5    3     -1.98     -0.88
  -29    5    3     -2.43      1.39
  -31    5    3     -2.92     -0.05
  -33    5    3     -2.96      0.45
   30    6    3      2.15      0.45
   28    6    3      3.93      1.57
   26    6    3      2.94      2.47
   24    6    3      1.91      2.67
   22    6    3     -0.37      2.33
   20    6    3      0.02      1.92
   18    6    3     -0.01      0.40
   16    6    3      0.45      1.72
   14    6    3      2.07      5.26
   12    6    3      0.81      7.42
   10    6    3     -3.47      8.14
    8    6    3     -5.20      3.14
    6    6    3     -3.56      1.51
    4    6    3      3.01     -0.92
    2    6    3      3.20      0.15
    0    6    3      2.39      1.36
   -2    6    3     -0.44      0.41
   -4    6    3     -2.54      0.86
   -6    6    3     -0.62     -0.36
   -8    6    3      1.02     -1.44
  -10    6    3      3.95     -1.32
  -12    6    3      4.52      0.23
  -14    6    3      5.12      1.91
  -16    6    3      5.51      1.99
  -18    6    3      3.23     -0.96
  -20    6    3      1.06     -1.42
  -22    6    3      0.78     -2.93
  -24    6    3      1.03     -2.73
  -26    6    3      0.86     -1.10
  -28    6    3     -0.66     -0.74
  -30    6    3     -0.87      0.18
  -32    6    3     -0.49     -1.71
   29    7    3     -0.43     -0.67
   27    7    3     -1.08      0.21
   25    7    3     -1.60     -0.16
   23    7    3      0.45     -0.40
   21    7    3      0.10      0.21
   19    7    3      0.87      0.68
   17    7    3     -0.33      0.33
   15    7    3      2.49     -2.46
   13    7    3      3.63     -0.78
   11    7    3      1.96      3.06
    9    7    3     -0.35      5.31
    7    7    3     -4.12      3.04
    5    7    3     -4.68     -0.71
    3    7    3     -3.59     -1.06
    1    7    3     -1.32      1.98
   -1    7    3      2.17      6.36
   -3    7    3      2.65      7.93
   -5    7    3      2.62      7.25
   -7    7    3      0.89      4.53
   -9    7    3      0.23      4.53
  -11    7    3      0.77      4.04
  -13    7    3     -2.07      1.85
  -15    7    3     -3.09     -0.08
  -17    7    3     -3.64     -2.18
  -19    7    3     -0.16     -1.85
  -21    7    3      1.99     -2.88
  -23    7    3      2.03     -1.68
  -25    7    3      1.98     -1.09
  -27    7    3      0.11      0.15
  -29    7    3     -0.40     -0.83
  -31    7    3     -0.61     -0.25
   28    8    3      0.06      0.91
   26    8    3      0.95      0.50
   24    8    3     -0.15     -0.58
   22    8    3      0.69     -1.71
   20    8    3      0.13     -1.58
   18    8    3      0.57     -1.71
   16    8    3      0.14     -0.80
   14    8    3      0.47     -0.39
   12    8    3      1.06     -1.05
   10    8    3      2.30     -0.91
    8    8    3      2.16     -1.22
    6    8    3      4.52      1.08
    4    8    3      6.05      1.58
    2    8    3      7.51      3.15
    0    8    3      4.65      1.38
   -2    8    3     -1.35     -0.47
   -4    8    3     -2.87     -3.45
   -6    8    3     -2.02     -5.09
   -8    8    3      4.14     -4.66
  -10    8    3      5.13     -2.46
  -12    8    3      4.66      0.78
  -14    8    3      3.43      2.73
  -16    8    3      3.35      1.68
  -18    8    3      3.46      0.64
  -20    8    3     -0.25     -0.63
  -22    8    3     -1.79     -2.48
  -24    8    3     -1.80     -3.00
  -26    8    3      0.40     -2.55
  -28    8    3      0.07     -0.04
  -30    8    3     -0.81      0.17
   25    9    3     -0.95     -0.83
   23    9    3     -0.85     -0.92
   21    9    3      0.90     -0.27
   19    9    3      0.19      0.76
   17    9    3      0.05      0.28
   15    9    3     -2.02     -0.90
   13    9    3     -1.57     -0.82
   11    9    3     -1.25     -0.67
    9    9    3     -0.11      0.61
    7    9    3      0.63     -0.79
    5    9    3      0.92     -2.60
    3    9    3      0.94     -4.02
    1    9    3      1.02     -2.80
   -1    9    3      1.04     -1.13
   -3    9    3     -0.16     -0.21
   -5    9    3     -1.64     -1.35
   -7    9    3     -4.69     -0.48
   -9    9    3     -5.75     -1.08
  -11    9    3     -4.83     -1.90
  -13    9    3     -2.24     -3.45
  -15    9    3     -0.59     -3.72
  -17    9    3     -2.14     -1.13
  -19    9    3     -1.79      0.46
  -21    9    3     -1.15      0.78
  -23    9    3      2.19     -1.00
  -25    9    3      2.67     -1.21
  -27    9    3      2.74     -0.94
   22   10    3      0.40     -0.65
   20   10    3      0.95     -0.64
   18   10    3     -0.16      2.32
   16   10    3     -1.29      2.64
   14   10    3     -0.79      1.90
   12   10    3      1.72     -0.64
   10   10    3      3.81     -1.91
    8   10    3      5.79      0.69
    6   10    3      4.27      3.94
    4   10    3      3.55      8.82
    2   10    3      1.37      8.37
    0   10    3      0.38      7.73
   -2   10    3      0.72      4.03
   -4   10    3      1.74      3.54
   -6   10    3      4.21      2.70
   -8   10    3      2.74      3.33
  -10   10    3      2.41      1.86
  -12   10    3      0.38      0.55
  -14   10    3      2.03      0.46
  -16   10    3      3.17      1.54
  -18   10    3      4.01      3.39
  -20   10    3      1.56      1.88
  -22   10    3     -1.78      1.33
  -24   10    3     -2.65     -1.25
  -26   10    3     -1.90     -0.77
   21   11    3     -1.94      0.82
   19   11    3     -1.62      0.60
   17   11    3     -1.51     -0.02
   15   11    3     -1.32     -0.90
   13   11    3     -0.81     -0.82
   11   11    3     -0.55      0.46
    9   11    3     -1.44      1.47
    7   11    3     -2.81      0.68
    5   11    3     -4.46     -2.03
    3   11    3     -3.33     -4.48
    1   11    3     -3.16     -3.68
   -1   11    3     -3.18     -0.91
   -3   11    3     -5.11      0.84
   -5   11    3     -5.49      2.51
   -7   11    3     -4.70      1.05
   -9   11    3     -3.18      0.22
  -11   11    3     -1.88     -2.01
  -13   11    3      0.55     -1.95
  -15   11    3      1.31     -1.89
  -17   11    3      0.82     -1.50
  -19   11    3     -1.24     -1.63
  -21   11    3     -1.59     -1.15
  -23   11    3     -0.56     -0.91
   16   12    3      1.92      0.67
   14   12    3      1.36      0.48
   12   12    3      0.25      0.63
   10   12    3      0.04     -0.47
    8   12    3      0.15     -1.42
    6   12    3      0.97     -1.77
    4   12    3      0.41     -0.53
    2   12    3      1.35      2.38
    0   12    3      2.66      3.79
   -2   12    3      4.32      4.49
   -4   12    3      4.25      1.65
   -6   12    3      1.81      0.44
   -8   12    3      0.43     -0.61
  -10   12    3     -1.45      0.74
  -12   12    3     -0.22      1.15
  -14   12    3     -1.38      1.09
  -16   12    3      0.01      2.03
  -18   12    3     -0.12      2.15
   11   13    3     -0.57     -1.05
    9   13    3     -1.53     -1.24
    7   13    3     -0.55     -0.18
    5   13    3      2.17      0.11
    3   13    3      2.79      0.20
    1   13    3      1.96     -1.18
   -1   13    3     -2.49     -3.20
   -3   13    3     -2.45     -3.01
   -5   13    3     -2.31     -3.43
   -7   13    3      0.34     -2.27
   -9   13    3      0.43     -3.73
  -11   13    3      0.84     -2.85
  -13   13    3      0.04     -1.72
   -4   14    3     -0.70      2.25
   32    0    2     -0.70     -1.14
   30    0    2      3.85     -6.14
   28    0    2      4.18     -4.42
   26    0    2      2.95     -2.92
   24    0    2     -2.91     -0.80
   22    0    2     -2.88     -3.75
   20    0    2      1.30     -7.89
   18    0    2      2.89     -4.47
   16    0    2     -4.13     -3.16
   14    0    2    -10.26     -7.07
   12    0    2    -12.29    -17.66
   10    0    2     -7.77    -13.35
    8    0    2    -14.67     -8.69
    6    0    2    -35.98      1.78
    4    0    2    -28.64     -7.03
   -6    0    2    -69.80    -63.31
   -8    0    2    -55.62    -28.35
  -10    0    2    -43.16    -17.21
  -12    0    2    -31.51    -14.57
  -14    0    2    -14.33    -20.21
  -16    0    2     -7.79    -12.62
  -18    0    2     -0.64     -2.48
  -20    0    2     -3.55      4.13
  -22    0    2     -3.71     -0.09
  -24    0    2     -4.56      1.50
  -26    0    2     -3.59      4.87
  -28    0    2     -5.14      8.36
  -30    0    2     -2.80      4.53
  -32    0    2     -1.96      0.01
  -34    0    2      0.67     -1.21
   35    1    2      0.92     -0.71
   33    1    2      0.36     -1.27
   31    1    2      1.21      1.09
   29    1    2      0.39      2.11
   27    1    2      1.44      4.50
   23    1    2      2.37      0.80
   21    1    2     -0.20      2.56
   19    1    2     -3.72      4.57
   17    1    2     -4.24     -1.03
   15    1    2      1.94     -6.44
   13    1    2      9.36     -9.08
   11    1    2     15.31     -4.68
    9    1    2     24.71      0.38
    7    1    2     23.23     17.37
    5    1    2    -12.97     27.97
    3    1    2    -91.29      3.79
   -1    1    2   -104.29    -98.49
   -3    1    2     -4.15    -80.46
   -5    1    2     68.29    -28.06
   -7    1    2     73.00     16.16
   -9    1    2     41.49     23.58
  -11    1    2     16.05     16.67
  -13    1    2      4.76     11.67
  -15    1    2     -0.08      5.78
  -17    1    2      1.71     -1.82
  -19    1    2      5.57     -4.18
  -21    1    2      7.58      1.13
  -23    1    2      4.42      4.57
  -25    1    2      1.49      0.89
  -27    1    2      0.96     -6.17
  -29    1    2      0.35     -5.45
  -31    1    2      1.94     -2.50
  -33    1    2      0.82      2.25
  -35    1    2      1.55      2.29
   34    2    2     -0.66      0.06
   32    2    2     -0.09     -1.80
   30    2    2     -1.33     -0.98
   28    2    2     -0.62     -1.17
   26    2    2     -2.21      1.13
   24    2    2     -1.59      3.04
   22    2    2      0.08      1.66
   20    2    2      2.20      0.61
   18    2    2      1.80      0.05
   16    2    2     -1.17      2.48
   14    2    2     -3.86      4.19
   12    2    2     -3.63      5.99
   10    2    2     -7.89      2.80
    8    2    2    -13.10      5.01
    6    2    2     -9.54      6.14
    4    2    2     -4.59     16.78
    0    2    2     22.27     23.06
   -2    2    2     28.93     18.70
   -4    2    2     -8.12      5.83
   -6    2    2    -18.37      0.58
   -8    2    2    -26.53     -5.94
  -10    2    2    -15.98     -1.69
  -12    2    2     -5.24     -0.98
  -14    2    2     -3.42      0.15
  -16    2    2      1.00     -0.57
  -18    2    2      2.02      1.00
  -20    2    2      1.17     -0.16
  -22    2    2     -1.32     -0.65
  -24    2    2     -3.72     -3.04
  -26    2    2     -3.88      0.80
  -28    2    2     -1.33      0.22
  -30    2    2     -0.74      1.06
  -32    2    2      0.35     -1.93
  -34    2    2     -0.88     -2.18
  -36    2    2     -0.90     -2.32
   33    3    2      1.24      2.05
   31    3    2      0.32      1.35
   29    3    2      1.14      4.97
   27    3    2     -0.86      2.41
   25    3    2     -0.27      3.15
   23    3    2     -0.53      0.57
   21    3    2     -0.70      0.65
   19    3    2     -2.85     -1.00
   17    3    2     -0.94     -2.43
   15    3    2      1.54     -5.44
   13    3    2      3.76     -1.79
   11    3    2      2.48     -2.94
    9    3    2     -0.95      0.75
    7    3    2     -0.46     -8.59
    5    3    2     -7.18    -11.43
    3    3    2     -7.33    -10.74
    1    3    2    -14.20     -9.31
   -1    3    2    -11.14     -2.36
   -3    3    2     -7.76     -5.99
   -5    3    2      3.56     -0.37
   -7    3    2     11.90     -1.02
   -9    3    2     12.91      2.87
  -11    3    2      8.70      6.30
  -13    3    2      5.24      5.68
  -15    3    2      4.90      2.89
  -17    3    2      3.88     -1.09
  -19    3    2      3.88     -0.73
  -21    3    2      2.04      2.80
  -23    3    2      2.79      4.71
  -25    3    2      2.59      2.20
  -27    3    2      3.30      1.19
  -29    3    2      4.31     -2.66
  -31    3    2      1.24      0.79
  -33    3    2      1.09     -0.44
  -35    3    2     -1.33      1.56
   32    4    2      1.32     -1.26
   30    4    2      2.80     -0.96
   28    4    2      2.18     -0.62
   26    4    2      0.22      1.16
   24    4    2     -2.59     -1.19
   22    4    2     -3.59     -0.92
   20    4    2     -3.20     -0.16
   18    4    2     -1.74     -1.35
   16    4    2      0.59     -0.98
   14    4    2      1.51     -0.92
   12    4    2      0.88      2.18
   10    4    2     -2.79     -0.62
    8    4    2     -3.06     -3.83
    6    4    2      1.91     -2.03
    4    4    2      8.48      2.42
    2    4    2      6.37      6.63
    0    4    2      5.88      8.63
   -2    4    2      1.95     11.00
   -4    4    2      0.55     13.46
   -6    4    2     -7.38     10.87
   -8    4    2    -10.60      4.06
  -10    4    2     -6.84     -3.04
  -12    4    2     -3.05     -5.57
  -14    4    2     -3.91     -2.89
  -16    4    2     -2.30     -1.44
  -18    4    2     -2.09     -1.69
  -20    4    2      1.57     -2.61
  -22    4    2     -1.34     -3.98
  -24    4    2     -0.50     -2.96
  -26    4    2      0.07     -3.76
  -28    4    2      0.16      1.25
  -30    4    2     -0.56      0.76
  -32    4    2     -1.34      1.73
  -34    4    2     -0.96     -0.95
   31    5    2      0.81      0.38
   29    5    2      1.81     -0.39
   27    5    2      1.72      0.10
   25    5    2      1.91     -0.87
   23    5    2      1.58      0.10
   21    5    2      0.67     -0.08
   19    5    2     -0.77     -2.44
   17    5    2     -0.17     -3.26
   15    5    2      3.61     -1.74
   13    5    2      3.56     -0.86
   11    5    2      1.62      3.76
    9    5    2     -0.14      1.83
    7    5    2     -2.28      3.76
    5    5    2      1.20     -2.14
    3    5    2      3.05     -2.66
    1    5    2      9.44      0.94
   -1    5    2      7.25      3.54
   -3    5    2      3.66      6.55
   -5    5    2      1.82      2.36
   -7    5    2      1.90      0.42
   -9    5    2      2.24      0.12
  -11    5    2      1.13     -0.14
  -13    5    2      0.62      0.80
  -15    5    2     -0.05      0.00
  -17    5    2     -1.63     -0.65
  -19    5    2     -1.27      0.60
  -21    5    2      1.27      0.28
  -23    5    2      0.89      1.31
  -25    5    2      0.17      2.23
  -27    5    2     -1.46      1.14
  -29    5    2     -1.30      2.13
  -31    5    2     -0.90     -0.17
  -33    5    2     -0.78      1.46
   30    6    2      0.22     -0.12
   28    6    2     -0.01      1.76
   26    6    2     -1.45      1.86
   24    6    2     -2.20      1.29
   22    6    2     -2.04     -1.14
   20    6    2      1.47     -2.18
   18    6    2      3.06     -0.85
   16    6    2      4.71     -2.19
   14    6    2      5.88     -0.50
   12    6    2      5.66     -0.51
   10    6    2      6.08      1.93
    8    6    2      3.70      1.82
    6    6    2      2.85      2.14
    4    6    2      3.73      3.15
    2    6    2      3.20      6.28
    0    6    2      2.52      8.49
   -2    6    2     -2.56      7.33
   -4    6    2     -2.92      5.68
   -6    6    2     -3.73      4.85
   -8    6    2     -2.26      7.08
  -10    6    2     -1.63      6.65
  -12    6    2     -2.54      5.69
  -14    6    2     -0.82      3.39
  -16    6    2     -2.66      0.91
  -18    6    2     -0.35     -2.03
  -20    6    2     -1.08     -4.69
  -22    6    2      0.55     -5.74
  -24    6    2      1.56     -6.71
  -26    6    2      1.65     -4.20
  -28    6    2      0.35     -3.15
  -30    6    2     -1.09     -0.93
  -32    6    2     -0.42     -1.92
   29    7    2     -2.97      1.18
   27    7    2     -2.77     -0.49
   25    7    2     -2.78     -1.95
   23    7    2     -0.99     -1.56
   21    7    2     -2.09     -0.01
   19    7    2     -1.59     -0.39
   17    7    2     -0.49     -1.63
   15    7    2     -0.08     -0.44
   13    7    2     -1.83      1.91
   11    7    2     -3.73      0.86
    9    7    2     -3.02     -2.95
    7    7    2      2.13     -5.86
    5    7    2      4.35     -4.61
    3    7    2      5.40     -2.37
    1    7    2      2.45     -1.55
   -1    7    2      0.72     -0.36
   -3    7    2      1.12     -0.13
   -5    7    2     -0.76      0.07
   -7    7    2     -0.50     -1.27
   -9    7    2     -1.77     -4.10
  -11    7    2      0.63     -3.75
  -13    7    2      1.82     -0.25
  -15    7    2      0.49      2.92
  -17    7    2     -0.88      2.72
  -19    7    2     -2.55     -0.66
  -21    7    2     -1.78     -1.24
  -23    7    2     -1.69      0.04
  -25    7    2     -1.31      0.34
  -27    7    2     -0.26      0.79
  -29    7    2      0.69      0.25
  -31    7    2      1.60      1.08
   28    8    2     -0.29      0.50
   26    8    2     -1.63      0.28
   24    8    2     -2.30     -1.34
   22    8    2      0.40     -3.06
   20    8    2      0.70     -2.73
   18    8    2      0.99     -0.59
   16    8    2     -1.71      1.07
   14    8    2     -0.58     -0.98
   12    8    2      1.11     -4.35
   10    8    2      3.35     -4.27
    8    8    2      4.61     -1.70
    6    8    2      3.75      0.70
    4    8    2      2.43      0.85
    2    8    2      1.31     -0.11
    0    8    2     -0.09     -1.02
   -2    8    2     -1.04     -1.49
   -4    8    2     -1.19     -1.99
   -6    8    2     -1.52      0.69
   -8    8    2     -3.22      1.88
  -10    8    2     -5.56      1.94
  -12    8    2     -4.48     -1.33
  -14    8    2     -2.24     -4.11
  -16    8    2     -0.81     -2.70
  -18    8    2      0.29      0.14
  -20    8    2      0.29      2.43
  -22    8    2      1.69      1.01
  -24    8    2      0.87     -0.52
  -26    8    2      1.74     -1.90
  -28    8    2      1.27     -1.10
  -30    8    2      0.56     -1.03
   25    9    2     -1.09     -0.25
   23    9    2     -0.49      1.35
   21    9    2      0.14      2.01
   19    9    2      0.50      3.25
   17    9    2      2.02      1.72
   15    9    2      2.27      2.77
   13    9    2      0.78      4.06
   11    9    2     -1.66      2.47
    9    9    2     -0.62      0.29
    7    9    2     -0.22     -1.01
    5    9    2      1.01      4.42
    3    9    2     -1.70      7.22
    1    9    2     -2.77      8.28
   -1    9    2     -1.46      3.59
   -3    9    2      0.16      2.16
   -5    9    2      2.24      2.52
   -7    9    2     -0.21      4.23
   -9    9    2      0.81      1.97
  -11    9    2      1.04     -0.70
  -13    9    2      3.39     -0.17
  -15    9    2      3.29      2.74
  -17    9    2      2.21      3.73
  -19    9    2      1.53      0.89
  -21    9    2      0.10      0.75
  -23    9    2     -0.89      0.07
  -25    9    2     -2.82      1.04
  -27    9    2     -2.68     -0.53
   24   10    2     -0.46     -0.78
   22   10    2     -1.06     -0.94
   20   10    2     -0.52     -0.88
   18   10    2     -1.17     -0.32
   16   10    2     -0.25     -0.22
   14   10    2     -0.50     -1.03
   12   10    2      0.25      0.18
   10   10    2     -0.96      2.91
    8   10    2     -1.63      6.58
    6   10    2     -3.14      6.64
    4   10    2     -3.59      3.03
    2   10    2     -3.77     -0.49
    0   10    2     -2.14     -1.66
   -2   10    2      1.42     -1.14
   -4   10    2      4.97     -0.81
   -6   10    2      6.61     -3.86
   -8   10    2      4.70     -4.60
  -10   10    2      1.24     -3.87
  -12   10    2     -0.31     -1.17
  -14   10    2     -1.80     -0.60
  -16   10    2     -1.76     -1.95
  -18   10    2     -3.54     -2.27
  -20   10    2     -2.61     -0.98
  -22   10    2     -2.15      0.85
  -24   10    2     -0.48      1.18
  -26   10    2      0.51      0.67
   21   11    2      1.46      1.55
   19   11    2      0.71      0.39
   17   11    2     -0.20     -0.24
   15   11    2     -0.36     -0.34
   13   11    2     -0.78      1.69
   11   11    2     -1.24      0.91
    9   11    2     -2.62     -3.09
    7   11    2     -1.53     -4.11
    5   11    2     -2.51      0.22
    3   11    2     -4.16      8.18
    1   11    2     -7.02      7.79
   -1   11    2     -7.02      3.26
   -3   11    2     -4.69     -2.09
   -5   11    2     -4.10      0.43
   -7   11    2     -2.59      2.37
   -9   11    2     -1.70      2.10
  -11   11    2      2.79     -1.55
  -13   11    2      2.87     -3.00
  -15   11    2      2.47     -1.41
  -17   11    2      0.68     -1.01
  -19   11    2      2.56      0.09
  -21   11    2      3.27     -0.61
  -23   11    2      1.97      1.28
   16   12    2     -0.01      0.26
   14   12    2     -0.64      0.31
   12   12    2     -1.84      1.42
   10   12    2     -3.28      3.21
    8   12    2     -2.55      4.80
    6   12    2      0.37      2.43
    4   12    2      1.82     -2.69
    2   12    2      3.09     -8.29
    0   12    2      1.40     -9.84
   -2   12    2      1.73     -7.84
   -4   12    2      0.17     -7.55
   -6   12    2      0.52     -7.67
   -8   12    2     -0.36     -9.04
  -10   12    2     -0.04     -5.58
  -12   12    2     -1.16     -1.08
  -14   12    2     -1.63      2.59
  -16   12    2     -2.10      1.90
  -18   12    2     -2.36     -0.02
   13   13    2     -0.93      1.00
   11   13    2     -1.22      0.12
    9   13    2     -0.30     -2.27
    7   13    2      0.81     -1.93
    5   13    2      0.93      3.38
    3   13    2     -3.16     10.94
    1   13    2     -7.94     13.79
   -1   13    2     -9.21      9.95
   -3   13    2     -6.11      5.42
   -5   13    2     -2.16      2.78
   -7   13    2     -1.14      2.10
   -9   13    2      0.39     -0.12
  -11   13    2      0.90     -2.32
  -13   13    2      2.58     -3.61
    2   14    2      2.10     -2.18
    0   14    2      3.82     -3.78
   -2   14    2      1.71     -3.68
   -4   14    2      1.47     -0.51
   35    1    1     -0.80      0.13
   33    1    1      0.19     -0.72
   31    1    1     -0.59      3.67
   29    1    1      0.34      4.73
   27    1    1     -2.08      5.43
   25    1    1     -1.79      2.22
   23    1    1     -0.59     -1.04
   21    1    1      2.79      0.91
   19    1    1      4.03      2.14
   17    1    1      6.18      5.55
   15    1    1      8.60      6.05
   13    1    1     13.67     12.16
   11    1    1      7.31     12.41
    9    1    1      1.49     13.05
    7    1    1      8.16     -2.13
    5    1    1     19.61     -2.07
    1    1    1     64.83     49.93
   -3    1    1     42.28     46.87
   -5    1    1     37.57     18.57
   -7    1    1     16.05     -5.62
   -9    1    1     17.64     -2.39
  -11    1    1     15.59     -0.93
  -13    1    1      9.53      5.76
  -15    1    1     10.18      4.97
  -17    1    1      3.52      4.65
  -19    1    1      2.08     -0.63
  -21    1    1      1.89     -1.70
  -23    1    1      4.20     -3.19
  -25    1    1      2.44     -0.33
  -27    1    1      0.76     -1.66
  -29    1    1     -1.48     -1.47
  -31    1    1     -0.02     -1.35
  -33    1    1     -0.74     -0.70
  -35    1    1     -0.84      0.46
   34    2    1      2.77      0.59
   32    2    1      1.48     -0.97
   30    2    1      1.08      1.26
   28    2    1     -2.07     -0.80
   26    2    1     -0.07      3.00
   24    2    1      0.77      2.99
   22    2    1     -0.70      3.05
   20    2    1     -5.13     -2.02
   18    2    1     -5.45     -5.57
   16    2    1     -5.30     -6.62
   14    2    1     -5.94     -2.15
   12    2    1     -6.99     -2.56
   10    2    1     -7.61      1.90
    8    2    1     -8.20     -0.53
    6    2    1     -7.97     -6.23
    4    2    1     13.56    -21.77
    2    2    1     39.35    -31.48
    0    2    1     50.45     -8.44
   -2    2    1     27.44     21.91
   -4    2    1     -4.62     42.73
   -6    2    1    -20.89     27.61
   -8    2    1    -17.23      5.92
  -10    2    1     -4.97     -4.14
  -12    2    1      1.87     -5.27
  -14    2    1      1.43     -2.32
  -16    2    1     -1.18     -3.26
  -18    2    1     -1.53     -1.70
  -20    2    1     -2.88      0.56
  -22    2    1     -5.44      1.17
  -24    2    1     -4.92     -2.12
  -26    2    1      0.46     -3.73
  -28    2    1      7.06     -5.67
  -30    2    1      5.36     -0.60
  -32    2    1      3.62     -0.81
  -34    2    1     -0.62      1.29
  -36    2    1      0.29     -0.03
   33    3    1      1.14      1.26
   31    3    1      2.97      2.27
   29    3    1      2.68      2.87
   27    3    1      0.80      2.37
   25    3    1     -3.11     -0.80
   23    3    1     -4.34      0.16
   21    3    1     -1.89      1.65
   19    3    1      1.25      3.39
   17    3    1      4.49      3.66
   15    3    1      5.62      2.78
   13    3    1      4.97      2.47
   11    3    1      3.75      1.67
    9    3    1      1.67     -2.35
    7    3    1      2.53     -7.01
    5    3    1     12.26    -11.91
    3    3    1     15.90      0.06
    1    3    1     28.02     20.74
   -1    3    1     12.45     31.47
   -3    3    1     10.01     20.65
   -5    3    1     -0.48     -0.82
   -7    3    1      5.61     -7.74
   -9    3    1      4.56     -6.36
  -11    3    1     -0.34     -1.66
  -13    3    1     -1.52     -0.43
  -15    3    1     -0.52      0.89
  -17    3    1      0.07      2.15
  -19    3    1      1.46      1.05
  -21    3    1      2.36     -1.37
  -23    3    1      5.36     -1.49
  -25    3    1      4.20     -3.07
  -27    3    1      1.59      0.96
  -29    3    1      0.41      1.09
  -31    3    1     -0.29      3.79
  -33    3    1      0.01      2.13
  -35    3    1     -0.12      1.55
   34    4    1      0.17     -1.83
   32    4    1      1.55     -0.98
   30    4    1      1.14     -3.13
   28    4    1      1.66     -0.02
   26    4    1      0.51     -0.50
   24    4    1     -0.03      0.38
   22    4    1     -0.89     -2.07
   20    4    1     -1.37     -4.50
   18    4    1     -2.25     -5.01
   16    4    1     -1.77     -3.72
   14    4    1     -3.74     -4.09
   12    4    1     -2.86     -0.88
   10    4    1      0.32     -2.12
    8    4    1      2.62      5.97
    6    4    1      4.59      4.58
    4    4    1      1.12      0.58
    2    4    1      3.62     -4.58
    0    4    1      0.85     -8.35
   -2    4    1     -1.53     -2.02
   -4    4    1     -2.94     -1.28
   -6    4    1     -0.99      3.69
   -8    4    1      0.87      7.30
  -10    4    1     -2.43      5.75
  -12    4    1     -5.88      4.37
  -14    4    1     -5.73      0.58
  -16    4    1     -4.77      1.42
  -18    4    1     -4.49      0.81
  -20    4    1     -4.73     -2.51
  -22    4    1     -4.99     -3.74
  -24    4    1     -3.11     -2.51
  -26    4    1     -1.40     -1.80
  -28    4    1      0.34      1.27
  -30    4    1      2.29     -1.14
  -32    4    1      1.77      1.03
  -34    4    1      2.39     -1.05
   33    5    1      0.66      2.24
   31    5    1      0.25      2.89
   29    5    1     -1.06      3.70
   27    5    1     -1.57      1.61
   25    5    1     -0.82      2.52
   23    5    1     -0.50      1.97
   21    5    1     -0.09      1.47
   19    5    1      2.22      1.18
   17    5    1      4.58     -0.71
   15    5    1      6.18      0.60
   13    5    1      3.97     -2.68
   11    5    1      6.64     -3.10
    9    5    1      9.10     -2.86
    7    5    1      7.38      2.52
    5    5    1      1.77      5.63
    3    5    1     -2.52      4.91
    1    5    1     -0.66      2.09
   -1    5    1      1.35      0.88
   -3    5    1      4.51      0.38
   -5    5    1      5.34     -0.91
   -7    5    1      6.79     -0.09
   -9    5    1      5.83      1.55
  -11    5    1      4.73      3.62
  -13    5    1      4.72      2.13
  -15    5    1      1.05      2.27
  -17    5    1      2.12      1.20
  -19    5    1      0.68      1.75
  -21    5    1      2.73      0.91
  -23    5    1      1.45     -0.79
  -25    5    1      1.46     -1.00
  -27    5    1      1.43     -3.40
  -29    5    1      1.37     -0.82
  -31    5    1      0.86     -1.11
  -33    5    1      0.72      0.95
   32    6    1      0.13      0.93
   30    6    1     -1.00      2.72
   28    6    1     -0.96      2.08
   26    6    1     -1.52      1.20
   24    6    1     -0.92      0.07
   22    6    1     -1.83     -0.49
   20    6    1     -1.44     -1.64
   18    6    1     -2.13     -2.51
   16    6    1     -3.85     -0.07
   14    6    1     -4.15      2.39
   12    6    1     -4.78     -0.27
   10    6    1     -3.86     -2.44
    8    6    1     -0.67     -5.63
    6    6    1      1.48     -2.41
    4    6    1      4.01     -0.63
    2    6    1     -0.36      1.70
    0    6    1     -5.28      2.24
   -2    6    1     -9.89     -1.83
   -4    6    1    -10.72     -4.09
   -6    6    1     -6.27     -2.73
   -8    6    1     -5.56      0.16
  -10    6    1     -6.24      3.31
  -12    6    1     -6.34      2.20
  -14    6    1     -3.29      2.16
  -16    6    1     -0.29      2.02
  -18    6    1     -2.13      0.85
  -20    6    1     -3.43      0.85
  -22    6    1     -2.45     -0.58
  -24    6    1     -1.53     -1.73
  -26    6    1     -0.18     -2.11
  -28    6    1      0.46     -3.18
  -30    6    1      2.33     -1.67
  -32    6    1      2.30     -1.61
   29    7    1     -0.69      0.08
   27    7    1     -1.68      1.10
   25    7    1     -1.63      0.53
   23    7    1      0.32     -0.03
   21    7    1      0.79     -0.15
   19    7    1      3.12      0.76
   17    7    1      3.36      2.44
   15    7    1      1.94      0.78
   13    7    1     -1.35     -0.46
   11    7    1     -3.87     -1.99
    9    7    1     -2.79     -1.72
    7    7    1     -3.25     -2.11
    5    7    1     -6.08     -1.55
    3    7    1     -8.11     -2.76
    1    7    1     -8.21     -4.31
   -1    7    1     -2.36     -5.83
   -3    7    1      1.97     -5.98
   -5    7    1      4.77     -2.48
   -7    7    1      1.93     -0.05
   -9    7    1     -1.94      1.37
  -11    7    1     -2.90     -2.43
  -13    7    1     -3.10     -5.29
  -15    7    1     -0.93     -4.49
  -17    7    1     -0.15     -1.07
  -19    7    1      1.49      0.34
  -21    7    1      3.06      0.25
  -23    7    1      2.77      1.21
  -25    7    1      2.54      1.20
  -27    7    1      1.43      0.78
  -29    7    1      1.26     -0.87
  -31    7    1      1.10      0.53
   28    8    1      0.83     -0.12
   26    8    1      2.45     -0.62
   24    8    1      2.31      0.76
   22    8    1      1.39      0.84
   20    8    1     -0.86      0.82
   18    8    1     -1.35     -0.82
   16    8    1     -1.09      0.28
   14    8    1     -1.34      0.98
   12    8    1     -1.95     -0.95
   10    8    1     -0.34     -2.68
    8    8    1      1.09     -1.54
    6    8    1      4.72      4.15
    4    8    1      3.74      7.46
    2    8    1      2.55      7.64
    0    8    1     -0.49      3.07
   -2    8    1     -2.30      0.87
   -4    8    1     -0.79     -0.34
   -6    8    1     -1.04     -0.18
   -8    8    1      1.22     -1.08
  -10    8    1      0.00     -0.72
  -12    8    1      0.86      1.63
  -14    8    1      1.67      4.23
  -16    8    1      2.51      4.70
  -18    8    1      2.95      3.28
  -20    8    1      1.39      2.88
  -22    8    1      0.55      1.80
  -24    8    1     -0.58      2.25
  -26    8    1     -1.05      0.74
  -28    8    1     -0.95      0.78
  -30    8    1     -1.06      0.32
   27    9    1     -0.15     -1.59
   25    9    1      1.00     -1.16
   23    9    1      1.03      0.29
   21    9    1      1.80      1.10
   19    9    1      0.65     -0.51
   17    9    1      2.40     -2.80
   15    9    1      2.17     -3.08
   13    9    1      3.44      0.81
   11    9    1      1.26      4.97
    9    9    1     -1.14      7.28
    7    9    1     -4.13      5.54
    5    9    1     -5.76      2.13
    3    9    1     -5.67      0.24
    1    9    1     -3.12     -1.27
   -1    9    1      2.06     -2.46
   -3    9    1      5.45     -2.45
   -5    9    1      5.26     -2.54
   -7    9    1      1.82     -0.47
   -9    9    1     -0.67     -0.53
  -11    9    1     -0.57     -0.89
  -15    9    1     -2.26     -2.60
  -17    9    1     -5.88     -1.82
  -19    9    1     -4.29     -1.50
  -21    9    1     -1.79     -0.38
  -23    9    1      2.01      0.87
  -25    9    1      1.24      2.10
  -27    9    1      0.22      1.16
   24   10    1      1.20     -0.07
   22   10    1      0.15      0.41
   20   10    1     -2.08     -1.14
   18   10    1     -3.53     -0.24
   16   10    1     -3.24     -0.49
   14   10    1     -2.95      0.02
   12   10    1     -2.75     -0.37
   10   10    1     -4.89     -2.38
    8   10    1     -4.26     -3.25
    6   10    1     -3.91     -4.19
    4   10    1     -1.11     -0.43
    2   10    1     -1.99      0.61
    0   10    1     -4.19      2.25
   -2   10    1     -5.37     -0.52
   -4   10    1     -5.39     -1.21
   -6   10    1     -1.44     -4.14
   -8   10    1      0.47     -4.25
  -10   10    1      3.72     -3.58
  -12   10    1      1.84     -0.25
  -14   10    1      0.40      2.47
  -16   10    1     -1.16      1.55
  -18   10    1      0.09     -0.02
  -20   10    1      1.42     -3.01
  -22   10    1      1.84     -0.73
  -24   10    1      1.50      0.07
   21   11    1      0.41      0.87
   19   11    1      0.43      0.26
   17   11    1      0.15     -0.81
   15   11    1      0.92     -1.28
   13   11    1      1.38     -0.58
   11   11    1      2.41      1.17
    9   11    1      1.95      2.41
    7   11    1      1.89      1.67
    5   11    1      0.04     -0.55
    3   11    1     -1.78     -4.53
    1   11    1     -4.52     -6.63
   -1   11    1     -5.15     -6.22
   -3   11    1     -5.44     -3.41
   -5   11    1     -4.57      1.13
   -7   11    1     -4.53      1.88
   -9   11    1     -2.85      1.60
  -11   11    1     -1.63      0.25
  -13   11    1      0.70      0.47
  -15   11    1      0.43      0.79
  -17   11    1     -0.34      0.81
  -19   11    1     -1.89      0.42
  -21   11    1     -1.37      0.25
  -23   11    1     -0.38      0.03
   18   12    1     -0.20      0.04
   16   12    1      0.28      0.56
   14   12    1      0.59      0.21
   12   12    1     -0.54      0.14
   10   12    1      0.05     -0.94
    8   12    1     -0.37     -2.09
    6   12    1     -0.15     -1.24
    4   12    1     -1.49      0.87
    2   12    1     -1.08      4.24
    0   12    1      0.88      3.98
   -2   12    1      3.11      2.86
   -4   12    1      4.59     -0.44
   -6   12    1      3.14     -0.86
   -8   12    1      2.86     -0.64
  -10   12    1      0.86      0.83
  -12   12    1      0.54      0.70
  -14   12    1     -1.74     -0.71
  -16   12    1     -1.09     -0.98
  -18   12    1     -0.59     -1.53
   13   13    1      0.04     -1.45
   11   13    1      1.99     -1.18
    9   13    1      2.10      0.41
    7   13    1      2.23      3.06
    5   13    1      3.61      3.55
    3   13    1      2.80      2.95
    1   13    1      1.49      1.72
   -1   13    1     -3.03      0.31
   -3   13    1     -1.72      0.47
   -5   13    1      0.10     -0.01
   -7   13    1      3.98      1.57
   -9   13    1      3.31      1.29
  -11   13    1      1.91      1.41
  -13   13    1      0.73      0.71
    4   14    1     -3.29     -1.29
    2   14    1     -2.33     -2.15
    0   14    1      0.62     -2.58
   -2   14    1      2.61     -1.92
   -4   14    1      1.99     -1.38
   36    0    0     -2.28      1.63
   34    0    0     -2.44      0.17
   32    0    0     -2.92      1.44
   30    0    0     -0.77     -1.73
   28    0    0     -0.73     -2.12
   26    0    0      0.79      0.72
   24    0    0     -1.12      3.60
   22    0    0     -0.39      3.03
   20    0    0      3.18     -4.70
   18    0    0     12.68     -2.71
   16    0    0     16.90      4.06
   14    0    0     21.15     14.55
   12    0    0     14.61     15.64
   10    0    0      4.99     22.30
    8    0    0    -12.07      6.73
    6    0    0     -5.22    -25.57
    4    0    0    108.25    -71.17
   35    1    0      1.98     -0.82
   33    1    0      1.62     -1.12
   31    1    0      1.90      2.79
   29    1    0     -0.71      4.34
   27    1    0     -0.91      5.04
   25    1    0     -0.55     -1.01
   23    1    0     -0.05     -2.82
   21    1    0     -2.91     -1.36
   19    1    0     -6.30     -0.13
   17    1    0     -5.81     -4.10
   15    1    0     -1.27     -4.91
   13    1    0      0.87     -1.03
   11    1    0     -0.97      5.67
    9    1    0      0.61      1.76
    7    1    0      4.59     -9.49
    5    1    0      0.63    -22.03
   34    2    0     -0.17      1.48
   32    2    0      0.10     -0.83
   30    2    0     -1.00     -3.06
   28    2    0     -0.70     -4.32
   26    2    0     -2.32     -2.20
   24    2    0     -2.74      3.09
   22    2    0     -2.46      2.56
   20    2    0      0.21      0.66
   18    2    0      2.75     -0.82
   16    2    0      2.45      4.54
   14    2    0     -3.33      7.20
   12    2    0     -5.13      6.72
   10    2    0    -11.41     -1.06
    8    2    0    -18.07     -5.82
    6    2    0     -8.49    -22.52
    4    2    0     13.35    -32.34
    2    2    0     74.68    -30.32
   35    3    0     -0.50     -1.50
   33    3    0      0.62      0.12
   31    3    0     -1.31     -1.97
   29    3    0      0.13     -0.22
   27    3    0     -0.13     -4.11
   25    3    0      1.47     -2.77
   23    3    0      0.76     -3.60
   21    3    0     -0.26     -3.71
   19    3    0     -0.20     -3.94
   17    3    0      1.84     -3.04
   15    3    0      0.97     -3.31
   13    3    0      0.25     -1.68
   11    3    0      3.55     -3.01
    9    3    0      9.44      5.26
    7    3    0      8.11      9.85
    5    3    0     -9.12     12.56
    3    3    0    -26.79     11.38
    1    3    0    -38.54      1.75
   34    4    0      0.58      1.90
   32    4    0      0.27      2.08
   30    4    0     -0.79      2.54
   28    4    0     -1.40      1.24
   26    4    0     -1.07      2.56
   24    4    0     -1.42      1.00
   22    4    0     -2.16      0.94
   20    4    0      0.03      0.46
   18    4    0      0.26     -0.42
   16    4    0      1.75      0.77
   14    4    0      0.54     -0.03
   12    4    0      1.39     -0.55
   10    4    0      1.14     -4.96
    8    4    0      2.38     -6.53
    6    4    0      6.18     -2.47
    4    4    0      8.34      3.55
    2    4    0      0.65      5.50
    0    4    0     -0.57      0.01
   33    5    0     -0.58     -0.66
   31    5    0     -0.23      2.66
   29    5    0     -0.81      1.35
   27    5    0     -0.66     -0.04
   25    5    0      1.74     -2.90
   23    5    0      3.31     -2.49
   21    5    0      3.62     -1.39
   19    5    0      2.12     -0.20
   17    5    0      0.96      3.55
   15    5    0      1.29      5.92
   13    5    0     -0.61      4.10
   11    5    0     -0.82      5.46
    9    5    0     -1.18      4.22
    7    5    0     -3.52      7.07
    5    5    0     -4.65      3.59
    3    5    0     -6.05      0.04
    1    5    0     -3.26     -0.61
   32    6    0     -0.04     -0.79
   30    6    0      0.48     -1.39
   28    6    0      0.80      0.42
   26    6    0      0.75      0.52
   24    6    0     -0.01      0.85
   22    6    0     -0.73     -0.84
   20    6    0      0.31     -1.42
   18    6    0      1.16      0.96
   16    6    0     -2.33      1.09
   14    6    0     -4.15      0.96
   12    6    0     -5.83     -2.23
   10    6    0     -3.34     -1.52
    8    6    0     -3.31     -0.89
    6    6    0     -4.91      2.55
    4    6    0     -5.64      3.48
    2    6    0     -8.71      3.62
    0    6    0     -7.66      0.59
   31    7    0     -0.60     -1.29
   29    7    0     -0.66     -1.76
   27    7    0      0.76     -3.10
   25    7    0      1.72     -2.42
   23    7    0      3.13     -0.45
   21    7    0      2.46      2.61
   19    7    0      2.45      2.53
   17    7    0      3.14      1.28
   15    7    0      2.78      1.70
   13    7    0      2.41      4.56
   11    7    0      1.33      6.26
    9    7    0      0.37      6.25
    7    7    0      2.52      3.92
    5    7    0      2.19      3.67
    3    7    0      1.96      3.35
    1    7    0     -1.71      0.77
   26    8    0      2.38     -1.46
   24    8    0      1.44     -1.73
   22    8    0      1.34     -2.73
   20    8    0     -1.47     -3.34
   18    8    0     -2.79     -1.54
   14    8    0     -2.46     -2.78
   12    8    0      1.11     -4.95
   10    8    0      3.83     -2.62
    8    8    0      3.53      2.08
    6    8    0      1.52      2.83
    4    8    0      1.00      1.67
    2    8    0      2.72     -0.25
    0    8    0      3.54      0.05
   28    8    0      1.71     -2.24
   27    9    0     -0.54      0.41
   25    9    0      0.29      0.86
   23    9    0      0.07      3.80
   21    9    0     -0.78      3.93
   19    9    0     -0.71      3.79
   17    9    0     -0.16      0.82
   15    9    0      0.18      0.94
   13    9    0      0.44      2.95
   11    9    0     -1.53      2.95
    9    9    0     -3.11      0.63
    7    9    0     -7.17     -4.02
    5    9    0     -6.32     -4.61
    3    9    0     -5.58     -4.66
    1    9    0     -2.82     -1.08
   24   10    0      0.44     -0.71
   22   10    0     -1.58     -1.83
   20   10    0     -0.64     -2.42
   18   10    0     -0.38     -1.26
   16   10    0      0.68     -0.59
   14   10    0     -1.12     -2.94
   12   10    0      0.07     -4.34
   10   10    0      0.67     -2.33
    8   10    0      1.65      0.69
    6   10    0     -0.17     -0.13
    4   10    0     -2.06     -5.60
    0   10    0     -2.42     -2.85
   21   11    0      1.17      1.62
   19   11    0      1.75      0.51
   17   11    0      0.82      1.14
   15   11    0      0.50      0.98
   13   11    0     -0.27     -0.20
   11   11    0      1.56     -4.57
    9   11    0      1.32    -10.22
    7   11    0      2.75    -10.81
    5   11    0      2.79     -7.49
    3   11    0      5.18     -0.47
    1   11    0      6.77      1.03
   18   12    0     -0.51     -1.08
   16   12    0      0.47     -1.42
   14   12    0      0.08     -2.57
   12   12    0      0.10     -1.86
   10   12    0      1.25      2.52
    8   12    0      1.05      8.36
    6   12    0     -0.40      7.23
    4   12    0     -2.23     -0.42
    2   12    0      0.42     -8.45
    0   12    0      2.34     -8.86
   13   13    0      0.54     -1.35
   11   13    0      0.65     -3.66
    9   13    0      1.68     -6.85
    7   13    0      0.96     -8.44
    5   13    0      1.26     -6.58
    3   13    0      1.71     -2.22
    1   13    0      2.35      2.36
    4   14    0     -6.07     -1.94
    2   14    0     -6.98     -8.70
    0   14    0     -3.75    -11.75
    3    1    1     64.42     14.62
  -13    9    1     -1.09     -1.88
  -36    0    2      1.15     -1.20
   34    0    2     -0.59     -1.84
   25    1    2      1.89      1.07
   18   12    2     -0.94     -0.24
   24    2    3      2.65      2.35
  -35    5    3     -1.44     -1.05
  -29    9    3      1.55      0.48
  -20   12    3      1.13      3.23
  -15   13    3     -0.70      0.36
   -2   14    3      0.12      1.98
    0   14    3     -0.80      0.92
   24    2    4      2.93      1.05
   32    4    4     -0.99     -0.26
   30    6    4      1.33     -1.12
   16   12    4      0.67      1.19
  -15   13    4     -0.42     -1.90
   11   13    4      1.54     -0.52
   -2   14    4      2.74     -3.34
   33    1    5     -0.88      0.12
  -38    2    7      0.71     -1.36
  -38    2    8     -2.53     -0.11
   12    0   12     -2.30     -4.64
  -38    2   12     -0.60     -0.39
  -38    2   13     -0.89      0.03
  -38    0   14      0.30      2.41
   12    0   14      1.66      2.51
   14    0   14      2.54      4.77
   16    0   14      7.92     -3.53
   18    0   14      8.11     -5.23
   24    0   14     -2.18      3.59
   15    1   14      0.77      4.07
   17    1   14     -1.57      1.81
   16    2   14      4.53     -0.50
   23    3   14     -1.44      0.12
    7   11   14      1.54      0.56
    0   12   14      1.55     -0.86
   15    1   15      1.40     -1.02
   17    1   15      1.52      1.89
   19    1   15      1.24      1.19
   21    1   15      0.58     -0.94
   16    2   15     -0.57     -2.89
   18    2   15      0.58     -5.06
   20    2   15     -0.49     -3.69
   22    2   15      0.59      0.64
   19    3   15      1.72      2.97
   21    3   15      0.11      0.08
   20    4   15      0.37      1.10
   22    4   15     -0.81      0.93
   21    5   15      0.90     -0.12
  -30    8   15      0.05      0.24
   10   10   15     -0.65      0.15
   12    0   16      3.16     -4.13
   16    0   16      1.33     -5.13
   18    0   16      1.33     -2.00
   20    0   16     -0.16      1.02
   22    0   16     -0.37      0.72
   15    1   16     -1.58     -0.03
   17    1   16     -6.59      0.47
   19    1   16     -5.69      2.11
   21    1   16     -1.95      1.65
   16    2   16     -0.22     -4.17
   18    2   16     -0.32     -4.17
   20    2   16     -0.38     -2.42
   19    3   16      0.11     -1.48
   21    3   16      0.34      0.31
   20    4   16     -1.50     -0.96
  -17    5   16      3.09     -2.79
  -37    1   17      0.19     -0.41
    9    1   17     -0.85      2.51
   13    1   17      1.45     -0.53
   15    1   17      1.49     -1.48
   17    1   17     -0.63      2.08
   19    1   17     -1.59      2.64
   16    2   17     -1.87     -1.74
   18    2   17     -1.61     -2.55
   20    2   17     -1.51     -1.22
   17    3   17     -0.40     -0.85
   19    3   17      0.20      0.17
   10    0   18     -4.30      1.72
   12    0   18     -3.94     -1.37
   14    0   18     -2.88      2.01
   16    0   18      2.31      2.61
   18    0   18      5.40      3.22
   13    1   18      0.11     -0.93
   15    1   18     -1.25      1.59
   17    1   18     -1.83      1.10
   19    1   18     -0.59      0.59
  -36    2   18      1.44     -0.07
   16    2   18     -0.75      3.36
   18    2   18     -0.91      2.42
   17    3   18     -0.53      1.50
  -32    6   18      2.66      1.24
   13    7   18      1.14      0.65
   13    1   19      0.77     -1.11
   15    1   19      1.90     -0.34
   17    1   19      1.85      2.33
   16    2   19     -2.31     -1.37
  -35    3   19     -1.60      1.92
   17    3   19     -1.06      3.09
  -34    4   19      0.74     -7.38
   16    4   19     -1.83     -0.97
   15    5   19      0.70      0.38
   11    7   19     -0.78     -0.09
   10    0   20     -3.54      2.38
   12    0   20     -2.54     -1.44
   14    0   20     -1.03     -1.44
   16    0   20      0.48     -2.57
   13    1   20      1.98      1.50
   15    1   20      1.53      1.94
   14    2   20      0.68     -2.23
   16    2   20      1.21     -0.42
   14    4   20     -1.50      0.52
   13    5   20      0.16      0.77
   13    1   21     -0.20      0.34
  -34    2   21      2.39      0.28
   14    2   21     -0.44      2.40
   13    3   21      1.11     -2.06
   12    4   21     -0.70     -0.32
    8    0   22     -3.50     -1.09
   10    0   22     -2.41      2.26
   12    0   22     -0.96      0.11
   11    1   22      1.37      0.65
   11    3   22     -0.78      1.56
   10    4   22     -1.06      1.69
   10    2   23      0.63      3.37
  -31    3   23      0.32     -0.23
    9    3   23     -1.05     -3.48
    8    4   23     -2.15      2.50
  -26    6   23     -0.06     -0.68
    8    0   24     -0.34     -0.07
  -31    1   24     -1.15     -0.09
    7    3   24      1.03     -0.58
    2    0    0    234.35    -62.02
    1    1    0    -46.07     -8.35
    3    1    0    -22.65    -25.67
    0    2    0     81.64     -2.53
   36    2    0      0.43      0.53
   16    8    0     -4.87     -0.45
   30    8    0      0.32     -1.26
    2   10    0     -2.58     -6.91
   26   10    0      2.02     -0.80
   23   11    0      0.12      1.04
   15   13    0     -0.40      0.11
    6   14    0     -4.16      2.46
   -1    1    1     85.19     67.56
   35    3    1      0.43      0.38
   31    7    1     -0.07     -0.09
  -26   10    1      0.55      1.49
  -20   12    1      0.88     -0.59
  -15   13    1      0.08      0.75
   -6   14    1      1.11     -0.77
    6   14    1     -1.73      0.01
   -4    0    2    -36.04    -82.73
   -2    0    2    -25.46    -88.68
    0    0    2     10.06    -59.83
    2    0    2    -27.33    -28.10
  -37    1    2      0.17      1.95
    1    1    2   -139.97    -52.36
    2    2    2     25.27     22.84
  -35    5    2      0.45     -0.01
   33    5    2     -0.53     -0.98
   32    6    2     -0.02      0.79
  -29    9    2     -1.61     -0.20
   27    9    2     -2.34      0.30
  -20   12    2     -2.11     -1.50
  -15   13    2      1.04     -3.75
   -6   14    2     -0.54      0.33
    4   14    2      1.50      0.61
  -36    4    3     -1.98     -0.88
  -34    6    3      0.11     -0.87
   24   10    3     -0.58     -0.42
   18   12    3      1.32      0.11
   13   13    3     -1.46     -1.36
   -6   14    3     -1.84      1.18
    2   14    3     -2.38      0.48
    4   14    3     -2.16     -0.47
  -38    0    4      2.23     -3.48
   -8    0    4    -36.50    -23.61
   34    0    4     -0.53      0.18
    2    2    4     43.98     24.00
  -37    3    4      0.82      1.37
  -33    7    4      0.60      0.52
   -6   14    4     -2.76     -0.40
   -4   14    4     -0.06     -0.76
    0   14    4      6.44     -4.50
    2   14    4      4.30     -4.80
   32    4    5      0.64      0.10
   31    5    5     -1.59     -0.50
   30    6    5     -0.33     -1.63
   25    9    5      1.02      0.39
   16   12    5     -0.12      0.89
   11   13    5      0.88      1.75
   -4   14    5      0.50      2.43
   -2   14    5      1.73      2.27
    0   14    5      2.41      0.52
   24    0    6     -3.11      2.13
  -38    2    6      1.53     -0.92
  -32    8    6     -0.36     -2.78
   22   10    6     -0.58     -0.05
   19   11    6      0.25     -0.58
  -15   13    6      2.10     -1.03
   31    3    7      0.38     -0.08
   27    7    7     -1.87     -0.60
  -32    8    7      1.19     -1.01
   14   12    7      0.62     -0.11
  -15   13    7     -0.34      0.02
   31    1    8      1.08     -0.79
  -32    8    8     -1.34      0.12
   20   10    8      0.54      0.61
   17   11    8     -0.33     -0.06
  -20   12    8     -0.93     -1.44
  -15   13    8     -0.60     -1.74
    7   13    8     -0.89     -0.55
   30    2    9     -1.18      0.25
  -32    8    9     -0.17      1.20
  -20   12    9     -0.66      0.45
  -13   13    9     -0.25     -0.73
    5   13    9     -0.37     -0.47
   27    5   10      0.25     -0.69
  -32    8   10      0.95     -0.47
   18   10   10     -0.38      1.54
   10   12   10     -1.93     -1.65
  -13   13   10      0.14     -1.46
    3   13   10     -0.38      0.27
   28    2   11      0.02     -0.17
  -32    8   11      0.78      1.73
   13   11   11      0.41      0.66
  -11   13   11      0.62     -1.17
   -9   13   11     -0.29     -0.91
   -1   13   11     -0.63     -0.75
   25    5   12      0.45      0.54
  -23   11   12      0.97      1.02
  -18   12   12      0.19     -0.23
   -5   13   12     -1.13      0.48
   26    2   13      0.36     -0.20
  -33    7   13     -0.58     -1.16
   21    7   13     -0.76      1.40
  -29    9   13     -0.47     -2.48
   17    9   13     -0.57     -1.47
  -26   10   13     -1.02      1.41
   14   10   13      0.40     -0.09
    4   12   13      1.28      0.50
   25    1   14     -0.88     -0.06
  -38    2   14      0.91     -1.08
  -33    7   14     -1.19     -0.57
   12   10   14      0.39     -0.01
  -21   11   14     -1.60      0.80
  -14   12   14      0.05      0.77
    2   12   14      1.61      0.58
   23    1   15     -0.67     -0.44
  -37    3   15      0.22      2.09
   23    3   15     -0.54     -1.86
  -36    4   15     -0.38     -2.09
  -35    5   15      1.69      0.76
  -34    6   15     -1.52     -0.39
   20    6   15      2.37     -0.85
  -12   12   15     -0.20     -0.10
   -2   12   15     -1.05     -1.78
   14    0   16     -0.38     -3.29
   22    2   16     -0.63     -0.05
  -37    3   16     -0.88     -0.51
  -36    4   16     -0.72     -1.67
  -35    5   16     -0.30      2.09
   17    7   16     -0.47      0.42
  -30    8   16      0.10     -0.40
  -27    9   16      0.25     -0.45
  -24   10   16     -1.09      0.21
  -19   11   16     -0.48      1.43
   21    1   17     -0.61      0.40
  -31    7   17     -1.63     -0.09
   15    7   17      1.00     -0.24
  -22   10   17     -1.89     -0.52
    6   10   17      0.23      1.09
  -17   11   17     -2.24     -0.12
    1   11   17     -1.08     -0.79
   20    0   18      3.55      2.08
   19    3   18      0.19      0.89
   18    4   18     -1.34     -0.40
   17    5   18      1.04      0.38
  -28    8   18     -1.17      0.90
  -25    9   18      1.06      0.10
    4   10   18      0.54      0.99
  -13   11   18     -0.56      0.47
  -11   11   18     -0.33      0.65
   -5   11   18     -0.57      1.56
  -36    2   19      1.39      0.80
   18    2   19     -0.55     -1.00
  -33    5   19     -2.42      0.70
  -18   10   19     -0.07      0.61
   12    6   20     -1.42     -0.33
  -26    8   20     -0.29      0.23
    3    9   20      1.51      0.93
  -16   10   20     -0.22     -0.85
  -14   10   20     -0.29     -1.32
   -4   10   20      1.08     -0.82
   15    1   21      0.76     -0.09
  -31    5   21      0.28      2.38
   10    6   21     -0.82      0.72
  -27    7   21     -1.25     -1.51
  -24    8   21     -1.74     -0.06
  -19    9   21     -0.15     -0.63
  -34    0   22     -0.34     -1.78
   13    1   22      1.32     -0.18
  -28    6   22      0.63      2.24
    5    7   22      0.36      0.08
  -22    8   22      0.13      1.69
  -15    9   22     -0.14      1.30
   -5    9   22      0.09      0.26
   11    1   23      0.67     -1.96
  -32    2   23     -2.29     -3.03
  -30    4   23     -1.01     -0.51
  -29    5   23     -1.24     -0.34
    7    5   23      0.15     -1.10
  -23    7   23      2.73      2.07
  -18    8   23     -0.85     -1.21
   -2    8   23     -1.36      0.54
    9    1   24      2.84      0.02
    8    2   24      0.89      2.66
    6    4   24     -0.29      1.06
  -27    5   24      0.07      0.63
  -24    6   24      1.10     -0.88
    2    6   24     -0.17     -1.00
  -21    7   24     -0.23     -0.71
  -12    8   24      0.00     -2.54
  -10    8   24     -0.19     -2.47
    6    2   25      0.81      1.42
    5    3   25     -2.02     -0.46
  -25    5   25     -1.38      0.07
    1    5   25     -1.80      0.86
  -22    6   25     -1.26     -1.12
   -2    6   25     -1.19      0.06
  -15    7   25      0.22      1.76
  -13    7   25      1.33      2.19
   -9    7   25      1.34      2.77
   -7    7   25      1.39      1.71
  -28    0   26     -1.22     -1.26
    3    1   26     -2.79     -0.71
    2    2   26      1.40     -0.12
    1    3   26     -2.49      0.92
  -24    4   26      0.07     -0.15
    0    4   26      2.58      1.28
  -21    5   26     -0.50     -0.02
   -3    5   26     -1.44      0.06
  -16    6   26     -2.02     -0.35
   -8    6   26      0.26     -1.36
  -25    1   27     -0.85      0.41
   -1    1   27     -1.79     -0.43
  -24    2   27     -1.06     -1.08
  -23    3   27     -0.76     -0.18
  -20    4   27      1.06      3.12
  -15    5   27      1.03     -0.52
  -13    5   27      0.37     -0.28
  -11    5   27      0.28     -0.74
   -9    5   27     -0.38      0.16
  -22    0   28      5.37     -2.46
   -4    0   28     -0.23      2.87
  -21    1   28      0.91      0.46
  -20    2   28     -0.14      0.13
   -6    2   28     -2.72     -0.30
  -19    3   28      0.01     -2.71
  -17    3   28     -0.37     -0.86
   -9    3   28      3.60      2.93
    0    0    0      0.00      0.00
# SQUEEZE RESULTS (Version = 110220)
# Note: Data are Listed for all Voids in the P1 Unit Cell
# i.e. Centre of Gravity, Solvent Accessible Volume,
# Recovered number of Electrons in the Void and
# Details about the Squeezed Material
loop_
  _platon_squeeze_void_nr
  _platon_squeeze_void_average_x
  _platon_squeeze_void_average_y
  _platon_squeeze_void_average_z
  _platon_squeeze_void_volume
  _platon_squeeze_void_count_electrons
  _platon_squeeze_void_content
   1  0.005 -0.309  0.359       165        53 ' '
   2  0.005  0.308  0.859       165        54 ' '
   3  0.440  0.001  0.066        50        20 ' '
   4  0.440 -0.002  0.566        49        20 ' '
   5  0.505  0.193  0.360       163        53 ' '
   6  0.505 -0.193  0.860       164        54 ' '
   7  0.251  0.246  0.025        28         2 ' '
   8  0.751  0.254  0.525        28         2 ' '
   9  0.938  0.498  0.562        48        20 ' '
  10  0.938  0.502  0.062        48        20 ' '
  11  0.751  0.746  0.025        28         2 ' '
  12  0.251  0.754  0.525        28         2 ' '
# Missing Reflections Below sin(th)/lambda = 0.25
loop_
  _platon_missing_refln_index_h
  _platon_missing_refln_index_k
  _platon_missing_refln_index_l
  _platon_missing_refln_theta
    2    0    0     1.491
    1    1    0     2.046
    3    1    0     2.939
    0    2    0     3.812
   -1    1    1     2.159
   -4    0    2     2.951
   -2    0    2     2.033
    0    0    2     2.001
    2    0    2     2.886
    1    1    2     3.040
    2    2    2     4.784
   -8    0    4     5.911
    2    2    4     6.089
_platon_squeeze_void_probe_radius                  1.20
_platon_squeeze_details
)
TITL LJF026           C c          R = 0.12
CELL   29.1710   10.6913   21.7410     90.00    110.57     90.00
SPGR Cc
# Solvent Accessible Volume =       963
# Electrons Found in S.A.V. =       303
# Note: Atoms in Void are Labelled as Cxxx and Qxxx for all Others
C101 0.010 0.263 0.828 !       3.50 eA-3
C102 0.472 0.404 0.306 !       3.42 eA-3
C103 0.932 0.114 0.790 !       3.19 eA-3
Q104 0.554 0.070 0.498 !       3.09 eA-3
C105 1.005 0.464 0.783 !       2.86 eA-3
C106 0.437 0.056 0.545 !       2.65 eA-3
C107 0.506 0.112 0.335 !       2.45 eA-3
C108 0.007 0.156 0.857 !       2.44 eA-3
Q109 0.945 0.474 0.525 !       2.21 eA-3
Q110 0.932 0.052 0.860 !       2.02 eA-3
Q111 0.989 0.263 0.892 !       1.98 eA-3
C112 0.029 0.497 0.961 !       1.95 eA-3
Q113 0.450 0.046 0.062 !       1.95 eA-3
C114 0.461 0.045 0.585 !       1.91 eA-3
Q115 0.935 0.205 0.852 !       1.83 eA-3
C116 0.460 0.326 0.330 !       1.80 eA-3
C117 0.985 0.478 0.115 !       1.78 eA-3
Q118 0.974 0.486 0.595 !       1.76 eA-3
C119 0.067 0.488 0.484 !       1.64 eA-3
Q120 0.033 0.403 0.528 !       1.61 eA-3
Q121 0.509 0.409 0.290 !       1.61 eA-3
Q122 0.504 0.424 0.030 !       1.57 eA-3
Q123 0.510 0.483 0.070 !       1.51 eA-3
Q124 0.562 0.140 0.484 !       1.48 eA-3
Q125 0.542 0.339 0.422 !       1.47 eA-3
Q126 0.472 0.402 0.346 !       1.47 eA-3
Q127 0.494 0.481 0.993 !       1.43 eA-3
Q128 0.024 0.406 0.973 !       1.40 eA-3
Q129 0.438 0.475 0.867 !       1.34 eA-3
Q130 0.093 0.470-0.001 !       1.31 eA-3
Q131 0.596 0.046 0.525 !       1.28 eA-3
Q132 0.040 0.343 0.969 !       1.25 eA-3
Q133 0.501 0.409 0.249 !       1.24 eA-3
Q134 0.521 0.473 0.265 !       1.22 eA-3
Q135 0.985 0.371 0.086 !       1.22 eA-3
Q136 0.950 0.125 0.874 !       1.22 eA-3
Q137 0.888 0.485 0.028 !       1.18 eA-3
Q138 0.061 0.481 0.554 !       1.17 eA-3
Q139 0.521 0.139 0.516 !       1.17 eA-3
Q140 0.514 0.473 0.758 !       1.17 eA-3
Q141 0.421 0.078 0.578 !       1.16 eA-3
Q142 0.390 0.143 0.530 !       1.16 eA-3
Q143 0.017 0.175 0.929 !       1.15 eA-3
Q144 0.453 0.481 0.807 !       1.12 eA-3
Q145 0.520 0.092 0.000 !       1.11 eA-3
C146 0.062 0.460 0.055 !       1.11 eA-3
Q147 0.990 0.265 0.737 !       1.11 eA-3
Q148 0.422 0.068 0.991 !       1.11 eA-3
C149 0.991 0.262 0.859 !       1.10 eA-3
Q150 0.514 0.324 0.267 !       1.10 eA-3
Q151 0.018 0.241 0.938 !       1.10 eA-3
Q152 0.523 0.129 0.116 !       1.09 eA-3
Q153 0.547 0.188 0.048 !       1.08 eA-3
Q154 0.488 0.420 0.809 !       1.07 eA-3
Q155 0.447 0.124 0.030 !       1.07 eA-3
Q156 0.966 0.393 0.116 !       1.07 eA-3
Q157 0.399 0.416 0.343 !       1.06 eA-3
Q158 0.999 0.399 0.940 !       1.06 eA-3
Q159 0.914 0.017 0.779 !       1.06 eA-3
C160 0.231 0.224 0.994 !       1.05 eA-3
Q161 0.928 0.085 0.289 !       1.05 eA-3
Q162 0.541 0.079 0.983 !       1.05 eA-3
Q163 0.453 0.200 0.507 !       1.02 eA-3
Q164 1.003 0.410 0.726 !       1.02 eA-3
Q165 0.029 0.422 0.038 !       1.02 eA-3
C166 0.957 0.131 0.758 !       1.01 eA-3
Q167 0.423 0.481 0.750 !       1.00 eA-3
Q168 0.967 0.380 0.592 !       1.00 eA-3
Q169 0.591 0.144 0.510 !       0.99 eA-3
Q170 0.481 0.329 0.273 !       0.99 eA-3
Q171 0.522 0.175 0.444 !       0.98 eA-3
Q172 1.000 0.058 0.031 !       0.98 eA-3
Q173 0.483 0.489 0.744 !       0.97 eA-3
Q174 0.451 0.419 0.757 !       0.97 eA-3
Q175 0.500 0.485 0.287 !       0.97 eA-3
Q176 0.927 0.328 0.089 !       0.95 eA-3
Q177 0.493 0.125 0.610 !       0.94 eA-3
Q178 0.972 0.328 0.532 !       0.93 eA-3
Q179 0.227 0.142 0.984 !       0.93 eA-3
Q180 0.986 0.419 0.554 !       0.92 eA-3
Q181 0.484 0.142 0.529 !       0.91 eA-3
Q182 0.912 0.281 0.923 !       0.91 eA-3
Q183 0.523 0.424 0.577 !       0.91 eA-3
Q184 0.988 0.375 0.447 !       0.91 eA-3
Q185 0.941 0.121 0.907 !       0.90 eA-3
Q186 0.482 0.331 0.969 !       0.89 eA-3
Q187 0.050 0.406 0.568 !       0.89 eA-3
Q188 0.921 0.404 0.969 !       0.88 eA-3
Q189 0.471 0.030 0.768 !       0.88 eA-3
Q190 0.117 0.339 0.054 !       0.87 eA-3
Q191 0.573 0.265 0.212 !       0.87 eA-3
Q192 0.081 0.184 0.875 !       0.87 eA-3
Q193 0.892 0.406 0.993 !       0.85 eA-3
Q194 0.062 0.344 0.030 !       0.84 eA-3
Q195 0.452 0.402 0.800 !       0.83 eA-3
Q196 0.993 0.075 0.986 !       0.82 eA-3
Q197 0.454 0.388 0.224 !       0.82 eA-3
Q198 0.936 0.195 0.897 !       0.81 eA-3
Q199 0.574 0.466 0.992 !       0.81 eA-3
)
;
_shelx_fab_checksum              6841
loop_
_space_group_symop_operation_xyz
'x, y, z'
'x, -y, z+1/2'
'x+1/2, y+1/2, z'
'x+1/2, -y+1/2, z+1/2'
loop_
_atom_site_label
_atom_site_type_symbol
_atom_site_fract_x
_atom_site_fract_y
_atom_site_fract_z
_atom_site_U_iso_or_equiv
_atom_site_adp_type
_atom_site_occupancy
_atom_site_site_symmetry_order
_atom_site_calc_flag
_atom_site_refinement_flags_posn
_atom_site_refinement_flags_adp
_atom_site_refinement_flags_occupancy
_atom_site_disorder_assembly
_atom_site_disorder_group
Rh Rh 0.50279(6) 1.51108(8) 1.53061(8) 0.0463(3) Uani 1 1 d . . . . .
N1 N 0.5177(3) 1.6051(8) 1.4582(4) 0.0332(19) Uani 1 1 d . . . . .
N2 N 0.5727(3) 1.4382(7) 1.5608(5) 0.036(2) Uani 1 1 d . . . . .
N3 N 0.4883(3) 1.4138(8) 1.6015(5) 0.038(2) Uani 1 1 d . . . . .
N4 N 0.4346(3) 1.5822(7) 1.4996(4) 0.0315(18) Uani 1 1 d . . . . .
C1 C 0.4866(5) 1.6858(13) 1.4131(6) 0.043(3) Uani 1 1 d . . . . .
C2 C 0.5100(4) 1.7300(12) 1.3711(6) 0.043(3) Uani 1 1 d . . . . .
H2A H 0.496625 1.787659 1.336131 0.052 Uiso 1 1 calc R U . . .
C3 C 0.5534(5) 1.6788(13) 1.3879(6) 0.046(3) Uani 1 1 d . . . . .
H3A H 0.576621 1.690553 1.366829 0.056 Uiso 1 1 calc R U . . .
C4 C 0.5594(5) 1.6015(9) 1.4442(7) 0.047(3) Uani 1 1 d . . . . .
C5 C 0.6010(5) 1.5319(13) 1.4754(7) 0.039(3) Uani 1 1 d . . . . .
C6 C 0.6034(5) 1.4550(11) 1.5300(8) 0.053(3) Uani 1 1 d . . . . .
C7 C 0.6465(5) 1.3830(14) 1.5657(7) 0.059(3) Uani 1 1 d . . . . .
H7A H 0.675990 1.380817 1.556455 0.071 Uiso 1 1 calc R U . . .
C8 C 0.6383(5) 1.3211(14) 1.6128(8) 0.059(3) Uani 1 1 d . . . . .
H8A H 0.659710 1.263971 1.642822 0.071 Uiso 1 1 calc R U . . .
C9 C 0.5908(4) 1.3569(10) 1.6099(6) 0.037(2) Uani 1 1 d . . . . .
C10 C 0.5670(4) 1.3099(10) 1.6519(5) 0.037(2) Uani 1 1 d . . . . .
C11 C 0.5176(4) 1.3361(9) 1.6459(5) 0.029(2) Uani 1 1 d . U . . .
C12 C 0.4932(5) 1.2850(13) 1.6872(6) 0.047(3) Uani 1 1 d . . . . .
H12A H 0.507262 1.230735 1.723629 0.057 Uiso 1 1 calc R U . . .
C13 C 0.4464(4) 1.3285(12) 1.6649(6) 0.045(3) Uani 1 1 d . . . . .
H13A H 0.420805 1.307702 1.680491 0.055 Uiso 1 1 calc R U . . .
C14 C 0.4443(4) 1.4135(10) 1.6120(5) 0.032(2) Uani 1 1 d . . . . .
C15 C 0.4014(7) 1.4781(14) 1.5764(9) 0.056(4) Uani 1 1 d . . . . .
C16 C 0.3967(4) 1.5564(12) 1.5219(6) 0.043(3) Uani 1 1 d . . . . .
C17 C 0.3530(5) 1.6214(13) 1.4857(7) 0.054(3) Uani 1 1 d . U . . .
H17A H 0.322859 1.620829 1.493391 0.065 Uiso 1 1 calc R U . . .
C18 C 0.3633(5) 1.6843(16) 1.4380(7) 0.063(4) Uani 1 1 d . . . . .
H18A H 0.340724 1.733641 1.404542 0.076 Uiso 1 1 calc R U . . .
C19 C 0.4151(4) 1.6638(9) 1.4463(6) 0.032(2) Uani 1 1 d . . . . .
C20 C 0.4381(5) 1.7090(11) 1.4069(7) 0.044(3) Uani 1 1 d . . . . .
C21 C 0.6432(4) 1.5369(15) 1.4509(7) 0.047(3) Uani 1 1 d . . . . .
C22 C 0.6396(8) 1.4737(19) 1.3941(12) 0.072(6) Uani 1 1 d . . . . .
H22A H 0.610501 1.429595 1.370064 0.086 Uiso 1 1 calc R U . . .
C23 C 0.6815(8) 1.4757(18) 1.3712(11) 0.066(5) Uani 1 1 d . . . . .
H23A H 0.679351 1.434611 1.331525 0.080 Uiso 1 1 calc R U . . .
C24 C 0.7236(5) 1.5370(17) 1.4073(8) 0.057(4) Uani 1 1 d . . . . .
C25 C 0.7259(6) 1.6001(17) 1.4630(9) 0.066(4) Uani 1 1 d . . . . .
H25A H 0.754870 1.644122 1.487235 0.080 Uiso 1 1 calc R U . . .
C26 C 0.6860(5) 1.6007(16) 1.4849(7) 0.057(4) Uani 1 1 d . . . . .
H26A H 0.688341 1.645561 1.523576 0.069 Uiso 1 1 calc R U . . .
C27 C 0.7691(7) 1.537(2) 1.3844(11) 0.087(5) Uani 1 1 d D U . . .
C28 C 0.760(4) 1.620(11) 1.321(4) 0.091(7) Uani 0.20(2) 1 d D U P A 1
H28A H 0.748867 1.703352 1.327788 0.137 Uiso 0.20(2) 1 calc R U P A 1
H28B H 0.791325 1.628730 1.312777 0.137 Uiso 0.20(2) 1 calc R U P A 1
H28C H 0.735938 1.580460 1.282933 0.137 Uiso 0.20(2) 1 calc R U P A 1
C29 C 0.787(4) 1.406(5) 1.376(6) 0.090(9) Uani 0.20(2) 1 d D . P A 1
H29A H 0.815605 1.412523 1.361777 0.136 Uiso 0.20(2) 1 calc R U P A 1
H29B H 0.797023 1.360872 1.418041 0.136 Uiso 0.20(2) 1 calc R U P A 1
H29C H 0.761101 1.359379 1.342956 0.136 Uiso 0.20(2) 1 calc R U P A 1
C30 C 0.813(2) 1.598(9) 1.434(4) 0.087(5) Uani 0.20(2) 1 d D U P A 1
H30A H 0.804308 1.683772 1.442332 0.131 Uiso 0.20(2) 1 calc R U P A 1
H30B H 0.823017 1.550481 1.475018 0.131 Uiso 0.20(2) 1 calc R U P A 1
H30C H 0.839782 1.601010 1.416913 0.131 Uiso 0.20(2) 1 calc R U P A 1
C28' C 0.7788(10) 1.669(3) 1.3646(16) 0.091(7) Uani 0.80(2) 1 d . . P A 2
H28D H 0.782350 1.726640 1.400918 0.137 Uiso 0.80(2) 1 calc R U P A 2
H28E H 0.808970 1.668648 1.354420 0.137 Uiso 0.80(2) 1 calc R U P A 2
H28F H 0.751319 1.695262 1.325785 0.137 Uiso 0.80(2) 1 calc R U P A 2
C29' C 0.7629(9) 1.437(3) 1.3313(14) 0.090(9) Uani 0.80(2) 1 d D . P A 2
H29D H 0.756786 1.355954 1.347630 0.136 Uiso 0.80(2) 1 calc R U P A 2
H29E H 0.735076 1.459734 1.291897 0.136 Uiso 0.80(2) 1 calc R U P A 2
H29F H 0.792727 1.433119 1.320532 0.136 Uiso 0.80(2) 1 calc R U P A 2
C30' C 0.8124(11) 1.504(3) 1.4434(16) 0.087(5) Uani 0.80(2) 1 d D . P A 2
H30D H 0.816738 1.566778 1.477708 0.131 Uiso 0.80(2) 1 calc R U P A 2
H30E H 0.807206 1.421588 1.459903 0.131 Uiso 0.80(2) 1 calc R U P A 2
H30F H 0.841792 1.500923 1.431392 0.131 Uiso 0.80(2) 1 calc R U P A 2
C31 C 0.5946(4) 1.2222(11) 1.7056(6) 0.039(2) Uani 1 1 d . . . . .
C32 C 0.5890(5) 1.0953(12) 1.7016(7) 0.053(3) Uani 1 1 d . . . . .
H32A H 0.569890 1.058592 1.660866 0.064 Uiso 1 1 calc R U . . .
C33 C 0.6114(10) 1.0150(17) 1.7581(11) 0.068(6) Uani 1 1 d . . . . .
H33A H 0.604239 0.928049 1.755288 0.082 Uiso 1 1 calc R U . . .
C34 C 0.6423(4) 1.0640(11) 1.8143(6) 0.039(2) Uani 1 1 d . . . . .
C35 C 0.6483(6) 1.1928(13) 1.8178(7) 0.058(4) Uani 1 1 d . . . . .
H35A H 0.668934 1.229970 1.857538 0.069 Uiso 1 1 calc R U . . .
C36 C 0.6244(6) 1.2688(13) 1.7638(7) 0.055(3) Uani 1 1 d . . . . .
H36A H 0.629210 1.356691 1.768022 0.066 Uiso 1 1 calc R U . . .
C37 C 0.6687(7) 0.9807(19) 1.8745(10) 0.071(5) Uani 1 1 d D U . . .
C38 C 0.6584(18) 0.841(4) 1.851(2) 0.087(7) Uani 0.47(2) 1 d . U P B 1
H38A H 0.674533 0.784737 1.887362 0.130 Uiso 0.47(2) 1 calc R U P B 1
H38B H 0.623031 0.825750 1.834345 0.130 Uiso 0.47(2) 1 calc R U P B 1
H38C H 0.671222 0.826193 1.815195 0.130 Uiso 0.47(2) 1 calc R U P B 1
C39 C 0.717(2) 1.030(4) 1.910(2) 0.104(12) Uani 0.47(2) 1 d . . P B 1
H39A H 0.733433 0.976693 1.948013 0.155 Uiso 0.47(2) 1 calc R U P B 1
H39B H 0.736200 1.031812 1.880970 0.155 Uiso 0.47(2) 1 calc R U P B 1
H39C H 0.714060 1.115113 1.924999 0.155 Uiso 0.47(2) 1 calc R U P B 1
C40 C 0.6521(19) 1.033(5) 1.9322(19) 0.109(10) Uani 0.47(2) 1 d D U P B 1
H40A H 0.667697 0.984181 1.972154 0.163 Uiso 0.47(2) 1 calc R U P B 1
H40B H 0.662024 1.121097 1.940597 0.163 Uiso 0.47(2) 1 calc R U P B 1
H40C H 0.616445 1.027029 1.919197 0.163 Uiso 0.47(2) 1 calc R U P B 1
C38' C 0.6258(12) 0.904(3) 1.8883(19) 0.087(7) Uani 0.53(2) 1 d D . P B 2
H38D H 0.606385 0.858595 1.848511 0.130 Uiso 0.53(2) 1 calc R U P B 2
H38E H 0.640334 0.844157 1.924091 0.130 Uiso 0.53(2) 1 calc R U P B 2
H38F H 0.604670 0.962190 1.900790 0.130 Uiso 0.53(2) 1 calc R U P B 2
C39' C 0.6943(18) 0.874(3) 1.8546(17) 0.104(12) Uani 0.53(2) 1 d . . P B 2
H39D H 0.673953 0.844354 1.810879 0.155 Uiso 0.53(2) 1 calc R U P B 2
H39E H 0.725861 0.903075 1.853584 0.155 Uiso 0.53(2) 1 calc R U P B 2
H39F H 0.699587 0.805838 1.886389 0.155 Uiso 0.53(2) 1 calc R U P B 2
C40' C 0.691(2) 1.037(6) 1.935(2) 0.109(10) Uani 0.53(2) 1 d . . P B 2
H40D H 0.670559 1.104115 1.941321 0.163 Uiso 0.53(2) 1 calc R U P B 2
H40E H 0.696714 0.974418 1.970111 0.163 Uiso 0.53(2) 1 calc R U P B 2
H40F H 0.722988 1.071655 1.937306 0.163 Uiso 0.53(2) 1 calc R U P B 2
C41 C 0.3585(6) 1.4686(15) 1.5969(8) 0.053(3) Uani 1 1 d . . . . .
C42 C 0.3595(7) 1.5322(17) 1.6531(10) 0.061(4) Uani 1 1 d . . . . .
H42A H 0.387313 1.580784 1.677156 0.073 Uiso 1 1 calc R U . . .
C43 C 0.3200(7) 1.5243(15) 1.6735(9) 0.055(4) Uani 1 1 d . . . . .
H43A H 0.321388 1.569151 1.711826 0.065 Uiso 1 1 calc R U . . .
C44 C 0.2789(5) 1.4555(16) 1.6419(8) 0.057(3) Uani 1 1 d . . . . .
C45 C 0.2790(5) 1.3922(15) 1.5886(7) 0.056(3) Uani 1 1 d . . . . .
H45A H 0.251063 1.343514 1.565296 0.068 Uiso 1 1 calc R U . . .
C46 C 0.3180(6) 1.3943(16) 1.5658(7) 0.058(4) Uani 1 1 d . . . . .
H46A H 0.316853 1.344925 1.528903 0.070 Uiso 1 1 calc R U . . .
C47 C 0.2345(5) 1.4502(17) 1.6671(8) 0.059(3) Uani 1 1 d D . . . .
C48 C 0.2283(7) 1.322(2) 1.6887(13) 0.079(7) Uani 0.81(2) 1 d . . P C 1
H48A H 0.226557 1.262822 1.653707 0.118 Uiso 0.81(2) 1 calc R U P C 1
H48B H 0.256180 1.301458 1.728274 0.118 Uiso 0.81(2) 1 calc R U P C 1
H48C H 0.197976 1.318060 1.698467 0.118 Uiso 0.81(2) 1 calc R U P C 1
C49 C 0.2376(7) 1.551(3) 1.7191(10) 0.069(6) Uani 0.81(2) 1 d . . P C 1
H49A H 0.241677 1.633029 1.702038 0.104 Uiso 0.81(2) 1 calc R U P C 1
H49B H 0.207419 1.549618 1.729288 0.104 Uiso 0.81(2) 1 calc R U P C 1
H49C H 0.265623 1.533017 1.759094 0.104 Uiso 0.81(2) 1 calc R U P C 1
C50 C 0.1853(9) 1.491(4) 1.6098(16) 0.095(10) Uani 0.81(2) 1 d . . P C 1
H50A H 0.189228 1.576125 1.595200 0.143 Uiso 0.81(2) 1 calc R U P C 1
H50B H 0.178606 1.433264 1.572733 0.143 Uiso 0.81(2) 1 calc R U P C 1
H50C H 0.158033 1.489792 1.626101 0.143 Uiso 0.81(2) 1 calc R U P C 1
C48' C 0.206(2) 1.341(6) 1.620(3) 0.079(7) Uani 0.19(2) 1 d D . P C 2
H48D H 0.185147 1.284426 1.585912 0.118 Uiso 0.19(2) 1 calc R U P C 2
H48E H 0.240324 1.323213 1.627742 0.118 Uiso 0.19(2) 1 calc R U P C 2
H48F H 0.199259 1.327109 1.660854 0.118 Uiso 0.19(2) 1 calc R U P C 2
C49' C 0.257(3) 1.391(10) 1.737(4) 0.069(6) Uani 0.19(2) 1 d . . P C 2
H49D H 0.231230 1.384393 1.756876 0.104 Uiso 0.19(2) 1 calc R U P C 2
H49E H 0.269640 1.307766 1.734119 0.104 Uiso 0.19(2) 1 calc R U P C 2
H49F H 0.283315 1.444456 1.765160 0.104 Uiso 0.19(2) 1 calc R U P C 2
C50' C 0.194(3) 1.477(18) 1.598(3) 0.095(10) Uani 0.19(2) 1 d D . P C 2
H50D H 0.168549 1.478954 1.554097 0.143 Uiso 0.19(2) 1 calc R U P C 2
H50E H 0.182662 1.521637 1.629040 0.143 Uiso 0.19(2) 1 calc R U P C 2
H50F H 0.223726 1.517741 1.595927 0.143 Uiso 0.19(2) 1 calc R U P C 2
C51 C 0.4103(4) 1.7935(11) 1.3505(6) 0.040(3) Uani 1 1 d . . . . .
C52 C 0.4117(7) 1.9173(15) 1.3550(8) 0.067(4) Uani 1 1 d . . . . .
H52A H 0.430929 1.952397 1.396137 0.080 Uiso 1 1 calc R U . . .
C53 C 0.3885(8) 1.9968(13) 1.3067(10) 0.056(5) Uani 1 1 d . . . . .
H53A H 0.389911 2.084408 1.314477 0.067 Uiso 1 1 calc R U . . .
C54 C 0.3614(5) 1.9473(12) 1.2427(7) 0.046(3) Uani 1 1 d . . . . .
C55 C 0.3563(5) 1.8186(15) 1.2391(7) 0.053(3) Uani 1 1 d . . . . .
H55A H 0.335577 1.782143 1.199186 0.063 Uiso 1 1 calc R U . . .
C56 C 0.3800(4) 1.7418(12) 1.2910(6) 0.046(3) Uani 1 1 d . . . . .
H56A H 0.375968 1.653704 1.286485 0.055 Uiso 1 1 calc R U . . .
C57 C 0.3377(8) 2.027(2) 1.1846(9) 0.067(4) Uani 1 1 d D U . . .
C58 C 0.2963(11) 2.102(4) 1.1925(17) 0.087(8) Uani 0.56(2) 1 d . . P D 1
H58A H 0.273263 2.045386 1.202297 0.130 Uiso 0.56(2) 1 calc R U P D 1
H58B H 0.309491 2.161493 1.228711 0.130 Uiso 0.56(2) 1 calc R U P D 1
H58C H 0.279219 2.147468 1.151793 0.130 Uiso 0.56(2) 1 calc R U P D 1
C59 C 0.3079(12) 1.960(3) 1.1211(13) 0.063(5) Uani 0.56(2) 1 d . . P D 1
H59A H 0.283133 1.906849 1.128968 0.095 Uiso 0.56(2) 1 calc R U P D 1
H59B H 0.291813 2.021819 1.087202 0.095 Uiso 0.56(2) 1 calc R U P D 1
H59C H 0.329743 1.907754 1.106337 0.095 Uiso 0.56(2) 1 calc R U P D 1
C60 C 0.3770(14) 2.110(3) 1.1686(19) 0.092(9) Uani 0.56(2) 1 d . . P D 1
H60A H 0.360531 2.162101 1.129935 0.138 Uiso 0.56(2) 1 calc R U P D 1
H60B H 0.393618 2.164256 1.206276 0.138 Uiso 0.56(2) 1 calc R U P D 1
H60C H 0.401050 2.056175 1.159718 0.138 Uiso 0.56(2) 1 calc R U P D 1
C58' C 0.2812(10) 1.986(4) 1.157(3) 0.087(8) Uani 0.44(2) 1 d D U P D 2
H58D H 0.266103 2.006915 1.189567 0.130 Uiso 0.44(2) 1 calc R U P D 2
H58E H 0.264164 2.029750 1.115947 0.130 Uiso 0.44(2) 1 calc R U P D 2
H58F H 0.278910 1.895215 1.149322 0.130 Uiso 0.44(2) 1 calc R U P D 2
C59' C 0.3708(15) 2.002(3) 1.1405(16) 0.063(5) Uani 0.44(2) 1 d . U P D 2
H59D H 0.358095 2.050815 1.099872 0.095 Uiso 0.44(2) 1 calc R U P D 2
H59E H 0.404644 2.026809 1.164940 0.095 Uiso 0.44(2) 1 calc R U P D 2
H59F H 0.369863 1.912669 1.129601 0.095 Uiso 0.44(2) 1 calc R U P D 2
C60' C 0.324(2) 2.153(4) 1.205(2) 0.092(9) Uani 0.44(2) 1 d . U P D 2
H60D H 0.303365 2.140605 1.231468 0.138 Uiso 0.44(2) 1 calc R U P D 2
H60E H 0.353547 2.198568 1.229990 0.138 Uiso 0.44(2) 1 calc R U P D 2
H60F H 0.305545 2.200798 1.165157 0.138 Uiso 0.44(2) 1 calc R U P D 2
C61 C 0.5273(7) 1.6696(15) 1.5946(10) 0.076(3) Uani 1 1 d . U . . .
C62 C 0.5818(7) 1.7088(16) 1.6122(11) 0.076(3) Uani 1 1 d . . . . .
C63 C 0.5101(8) 1.6825(17) 1.6455(11) 0.076(3) Uani 1 1 d . . . . .
F1 F 0.5054(7) 1.7830(10) 1.5507(8) 0.126(5) Uani 1 1 d . U . . .
F2 F 0.5976(4) 1.7100(15) 1.5628(7) 0.120(5) Uani 1 1 d . . . . .
F3 F 0.5923(5) 1.8126(15) 1.6435(9) 0.140(6) Uani 1 1 d . . . . .
F4 F 0.6078(4) 1.6197(14) 1.6562(6) 0.108(4) Uani 1 1 d . . . . .
F5 F 0.5253(11) 1.7935(17) 1.6799(10) 0.232(14) Uani 1 1 d . . . . .
F6 F 0.5284(6) 1.6028(16) 1.6943(6) 0.130(5) Uani 1 1 d . . . . .
F7 F 0.4632(6) 1.6767(12) 1.6308(7) 0.110(4) Uani 1 1 d . . . . .
O O 0.4784(3) 1.3534(8) 1.4652(5) 0.0509(19) Uani 1 1 d . . . . .
C64 C 0.4276(7) 1.319(2) 1.4403(11) 0.0509(19) Uani 0.67(2) 1 d . . P E 1
H64A H 0.423153 1.245648 1.411576 0.076 Uiso 0.67(2) 1 calc R U P E 1
H64B H 0.416903 1.298238 1.477097 0.076 Uiso 0.67(2) 1 calc R U P E 1
H64C H 0.408101 1.388620 1.415323 0.076 Uiso 0.67(2) 1 calc R U P E 1
C64' C 0.4937(14) 1.241(4) 1.505(2) 0.0509(19) Uani 0.33(2) 1 d . . P E 2
H64D H 0.483302 1.166743 1.477377 0.076 Uiso 0.33(2) 1 calc R U P E 2
H64E H 0.529401 1.240602 1.526417 0.076 Uiso 0.33(2) 1 calc R U P E 2
H64F H 0.478565 1.240013 1.539054 0.076 Uiso 0.33(2) 1 calc R U P E 2
loop_
_atom_site_aniso_label
_atom_site_aniso_U_11
_atom_site_aniso_U_22
_atom_site_aniso_U_33
_atom_site_aniso_U_23
_atom_site_aniso_U_13
_atom_site_aniso_U_12
Rh 0.0425(4) 0.0500(5) 0.0490(5) 0.0086(5) 0.0194(3) 0.0124(5)
N1 0.037(5) 0.036(4) 0.026(5) 0.006(3) 0.010(4) 0.016(3)
N2 0.034(5) 0.016(3) 0.064(7) 0.002(4) 0.023(4) 0.006(3)
N3 0.029(5) 0.032(4) 0.057(7) -0.002(4) 0.020(4) 0.011(3)
N4 0.038(5) 0.022(4) 0.037(5) 0.005(3) 0.016(4) 0.007(3)
C1 0.046(6) 0.052(7) 0.034(6) 0.012(5) 0.016(5) 0.025(5)
C2 0.031(6) 0.060(7) 0.048(7) 0.014(5) 0.026(5) 0.025(5)
C3 0.042(6) 0.069(8) 0.031(6) 0.024(5) 0.017(5) 0.024(5)
C4 0.048(7) 0.019(5) 0.072(9) 0.018(5) 0.018(6) 0.016(4)
C5 0.033(6) 0.046(6) 0.050(7) 0.010(6) 0.029(5) 0.012(6)
C6 0.046(7) 0.033(6) 0.072(9) 0.018(6) 0.012(6) 0.026(5)
C7 0.043(5) 0.076(6) 0.072(7) 0.045(5) 0.035(5) 0.041(4)
C8 0.043(5) 0.076(6) 0.072(7) 0.045(5) 0.035(5) 0.041(4)
C9 0.038(6) 0.030(5) 0.052(7) 0.002(4) 0.028(5) 0.006(4)
C10 0.039(6) 0.044(6) 0.028(6) 0.008(4) 0.013(5) 0.014(4)
C11 0.029(3) 0.032(3) 0.031(3) -0.002(2) 0.016(2) 0.001(2)
C12 0.049(7) 0.063(7) 0.031(6) 0.018(5) 0.015(5) 0.012(6)
C13 0.036(6) 0.063(7) 0.047(7) 0.022(6) 0.026(5) 0.018(5)
C14 0.034(5) 0.043(5) 0.028(5) 0.010(4) 0.021(4) 0.014(4)
C15 0.063(10) 0.044(7) 0.071(11) 0.031(7) 0.036(9) 0.039(8)
C16 0.027(5) 0.067(8) 0.046(7) 0.021(5) 0.027(5) 0.025(5)
C17 0.050(4) 0.055(4) 0.056(4) 0.006(3) 0.018(3) 0.007(3)
C18 0.048(7) 0.100(11) 0.053(8) 0.039(7) 0.033(6) 0.043(7)
C19 0.030(5) 0.024(4) 0.046(7) 0.014(4) 0.016(5) 0.016(4)
C20 0.043(7) 0.048(6) 0.052(8) -0.005(5) 0.029(6) 0.009(5)
C21 0.025(5) 0.068(7) 0.058(8) 0.039(7) 0.026(5) 0.025(5)
C22 0.065(11) 0.070(9) 0.097(15) 0.043(10) 0.049(10) 0.040(9)
C23 0.074(11) 0.070(9) 0.074(12) 0.021(9) 0.050(10) 0.037(9)
C24 0.043(8) 0.080(9) 0.063(9) 0.028(8) 0.038(7) 0.023(7)
C25 0.052(8) 0.096(12) 0.062(10) 0.029(8) 0.034(7) 0.026(8)
C26 0.027(6) 0.102(11) 0.047(8) 0.020(7) 0.018(5) 0.020(6)
C27 0.061(8) 0.134(14) 0.092(10) 0.023(9) 0.057(7) 0.042(9)
C28 0.072(15) 0.099(18) 0.105(14) 0.024(13) 0.034(11) 0.012(12)
C29 0.066(15) 0.14(2) 0.086(18) -0.022(17) 0.056(13) 0.013(15)
C30 0.061(8) 0.134(14) 0.092(10) 0.023(9) 0.057(7) 0.042(9)
C28' 0.072(15) 0.099(18) 0.105(14) 0.024(13) 0.034(11) 0.012(12)
C29' 0.066(15) 0.14(2) 0.086(18) -0.022(17) 0.056(13) 0.013(15)
C30' 0.061(8) 0.134(14) 0.092(10) 0.023(9) 0.057(7) 0.042(9)
C31 0.027(5) 0.059(6) 0.039(7) 0.006(5) 0.022(5) 0.012(4)
C32 0.050(7) 0.057(7) 0.039(7) -0.004(6) -0.002(6) 0.014(6)
C33 0.083(14) 0.062(10) 0.045(10) -0.018(7) 0.004(9) 0.024(8)
C34 0.038(6) 0.049(6) 0.027(6) 0.006(4) 0.006(5) 0.007(5)
C35 0.068(10) 0.054(7) 0.034(7) -0.013(5) -0.003(7) 0.003(6)
C36 0.059(9) 0.051(7) 0.045(8) 0.000(6) 0.004(7) 0.003(6)
C37 0.056(10) 0.100(10) 0.046(11) 0.038(8) 0.003(8) 0.010(8)
C38 0.096(18) 0.084(11) 0.079(16) 0.056(9) 0.030(14) 0.009(13)
C39 0.13(3) 0.071(15) 0.058(16) 0.034(12) -0.034(16) 0.012(16)
C40 0.11(3) 0.17(2) 0.051(16) 0.002(15) 0.030(16) -0.05(2)
C38' 0.096(18) 0.084(11) 0.079(16) 0.056(9) 0.030(14) 0.009(13)
C39' 0.13(3) 0.071(15) 0.058(16) 0.034(12) -0.034(16) 0.012(16)
C40' 0.11(3) 0.17(2) 0.051(16) 0.002(15) 0.030(16) -0.05(2)
C41 0.057(8) 0.050(7) 0.052(8) 0.029(6) 0.020(6) 0.021(7)
C42 0.051(8) 0.069(9) 0.083(12) -0.014(9) 0.050(9) -0.002(8)
C43 0.058(9) 0.051(7) 0.068(10) -0.005(7) 0.039(8) -0.007(7)
C44 0.050(8) 0.066(9) 0.058(9) 0.020(7) 0.022(7) 0.019(7)
C45 0.032(6) 0.086(10) 0.050(8) 0.003(7) 0.012(6) 0.003(6)
C46 0.053(8) 0.088(10) 0.037(7) 0.002(6) 0.020(6) 0.003(7)
C47 0.042(7) 0.080(10) 0.061(9) 0.005(7) 0.025(6) 0.007(7)
C48 0.053(11) 0.106(15) 0.105(17) 0.031(13) 0.061(12) 0.012(10)
C49 0.050(10) 0.123(17) 0.048(10) 0.002(10) 0.034(8) 0.005(10)
C50 0.031(10) 0.19(3) 0.074(15) 0.012(15) 0.029(9) 0.042(12)
C48' 0.053(11) 0.106(15) 0.105(17) 0.031(13) 0.061(12) 0.012(10)
C49' 0.050(10) 0.123(17) 0.048(10) 0.002(10) 0.034(8) 0.005(10)
C50' 0.031(10) 0.19(3) 0.074(15) 0.012(15) 0.029(9) 0.042(12)
C51 0.040(6) 0.050(6) 0.035(6) 0.006(5) 0.018(5) 0.007(5)
C52 0.095(12) 0.060(9) 0.041(8) -0.001(6) 0.018(8) 0.029(8)
C53 0.062(10) 0.052(9) 0.042(9) 0.007(5) 0.004(7) 0.026(6)
C54 0.040(6) 0.054(7) 0.046(8) 0.009(5) 0.017(6) 0.014(5)
C55 0.037(7) 0.078(9) 0.038(8) 0.013(6) 0.007(6) 0.007(6)
C56 0.041(7) 0.055(7) 0.038(7) 0.007(5) 0.009(5) 0.013(5)
C57 0.067(10) 0.094(10) 0.033(9) -0.001(8) 0.008(7) 0.001(9)
C58 0.044(8) 0.11(2) 0.086(18) 0.010(14) -0.005(9) 0.043(10)
C59 0.075(11) 0.077(13) 0.031(9) 0.017(9) 0.010(8) 0.015(11)
C60 0.10(2) 0.053(11) 0.09(2) 0.010(10) -0.006(15) -0.009(11)
C58' 0.044(8) 0.11(2) 0.086(18) 0.010(14) -0.005(9) 0.043(10)
C59' 0.075(11) 0.077(13) 0.031(9) 0.017(9) 0.010(8) 0.015(11)
C60' 0.10(2) 0.053(11) 0.09(2) 0.010(10) -0.006(15) -0.009(11)
C61 0.095(7) 0.052(5) 0.101(8) -0.019(4) 0.060(6) 0.001(4)
C62 0.095(7) 0.052(5) 0.101(8) -0.019(4) 0.060(6) 0.001(4)
C63 0.095(7) 0.052(5) 0.101(8) -0.019(4) 0.060(6) 0.001(4)
F1 0.194(14) 0.056(5) 0.149(12) 0.003(6) 0.087(11) 0.014(8)
F2 0.085(7) 0.169(12) 0.133(10) -0.062(9) 0.070(7) -0.029(7)
F3 0.111(10) 0.158(13) 0.178(14) -0.096(11) 0.086(10) -0.056(9)
F4 0.071(6) 0.143(11) 0.084(8) -0.015(7) -0.006(5) 0.024(7)
F5 0.44(3) 0.161(15) 0.195(17) -0.137(14) 0.24(2) -0.19(2)
F6 0.171(13) 0.174(14) 0.057(6) 0.001(8) 0.055(8) -0.023(11)
F7 0.153(12) 0.096(8) 0.113(9) -0.035(7) 0.086(9) -0.023(8)
O 0.042(4) 0.055(4) 0.055(5) -0.012(4) 0.017(3) 0.009(3)
C64 0.042(4) 0.055(4) 0.055(5) -0.012(4) 0.017(3) 0.009(3)
C64' 0.042(4) 0.055(4) 0.055(5) -0.012(4) 0.017(3) 0.009(3)
loop_
_atom_type_symbol
_atom_type_description
_atom_type_scat_dispersion_real
_atom_type_scat_dispersion_imag
_atom_type_scat_source
C C 0.0033 0.0016 'International Tables Vol C Tables 4.2.6.8 and 6.1.1.4'
H H 0.0000 0.0000 'International Tables Vol C Tables 4.2.6.8 and 6.1.1.4'
F F 0.0171 0.0103 'International Tables Vol C Tables 4.2.6.8 and 6.1.1.4'
N N 0.0061 0.0033 'International Tables Vol C Tables 4.2.6.8 and 6.1.1.4'
O O 0.0106 0.0060 'International Tables Vol C Tables 4.2.6.8 and 6.1.1.4'
Rh Rh -1.1178 0.9187 'International Tables Vol C Tables 4.2.6.8 and 6.1.1.4'
loop_
_geom_angle_atom_site_label_1
_geom_angle_atom_site_label_2
_geom_angle_atom_site_label_3
_geom_angle
_geom_angle_site_symmetry_1
_geom_angle_site_symmetry_3
_geom_angle_publ_flag
N4 Rh N3 90.2(4) . . ?
N4 Rh N1 90.5(4) . . ?
N3 Rh N1 178.6(4) . . ?
N4 Rh N2 179.0(5) . . ?
N3 Rh N2 90.6(4) . . ?
N1 Rh N2 88.7(4) . . ?
N4 Rh C61 89.1(6) . . ?
N3 Rh C61 91.4(6) . . ?
N1 Rh C61 89.9(6) . . ?
N2 Rh C61 91.4(6) . . ?
N4 Rh O 90.9(3) . . ?
N3 Rh O 89.5(4) . . ?
N1 Rh O 89.2(4) . . ?
N2 Rh O 88.5(3) . . ?
C61 Rh O 179.1(7) . . ?
C4 N1 C1 106.1(10) . . ?
C4 N1 Rh 127.7(7) . . ?
C1 N1 Rh 126.2(8) . . ?
C9 N2 C6 110.6(9) . . ?
C9 N2 Rh 124.7(8) . . ?
C6 N2 Rh 124.3(8) . . ?
C11 N3 C14 106.0(9) . . ?
C11 N3 Rh 128.5(7) . . ?
C14 N3 Rh 125.6(7) . . ?
C16 N4 C19 105.9(8) . . ?
C16 N4 Rh 128.7(7) . . ?
C19 N4 Rh 125.3(7) . . ?
N1 C1 C20 124.8(12) . . ?
N1 C1 C2 108.8(10) . . ?
C20 C1 C2 126.1(12) . . ?
C3 C2 C1 108.9(11) . . ?
C3 C2 H2A 125.6 . . ?
C1 C2 H2A 125.6 . . ?
C2 C3 C4 107.2(12) . . ?
C2 C3 H3A 126.4 . . ?
C4 C3 H3A 126.4 . . ?
N1 C4 C5 127.5(11) . . ?
N1 C4 C3 109.0(10) . . ?
C5 C4 C3 123.5(12) . . ?
C4 C5 C6 119.8(11) . . ?
C4 C5 C21 119.6(11) . . ?
C6 C5 C21 120.6(11) . . ?
N2 C6 C5 131.7(10) . . ?
N2 C6 C7 106.0(11) . . ?
C5 C6 C7 122.2(13) . . ?
C8 C7 C6 108.9(12) . . ?
C8 C7 H7A 125.5 . . ?
C6 C7 H7A 125.5 . . ?
C7 C8 C9 105.8(10) . . ?
C7 C8 H8A 127.1 . . ?
C9 C8 H8A 127.1 . . ?
N2 C9 C10 127.0(10) . . ?
N2 C9 C8 108.5(10) . . ?
C10 C9 C8 124.5(11) . . ?
C9 C10 C11 125.3(10) . . ?
C9 C10 C31 118.3(10) . . ?
C11 C10 C31 116.3(10) . . ?
N3 C11 C12 111.1(10) . . ?
N3 C11 C10 123.8(10) . . ?
C12 C11 C10 125.1(10) . . ?
C13 C12 C11 107.6(10) . . ?
C13 C12 H12A 126.2 . . ?
C11 C12 H12A 126.2 . . ?
C12 C13 C14 104.9(10) . . ?
C12 C13 H13A 127.6 . . ?
C14 C13 H13A 127.6 . . ?
N3 C14 C15 127.6(11) . . ?
N3 C14 C13 110.4(9) . . ?
C15 C14 C13 121.9(11) . . ?
C14 C15 C16 123.8(14) . . ?
C14 C15 C41 119.2(12) . . ?
C16 C15 C41 116.9(11) . . ?
N4 C16 C17 112.3(10) . . ?
N4 C16 C15 124.0(10) . . ?
C17 C16 C15 123.7(11) . . ?
C18 C17 C16 105.6(12) . . ?
C18 C17 H17A 127.2 . . ?
C16 C17 H17A 127.2 . . ?
C17 C18 C19 109.0(11) . . ?
C17 C18 H18A 125.5 . . ?
C19 C18 H18A 125.5 . . ?
C20 C19 N4 126.8(10) . . ?
C20 C19 C18 125.9(11) . . ?
N4 C19 C18 107.1(9) . . ?
C19 C20 C1 126.1(12) . . ?
C19 C20 C51 118.9(10) . . ?
C1 C20 C51 115.0(11) . . ?
C26 C21 C22 119.3(14) . . ?
C26 C21 C5 121.7(14) . . ?
C22 C21 C5 119.0(16) . . ?
C21 C22 C23 119(2) . . ?
C21 C22 H22A 120.6 . . ?
C23 C22 H22A 120.5 . . ?
C24 C23 C22 120(2) . . ?
C24 C23 H23A 120.1 . . ?
C22 C23 H23A 120.1 . . ?
C25 C24 C23 119.8(14) . . ?
C25 C24 C27 119.9(18) . . ?
C23 C24 C27 120.3(17) . . ?
C24 C25 C26 121.0(18) . . ?
C24 C25 H25A 119.5 . . ?
C26 C25 H25A 119.5 . . ?
C21 C26 C25 121.1(16) . . ?
C21 C26 H26A 119.5 . . ?
C25 C26 H26A 119.5 . . ?
C29' C27 C28' 114(2) . . ?
C29' C27 C30' 109(2) . . ?
C28' C27 C30' 106(2) . . ?
C29' C27 C24 110(2) . . ?
C29 C27 C24 114(4) . . ?
C28' C27 C24 110.4(17) . . ?
C30' C27 C24 106.4(17) . . ?
C29 C27 C30 104(5) . . ?
C24 C27 C30 112(3) . . ?
C29 C27 C28 111(6) . . ?
C24 C27 C28 112(4) . . ?
C30 C27 C28 102(6) . . ?
C27 C28 H28A 109.5 . . ?
C27 C28 H28B 109.5 . . ?
H28A C28 H28B 109.5 . . ?
C27 C28 H28C 109.5 . . ?
H28A C28 H28C 109.5 . . ?
H28B C28 H28C 109.5 . . ?
C27 C29 H29A 109.5 . . ?
C27 C29 H29B 109.5 . . ?
H29A C29 H29B 109.5 . . ?
C27 C29 H29C 109.4 . . ?
H29A C29 H29C 109.5 . . ?
H29B C29 H29C 109.5 . . ?
C27 C30 H30A 109.5 . . ?
C27 C30 H30B 109.5 . . ?
H30A C30 H30B 109.5 . . ?
C27 C30 H30C 109.5 . . ?
H30A C30 H30C 109.5 . . ?
H30B C30 H30C 109.5 . . ?
C27 C28' H28D 109.5 . . ?
C27 C28' H28E 109.5 . . ?
H28D C28' H28E 109.5 . . ?
C27 C28' H28F 109.5 . . ?
H28D C28' H28F 109.5 . . ?
H28E C28' H28F 109.5 . . ?
C27 C29' H29D 109.5 . . ?
C27 C29' H29E 109.5 . . ?
H29D C29' H29E 109.5 . . ?
C27 C29' H29F 109.5 . . ?
H29D C29' H29F 109.5 . . ?
H29E C29' H29F 109.5 . . ?
C27 C30' H30D 109.5 . . ?
C27 C30' H30E 109.5 . . ?
H30D C30' H30E 109.5 . . ?
C27 C30' H30F 109.5 . . ?
H30D C30' H30F 109.5 . . ?
H30E C30' H30F 109.5 . . ?
C36 C31 C32 116.7(12) . . ?
C36 C31 C10 119.5(11) . . ?
C32 C31 C10 123.6(12) . . ?
C31 C32 C33 121.7(14) . . ?
C31 C32 H32A 119.2 . . ?
C33 C32 H32A 119.2 . . ?
C34 C33 C32 119.8(16) . . ?
C34 C33 H33A 120.1 . . ?
C32 C33 H33A 120.1 . . ?
C33 C34 C35 117.9(13) . . ?
C33 C34 C37 121.4(15) . . ?
C35 C34 C37 120.7(14) . . ?
C34 C35 C36 121.0(12) . . ?
C34 C35 H35A 119.5 . . ?
C36 C35 H35A 119.5 . . ?
C31 C36 C35 122.6(13) . . ?
C31 C36 H36A 118.7 . . ?
C35 C36 H36A 118.7 . . ?
C40' C37 C39' 119(3) . . ?
C40' C37 C34 119(3) . . ?
C39' C37 C34 110.0(19) . . ?
C34 C37 C39 110(2) . . ?
C34 C37 C38 107(2) . . ?
C39 C37 C38 124(3) . . ?
C34 C37 C40 105(2) . . ?
C39 C37 C40 88(4) . . ?
C38 C37 C40 121(3) . . ?
C40' C37 C38' 101(3) . . ?
C39' C37 C38' 99(3) . . ?
C34 C37 C38' 105.3(16) . . ?
C37 C38 H38A 109.5 . . ?
C37 C38 H38B 109.5 . . ?
H38A C38 H38B 109.5 . . ?
C37 C38 H38C 109.5 . . ?
H38A C38 H38C 109.5 . . ?
H38B C38 H38C 109.5 . . ?
C37 C39 H39A 109.5 . . ?
C37 C39 H39B 109.4 . . ?
H39A C39 H39B 109.5 . . ?
C37 C39 H39C 109.5 . . ?
H39A C39 H39C 109.5 . . ?
H39B C39 H39C 109.5 . . ?
C37 C40 H40A 109.5 . . ?
C37 C40 H40B 109.5 . . ?
H40A C40 H40B 109.5 . . ?
C37 C40 H40C 109.5 . . ?
H40A C40 H40C 109.5 . . ?
H40B C40 H40C 109.5 . . ?
C37 C38' H38D 109.5 . . ?
C37 C38' H38E 109.5 . . ?
H38D C38' H38E 109.5 . . ?
C37 C38' H38F 109.5 . . ?
H38D C38' H38F 109.5 . . ?
H38E C38' H38F 109.5 . . ?
C37 C39' H39D 109.5 . . ?
C37 C39' H39E 109.5 . . ?
H39D C39' H39E 109.5 . . ?
C37 C39' H39F 109.5 . . ?
H39D C39' H39F 109.5 . . ?
H39E C39' H39F 109.5 . . ?
C37 C40' H40D 109.5 . . ?
C37 C40' H40E 109.5 . . ?
H40D C40' H40E 109.5 . . ?
C37 C40' H40F 109.4 . . ?
H40D C40' H40F 109.5 . . ?
H40E C40' H40F 109.5 . . ?
C42 C41 C46 117.5(15) . . ?
C42 C41 C15 118.3(17) . . ?
C46 C41 C15 124.1(17) . . ?
C43 C42 C41 119.5(18) . . ?
C43 C42 H42A 120.3 . . ?
C41 C42 H42A 120.3 . . ?
C42 C43 C44 123.8(17) . . ?
C42 C43 H43A 118.1 . . ?
C44 C43 H43A 118.1 . . ?
C45 C44 C43 115.9(15) . . ?
C45 C44 C47 122.2(16) . . ?
C43 C44 C47 121.8(15) . . ?
C44 C45 C46 123.3(15) . . ?
C44 C45 H45A 118.3 . . ?
C46 C45 H45A 118.3 . . ?
C41 C46 C45 119.8(15) . . ?
C41 C46 H46A 120.1 . . ?
C45 C46 H46A 120.1 . . ?
C48 C47 C49 113.2(18) . . ?
C48 C47 C44 110.6(13) . . ?
C49 C47 C44 112.8(15) . . ?
C48 C47 C50 109(2) . . ?
C49 C47 C50 100.8(17) . . ?
C44 C47 C50 109.9(16) . . ?
C44 C47 C50' 95(4) . . ?
C44 C47 C48' 97(2) . . ?
C50' C47 C48' 58(8) . . ?
C44 C47 C49' 104(3) . . ?
C50' C47 C49' 157(7) . . ?
C48' C47 C49' 106(5) . . ?
C47 C48 H48A 109.5 . . ?
C47 C48 H48B 109.5 . . ?
H48A C48 H48B 109.5 . . ?
C47 C48 H48C 109.5 . . ?
H48A C48 H48C 109.5 . . ?
H48B C48 H48C 109.5 . . ?
C47 C49 H49A 109.5 . . ?
C47 C49 H49B 109.5 . . ?
H49A C49 H49B 109.5 . . ?
C47 C49 H49C 109.5 . . ?
H49A C49 H49C 109.5 . . ?
H49B C49 H49C 109.5 . . ?
C47 C50 H50A 109.5 . . ?
C47 C50 H50B 109.5 . . ?
H50A C50 H50B 109.5 . . ?
C47 C50 H50C 109.5 . . ?
H50A C50 H50C 109.5 . . ?
H50B C50 H50C 109.5 . . ?
C50' C48' C47 61(4) . . ?
C50' C48' H48D 109.5 . . ?
C47 C48' H48D 170.2 . . ?
C50' C48' H48E 109.5 . . ?
C47 C48' H48E 75.6 . . ?
H48D C48' H48E 109.5 . . ?
C50' C48' H48F 109.5 . . ?
C47 C48' H48F 75.6 . . ?
H48D C48' H48F 109.5 . . ?
H48E C48' H48F 109.5 . . ?
C47 C49' H49D 109.5 . . ?
C47 C49' H49E 109.5 . . ?
H49D C49' H49E 109.5 . . ?
C47 C49' H49F 109.5 . . ?
H49D C49' H49F 109.5 . . ?
H49E C49' H49F 109.5 . . ?
C48' C50' C47 61(4) . . ?
C48' C50' H50D 109.5 . . ?
C47 C50' H50D 170.6 . . ?
C48' C50' H50E 109.5 . . ?
C47 C50' H50E 75.4 . . ?
H50D C50' H50E 109.5 . . ?
C48' C50' H50F 109.5 . . ?
C47 C50' H50F 75.4 . . ?
H50D C50' H50F 109.5 . . ?
H50E C50' H50F 109.5 . . ?
C52 C51 C56 117.1(12) . . ?
C52 C51 C20 122.9(13) . . ?
C56 C51 C20 120.0(11) . . ?
C51 C52 C53 125.7(17) . . ?
C51 C52 H52A 117.2 . . ?
C53 C52 H52A 117.2 . . ?
C52 C53 C54 118.7(14) . . ?
C52 C53 H53A 120.6 . . ?
C54 C53 H53A 120.6 . . ?
C55 C54 C53 115.6(12) . . ?
C55 C54 C57 121.0(14) . . ?
C53 C54 C57 123.3(14) . . ?
C56 C55 C54 122.5(14) . . ?
C56 C55 H55A 118.8 . . ?
C54 C55 H55A 118.8 . . ?
C55 C56 C51 119.8(13) . . ?
C55 C56 H56A 120.1 . . ?
C51 C56 H56A 120.1 . . ?
C60 C57 C54 110.8(19) . . ?
C59' C57 C54 102.6(18) . . ?
C60 C57 C59 107(2) . . ?
C54 C57 C59 116.8(19) . . ?
C60 C57 C58 113(3) . . ?
C54 C57 C58 111(2) . . ?
C59 C57 C58 97(2) . . ?
C59' C57 C58' 119(3) . . ?
C54 C57 C58' 106(2) . . ?
C59' C57 C60' 127(3) . . ?
C54 C57 C60' 111(2) . . ?
C58' C57 C60' 90(3) . . ?
C57 C58 H58A 109.5 . . ?
C57 C58 H58B 109.5 . . ?
H58A C58 H58B 109.5 . . ?
C57 C58 H58C 109.5 . . ?
H58A C58 H58C 109.5 . . ?
H58B C58 H58C 109.5 . . ?
C57 C59 H59A 109.5 . . ?
C57 C59 H59B 109.5 . . ?
H59A C59 H59B 109.5 . . ?
C57 C59 H59C 109.5 . . ?
H59A C59 H59C 109.5 . . ?
H59B C59 H59C 109.5 . . ?
C57 C60 H60A 109.5 . . ?
C57 C60 H60B 109.5 . . ?
H60A C60 H60B 109.5 . . ?
C57 C60 H60C 109.5 . . ?
H60A C60 H60C 109.5 . . ?
H60B C60 H60C 109.5 . . ?
C57 C58' H58D 109.5 . . ?
C57 C58' H58E 109.5 . . ?
H58D C58' H58E 109.5 . . ?
C57 C58' H58F 109.5 . . ?
H58D C58' H58F 109.5 . . ?
H58E C58' H58F 109.5 . . ?
C57 C59' H59D 109.5 . . ?
C57 C59' H59E 109.5 . . ?
H59D C59' H59E 109.5 . . ?
C57 C59' H59F 109.5 . . ?
H59D C59' H59F 109.5 . . ?
H59E C59' H59F 109.5 . . ?
C57 C60' H60D 109.5 . . ?
C57 C60' H60E 109.5 . . ?
H60D C60' H60E 109.5 . . ?
C57 C60' H60F 109.5 . . ?
H60D C60' H60F 109.5 . . ?
H60E C60' H60F 109.5 . . ?
C63 C61 C62 113.9(18) . . ?
C63 C61 F1 103.5(14) . . ?
C62 C61 F1 96.0(15) . . ?
C63 C61 Rh 117.9(13) . . ?
C62 C61 Rh 116.8(10) . . ?
F1 C61 Rh 104.4(12) . . ?
F3 C62 F4 105.1(19) . . ?
F3 C62 F2 109.8(17) . . ?
F4 C62 F2 108.1(15) . . ?
F3 C62 C61 113.4(14) . . ?
F4 C62 C61 104.5(15) . . ?
F2 C62 C61 115.2(18) . . ?
F7 C63 F6 105.3(17) . . ?
F7 C63 F5 106.6(17) . . ?
F6 C63 F5 99(2) . . ?
F7 C63 C61 117(2) . . ?
F6 C63 C61 115.1(17) . . ?
F5 C63 C61 112.3(16) . . ?
C64' O Rh 106.8(16) . . ?
C64 O Rh 120.4(9) . . ?
O C64 H64A 109.5 . . ?
O C64 H64B 109.5 . . ?
H64A C64 H64B 109.5 . . ?
O C64 H64C 109.5 . . ?
H64A C64 H64C 109.5 . . ?
H64B C64 H64C 109.5 . . ?
O C64' H64D 109.5 . . ?
O C64' H64E 109.5 . . ?
H64D C64' H64E 109.5 . . ?
O C64' H64F 109.5 . . ?
H64D C64' H64F 109.5 . . ?
H64E C64' H64F 109.5 . . ?
loop_
_geom_bond_atom_site_label_1
_geom_bond_atom_site_label_2
_geom_bond_distance
_geom_bond_site_symmetry_2
_geom_bond_publ_flag
Rh N4 2.012(9) . ?
Rh N3 2.023(11) . ?
Rh N1 2.039(9) . ?
Rh N2 2.064(9) . ?
Rh C61 2.149(17) . ?
Rh O 2.159(9) . ?
N1 C4 1.354(16) . ?
N1 C1 1.381(14) . ?
N2 C9 1.333(15) . ?
N2 C6 1.304(18) . ?
N3 C11 1.331(14) . ?
N3 C14 1.383(13) . ?
N4 C16 1.381(13) . ?
N4 C19 1.401(13) . ?
C1 C20 1.394(17) . ?
C1 C2 1.402(18) . ?
C2 C3 1.307(15) . ?
C2 H2A 0.9500 . ?
C3 C4 1.436(17) . ?
C3 H3A 0.9500 . ?
C4 C5 1.381(17) . ?
C5 C6 1.42(2) . ?
C5 C21 1.505(16) . ?
C6 C7 1.446(15) . ?
C7 C8 1.312(19) . ?
C7 H7A 0.9500 . ?
C8 C9 1.416(15) . ?
C8 H8A 0.9500 . ?
C9 C10 1.419(16) . ?
C10 C11 1.429(15) . ?
C10 C31 1.494(16) . ?
C11 C12 1.434(16) . ?
C12 C13 1.360(17) . ?
C12 H12A 0.9500 . ?
C13 C14 1.449(15) . ?
C13 H13A 0.9500 . ?
C14 C15 1.401(18) . ?
C15 C16 1.417(19) . ?
C15 C41 1.47(2) . ?
C16 C17 1.423(17) . ?
C17 C18 1.36(2) . ?
C17 H17A 0.9500 . ?
C18 C19 1.475(16) . ?
C18 H18A 0.9500 . ?
C19 C20 1.349(17) . ?
C20 C51 1.510(18) . ?
C21 C26 1.38(2) . ?
C21 C22 1.38(3) . ?
C22 C23 1.47(3) . ?
C22 H22A 0.9500 . ?
C23 C24 1.37(3) . ?
C23 H23A 0.9500 . ?
C24 C25 1.37(2) . ?
C24 C27 1.57(2) . ?
C25 C26 1.403(19) . ?
C25 H25A 0.9500 . ?
C26 H26A 0.9500 . ?
C27 C29' 1.53(3) . ?
C27 C29 1.54(4) . ?
C27 C28' 1.53(4) . ?
C27 C30' 1.49(4) . ?
C27 C30 1.50(4) . ?
C27 C28 1.59(3) . ?
C28 H28A 0.9800 . ?
C28 H28B 0.9800 . ?
C28 H28C 0.9800 . ?
C29 H29A 0.9800 . ?
C29 H29B 0.9800 . ?
C29 H29C 0.9800 . ?
C30 H30A 0.9800 . ?
C30 H30B 0.9800 . ?
C30 H30C 0.9800 . ?
C28' H28D 0.9800 . ?
C28' H28E 0.9800 . ?
C28' H28F 0.9800 . ?
C29' H29D 0.9800 . ?
C29' H29E 0.9800 . ?
C29' H29F 0.9800 . ?
C30' H30D 0.9800 . ?
C30' H30E 0.9800 . ?
C30' H30F 0.9800 . ?
C31 C36 1.352(19) . ?
C31 C32 1.366(18) . ?
C32 C33 1.45(3) . ?
C32 H32A 0.9500 . ?
C33 C34 1.34(2) . ?
C33 H33A 0.9500 . ?
C34 C35 1.387(19) . ?
C34 C37 1.547(19) . ?
C35 C36 1.40(2) . ?
C35 H35A 0.9500 . ?
C36 H36A 0.9500 . ?
C37 C40' 1.39(5) . ?
C37 C39' 1.51(5) . ?
C37 C39 1.45(6) . ?
C37 C38 1.57(6) . ?
C37 C40 1.60(3) . ?
C37 C38' 1.61(2) . ?
C38 H38A 0.9800 . ?
C38 H38B 0.9800 . ?
C38 H38C 0.9800 . ?
C39 H39A 0.9800 . ?
C39 H39B 0.9800 . ?
C39 H39C 0.9800 . ?
C40 H40A 0.9800 . ?
C40 H40B 0.9800 . ?
C40 H40C 0.9800 . ?
C38' H38D 0.9800 . ?
C38' H38E 0.9800 . ?
C38' H38F 0.9800 . ?
C39' H39D 0.9800 . ?
C39' H39E 0.9800 . ?
C39' H39F 0.9800 . ?
C40' H40D 0.9800 . ?
C40' H40E 0.9800 . ?
C40' H40F 0.9800 . ?
C41 C42 1.39(2) . ?
C41 C46 1.39(2) . ?
C42 C43 1.38(2) . ?
C42 H42A 0.9500 . ?
C43 C44 1.37(3) . ?
C43 H43A 0.9500 . ?
C44 C45 1.34(2) . ?
C44 C47 1.58(2) . ?
C45 C46 1.39(2) . ?
C45 H45A 0.9500 . ?
C46 H46A 0.9500 . ?
C47 C48 1.48(3) . ?
C47 C49 1.54(3) . ?
C47 C50 1.60(3) . ?
C47 C50' 1.58(3) . ?
C47 C48' 1.59(3) . ?
C47 C49' 1.57(8) . ?
C48 H48A 0.9800 . ?
C48 H48B 0.9800 . ?
C48 H48C 0.9800 . ?
C49 H49A 0.9800 . ?
C49 H49B 0.9800 . ?
C49 H49C 0.9800 . ?
C50 H50A 0.9800 . ?
C50 H50B 0.9800 . ?
C50 H50C 0.9800 . ?
C48' C50' 1.54(18) . ?
C48' H48D 0.9800 . ?
C48' H48E 0.9800 . ?
C48' H48F 0.9800 . ?
C49' H49D 0.9800 . ?
C49' H49E 0.9800 . ?
C49' H49F 0.9800 . ?
C50' H50D 0.9800 . ?
C50' H50E 0.9800 . ?
C50' H50F 0.9800 . ?
C51 C52 1.33(2) . ?
C51 C56 1.399(18) . ?
C52 C53 1.34(2) . ?
C52 H52A 0.9500 . ?
C53 C54 1.44(2) . ?
C53 H53A 0.9500 . ?
C54 C55 1.38(2) . ?
C54 C57 1.48(2) . ?
C55 C56 1.370(17) . ?
C55 H55A 0.9500 . ?
C56 H56A 0.9500 . ?
C57 C60 1.58(4) . ?
C57 C59' 1.60(4) . ?
C57 C59 1.53(4) . ?
C57 C58 1.51(4) . ?
C57 C58' 1.60(3) . ?
C57 C60' 1.52(5) . ?
C58 H58A 0.9800 . ?
C58 H58B 0.9800 . ?
C58 H58C 0.9800 . ?
C59 H59A 0.9800 . ?
C59 H59B 0.9800 . ?
C59 H59C 0.9800 . ?
C60 H60A 0.9800 . ?
C60 H60B 0.9800 . ?
C60 H60C 0.9800 . ?
C58' H58D 0.9800 . ?
C58' H58E 0.9800 . ?
C58' H58F 0.9800 . ?
C59' H59D 0.9800 . ?
C59' H59E 0.9800 . ?
C59' H59F 0.9800 . ?
C60' H60D 0.9800 . ?
C60' H60E 0.9800 . ?
C60' H60F 0.9800 . ?
C61 C63 1.37(3) . ?
C61 C62 1.56(3) . ?
C61 F1 1.54(2) . ?
C62 F3 1.28(2) . ?
C62 F4 1.37(2) . ?
C62 F2 1.31(2) . ?
C63 F7 1.29(2) . ?
C63 F6 1.32(2) . ?
C63 F5 1.39(2) . ?
O C64' 1.46(4) . ?
O C64 1.44(2) . ?
C64 H64A 0.9800 . ?
C64 H64B 0.9800 . ?
C64 H64C 0.9800 . ?
C64' H64D 0.9800 . ?
C64' H64E 0.9800 . ?
C64' H64F 0.9800 . ?
