#------------------------------------------------------------------------------
#$Date: 2022-03-22 01:58:09 +0200 (Tue, 22 Mar 2022) $
#$Revision: 273882 $
#$URL: file:///home/coder/svn-repositories/cod/cif/7/70/97/7709788.cif $
#------------------------------------------------------------------------------
#
# This file is available in the Crystallography Open Database (COD),
# http://www.crystallography.net/
#
# All data on this site have been placed in the public domain by the
# contributors.
#
data_7709788
loop_
_publ_author_name
'Holzer, Noah'
'Sharma, Jatan K.'
'Peterson, Steven'
'Bayard, Brandon J.'
'Nesterov, Vladimir'
'Karr, Paul A.'
'D'Souza, Francis'
'Poddutoori, Prashanth K.'
_publ_section_title
;
 Antimony(+5) Ion Induced Tunable Intramolecular Charge Transfer in
 Hypervalent Antimony(V) Porphyrins
;
_journal_name_full               'Dalton Transactions'
_journal_paper_doi               10.1039/D2DT00675H
_journal_year                    2022
_chemical_formula_moiety         'C54 H50 N4 O10 Sb, F6 P, 1[C5H12], 1[C5H12]'
_chemical_formula_sum            'C69 H86 F6 N4 O10 P Sb'
_chemical_formula_weight         1398.13
_space_group_crystal_system      monoclinic
_space_group_IT_number           15
_space_group_name_Hall           '-C 2yc'
_space_group_name_H-M_alt        'C 1 2/c 1'
_atom_sites_solution_hydrogens   geom
_atom_sites_solution_primary     dual
_audit_creation_date             2021-11-19
_audit_creation_method
;
Olex2 1.3-ac4
(compiled 2020.03.28 svn.rd84adfe8 for Rigaku Oxford Diffraction, GUI svn.r6032)
;
_audit_update_record
;
2021-12-26 deposited with the CCDC.	2022-03-21 downloaded from the CCDC.
;
_cell_angle_alpha                90
_cell_angle_beta                 90.6426(8)
_cell_angle_gamma                90
_cell_formula_units_Z            12
_cell_length_a                   15.21938(12)
_cell_length_b                   25.80070(18)
_cell_length_c                   45.1560(4)
_cell_measurement_reflns_used    37097
_cell_measurement_temperature    150.00(10)
_cell_measurement_theta_max      80.1160
_cell_measurement_theta_min      3.3750
_cell_volume                     17730.3(2)
_computing_cell_refinement       'CrysAlisPro 1.171.41.120a (Rigaku OD, 2021)'
_computing_data_collection       'CrysAlisPro 1.171.41.120a (Rigaku OD, 2021)'
_computing_data_reduction        'CrysAlisPro 1.171.41.120a (Rigaku OD, 2021)'
_computing_molecular_graphics    'Olex2 1.3-ac4 (Dolomanov et al., 2009)'
_computing_publication_material  'Olex2 1.3-ac4 (Dolomanov et al., 2009)'
_computing_structure_refinement  'SHELXL 2018/3 (Sheldrick, 2015)'
_computing_structure_solution    'SHELXT 2018/2 (Sheldrick, 2018)'
_diffrn_ambient_environment      N~2~
_diffrn_ambient_temperature      150.00(10)
_diffrn_detector                 'Hybrid Pixel Array Detector'
_diffrn_detector_area_resol_mean 10.0000
_diffrn_detector_type            HyPix
_diffrn_measured_fraction_theta_full 0.996
_diffrn_measured_fraction_theta_max 0.972
_diffrn_measurement_details
;
List of Runs (angles in degrees, time in seconds):

  # Type    Start    End  Width  t~exp~   \w     \q     \k     \f   Frames
#--------------------------------------------------------------------------
  1  \w    -38.00  -9.00   0.50    1.00    --  -47.13  39.00  20.00   58
  2  \w    -89.00 -34.00   0.50    1.00    --  -47.13 -39.00-133.00  110
  3  \w     -8.00  33.00   0.50    1.00    --   47.13 -39.00-133.00   82
  4  \w     35.00 115.00   0.50    1.00    --   47.13  39.00  20.00  160
  5  \w   -128.00 -79.00   0.50    4.00    --  -91.75 -39.00-133.00   98
  6  \w    -54.00 -29.00   0.50    4.00    --  -91.75  39.00  20.00   50
  7  \w    120.00 178.00   0.50    4.00    --  113.25  39.00  20.00  116
  8  \w    -28.00  15.00   0.50    1.00    --   47.13 -19.00 150.00   86
  9  \w    -27.00  14.00   0.50    1.00    --   47.13 -19.00  90.00   82
 10  \w    -45.00 -20.00   0.50    4.00    --  -91.75  30.00-150.00   50
 11  \w    -58.00 -26.00   0.50    4.00    --  -91.75  45.00 150.00   64
 12  \w    -60.00 -20.00   0.50    4.00    --  -91.75  45.00-150.00   80
 13  \w     59.00  94.00   0.50    4.00    --  113.25 -77.00-180.00   70
 14  \w     46.00  94.00   0.50    4.00    --  113.25 -77.00  90.00   96
 15  \w     53.00  95.00   0.50    4.00    --  113.25 -77.00-120.00   84
 16  \w     43.00  86.00   0.50    4.00    --  113.25 -77.00-150.00   86
 17  \w     68.00  94.00   0.50    4.00    --  113.25 -94.00 -60.00   52
 18  \w     95.00 174.00   0.50    4.00    --  113.25  77.00 -30.00  158
 19  \w     42.00  97.00   0.50    4.00    --  113.25 -94.00 150.00  110
 20  \w    105.00 157.00   0.50    4.00    --  113.25  30.00 -90.00  104
 21  \w     43.00  90.00   0.50    4.00    --  113.25 -77.00 -60.00   94
 22  \w     47.00  72.00   0.50    4.00    --  113.25 -77.00 120.00   50
 23  \w     43.00  75.00   0.50    4.00    --  113.25 -77.00 -90.00   64
 24  \w     49.00  94.00   0.50    4.00    --  113.25 -77.00   0.00   90
 25  \w     56.00  81.00   0.50    4.00    --  113.25 -94.00 120.00   50
 26  \w     99.00 171.00   0.50    4.00    --  113.25  15.00 150.00  144
 27  \w    100.00 125.00   0.50    4.00    --  113.25  15.00-120.00   50
 28  \w    131.00 156.00   0.50    4.00    --  113.25  15.00-120.00   50
 29  \w     44.00  93.00   0.50    4.00    --  113.25 -77.00 150.00   98
;
_diffrn_measurement_device       'four-circle diffractometer'
_diffrn_measurement_device_type  'XtaLAB Synergy, Dualflex, HyPix'
_diffrn_measurement_method       '\w scans'
_diffrn_orient_matrix_type
'CrysAlisPro convention (1999,Acta A55,543-557)'
_diffrn_orient_matrix_UB_11      0.0918445000
_diffrn_orient_matrix_UB_12      0.0160545000
_diffrn_orient_matrix_UB_13      0.0113339000
_diffrn_orient_matrix_UB_21      -0.0196470000
_diffrn_orient_matrix_UB_22      -0.0245199000
_diffrn_orient_matrix_UB_23      0.0303299000
_diffrn_orient_matrix_UB_31      0.0378175000
_diffrn_orient_matrix_UB_32      -0.0520026000
_diffrn_orient_matrix_UB_33      -0.0107721000
_diffrn_radiation_monochromator  mirror
_diffrn_radiation_probe          x-ray
_diffrn_radiation_type           'Cu K\a'
_diffrn_radiation_wavelength     1.54184
_diffrn_reflns_av_R_equivalents  0.0423
_diffrn_reflns_av_unetI/netI     0.0375
_diffrn_reflns_Laue_measured_fraction_full 0.996
_diffrn_reflns_Laue_measured_fraction_max 0.972
_diffrn_reflns_limit_h_max       19
_diffrn_reflns_limit_h_min       -19
_diffrn_reflns_limit_k_max       25
_diffrn_reflns_limit_k_min       -32
_diffrn_reflns_limit_l_max       57
_diffrn_reflns_limit_l_min       -56
_diffrn_reflns_number            73318
_diffrn_reflns_point_group_measured_fraction_full 0.996
_diffrn_reflns_point_group_measured_fraction_max 0.972
_diffrn_reflns_theta_full        67.684
_diffrn_reflns_theta_max         80.514
_diffrn_reflns_theta_min         3.372
_diffrn_source                   'micro-focus sealed X-ray tube'
_diffrn_source_type              'PhotonJet (Cu) X-ray Source'
_exptl_absorpt_coefficient_mu    4.694
_exptl_absorpt_correction_T_max  1.00000
_exptl_absorpt_correction_T_min  0.60208
_exptl_absorpt_correction_type   multi-scan
_exptl_absorpt_process_details
;
CrysAlisPro 1.171.41.120a (Rigaku Oxford Diffraction, 2021)
Empirical absorption correction using spherical harmonics,
implemented in SCALE3 ABSPACK scaling algorithm.
;
_exptl_crystal_colour            'clear pale red'
_exptl_crystal_density_diffrn    1.571
_exptl_crystal_description       block
_exptl_crystal_F_000             8736
_exptl_crystal_size_max          0.07
_exptl_crystal_size_mid          0.04
_exptl_crystal_size_min          0.01
_refine_diff_density_max         1.580
_refine_diff_density_min         -1.135
_refine_diff_density_rms         0.086
_refine_ls_extinction_method     none
_refine_ls_goodness_of_fit_ref   1.062
_refine_ls_hydrogen_treatment    constr
_refine_ls_matrix_type           full
_refine_ls_number_parameters     1059
_refine_ls_number_reflns         18893
_refine_ls_number_restraints     2
_refine_ls_restrained_S_all      1.062
_refine_ls_R_factor_all          0.0500
_refine_ls_R_factor_gt           0.0471
_refine_ls_shift/su_max          0.002
_refine_ls_shift/su_mean         0.000
_refine_ls_structure_factor_coef Fsqd
_refine_ls_weighting_details
'w=1/[\s^2^(Fo^2^)+(0.0552P)^2^+67.4350P] where P=(Fo^2^+2Fc^2^)/3'
_refine_ls_weighting_scheme      calc
_refine_ls_wR_factor_gt          0.1225
_refine_ls_wR_factor_ref         0.1243
_reflns_Friedel_coverage         0.000
_reflns_number_gt                17625
_reflns_number_total             18893
_reflns_threshold_expression     'I > 2\s(I)'
_cod_data_source_file            d2dt00675h2.cif
_cod_data_source_block           str0789lt150kcu34mm_auto
_cod_database_code               7709788
_shelx_shelxl_version_number     2018/3
_chemical_oxdiff_formula         'C54 H50 N4 O10F6PSb'
_shelx_space_group_comment
;
The symmetry employed for this shelxl refinement is uniquely defined
by the following loop, which should always be used as a source of
symmetry information in preference to the above space-group names.
They are only intended as comments.
;
_shelx_estimated_absorpt_t_max   0.955
_shelx_estimated_absorpt_t_min   0.735
_reflns_odcompleteness_completeness 99.21
_reflns_odcompleteness_iscentric 1
_reflns_odcompleteness_theta     74.33
_olex2_refinement_description
;
1. Fixed Uiso
 At 1.2 times of:
  All C(H) groups
 At 1.5 times of:
  All C(H,H,H) groups
2. Restrained distances
 O2A-C24B
 1.35 with sigma of 0.01
 O10-C54C
 1.35 with sigma of 0.01
3. Uiso/Uaniso restraints and constraints
Uanis(C54C) = Uanis(C54)
4. Others
 Sof(C24B)=Sof(H24D)=Sof(H24E)=Sof(H24F)=Sof(C54C)=Sof(H54D)=Sof(H54E)=
 Sof(H54F)=1-FVAR(1)
 Sof(C54)=Sof(H54A)=Sof(H54B)=Sof(H54C)=Sof(C24A)=Sof(H24A)=Sof(H24B)=
 Sof(H24C)=FVAR(1)
5.a Aromatic/amide H refined with riding coordinates:
 C2(H2), C3(H3), C7(H7), C8(H8), C12(H12), C13(H13), C17(H17), C18(H18),
 C22(H22), C24(H24), C26(H26), C28(H28), C30(H30), C32(H32), C34(H34), C36(H36),
  C38(H38), C40(H40), C42(H42), C44(H44), C2A(H2A), C3A(H3A), C7A(H7A),
 C8A(H8A), C12A(H12A), C14A(H14A), C16A(H16A), C18A(H18A), C20A(H20A),
 C22A(H22A)
5.b Idealised Me refined as rotating group:
 C45(H45A,H45B,H45C), C46(H46A,H46B,H46C), C47(H47A,H47B,H47C), C48(H48A,H48B,
 H48C), C49(H49A,H49B,H49C), C50(H50A,H50B,H50C), C51(H51A,H51B,H51C), C52(H52A,
 H52B,H52C), C53(H53A,H53B,H53C), C54(H54A,H54B,H54C), C23A(H23A,H23B,H23C),
 C24A(H24A,H24B,H24C), C25A(H25A,H25B,H25C), C26A(H26A,H26B,H26C), C27A(H27A,
 H27B,H27C), C24B(H24D,H24E,H24F), C54C(H54D,H54E,H54F)
;
_smtbx_masks_special_details
;
A solvent mask was calculated and 940 electrons were
found in a volume of 3404\%A^3 in 1 void per unit cell.
This is consistent with the presence of 
2[C5H12] per Formula Unit which account for 1008 electrons 
per unit cell.
;
_smtbx_masks_void_probe_radius   1.2
_smtbx_masks_void_truncation_radius 1.2
_shelx_res_file
;
TITL str0789lt150kcu34mm_auto_a.res in C2/c
    str0789lt150kcu34mm_auto.res
    created by SHELXL-2018/3 at 10:07:26 on 19-Nov-2021
REM Old TITL str0789lt150kCu34mm_auto in C2/c
REM SHELXT solution in C2/c: R1 0.151, Rweak 0.012, Alpha 0.082
REM <I/s> 0.666 for 414 systematic absences, Orientation as input
REM Formula found by SHELXT: C164 N20 O22 F18 P1 Sb3
CELL 1.54184 15.219378 25.800706 45.155966 90 90.6426 90
ZERR 12 0.000115 0.000184 0.000392 0 0.0008 0
LATT 7
SYMM -X,+Y,0.5-Z
SFAC C F H N O P Sb
UNIT 828 72 1032 48 120 12 12
DFIX 1.35 0.01 O2A C24B
DFIX 1.35 0.01 O10 C54C
EADP C54C C54

L.S. 9
PLAN  40
SIZE 0.01 0.04 0.07
TEMP -123
CONF
MORE -1
BOND $H
fmap 2
acta
ABIN
OMIT -1 3 7
OMIT -2 6 2
OMIT -2 0 10
OMIT -3 3 1
OMIT 2 0 2
OMIT 0 2 3
OMIT 2 2 7
OMIT -1 1 6
OMIT 4 18 34
OMIT 0 2 5
OMIT -2 0 12
OMIT -2 2 11
OMIT 2 2 3
OMIT 3 3 1
REM <olex2.extras>
REM <HklSrc "%.\\str0789lt150kCu34mm_auto.hkl">
REM </olex2.extras>

WGHT    0.055200   67.434998
FVAR       0.06692   0.67844
SB1   7    0.275225    0.445978    0.362273    11.00000    0.02182    0.02189 =
         0.03401   -0.00330    0.00254   -0.00667
O1    5    0.252353    0.131830    0.386430    11.00000    0.06876    0.02617 =
         0.06139    0.00382   -0.02162   -0.00150
O2    5    0.047260    0.173472    0.313407    11.00000    0.05500    0.03109 =
         0.04807    0.00251   -0.01464   -0.01860
O3    5    0.647651    0.377027    0.245250    11.00000    0.02996    0.11734 =
         0.02744   -0.01173   -0.00007    0.00124
O4    5    0.790453    0.394500    0.340837    11.00000    0.02517    0.06654 =
         0.03251   -0.00677   -0.00380    0.00582
O5    5    0.262817    0.762535    0.339950    11.00000    0.04763    0.03191 =
         0.09362    0.01497   -0.00981   -0.00193
O6    5    0.495110    0.722195    0.403299    11.00000    0.04851    0.03004 =
         0.04902   -0.00185   -0.00283   -0.01493
O7    5   -0.236910    0.500070    0.402814    11.00000    0.03736    0.07266 =
         0.11925   -0.03546   -0.02142    0.01706
O8    5   -0.077163    0.458001    0.490480    11.00000    0.04775    0.07628 =
         0.06497    0.01725    0.02584    0.02462
O9    5    0.228198    0.456673    0.322584    11.00000    0.02765    0.04061 =
         0.03658    0.00264   -0.00397   -0.00317
O10   5    0.326182    0.440414    0.402057    11.00000    0.02896    0.03773 =
         0.03556   -0.00825   -0.00452   -0.00061
N1    4    0.169766    0.400149    0.374557    11.00000    0.02431    0.02266 =
         0.03992   -0.00176    0.00727   -0.01160
N2    4    0.339911    0.380366    0.347401    11.00000    0.02061    0.02061 =
         0.03106   -0.00435    0.00251   -0.00179
N3    4    0.380502    0.491398    0.349580    11.00000    0.02306    0.02143 =
         0.03875   -0.00297    0.00604   -0.01178
N4    4    0.210325    0.511401    0.377679    11.00000    0.02446    0.02096 =
         0.04573   -0.00731    0.00724   -0.00410
C1    1    0.097478    0.417249    0.389632    11.00000    0.02236    0.02523 =
         0.04203   -0.00068    0.00578   -0.00464
C2    1    0.041173    0.373566    0.394274    11.00000    0.02587    0.02439 =
         0.04604    0.00036    0.00452   -0.00686
AFIX  43
H2    3   -0.013881    0.374258    0.403975    11.00000   -1.20000
AFIX   0
C3    1    0.079723    0.331135    0.382494    11.00000    0.02797    0.02565 =
         0.04051    0.00231    0.00076   -0.00761
AFIX  43
H3    3    0.056800    0.296887    0.382448    11.00000   -1.20000
AFIX   0
C4    1    0.162006    0.347516    0.370027    11.00000    0.02717    0.02025 =
         0.03418    0.00011    0.00117   -0.00640
C5    1    0.223689    0.315010    0.356918    11.00000    0.02647    0.02179 =
         0.03198   -0.00158    0.00086   -0.00536
C6    1    0.306868    0.330174    0.347251    11.00000    0.02637    0.02338 =
         0.02973   -0.00196   -0.00004   -0.00631
C7    1    0.372472    0.296986    0.335105    11.00000    0.03228    0.02860 =
         0.03630   -0.00390    0.00353   -0.00437
AFIX  43
H7    3    0.367398    0.260635    0.332208    11.00000   -1.20000
AFIX   0
C8    1    0.443114    0.326494    0.328458    11.00000    0.02728    0.03222 =
         0.03399   -0.00175    0.00536   -0.00243
AFIX  43
H8    3    0.496685    0.314337    0.320391    11.00000   -1.20000
AFIX   0
C9    1    0.423232    0.378914    0.335650    11.00000    0.02090    0.02851 =
         0.02752   -0.00083    0.00144   -0.00265
C10   1    0.477294    0.421955    0.330657    11.00000    0.02570    0.03388 =
         0.02889   -0.00182   -0.00211   -0.00557
C11   1    0.455451    0.473664    0.336189    11.00000    0.02194    0.03082 =
         0.03365   -0.00089    0.00147   -0.00587
C12   1    0.506815    0.517896    0.328396    11.00000    0.02738    0.03257 =
         0.04475   -0.00073    0.00421   -0.00986
AFIX  43
H12   3    0.562370    0.517078    0.319023    11.00000   -1.20000
AFIX   0
C13   1    0.462923    0.561240    0.336630    11.00000    0.03318    0.02943 =
         0.04674    0.00354    0.00489   -0.01097
AFIX  43
H13   3    0.481460    0.596006    0.333702    11.00000   -1.20000
AFIX   0
C14   1    0.382829    0.544780    0.350667    11.00000    0.02947    0.02494 =
         0.03791    0.00059   -0.00132   -0.00956
C15   1    0.319977    0.577788    0.363138    11.00000    0.02942    0.02541 =
         0.03950   -0.00042   -0.00193   -0.00626
C16   1    0.240637    0.561783    0.375825    11.00000    0.03039    0.02038 =
         0.03933   -0.00292    0.00119   -0.00547
C17   1    0.177481    0.594633    0.390044    11.00000    0.03147    0.02266 =
         0.04742   -0.00401    0.00160   -0.00429
AFIX  43
H17   3    0.180973    0.631240    0.391990    11.00000   -1.20000
AFIX   0
C18   1    0.111821    0.563818    0.400205    11.00000    0.02980    0.02721 =
         0.05395   -0.00467    0.00821   -0.00633
AFIX  43
H18   3    0.061439    0.575190    0.410601    11.00000   -1.20000
AFIX   0
C19   1    0.131664    0.511488    0.392560    11.00000    0.02628    0.02625 =
         0.04524   -0.00509    0.00464   -0.00424
C20   1    0.079989    0.468230    0.398508    11.00000    0.02950    0.02622 =
         0.04693   -0.00380    0.00480   -0.00447
C21   1    0.199741    0.258898    0.354007    11.00000    0.02932    0.02201 =
         0.03506   -0.00204    0.00558   -0.00605
C22   1    0.243263    0.222541    0.371451    11.00000    0.03388    0.02817 =
         0.03823   -0.00294   -0.00309   -0.00602
AFIX  43
H22   3    0.289230    0.232858    0.384580    11.00000   -1.20000
AFIX   0
C23   1    0.218401    0.170602    0.369386    11.00000    0.04796    0.02368 =
         0.04018   -0.00011   -0.00313   -0.00452
C24   1    0.153624    0.155568    0.349196    11.00000    0.04815    0.02196 =
         0.04720   -0.00075   -0.00176   -0.01114
AFIX  43
H24   3    0.138791    0.119964    0.347196    11.00000   -1.20000
AFIX   0
C25   1    0.110523    0.192403    0.331941    11.00000    0.03987    0.03022 =
         0.03509   -0.00199   -0.00149   -0.01360
C26   1    0.133031    0.244548    0.334140    11.00000    0.03250    0.02850 =
         0.03212    0.00157    0.00077   -0.00607
AFIX  43
H26   3    0.103663    0.269852    0.322383    11.00000   -1.20000
AFIX   0
C27   1    0.564533    0.410552    0.317200    11.00000    0.02622    0.02880 =
         0.03330   -0.00207    0.00241   -0.00673
C28   1    0.569160    0.399986    0.287227    11.00000    0.02484    0.05438 =
         0.03282    0.00008   -0.00307   -0.00357
AFIX  43
H28   3    0.517623    0.401503    0.275193    11.00000   -1.20000
AFIX   0
C29   1    0.649527    0.387113    0.274716    11.00000    0.02992    0.05375 =
         0.02843   -0.00017    0.00014   -0.00621
C30   1    0.725849    0.385268    0.291799    11.00000    0.02554    0.03731 =
         0.03055   -0.00072    0.00313   -0.00309
AFIX  43
H30   3    0.780713    0.377079    0.283128    11.00000   -1.20000
AFIX   0
C31   1    0.719969    0.395745    0.322037    11.00000    0.02488    0.03217 =
         0.03117   -0.00187   -0.00187   -0.00370
C32   1    0.640249    0.408373    0.334913    11.00000    0.02861    0.03687 =
         0.02756   -0.00352   -0.00050   -0.00076
AFIX  43
H32   3    0.637306    0.415441    0.355525    11.00000   -1.20000
AFIX   0
C33   1    0.341444    0.634440    0.364877    11.00000    0.02869    0.02418 =
         0.04618    0.00166    0.00476   -0.00757
C34   1    0.289300    0.671060    0.350194    11.00000    0.03470    0.02785 =
         0.05108    0.00459    0.00177   -0.00988
AFIX  43
H34   3    0.241452    0.660270    0.337990    11.00000   -1.20000
AFIX   0
C35   1    0.308095    0.723418    0.353613    11.00000    0.03924    0.02939 =
         0.05710    0.00919    0.00433   -0.00090
C36   1    0.377846    0.739235    0.371613    11.00000    0.04460    0.01808 =
         0.05511   -0.00005    0.00585   -0.00851
AFIX  43
H36   3    0.390256    0.775077    0.374053    11.00000   -1.20000
AFIX   0
C37   1    0.429034    0.702489    0.385939    11.00000    0.03293    0.03195 =
         0.03992   -0.00245    0.00725   -0.01010
C38   1    0.411778    0.650032    0.382775    11.00000    0.03051    0.02547 =
         0.03925    0.00119    0.00580   -0.00674
AFIX  43
H38   3    0.447382    0.625067    0.392664    11.00000   -1.20000
AFIX   0
C39   1   -0.003053    0.475506    0.415625    11.00000    0.02914    0.02185 =
         0.06156   -0.00636    0.00601   -0.00302
C40   1   -0.079269    0.487736    0.400105    11.00000    0.03963    0.02985 =
         0.06725   -0.01018   -0.00584    0.00133
AFIX  43
H40   3   -0.077881    0.494909    0.379480    11.00000   -1.20000
AFIX   0
C41   1   -0.158442    0.489257    0.415591    11.00000    0.03221    0.03009 =
         0.08586   -0.01778   -0.00578    0.00320
C42   1   -0.159660    0.478414    0.445909    11.00000    0.02234    0.02574 =
         0.10061   -0.01880   -0.00008    0.00453
AFIX  43
H42   3   -0.213846    0.478468    0.456150    11.00000   -1.20000
AFIX   0
C43   1   -0.083199    0.467725    0.460904    11.00000    0.03513    0.02816 =
         0.06667    0.00054    0.01465    0.00421
C44   1   -0.003412    0.465738    0.445775    11.00000    0.02655    0.03848 =
         0.05840    0.00312    0.00785    0.00406
AFIX  43
H44   3    0.049702    0.457800    0.456056    11.00000   -1.20000
AFIX   0
C45   1    0.317511    0.145121    0.408289    11.00000    0.07414    0.03980 =
         0.07000    0.00731   -0.02857    0.00210
AFIX 137
H45A  3    0.368083    0.161036    0.398590    11.00000   -1.50000
H45B  3    0.336503    0.113740    0.418780    11.00000   -1.50000
H45C  3    0.292509    0.169677    0.422447    11.00000   -1.50000
AFIX   0
C46   1   -0.001893    0.209924    0.296258    11.00000    0.05457    0.04409 =
         0.05658    0.00355   -0.02104   -0.01810
AFIX 137
H46A  3   -0.047267    0.191671    0.284756    11.00000   -1.50000
H46B  3    0.037515    0.228140    0.282758    11.00000   -1.50000
H46C  3   -0.029727    0.235029    0.309466    11.00000   -1.50000
AFIX   0
C47   1    0.729146    0.364116    0.231585    11.00000    0.04396    0.12770 =
         0.03010   -0.01504    0.00579   -0.00092
AFIX 137
H47A  3    0.718364    0.354716    0.210833    11.00000   -1.50000
H47B  3    0.756141    0.334755    0.242021    11.00000   -1.50000
H47C  3    0.768751    0.394033    0.232541    11.00000   -1.50000
AFIX   0
C48   1    0.872977    0.377757    0.329523    11.00000    0.02457    0.06752 =
         0.04349    0.00009   -0.00006    0.00833
AFIX 137
H48A  3    0.891149    0.401084    0.313596    11.00000   -1.50000
H48B  3    0.867181    0.342441    0.321754    11.00000   -1.50000
H48C  3    0.917229    0.378255    0.345454    11.00000   -1.50000
AFIX   0
C49   1    0.184886    0.749469    0.324006    11.00000    0.05007    0.04413 =
         0.09715    0.01836   -0.01965   -0.00022
AFIX 137
H49A  3    0.199716    0.727269    0.307176    11.00000   -1.50000
H49B  3    0.156514    0.781190    0.316752    11.00000   -1.50000
H49C  3    0.144686    0.730937    0.337095    11.00000   -1.50000
AFIX   0
C50   1    0.548307    0.686161    0.419606    11.00000    0.05294    0.04257 =
         0.04453   -0.00064   -0.00375   -0.01648
AFIX 137
H50A  3    0.578840    0.663276    0.405788    11.00000   -1.50000
H50B  3    0.510924    0.665399    0.432562    11.00000   -1.50000
H50C  3    0.591581    0.705138    0.431633    11.00000   -1.50000
AFIX   0
C51   1   -0.237174    0.512165    0.370818    11.00000    0.05964    0.07810 =
         0.10342   -0.04305   -0.04528    0.02808
AFIX 137
H51A  3   -0.218157    0.481614    0.359700    11.00000   -1.50000
H51B  3   -0.196854    0.540992    0.367089    11.00000   -1.50000
H51C  3   -0.296686    0.521909    0.364450    11.00000   -1.50000
AFIX   0
C52   1   -0.154208    0.449885    0.506831    11.00000    0.05685    0.03924 =
         0.09131    0.01418    0.04027    0.01245
AFIX 137
H52A  3   -0.191210    0.424182    0.496700    11.00000   -1.50000
H52B  3   -0.186469    0.482606    0.508512    11.00000   -1.50000
H52C  3   -0.138559    0.437219    0.526659    11.00000   -1.50000
AFIX   0
C53   1    0.138617    0.454994    0.315371    11.00000    0.04194    0.10851 =
         0.05616    0.00438   -0.01267   -0.00326
AFIX 137
H53A  3    0.129330    0.468866    0.295376    11.00000   -1.50000
H53B  3    0.105774    0.475901    0.329592    11.00000   -1.50000
H53C  3    0.117989    0.419039    0.316092    11.00000   -1.50000
AFIX   0
PART 1
C54   1    0.397853    0.405456    0.409677    21.00000    0.04691    0.04806 =
         0.03594    0.00365   -0.00832    0.00387
AFIX 137
H54A  3    0.378428    0.369526    0.407014    21.00000   -1.50000
H54B  3    0.415554    0.410957    0.430372    21.00000   -1.50000
H54C  3    0.447893    0.412317    0.396781    21.00000   -1.50000
AFIX   0

PART 0
SB1A  7    0.250000    0.250000    0.500000    10.50000    0.01137    0.01565 =
         0.03909   -0.00378    0.00045   -0.00100
O1A   5    0.375667    0.557395    0.475555    11.00000    0.04379    0.02446 =
         0.05219    0.00106   -0.00198   -0.00892
O2A   5    0.434686    0.511568    0.573793    11.00000    0.04207    0.05153 =
         0.05227   -0.01999   -0.00574   -0.00957
O3A   5    0.781616    0.181015    0.479994    11.00000    0.01488    0.05406 =
         0.04013   -0.00082    0.00519    0.00476
O4A   5    0.666664    0.157396    0.576476    11.00000    0.03252    0.05864 =
         0.03902    0.01230   -0.00062    0.00029
O5A   5    0.261796    0.246584    0.543079    11.00000    0.03349    0.03298 =
         0.04143   -0.00557   -0.00326   -0.00073
N1A   4    0.313428    0.179514    0.495368    11.00000    0.01084    0.01216 =
         0.04971   -0.00747    0.00080    0.00245
N2A   4    0.369618    0.288698    0.500444    11.00000    0.00992    0.01596 =
         0.04798   -0.00241    0.00123   -0.00301
C1A   1    0.403267    0.172869    0.496736    11.00000    0.01372    0.02056 =
         0.04259   -0.00303    0.00165    0.00276
C2A   1    0.421551    0.118996    0.493005    11.00000    0.01714    0.02150 =
         0.05985   -0.00415    0.00206    0.00150
AFIX  43
H2A   3    0.478056    0.103355    0.492906    11.00000   -1.20000
AFIX   0
C3A   1    0.342844    0.094053    0.489603    11.00000    0.02142    0.01856 =
         0.05678   -0.00543    0.00064   -0.00069
AFIX  43
H3A   3    0.334945    0.057971    0.486334    11.00000   -1.20000
AFIX   0
C4A   1    0.274395    0.131885    0.491832    11.00000    0.01481    0.02213 =
         0.04339   -0.00499    0.00218   -0.00067
C5A   1    0.315850    0.378111    0.508248    11.00000    0.02026    0.01609 =
         0.04360   -0.00338   -0.00015   -0.00250
C6A   1    0.381561    0.341008    0.504527    11.00000    0.01607    0.01926 =
         0.04065   -0.00493    0.00185   -0.00104
C7A   1    0.474615    0.350692    0.505871    11.00000    0.01743    0.02247 =
         0.04022    0.00014    0.00118   -0.00369
AFIX  43
H7A   3    0.501909    0.383670    0.507688    11.00000   -1.20000
AFIX   0
C8A   1    0.516330    0.304569    0.504091    11.00000    0.01371    0.02418 =
         0.03994   -0.00202    0.00099   -0.00360
AFIX  43
H8A   3    0.578099    0.299278    0.504660    11.00000   -1.20000
AFIX   0
C9A   1    0.450406    0.264992    0.501184    11.00000    0.01054    0.02205 =
         0.03923   -0.00335    0.00236   -0.00180
C10A  1    0.466644    0.211642    0.500541    11.00000    0.01679    0.02210 =
         0.03746    0.00036    0.00216    0.00049
C11A  1    0.345814    0.432924    0.513610    11.00000    0.01502    0.01935 =
         0.04977   -0.00556    0.00341   -0.00128
C12A  1    0.345583    0.468361    0.490507    11.00000    0.02011    0.02345 =
         0.04283   -0.00477    0.00024   -0.00098
AFIX  43
H12A  3    0.326154    0.458480    0.471254    11.00000   -1.20000
AFIX   0
C13A  1    0.374308    0.518577    0.496060    11.00000    0.02070    0.02061 =
         0.05028   -0.00153    0.00332   -0.00376
C14A  1    0.402575    0.532949    0.524293    11.00000    0.02198    0.01785 =
         0.05485   -0.00759    0.00231   -0.01032
AFIX  43
H14A  3    0.420688    0.567573    0.528098    11.00000   -1.20000
AFIX   0
C15A  1    0.404176    0.496544    0.546816    11.00000    0.02002    0.02651 =
         0.04900   -0.00816    0.00080   -0.00411
C16A  1    0.374790    0.446055    0.541660    11.00000    0.02223    0.02564 =
         0.04552   -0.00077    0.00271    0.00003
AFIX  43
H16A  3    0.374759    0.421210    0.557186    11.00000   -1.20000
AFIX   0
C17A  1    0.558125    0.194975    0.508516    11.00000    0.01618    0.01884 =
         0.04179    0.00006    0.00209   -0.00254
C18A  1    0.625763    0.194951    0.487840    11.00000    0.01514    0.02379 =
         0.03800    0.00036   -0.00069    0.00053
AFIX  43
H18A  3    0.614637    0.203181    0.467638    11.00000   -1.20000
AFIX   0
C19A  1    0.709697    0.182505    0.497805    11.00000    0.01433    0.02645 =
         0.03908   -0.00234    0.00470   -0.00077
C20A  1    0.727090    0.169505    0.527424    11.00000    0.01811    0.02553 =
         0.04453    0.00107   -0.00333    0.00316
AFIX  43
H20A  3    0.785058    0.160984    0.533745    11.00000   -1.20000
AFIX   0
C21A  1    0.659024    0.169253    0.547225    11.00000    0.02475    0.02626 =
         0.03873    0.00256   -0.00071    0.00149
C22A  1    0.573376    0.182162    0.537744    11.00000    0.01986    0.02907 =
         0.04318    0.00395    0.00438   -0.00098
AFIX  43
H22A  3    0.526376    0.182041    0.551412    11.00000   -1.20000
AFIX   0
C23A  1    0.348799    0.545223    0.446190    11.00000    0.04757    0.03197 =
         0.04961    0.00348    0.00312   -0.00677
AFIX 137
H23A  3    0.354675    0.576007    0.433654    11.00000   -1.50000
H23B  3    0.287328    0.533909    0.446139    11.00000   -1.50000
H23C  3    0.385830    0.517343    0.438489    11.00000   -1.50000
AFIX   0
PART 1
C24A  1    0.441613    0.478784    0.595251    21.00000    0.04739    0.04784 =
         0.04830   -0.00787   -0.00739   -0.00419
AFIX 137
H24A  3    0.384970    0.461558    0.598154    21.00000   -1.50000
H24B  3    0.458840    0.497040    0.613441    21.00000   -1.50000
H24C  3    0.486292    0.452841    0.590465    21.00000   -1.50000
AFIX   0
PART 0
C25A  1    0.768842    0.193199    0.449527    11.00000    0.02353    0.05805 =
         0.04162   -0.00490    0.01009    0.00125
AFIX 137
H25A  3    0.741899    0.227567    0.447713    11.00000   -1.50000
H25B  3    0.730158    0.167276    0.440345    11.00000   -1.50000
H25C  3    0.825669    0.193147    0.439533    11.00000   -1.50000
AFIX   0
C26A  1    0.752779    0.145647    0.587877    11.00000    0.03621    0.07135 =
         0.04545    0.01637   -0.00766   -0.00112
AFIX 137
H26A  3    0.749500    0.138945    0.609198    11.00000   -1.50000
H26B  3    0.791972    0.175100    0.584371    11.00000   -1.50000
H26C  3    0.775673    0.114875    0.577848    11.00000   -1.50000
AFIX   0
C27A  1    0.246430    0.201064    0.558556    11.00000    0.07040    0.04577 =
         0.04674    0.00452    0.00256   -0.00095
AFIX 137
H27A  3    0.253141    0.207543    0.579846    11.00000   -1.50000
H27B  3    0.288698    0.174589    0.552451    11.00000   -1.50000
H27C  3    0.186600    0.188917    0.554300    11.00000   -1.50000
AFIX   0

P1    6    0.532014    0.249218    0.403903    11.00000    0.04880    0.09895 =
         0.06761    0.03201   -0.02207   -0.02022
F1    2    0.565789    0.276255    0.433366    11.00000    0.09723    0.10842 =
         0.05992    0.01244   -0.00662   -0.01238
F2    2    0.630506    0.229654    0.398668    11.00000    0.07628    0.10841 =
         0.12239    0.00830   -0.02837    0.00788
F3    2    0.501785    0.220288    0.374099    11.00000    0.11660    0.11800 =
         0.09583    0.02026   -0.04918   -0.03327
F4    2    0.435056    0.265240    0.407271    11.00000    0.04937    0.16018 =
         0.16559    0.00857    0.00110   -0.00598
F5    2    0.553852    0.300156    0.385579    11.00000    0.07898    0.09860 =
         0.07643    0.03602   -0.02303   -0.01362
F6    2    0.514187    0.197005    0.421955    11.00000    0.13866    0.13723 =
         0.12322    0.07396   -0.06754   -0.07457
P2    6    0.000000    0.346891    0.250000    10.50000    0.02809    0.04608 =
         0.04156    0.00000    0.00388    0.00000
F7    2    0.070453    0.303150    0.242387    11.00000    0.04648    0.06295 =
         0.07370   -0.01321   -0.00130    0.01523
F8    2    0.033839    0.346627    0.283632    11.00000    0.05467    0.07547 =
         0.04494   -0.00014   -0.00329   -0.00293
F9    2    0.070289    0.390836    0.242456    11.00000    0.03973    0.06277 =
         0.06858    0.00216    0.01376   -0.00928
PART 2
C24B  1    0.460077    0.557115    0.584629   -21.00000    0.03378    0.03819 =
         0.05608   -0.02046   -0.00980    0.00147
AFIX 137
H24D  3    0.512867    0.568771    0.574335   -21.00000   -1.50000
H24E  3    0.473141    0.553615    0.605835   -21.00000   -1.50000
H24F  3    0.412950    0.582551    0.581709   -21.00000   -1.50000
AFIX   0

C54C  1    0.315952    0.395701    0.416800   -21.00000    0.04691    0.04806 =
         0.03594    0.00365   -0.00832    0.00387
AFIX 137
H54D  3    0.254905    0.392593    0.423244   -21.00000   -1.50000
H54E  3    0.355217    0.395264    0.434148   -21.00000   -1.50000
H54F  3    0.330262    0.366590    0.403774   -21.00000   -1.50000
AFIX   0
HKLF 4




REM  str0789lt150kcu34mm_auto_a.res in C2/c
REM wR2 = 0.1243, GooF = S = 1.062, Restrained GooF = 1.062 for all data
REM R1 = 0.0471 for 17625 Fo > 4sig(Fo) and 0.0500 for all 18893 data
REM 1059 parameters refined using 2 restraints

END

WGHT      0.0552     67.4242

REM Highest difference peak  1.580,  deepest hole -1.135,  1-sigma level  0.086
Q1    1   0.5138  0.2818  0.4123  11.00000  0.05    1.58
Q2    1   0.4651  0.2399  0.4343  11.00000  0.05    1.00
Q3    1   0.2443  0.2479  0.5231  11.00000  0.05    0.89
Q4    1   0.2610  0.4504  0.3424  11.00000  0.05    0.69
Q5    1   0.4611  0.2467  0.3850  11.00000  0.05    0.67
Q6    1   0.2956  0.2073  0.5002  11.00000  0.05    0.64
Q7    1  -0.1761  0.4720  0.4665  11.00000  0.05    0.62
Q8    1   0.4444  0.3134  0.4036  11.00000  0.05    0.58
Q9    1   0.3040  0.4400  0.3862  11.00000  0.05    0.58
Q10   1   0.2393  0.4866  0.3696  11.00000  0.05    0.49
Q11   1   0.4847  0.2804  0.5037  11.00000  0.05    0.47
Q12   1   0.5480  0.3149  0.4329  11.00000  0.05    0.47
Q13   1   0.3381  0.2714  0.5033  11.00000  0.05    0.45
Q14   1   0.2809  0.2911  0.4942  11.00000  0.05    0.44
Q15   1  -0.2175  0.5301  0.3399  11.00000  0.05    0.42
Q16   1   0.2625  0.4834  0.3810  11.00000  0.05    0.41
Q17   1  -0.0521  0.4702  0.4305  11.00000  0.05    0.41
Q18   1   0.4449  0.2344  0.5032  11.00000  0.05    0.41
Q19   1   0.4217  0.1495  0.4952  11.00000  0.05    0.40
Q20   1  -0.1735  0.5037  0.3863  11.00000  0.05    0.40
Q21   1   0.3048  0.4071  0.3547  11.00000  0.05    0.40
Q22   1   0.0970  0.4479  0.3976  11.00000  0.05    0.37
Q23   1  -0.1673  0.4974  0.4477  11.00000  0.05    0.36
Q24   1   0.5792  0.2105  0.4090  11.00000  0.05    0.36
Q25   1   0.4548  0.3077  0.4302  11.00000  0.05    0.36
Q26   1   0.2479  0.2726  0.5456  11.00000  0.05    0.35
Q27   1   0.2596  0.4079  0.3817  11.00000  0.05    0.35
Q28   1  -0.0210  0.4831  0.3982  11.00000  0.05    0.33
Q29   1   0.4418  0.1971  0.4963  11.00000  0.05    0.33
Q30   1   0.3556  0.4717  0.3496  11.00000  0.05    0.33
Q31   1   0.6078  0.2589  0.4179  11.00000  0.05    0.33
Q32   1   0.2065  0.5203  0.3585  11.00000  0.05    0.33
Q33   1   0.2538  0.2445  0.5576  11.00000  0.05    0.33
Q34   1   0.1635  0.4498  0.3959  11.00000  0.05    0.32
Q35   1   0.2655  0.4432  0.3013  11.00000  0.05    0.31
Q36   1  -0.2612  0.5071  0.3836  11.00000  0.05    0.31
Q37   1   0.3048  0.4880  0.3561  11.00000  0.05    0.30
Q38   1   0.0612  0.4041  0.3923  11.00000  0.05    0.30
Q39   1   0.3779  0.4467  0.3270  11.00000  0.05    0.30
Q40   1   0.3415  0.3556  0.5035  11.00000  0.05    0.30
;
_shelx_res_checksum              86547
_shelx_fab_file
;
-19 1 1 1.9526 2.2168
-19 1 2 0.7990 0.2785
-19 1 3 0.3619 -1.2559
-19 1 4 0.7198 -0.0782
-19 1 5 -2.0628 -1.6376
-19 1 6 -2.1694 -0.8231
-19 1 7 1.6265 3.0433
-19 1 8 4.0037 2.2735
-19 1 9 -0.0550 -1.0898
-19 1 10 -6.1154 -2.7803
-19 1 11 -1.2898 -2.3200
-19 1 12 6.7707 1.9837
-19 3 1 1.5938 0.9140
-19 3 2 -0.5461 -0.3552
-19 3 3 -1.5084 -0.5395
-19 3 4 -0.0318 -0.5950
-19 3 5 1.4600 -0.3497
-19 3 6 -1.4694 0.8865
-19 3 7 -1.9600 1.2439
-19 3 8 5.1942 0.6211
-19 3 9 2.1092 -1.3551
-19 3 10 -8.4063 -2.8293
-19 3 11 -1.4213 0.4003
-19 5 1 2.7453 -0.1807
-19 5 2 -0.2657 0.7756
-19 5 3 -1.0595 0.7179
-19 5 4 0.8722 -1.1217
-19 5 5 -0.8747 -2.0279
-19 5 6 -2.1239 0.4156
-18 0 2 2.4246 -4.7803
-18 0 4 -2.3089 4.3776
-18 0 6 0.6443 -1.7253
-18 0 8 1.4159 -1.3680
-18 0 10 -1.7816 2.1826
-18 0 14 -1.4856 -0.9608
-18 0 16 2.0052 0.1618
-18 0 18 -0.8262 1.4496
-18 0 20 -0.8360 -1.4500
-18 2 1 0.5521 -2.7271
-18 2 2 2.5417 -0.2522
-18 2 3 -1.4518 3.2987
-18 2 4 0.0610 0.7045
-18 2 5 2.3200 -1.7846
-18 2 6 -2.5416 -0.9785
-18 2 7 -1.1971 -0.5648
-18 2 8 3.0927 0.4075
-18 2 9 -0.7279 1.7890
-18 2 10 -1.6430 0.3396
-18 2 11 1.8043 -1.0443
-18 2 12 -0.7000 -0.4276
-18 2 13 -2.5397 -0.3704
-18 2 14 3.2319 0.1535
-18 2 15 3.2243 0.6372
-18 2 16 -5.9490 0.1544
-18 2 17 -2.4169 0.2941
-18 2 18 8.4770 -1.0085
-18 2 19 0.0396 -0.9587
-18 2 20 -9.5818 2.3822
-18 2 21 1.4253 0.4516
-18 4 1 0.1764 -0.8608
-18 4 2 1.7555 -0.0216
-18 4 3 -0.0371 0.9899
-18 4 4 0.7627 0.4801
-18 4 5 -0.1984 -0.5017
-18 4 6 -2.9240 -0.6937
-18 4 7 0.4923 -0.3336
-18 4 8 3.3548 0.3016
-18 4 9 -0.9664 0.8126
-18 4 10 -3.3041 0.5270
-18 4 11 1.4229 -0.3681
-18 4 12 3.0488 -1.1796
-18 4 13 -0.9529 -0.3484
-18 4 14 -1.5674 0.9527
-18 4 15 -1.2828 0.3373
-18 6 1 1.8230 -0.1609
-18 6 2 2.8955 0.3940
-18 6 3 -1.2761 0.8343
-18 6 4 -1.6573 0.4910
-18 6 5 0.0223 -0.4422
-18 6 6 -0.2148 -1.1617
-18 6 7 1.6385 -0.6239
-18 6 8 1.6367 1.1761
-18 6 9 -4.5372 1.2212
-18 6 10 -2.1214 -0.3524
-18 6 11 7.9464 -0.8092
-18 6 19 -0.8889 3.2399
-18 8 1 3.7554 0.2452
-18 8 2 0.4463 0.7092
-18 8 3 -4.1731 0.8229
-18 8 4 0.4354 -0.3176
-18 8 5 4.1618 -1.0090
-18 8 6 -0.9006 -0.4559
-18 8 7 -3.4878 0.3539
-18 8 8 0.1478 0.6245
-18 8 9 1.6466 0.2373
-18 8 10 2.0575 0.2618
-18 8 11 0.7355 -0.4396
-18 8 12 -3.4697 -1.4480
-18 8 13 -2.1794 0.2677
-18 8 14 1.6628 1.6643
-18 8 15 2.1087 0.6473
-18 8 16 1.9107 -0.6852
-18 10 1 3.3231 0.9698
-18 10 2 -1.8284 0.4985
-18 10 3 -1.1051 0.6608
-18 10 4 1.7712 -0.4987
-18 10 5 -0.1285 -1.8058
-18 10 6 -2.8767 -0.6529
-18 10 7 0.2809 1.4700
-18 10 8 3.9629 1.4238
-18 10 9 0.4020 -0.2645
-18 10 10 -3.7375 -0.6039
-18 12 6 2.3364 3.7499
-17 1 1 2.0902 0.1639
-17 1 2 1.3247 -0.6105
-17 1 3 -1.4909 -1.0938
-17 1 4 -0.7852 -0.4843
-17 1 5 0.1414 1.6446
-17 1 6 0.3117 1.1003
-17 1 7 0.0403 -1.2584
-17 1 8 -0.0651 -0.4045
-17 1 9 0.4369 0.1563
-17 1 10 -0.7422 -0.6348
-17 1 11 -0.0997 0.6933
-17 1 12 1.4317 0.7257
-17 1 13 -0.4390 -0.5277
-17 1 14 -0.5954 -0.2762
-17 1 15 -0.2252 -0.3519
-17 1 16 -0.8232 0.3767
-17 1 17 1.5985 0.8680
-17 1 18 0.5120 -0.8899
-17 1 19 -2.4292 -0.4825
-17 1 20 1.2478 0.9545
-17 1 21 2.9279 -0.0522
-17 1 22 -1.8128 -0.3295
-17 1 23 -3.7596 -0.1789
-17 1 24 0.3286 -0.7267
-17 1 25 4.2959 0.6693
-17 3 1 0.5015 -0.3247
-17 3 2 -1.2283 -0.0420
-17 3 3 -0.4513 0.1886
-17 3 4 -0.3495 0.0642
-17 3 5 -1.0814 0.0173
-17 3 6 1.1061 -0.1718
-17 3 7 2.1374 -0.0137
-17 3 8 0.1902 0.0914
-17 3 9 -2.1608 -0.1782
-17 3 10 -1.3631 0.2750
-17 3 11 1.5722 0.0170
-17 3 12 0.7722 -0.4867
-17 3 13 -0.2051 0.5303
-17 3 14 -0.0819 -0.0239
-17 3 15 -1.4537 -0.8043
-17 3 16 1.3553 0.9200
-17 3 17 1.5560 0.6086
-17 3 18 -4.0227 -1.0616
-17 3 19 0.3886 -0.4599
-17 3 20 6.0938 0.1684
-17 3 21 -2.1436 0.6514
-17 3 22 -6.4345 0.5817
-17 3 23 1.8222 -1.0661
-17 3 24 5.1248 -0.3831
-17 3 25 -0.3743 1.6808
-17 3 26 -3.0719 0.0851
-17 5 1 -0.9746 0.2573
-17 5 2 -1.2652 0.0156
-17 5 3 0.2008 -0.6344
-17 5 4 0.4175 -0.4251
-17 5 5 -0.0621 0.4982
-17 5 6 0.8445 0.7311
-17 5 7 1.4460 -0.1473
-17 5 8 -1.0654 -0.8857
-17 5 9 -2.6537 0.1347
-17 5 10 0.8891 0.6823
-17 5 11 1.5680 -0.5361
-17 5 12 -0.8652 0.0642
-17 5 13 0.5936 0.5998
-17 5 14 0.4286 -0.8333
-17 5 15 -0.7646 0.2583
-17 5 16 0.2174 0.7874
-17 5 17 -1.4389 -1.2096
-17 5 18 -0.0180 0.1232
-17 5 19 3.3401 0.9442
-17 5 20 -0.8836 -1.0663
-17 5 21 -2.8285 0.1794
-17 5 22 1.3422 1.3038
-17 5 23 0.3663 -0.4905
-17 5 24 -1.1602 -0.8572
-17 5 25 2.1403 -0.3813
-17 5 26 0.9892 0.2594
-17 7 1 -0.6040 -0.5772
-17 7 2 0.6528 -0.0044
-17 7 3 0.8795 0.5747
-17 7 4 -0.6755 0.0995
-17 7 5 -1.0497 -0.5926
-17 7 6 1.0119 0.1248
-17 7 7 1.7110 0.5147
-17 7 8 -1.5256 -0.3863
-17 7 9 -1.8003 -0.1383
-17 7 10 1.2640 0.1818
-17 7 11 0.3888 -0.0890
-17 7 12 -0.1975 0.5406
-17 7 13 1.1222 -0.3135
-17 7 14 -0.2159 -0.8974
-17 7 15 -1.1289 0.7975
-17 7 16 -0.5592 0.2330
-17 7 17 0.3856 -0.2564
-17 7 18 0.9660 0.5220
-17 7 19 -0.3585 -1.3511
-17 7 20 0.3261 -0.0811
-17 7 21 0.9031 2.6209
-17 7 22 -2.5158 -0.9582
-17 7 23 -1.1473 -2.3752
-17 7 24 3.9183 0.8424
-17 7 25 0.9711 1.1338
-17 9 1 0.4454 -0.2721
-17 9 2 0.4252 0.0126
-17 9 3 -1.7619 0.0676
-17 9 4 -0.0831 -0.2019
-17 9 5 1.3348 -0.0807
-17 9 6 0.2647 0.5388
-17 9 7 0.3327 0.2770
-17 9 8 -0.7950 -0.5336
-17 9 9 -1.6026 -0.1770
-17 9 10 0.6167 0.0160
-17 9 11 1.6748 -0.0085
-17 9 12 0.1352 0.3881
-17 9 13 -0.6146 -0.2023
-17 9 14 -0.2177 -0.1111
-17 9 15 -0.9706 0.2762
-17 9 16 -0.2926 -0.3380
-17 9 17 1.9044 0.4969
-17 9 18 0.1974 -0.1266
-17 9 19 -1.3631 -1.3074
-17 9 20 0.3862 1.5036
-17 9 21 -0.0156 0.8776
-17 9 22 -0.2361 -2.3476
-17 9 23 0.9024 0.2518
-17 11 1 0.5637 -0.9497
-17 11 2 -0.2533 0.5459
-17 11 3 -0.2299 0.4870
-17 11 4 1.5897 0.4392
-17 11 5 0.1522 0.3011
-17 11 6 -0.5190 -0.3347
-17 11 7 -0.3338 -0.6555
-17 11 8 -1.7860 -0.3467
-17 11 9 0.3325 0.3455
-17 11 10 3.3703 0.3037
-17 11 11 0.2059 0.3577
-17 11 12 -3.1973 0.2428
-17 11 13 -0.5765 -1.0391
-17 11 14 1.3836 -0.4115
-17 11 15 0.2296 1.2602
-17 11 16 0.9955 0.6640
-17 11 17 0.1397 -0.9909
-17 11 18 -2.4208 -1.7386
-17 11 19 -0.0386 0.8358
-17 11 20 2.1867 2.7128
-17 13 1 0.0819 0.4262
-17 13 2 0.4690 1.2291
-17 13 3 1.5132 0.5023
-17 13 4 0.8215 0.6598
-17 13 5 -1.9134 -1.2146
-17 13 11 -0.9025 0.0050
-17 13 12 -0.5275 0.2876
-17 13 13 0.5076 -0.5443
-17 13 14 1.5517 1.2665
-17 13 15 0.5705 0.8080
-17 13 16 -0.7954 -2.0664
-17 15 1 1.5494 1.7503
-17 15 2 3.1851 -0.2648
-17 15 3 -1.2319 -0.5862
-17 15 4 -2.4402 -0.0785
-17 15 5 -0.7925 -1.8507
-17 15 6 1.6153 0.1944
-17 15 7 2.5345 3.0687
-17 15 8 -1.2291 0.3161
-17 15 9 -2.1810 -2.7921
-17 15 10 1.2880 -0.7198
-16 0 2 -4.5601 7.2406
-16 0 4 3.6542 -5.6044
-16 0 6 -1.9840 1.9299
-16 0 8 1.3563 0.5303
-16 0 10 -0.5190 -0.4444
-16 0 12 -1.1334 -0.6763
-16 0 14 1.5246 1.0395
-16 0 16 0.1676 -0.4952
-16 0 18 -1.4525 -0.0016
-16 0 20 0.3604 -0.2167
-16 0 22 1.7989 0.7904
-16 0 24 -2.8197 -0.8379
-16 0 26 2.4532 0.3944
-16 0 28 -2.0624 -0.8008
-16 0 30 2.5623 2.8133
-16 0 32 -3.1525 -4.9294
-16 2 1 -3.2062 2.8951
-16 2 2 0.3998 0.4425
-16 2 3 3.3843 -3.1872
-16 2 4 0.7407 -0.1225
-16 2 5 -1.1207 1.3892
-16 2 6 -0.7673 -0.1402
-16 2 7 -0.0518 1.0003
-16 2 8 -1.0139 0.1379
-16 2 9 -0.5158 -1.8220
-16 2 10 3.2381 -0.0292
-16 2 11 0.5002 0.6787
-16 2 12 -3.4441 0.0794
-16 2 13 0.4179 0.9231
-16 2 14 1.0428 -0.1322
-16 2 15 -0.2319 -1.4579
-16 2 16 1.6875 0.0012
-16 2 17 -1.3630 0.8678
-16 2 18 -2.2666 0.0272
-16 2 19 2.5210 -0.2564
-16 2 20 0.8260 0.1672
-16 2 21 -2.2820 0.3253
-16 2 22 0.5913 -0.0966
-16 2 23 1.3748 -0.4452
-16 2 24 -0.7992 -0.3353
-16 2 25 -0.6247 -0.3210
-16 2 26 0.4403 0.3246
-16 2 27 0.1248 1.6162
-16 2 28 -0.4977 0.4574
-16 2 29 0.4490 -2.0731
-16 2 30 0.8513 -0.9931
-16 2 31 -1.1248 1.1872
-16 2 32 -0.6186 0.3662
-16 4 1 0.3191 -0.2541
-16 4 2 2.5975 0.1755
-16 4 3 1.7835 0.6316
-16 4 4 -0.8352 -0.1537
-16 4 5 -2.4613 -0.7591
-16 4 6 -0.8545 0.8508
-16 4 7 1.2910 0.6122
-16 4 8 -0.4093 -1.3040
-16 4 9 0.6427 -0.2244
-16 4 10 2.4509 0.7289
-16 4 11 -1.1529 -0.1297
-16 4 12 -1.8222 0.3960
-16 4 13 -0.7680 0.2790
-16 4 14 -0.7527 -0.8580
-16 4 15 3.3386 -0.3652
-16 4 16 2.0212 0.2248
-16 4 17 -3.8803 0.3436
-16 4 18 -0.8471 0.5721
-16 4 19 2.1282 0.0353
-16 4 20 -1.1642 -0.4943
-16 4 21 -0.2736 -0.4973
-16 4 22 2.0540 -0.1629
-16 4 23 -0.1585 0.4755
-16 4 24 -1.2738 0.2910
-16 4 25 -0.0824 -0.2790
-16 4 26 -0.0788 0.3673
-16 4 27 -0.3766 0.8587
-16 4 28 0.5711 -0.9869
-16 4 29 1.5824 -2.1436
-16 4 30 -0.0586 0.9638
-16 4 31 -2.3427 2.8044
-16 4 32 -0.6336 -0.5707
-16 6 1 0.7787 -0.2363
-16 6 2 2.5647 -0.1740
-16 6 3 -0.4143 0.6926
-16 6 4 -3.1855 -0.0486
-16 6 5 -0.4976 -0.5934
-16 6 6 3.4010 0.1716
-16 6 7 -0.5487 0.1422
-16 6 8 -3.6423 0.1110
-16 6 9 3.2021 0.0442
-16 6 10 4.1388 -0.5838
-16 6 11 -3.9102 0.2082
-16 6 12 -4.9112 0.5848
-16 6 13 1.2527 -0.3129
-16 6 14 5.3424 -0.0410
-16 6 15 2.1179 -0.2709
-16 6 16 -4.3919 -0.3636
-16 6 17 -3.3882 0.9883
-16 6 18 2.0624 0.3345
-16 6 19 2.6082 -0.7036
-16 6 20 0.1399 -0.3329
-16 6 21 -1.5949 -0.5136
-16 6 22 -1.0102 0.5348
-16 6 23 1.6324 1.2046
-16 6 24 0.9663 -0.4816
-16 6 25 -2.3571 -0.6278
-16 6 26 -0.9813 0.1189
-16 6 27 2.3653 -0.1667
-16 6 28 1.3072 -0.1634
-16 6 29 -1.0810 0.0140
-16 6 30 -1.6100 0.9675
-16 6 31 -0.4619 0.7906
-16 8 1 0.9693 -0.6812
-16 8 2 -1.6720 -0.1339
-16 8 3 0.6378 0.8620
-16 8 4 1.5386 -0.2390
-16 8 5 -0.9418 -0.3996
-16 8 6 -0.6715 0.3910
-16 8 7 -0.4477 -0.0891
-16 8 8 0.8604 -0.1900
-16 8 9 2.4148 -0.1070
-16 8 10 -1.9178 -0.0773
-16 8 11 -3.7128 0.5535
-16 8 12 2.1574 0.0981
-16 8 13 4.0561 -0.2122
-16 8 14 -1.1991 -0.1030
-16 8 15 -3.5555 -0.7812
-16 8 16 0.0422 0.4308
-16 8 17 2.2510 1.1678
-16 8 18 0.5065 -0.5498
-16 8 19 -0.6261 -0.5374
-16 8 20 -0.1587 -0.2764
-16 8 21 -0.5610 -0.1415
-16 8 22 -0.9861 1.3051
-16 8 23 1.1305 0.2621
-16 8 24 2.2704 -0.9189
-16 8 25 -1.2587 -0.4137
-16 8 26 -3.0006 -0.8795
-16 8 27 0.9151 0.9868
-16 8 28 3.1317 2.2314
-16 8 29 -0.3310 -1.3063
-16 8 30 -2.8959 -1.9311
-16 10 1 -2.4941 -0.5902
-16 10 2 1.8356 0.0117
-16 10 3 3.9921 0.8071
-16 10 4 -3.0582 -0.1914
-16 10 5 -2.7373 -0.4163
-16 10 6 2.9974 -0.1366
-16 10 7 -0.0527 -0.2013
-16 10 8 -2.0270 0.4170
-16 10 9 1.7020 0.2931
-16 10 10 1.0905 -0.0261
-16 10 11 -1.6513 0.0794
-16 10 12 -0.5592 -0.4795
-16 10 13 1.1739 -0.0989
-16 10 14 0.2125 0.1815
-16 10 15 -1.3480 -0.2785
-16 10 16 -0.0141 0.5262
-16 10 17 2.1630 0.3195
-16 10 18 -0.0930 -0.4304
-16 10 19 -2.5291 -0.1054
-16 10 20 0.5856 -0.5265
-16 10 21 1.1388 0.3019
-16 10 22 -1.5648 1.1922
-16 10 23 1.8612 -0.4711
-16 10 24 2.3525 -1.0643
-16 10 25 -4.5169 -0.3635
-16 10 26 -2.4701 0.7556
-16 10 27 5.1019 1.6849
-16 10 28 2.0084 -0.6061
-16 12 1 -1.4288 -0.0432
-16 12 2 0.3708 -0.5694
-16 12 3 1.5301 -0.2805
-16 12 4 -0.8920 0.1466
-16 12 5 -1.6782 0.4944
-16 12 6 -0.1632 -0.1904
-16 12 7 1.5408 -0.2014
-16 12 8 1.4059 0.5182
-16 12 9 -0.7519 -0.2805
-16 12 10 -1.8610 -0.1788
-16 12 11 -0.7466 0.4306
-16 12 12 1.9177 -0.4211
-16 12 13 2.3527 -0.2635
-16 12 14 -2.1977 0.1335
-16 12 15 -3.3359 0.1288
-16 12 16 2.8665 0.5236
-16 12 17 3.3820 -0.0501
-16 12 18 -3.7376 -0.1464
-16 12 19 -2.3535 -0.1515
-16 12 20 4.1841 -0.9683
-16 12 21 0.4051 0.2911
-16 12 22 -3.4336 1.4889
-16 12 23 1.5512 -0.0908
-16 12 24 1.6321 -1.4027
-16 14 1 0.5828 -1.1118
-16 14 2 -1.2535 -0.2943
-16 14 3 -0.0016 1.3532
-16 14 4 0.5370 0.4649
-16 14 5 -0.4193 -0.4972
-16 14 6 0.7567 -0.3514
-16 14 7 0.1946 0.0649
-16 14 8 -1.4558 -0.1521
-16 14 9 0.4679 -0.0761
-16 14 10 0.8618 0.9368
-16 14 11 -0.8258 -0.1074
-16 14 12 0.6371 -1.1887
-16 14 13 0.6790 -0.1213
-16 14 14 -1.7685 0.2709
-16 14 15 -0.4931 1.1123
-16 14 16 1.7358 1.0535
-16 14 17 0.3580 -1.4525
-16 14 18 -1.0113 -1.3970
-16 14 19 0.2623 0.2730
-16 14 20 0.6011 0.5429
-16 14 21 -1.3874 1.0047
-16 16 1 -5.5391 -0.1268
-16 16 2 -3.9318 1.1552
-16 16 3 6.0078 0.3113
-16 16 4 1.6528 -0.4183
-16 16 5 -4.5347 0.2303
-16 16 6 -0.7579 -1.1881
-16 16 7 2.4161 -0.5772
-16 16 8 1.2285 1.7827
-16 16 9 -0.6854 0.8384
-16 16 10 -1.6074 -1.2628
-16 16 11 -0.2713 -1.2116
-16 16 12 1.1028 0.2173
-16 16 13 0.8309 0.6347
-16 16 14 -0.3773 1.2302
-16 16 15 -1.6766 1.3113
-16 18 1 -4.2331 0.9271
-16 18 2 2.6318 1.5770
-16 18 3 1.5997 -1.2185
-16 18 4 -2.7305 -0.6679
-16 18 5 0.0454 -0.0758
-16 18 6 1.7416 -0.8173
-16 18 7 0.4982 1.6093
-16 18 8 -0.4194 1.2405
-15 1 1 3.3896 0.9116
-15 1 2 -0.6200 -0.7598
-15 1 3 -3.9497 0.5742
-15 1 4 0.4225 1.7856
-15 1 5 2.1008 -1.1115
-15 1 6 -0.4695 -1.3213
-15 1 7 -0.8205 0.4490
-15 1 8 -0.5273 0.0380
-15 1 9 1.8435 0.4880
-15 1 10 1.8257 0.6637
-15 1 11 -3.4004 -0.7564
-15 1 12 -2.3489 -0.2979
-15 1 13 3.5751 0.3901
-15 1 14 2.6542 -0.5289
-15 1 15 -2.8751 -0.2283
-15 1 16 -3.3951 0.9477
-15 1 17 2.4402 0.7345
-15 1 18 3.8050 -0.6372
-15 1 19 -1.9890 -1.2727
-15 1 20 -3.1530 0.1281
-15 1 21 0.5934 0.9764
-15 1 22 2.1149 -0.1144
-15 1 23 1.5822 -0.0277
-15 1 24 -1.8521 0.3782
-15 1 25 -3.0374 -0.6051
-15 1 26 2.6281 -0.0971
-15 1 27 2.6382 0.5209
-15 1 28 -3.3472 -0.6370
-15 1 29 -1.3886 -0.2922
-15 1 30 2.3782 0.6414
-15 1 31 1.2883 0.5371
-15 1 32 0.2462 0.5838
-15 1 33 -2.2297 -1.0808
-15 1 34 -2.1387 -1.8687
-15 1 35 2.1056 1.1816
-15 1 36 1.6974 1.8045
-15 1 37 -0.4239 -0.4673
-15 3 1 -1.4189 0.5942
-15 3 2 -4.3624 0.1289
-15 3 3 1.5950 -0.0938
-15 3 4 2.1780 -0.4067
-15 3 5 -3.1959 -0.1325
-15 3 6 1.7591 0.1438
-15 3 7 4.1763 -0.3694
-15 3 8 -2.9811 0.4132
-15 3 9 -3.7100 0.8759
-15 3 10 1.1741 -0.7085
-15 3 11 3.2016 -0.6019
-15 3 12 -0.0155 0.4120
-15 3 13 -3.6236 -0.1828
-15 3 14 1.2411 0.0891
-15 3 15 4.3662 0.4566
-15 3 16 -2.5136 -0.0946
-15 3 17 -4.6394 0.3271
-15 3 18 1.5045 -0.3880
-15 3 19 4.0486 -1.4415
-15 3 20 0.5686 0.6416
-15 3 21 -2.3310 1.5147
-15 3 22 -0.7370 -0.3608
-15 3 23 -0.1492 -0.1548
-15 3 24 -1.5163 -0.0014
-15 3 25 2.4053 -1.3758
-15 3 26 3.4872 0.0824
-15 3 27 -3.6692 1.5774
-15 3 28 -2.9920 0.0045
-15 3 29 3.4148 -0.5759
-15 3 30 1.2018 -0.1595
-15 3 31 -1.5131 -0.0211
-15 3 32 -0.3771 0.4419
-15 3 33 -0.6155 -0.8703
-15 3 34 0.3995 -0.7486
-15 3 35 0.9559 2.4971
-15 3 36 0.2698 0.8641
-15 5 1 -1.6798 0.0729
-15 5 2 -3.5049 0.0556
-15 5 3 1.5826 -0.2023
-15 5 4 0.9744 0.1107
-15 5 5 1.0244 0.0613
-15 5 6 3.0192 -0.4216
-15 5 7 -3.1898 0.2152
-15 5 8 -5.1870 0.6582
-15 5 9 2.6816 -0.4293
-15 5 10 5.1444 -0.3807
-15 5 11 -1.5373 0.3073
-15 5 12 -5.0947 -0.3339
-15 5 13 2.5685 0.2171
-15 5 14 6.2675 0.8119
-15 5 15 -4.6192 -0.6834
-15 5 16 -7.6224 -0.5586
-15 5 17 4.1603 0.6682
-15 5 18 7.3085 -0.1248
-15 5 19 -0.6082 -0.4335
-15 5 20 -4.5734 0.4696
-15 5 21 -2.5340 0.3294
-15 5 22 0.8198 -0.0687
-15 5 23 2.1789 -0.0839
-15 5 24 1.5835 -0.7433
-15 5 25 0.5114 -0.4859
-15 5 26 -1.9010 1.1870
-15 5 27 -1.9774 0.7570
-15 5 28 1.1227 -0.6670
-15 5 29 0.8642 -0.2230
-15 5 30 0.2467 -0.5851
-15 5 31 0.9644 -0.5230
-15 5 32 -2.0604 1.4706
-15 5 33 -1.6115 0.5644
-15 5 34 2.9568 -1.0986
-15 5 35 1.3275 0.1077
-15 5 36 -1.9449 -0.0785
-15 7 1 -3.0866 0.1606
-15 7 2 -0.9660 0.3450
-15 7 3 2.6007 -0.4231
-15 7 4 0.5213 -0.1037
-15 7 5 0.6232 0.2956
-15 7 6 -0.6347 -0.2178
-15 7 7 -3.8226 0.1402
-15 7 8 -0.3121 0.2512
-15 7 9 4.2826 -0.3452
-15 7 10 2.4156 0.0194
-15 7 11 -2.4775 -0.0028
-15 7 12 -3.2545 -0.0870
-15 7 13 0.6656 0.5295
-15 7 14 1.4357 -0.2039
-15 7 15 0.0549 -0.6558
-15 7 16 1.2036 0.2317
-15 7 17 -0.4684 0.4257
-15 7 18 -2.1591 0.2751
-15 7 19 1.7991 -0.3361
-15 7 20 1.4962 -0.6072
-15 7 21 -3.7395 0.4207
-15 7 22 -1.1953 0.3481
-15 7 23 4.3438 -0.2260
-15 7 24 2.1285 -0.1391
-15 7 25 -2.6823 -0.3158
-15 7 26 -3.0538 0.3354
-15 7 27 0.3262 0.8340
-15 7 28 2.4191 -0.1403
-15 7 29 1.1763 -1.2714
-15 7 30 -0.1813 -0.9994
-15 7 31 -2.2472 1.7692
-15 7 32 -2.2196 2.2315
-15 7 33 3.2283 -1.9972
-15 9 1 -1.5228 -0.0012
-15 9 2 2.2844 0.3497
-15 9 3 0.1583 -0.2507
-15 9 4 -1.7049 -0.0179
-15 9 5 0.4734 -0.0853
-15 9 6 -1.0265 -0.0302
-15 9 7 -0.8461 0.6557
-15 9 8 3.0211 -0.2134
-15 9 9 2.7821 -0.6306
-15 9 10 -1.8651 0.2597
-15 9 11 -5.7798 -0.0672
-15 9 12 -1.5245 0.1309
-15 9 13 7.1358 0.5469
-15 9 14 4.2250 -0.4531
-15 9 15 -5.3863 -0.4533
-15 9 16 -4.3682 0.1271
-15 9 17 1.8609 0.4581
-15 9 18 2.6928 0.5292
-15 9 19 1.1819 -0.7412
-15 9 20 -1.1628 -0.7235
-15 9 21 -2.5967 0.5505
-15 9 22 0.2894 0.3881
-15 9 23 2.5108 0.1927
-15 9 24 0.9520 -0.0502
-15 9 25 -1.6895 -0.5951
-15 9 26 -2.6131 -0.2075
-15 9 27 0.8576 0.5894
-15 9 28 3.3840 0.6405
-15 9 29 0.0708 -1.2195
-15 9 30 -2.8626 -1.0764
-15 9 31 -1.6343 2.6373
-15 9 32 1.9022 1.2076
-15 11 1 3.0249 0.3454
-15 11 2 -0.3025 -0.0853
-15 11 3 -5.6930 -0.5638
-15 11 4 0.7036 0.5055
-15 11 5 5.1071 0.3149
-15 11 6 0.2207 -0.2517
-15 11 7 -1.9918 0.0398
-15 11 8 -0.8014 -0.3640
-15 11 9 -0.0428 -0.1312
-15 11 10 -0.1520 0.3101
-15 11 11 -0.8252 0.0514
-15 11 12 1.6618 0.3560
-15 11 13 2.8441 -0.1598
-15 11 14 -2.1092 -0.4658
-15 11 15 -3.1327 0.2585
-15 11 16 1.2818 -0.2638
-15 11 17 0.9189 0.2058
-15 11 18 -0.1176 0.9302
-15 11 19 1.8123 -0.9869
-15 11 20 -0.5831 -1.1515
-15 11 21 -2.8434 1.1688
-15 11 22 0.4023 1.2485
-15 11 23 2.1937 -0.4824
-15 11 24 0.6466 -0.9795
-15 11 25 -1.3197 -0.5623
-15 11 26 -1.6622 0.0158
-15 11 27 0.9105 1.6064
-15 11 28 1.6910 0.7442
-15 11 29 -0.7172 -2.4855
-15 11 30 -1.2069 -0.2332
-15 11 31 0.5004 2.7976
-15 13 1 -1.6670 0.0277
-15 13 2 -4.1106 -0.0855
-15 13 3 1.7982 0.2435
-15 13 4 6.0127 0.1248
-15 13 5 -1.1715 -0.6866
-15 13 6 -4.7864 0.2253
-15 13 7 0.3735 0.5591
-15 13 8 2.1695 -0.6463
-15 13 9 0.2262 -0.1130
-15 13 10 -0.4403 0.3351
-15 13 11 -0.9758 0.1574
-15 13 12 0.0115 0.3787
-15 13 13 2.1789 -0.5212
-15 13 14 -0.0079 -0.3136
-15 13 15 -3.2401 0.4331
-15 13 16 -0.1378 -0.4003
-15 13 17 3.2779 0.0538
-15 13 18 0.2321 0.5072
-15 13 19 -2.4089 -0.3649
-15 13 20 0.0803 0.0158
-15 13 21 1.4421 0.3975
-15 13 22 -0.7829 0.0738
-15 13 23 -0.6263 -0.0503
-15 13 24 1.6688 -1.1011
-15 13 25 -0.0673 -1.1578
-15 13 26 -2.5906 2.1286
-15 13 27 0.1662 2.9145
-15 13 28 3.1330 -2.4754
-15 15 1 -1.7576 0.0749
-15 15 2 2.2832 -0.7192
-15 15 3 2.0685 -0.2430
-15 15 4 -0.8767 0.6805
-15 15 5 -1.3709 -0.0577
-15 15 6 0.4160 -0.0970
-15 15 7 0.3369 -0.0388
-15 15 8 -1.0655 -0.2322
-15 15 9 0.1382 0.1132
-15 15 10 1.5331 0.0717
-15 15 11 -0.1686 0.6522
-15 15 12 -0.6605 0.1118
-15 15 13 0.1942 -1.2183
-15 15 14 -1.3634 -0.0048
-15 15 15 0.1443 0.3039
-15 15 16 3.2327 -0.2098
-15 15 17 -1.3162 1.0072
-15 15 18 -3.8847 0.2032
-15 15 19 2.5004 -1.1419
-15 15 20 3.3740 0.1075
-15 15 21 -2.1872 0.9019
-15 15 22 -2.2809 -0.3008
-15 15 23 0.3946 -1.7971
-15 15 24 1.1458 -0.3010
-15 15 25 0.9769 3.2012
-15 17 1 -1.0269 0.6110
-15 17 2 2.0800 -0.8485
-15 17 3 2.5668 0.0721
-15 17 4 1.0509 0.7090
-15 17 5 -3.6654 -0.2671
-15 17 6 -2.7762 -0.0198
-15 17 7 2.5719 -0.3337
-15 17 8 1.7884 0.1210
-15 17 9 -0.3015 0.7239
-15 17 10 0.8333 -0.2736
-15 17 11 -1.2195 0.0363
-15 17 12 -2.7896 -0.2155
-15 17 13 1.3124 -1.3901
-15 17 14 3.1119 0.1591
-15 17 15 -0.5973 2.2221
-15 17 16 -2.9164 0.9639
-15 17 17 -0.0787 -2.5221
-15 17 18 3.2034 -1.6595
-15 17 19 0.3313 2.9327
-15 17 20 -3.0122 1.2667
-15 19 1 2.5365 1.7357
-15 19 2 0.2644 -0.8378
-15 19 3 1.7291 -0.4133
-15 19 4 -0.9494 0.0681
-15 19 5 -4.9150 0.3691
-15 19 6 1.0957 0.4996
-15 19 7 4.2703 -0.2978
-15 19 8 -0.4087 0.2889
-15 19 9 -0.7011 -0.4769
-15 19 10 0.0602 -0.8865
-15 19 11 -2.4795 0.8481
-15 19 12 -0.1852 -0.2445
-15 19 13 2.8836 -0.5927
-15 19 14 -0.1309 2.1052
-15 19 15 -1.2759 0.7704
-14 0 2 -11.4618 -6.9926
-14 0 4 12.1390 3.6782
-14 0 6 -8.7041 0.1457
-14 0 8 4.5660 -2.3589
-14 0 10 -2.5727 2.3814
-14 0 12 2.8265 -1.2571
-14 0 14 -4.3102 0.4924
-14 0 16 5.8924 -0.6001
-14 0 18 -6.3174 0.9508
-14 0 20 4.9437 -1.0115
-14 0 22 -2.2795 0.9774
-14 0 24 -0.2390 -1.0070
-14 0 26 0.7966 0.7713
-14 0 28 0.8655 -0.2155
-14 0 34 2.6822 0.8897
-14 0 36 -1.7349 -0.0190
-14 0 38 -1.8892 -2.2121
-14 0 40 3.6962 4.2235
-14 2 1 -2.7565 -4.1254
-14 2 2 -3.5611 -0.8145
-14 2 3 6.2480 3.0547
-14 2 4 -0.2754 -0.0766
-14 2 5 -5.8020 -0.7090
-14 2 6 2.5214 0.6657
-14 2 7 3.0891 -1.0345
-14 2 8 -3.4623 -0.6351
-14 2 9 -1.6575 1.0835
-14 2 10 3.7307 0.3484
-14 2 11 2.1192 -0.1025
-14 2 12 -2.9941 -0.0910
-14 2 13 -2.7588 -0.4183
-14 2 14 1.0949 -0.1395
-14 2 15 2.6318 -0.0283
-14 2 16 0.5137 0.2902
-14 2 17 -2.2051 0.5462
-14 2 18 -0.1894 -0.2723
-14 2 19 2.1028 -0.3107
-14 2 20 -1.3619 0.1806
-14 2 21 -2.1583 -0.2779
-14 2 22 1.7714 -0.1348
-14 2 23 1.7720 0.3687
-14 2 24 -0.2991 0.1001
-14 2 25 -1.4385 0.0077
-14 2 26 -1.2152 -0.0492
-14 2 27 2.5897 -0.0280
-14 2 28 0.8803 0.0413
-14 2 29 -4.5184 -0.6568
-14 2 30 1.1909 -0.0596
-14 2 31 4.0168 1.2362
-14 2 32 -3.5332 0.0164
-14 2 33 -0.5272 -0.6270
-14 2 34 4.9409 0.0756
-14 2 35 -1.8703 -1.0234
-14 2 36 -5.2413 -0.1062
-14 2 37 0.6288 2.2504
-14 2 38 4.9608 -0.0115
-14 2 39 1.3864 -2.0174
-14 2 40 -4.3250 0.2664
-14 4 1 -6.8337 -0.8915
-14 4 2 -0.6830 -0.4659
-14 4 3 3.0553 0.3256
-14 4 4 -2.0221 0.6351
-14 4 5 -0.0582 0.4163
-14 4 6 1.6359 -0.9986
-14 4 7 -1.3945 -0.5043
-14 4 8 -1.0724 0.9057
-14 4 9 1.9995 0.0256
-14 4 10 2.0462 -0.1656
-14 4 11 -2.1033 0.3151
-14 4 12 -2.3465 -0.5031
-14 4 13 1.5051 -0.1801
-14 4 14 -0.2915 0.4063
-14 4 15 -1.1544 -0.1809
-14 4 16 4.3587 0.1194
-14 4 17 2.8728 0.3601
-14 4 18 -6.1042 -0.2247
-14 4 19 -6.2957 -0.1255
-14 4 20 4.0599 -0.2615
-14 4 21 8.1471 -0.3723
-14 4 22 -0.7562 0.7097
-14 4 23 -6.1641 0.6139
-14 4 24 -0.8839 -0.5248
-14 4 25 2.0671 -0.2967
-14 4 26 1.5467 -0.1959
-14 4 27 0.7334 -0.1294
-14 4 28 -3.3426 0.6882
-14 4 29 -0.7588 0.0072
-14 4 30 4.9726 -0.3304
-14 4 31 -1.1400 0.4854
-14 4 32 -3.4959 -0.3854
-14 4 33 3.2977 -0.4177
-14 4 34 0.0497 0.2567
-14 4 35 -4.4395 -0.6454
-14 4 36 1.4583 0.9421
-14 4 37 4.4872 1.9518
-14 4 38 -0.6346 -2.0102
-14 4 39 -4.1249 -2.3789
-14 6 1 -0.1908 -0.0191
-14 6 2 0.8651 0.2186
-14 6 3 -2.1882 -0.1275
-14 6 4 -0.7055 0.0368
-14 6 5 2.3605 0.0545
-14 6 6 0.8144 -0.1589
-14 6 7 -0.9127 0.2311
-14 6 8 -1.0361 -0.0250
-14 6 9 0.6807 -0.3248
-14 6 10 1.1269 0.2746
-14 6 11 -1.5612 0.1145
-14 6 12 -1.3585 -0.3444
-14 6 13 0.5202 0.0259
-14 6 14 1.5675 0.2599
-14 6 15 3.4251 0.0795
-14 6 16 -0.4832 -0.0884
-14 6 17 -6.9581 -0.1783
-14 6 18 -2.4205 -0.0795
-14 6 19 6.3859 0.1347
-14 6 20 5.1712 -0.0390
-14 6 21 -2.6297 -0.0581
-14 6 22 -5.3495 0.4960
-14 6 23 0.1568 -0.0076
-14 6 24 3.1544 -0.6792
-14 6 25 -0.7979 -0.0172
-14 6 26 -0.6357 0.0836
-14 6 27 1.6723 0.2614
-14 6 28 -0.8786 0.7000
-14 6 29 -0.5370 -0.4262
-14 6 30 0.9793 -0.7140
-14 6 31 -0.6702 0.0192
-14 6 32 0.3201 0.1790
-14 6 35 1.1251 -0.8918
-14 6 36 2.1424 1.2240
-14 6 37 -0.9263 0.5885
-14 6 38 -1.4687 -2.0700
-14 8 1 1.2788 0.0566
-14 8 2 -0.7623 -0.4834
-14 8 3 -1.9346 0.1651
-14 8 4 -0.1892 0.3003
-14 8 5 2.3080 -0.4211
-14 8 6 3.7097 -0.0880
-14 8 7 -2.0435 0.4449
-14 8 8 -6.8962 0.1267
-14 8 9 1.1280 -0.2306
-14 8 10 6.3493 -0.4451
-14 8 11 -0.3612 -0.0094
-14 8 12 -3.0610 0.6154
-14 8 13 0.4893 0.2482
-14 8 14 0.9153 -0.3566
-14 8 15 -1.0313 -0.5041
-14 8 16 -1.3644 0.0484
-14 8 17 0.9848 0.5022
-14 8 18 1.9012 -0.0438
-14 8 19 -0.6280 -0.1211
-14 8 20 -0.2792 0.0562
-14 8 21 0.9893 -0.1831
-14 8 22 -1.8305 0.1339
-14 8 23 -1.7052 0.1334
-14 8 24 1.4117 -0.1774
-14 8 25 1.6442 -0.2257
-14 8 26 1.1211 -0.0731
-14 8 27 -1.1759 0.7261
-14 8 29 1.1774 -0.8842
-14 8 30 1.9676 -0.1573
-14 8 31 -0.8950 0.1765
-14 8 32 -0.5174 0.1065
-14 8 33 -0.3323 0.5533
-14 8 34 -0.6105 -0.0099
-14 8 35 1.0897 -0.3613
-14 8 36 1.3022 -0.3556
-14 8 37 -0.4172 -0.2316
-14 10 1 0.4686 0.2810
-14 10 2 -3.8126 -0.1787
-14 10 3 0.4685 -0.3444
-14 10 4 3.2405 -0.1337
-14 10 5 2.0112 0.3936
-14 10 6 -1.7691 0.3347
-14 10 7 -7.3970 -0.3262
-14 10 8 -0.3581 -0.0307
-14 10 9 10.6829 0.0529
-14 10 10 1.6829 -0.3827
-14 10 11 -8.6007 0.2796
-14 10 12 -1.1543 0.3519
-14 10 13 3.3891 -0.1974
-14 10 14 -0.3684 -0.0015
-14 10 15 0.4039 -0.3054
-14 10 16 1.0628 -0.2412
-14 10 17 -1.1065 0.5236
-14 10 18 -0.7569 0.3622
-14 10 19 0.4747 -0.1886
-14 10 20 1.1290 -0.4813
-14 10 21 -0.0558 -0.1330
-14 10 22 -2.5978 0.4550
-14 10 23 -0.7062 0.2013
-14 10 24 3.3028 -0.2995
-14 10 25 2.4496 -0.3909
-14 10 26 -2.3582 0.2470
-14 10 27 -4.1834 0.6033
-14 10 28 1.2169 -0.0103
-14 10 29 4.5390 -0.2964
-14 10 30 -0.6341 -0.9536
-14 10 31 -3.2216 -0.3545
-14 10 32 -0.2721 2.1519
-14 10 33 0.7699 0.6435
-14 10 34 1.2263 -2.3392
-14 10 35 1.7199 -0.5364
-14 10 36 -0.9727 1.4098
-14 12 1 0.8475 -0.2681
-14 12 2 1.6197 0.2323
-14 12 3 0.4125 0.2915
-14 12 4 -5.1105 -0.4555
-14 12 5 -0.4752 -0.0085
-14 12 6 4.4067 0.4214
-14 12 7 -1.1427 -0.0067
-14 12 8 -0.9414 0.0820
-14 12 9 2.3013 -0.3916
-14 12 10 -1.5964 -0.4724
-14 12 11 -0.7677 0.6409
-14 12 12 1.6741 0.4277
-14 12 13 -2.8412 -0.2445
-14 12 14 -0.5668 -0.4473
-14 12 15 5.3632 -0.4655
-14 12 16 -0.2537 0.6030
-14 12 17 -4.6141 0.7453
-14 12 18 0.5504 -0.2434
-14 12 19 1.9357 -0.3606
-14 12 20 -0.3025 -0.5682
-14 12 21 -0.1093 -0.2912
-14 12 22 -0.8684 0.9735
-14 12 23 -0.2833 0.6825
-14 12 24 2.6604 -0.8028
-14 12 25 0.3971 -0.5656
-14 12 26 -3.9379 0.5370
-14 12 27 -0.4229 0.2570
-14 12 28 4.1331 -0.1142
-14 12 29 0.0954 -0.4718
-14 12 30 -3.5544 -0.6604
-14 12 31 -0.2317 1.3632
-14 12 32 2.3423 1.1372
-14 12 33 1.0171 -2.0263
-14 12 34 -0.6177 -0.6974
-14 14 1 -1.4445 -0.2253
-14 14 2 -2.3184 0.2200
-14 14 3 -2.9570 -0.0003
-14 14 4 -0.8138 -0.2883
-14 14 5 5.8829 0.4761
-14 14 6 1.2683 0.0899
-14 14 7 -6.2584 -0.3519
-14 14 8 0.1804 0.1228
-14 14 9 4.7181 -0.2702
-14 14 10 -0.7507 0.0539
-14 14 11 -2.0179 0.3611
-14 14 12 -0.9806 -0.3341
-14 14 13 -1.2555 0.1065
-14 14 14 3.7326 0.0091
-14 14 15 3.6833 -0.2950
-14 14 16 -5.1095 0.6864
-14 14 17 -3.5461 0.2921
-14 14 18 4.0609 -0.6549
-14 14 19 1.1736 -0.6683
-14 14 20 -1.5072 -0.3015
-14 14 21 0.8134 0.8945
-14 14 22 -1.1626 0.9748
-14 14 23 -0.7644 -0.1745
-14 14 24 2.9945 -0.4325
-14 14 25 -0.1027 -1.0259
-14 14 26 -3.0537 -0.6957
-14 14 27 0.1267 1.8504
-14 14 28 1.2307 1.0651
-14 14 29 0.5068 -2.3193
-14 14 30 0.5823 -0.2540
-14 14 31 -0.9842 2.5931
-14 14 32 -0.5758 -0.8390
-14 16 1 -1.1396 -0.2975
-14 16 2 -0.5099 0.6663
-14 16 3 -2.8194 0.0690
-14 16 4 -0.5303 -0.4910
-14 16 5 4.7082 0.3493
-14 16 6 1.9078 -0.0492
-14 16 7 -3.6829 -0.0394
-14 16 8 -2.0465 0.0782
-14 16 9 1.5247 -0.6151
-14 16 10 1.0933 0.0771
-14 16 11 -0.0332 0.4635
-14 16 12 -0.6680 0.2822
-14 16 13 -0.5285 0.1209
-14 16 14 1.5627 -0.7309
-14 16 15 0.5554 0.0754
-14 16 16 -2.3394 0.6302
-14 16 17 -0.1598 -0.5779
-14 16 18 1.3291 -0.2797
-14 16 19 -0.4155 0.0292
-14 16 20 0.5835 0.0072
-14 16 21 0.3147 0.9963
-14 16 22 -1.1989 0.4804
-14 16 23 0.8941 -0.6528
-14 16 24 0.4696 -1.1452
-14 16 25 -1.8952 -1.0141
-14 16 26 -0.1841 1.4765
-14 16 27 0.9583 1.9331
-14 16 28 0.8296 -1.5174
-14 16 29 1.2148 -1.0137
-14 18 1 -5.9239 -0.2866
-14 18 2 -1.0413 0.9297
-14 18 3 1.9275 -0.3679
-14 18 4 1.6529 -0.3672
-14 18 5 3.6966 0.4731
-14 18 6 -0.9938 -0.4381
-14 18 7 -6.4778 -0.1922
-14 18 8 0.3100 -0.2018
-14 18 9 4.7935 0.0131
-14 18 10 -0.7050 1.1067
-14 18 11 -0.5899 0.1212
-14 18 12 1.1516 -0.5072
-14 18 13 -2.9486 -0.3063
-14 18 14 -0.0415 -0.7098
-14 18 15 4.2823 0.2409
-14 18 16 -2.1139 1.0164
-14 18 17 -4.2453 0.2749
-14 18 18 3.2183 -1.0467
-14 18 19 3.8028 -1.0486
-14 18 20 -2.6455 1.6828
-14 18 21 -2.5203 1.6637
-14 18 22 1.9198 -1.8188
-14 18 23 0.3832 -1.5878
-14 18 24 -1.9069 0.4815
-14 20 1 1.9229 -0.1094
-14 20 2 2.6090 0.5363
-14 20 3 -4.1618 -0.7636
-14 20 4 3.0159 0.1930
-14 20 5 5.7826 -0.4333
-14 20 6 -6.9135 -0.7879
-14 20 7 -5.1906 1.0233
-14 20 8 6.6212 0.4274
-14 20 9 1.6179 0.2785
-14 20 10 -3.3870 0.3965
-14 20 11 3.1127 -1.2013
-14 20 12 -0.2803 -0.7763
-14 20 13 -5.4221 0.2575
-14 20 14 2.6483 0.5620
-14 20 15 3.7282 1.0223
-14 20 16 -3.5193 -0.1469
-14 20 17 -0.4705 -1.3623
-14 20 18 3.5727 -0.4253
-14 20 19 -1.0335 1.4530
-13 1 1 -4.7612 0.4994
-13 1 2 2.0388 0.5242
-13 1 3 -0.3079 -1.5530
-13 1 4 -5.3004 -1.0626
-13 1 5 3.5031 1.4173
-13 1 6 4.2495 0.5482
-13 1 7 -2.9490 -0.3004
-13 1 8 0.4244 0.5076
-13 1 9 0.6546 -0.4142
-13 1 10 -5.2117 -1.1568
-13 1 11 0.6275 -0.0214
-13 1 12 6.9146 0.8987
-13 1 13 -0.1119 0.7901
-13 1 14 -4.9184 -0.1589
-13 1 15 -1.1743 -0.8347
-13 1 16 1.3526 -0.2123
-13 1 17 2.0281 0.3510
-13 1 18 1.1389 -0.1008
-13 1 19 -2.1068 -0.2113
-13 1 20 -1.8962 0.6160
-13 1 21 1.4507 0.5185
-13 1 22 1.8437 -0.7333
-13 1 23 0.1517 -0.6030
-13 1 24 -1.5566 0.4014
-13 1 25 -2.1707 0.1656
-13 1 26 1.4148 0.0135
-13 1 27 2.6472 0.2958
-13 1 28 -2.2521 -0.2787
-13 1 29 -0.5637 -0.2270
-13 1 30 3.7492 0.4190
-13 1 31 -2.1198 -0.2079
-13 1 32 -4.0856 -0.3554
-13 1 33 3.2702 0.3854
-13 1 34 3.0187 -0.1612
-13 1 35 -3.8282 -0.2469
-13 1 36 -2.4997 1.0245
-13 1 37 5.3105 0.5742
-13 1 38 2.7928 -1.5474
-13 1 39 -6.2577 -1.8408
-13 1 40 -1.7876 1.2051
-13 1 41 4.6553 3.2701
-13 1 42 -0.6583 -0.3877
-13 1 43 -1.6938 -3.6401
-13 3 1 2.7459 0.1679
-13 3 2 8.4799 -0.1484
-13 3 3 -3.5598 -0.5707
-13 3 4 -3.6221 0.6181
-13 3 5 2.8577 0.3026
-13 3 6 0.0353 -0.3604
-13 3 7 -0.2296 0.2304
-13 3 8 2.0847 -0.2200
-13 3 9 -2.5226 -0.1994
-13 3 10 -4.3692 0.1617
-13 3 11 3.3507 -0.5793
-13 3 12 6.6800 0.5341
-13 3 13 -1.8453 1.3674
-13 3 14 -7.2457 -0.8842
-13 3 15 -0.3834 -1.3444
-13 3 16 5.6735 0.4308
-13 3 17 1.1996 0.5171
-13 3 18 -3.7719 0.1732
-13 3 19 -0.3084 0.3071
-13 3 20 2.7309 -0.2171
-13 3 21 -0.7260 -0.3982
-13 3 22 -1.1497 -0.1940
-13 3 23 1.1105 -0.0784
-13 3 24 -2.3373 0.4696
-13 3 25 -1.3968 0.2641
-13 3 26 5.7318 -0.2812
-13 3 27 1.2445 0.2101
-13 3 28 -5.8336 -0.1149
-13 3 29 0.2327 -0.5899
-13 3 30 3.0906 0.2170
-13 3 31 -1.8383 0.0651
-13 3 32 -0.8691 0.0271
-13 3 33 1.7013 0.9023
-13 3 34 0.2059 -0.1386
-13 3 35 -0.7036 -1.1934
-13 3 36 0.8601 -0.0942
-13 3 37 0.5667 0.7451
-13 3 38 -2.7809 0.2688
-13 3 39 -0.2572 -0.5930
-13 3 40 3.4319 -0.1278
-13 3 42 -1.9674 0.0144
-13 5 1 7.2011 0.4170
-13 5 2 -1.2584 0.3534
-13 5 3 -3.6563 0.0126
-13 5 4 1.5521 -0.2400
-13 5 5 0.0843 -0.3774
-13 5 6 -2.2254 0.4609
-13 5 7 1.3908 0.1058
-13 5 8 2.9512 -0.6373
-13 5 9 -2.0234 0.4270
-13 5 10 -4.2827 0.2472
-13 5 11 3.0301 -0.5081
-13 5 12 6.0237 0.4730
-13 5 13 -3.1848 0.1629
-13 5 14 -6.6747 -0.7112
-13 5 15 1.2738 0.0629
-13 5 16 4.8377 0.0554
-13 5 17 0.9474 0.0131
-13 5 18 -1.2415 0.9775
-13 5 19 -0.7749 -0.1692
-13 5 20 -1.6167 -1.3348
-13 5 21 -1.1110 0.2426
-13 5 22 2.7005 0.4857
-13 5 23 1.3546 -0.1902
-13 5 24 -3.4825 0.7276
-13 5 25 0.7771 0.0279
-13 5 26 4.4154 -0.8221
-13 5 27 -2.1918 0.1118
-13 5 28 -3.4915 -0.3453
-13 5 29 1.0653 -0.1501
-13 5 30 0.4243 1.1844
-13 5 31 0.4107 0.1626
-13 5 32 1.7524 -0.5998
-13 5 33 0.0094 -0.0733
-13 5 34 -1.5927 -0.4829
-13 5 35 -1.2239 -0.3507
-13 5 36 1.0954 0.7119
-13 5 37 1.2964 0.9844
-13 5 38 -0.9333 -0.2684
-13 5 39 -0.6101 -1.3662
-13 5 40 -0.5889 0.1488
-13 5 41 0.5425 1.3723
-13 5 42 2.6828 -0.4967
-13 7 1 2.7871 0.1679
-13 7 2 1.1368 0.2250
-13 7 3 -1.9299 0.2463
-13 7 4 -3.0736 -0.3440
-13 7 5 -0.7819 -0.4520
-13 7 6 1.7171 0.3503
-13 7 7 3.1054 0.1678
-13 7 8 1.8328 -0.1234
-13 7 9 -4.6239 0.2149
-13 7 10 -4.3671 -0.1127
-13 7 11 6.0654 -0.2776
-13 7 12 4.9517 0.1458
-13 7 13 -7.0079 0.1230
-13 7 14 -5.3650 -0.0599
-13 7 15 5.9111 -0.0955
-13 7 16 6.2849 -0.0887
-13 7 17 -2.8180 0.3522
-13 7 18 -5.7164 0.3333
-13 7 19 0.4276 -0.6731
-13 7 20 2.4853 -0.4420
-13 7 21 -0.5717 0.4927
-13 7 22 1.1742 0.1662
-13 7 23 1.1227 0.4215
-13 7 24 -2.6676 0.1995
-13 7 25 0.4845 -1.2404
-13 7 26 2.5776 -0.1662
-13 7 27 -2.4654 0.9456
-13 7 28 -2.8146 -0.2152
-13 7 29 1.7254 0.0337
-13 7 30 3.2243 0.5140
-13 7 31 0.5027 -0.3644
-13 7 32 -2.4785 -0.4839
-13 7 33 -1.1681 -0.0191
-13 7 34 0.7455 0.0854
-13 7 35 0.8510 -0.0916
-13 7 36 0.6104 0.5880
-13 7 37 -1.3096 0.9787
-13 7 38 -0.9217 -1.1502
-13 7 39 1.0525 -1.5426
-13 7 40 0.5792 1.1793
-13 7 41 1.2152 1.1996
-13 9 1 1.0124 0.0084
-13 9 2 -2.7860 0.4250
-13 9 3 -4.3280 0.4470
-13 9 4 0.8049 -0.3487
-13 9 5 3.9586 -0.5525
-13 9 6 -0.1868 0.0378
-13 9 7 0.3088 0.3025
-13 9 8 1.8442 0.2433
-13 9 9 -4.8730 0.0021
-13 9 10 -3.3836 -0.2353
-13 9 11 6.4461 -0.2435
-13 9 12 2.7317 0.0118
-13 9 13 -5.2891 0.3574
-13 9 14 -1.1367 0.2201
-13 9 15 3.5949 -0.2907
-13 9 16 0.9726 -0.3926
-13 9 17 -2.1893 0.2243
-13 9 18 -1.5428 0.3899
-13 9 19 0.6133 -0.2643
-13 9 20 0.0016 -0.0952
-13 9 21 0.7478 0.1289
-13 9 22 3.3265 -0.2144
-13 9 23 -1.1224 0.2776
-13 9 24 -4.5247 0.2032
-13 9 25 1.1700 -0.5090
-13 9 26 2.2340 -0.1178
-13 9 27 -1.9490 0.3546
-13 9 28 0.3440 0.2444
-13 9 29 2.9217 -0.2415
-13 9 30 -1.1110 -0.1661
-13 9 31 -2.9885 0.3869
-13 9 32 1.4822 -0.3786
-13 9 33 2.2703 -0.4043
-13 9 34 -1.7636 0.6109
-13 9 35 -1.3859 0.1303
-13 9 36 0.0955 0.0731
-13 9 37 0.5586 0.0211
-13 9 38 2.7165 -0.8221
-13 9 39 -0.1974 0.1782
-13 9 40 -3.3538 0.5260
-13 11 1 -5.4524 0.4198
-13 11 2 0.2982 0.4969
-13 11 3 2.3567 -0.0584
-13 11 4 2.1611 -0.6262
-13 11 5 -0.3065 -0.3986
-13 11 6 -2.6261 0.2507
-13 11 7 2.3140 0.6455
-13 11 8 1.6354 0.0925
-13 11 9 -6.4397 -0.5421
-13 11 10 -0.8808 -0.1571
-13 11 11 8.1662 0.1465
-13 11 12 1.0146 0.1430
-13 11 13 -5.9292 0.2238
-13 11 14 -1.5833 -0.0608
-13 11 15 2.4971 -0.3579
-13 11 16 2.4024 -0.1796
-13 11 17 -0.6069 0.3550
-13 11 18 -3.3141 0.3801
-13 11 19 -0.5620 -0.2324
-13 11 20 2.9935 -0.4287
-13 11 21 2.7835 -0.1233
-13 11 22 -0.4233 0.5063
-13 11 23 -4.9883 0.5248
-13 11 24 -2.5878 -0.5384
-13 11 25 5.1643 -0.6824
-13 11 26 3.1199 0.2465
-13 11 27 -3.9145 0.6977
-13 11 28 -1.0624 0.1497
-13 11 29 2.6493 -0.6926
-13 11 30 -1.3952 -0.2776
-13 11 31 -0.7370 0.4122
-13 11 32 3.0703 0.5199
-13 11 33 -1.9416 0.1386
-13 11 34 -3.7799 -1.4480
-13 11 35 2.7414 -0.3776
-13 11 36 2.9290 2.5858
-13 11 37 -0.3098 0.0836
-13 11 38 -0.8764 -2.8507
-13 13 1 3.8174 0.0219
-13 13 2 5.5919 0.1705
-13 13 3 -4.0740 0.0697
-13 13 4 -1.8187 -0.2407
-13 13 5 2.5091 -0.4552
-13 13 6 0.0354 0.1367
-13 13 7 0.7317 0.7210
-13 13 8 -1.5493 -0.0812
-13 13 9 -4.4544 -0.5253
-13 13 10 3.7442 -0.0732
-13 13 11 6.5142 0.1594
-13 13 12 -3.7538 0.4056
-13 13 13 -5.5649 0.0306
-13 13 14 1.6363 -0.4426
-13 13 15 2.9463 -0.1361
-13 13 16 0.5521 0.0306
-13 13 17 -1.4981 0.2319
-13 13 18 -1.6672 0.2205
-13 13 19 1.6870 -0.1790
-13 13 20 2.0178 -0.0311
-13 13 21 -0.8740 0.0414
-13 13 22 -1.7994 -0.0811
-13 13 23 -2.2916 0.0328
-13 13 24 1.2508 -0.1658
-13 13 25 5.4412 -0.2030
-13 13 26 -1.7665 0.3683
-13 13 27 -6.0268 0.5471
-13 13 28 4.0149 -0.1725
-13 13 29 4.2271 -0.7527
-13 13 30 -5.6587 -0.3913
-13 13 31 -1.1673 0.7901
-13 13 32 4.2079 1.1653
-13 13 33 -2.1857 -1.1599
-13 13 34 -1.1525 -1.8158
-13 13 35 3.8412 1.9328
-13 13 36 -0.2319 1.8690
-13 15 1 2.3237 0.3042
-13 15 2 -3.3939 -0.0819
-13 15 3 -0.9621 -0.1055
-13 15 4 5.0903 -0.0413
-13 15 5 0.0392 -0.4688
-13 15 6 -4.7408 0.1995
-13 15 7 -0.6211 0.6484
-13 15 8 1.9967 -0.1326
-13 15 9 1.5306 -0.2826
-13 15 10 1.3195 -0.2253
-13 15 11 -1.4947 0.1739
-13 15 12 -2.5060 0.5438
-13 15 13 0.8628 -0.3184
-13 15 14 0.6526 -0.5049
-13 15 15 -0.5286 -0.1365
-13 15 16 2.0288 0.1943
-13 15 17 0.3300 0.9062
-13 15 18 -2.7788 0.0379
-13 15 19 0.1166 -0.7999
-13 15 20 2.0371 0.0025
-13 15 21 0.1510 -0.0584
-13 15 22 -2.4949 -0.1011
-13 15 23 -1.9471 0.4440
-13 15 24 4.8459 -0.0776
-13 15 25 3.3514 -0.2745
-13 15 26 -7.2356 0.3343
-13 15 27 -1.6338 0.6843
-13 15 28 8.1447 0.0087
-13 15 29 -2.2505 -2.0902
-13 15 30 -7.0720 -1.0324
-13 15 31 4.4341 3.6638
-13 15 32 3.9245 1.8131
-13 15 33 -3.4981 -4.4772
-13 17 1 0.5309 0.4676
-13 17 2 2.6283 -0.6325
-13 17 3 0.3665 -0.3148
-13 17 4 -2.2593 0.0541
-13 17 5 -1.8859 -0.0826
-13 17 6 -0.6761 0.7120
-13 17 7 2.5749 0.2674
-13 17 8 3.4556 -0.3909
-13 17 9 -2.1192 -0.2489
-13 17 10 -3.4483 -0.4638
-13 17 11 1.2196 0.4223
-13 17 12 1.2462 0.5502
-13 17 13 -0.7285 -0.6029
-13 17 14 0.4290 -0.2494
-13 17 15 0.7702 0.1919
-13 17 16 -0.5670 0.5293
-13 17 17 -0.5421 0.5754
-13 17 18 0.6185 -0.8256
-13 17 19 -0.2432 -0.7386
-13 17 20 -1.0793 0.2719
-13 17 21 0.4214 0.2446
-13 17 22 0.2983 0.5106
-13 17 23 0.8771 -0.1731
-13 17 24 1.8789 -0.7243
-13 17 25 -2.8041 0.8092
-13 17 26 -2.6293 0.9299
-13 17 27 4.2012 -0.8472
-13 17 30 1.8774 2.8499
-13 17 31 4.0345 2.2754
-13 19 1 1.5193 -0.8167
-13 19 2 -3.3351 -1.0914
-13 19 3 -1.7089 0.8813
-13 19 4 2.5396 0.5241
-13 19 5 -0.8411 0.2655
-13 19 6 -1.3808 0.5586
-13 19 7 4.1360 -1.1118
-13 19 8 0.5141 -0.6266
-13 19 9 -5.1694 0.6123
-13 19 10 0.4548 -0.0176
-13 19 11 3.0098 0.0523
-13 19 12 -1.2920 0.1279
-13 19 13 -0.0249 0.2188
-13 19 14 1.2670 0.0448
-13 19 15 -0.9084 -0.7317
-13 19 16 -0.1654 0.5064
-13 19 17 0.0534 0.7144
-13 19 18 -1.4277 -1.2994
-13 19 19 0.4240 -0.5428
-13 19 20 2.4799 1.2103
-13 19 21 -0.4752 0.5732
-13 19 22 -2.4584 -0.7282
-13 19 23 1.5154 -0.6191
-13 19 24 1.9191 1.0523
-13 19 25 -2.6260 0.7522
-13 19 26 -1.5216 -1.6666
-13 19 27 1.5941 -1.1376
-13 21 1 -2.3268 -0.9327
-13 21 2 -2.5275 0.2403
-13 21 3 1.1407 1.3885
-13 21 4 0.8410 -0.0100
-13 21 5 0.5240 0.0903
-13 21 6 1.0774 -0.8508
-13 21 7 -1.1410 -1.1197
-13 21 8 -1.9369 0.9138
-13 21 9 1.5736 0.2771
-13 21 10 1.3424 0.1806
-13 21 11 -2.7094 0.6798
-13 21 12 0.2179 -1.3110
-13 21 13 3.7735 -0.1902
-13 21 14 -0.9228 1.7183
-13 21 15 -3.6208 -0.5608
-13 21 16 -0.3641 -1.6015
-13 21 17 2.4051 0.2224
-13 21 18 2.0433 1.2888
-13 21 19 -1.3228 0.4080
-13 21 20 -2.2710 -0.9604
-13 21 21 0.9791 -0.3566
-13 21 22 1.8650 0.6650
-13 23 1 -6.5481 -0.3578
-12 0 2 4.1550 7.6477
-12 0 4 2.9357 -4.2438
-12 0 6 -7.7582 0.7659
-12 0 8 7.5902 0.5588
-12 0 10 -4.4843 0.2074
-12 0 12 1.9861 -1.4599
-12 0 14 -1.1858 1.9464
-12 0 16 0.2422 -1.5855
-12 0 18 2.3608 0.9651
-12 0 20 -5.0747 -0.6246
-12 0 22 5.3016 0.7129
-12 0 24 -3.2200 -1.0146
-12 0 26 0.9573 1.2199
-12 0 28 1.0301 -1.1493
-12 0 30 -3.3232 0.8100
-12 0 32 4.6628 -0.4649
-12 0 34 -3.6374 0.5345
-12 0 36 1.5961 -1.0586
-12 0 38 -0.3095 1.3787
-12 0 40 -0.7872 -0.7882
-12 0 42 2.0521 -0.6034
-12 2 1 6.6582 3.4975
-12 2 2 -3.0481 0.8518
-12 2 3 -3.7264 -1.9021
-12 2 4 6.9262 -0.3648
-12 2 5 -0.4608 -0.1963
-12 2 6 -9.2719 -0.3690
-12 2 7 2.2868 1.0279
-12 2 8 9.5192 0.6905
-12 2 9 -1.6999 -0.4021
-12 2 10 -7.4477 -0.2669
-12 2 11 1.2331 -0.5205
-12 2 12 3.6810 -0.4343
-12 2 13 -2.2859 0.7793
-12 2 14 0.2599 0.6226
-12 2 15 3.3383 -0.3777
-12 2 16 -3.0829 -0.1802
-12 2 17 -2.1050 -0.1517
-12 2 18 4.6189 -0.2460
-12 2 19 -1.1075 0.3790
-12 2 20 -5.0463 0.2094
-12 2 21 3.6911 -0.2714
-12 2 22 4.0808 0.0243
-12 2 23 -4.5186 0.0909
-12 2 24 -1.9009 -0.0823
-12 2 25 4.9502 0.0048
-12 2 26 -0.1967 0.0393
-12 2 27 -5.4252 -0.0520
-12 2 28 1.2740 -0.1164
-12 2 29 4.5102 -0.0875
-12 2 30 -1.8042 0.2552
-12 2 31 -2.4210 0.5984
-12 2 32 2.2901 -0.2776
-12 2 33 1.4744 -1.0376
-12 2 34 -2.1959 0.2116
-12 2 35 -2.0303 0.6129
-12 2 36 1.1036 -0.1756
-12 2 37 2.2070 0.5892
-12 2 38 0.4127 0.0389
-12 2 39 -1.8443 -1.5300
-12 2 40 -1.6094 0.4829
-12 2 41 2.2132 1.5857
-12 2 42 2.1323 -1.3084
-12 2 43 -2.4995 -1.1424
-12 2 44 -1.7581 1.8880
-12 2 45 1.2578 0.7885
-12 4 1 -3.1028 -0.2132
-12 4 2 -4.6169 0.3752
-12 4 3 4.7589 0.5030
-12 4 4 4.9535 -1.1574
-12 4 5 -6.0699 -0.6578
-12 4 6 -4.8343 1.2724
-12 4 7 7.3978 0.5208
-12 4 8 5.5723 -0.3906
-12 4 9 -7.9438 -0.1582
-12 4 10 -5.4942 -0.5162
-12 4 11 6.5280 -0.1828
-12 4 12 2.6239 0.5044
-12 4 13 -3.3785 0.1684
-12 4 14 1.9853 0.2232
-12 4 15 0.1432 0.2726
-12 4 16 -5.0018 -0.7505
-12 4 17 2.0086 -0.6782
-12 4 18 4.8054 0.5028
-12 4 19 -3.0020 0.5459
-12 4 20 -2.8882 0.2092
-12 4 21 2.6554 -0.0673
-12 4 22 0.5753 -0.5181
-12 4 23 -0.8596 -0.1353
-12 4 24 2.9408 0.0685
-12 4 25 -1.1174 -0.0675
-12 4 26 -7.4264 0.3989
-12 4 27 1.8357 0.2363
-12 4 28 9.8006 -0.1218
-12 4 29 -1.9222 -0.1553
-12 4 30 -8.4681 -0.4385
-12 4 31 2.8185 0.0863
-12 4 32 6.0955 0.3868
-12 4 33 -4.1433 -0.2024
-12 4 34 -5.0668 0.1074
-12 4 35 4.5083 0.2957
-12 4 36 4.0925 -0.2722
-12 4 37 -3.6586 -0.1643
-12 4 38 -2.1307 0.0987
-12 4 39 2.0485 -0.0964
-12 4 40 0.9799 -0.0614
-12 4 41 -0.0307 0.3217
-12 4 42 -1.2795 0.1090
-12 4 43 -1.4640 -0.5097
-12 4 44 0.8990 0.0216
-12 4 45 1.5069 0.6757
-12 6 1 -1.5329 -0.7161
-12 6 2 -6.5001 -0.1047
-12 6 3 1.9426 0.5324
-12 6 4 9.3138 -0.2437
-12 6 5 -1.2550 -0.0479
-12 6 6 -9.2524 0.2586
-12 6 7 2.2520 -0.0088
-12 6 8 6.7255 0.0666
-12 6 9 -4.5591 -0.3644
-12 6 10 -3.7195 -0.3560
-12 6 11 4.7964 0.5441
-12 6 12 1.4836 0.3041
-12 6 13 -1.3583 -0.2788
-12 6 14 0.4237 0.0901
-12 6 15 -3.0927 -0.0569
-12 6 16 -2.5579 -0.4495
-12 6 17 5.2539 0.0292
-12 6 18 4.3092 0.2676
-12 6 19 -5.2753 0.3622
-12 6 20 -5.0263 0.3616
-12 6 21 4.7506 -0.5875
-12 6 22 4.8110 -0.5932
-12 6 23 -2.8783 0.1278
-12 6 24 -3.3173 -0.0345
-12 6 25 -1.3306 0.6070
-12 6 26 -0.0095 0.7841
-12 6 27 4.9810 -0.5383
-12 6 28 3.7360 -0.7018
-12 6 29 -4.5371 -0.4538
-12 6 30 -5.2297 -0.0681
-12 6 31 1.6135 1.1581
-12 6 32 4.0472 0.6230
-12 6 33 -0.3115 -0.8287
-12 6 34 -1.8034 -0.5168
-12 6 35 0.6462 0.1015
-12 6 36 -0.5706 0.0462
-12 6 37 -0.0134 0.4152
-12 6 38 2.4643 0.3023
-12 6 39 -1.1407 -1.0180
-12 6 40 -2.4175 -0.2295
-12 6 41 0.7380 1.8386
-12 6 42 0.4992 -0.2480
-12 6 43 0.2107 -2.3029
-12 6 44 0.6820 0.7356
-12 8 1 -9.2983 -0.5675
-12 8 2 3.3313 0.3445
-12 8 3 13.5261 0.3128
-12 8 4 1.7605 -0.2528
-12 8 5 -14.6794 0.0781
-12 8 6 -5.1816 -0.1308
-12 8 7 12.8415 -0.1788
-12 8 8 4.8975 0.3736
-12 8 9 -9.8412 0.0674
-12 8 10 -3.2239 -0.3536
-12 8 11 6.8559 0.0315
-12 8 12 3.4501 0.2325
-12 8 13 -3.6617 -0.0376
-12 8 14 -5.0486 -0.1275
-12 8 15 0.1880 -0.0608
-12 8 16 4.7979 0.0841
-12 8 17 2.4894 0.1051
-12 8 18 -2.2322 -0.0777
-12 8 19 -3.6183 0.1397
-12 8 20 0.2514 0.0422
-12 8 21 3.7045 -0.4488
-12 8 22 0.1298 -0.0956
-12 8 23 -2.6354 0.2921
-12 8 24 -1.0066 0.3619
-12 8 25 -0.8255 0.1991
-12 8 26 2.4467 -0.4899
-12 8 27 5.8903 -0.2560
-12 8 28 -1.4887 0.1009
-12 8 29 -9.1472 -0.2803
-12 8 30 -1.9728 0.3271
-12 8 31 8.9783 0.6514
-12 8 32 3.8397 -0.0806
-12 8 33 -7.0254 -0.3282
-12 8 34 -2.3207 -0.4810
-12 8 35 4.2757 -0.3916
-12 8 36 0.4677 0.4973
-12 8 37 -0.4006 1.0195
-12 8 38 -0.5289 -0.1443
-12 8 39 -2.7532 -1.3509
-12 8 40 0.9011 0.2466
-12 8 41 2.6513 1.3362
-12 8 42 -0.1589 -0.7617
-12 8 43 -0.8710 -1.1046
-12 10 1 7.8118 -0.3534
-12 10 2 4.5533 -0.1636
-12 10 3 -2.9514 0.1370
-12 10 4 -3.6274 0.3089
-12 10 5 -2.9375 -0.1718
-12 10 6 1.9412 -0.3336
-12 10 7 5.9783 0.3568
-12 10 8 -1.2576 0.2039
-12 10 9 -5.6483 -0.2992
-12 10 10 1.9477 -0.0841
-12 10 11 4.6998 0.0126
-12 10 12 -2.5582 0.0071
-12 10 13 -4.8563 0.2017
-12 10 14 2.2188 -0.0104
-12 10 15 4.5850 -0.2027
-12 10 16 -2.1417 0.1972
-12 10 17 -2.3872 0.0893
-12 10 18 3.2611 -0.3901
-12 10 19 -0.1716 -0.0942
-12 10 20 -3.8606 0.2927
-12 10 21 1.1622 0.3128
-12 10 22 2.2606 -0.0668
-12 10 23 -1.4060 -0.4337
-12 10 24 -0.2791 0.0654
-12 10 25 1.8840 0.1508
-12 10 26 0.3692 -0.1456
-12 10 27 -1.0753 0.2470
-12 10 28 -1.3075 0.0118
-12 10 29 -1.6369 -0.3446
-12 10 30 0.9395 0.1005
-12 10 31 3.1746 0.3360
-12 10 32 -0.3874 0.1296
-12 10 33 -1.1150 -0.5019
-12 10 34 0.9605 -0.3997
-12 10 35 -2.1724 0.5065
-12 10 36 -0.6518 0.2125
-12 10 37 3.0685 -0.0724
-12 10 38 -1.6465 0.4077
-12 10 39 -1.6387 -0.3247
-12 10 40 2.9471 -1.0746
-12 10 41 0.3290 0.2291
-12 12 1 0.8459 0.2450
-12 12 2 -4.3115 0.2134
-12 12 3 2.0570 -0.1888
-12 12 4 3.3583 -0.0418
-12 12 5 -5.3880 -0.0015
-12 12 6 -0.9382 0.0452
-12 12 7 5.8551 0.0950
-12 12 8 -0.6354 0.0363
-12 12 9 -2.3224 0.0221
-12 12 10 1.1891 -0.2979
-12 12 11 -2.4410 -0.2213
-12 12 12 -1.7931 0.4071
-12 12 13 4.6800 0.3313
-12 12 14 2.6580 -0.2423
-12 12 15 -4.0530 -0.2487
-12 12 16 -3.3871 0.0028
-12 12 17 3.3582 0.0617
-12 12 18 4.3856 0.2031
-12 12 19 -3.7211 -0.0509
-12 12 20 -5.7627 -0.3193
-12 12 21 3.1049 0.2579
-12 12 22 5.8315 0.2756
-12 12 23 -0.5481 -0.2873
-12 12 24 -3.5481 -0.2416
-12 12 25 -2.0735 -0.0866
-12 12 26 1.0976 0.3939
-12 12 27 3.7820 0.4874
-12 12 28 -0.7613 -0.4579
-12 12 29 -5.3990 -0.4808
-12 12 30 0.9875 0.1104
-12 12 31 5.9107 0.1246
-12 12 32 0.8617 0.4431
-12 12 33 -3.4153 0.3056
-12 12 34 -3.8499 -0.8469
-12 12 35 0.0081 -0.7235
-12 12 36 5.0456 1.0537
-12 12 37 0.2969 1.1932
-12 12 38 -3.9045 -1.0305
-12 14 1 2.5941 0.3375
-12 14 2 -1.7176 -0.1089
-12 14 3 1.8083 -0.1617
-12 14 4 -0.4185 -0.0656
-12 14 5 -4.2192 -0.0850
-12 14 6 1.9701 0.3122
-12 14 7 4.5140 0.3114
-12 14 8 -0.3035 -0.2354
-12 14 9 -2.9099 -0.4801
-12 14 10 -3.8984 -0.0943
-12 14 11 0.3673 0.2872
-12 14 12 6.9029 0.2810
-12 14 13 1.2856 0.2345
-12 14 14 -5.9358 -0.2740
-12 14 15 -1.2291 -0.5338
-12 14 16 2.3724 0.2620
-12 14 17 1.3051 0.4649
-12 14 18 0.3269 -0.2191
-12 14 19 -3.4984 -0.4360
-12 14 20 -0.9714 0.0615
-12 14 21 6.0849 0.4572
-12 14 22 0.7768 0.0768
-12 14 23 -5.6023 -0.1377
-12 14 24 -0.5465 -0.0791
-12 14 25 2.3708 -0.4111
-12 14 26 0.5931 0.0515
-12 14 27 0.0418 0.6870
-12 14 28 -1.6263 -0.0516
-12 14 29 -0.4680 -0.6097
-12 14 30 2.8111 -0.1000
-12 14 31 0.7893 0.4882
-12 14 32 -1.6424 0.4870
-12 14 33 -1.5774 -0.5169
-12 14 34 -1.5793 -0.7749
-12 14 35 1.5711 0.6852
-12 14 36 2.8958 0.5650
-12 14 38 -0.7326 -0.0176
-12 16 1 -0.8955 0.4099
-12 16 2 -1.1923 -0.0934
-12 16 3 0.7223 -0.4210
-12 16 4 -0.0761 -0.0414
-12 16 5 -0.7034 0.4306
-12 16 6 1.9972 0.1392
-12 16 7 1.6300 -0.1101
-12 16 8 -2.9568 -0.3134
-12 16 9 -3.1652 -0.5362
-12 16 10 1.5146 0.3525
-12 16 11 3.9911 0.7326
-12 16 12 1.1008 0.0304
-12 16 13 -3.0530 -0.2275
-12 16 14 -1.9049 -0.4608
-12 16 15 0.6979 -0.2149
-12 16 16 0.4495 0.3968
-12 16 17 1.5468 0.2696
-12 16 18 0.1292 -0.0032
-12 16 19 -2.6363 -0.5389
-12 16 20 1.7858 -0.3179
-12 16 21 2.7455 1.0626
-12 16 22 -3.3626 0.6146
-12 16 23 -2.2589 -0.9186
-12 16 24 2.1946 -0.9115
-12 16 25 1.5539 -0.1265
-12 16 26 -0.3170 0.8494
-12 16 27 -1.5541 1.0297
-12 16 28 0.2879 -0.2897
-12 16 29 2.3558 -1.1144
-12 16 30 -1.2064 -0.4111
-12 16 31 -2.1323 1.0367
-12 16 32 1.4197 0.8633
-12 16 33 -0.0406 -1.4863
-12 16 34 -1.3365 -0.8768
-12 16 35 1.8897 2.0046
-12 18 1 2.1909 -0.0207
-12 18 2 -3.7123 0.1837
-12 18 3 0.6174 -0.2374
-12 18 4 3.8781 -0.1266
-12 18 5 -1.8462 0.2554
-12 18 6 -2.2760 -0.1252
-12 18 7 1.1533 -0.1627
-12 18 8 -0.1195 -0.2184
-12 18 9 -0.3254 0.2092
-12 18 10 1.3129 0.7639
-12 18 11 1.1849 -0.2246
-12 18 12 -0.7327 -0.4139
-12 18 13 -3.0118 -0.0060
-12 18 14 -0.3235 -0.4638
-12 18 15 3.5799 0.3174
-12 18 16 0.5158 0.6292
-12 18 17 -3.0447 -0.4185
-12 18 18 -0.0289 -0.2282
-12 18 19 3.6064 0.1656
-12 18 20 -0.1259 0.2292
-12 18 21 -5.0310 0.3497
-12 18 22 -0.1454 -0.3531
-12 18 23 4.8519 -0.6579
-12 18 24 0.3021 -0.2493
-12 18 25 -3.2330 0.2941
-12 18 26 -0.8261 1.0397
-12 18 27 2.8891 0.4572
-12 18 28 2.4150 -0.8740
-12 18 29 -4.2092 -0.8830
-12 18 30 -3.7967 0.1105
-12 18 31 4.8730 0.8716
-12 18 32 3.1232 -0.1165
-12 18 33 -3.8268 -0.7477
-12 20 1 -0.1678 -0.2527
-12 20 2 -1.5945 0.0208
-12 20 3 1.4228 -0.2545
-12 20 4 0.3854 0.2730
-12 20 5 -2.3338 -0.2300
-12 20 6 0.2816 -0.2550
-12 20 7 1.4358 0.6502
-12 20 8 -0.1871 -0.0567
-12 20 9 0.4080 -0.0303
-12 20 10 -0.1061 0.3104
-12 20 11 -1.3066 -0.5423
-12 20 12 -0.5825 -0.2650
-12 20 13 0.8891 0.0099
-12 20 14 1.8101 0.1255
-12 20 15 -0.5632 0.6526
-12 20 16 -2.1940 -0.2350
-12 20 17 1.1091 -0.3135
-12 20 18 2.2502 0.3692
-12 20 19 -1.5626 -0.4646
-12 20 20 -3.2360 0.0616
-12 20 21 1.3491 0.8539
-12 20 22 4.2610 -0.8589
-12 20 23 -1.4917 -1.0803
-12 20 24 -3.9201 1.0392
-12 20 25 2.2810 1.2762
-12 20 26 3.0402 -0.4035
-12 20 27 -2.1547 -0.8351
-12 20 28 -2.9541 -0.1130
-12 20 29 0.5850 -0.2775
-12 22 1 0.9305 0.1104
-12 22 2 -2.6187 -0.3027
-12 22 3 -0.4879 0.3467
-12 22 4 0.7025 0.3995
-12 22 5 0.2503 -0.5412
-12 22 6 0.5049 0.3234
-12 22 7 -0.6392 -0.0839
-12 22 8 0.5588 -0.3062
-12 22 9 0.2058 1.0133
-12 22 10 -3.1815 -0.5330
-12 22 11 0.7767 -0.9865
-12 22 12 4.6814 0.6354
-12 22 13 -0.7300 -0.3337
-12 22 14 -4.0877 0.3652
-12 22 15 -0.0921 1.6658
-12 22 16 3.0968 -1.1772
-12 22 17 0.4932 -1.8485
-12 22 18 -2.6189 1.0647
-12 22 19 -0.7212 1.4595
-12 22 20 1.5928 -0.4644
-12 22 21 1.3671 -1.5776
-12 22 22 0.0527 -0.2212
-12 22 23 -1.8761 1.8828
-12 24 3 -0.5074 0.9520
-12 24 4 2.6480 -0.7077
-12 24 5 1.2486 -0.4896
-12 24 6 -2.3748 0.1438
-12 24 7 -1.6698 -0.6395
-12 24 8 1.4640 1.2558
-12 24 9 -0.8120 1.0233
-12 24 10 0.8500 -1.8460
-12 24 11 4.6794 -0.8888
-12 24 12 -2.6723 0.4158
-12 24 13 -5.8312 1.2000
-11 1 1 -1.1635 0.1211
-11 1 2 -1.5172 -1.6429
-11 1 3 1.6072 0.5437
-11 1 4 -1.7475 1.7536
-11 1 5 -0.7654 -0.1125
-11 1 6 4.4711 -0.6011
-11 1 7 0.1884 -0.9599
-11 1 8 -5.7242 -0.5782
-11 1 9 -0.3902 1.7297
-11 1 10 6.2505 0.7224
-11 1 11 0.2628 -1.5961
-11 1 12 -6.7607 0.1244
-11 1 13 1.0475 0.7143
-11 1 14 6.5228 -1.0198
-11 1 15 -2.4813 0.1259
-11 1 16 -4.0529 1.1253
-11 1 17 2.1567 -0.1922
-11 1 18 -0.9652 -0.5082
-11 1 19 -0.0329 -0.3902
-11 1 20 6.4656 -0.1034
-11 1 21 -1.5356 0.8194
-11 1 22 -9.2842 0.2129
-11 1 23 0.5990 -0.6941
-11 1 24 8.3871 0.0912
-11 1 25 1.9056 0.3872
-11 1 26 -5.8458 -0.5016
-11 1 27 -3.5593 -0.2828
-11 1 28 3.7445 0.7480
-11 1 29 3.4150 0.3116
-11 1 30 -1.9955 -0.5937
-11 1 31 -2.1726 -0.3218
-11 1 32 0.3702 0.0812
-11 1 33 0.5022 0.2955
-11 1 34 -0.0539 0.2858
-11 1 35 1.1849 -0.1883
-11 1 36 1.5569 -0.0759
-11 1 37 -2.2261 0.0156
-11 1 38 -3.4634 -0.4549
-11 1 39 2.2394 -0.0119
-11 1 40 4.3729 0.7195
-11 1 41 -1.3566 0.4823
-11 1 42 -4.0910 -0.5916
-11 1 43 -0.3364 -1.6243
-11 1 44 2.8841 0.3665
-11 1 45 2.3168 3.2756
-11 1 46 -1.4456 -0.1732
-11 1 47 -3.1012 -4.5195
-11 3 1 -1.5419 -0.1438
-11 3 2 3.9902 0.2303
-11 3 3 -0.3071 0.1693
-11 3 4 -4.5945 -0.0591
-11 3 5 2.4576 0.5173
-11 3 6 4.0180 -0.3532
-11 3 7 -4.2552 -1.2599
-11 3 8 -4.7862 0.5068
-11 3 9 5.5242 1.2752
-11 3 10 6.9550 -0.2522
-11 3 11 -6.2104 -0.4885
-11 3 12 -7.7665 -0.1288
-11 3 13 5.8171 -0.3771
-11 3 14 5.5007 0.2758
-11 3 15 -3.7517 0.4461
-11 3 16 -1.8685 -0.0338
-11 3 17 0.1351 0.3398
-11 3 18 -0.6419 -0.3800
-11 3 19 3.6954 -1.0439
-11 3 20 2.0846 0.5104
-11 3 21 -5.6347 0.8870
-11 3 22 -3.9324 -0.2378
-11 3 23 4.8068 -0.2128
-11 3 24 6.0694 -0.0182
-11 3 25 -2.9548 -0.1706
-11 3 26 -6.9392 -0.0384
-11 3 27 2.1539 0.0798
-11 3 28 5.7036 0.1617
-11 3 29 -1.8322 0.1742
-11 3 30 -2.6653 -0.1156
-11 3 31 0.4645 -0.3975
-11 3 32 -1.3259 0.0592
-11 3 33 1.1173 0.4421
-11 3 34 4.6838 -0.1161
-11 3 35 -1.1516 -0.1536
-11 3 36 -5.7312 0.1571
-11 3 37 0.0726 -0.1730
-11 3 38 4.4954 -0.1375
-11 3 39 0.6217 -0.0379
-11 3 40 -2.4067 0.1369
-11 3 41 -0.6434 0.7279
-11 3 42 0.0201 -0.1705
-11 3 43 0.0746 -1.2052
-11 3 44 2.8976 0.3297
-11 3 45 1.1774 1.2111
-11 3 46 -5.1727 -0.7150
-11 5 1 -1.6786 0.0311
-11 5 2 0.0841 0.2594
-11 5 3 3.1551 -0.1792
-11 5 4 0.0204 0.0935
-11 5 5 -6.0229 0.1271
-11 5 6 -0.7808 -0.4273
-11 5 7 6.1035 -0.0890
-11 5 8 0.7544 0.1968
-11 5 9 -1.4526 0.1909
-11 5 10 0.8168 0.5378
-11 5 11 -4.4667 -0.2530
-11 5 12 -2.9748 -1.1566
-11 5 13 6.6159 0.1281
-11 5 14 4.2063 0.9985
-11 5 15 -4.4709 0.0685
-11 5 16 -4.0112 -0.0223
-11 5 17 1.6443 -0.1507
-11 5 18 2.7721 -0.8369
-11 5 19 -0.2905 0.0511
-11 5 20 -0.5567 0.5580
-11 5 21 -0.5962 0.1383
-11 5 22 -2.4893 0.5291
-11 5 23 1.8064 -0.2105
-11 5 24 4.6961 -1.0595
-11 5 25 -2.6259 0.1143
-11 5 26 -4.2453 0.5174
-11 5 27 2.7448 -0.1030
-11 5 28 2.2374 0.2516
-11 5 29 -2.2816 0.2821
-11 5 30 -1.4256 -0.4686
-11 5 31 0.5439 -0.2928
-11 5 32 1.9392 0.2243
-11 5 33 2.5723 -0.0898
-11 5 34 -1.8107 0.1275
-11 5 35 -5.1984 0.4759
-11 5 36 1.0165 -0.3198
-11 5 37 5.7492 -0.4608
-11 5 38 -0.8533 0.0893
-11 5 39 -4.9029 0.1596
-11 5 40 0.7037 0.3625
-11 5 41 3.7001 0.2410
-11 5 42 0.3168 -0.2511
-11 5 43 -1.8736 -0.7958
-11 5 44 -0.6822 -0.6675
-11 5 45 -0.4779 1.3825
-11 5 46 -0.6592 1.4975
-11 7 1 4.5840 0.0100
-11 7 2 5.0765 0.3206
-11 7 3 -4.7952 -0.2761
-11 7 4 -9.1438 -0.1019
-11 7 5 3.3815 0.1458
-11 7 6 11.6357 0.0244
-11 7 7 -2.4647 0.0211
-11 7 8 -10.3125 -0.0619
-11 7 9 4.0911 0.0015
-11 7 10 6.7473 0.1548
-11 7 11 -7.0446 -0.1371
-11 7 12 -4.8513 -0.2810
-11 7 13 8.1042 0.2097
-11 7 14 5.6895 0.3035
-11 7 15 -6.1844 -0.0107
-11 7 16 -6.1714 -0.0963
-11 7 17 3.2374 -0.3767
-11 7 18 4.0892 -0.1696
-11 7 19 -0.8510 0.3859
-11 7 20 -1.2330 0.1671
-11 7 21 -1.3364 0.2103
-11 7 22 -0.1601 0.1788
-11 7 23 2.9556 -0.6613
-11 7 24 0.4141 -0.5607
-11 7 25 -2.2417 0.3058
-11 7 26 -0.1955 0.5533
-11 7 27 -0.1961 0.3151
-11 7 28 -0.9402 -0.0957
-11 7 29 1.0221 -0.3542
-11 7 30 2.4019 -0.3006
-11 7 31 0.3922 -0.0735
-11 7 32 -2.4384 0.1679
-11 7 33 -0.8441 0.3854
-11 7 34 0.9212 0.1807
-11 7 35 -0.6843 -0.4527
-11 7 36 0.5514 -0.1307
-11 7 37 1.4764 0.3723
-11 7 38 -1.0627 -0.1791
-11 7 39 -0.9383 -0.2306
-11 7 40 0.6592 0.1109
-11 7 41 1.6857 0.4502
-11 7 42 0.6038 0.3306
-11 7 43 -3.6853 -1.3640
-11 7 44 -2.0833 -0.5216
-11 7 45 3.7695 2.3451
-11 7 46 2.4506 0.2530
-11 9 1 -5.0348 -0.1752
-11 9 2 -4.3985 -0.4924
-11 9 3 4.3770 0.2039
-11 9 4 3.4400 0.5893
-11 9 5 -2.9179 -0.1219
-11 9 6 -2.0099 -0.2766
-11 9 7 1.3533 -0.0816
-11 9 8 1.7775 -0.1223
-11 9 9 0.4958 0.1629
-11 9 10 -2.6840 0.3600
-11 9 11 -3.5549 -0.0851
-11 9 12 2.4340 -0.3087
-11 9 13 7.3754 0.0459
-11 9 14 -0.1545 0.0650
-11 9 15 -9.2203 -0.0537
-11 9 16 -1.4580 0.0312
-11 9 17 7.2303 -0.0383
-11 9 18 0.0721 0.0912
-11 9 19 -3.2193 0.1746
-11 9 20 2.4149 -0.0918
-11 9 21 0.0411 -0.1633
-11 9 22 -3.2858 -0.0568
-11 9 23 1.8873 -0.0029
-11 9 24 3.5693 -0.0574
-11 9 25 -3.1116 0.1107
-11 9 26 -4.8472 0.3763
-11 9 27 2.9806 0.0207
-11 9 28 4.8154 -0.3190
-11 9 29 -1.4236 -0.2743
-11 9 30 -1.5002 -0.1264
-11 9 31 0.0501 0.3281
-11 9 32 -1.6608 0.3251
-11 9 33 0.2955 -0.1608
-11 9 34 0.9557 -0.0954
-11 9 35 -0.4262 0.1371
-11 9 36 1.1909 -0.1310
-11 9 37 0.8378 -0.2587
-11 9 38 -0.8542 0.1098
-11 9 39 -1.4711 -0.1018
-11 9 40 -0.6327 0.1260
-11 9 41 2.6775 1.1663
-11 9 42 0.2593 -0.5704
-11 9 43 -4.0529 -2.0958
-11 9 44 0.8162 0.9341
-11 9 45 3.9702 2.0235
-11 11 1 1.4631 -0.0879
-11 11 2 9.3047 0.2288
-11 11 3 -0.5504 0.3787
-11 11 4 -11.8967 -0.1932
-11 11 5 0.9772 -0.2251
-11 11 6 12.4448 0.0547
-11 11 7 -1.6810 -0.1342
-11 11 8 -10.7664 0.0818
-11 11 9 1.2942 0.2159
-11 11 10 7.3408 -0.0341
-11 11 11 -0.6162 0.0633
-11 11 12 -3.5205 -0.0692
-11 11 13 1.4273 -0.3986
-11 11 14 1.3343 0.0527
-11 11 15 -2.8416 0.4426
-11 11 16 -1.5483 -0.0133
-11 11 17 2.0109 -0.1571
-11 11 18 2.3837 0.0447
-11 11 19 1.0266 -0.0585
-11 11 20 -2.0896 -0.0495
-11 11 21 -3.2226 -0.1128
-11 11 22 1.6029 -0.0023
-11 11 23 3.8478 0.3399
-11 11 24 -2.2468 -0.0006
-11 11 25 -4.9140 -0.1626
-11 11 26 2.9570 0.0878
-11 11 27 5.7644 -0.1651
-11 11 28 -2.6583 -0.1515
-11 11 29 -3.4678 0.0979
-11 11 30 2.5147 0.0901
-11 11 31 -0.6829 0.2629
-11 11 32 -3.0928 0.0309
-11 11 33 1.8762 -0.4104
-11 11 34 2.7682 0.0268
-11 11 35 0.2902 0.2350
-11 11 36 -1.0486 -0.2571
-11 11 37 -1.3901 -0.0104
-11 11 38 -0.3438 0.0840
-11 11 39 0.0105 -0.0092
-11 11 40 0.7470 0.9055
-11 11 41 0.6942 -0.2901
-11 11 42 -1.0176 -1.9922
-11 11 43 0.5784 0.6969
-11 13 1 -1.0916 -0.1785
-11 13 2 -2.6620 0.0424
-11 13 3 -1.1609 0.3818
-11 13 4 2.2295 -0.2027
-11 13 5 3.9522 -0.2184
-11 13 6 -3.5633 -0.0369
-11 13 7 -5.6516 -0.0536
-11 13 8 4.0679 0.2676
-11 13 9 4.9391 0.1859
-11 13 10 -2.1643 -0.1899
-11 13 11 -2.4257 -0.1614
-11 13 12 -0.6147 0.0195
-11 13 13 0.8749 0.1335
-11 13 14 2.0130 0.0093
-11 13 15 -2.1178 -0.2628
-11 13 16 -1.9806 0.0621
-11 13 17 3.9516 0.4147
-11 13 18 1.3810 -0.0986
-11 13 19 -2.7678 -0.2254
-11 13 20 0.0478 -0.0248
-11 13 21 -1.0251 -0.3046
-11 13 22 -1.8485 0.2951
-11 13 23 3.8463 0.6637
-11 13 24 1.7543 -0.4159
-11 13 25 -4.4555 -0.5006
-11 13 26 0.5021 0.1522
-11 13 27 4.1045 0.0779
-11 13 28 -1.5970 0.2305
-11 13 29 -2.6129 0.1112
-11 13 30 -0.1608 -0.2887
-11 13 31 -0.5055 0.0279
-11 13 32 1.9878 0.0426
-11 13 33 2.8537 -0.0267
-11 13 34 -1.7870 0.0272
-11 13 35 -2.1463 -0.5502
-11 13 36 1.5142 0.4749
-11 13 37 0.1025 1.2683
-11 13 38 -2.6148 -1.3814
-11 13 39 0.6533 -1.1476
-11 13 40 2.8672 1.9643
-11 13 41 -0.4464 0.1807
-11 15 1 0.3956 0.1650
-11 15 2 4.9156 0.0482
-11 15 3 1.2101 -0.1982
-11 15 4 -4.6036 -0.2710
-11 15 5 -3.4260 0.0991
-11 15 6 2.2968 0.1911
-11 15 7 4.6291 0.1062
-11 15 8 -0.5398 -0.0897
-11 15 9 -3.7270 -0.2046
-11 15 10 1.7840 0.1190
-11 15 11 1.3719 0.3199
-11 15 12 -4.9545 -0.0965
-11 15 13 1.0201 -0.4969
-11 15 14 6.0589 -0.1817
-11 15 15 -2.7678 0.3862
-11 15 16 -3.6009 0.5651
-11 15 17 3.3793 0.0234
-11 15 18 1.0180 -0.6548
-11 15 19 -1.6895 -0.1834
-11 15 20 -1.4243 0.3167
-11 15 21 -2.1340 -0.0697
-11 15 22 3.2269 0.1312
-11 15 23 5.0105 0.2574
-11 15 24 -3.8331 -0.3193
-11 15 25 -4.4217 -0.1868
-11 15 26 3.5944 0.1972
-11 15 27 1.9990 0.2259
-11 15 28 -3.0896 -0.0143
-11 15 29 -0.6145 -0.4982
-11 15 30 1.1216 0.0731
-11 15 31 0.2220 0.6005
-11 15 32 1.9421 -0.2978
-11 15 33 0.1807 -0.3375
-11 15 34 -3.4277 0.0788
-11 15 35 0.4981 0.2148
-11 15 36 2.5667 0.8594
-11 15 37 -2.9265 -0.8365
-11 15 38 -1.2262 -1.6079
-11 15 39 4.6986 1.9295
-11 17 1 0.5651 -0.2009
-11 17 2 -1.8473 0.1023
-11 17 3 -1.3368 0.0921
-11 17 4 -1.8239 -0.0482
-11 17 5 0.9638 0.0704
-11 17 6 3.1551 0.1919
-11 17 7 0.2275 -0.1998
-11 17 8 -1.8722 -0.2281
-11 17 9 -0.2319 0.3014
-11 17 10 0.2899 0.1182
-11 17 11 -2.4594 -0.2469
-11 17 12 -0.3204 -0.1486
-11 17 13 6.1896 -0.0088
-11 17 14 1.0230 0.0960
-11 17 15 -7.4261 0.1527
-11 17 16 -0.5325 0.4032
-11 17 17 5.4533 0.0766
-11 17 18 -0.4051 -0.8603
-11 17 19 -2.8223 -0.4075
-11 17 20 -0.3533 0.6012
-11 17 21 0.7837 0.4700
-11 17 22 2.1253 0.0092
-11 17 23 1.6221 -0.4081
-11 17 24 -2.2401 -0.1972
-11 17 25 -3.8946 0.4578
-11 17 26 0.7416 0.0462
-11 17 27 4.1833 -0.3404
-11 17 28 0.0595 -0.0902
-11 17 29 -2.9578 -0.1799
-11 17 30 -0.1051 0.2065
-11 17 31 2.4476 0.7046
-11 17 32 1.0674 0.1883
-11 17 33 -3.1413 -1.0176
-11 17 34 -2.2336 -1.1148
-11 17 35 3.9087 1.6589
-11 17 36 1.4864 1.8167
-11 17 37 -4.0276 -2.6488
-11 19 1 -1.8766 0.1142
-11 19 2 -0.1930 -0.1421
-11 19 3 -0.2687 0.3198
-11 19 4 -0.0758 0.1673
-11 19 5 2.1110 -0.1961
-11 19 6 0.4827 -0.0259
-11 19 7 -1.6103 -0.1820
-11 19 8 -0.3944 -0.1374
-11 19 9 -0.5044 0.2039
-11 19 10 -0.8409 0.2283
-11 19 11 1.1429 -0.0632
-11 19 12 3.4472 -0.3882
-11 19 13 1.0159 0.0925
-11 19 14 -5.7644 0.4358
-11 19 15 -3.3903 -0.0006
-11 19 16 5.6413 0.0260
-11 19 17 3.4162 -0.3408
-11 19 18 -3.4163 -0.6748
-11 19 19 -2.0868 0.4449
-11 19 20 1.0124 0.6871
-11 19 21 0.9745 -0.1299
-11 19 22 0.9259 -0.0983
-11 19 23 0.7834 -0.1787
-11 19 24 -2.4871 -0.2639
-11 19 25 -3.3429 0.3095
-11 19 26 2.8871 0.3199
-11 19 27 4.0196 -0.5244
-11 19 28 -1.7469 -0.7800
-11 19 29 -1.6483 0.8466
-11 19 30 0.2233 1.5658
-11 19 31 -0.8397 -0.9621
-11 19 32 0.4830 -1.8525
-11 19 33 0.9376 0.6517
-11 21 1 4.6316 -0.6690
-11 21 2 1.0821 0.3816
-11 21 3 -4.0338 0.6668
-11 21 4 1.0207 -0.4807
-11 21 5 3.4591 -0.2884
-11 21 6 -3.1323 -0.0450
-11 21 7 -1.8069 -0.0674
-11 21 8 3.1291 0.3104
-11 21 9 -0.4841 -0.0022
-11 21 10 -1.3036 -0.0392
-11 21 11 2.7415 0.1530
-11 21 12 1.0513 -0.1720
-11 21 13 -4.3348 0.0206
-11 21 14 -3.5517 0.0529
-11 21 15 4.2657 -0.1149
-11 21 16 5.5890 0.1309
-11 21 17 -2.5207 -0.2163
-11 21 18 -4.8473 -0.2604
-11 21 19 0.7344 0.3285
-11 21 20 2.8180 0.3428
-11 21 21 -0.3045 0.3155
-11 21 22 -0.9043 -0.3011
-11 21 23 1.1065 -1.0330
-11 21 24 -1.3469 0.2751
-11 21 25 -2.2601 1.0635
-11 21 26 3.1994 -0.4874
-11 21 27 2.8304 -0.8033
-11 21 28 -2.8057 0.7717
-11 21 29 -2.2720 0.7722
-11 21 30 0.7082 -0.9346
-11 23 1 3.1344 -0.4656
-11 23 2 -10.1340 0.1149
-11 23 3 -2.3615 -0.3130
-11 23 4 8.7676 0.4277
-11 23 5 0.3885 0.3621
-11 23 6 -6.0479 -0.8615
-11 23 7 1.6978 -0.0072
-11 23 8 2.8366 0.5969
-11 23 9 -0.5160 0.0995
-11 23 10 -0.2326 0.0113
-11 23 11 -2.7127 -0.5782
-11 23 12 -0.8572 -0.1291
-11 23 13 3.0246 0.7956
-11 23 14 0.0431 -0.0920
-11 23 15 0.2226 -0.4019
-11 23 16 1.6009 -0.2422
-11 23 17 -2.8135 -0.4479
-11 23 18 -2.0430 1.1042
-11 23 19 2.7468 1.1251
-11 23 20 0.6397 -1.5275
-11 23 21 -1.8797 -0.9806
-11 23 22 1.3126 1.2102
-11 23 23 1.5393 0.2590
-11 23 24 -2.5193 -0.7701
-11 25 1 -8.9212 -0.5356
-11 25 2 0.0581 0.5115
-11 25 3 5.1047 -0.0598
-11 25 4 1.3902 0.4912
-11 25 5 -1.3327 0.5152
-11 25 6 -0.4995 -0.5336
-11 25 7 0.4044 -0.8680
-11 25 8 0.2698 0.3007
-11 25 9 -1.2827 1.0490
-11 25 10 -3.5060 -0.5740
-11 25 11 2.2900 -0.7078
-11 25 12 6.6738 1.0247
-11 25 13 -4.0041 0.1209
-11 25 14 -5.3995 -0.7855
-11 25 15 6.6735 -0.2602
-11 25 16 1.2987 -0.5148
-11 25 17 -7.9359 1.4140
-11 25 18 1.3857 2.1332
-11 27 1 4.6351 0.9281
-11 27 2 4.1780 -0.6437
-11 27 3 -3.3340 -0.2151
-11 27 4 4.0340 2.4524
-11 27 5 2.7135 0.0985
-10 0 2 8.1068 -4.2945
-10 0 4 -5.0911 0.2258
-10 0 6 3.2562 2.8023
-10 0 8 -3.0828 -3.2553
-10 0 10 2.2913 1.6845
-10 0 12 1.2362 -0.0652
-10 0 14 -6.5342 -0.1403
-10 0 16 10.6863 -0.7456
-10 0 18 -11.4719 1.4384
-10 0 20 8.5552 -1.3439
-10 0 22 -3.8339 0.8583
-10 0 24 0.2462 -0.4777
-10 0 26 1.3064 0.3731
-10 0 28 -2.5250 -0.5842
-10 0 30 4.2243 0.9736
-10 0 32 -4.8009 -1.1713
-10 0 34 3.1578 0.9957
-10 0 36 -0.3513 -0.7071
-10 0 38 -2.4893 0.6354
-10 0 40 5.4299 -0.8062
-10 0 42 -8.3485 0.8951
-10 0 44 9.9498 -0.3025
-10 0 46 -8.7724 -1.3291
-10 0 48 5.0287 3.2651
-10 2 1 0.7714 -3.1813
-10 2 2 3.7211 -0.6726
-10 2 3 -0.4158 0.8389
-10 2 4 -1.2336 0.0284
-10 2 5 -0.7945 1.4243
-10 2 6 2.1392 0.5990
-10 2 7 2.1143 -2.0216
-10 2 8 -4.3056 -0.7717
-10 2 9 -3.2179 0.9276
-10 2 10 4.3544 0.3452
-10 2 11 4.7452 0.4457
-10 2 12 -1.7343 0.2911
-10 2 13 -6.7293 -0.7152
-10 2 14 -1.2808 -0.5579
-10 2 15 7.8663 -0.0208
-10 2 16 3.1299 0.2761
-10 2 17 -6.8819 0.5599
-10 2 18 -4.1850 0.1998
-10 2 19 3.8074 -0.3289
-10 2 20 4.6597 -0.3898
-10 2 21 -0.2241 -0.0794
-10 2 22 -3.7788 0.2005
-10 2 23 -1.5540 0.1060
-10 2 24 1.2401 -0.0052
-10 2 25 0.7874 0.0713
-10 2 26 2.0634 0.1054
-10 2 27 0.4050 -0.1783
-10 2 28 -4.5989 -0.2651
-10 2 29 0.2982 0.2341
-10 2 30 4.9140 0.1063
-10 2 31 -2.2638 -0.2045
-10 2 32 -2.9121 0.2133
-10 2 33 3.1813 0.0276
-10 2 34 0.5427 -0.1944
-10 2 35 -2.2810 0.1171
-10 2 36 0.3154 -0.2204
-10 2 37 0.5185 -0.1019
-10 2 38 -0.2895 0.5186
-10 2 39 1.2920 0.0329
-10 2 40 1.0795 -0.3115
-10 2 41 -3.0977 0.1776
-10 2 42 -2.4810 -0.1480
-10 2 43 4.8537 -0.7219
-10 2 44 2.8920 0.3008
-10 2 45 -5.7242 1.2215
-10 2 46 -1.9542 -0.0664
-10 2 47 4.4752 -1.0940
-10 2 48 0.8028 -0.0035
-10 4 1 -5.3736 -0.7121
-10 4 2 8.1134 -0.6865
-10 4 3 5.6326 0.2485
-10 4 4 -7.6452 1.0441
-10 4 5 -2.4319 0.2999
-10 4 6 10.2025 -0.6859
-10 4 7 -1.3587 -0.4454
-10 4 8 -12.5862 -0.2201
-10 4 9 1.6483 0.0698
-10 4 10 11.6788 0.9043
-10 4 11 1.8909 0.4111
-10 4 12 -7.8075 -0.7018
-10 4 13 -5.1058 -0.4756
-10 4 14 3.2497 -0.1308
-10 4 15 4.8722 0.1663
-10 4 16 0.8125 0.5416
-10 4 17 -2.8406 0.0092
-10 4 18 -4.3535 -0.0538
-10 4 19 2.0098 0.1673
-10 4 20 6.4899 -0.5167
-10 4 21 -2.4694 -0.3789
-10 4 22 -5.3848 0.3228
-10 4 23 2.3977 0.2813
-10 4 24 0.7980 0.2724
-10 4 25 -0.7701 0.0539
-10 4 26 4.5130 -0.4501
-10 4 27 -2.0288 -0.2299
-10 4 28 -7.1306 0.1266
-10 4 29 4.3651 -0.0318
-10 4 30 6.1777 0.2935
-10 4 31 -4.4165 0.5188
-10 4 32 -3.4906 -0.5516
-10 4 33 2.6180 -0.7083
-10 4 34 1.4372 0.4849
-10 4 35 -1.4623 0.4187
-10 4 36 -1.0910 -0.1412
-10 4 37 1.7223 -0.0587
-10 4 38 1.6805 0.0041
-10 4 39 -1.4987 0.0547
-10 4 40 -1.6990 -0.2615
-10 4 41 -0.1271 -0.2630
-10 4 42 1.0887 0.2135
-10 4 43 1.5854 0.1927
-10 4 44 -1.2445 0.6384
-10 4 45 -1.5939 0.3001
-10 4 46 2.1872 -1.5619
-10 4 47 0.6965 -0.7859
-10 4 48 -2.0224 1.6572
-10 4 49 0.1505 0.8185
-10 6 1 0.5861 -0.0339
-10 6 2 6.9035 -0.0193
-10 6 3 -0.5690 0.1388
-10 6 4 -2.4350 0.2643
-10 6 5 4.6548 -0.0487
-10 6 6 -0.3131 -0.1800
-10 6 7 -9.2156 -0.1441
-10 6 8 -0.3984 -0.2063
-10 6 9 9.0910 0.2666
-10 6 10 3.4743 0.5370
-10 6 11 -4.0044 -0.1384
-10 6 12 -5.1646 -0.3534
-10 6 13 -1.2325 -0.2816
-10 6 14 2.9320 -0.2680
-10 6 15 3.2778 0.6098
-10 6 16 1.2302 0.5871
-10 6 17 -3.5737 -0.3948
-10 6 18 -3.3801 -0.1762
-10 6 19 4.0286 -0.0900
-10 6 20 2.4500 -0.4084
-10 6 21 -3.3351 0.1336
-10 6 22 -0.3373 0.4237
-10 6 23 -0.0274 0.2688
-10 6 24 -1.0764 0.0348
-10 6 25 4.3476 -0.4458
-10 6 26 1.0056 -0.2767
-10 6 27 -6.8890 0.1708
-10 6 28 0.1905 -0.0289
-10 6 29 7.1206 0.1716
-10 6 30 -0.9325 0.4964
-10 6 31 -5.8848 -0.3037
-10 6 32 0.2845 -0.5131
-10 6 33 3.8858 0.1167
-10 6 34 0.5399 -0.0387
-10 6 35 -2.3082 0.4555
-10 6 36 -0.5103 0.6045
-10 6 37 2.1973 -0.9526
-10 6 38 0.6745 -0.6051
-10 6 39 -2.4601 0.6387
-10 6 40 -1.6526 0.1301
-10 6 41 1.2910 0.2533
-10 6 42 2.0649 0.2832
-10 6 43 0.4546 -0.6578
-10 6 44 -1.2226 -0.4198
-10 6 45 -0.4837 0.3815
-10 6 46 0.2936 0.5503
-10 6 47 -0.8799 -0.3375
-10 6 48 0.1001 -0.8747
-10 8 1 -1.2181 -0.0336
-10 8 2 7.4541 -0.3614
-10 8 3 3.6525 0.2490
-10 8 4 -5.4319 0.3936
-10 8 5 -3.1572 -0.3129
-10 8 6 3.2389 -0.2631
-10 8 7 0.0817 0.1533
-10 8 8 -2.7875 0.0335
-10 8 9 3.3571 0.2361
-10 8 10 4.1425 0.0907
-10 8 11 -4.6528 -0.5476
-10 8 12 -4.0284 -0.0819
-10 8 13 3.0590 0.3343
-10 8 14 0.3347 0.0579
-10 8 15 -0.3556 0.2184
-10 8 16 3.6308 0.0208
-10 8 17 -1.1235 -0.3832
-10 8 18 -3.5293 -0.1951
-10 8 19 0.9348 0.0060
-10 8 20 0.6691 0.2402
-10 8 21 -0.0609 0.2637
-10 8 22 0.5438 -0.0414
-10 8 23 -0.7438 -0.0429
-10 8 24 0.3329 -0.1109
-10 8 25 0.8930 -0.2588
-10 8 26 -0.5743 0.0407
-10 8 27 -0.1506 0.1725
-10 8 28 -0.0779 0.0445
-10 8 29 -0.2255 0.1535
-10 8 30 -0.0276 -0.0924
-10 8 31 -1.0094 -0.2107
-10 8 32 0.3450 0.2559
-10 8 33 2.5502 -0.1874
-10 8 34 0.5938 -0.3256
-10 8 35 -2.6621 0.6107
-10 8 36 -1.8866 0.0571
-10 8 37 2.4578 -0.4838
-10 8 38 2.1355 0.1197
-10 8 39 -3.3225 -0.1757
-10 8 40 -2.2542 0.2100
-10 8 41 3.5680 0.8144
-10 8 42 3.3029 -0.5153
-10 8 43 -1.6299 -1.1780
-10 8 44 -4.0329 0.2164
-10 8 45 -0.5903 1.5661
-10 8 46 3.1163 0.1957
-10 8 47 1.0782 -2.1118
-10 10 1 0.3593 0.1498
-10 10 2 4.7914 -0.1376
-10 10 3 -1.5714 -0.1346
-10 10 4 -2.2249 0.1459
-10 10 5 4.6855 0.0467
-10 10 6 -0.3561 -0.0966
-10 10 7 -7.9444 0.0204
-10 10 8 2.2651 0.0439
-10 10 9 9.8951 0.0197
-10 10 10 -3.0985 -0.1311
-10 10 11 -8.8322 -0.1137
-10 10 12 3.3026 0.1839
-10 10 13 3.8969 0.1442
-10 10 14 -3.8972 0.0268
-10 10 15 1.7806 -0.0357
-10 10 16 4.7975 -0.2114
-10 10 17 -3.0418 -0.1800
-10 10 18 -4.5488 -0.0215
-10 10 19 -0.4090 0.3068
-10 10 20 2.8228 0.4222
-10 10 21 3.5405 -0.1767
-10 10 22 -1.2626 -0.4716
-10 10 23 -3.6494 -0.0561
-10 10 24 0.4203 0.1866
-10 10 25 3.0358 0.1370
-10 10 26 1.1406 0.0296
-10 10 27 -3.1256 -0.1163
-10 10 28 -3.0450 -0.0462
-10 10 29 2.1773 0.0801
-10 10 30 2.6576 0.0633
-10 10 31 -0.0161 0.1809
-10 10 32 -0.2144 -0.1740
-10 10 33 -0.7972 -0.6671
-10 10 34 -0.7642 0.1427
-10 10 35 -0.4678 0.8815
-10 10 36 -0.3617 0.2853
-10 10 37 1.7436 -0.5958
-10 10 38 0.6211 -0.8628
-10 10 39 -2.0234 0.1518
-10 10 40 0.4164 0.9542
-10 10 41 2.3028 0.3763
-10 10 42 -0.0989 -0.4374
-10 10 43 -2.8852 -1.2568
-10 10 44 -1.6393 0.0130
-10 10 45 2.7761 2.1072
-10 10 46 2.2162 -0.1799
-10 12 1 0.6189 -0.2626
-10 12 2 4.6240 0.2000
-10 12 3 1.9662 0.0285
-10 12 4 -0.4341 0.0614
-10 12 5 -3.5872 -0.0185
-10 12 6 -2.7210 -0.1438
-10 12 7 4.0133 0.0799
-10 12 8 4.2032 0.0634
-10 12 9 -3.1269 0.0012
-10 12 10 -4.4711 0.0165
-10 12 11 1.4863 -0.2089
-10 12 12 3.4202 -0.0540
-10 12 13 -0.9997 0.4228
-10 12 14 -1.6323 0.0954
-10 12 15 2.7296 -0.4573
-10 12 16 1.3682 -0.1500
-10 12 17 -4.6877 0.1788
-10 12 18 -3.2826 0.1947
-10 12 19 4.5858 0.1891
-10 12 20 4.4931 -0.1793
-10 12 21 -3.5348 -0.2350
-10 12 22 -3.0326 0.0819
-10 12 23 3.4276 -0.0462
-10 12 24 1.0237 0.0241
-10 12 25 -2.8227 0.2430
-10 12 26 -0.4459 -0.0881
-10 12 27 0.1541 -0.1573
-10 12 28 -0.1832 0.1431
-10 12 29 1.8444 0.0511
-10 12 30 2.0729 -0.1359
-10 12 31 -0.4420 -0.1845
-10 12 32 -3.4797 0.0294
-10 12 33 -1.7261 0.3718
-10 12 34 3.1417 -0.0674
-10 12 35 1.1566 -0.2095
-10 12 36 -2.3327 0.4088
-10 12 37 0.6268 -0.1948
-10 12 38 1.9813 -0.7193
-10 12 39 -0.8045 0.0738
-10 12 40 -1.2886 0.8205
-10 12 41 0.3479 0.9276
-10 12 42 -0.0354 -1.1993
-10 12 43 -0.8804 -1.9140
-10 12 44 0.9023 1.9881
-10 14 1 6.0930 0.0735
-10 14 2 3.8416 -0.0958
-10 14 3 -5.0276 -0.0739
-10 14 4 -3.3442 0.3577
-10 14 5 4.9836 -0.0785
-10 14 6 4.1089 -0.2331
-10 14 7 -5.3939 0.1699
-10 14 8 -4.9752 0.0215
-10 14 9 5.4063 -0.0840
-10 14 10 3.8371 -0.0021
-10 14 11 -5.1922 -0.1409
-10 14 12 -0.9213 0.0844
-10 14 13 4.8292 0.3102
-10 14 14 -0.9245 -0.0831
-10 14 15 -2.9720 -0.1994
-10 14 16 0.3130 -0.0168
-10 14 17 -0.7983 -0.0966
-10 14 18 1.0221 0.1017
-10 14 19 3.6771 0.2124
-10 14 20 -1.9870 -0.0670
-10 14 21 -3.1528 -0.0572
-10 14 22 3.6015 -0.0572
-10 14 23 0.9890 -0.0628
-10 14 24 -5.1161 0.0706
-10 14 25 0.0399 -0.0661
-10 14 26 3.7220 0.1992
-10 14 27 -0.6342 0.2954
-10 14 28 0.0006 -0.5925
-10 14 29 2.3080 -0.3334
-10 14 30 -1.8050 0.6362
-10 14 31 -3.7459 0.0796
-10 14 32 0.4435 -0.0873
-10 14 33 3.5905 0.2269
-10 14 34 0.8808 -0.6004
-10 14 35 -3.2038 -0.3878
-10 14 36 -0.3479 0.7962
-10 14 37 3.6441 0.7899
-10 14 38 -0.6546 -0.7149
-10 14 39 -3.4954 -1.8587
-10 14 40 1.3322 1.1354
-10 14 41 1.7659 2.8985
-10 14 42 -2.0320 -1.8914
-10 14 43 0.1990 -2.6839
-10 16 1 4.1620 0.1416
-10 16 2 -1.9843 0.0049
-10 16 3 -1.8630 -0.0878
-10 16 4 6.4170 0.0159
-10 16 5 1.3190 -0.0012
-10 16 6 -8.5935 0.0629
-10 16 7 -2.2163 0.0195
-10 16 8 7.1602 -0.1519
-10 16 9 2.8331 -0.0639
-10 16 10 -4.6667 0.1262
-10 16 11 -1.8388 0.0776
-10 16 12 4.3135 0.0186
-10 16 13 -0.0555 0.0322
-10 16 14 -5.3412 -0.0503
-10 16 15 1.3091 -0.0904
-10 16 16 4.4516 -0.1150
-10 16 17 -1.9875 -0.0495
-10 16 18 -1.5627 0.1388
-10 16 19 2.7722 0.1640
-10 16 20 -0.2471 0.1883
-10 16 21 -2.6797 -0.0434
-10 16 22 0.4167 -0.4826
-10 16 23 0.9939 -0.1120
-10 16 24 -1.0582 0.2982
-10 16 25 0.1303 0.0841
-10 16 26 1.7457 0.2569
-10 16 27 1.3488 -0.0283
-10 16 28 -0.2301 -0.7031
-10 16 29 -3.6771 0.0318
-10 16 30 -2.2437 0.6736
-10 16 31 3.9365 0.2389
-10 16 32 2.3446 -0.2136
-10 16 33 -2.1147 -0.8481
-10 16 34 -0.3994 -0.2717
-10 16 35 0.0211 1.0790
-10 16 36 -0.5098 0.6796
-10 16 37 1.2074 -0.4753
-10 16 38 -0.2878 -1.5790
-10 16 39 -0.9231 -0.1272
-10 16 40 0.9827 3.0962
-10 18 1 5.7698 -0.0977
-10 18 2 3.5956 -0.2788
-10 18 3 -1.2680 -0.1324
-10 18 4 -2.5556 0.1387
-10 18 5 -2.3112 0.1652
-10 18 6 0.9611 0.0478
-10 18 7 1.6386 -0.1781
-10 18 8 -0.6790 -0.1541
-10 18 9 2.5978 0.2748
-10 18 10 1.7872 0.1620
-10 18 11 -5.4895 -0.2683
-10 18 12 -3.0648 -0.0140
-10 18 13 3.6334 0.1224
-10 18 14 3.3284 -0.1130
-10 18 15 0.5946 -0.0394
-10 18 16 -2.8393 -0.0377
-10 18 17 -3.3577 -0.0026
-10 18 18 2.8673 0.2240
-10 18 19 4.7407 0.1788
-10 18 20 -3.5232 -0.0075
-10 18 21 -5.9309 -0.3365
-10 18 22 3.7003 -0.3627
-10 18 23 5.4103 0.1939
-10 18 24 -3.2998 0.2339
-10 18 25 -2.6793 0.1882
-10 18 26 3.1701 0.3273
-10 18 27 1.1314 -0.5463
-10 18 28 -3.0194 -0.6168
-10 18 29 -2.6691 0.6214
-10 18 30 1.8488 0.4259
-10 18 31 4.0054 -0.1627
-10 18 32 0.1854 -0.0935
-10 18 33 -2.0025 -0.6005
-10 18 34 -2.3571 -0.5320
-10 18 35 -1.5721 0.8196
-10 18 36 4.4217 1.9553
-10 18 38 -5.6144 -3.6012
-10 20 1 8.1604 -0.2383
-10 20 2 -0.5135 -0.5805
-10 20 3 -5.8426 0.1306
-10 20 4 -0.1055 0.4033
-10 20 5 1.2254 -0.0844
-10 20 6 -0.2280 0.1195
-10 20 7 1.4204 0.0784
-10 20 8 2.8092 -0.3212
-10 20 9 -0.0817 0.0101
-10 20 10 -6.4998 0.2347
-10 20 11 -3.4453 -0.0499
-10 20 12 7.3481 -0.2585
-10 20 13 5.4833 -0.0419
-10 20 14 -4.1524 0.3349
-10 20 15 -4.1590 0.0339
-10 20 16 0.4215 -0.1870
-10 20 17 0.9481 0.0478
-10 20 18 1.4722 -0.1586
-10 20 19 1.6475 0.2496
-10 20 20 -2.9570 0.5353
-10 20 21 -2.4078 -0.8791
-10 20 22 4.5209 -0.7773
-10 20 23 1.0613 1.0358
-10 20 24 -4.2906 0.6282
-10 20 25 1.7842 -0.3465
-10 20 26 2.5955 -0.0733
-10 20 27 -3.8605 -0.5173
-10 20 28 -2.2478 -0.5901
-10 20 29 3.1367 0.8304
-10 20 30 3.5783 1.4895
-10 20 31 -0.6458 -0.5902
-10 20 32 -3.9532 -3.0058
-10 20 33 -1.0752 -0.0523
-10 20 34 2.2054 4.3759
-10 20 35 1.5566 1.2502
-10 22 1 5.7406 -0.4181
-10 22 2 -2.9043 -0.4176
-10 22 3 -3.7297 0.7717
-10 22 4 0.0134 0.0629
-10 22 5 2.1652 -0.3080
-10 22 6 2.6990 0.3660
-10 22 7 -2.0527 -0.2424
-10 22 8 -2.2552 -0.2304
-10 22 9 1.3871 0.2750
-10 22 10 -1.9317 -0.2796
-10 22 11 -0.1927 -0.0760
-10 22 12 5.9983 0.5056
-10 22 13 0.6207 0.0474
-10 22 14 -5.4516 -0.3826
-10 22 15 -1.9019 -0.1302
-10 22 16 0.7359 0.2519
-10 22 17 1.2206 0.1178
-10 22 18 3.8312 -0.0611
-10 22 19 0.9540 0.1060
-10 22 20 -5.4485 -0.2676
-10 22 21 -1.7805 -0.4628
-10 22 22 4.1405 0.2189
-10 22 23 0.9378 0.5061
-10 22 24 -0.8056 0.6182
-10 22 25 -0.1969 0.0784
-10 22 26 -2.7450 -1.7824
-10 22 27 -0.0261 -0.8055
-10 22 28 3.9668 2.5556
-10 22 29 0.4007 1.1588
-10 22 30 -2.4896 -2.7390
-10 22 31 -0.8854 -1.6508
-10 24 1 2.2272 -0.0224
-10 24 2 -0.2500 0.2391
-10 24 3 -0.5364 0.2512
-10 24 4 -1.7995 -0.3855
-10 24 5 -1.3780 0.0208
-10 24 6 0.9442 -0.0502
-10 24 7 1.7189 -0.1818
-10 24 8 1.1847 0.2900
-10 24 9 -2.7525 -0.0483
-10 24 10 -1.7575 0.0979
-10 24 11 5.1962 0.0689
-10 24 12 1.2339 -0.6294
-10 24 13 -5.1392 0.4770
-10 24 14 -0.9195 0.6263
-10 24 15 0.4538 -1.1412
-10 24 16 0.0322 0.0527
-10 24 17 4.8378 1.4923
-10 24 18 1.8009 -0.8707
-10 24 19 -6.1588 -1.3913
-10 24 20 -2.8621 1.1093
-10 24 21 3.8643 0.5298
-10 24 22 2.1530 -0.7397
-10 24 23 -0.8314 1.1018
-10 26 1 9.4962 -0.1709
-10 26 2 -8.2991 -0.6285
-10 26 3 -7.6292 0.4052
-10 26 4 0.7268 -0.5197
-10 26 5 4.0694 -1.0219
-10 26 6 3.4275 0.8896
-10 26 7 -1.1440 1.5201
-10 26 8 -2.5753 -0.7693
-10 26 9 0.6810 -1.0603
-10 26 10 1.4156 0.3194
-10 26 11 -1.5309 -0.1867
-10 26 12 -1.3986 0.5875
-10 26 13 1.8270 1.0637
-10 26 14 -0.2940 -1.6572
-10 26 15 -1.8219 -0.7581
-10 26 16 3.6310 2.4530
-10 26 17 2.2228 -0.2987
-10 26 18 -5.1145 -2.8064
-10 26 19 -2.2651 0.9570
-10 28 5 -2.2332 1.3034
-9 1 1 -3.3165 1.5919
-9 1 2 -5.8910 0.8487
-9 1 3 4.9124 -1.7962
-9 1 4 1.2871 -0.7105
-9 1 5 -5.0557 0.7901
-9 1 6 0.5979 -0.5138
-9 1 7 4.9078 0.4489
-9 1 8 2.6898 1.6266
-9 1 9 -5.2941 -0.7430
-9 1 10 -7.8777 -1.4059
-9 1 11 5.4412 -0.0645
-9 1 12 10.4352 0.1156
-9 1 13 -4.6945 1.0482
-9 1 14 -9.8263 0.7934
-9 1 15 3.5376 -1.3529
-9 1 16 7.5070 -0.4798
-9 1 17 -2.2874 1.0172
-9 1 18 -3.5607 -0.4552
-9 1 19 1.0224 -0.5115
-9 1 20 -1.2790 0.9375
-9 1 21 -0.5246 0.0728
-9 1 22 4.4385 -0.6148
-9 1 23 0.8210 0.1258
-9 1 24 -5.1704 -0.0133
-9 1 25 -0.0219 0.1670
-9 1 26 5.3475 0.2807
-9 1 27 -2.6868 -0.7690
-9 1 28 -5.3477 -0.0290
-9 1 29 4.7700 1.0626
-9 1 30 3.5850 -0.3498
-9 1 31 -3.8195 -0.8583
-9 1 32 -0.3521 0.4909
-9 1 33 1.2262 0.5971
-9 1 34 -2.1967 -0.4550
-9 1 35 0.1411 -0.5465
-9 1 36 3.4398 0.4136
-9 1 37 0.1346 0.5005
-9 1 38 -4.0882 -0.2867
-9 1 39 -0.6668 -0.2710
-9 1 40 3.7568 0.0400
-9 1 41 1.0508 -0.0857
-9 1 42 -1.7858 -0.0283
-9 1 43 -1.8141 0.2947
-9 1 44 -0.6404 0.5490
-9 1 45 2.5852 0.1808
-9 1 46 1.5267 -1.2137
-9 1 47 -2.2579 -1.5867
-9 1 48 -0.6087 1.2996
-9 1 49 0.9087 3.1160
-9 1 50 -0.5296 -0.7429
-9 3 1 1.0407 0.7493
-9 3 2 3.6678 -0.4103
-9 3 3 -3.8976 -0.7632
-9 3 4 -8.3223 0.1223
-9 3 5 4.6558 0.1253
-9 3 6 8.3138 0.2554
-9 3 7 -2.0159 0.5284
-9 3 8 -4.4117 -0.2763
-9 3 9 -1.8279 -0.3135
-9 3 10 0.2791 -0.0861
-9 3 11 3.2164 -0.7362
-9 3 12 2.0730 0.3857
-9 3 13 -2.2443 1.4637
-9 3 14 -3.1695 -0.2970
-9 3 15 2.0220 -1.0396
-9 3 16 3.3699 0.0597
-9 3 17 -2.9466 0.0242
-9 3 18 -1.6149 -0.0512
-9 3 19 2.6564 0.5041
-9 3 20 -2.6336 0.1616
-9 3 21 -0.8138 -0.2548
-9 3 22 7.3892 -0.0897
-9 3 23 -1.0091 -0.2711
-9 3 24 -9.1141 -0.0181
-9 3 25 2.5128 0.5349
-9 3 26 6.1710 -0.1301
-9 3 27 -3.5488 -0.3964
-9 3 28 -1.0854 0.3451
-9 3 29 2.5209 0.1444
-9 3 30 -1.7380 -0.3009
-9 3 31 0.7361 -0.1536
-9 3 32 1.0143 0.1172
-9 3 33 -3.5861 0.3448
-9 3 34 0.0922 -0.0368
-9 3 35 4.2629 -0.2860
-9 3 36 1.4285 0.0297
-9 3 37 -3.7215 -0.0274
-9 3 38 -4.2951 -0.0864
-9 3 39 2.8704 0.0813
-9 3 40 5.2431 0.2678
-9 3 41 -1.1648 0.2507
-9 3 42 -3.8354 -0.3390
-9 3 43 -1.4706 -0.4419
-9 3 44 2.3319 0.0818
-9 3 45 3.6936 0.2700
-9 3 46 -1.7459 0.1828
-9 3 47 -4.1634 -0.2863
-9 3 48 0.9967 -0.1339
-9 3 49 2.9305 0.8958
-9 3 50 0.2390 0.0700
-9 5 1 2.6090 0.0514
-9 5 2 -10.2569 -0.0357
-9 5 3 -4.9547 0.0279
-9 5 4 7.0741 -0.2373
-9 5 5 3.4972 -0.0297
-9 5 6 -4.3183 0.5525
-9 5 7 0.6836 -0.0109
-9 5 8 3.1326 -0.4632
-9 5 9 -2.9967 0.0063
-9 5 10 -3.9792 -0.1605
-9 5 11 1.5412 -0.0101
-9 5 12 6.0248 0.6052
-9 5 13 -0.1017 0.1279
-9 5 14 -6.7404 -0.1318
-9 5 15 2.3179 -0.2682
-9 5 16 4.6890 -0.7877
-9 5 17 -5.7105 0.2112
-9 5 18 -1.4295 0.9896
-9 5 19 5.2509 0.0017
-9 5 20 -0.9106 -0.2350
-9 5 21 -0.6502 -0.0663
-9 5 22 1.7350 -0.5977
-9 5 23 -3.6007 -0.0728
-9 5 24 -1.0722 0.7455
-9 5 25 3.9272 0.1383
-9 5 26 -0.4679 -0.2380
-9 5 27 -0.7754 -0.0582
-9 5 28 0.9205 -0.3998
-9 5 29 -2.6747 0.0497
-9 5 30 0.8902 0.6199
-9 5 31 3.5761 -0.1388
-9 5 32 -3.0891 -0.3278
-9 5 33 -2.3336 0.1854
-9 5 34 2.9824 0.0392
-9 5 35 2.1675 -0.2371
-9 5 36 -0.3929 -0.1465
-9 5 37 -4.4609 0.2664
-9 5 38 -2.7429 0.2535
-9 5 39 6.3723 0.0178
-9 5 40 4.7183 0.1250
-9 5 41 -5.0810 -0.4995
-9 5 42 -5.2211 -0.6277
-9 5 43 1.9609 0.4736
-9 5 44 5.1144 0.6281
-9 5 45 -0.0994 0.2913
-9 5 46 -5.0426 -0.2974
-9 5 47 0.0198 -1.1240
-9 5 48 4.2948 0.2296
-9 5 49 -0.2086 1.4961
-9 5 50 -2.1963 -0.4155
-9 7 1 -4.3734 -0.0313
-9 7 2 -3.6121 0.0506
-9 7 3 -0.1231 0.2891
-9 7 4 -0.5499 -0.2323
-9 7 5 2.4263 -0.1716
-9 7 6 3.9509 0.2621
-9 7 7 -2.1415 -0.2111
-9 7 8 -3.3716 -0.1343
-9 7 9 0.8267 0.2837
-9 7 10 -1.8576 -0.0046
-9 7 11 0.6514 0.0881
-9 7 12 6.9365 0.0203
-9 7 13 -2.6127 -0.2218
-9 7 14 -5.9370 0.1209
-9 7 15 4.7271 -0.2298
-9 7 16 -0.1929 -0.3313
-9 7 17 -5.4134 0.5544
-9 7 18 4.6498 0.4376
-9 7 19 3.6053 -0.1221
-9 7 20 -4.1626 -0.3164
-9 7 21 -0.4347 -0.5734
-9 7 22 2.0949 0.0903
-9 7 23 -1.7219 0.6833
-9 7 24 -2.1351 -0.0556
-9 7 25 2.0239 -0.1148
-9 7 26 4.2062 0.2627
-9 7 27 -1.8799 -0.5605
-9 7 28 -6.5516 -0.4231
-9 7 29 2.4367 0.7621
-9 7 30 7.5806 0.3938
-9 7 31 -2.9689 -0.3532
-9 7 32 -6.3137 -0.3163
-9 7 33 2.3873 -0.1702
-9 7 34 3.7706 0.1537
-9 7 35 -0.5489 0.1750
-9 7 36 -2.2776 0.2388
-9 7 37 -2.1379 0.2219
-9 7 38 2.0798 -0.5328
-9 7 39 4.5066 -0.3580
-9 7 40 -1.2756 0.2922
-9 7 41 -4.7010 0.1809
-9 7 42 -0.4996 0.1454
-9 7 43 2.5574 -0.2786
-9 7 44 1.4080 -0.1644
-9 7 45 -0.4990 0.7233
-9 7 46 -0.4014 0.0096
-9 7 47 0.1153 -0.9521
-9 7 48 -1.6471 -0.3235
-9 7 49 -0.0597 0.8481
-9 7 50 3.2787 0.9147
-9 9 1 -0.6474 -0.4186
-9 9 2 -7.0125 0.1801
-9 9 3 -3.5670 0.3951
-9 9 4 5.7935 -0.3872
-9 9 5 6.0816 -0.1498
-9 9 6 -5.0758 0.1483
-9 9 7 -5.5203 -0.1355
-9 9 8 5.4195 0.2714
-9 9 9 1.4626 0.2403
-9 9 10 -6.1770 -0.2474
-9 9 11 3.7695 -0.0994
-9 9 12 5.0678 -0.1501
-9 9 13 -5.7420 -0.0651
-9 9 14 -0.5929 0.2413
-9 9 15 3.2299 0.0417
-9 9 16 -4.6262 0.0843
-9 9 17 -0.2389 0.0492
-9 9 18 5.9117 -0.2511
-9 9 19 -0.0249 0.0468
-9 9 20 -2.7289 0.0677
-9 9 21 -0.5123 -0.2825
-9 9 22 -0.5319 0.0355
-9 9 23 -0.9075 0.3194
-9 9 24 0.9605 0.1761
-9 9 25 3.6115 -0.0476
-9 9 26 -0.3277 -0.4339
-9 9 27 -5.7778 -0.1686
-9 9 28 0.5566 0.3920
-9 9 29 6.7962 0.0316
-9 9 30 -0.6437 0.0432
-9 9 31 -6.1952 0.2049
-9 9 32 0.0006 -0.5809
-9 9 33 3.9212 -0.2276
-9 9 34 -0.1901 0.6936
-9 9 35 -1.5678 0.2057
-9 9 36 1.3813 -0.2713
-9 9 37 0.4510 -0.2738
-9 9 38 -1.5317 -0.1495
-9 9 39 0.1502 0.0800
-9 9 40 0.4642 0.2324
-9 9 41 -0.9668 0.4895
-9 9 42 -0.3449 -0.2848
-9 9 43 1.3453 -0.9343
-9 9 44 1.3728 0.3919
-9 9 45 -0.8980 1.1374
-9 9 46 -1.3290 -0.0548
-9 9 47 0.0397 -1.6952
-9 9 48 -0.2949 -0.7554
-9 11 1 -8.2802 -0.3768
-9 11 2 -6.1478 0.0466
-9 11 3 2.5397 0.3669
-9 11 4 4.1397 0.0339
-9 11 5 1.1373 -0.2531
-9 11 6 -3.6407 -0.1450
-9 11 7 -1.8440 0.2187
-9 11 8 3.9161 0.2279
-9 11 9 0.0987 -0.1397
-9 11 10 -3.1314 -0.0995
-9 11 11 2.3385 -0.1170
-9 11 12 1.4501 -0.1952
-9 11 13 -2.5043 0.2863
-9 11 14 -0.1076 0.3425
-9 11 15 -0.2483 -0.1164
-9 11 16 -1.1842 -0.2271
-9 11 17 2.2322 -0.1466
-9 11 18 2.9055 0.0912
-9 11 19 -0.6534 0.1633
-9 11 20 -3.5893 -0.1160
-9 11 21 -1.5754 -0.0080
-9 11 22 2.1714 0.1356
-9 11 23 0.6372 -0.0918
-9 11 24 -0.2046 0.0495
-9 11 25 1.8039 0.1059
-9 11 26 -0.8252 -0.2496
-9 11 27 -2.1872 -0.0757
-9 11 28 1.3862 0.1050
-9 11 29 1.4228 0.0096
-9 11 30 -1.5971 0.2894
-9 11 31 -2.0636 0.0769
-9 11 32 0.8280 -0.4630
-9 11 33 2.7729 -0.2379
-9 11 34 -0.1093 0.3243
-9 11 35 -1.2254 0.4779
-9 11 36 0.9596 -0.1706
-9 11 37 -0.8811 -0.5264
-9 11 38 -2.3951 -0.0510
-9 11 39 0.7405 0.2249
-9 11 40 2.6213 0.5522
-9 11 41 0.7666 0.0757
-9 11 42 -1.9292 -0.8897
-9 11 43 -1.2778 -0.2064
-9 11 44 1.1915 0.5698
-9 11 45 1.0126 0.7378
-9 11 46 -0.1846 -0.2330
-9 11 47 -1.3905 -1.9025
-9 13 1 -6.7585 -0.3657
-9 13 2 -0.2423 0.2178
-9 13 3 1.6242 0.4642
-9 13 4 2.5462 -0.2243
-9 13 5 0.7721 -0.2587
-9 13 6 -5.1664 0.0942
-9 13 7 -0.0007 -0.0457
-9 13 8 6.9845 0.0493
-9 13 9 -1.8117 0.2465
-9 13 10 -6.0052 -0.1584
-9 13 11 3.2591 -0.3005
-9 13 12 2.5310 0.2069
-9 13 13 -4.0008 0.1934
-9 13 14 0.7736 -0.1171
-9 13 15 3.1789 0.0459
-9 13 16 -2.9839 -0.0748
-9 13 17 -0.5913 -0.2699
-9 13 18 5.3026 0.1862
-9 13 19 -1.6615 0.3348
-9 13 20 -6.7140 -0.1371
-9 13 21 1.9530 -0.2666
-9 13 22 4.5033 0.0250
-9 13 23 -1.7315 0.2279
-9 13 24 0.0269 0.0540
-9 13 25 2.2375 -0.2835
-9 13 26 -2.2721 -0.0683
-9 13 27 -1.8210 0.2671
-9 13 28 1.5580 0.0198
-9 13 29 -0.2886 -0.0587
-9 13 30 -1.6960 0.0466
-9 13 31 1.7314 -0.1527
-9 13 32 3.9925 -0.1255
-9 13 33 -1.3905 0.2317
-9 13 34 -5.6104 0.2352
-9 13 35 1.3155 -0.4027
-9 13 36 5.0077 -0.1765
-9 13 37 -2.3219 0.6802
-9 13 38 -3.7174 -0.2654
-9 13 39 2.5703 -0.6349
-9 13 40 2.7926 0.7309
-9 13 41 -1.4326 0.4328
-9 13 42 -1.7441 -0.6804
-9 13 43 0.2622 -1.0514
-9 13 44 0.7060 0.4810
-9 13 45 0.4098 2.4743
-9 13 46 -0.4582 -0.9298
-9 15 1 -0.0490 -0.3799
-9 15 2 -0.5698 -0.1287
-9 15 3 -0.9716 0.3789
-9 15 4 -1.1169 0.2126
-9 15 5 -0.1428 -0.3450
-9 15 6 2.9271 -0.3756
-9 15 7 2.3199 0.2542
-9 15 8 -2.5751 0.4131
-9 15 9 -3.4146 -0.0863
-9 15 10 0.8404 -0.2340
-9 15 11 2.6240 -0.0533
-9 15 12 -0.5040 -0.0270
-9 15 13 -1.2676 0.0876
-9 15 14 1.9045 0.1551
-9 15 15 0.1705 -0.0936
-9 15 16 -2.7066 -0.0861
-9 15 17 1.7701 0.1262
-9 15 18 2.2258 -0.0701
-9 15 19 -4.4420 -0.1165
-9 15 20 -1.7317 0.2316
-9 15 21 5.0327 0.0495
-9 15 22 0.7173 -0.3714
-9 15 23 -2.4884 -0.0194
-9 15 24 1.8355 0.3658
-9 15 25 -0.1182 0.0434
-9 15 26 -3.2871 -0.1393
-9 15 27 0.4918 0.0103
-9 15 28 0.4544 -0.1263
-9 15 29 -0.4295 -0.2425
-9 15 30 4.3059 0.2663
-9 15 31 1.8014 0.5123
-9 15 32 -5.9714 -0.3294
-9 15 33 -3.2953 -0.5231
-9 15 34 4.0087 0.2169
-9 15 35 3.1193 0.2785
-9 15 36 -1.5874 0.2131
-9 15 37 -1.3960 -0.1943
-9 15 38 0.2013 -0.4718
-9 15 39 -1.1247 0.3506
-9 15 40 0.6932 0.0014
-9 15 41 3.7118 -0.1282
-9 15 42 -1.2974 0.4485
-9 15 43 -4.8881 -0.6681
-9 17 1 -7.8022 0.1702
-9 17 2 -6.2415 0.1952
-9 17 3 2.7468 -0.1807
-9 17 4 3.9266 -0.1563
-9 17 5 2.6886 0.1959
-9 17 6 -1.0624 0.0011
-9 17 7 -4.6035 -0.1692
-9 17 8 0.9586 0.2039
-9 17 9 1.8255 0.1316
-9 17 10 -3.0279 -0.2823
-9 17 11 2.2830 -0.1468
-9 17 12 3.6846 0.1128
-9 17 13 -3.7602 0.1219
-9 17 14 -1.0389 0.1229
-9 17 15 2.5680 0.0482
-9 17 16 -2.3937 -0.1746
-9 17 17 -0.5782 -0.2220
-9 17 18 3.3237 0.1067
-9 17 19 -1.9157 0.2255
-9 17 20 -2.2285 -0.0956
-9 17 21 4.1295 -0.1341
-9 17 22 1.4007 0.0681
-9 17 23 -3.3607 0.0302
-9 17 24 -0.8924 0.0884
-9 17 25 -0.2970 0.1622
-9 17 26 0.0148 -0.2234
-9 17 27 2.2265 -0.3430
-9 17 28 -0.0535 0.1496
-9 17 29 0.0611 0.2785
-9 17 30 1.7344 0.0255
-9 17 31 -3.0337 -0.0780
-9 17 32 -2.8628 0.0057
-9 17 33 2.7244 -0.1160
-9 17 34 1.5608 -0.3682
-9 17 35 0.0689 0.6909
-9 17 36 1.0305 0.7746
-9 17 37 -2.1435 -1.7124
-9 17 38 -3.1867 -0.8952
-9 17 39 1.9751 2.0486
-9 17 40 4.6532 1.0084
-9 17 41 -0.3705 -0.8916
-9 19 1 -8.7472 -0.0866
-9 19 2 3.9710 0.1282
-9 19 3 7.3989 -0.0154
-9 19 4 -1.7412 0.0348
-9 19 5 -1.9918 0.0976
-9 19 6 0.2653 -0.2587
-9 19 7 -1.5431 0.0254
-9 19 8 -0.4358 0.1561
-9 19 9 -0.0805 -0.1910
-9 19 10 2.0588 0.1445
-9 19 11 4.2869 0.0261
-9 19 12 -2.9005 -0.2506
-9 19 13 -5.9685 0.3477
-9 19 14 1.9519 0.1203
-9 19 15 3.7668 -0.3669
-9 19 16 -0.6550 0.0490
-9 19 17 -0.6245 -0.0475
-9 19 18 -0.6287 -0.1907
-9 19 19 -1.4739 0.3486
-9 19 20 3.1183 0.3085
-9 19 21 2.9838 -0.2526
-9 19 22 -5.7161 -0.3894
-9 19 23 -3.3092 0.0121
-9 19 24 5.5111 0.4470
-9 19 25 1.2634 0.1788
-9 19 26 -2.7140 -0.3352
-9 19 27 1.0673 -0.3605
-9 19 28 0.5775 -0.1610
-9 19 29 -0.3531 0.5374
-9 19 30 -0.4600 0.6840
-9 19 31 -2.4902 -0.7329
-9 19 32 0.7424 -0.5398
-9 19 33 3.6816 1.0332
-9 19 34 -0.1567 0.0832
-9 19 35 -2.3544 -1.3331
-9 19 36 -0.6558 -0.6044
-9 19 37 0.7684 1.4047
-9 21 1 -9.2072 0.2585
-9 21 2 5.2046 0.5146
-9 21 3 6.9296 -0.4780
-9 21 4 -1.5558 0.1409
-9 21 5 -2.4324 0.1822
-9 21 6 -3.8550 -0.7131
-9 21 7 -0.7764 0.1817
-9 21 8 6.2640 0.5250
-9 21 9 1.7250 -0.1419
-9 21 10 -3.4426 -0.0489
-9 21 11 -0.4078 -0.0688
-9 21 12 -1.1550 -0.0214
-9 21 13 -2.4420 0.0308
-9 21 14 2.8406 -0.0286
-9 21 15 4.1428 0.2032
-9 21 16 -1.5980 -0.3305
-9 21 17 -2.7111 -0.2885
-9 21 18 -0.0533 0.7218
-9 21 19 -0.0322 0.0856
-9 21 20 1.7693 -0.4966
-9 21 21 1.1106 0.1740
-9 21 22 -3.4799 -0.1903
-9 21 23 -0.4196 -0.1545
-9 21 24 2.7857 0.7246
-9 21 25 -0.2943 -0.0589
-9 21 26 1.0307 -0.7537
-9 21 27 0.2983 -0.0600
-9 21 28 -4.2649 0.2313
-9 21 29 0.0545 0.5253
-9 21 30 3.8872 0.4517
-9 21 31 -0.2926 -0.3556
-9 21 32 -1.6067 -0.4711
-9 21 33 0.0193 -1.0139
-9 21 34 0.2755 -0.4092
-9 21 35 0.7037 2.3761
-9 23 1 -1.5697 1.1709
-9 23 2 14.3873 0.7124
-9 23 3 0.8718 -0.7069
-9 23 4 -7.8964 -0.2448
-9 23 5 -0.9140 -0.4732
-9 23 6 2.3691 0.2132
-9 23 7 2.3333 1.0051
-9 23 8 -0.2642 -0.2794
-9 23 9 -2.2209 -0.3968
-9 23 10 1.5855 0.0178
-9 23 11 -0.4746 -0.3856
-9 23 12 -4.8624 0.3870
-9 23 13 2.1572 0.6087
-9 23 14 6.9245 -0.5087
-9 23 15 -0.6477 -0.5799
-9 23 16 -5.0756 0.3480
-9 23 17 -1.3609 0.5178
-9 23 18 0.4019 -0.2670
-9 23 19 1.5405 -0.1534
-9 23 20 3.5095 0.3205
-9 23 21 -0.9403 -0.3558
-9 23 22 -4.7222 -0.0529
-9 23 23 0.1242 0.4217
-9 23 24 3.8797 -0.7473
-9 23 25 2.0546 0.1325
-9 23 26 -2.4393 1.4257
-9 23 27 -4.9024 -1.1524
-9 23 28 1.6498 -1.2098
-9 23 29 5.9712 2.4622
-9 23 30 -1.8233 0.4293
-9 23 31 -4.8372 -3.3885
-9 25 1 1.8282 0.1385
-9 25 2 3.4860 -0.0013
-9 25 3 1.1193 0.1282
-9 25 4 1.9396 -0.1802
-9 25 5 -2.2035 -0.3027
-9 25 6 -5.1682 0.6475
-9 25 7 2.0834 0.1930
-9 25 8 4.6296 -0.5298
-9 25 9 -1.0014 -0.1663
-9 25 10 -3.6370 -0.1403
-9 25 11 -1.6714 0.4354
-9 25 12 3.2980 0.5249
-9 25 13 4.4754 -0.5788
-9 25 14 -1.9064 -0.3231
-9 25 15 -4.5972 0.1887
-9 25 16 0.0874 -0.1818
-9 25 17 2.2307 0.4070
-9 25 18 -0.1989 0.7784
-9 25 19 -0.4362 -0.6919
-9 25 20 2.0040 -1.0768
-9 25 21 0.6611 0.9093
-9 25 22 -3.5838 0.5037
-9 25 23 -1.7076 -1.6349
-9 25 24 4.5374 0.7324
-9 25 25 2.3264 2.5665
-9 25 26 -5.1452 -1.6842
-9 27 1 3.9710 0.7847
-9 27 2 14.8687 0.3162
-9 27 3 -0.4200 0.3144
-9 27 4 -10.4710 0.2826
-9 27 5 -3.7521 -1.1214
-9 27 6 4.7256 -0.5553
-9 27 7 4.5635 1.2891
-9 27 8 -2.2049 0.5352
-9 27 9 -2.7690 -1.1779
-9 27 10 1.4741 -0.3415
-9 27 11 0.7628 0.8046
-9 27 12 0.1848 0.2921
-9 27 13 1.1204 -0.0604
-9 27 14 -1.9203 -0.8049
-9 27 15 -2.7945 -0.7965
-9 27 16 2.2795 1.6438
-9 27 17 3.1410 1.4742
-9 27 18 -2.2901 -1.9350
-9 27 19 -2.0952 -1.7684
-9 29 1 12.7291 -0.8548
-9 29 2 -3.2322 0.4139
-8 0 2 -5.0620 2.6863
-8 0 4 6.8141 1.1954
-8 0 6 -9.4408 -2.8150
-8 0 8 5.3864 1.4051
-8 0 10 2.8446 1.0242
-8 0 12 -6.8044 -2.1648
-8 0 14 4.8844 1.6325
-8 0 16 -1.6101 -0.5896
-8 0 18 -1.8818 0.0885
-8 0 20 6.2173 -0.3026
-8 0 22 -7.7769 0.7921
-8 0 24 4.4779 -1.0163
-8 0 26 -1.6814 0.8098
-8 0 28 3.7949 -0.5042
-8 0 30 -6.7890 0.4406
-8 0 32 5.7969 -0.5498
-8 0 34 -2.7561 0.6238
-8 0 36 1.2092 -0.6472
-8 0 38 -0.5368 0.6328
-8 0 40 -0.6458 -0.5531
-8 0 42 1.2166 0.5733
-8 0 44 -0.4091 -0.8355
-8 0 48 0.3165 -0.4518
-8 0 50 -0.2584 -0.6364
-8 0 52 0.7798 1.6163
-8 2 1 4.7270 2.2825
-8 2 2 7.3879 0.3209
-8 2 3 -3.2019 0.1270
-8 2 4 -2.4199 0.3282
-8 2 5 -0.0024 -2.0103
-8 2 6 -1.8472 -0.6738
-8 2 7 -0.3085 1.8652
-8 2 8 1.0669 0.3289
-8 2 9 5.1213 -0.3153
-8 2 10 2.9868 0.3289
-8 2 11 -8.4914 -0.8678
-8 2 12 -5.5554 -0.6530
-8 2 13 6.5663 0.8455
-8 2 14 5.6379 0.4724
-8 2 15 -2.8619 -0.1950
-8 2 16 -5.6508 -0.1323
-8 2 17 0.7376 -0.2460
-8 2 18 6.2464 -0.0146
-8 2 19 1.0584 0.2109
-8 2 20 -6.0206 -0.0164
-8 2 21 -2.3394 0.0894
-8 2 22 4.8965 0.0008
-8 2 23 0.4599 -0.2600
-8 2 24 -3.9942 0.0705
-8 2 25 2.6166 0.0792
-8 2 26 3.4637 -0.0034
-8 2 27 -1.7811 0.1744
-8 2 28 -2.8138 -0.1758
-8 2 29 -1.9933 -0.0857
-8 2 30 1.7949 0.2196
-8 2 31 2.9134 -0.2277
-8 2 32 -0.0021 -0.0980
-8 2 33 -0.1894 0.3572
-8 2 34 -2.4388 0.0104
-8 2 35 -1.7171 -0.2989
-8 2 36 3.9228 -0.0190
-8 2 37 1.2838 0.2257
-8 2 38 -3.2184 0.0571
-8 2 39 -1.1057 0.0337
-8 2 40 1.4512 -0.1150
-8 2 41 2.2111 -0.5147
-8 2 42 -0.3779 0.1330
-8 2 43 -2.9203 0.6535
-8 2 44 0.0783 -0.0038
-8 2 45 2.5061 -0.0949
-8 2 46 0.0463 -0.2236
-8 2 47 -2.0409 -0.6303
-8 2 48 0.2882 0.5150
-8 2 49 2.0681 0.9137
-8 2 50 -1.2578 -1.0283
-8 2 51 -1.9425 -0.9004
-8 2 52 1.8192 1.6406
-8 4 1 3.3872 0.2648
-8 4 2 -6.1539 0.1976
-8 4 3 0.3112 0.0121
-8 4 4 1.8425 -0.6770
-8 4 5 -3.4124 -0.4192
-8 4 6 -0.6866 0.4439
-8 4 7 2.7968 0.4101
-8 4 8 3.4920 0.3136
-8 4 9 0.3546 0.0085
-8 4 10 -7.7530 -0.6461
-8 4 11 -1.1779 -0.2921
-8 4 12 9.1052 0.1891
-8 4 13 -1.2425 0.1659
-8 4 14 -6.8454 0.3729
-8 4 15 2.2448 0.0720
-8 4 16 3.8544 -0.3676
-8 4 17 0.2843 -0.0593
-8 4 18 -1.8624 -0.0652
-8 4 19 -2.5956 -0.1480
-8 4 20 1.1253 0.4270
-8 4 21 1.8132 0.1744
-8 4 22 -2.3948 -0.4452
-8 4 23 0.3203 0.1676
-8 4 24 4.6882 0.1269
-8 4 25 -1.5692 -0.5803
-8 4 26 -4.4723 0.2210
-8 4 27 1.7186 0.6353
-8 4 28 1.2012 -0.1789
-8 4 29 -1.1358 -0.3201
-8 4 30 0.5039 -0.1653
-8 4 31 0.8977 -0.0084
-8 4 32 2.1097 0.2573
-8 4 33 -2.7398 0.0789
-8 4 34 -5.3084 -0.0251
-8 4 35 6.0352 0.1090
-8 4 36 4.7951 -0.0183
-8 4 37 -7.5139 -0.3615
-8 4 38 -1.9830 -0.1774
-8 4 39 5.7442 0.4145
-8 4 40 0.9227 0.1151
-8 4 41 -2.7774 -0.2066
-8 4 42 -2.1842 0.1583
-8 4 43 0.6686 0.0091
-8 4 44 3.0288 -0.0720
-8 4 45 0.4513 -0.0459
-8 4 46 -1.9184 -0.3111
-8 4 47 -0.8333 0.2006
-8 4 48 0.1193 0.3566
-8 4 49 0.4765 -0.3029
-8 4 50 0.7498 -0.0105
-8 4 51 0.0606 0.2997
-8 4 52 -0.7076 -0.2050
-8 6 1 1.2186 -0.0899
-8 6 2 3.5353 -0.0972
-8 6 3 -4.6413 -0.2088
-8 6 4 -4.5112 -0.1917
-8 6 5 7.0994 0.0606
-8 6 6 3.1242 0.2858
-8 6 7 -6.0941 0.5521
-8 6 8 -0.6113 -0.0484
-8 6 9 -0.0545 -0.8765
-8 6 10 -0.0721 -0.0894
-8 6 11 8.3219 0.4009
-8 6 12 -2.1738 -0.1976
-8 6 13 -12.5195 0.3188
-8 6 14 3.6195 0.5747
-8 6 15 9.6987 -0.4337
-8 6 16 -1.1607 -0.5436
-8 6 17 -3.1409 -0.0313
-8 6 18 -2.1955 0.1318
-8 6 19 -1.5700 0.4149
-8 6 20 2.1628 0.1902
-8 6 21 1.9960 -0.3837
-8 6 22 0.3905 -0.0913
-8 6 23 -0.2321 0.0950
-8 6 24 -2.0428 -0.2534
-8 6 25 -0.0148 0.1614
-8 6 26 1.5454 0.3687
-8 6 27 -2.4186 -0.1267
-8 6 28 0.8291 -0.0556
-8 6 29 4.7792 -0.1509
-8 6 30 -4.1380 -0.3607
-8 6 31 -3.7889 0.1935
-8 6 32 5.7061 0.4326
-8 6 33 0.0963 0.1896
-8 6 34 -3.4884 -0.0658
-8 6 35 2.3071 -0.4267
-8 6 36 -0.5376 -0.4286
-8 6 37 -1.3068 0.1177
-8 6 38 2.7048 0.5654
-8 6 39 -0.7968 0.2441
-8 6 40 -2.1029 -0.0877
-8 6 41 0.9902 -0.2356
-8 6 42 0.3531 -0.6576
-8 6 43 0.1606 0.2183
-8 6 44 0.9938 0.9912
-8 6 45 0.2299 -0.3176
-8 6 46 -1.2765 -0.7013
-8 6 47 -3.0280 -0.1351
-8 6 48 0.7715 0.2128
-8 6 49 6.0933 1.3412
-8 6 50 -0.4331 0.0698
-8 6 51 -7.1549 -2.3787
-8 8 1 4.0395 -0.1750
-8 8 2 -0.1650 -0.1212
-8 8 3 -4.5622 -0.2561
-8 8 4 2.0275 0.4132
-8 8 5 3.1050 0.4676
-8 8 6 -4.4644 -0.2489
-8 8 7 0.1226 -0.1147
-8 8 8 3.4370 -0.1472
-8 8 9 -3.6940 -0.4140
-8 8 10 2.0445 0.1718
-8 8 11 5.4711 0.4354
-8 8 12 -7.2348 0.2022
-8 8 13 -5.4437 0.0137
-8 8 14 5.8437 -0.3873
-8 8 15 5.3616 -0.2805
-8 8 16 1.6703 0.1441
-8 8 17 -5.1942 0.0889
-8 8 18 -7.7592 0.1145
-8 8 19 3.4508 0.1924
-8 8 20 7.2763 -0.0669
-8 8 21 -0.6417 -0.1925
-8 8 22 -3.1750 -0.1365
-8 8 23 -1.1833 -0.0047
-8 8 24 1.1228 0.2585
-8 8 25 1.2720 0.0720
-8 8 26 -2.7166 -0.1854
-8 8 27 0.1830 0.0984
-8 8 28 5.8421 -0.0878
-8 8 29 -3.0137 -0.2644
-8 8 30 -7.9962 0.2913
-8 8 31 5.7903 0.1809
-8 8 32 7.6232 -0.1209
-8 8 33 -6.3970 0.0942
-8 8 34 -4.9240 -0.1690
-8 8 35 4.8600 -0.3561
-8 8 36 2.1468 0.1172
-8 8 37 -3.0095 0.4563
-8 8 38 -1.1892 0.0543
-8 8 39 1.7647 -0.2711
-8 8 40 1.3062 0.1093
-8 8 41 -0.9953 -0.1176
-8 8 42 -0.8137 -0.2791
-8 8 43 0.5786 0.1876
-8 8 44 -0.0990 0.0242
-8 8 45 -0.0047 0.5017
-8 8 46 -0.0313 0.0370
-8 8 47 -1.1434 -1.5856
-8 8 48 1.5355 0.7839
-8 8 49 1.9368 2.3029
-8 10 1 2.3889 0.1507
-8 10 2 -1.4825 -0.2242
-8 10 3 -2.7494 0.0804
-8 10 4 2.8502 0.5368
-8 10 5 0.0342 -0.2471
-8 10 6 -1.1787 -0.4456
-8 10 7 3.7543 0.1322
-8 10 8 -3.3030 -0.0554
-8 10 9 -5.6184 0.0469
-8 10 10 7.6141 0.3532
-8 10 11 4.5790 -0.0492
-8 10 12 -9.0236 -0.1116
-8 10 13 -3.9795 -0.0034
-8 10 14 6.9623 -0.2169
-8 10 15 6.5698 -0.0682
-8 10 16 -2.7540 0.1512
-8 10 17 -8.9958 0.1487
-8 10 18 -1.2342 0.1234
-8 10 19 6.4462 -0.0947
-8 10 20 2.8204 -0.1611
-8 10 21 -0.6052 -0.0029
-8 10 22 -1.9736 -0.0867
-8 10 23 -2.8496 0.0693
-8 10 24 0.7683 0.3123
-8 10 25 2.2982 -0.1503
-8 10 26 -0.4804 -0.3307
-8 10 27 -0.2331 0.1586
-8 10 28 0.5949 0.2818
-8 10 29 -1.8804 -0.0115
-8 10 30 -0.9753 -0.3138
-8 10 31 3.7247 -0.0697
-8 10 32 1.9166 0.2727
-8 10 33 -3.9303 -0.0613
-8 10 34 -2.1329 0.0128
-8 10 35 1.9682 0.1603
-8 10 36 0.3529 -0.3342
-8 10 37 0.0657 -0.1749
-8 10 38 1.7610 0.4169
-8 10 39 -0.2373 0.4099
-8 10 40 -1.8415 -0.3148
-8 10 41 -0.6762 -0.6439
-8 10 42 0.4069 -0.0026
-8 10 43 0.7976 0.2288
-8 10 44 0.8227 0.8788
-8 10 45 0.3840 0.4994
-8 10 46 -1.6928 -2.1261
-8 10 47 -1.8106 -0.4235
-8 10 48 2.2724 2.7252
-8 10 49 2.2271 -0.3431
-8 12 1 5.8516 0.2053
-8 12 2 0.0557 -0.0355
-8 12 3 -1.2492 -0.0528
-8 12 4 0.7090 -0.0639
-8 12 5 -2.5046 -0.0998
-8 12 6 1.5833 0.1134
-8 12 7 3.6627 0.0172
-8 12 8 -5.9256 -0.0498
-8 12 9 -3.1955 0.1326
-8 12 10 8.2352 -0.0256
-8 12 11 2.1197 -0.0117
-8 12 12 -6.7831 0.0403
-8 12 13 -1.2986 -0.2731
-8 12 14 3.8825 0.0063
-8 12 15 1.7445 0.3143
-8 12 16 -1.0935 -0.1230
-8 12 17 -2.8101 -0.0457
-8 12 18 -2.5067 0.2502
-8 12 19 2.0020 -0.1941
-8 12 20 5.9582 -0.2096
-8 12 21 1.2604 0.1594
-8 12 22 -6.1337 -0.0213
-8 12 23 -4.1412 0.0267
-8 12 24 3.3352 0.1761
-8 12 25 4.5623 -0.0904
-8 12 26 -1.4864 -0.1124
-8 12 27 -3.5396 -0.0176
-8 12 28 1.9424 0.0257
-8 12 29 1.7514 0.1007
-8 12 30 -2.4251 -0.0056
-8 12 31 1.6630 -0.1052
-8 12 32 1.9010 -0.0972
-8 12 33 -5.2504 0.2155
-8 12 34 -1.5905 0.2086
-8 12 35 5.4220 -0.4073
-8 12 36 1.7797 -0.1446
-8 12 37 -2.0771 0.4228
-8 12 38 -1.4973 0.1138
-8 12 39 -0.9096 -0.3465
-8 12 40 0.5990 -0.1886
-8 12 41 1.5130 0.4337
-8 12 42 0.0846 -0.2780
-8 12 43 -1.1862 -0.3157
-8 12 44 0.1413 1.4789
-8 12 45 1.0111 -0.4642
-8 12 46 -1.2209 -2.1742
-8 12 47 -0.6658 1.1308
-8 12 48 2.1151 1.4223
-8 14 1 -0.3753 -0.0745
-8 14 2 -6.9477 -0.1394
-8 14 3 1.0944 0.2839
-8 14 4 3.8733 -0.0061
-8 14 5 -0.8065 -0.2345
-8 14 6 -0.7146 0.1068
-8 14 7 -0.7824 0.0270
-8 14 8 -3.1779 0.0073
-8 14 9 1.3752 0.1641
-8 14 10 6.2790 -0.1827
-8 14 11 0.3322 -0.2315
-8 14 12 -5.8635 0.2173
-8 14 13 -2.5493 0.1839
-8 14 14 2.0435 -0.1411
-8 14 15 3.4146 -0.1216
-8 14 16 2.4875 0.0995
-8 14 17 -3.5438 0.1163
-8 14 18 -6.3254 -0.1249
-8 14 19 3.2820 -0.0655
-8 14 20 9.2498 0.1046
-8 14 21 -1.0897 -0.1795
-8 14 22 -9.6605 0.0380
-8 14 23 -2.5713 0.4737
-8 14 24 6.7816 -0.1569
-8 14 25 4.0700 -0.4781
-8 14 26 -3.6640 0.0541
-8 14 27 -1.9811 0.1724
-8 14 28 3.1805 0.1372
-8 14 29 -0.7349 0.1462
-8 14 30 -3.3633 -0.0868
-8 14 31 1.6068 -0.3383
-8 14 32 1.2780 -0.1940
-8 14 33 -1.3468 0.4017
-8 14 34 1.5476 0.4281
-8 14 35 1.0449 -0.2541
-8 14 36 -1.9355 -0.5593
-8 14 37 -0.7067 0.0771
-8 14 38 0.0961 0.5246
-8 14 39 0.5350 -0.2452
-8 14 40 1.7524 0.0348
-8 14 41 -0.7739 0.3849
-8 14 42 -2.7519 -0.9458
-8 14 43 1.0171 0.3547
-8 14 44 2.9173 1.1315
-8 14 45 -1.0587 -1.5263
-8 14 46 -2.1042 -0.2495
-8 16 1 -4.5793 0.0977
-8 16 2 4.7788 0.2472
-8 16 3 4.4045 0.0809
-8 16 4 -2.0091 -0.2721
-8 16 5 -4.6452 -0.0027
-8 16 6 -0.6972 0.0861
-8 16 7 4.0165 -0.0861
-8 16 8 -0.2724 0.1568
-8 16 9 -1.9211 0.0311
-8 16 10 4.7273 -0.2834
-8 16 11 0.0415 0.1069
-8 16 12 -7.9605 0.2158
-8 16 13 -0.1165 -0.1686
-8 16 14 6.0788 0.0150
-8 16 15 1.4503 0.0765
-8 16 16 -0.7330 -0.2128
-8 16 17 -2.7480 0.0674
-8 16 18 -3.9193 0.1645
-8 16 19 3.8621 -0.1350
-8 16 20 6.5415 0.0245
-8 16 21 -3.8460 0.1762
-8 16 22 -7.4398 -0.0783
-8 16 23 1.0990 -0.2715
-8 16 24 5.5760 0.0677
-8 16 25 2.7449 0.2930
-8 16 26 -1.2563 -0.2670
-8 16 27 -3.4542 -0.1207
-8 16 28 -1.7641 0.5582
-8 16 29 0.2314 -0.0958
-8 16 30 1.0717 -0.5841
-8 16 31 3.1016 0.2406
-8 16 32 0.9716 0.3052
-8 16 33 -3.6584 -0.4449
-8 16 34 -1.4417 0.1023
-8 16 35 2.3469 0.6605
-8 16 36 0.6649 -0.4535
-8 16 37 -1.1562 -0.6611
-8 16 38 -0.0334 0.3659
-8 16 39 0.8643 0.7863
-8 16 40 -0.2690 0.2940
-8 16 41 -1.1862 -1.6299
-8 16 42 0.3324 -0.7414
-8 16 43 1.1940 2.5990
-8 16 44 -0.0118 0.2997
-8 18 1 3.5212 0.0418
-8 18 2 -2.1965 0.4686
-8 18 3 -3.0920 0.1920
-8 18 4 1.6290 -0.5413
-8 18 5 -0.7695 -0.2965
-8 18 6 -1.1953 0.4248
-8 18 7 3.4238 0.1361
-8 18 8 0.3781 -0.2006
-8 18 9 -1.8972 0.1674
-8 18 10 0.1631 -0.0510
-8 18 11 -1.4754 -0.2750
-8 18 12 0.0451 0.1975
-8 18 13 1.8966 0.1603
-8 18 14 -1.4191 -0.1949
-8 18 15 1.2055 -0.1026
-8 18 16 3.8046 0.1167
-8 18 17 -3.8844 0.0897
-8 18 18 -5.3797 -0.0060
-8 18 19 4.0967 0.1027
-8 18 20 4.6615 -0.1388
-8 18 21 -3.2913 -0.3086
-8 18 22 -2.9812 0.2629
-8 18 23 1.7687 0.2046
-8 18 24 2.2767 -0.2867
-8 18 25 1.3399 0.0824
-8 18 26 -2.0014 0.1944
-8 18 27 -3.6921 -0.3011
-8 18 28 0.7809 -0.0533
-8 18 29 1.7070 0.5348
-8 18 30 0.8961 0.0642
-8 18 31 3.3328 -0.7606
-8 18 32 -1.6939 -0.4380
-8 18 33 -6.5459 0.6825
-8 18 34 1.2582 0.8918
-8 18 35 6.0089 -0.3876
-8 18 36 -0.0536 -0.6269
-8 18 37 -3.8349 0.2482
-8 18 38 -1.0549 -0.5079
-8 18 39 2.0836 -0.1283
-8 18 40 1.2302 1.3140
-8 18 41 -0.9520 -0.2167
-8 18 42 -0.8004 -0.7867
-8 20 1 -3.5805 0.2245
-8 20 2 -0.9090 -0.0080
-8 20 3 2.9647 0.0981
-8 20 4 -0.3830 -0.2443
-8 20 5 -4.7141 -0.2750
-8 20 6 3.4218 0.2457
-8 20 7 5.8968 0.1221
-8 20 8 -5.5447 0.2354
-8 20 9 -5.5287 0.0160
-8 20 10 5.2375 -0.6102
-8 20 11 4.1034 0.0898
-8 20 12 -4.4090 0.2564
-8 20 13 -2.6196 -0.2003
-8 20 14 4.7429 0.3858
-8 20 15 1.9441 0.0597
-8 20 16 -4.0988 -0.5008
-8 20 17 -1.5380 0.1700
-8 20 18 0.7069 0.1496
-8 20 19 0.0497 -0.1869
-8 20 20 2.5239 0.1031
-8 20 21 2.3331 0.0141
-8 20 22 -2.5882 -0.1661
-8 20 23 -4.1972 0.1188
-8 20 24 1.2543 0.2500
-8 20 25 5.1541 -0.1967
-8 20 26 -0.9415 -0.4253
-8 20 27 -5.4470 0.3573
-8 20 28 0.1591 0.7429
-8 20 29 4.5570 -0.4580
-8 20 30 2.8867 -0.9801
-8 20 31 -2.3951 0.1184
-8 20 32 -6.2192 0.3889
-8 20 33 0.2267 0.5901
-8 20 34 6.9997 1.2231
-8 20 35 1.0332 -0.7966
-8 20 36 -5.4169 -2.6470
-8 20 37 -1.5591 -0.2884
-8 20 38 3.4439 2.7296
-8 20 39 1.3468 2.1070
-8 22 1 0.1600 -0.0231
-8 22 2 -3.7916 -0.1162
-8 22 3 -1.0661 0.1580
-8 22 4 0.0705 -0.5402
-8 22 5 2.2336 0.0846
-8 22 6 3.1277 0.4959
-8 22 7 -4.0720 -0.0934
-8 22 8 -4.3296 0.1787
-8 22 9 4.6921 -0.3339
-8 22 10 3.4485 -0.5899
-8 22 11 -3.5810 0.4375
-8 22 12 -1.3407 0.3461
-8 22 13 2.9306 0.1288
-8 22 14 -0.3615 -0.0071
-8 22 15 -3.1268 -0.5850
-8 22 16 1.0878 0.0126
-8 22 17 1.8594 0.3536
-8 22 18 -1.8610 0.0183
-8 22 19 0.7451 0.0785
-8 22 20 2.8323 -0.4698
-8 22 21 -1.5464 -0.1057
-8 22 22 -2.8842 0.9687
-8 22 23 -0.1451 -0.2248
-8 22 24 2.3150 -1.0065
-8 22 25 1.6899 0.5491
-8 22 26 -2.5241 0.6695
-8 22 27 -1.8812 -0.4824
-8 22 28 2.9894 -0.2237
-8 22 29 2.0417 -0.1089
-8 22 30 -2.1163 -0.4237
-8 22 31 -2.6754 0.5026
-8 22 32 0.4142 1.3335
-8 22 33 2.6966 0.3464
-8 22 34 0.4562 -2.0521
-8 22 35 -1.7041 -2.0701
-8 24 1 -5.1199 -0.3098
-8 24 2 -2.7485 0.3588
-8 24 3 1.7516 -0.1828
-8 24 4 0.6526 -0.4464
-8 24 5 0.2034 0.4408
-8 24 6 -0.1747 0.0714
-8 24 7 -0.9680 -0.0032
-8 24 8 1.2106 0.0523
-8 24 9 0.8297 -0.6012
-8 24 10 -1.3438 0.1772
-8 24 11 0.5199 0.5263
-8 24 12 0.4378 -0.1783
-8 24 13 -1.7082 0.0676
-8 24 14 0.1010 -0.1401
-8 24 15 1.0535 -0.3183
-8 24 16 -0.6780 0.3044
-8 24 17 0.2421 0.1234
-8 24 18 2.0721 -0.2033
-8 24 19 -0.1004 -0.1003
-8 24 20 -2.9876 0.1079
-8 24 21 -0.9006 0.2070
-8 24 22 2.1494 -0.0677
-8 24 23 1.3585 0.2546
-8 24 24 -0.4067 -0.0093
-8 24 25 -1.6987 -1.2793
-8 24 26 -1.0667 0.1348
-8 24 27 2.1627 2.0566
-8 24 28 2.2194 -0.4500
-8 24 29 -1.4524 -2.1882
-8 24 30 -3.0260 0.9727
-8 26 1 -2.8990 0.0809
-8 26 2 -3.9229 -0.6661
-8 26 3 -0.0677 -0.5876
-8 26 4 2.5534 0.2506
-8 26 5 1.3520 0.5780
-8 26 6 -0.2158 0.0546
-8 26 7 -0.0587 -0.2505
-8 26 8 -0.0645 -0.1596
-8 26 9 -1.7416 0.0147
-8 26 10 -0.7220 -0.1045
-8 26 11 2.3316 0.1438
-8 26 12 0.8641 0.6249
-8 26 13 -1.7326 -0.3918
-8 26 14 -0.9905 -0.7278
-8 26 15 0.0191 0.5843
-8 26 16 1.1474 0.1233
-8 26 17 2.5461 -0.5192
-8 26 23 -3.5881 -0.8483
-8 26 24 -7.2023 -2.6450
-8 26 25 2.2196 1.3017
-8 26 26 6.8921 3.8080
-8 28 1 -3.0230 -0.2504
-8 28 2 -3.5218 0.6976
-8 28 3 3.0926 -1.5723
-8 28 4 3.6597 -0.7733
-8 28 5 -0.4052 2.6054
-8 28 6 -1.0319 0.3920
-8 28 7 -1.3198 -2.0881
-8 28 8 -1.8231 -0.0049
-8 28 9 0.8076 0.5633
-8 28 10 2.9983 0.0193
-8 28 11 0.0934 0.9443
-8 28 12 -2.6073 -0.3460
-8 28 13 -0.5052 -1.4973
-8 28 14 1.1384 0.5479
-8 28 15 0.6537 0.7531
-8 28 16 0.7362 -0.3694
-8 28 17 0.1782 0.4910
-8 28 18 -1.4889 -0.0283
-7 1 1 19.4268 -1.1212
-7 1 2 -2.2294 -1.8045
-7 1 3 -14.5735 0.8202
-7 1 4 1.2185 0.8674
-7 1 5 12.5417 0.3898
-7 1 6 0.7084 0.7739
-7 1 7 -9.1778 -1.2401
-7 1 8 5.7598 -1.3901
-7 1 9 2.6739 0.9877
-7 1 10 -17.7830 0.5316
-7 1 11 0.8341 -0.0380
-7 1 12 20.8154 0.7268
-7 1 13 4.0830 -0.6824
-7 1 14 -9.1855 -1.1480
-7 1 15 -13.1203 0.6738
-7 1 16 -7.0213 0.5007
-7 1 17 19.0740 -0.1107
-7 1 18 17.6656 0.4274
-7 1 19 -21.1680 -0.4911
-7 1 20 -21.1302 -0.7205
-7 1 21 20.7949 0.6844
-7 1 22 17.1802 0.2453
-7 1 23 -16.0700 -0.4449
-7 1 24 -6.1313 0.3548
-7 1 25 7.5920 0.1624
-7 1 26 -4.9260 -0.4945
-7 1 27 -1.6406 -0.1003
-7 1 28 7.8084 0.1965
-7 1 29 1.5489 0.1275
-7 1 30 -4.0255 0.1577
-7 1 31 -3.0136 -0.1599
-7 1 32 0.6720 -0.2675
-7 1 33 2.0168 0.3255
-7 1 34 0.4373 0.0803
-7 1 35 -0.4175 -0.5220
-7 1 36 -1.7652 0.2118
-7 1 37 0.8561 0.5022
-7 1 38 3.3557 -0.3178
-7 1 39 -2.4568 -0.4250
-7 1 40 -3.8265 0.1253
-7 1 41 3.7320 0.5292
-7 1 42 3.7995 0.1752
-7 1 43 -4.8581 -0.4953
-7 1 44 -4.0178 -0.2493
-7 1 45 5.7670 0.0287
-7 1 46 3.6522 -0.1007
-7 1 47 -5.4785 0.4000
-7 1 48 -2.6566 0.7012
-7 1 49 3.9436 -0.2859
-7 1 50 2.4400 -1.1021
-7 1 51 -2.2581 -0.1512
-7 1 52 -3.0715 1.1128
-7 1 53 1.0114 0.6757
-7 3 1 -9.4685 -0.3730
-7 3 2 -7.9284 0.1856
-7 3 3 5.2604 0.2800
-7 3 4 9.7271 0.3111
-7 3 5 0.1635 0.5702
-7 3 6 -10.8406 -0.7196
-7 3 7 0.4477 -1.0298
-7 3 8 10.8554 0.6637
-7 3 9 -10.3344 0.4386
-7 3 10 -10.9058 -0.2737
-7 3 11 19.3242 0.5095
-7 3 12 11.6090 -0.0926
-7 3 13 -16.7935 -0.6989
-7 3 14 -10.8379 0.2509
-7 3 15 7.2741 -0.1251
-7 3 16 6.4902 -0.2131
-7 3 17 -1.6971 1.1684
-7 3 18 -0.7408 0.0171
-7 3 19 1.9265 -1.4224
-7 3 20 -2.3384 0.2402
-7 3 21 -4.5233 0.6776
-7 3 22 2.5326 -0.3893
-7 3 23 9.3486 0.2628
-7 3 24 -2.4887 0.3786
-7 3 25 -14.8345 -0.5255
-7 3 26 2.2871 -0.2594
-7 3 27 15.0908 0.1375
-7 3 28 -0.1906 0.0155
-7 3 29 -9.0375 0.2668
-7 3 30 -2.2940 0.2411
-7 3 31 3.0814 -0.3789
-7 3 32 1.6648 -0.1746
-7 3 33 -0.9643 0.3584
-7 3 34 1.6685 -0.1984
-7 3 35 0.0084 -0.3251
-7 3 36 -3.6921 0.3343
-7 3 37 1.3717 0.2457
-7 3 38 2.8147 -0.0729
-7 3 39 -1.1233 -0.1601
-7 3 40 -1.3049 -0.0303
-7 3 41 -1.1177 0.1155
-7 3 42 0.8532 -0.2403
-7 3 43 2.9288 0.0001
-7 3 44 -0.5614 0.3555
-7 3 45 -3.0420 -0.2587
-7 3 46 -0.3258 -0.0786
-7 3 47 1.9967 0.4052
-7 3 48 0.7901 -0.2095
-7 3 49 -0.0793 -0.0367
-7 3 50 0.0738 0.4023
-7 3 51 -2.3652 -0.8450
-7 3 52 -1.4845 -0.6833
-7 3 53 3.8857 1.6289
-7 5 1 9.8889 0.3324
-7 5 2 -1.3560 0.2511
-7 5 3 -1.7539 -0.1279
-7 5 4 7.9980 0.0225
-7 5 5 -6.6246 0.0335
-7 5 6 -12.8874 -0.2494
-7 5 7 11.2915 -0.1067
-7 5 8 10.8914 -0.1196
-7 5 9 -10.7729 0.1098
-7 5 10 -3.4340 0.7232
-7 5 11 5.7897 0.0565
-7 5 12 -1.8211 -0.7437
-7 5 13 1.1004 -0.1584
-7 5 14 3.0143 0.0362
-7 5 15 -6.5089 -0.0045
-7 5 16 -5.6657 0.6898
-7 5 17 8.7322 0.2266
-7 5 18 10.9996 -0.6608
-7 5 19 -8.7340 -0.1592
-7 5 20 -13.8695 -0.1737
-7 5 21 8.1507 -0.1737
-7 5 22 12.4537 1.0122
-7 5 23 -7.4905 0.4403
-7 5 24 -9.5026 -0.9776
-7 5 25 6.2889 -0.4344
-7 5 26 5.5546 0.1606
-7 5 27 -3.9507 0.1658
-7 5 28 -0.2406 0.4786
-7 5 29 0.9136 0.2031
-7 5 30 -2.9743 -0.3765
-7 5 31 0.7573 -0.3325
-7 5 32 1.4023 -0.0458
-7 5 33 0.4261 0.0767
-7 5 34 1.5657 0.2176
-7 5 35 -2.7028 0.1161
-7 5 36 -1.8572 -0.1460
-7 5 37 3.1156 0.1529
-7 5 38 0.9068 0.0899
-7 5 39 -1.8512 -0.4266
-7 5 40 -1.9903 -0.1294
-7 5 41 1.5214 0.1158
-7 5 42 4.5990 0.2485
-7 5 43 -2.6954 0.4134
-7 5 44 -5.7810 -0.3547
-7 5 45 3.3833 -0.4951
-7 5 46 4.1899 0.1373
-7 5 47 -2.5469 0.2685
-7 5 48 -0.9033 0.6734
-7 5 49 1.2705 -0.1166
-7 5 50 -2.0752 -1.8211
-7 5 51 -0.6815 -0.1587
-7 5 52 3.2659 2.5695
-7 7 1 3.6503 0.2904
-7 7 2 -7.8150 0.3568
-7 7 3 0.8142 -0.2607
-7 7 4 0.1472 -0.2728
-7 7 5 -8.8720 -0.0901
-7 7 6 5.4170 -0.0775
-7 7 7 14.7834 0.1929
-7 7 8 -5.0660 0.2536
-7 7 9 -13.6480 0.0719
-7 7 10 -1.2932 -0.0013
-7 7 11 7.6602 -0.2080
-7 7 12 9.4533 -0.3655
-7 7 13 -2.3156 -0.0516
-7 7 14 -12.5531 0.3888
-7 7 15 -0.8789 0.3604
-7 7 16 7.7652 -0.1068
-7 7 17 3.1581 -0.2974
-7 7 18 -0.5883 -0.0315
-7 7 19 -3.7846 -0.1410
-7 7 20 -1.5889 -0.1481
-7 7 21 1.5883 0.5508
-7 7 22 -1.8984 0.3357
-7 7 23 2.1549 -0.4457
-7 7 24 6.4035 -0.2627
-7 7 25 -5.7226 -0.1924
-7 7 26 -8.4678 0.0146
-7 7 27 8.4013 0.7077
-7 7 28 7.3789 0.2008
-7 7 29 -8.7281 -0.5061
-7 7 30 -3.9437 -0.1904
-7 7 31 5.4844 -0.1654
-7 7 32 0.5160 -0.1589
-7 7 33 -0.8630 0.6199
-7 7 34 0.6968 0.5594
-7 7 35 -1.3065 -0.5914
-7 7 36 -0.3064 -0.5039
-7 7 37 0.4394 0.2584
-7 7 38 0.1996 0.1151
-7 7 39 0.6803 0.1347
-7 7 40 -0.2893 -0.0534
-7 7 41 -0.0558 -0.2793
-7 7 42 -0.5033 0.2969
-7 7 43 -1.4862 -0.0405
-7 7 44 1.6535 -0.1227
-7 7 45 1.9864 0.4888
-7 7 46 -1.7646 -0.4663
-7 7 47 -0.7616 -0.4311
-7 7 48 0.4832 0.6427
-7 7 49 -0.9569 -0.1640
-7 7 50 1.4774 -0.2529
-7 7 51 1.5142 0.6075
-7 7 52 -2.9632 0.0014
-7 9 1 -8.0998 0.3383
-7 9 2 -4.1120 -0.2006
-7 9 3 7.0827 -0.4863
-7 9 4 0.2282 -0.0375
-7 9 5 -4.9255 0.2248
-7 9 6 4.4483 0.2412
-7 9 7 3.2184 0.1663
-7 9 8 -5.3982 -0.1156
-7 9 9 -3.4031 -0.2433
-7 9 10 1.8312 -0.1244
-7 9 11 5.5968 0.0046
-7 9 12 2.2060 0.1559
-7 9 13 -6.5974 0.1661
-7 9 14 -2.0897 -0.0402
-7 9 15 2.8708 -0.0763
-7 9 16 -2.3949 -0.0197
-7 9 17 3.1137 -0.0658
-7 9 18 7.3395 0.0007
-7 9 19 -4.6387 0.0647
-7 9 20 -9.2656 0.0531
-7 9 21 -0.1594 -0.0424
-7 9 22 8.1814 -0.0939
-7 9 23 6.4463 0.1405
-7 9 24 -6.3819 0.0271
-7 9 25 -9.8698 -0.2467
-7 9 26 5.4761 0.1005
-7 9 27 9.9553 0.2569
-7 9 28 -5.3612 -0.0765
-7 9 29 -7.4415 -0.2289
-7 9 30 5.4748 -0.1010
-7 9 31 3.6262 0.1130
-7 9 32 -5.6226 0.1859
-7 9 33 -1.0509 0.1415
-7 9 34 5.5032 -0.0925
-7 9 35 0.9949 -0.2099
-7 9 36 -4.8111 -0.0961
-7 9 37 -1.9416 -0.1539
-7 9 38 3.9773 0.3688
-7 9 39 2.2736 0.4905
-7 9 40 -3.6179 -0.5320
-7 9 41 -2.0702 -0.3614
-7 9 42 3.4438 0.1559
-7 9 43 1.7267 0.2122
-7 9 44 -2.8290 0.6439
-7 9 45 -1.1725 -0.4365
-7 9 46 1.9005 -1.0238
-7 9 47 0.2974 0.3578
-7 9 48 -1.0920 0.6287
-7 9 49 1.0997 0.6009
-7 9 50 0.4055 -0.2099
-7 9 51 -2.7789 -1.6494
-7 11 1 -2.4444 -0.0151
-7 11 2 2.1404 0.1923
-7 11 3 2.8158 -0.1063
-7 11 4 -7.0360 -0.0323
-7 11 5 -3.2833 0.1912
-7 11 6 8.5897 0.0169
-7 11 7 4.3565 -0.0190
-7 11 8 -6.1742 -0.0402
-7 11 9 -5.7089 -0.2894
-7 11 10 2.6063 0.0119
-7 11 11 6.8584 0.4026
-7 11 12 -0.3272 -0.0227
-7 11 13 -6.0426 -0.2631
-7 11 14 -0.8448 0.1318
-7 11 15 1.4539 0.0531
-7 11 16 0.9364 -0.2119
-7 11 17 5.0249 0.1168
-7 11 18 1.6462 0.1391
-7 11 19 -8.5512 -0.1699
-7 11 20 -6.3212 -0.0051
-7 11 21 7.1432 0.0135
-7 11 22 9.1378 -0.0574
-7 11 23 -3.5802 0.2460
-7 11 24 -7.9934 0.1365
-7 11 25 0.8161 -0.3641
-7 11 26 5.1686 -0.3221
-7 11 27 0.6548 0.2939
-7 11 28 -3.2893 0.4118
-7 11 29 -0.4635 -0.1325
-7 11 30 2.7732 -0.2620
-7 11 31 -2.0402 -0.0975
-7 11 32 -3.4539 0.1093
-7 11 33 5.0170 0.2848
-7 11 34 4.9148 -0.0533
-7 11 35 -5.1630 -0.2206
-7 11 36 -5.7559 -0.1991
-7 11 37 2.3773 -0.0103
-7 11 38 5.1720 0.5419
-7 11 39 -0.0051 0.1761
-7 11 40 -3.9265 -0.3369
-7 11 41 0.1002 -0.4188
-7 11 42 2.6921 -0.3607
-7 11 43 -1.3989 0.8014
-7 11 44 -1.5171 0.6790
-7 11 45 2.0284 -0.6331
-7 11 46 0.7512 -0.5714
-7 11 47 -1.7008 -0.5551
-7 11 48 -0.3631 1.0302
-7 11 49 1.0789 1.7616
-7 11 50 -0.4218 -2.1246
-7 13 1 -5.9610 0.0579
-7 13 2 2.5068 0.1680
-7 13 3 0.3498 -0.0724
-7 13 4 -4.4629 -0.0146
-7 13 5 3.4371 -0.0308
-7 13 6 6.3897 -0.1019
-7 13 7 -3.6325 0.1914
-7 13 8 -5.5605 0.0333
-7 13 9 1.9581 -0.2959
-7 13 10 2.4438 0.0606
-7 13 11 -0.3081 0.2303
-7 13 12 0.1189 -0.0403
-7 13 13 -1.0851 -0.0189
-7 13 14 -1.3430 -0.0502
-7 13 15 1.7098 -0.1531
-7 13 16 2.3560 0.1525
-7 13 17 0.0729 0.1098
-7 13 18 -2.8558 -0.2143
-7 13 19 -3.8222 0.0866
-7 13 20 2.0938 0.1323
-7 13 21 5.9404 -0.1705
-7 13 22 -1.3959 0.0545
-7 13 23 -4.3583 0.0591
-7 13 24 1.6546 -0.1268
-7 13 25 1.3447 0.0158
-7 13 26 -0.9038 0.0459
-7 13 27 0.1951 0.0382
-7 13 28 -1.8752 -0.0080
-7 13 29 0.1399 0.0048
-7 13 30 3.9121 0.0501
-7 13 31 -1.6939 -0.1762
-7 13 32 -3.0856 -0.0734
-7 13 33 3.6719 0.2307
-7 13 34 1.5978 0.1774
-7 13 35 -4.4975 -0.2332
-7 13 36 -2.1936 -0.3974
-7 13 37 3.3986 0.3783
-7 13 38 4.0203 0.4151
-7 13 39 -1.7747 -0.2900
-7 13 40 -4.6311 -0.1377
-7 13 41 0.9677 -0.3162
-7 13 42 3.4653 -0.0714
-7 13 43 -0.7612 0.5858
-7 13 44 -1.6909 0.3312
-7 13 45 1.0480 0.3016
-7 13 46 0.3444 -1.3113
-7 13 47 -2.0415 -1.3942
-7 13 48 0.3960 2.6658
-7 13 49 2.7527 1.2387
-7 15 1 1.6129 0.3347
-7 15 2 -1.5259 -0.0207
-7 15 3 -1.3547 -0.2555
-7 15 4 0.0213 0.2366
-7 15 5 1.5922 -0.0458
-7 15 6 3.0256 -0.3023
-7 15 7 -1.1828 0.2590
-7 15 8 -3.8189 0.1843
-7 15 9 -0.5357 -0.2465
-7 15 10 1.0348 -0.0649
-7 15 11 1.9860 0.0690
-7 15 12 1.8857 0.0901
-7 15 13 -1.6382 0.1622
-7 15 14 -1.3998 -0.2340
-7 15 15 0.2556 -0.2950
-7 15 16 -1.3172 0.2976
-7 15 17 0.9889 0.2249
-7 15 18 2.9629 -0.0989
-7 15 19 -1.8469 -0.0673
-7 15 20 -3.0227 -0.1830
-7 15 21 1.4079 -0.0024
-7 15 22 2.7023 0.1346
-7 15 23 1.0221 0.0537
-7 15 24 -1.8054 0.2335
-7 15 25 -3.1206 -0.2176
-7 15 26 0.2516 -0.4497
-7 15 27 1.8863 0.3349
-7 15 28 0.2572 0.3604
-7 15 29 1.5612 -0.1976
-7 15 30 0.9332 -0.2613
-7 15 31 -3.5536 -0.0748
-7 15 32 -1.9891 0.2177
-7 15 33 3.1329 0.2658
-7 15 34 1.7674 -0.0826
-7 15 35 -2.2054 -0.2929
-7 15 36 -1.1958 0.0140
-7 15 37 2.0070 -0.0148
-7 15 38 0.8426 -0.0896
-7 15 39 -2.2322 0.6927
-7 15 40 -0.2357 -0.0375
-7 15 41 2.2957 -1.1278
-7 15 42 -0.6568 0.1805
-7 15 43 -1.8429 0.7847
-7 15 44 1.6232 0.6129
-7 15 45 0.9993 -0.3339
-7 15 46 -2.7259 -2.2445
-7 17 1 -6.0616 0.2981
-7 17 2 0.3571 0.0551
-7 17 3 5.4387 -0.2302
-7 17 4 -2.2667 -0.0922
-7 17 5 -2.3044 0.0054
-7 17 6 4.3446 0.1047
-7 17 7 -0.0996 0.1116
-7 17 8 -4.6123 -0.0193
-7 17 9 -1.3463 -0.0927
-7 17 10 2.7449 -0.1228
-7 17 11 5.0117 0.0050
-7 17 12 0.0772 0.2874
-7 17 13 -6.0736 0.0230
-7 17 14 -1.6421 -0.4187
-7 17 15 3.1490 0.1072
-7 17 16 0.9602 0.3372
-7 17 17 0.4196 -0.1784
-7 17 18 0.3719 0.0258
-7 17 19 -2.1293 -0.0979
-7 17 20 -0.8969 -0.3661
-7 17 21 2.5137 0.4745
-7 17 22 1.3794 0.3483
-7 17 23 -1.8635 -0.4673
-7 17 24 -2.3720 -0.1017
-7 17 25 -0.1333 0.2002
-7 17 26 2.7627 -0.0217
-7 17 27 1.6868 -0.1460
-7 17 28 -2.3046 0.0073
-7 17 29 -0.5324 0.2623
-7 17 30 2.2909 -0.0836
-7 17 31 -2.2286 -0.2428
-7 17 32 -2.9336 0.2794
-7 17 33 3.5128 0.1527
-7 17 34 3.1477 -0.3898
-7 17 35 -2.3956 -0.0085
-7 17 36 -2.7039 0.1756
-7 17 37 0.3580 -0.5007
-7 17 38 2.0113 0.3860
-7 17 39 1.1695 1.1930
-7 17 40 -0.8687 -0.7134
-7 17 41 -1.9038 -1.4021
-7 17 42 -0.6669 -0.0351
-7 17 43 2.3463 1.2915
-7 17 44 1.7083 1.5752
-7 19 1 1.5212 0.1810
-7 19 2 3.3783 -0.3244
-7 19 3 -0.3853 -0.2586
-7 19 4 -5.0941 0.1293
-7 19 5 1.5316 0.1844
-7 19 6 5.5716 0.0378
-7 19 7 -2.4043 0.0459
-7 19 8 -5.4350 -0.1532
-7 19 9 1.8836 -0.1785
-7 19 10 5.2229 0.1580
-7 19 11 -0.8155 -0.0041
-7 19 12 -3.4151 0.0630
-7 19 13 1.0451 0.2896
-7 19 14 -0.6187 -0.2556
-7 19 15 -3.0971 -0.3549
-7 19 16 3.9222 0.0726
-7 19 17 4.6301 0.3029
-7 19 18 -3.9574 0.2654
-7 19 19 -3.3498 -0.3571
-7 19 20 2.4773 -0.3131
-7 19 21 0.5817 0.2967
-7 19 22 -1.9902 0.1337
-7 19 23 0.8921 0.1314
-7 19 24 1.8069 -0.0050
-7 19 25 -0.7606 -0.5476
-7 19 26 -0.6128 -0.1100
-7 19 27 0.0635 0.4186
-7 19 28 -0.5714 0.2147
-7 19 29 1.2313 0.1100
-7 19 30 0.5333 -0.0989
-7 19 31 -2.8939 -0.5130
-7 19 32 -0.1300 -0.1107
-7 19 33 3.5512 0.6793
-7 19 34 0.6775 0.1356
-7 19 35 -2.9569 -0.8982
-7 19 36 -1.8706 -0.3690
-7 19 37 2.3520 1.3275
-7 19 38 2.2276 1.3039
-7 19 39 -1.9287 -1.6854
-7 19 40 -1.0582 -2.2763
-7 21 1 -3.8664 0.0669
-7 21 2 2.3630 -0.2592
-7 21 3 2.2781 -0.4716
-7 21 4 -1.9749 0.3864
-7 21 5 -0.7851 0.5237
-7 21 6 1.7395 -0.2285
-7 21 7 0.6324 -0.2723
-7 21 8 -2.1842 -0.1735
-7 21 9 -0.8027 0.1001
-7 21 10 2.6184 0.2530
-7 21 11 0.8812 0.0265
-7 21 12 -1.8453 0.2290
-7 21 13 -2.0387 -0.2766
-7 21 14 -0.5261 -0.5936
-7 21 15 3.9004 0.3648
-7 21 16 2.2636 0.2261
-7 21 17 -4.4815 -0.0166
-7 21 18 -0.5219 0.4589
-7 21 19 3.8067 -0.4394
-7 21 20 -3.5289 -0.7824
-7 21 21 -3.6496 0.5321
-7 21 22 5.7685 0.7749
-7 21 23 4.0016 -0.2328
-7 21 24 -5.0697 -0.6437
-7 21 25 -3.3645 -0.2118
-7 21 26 3.9279 0.1724
-7 21 27 1.6548 0.4961
-7 21 28 -3.6354 0.6048
-7 21 29 -0.0329 -0.3270
-7 21 30 3.3342 -1.0468
-7 21 31 -1.0631 -0.1133
-7 21 32 -3.0187 0.8485
-7 21 33 1.9613 0.1112
-7 21 34 3.3347 -0.5098
-7 21 35 -2.6938 0.4875
-7 21 36 -3.3919 0.5068
-7 21 37 2.5873 -0.7836
-7 21 38 1.9892 -0.7376
-7 21 39 -0.8674 0.2319
-7 23 1 5.2437 0.0149
-7 23 2 6.5354 -0.4871
-7 23 3 -2.9091 0.0840
-7 23 4 -4.8998 0.5269
-7 23 5 0.8143 -0.2079
-7 23 6 4.5081 0.0844
-7 23 7 0.0968 -0.0291
-7 23 8 -4.4914 -0.6675
-7 23 9 0.4647 0.4380
-7 23 10 2.6909 0.6261
-7 23 11 -2.1543 -0.3306
-7 23 12 0.4171 -0.1821
-7 23 13 3.1606 -0.2228
-7 23 14 -2.7477 -0.1541
-7 23 15 -2.4685 0.2971
-7 23 16 3.3991 0.2473
-7 23 17 1.8807 0.3323
-7 23 18 -2.3392 -0.1754
-7 23 19 -2.7933 -0.7850
-7 23 20 -0.1526 -0.0617
-7 23 21 3.4747 0.5566
-7 23 22 2.6718 0.4355
-7 23 23 -2.4868 -0.0849
-7 23 24 -3.7849 -0.8055
-7 23 25 1.4722 -0.3247
-7 23 26 3.8177 0.9775
-7 23 27 -1.8984 0.7514
-7 23 28 -3.5832 -0.7207
-7 23 29 2.5901 -0.8372
-7 23 30 2.7590 0.0223
-7 23 31 -2.5491 0.0941
-7 23 32 -1.1581 0.5766
-7 23 33 2.7661 1.0668
-7 23 34 -0.3568 -0.4333
-7 23 35 -3.6992 -1.7708
-7 25 1 4.2395 -0.4033
-7 25 2 -1.6703 -0.3739
-7 25 3 -3.0277 0.3739
-7 25 4 0.0561 0.0447
-7 25 5 2.3441 0.1388
-7 25 6 1.4406 0.2270
-7 25 7 -2.5100 -0.6204
-7 25 8 -2.5942 -0.1615
-7 25 9 1.8265 0.5065
-7 25 10 2.1974 0.0711
-7 25 11 0.2252 0.1710
-7 25 12 -0.5479 -0.3263
-7 25 13 -2.6300 -0.7956
-7 25 14 -0.1468 0.5262
-7 25 15 4.5380 0.8558
-7 25 16 -0.6850 -0.2059
-7 25 17 -5.0822 -0.4360
-7 25 18 1.4148 -0.1297
-7 25 19 3.4573 0.0010
-7 25 20 -1.4633 -0.1567
-7 25 21 -0.5770 0.1200
-7 25 22 1.6184 0.6232
-7 25 23 -1.8169 0.0338
-7 25 24 -1.7020 -0.5570
-7 25 25 3.7775 -0.2447
-7 25 26 1.1190 0.1889
-7 25 27 -5.9150 0.4375
-7 25 28 -0.6291 -0.0001
-7 27 1 -1.2654 -0.3451
-7 27 2 -0.8797 -0.0760
-7 27 3 -0.6904 -0.1236
-7 27 4 0.8692 0.6587
-7 27 5 2.5647 0.4132
-7 27 6 -2.1245 -0.5391
-7 27 7 -4.0780 -0.4291
-7 27 8 3.5351 -0.2421
-7 27 9 4.4198 0.3623
-7 27 10 -4.1455 0.9259
-7 27 11 -3.2121 -0.4170
-7 27 12 3.7803 -0.9086
-7 27 13 1.8800 0.3223
-7 27 14 -2.0759 0.1864
-7 27 15 -1.5889 0.3561
-7 27 16 -0.3464 0.7429
-7 27 17 1.5795 -1.2228
-7 27 18 1.3306 -1.1851
-7 27 19 -1.0361 1.2976
-7 27 20 -0.2747 0.7176
-7 27 21 0.3480 -0.5048
-7 27 22 -0.7775 0.4292
-7 27 23 0.1119 -0.1807
-7 27 24 0.9000 -1.5636
-7 27 25 -0.3185 0.2724
-7 29 1 -1.3719 -0.1224
-7 29 2 0.5016 -0.3600
-7 29 3 -0.9945 1.5335
-7 29 4 1.8699 0.6650
-7 29 5 2.0530 -1.6937
-7 29 6 -4.2448 -0.2178
-7 29 7 -0.8523 0.2827
-7 29 8 5.5181 -0.1732
-7 29 9 -1.7654 1.1484
-7 29 10 -4.6449 -0.0421
-7 29 11 4.3642 -1.1352
-7 29 12 2.1517 0.3262
-7 29 13 -4.9820 -0.2304
-7 29 14 0.4866 0.2952
-7 29 15 3.0040 1.8700
-7 29 16 -2.3491 -1.7840
-7 29 17 -0.9287 -2.8420
-7 29 18 2.8633 2.8347
-6 0 2 -7.5004 3.1742
-6 0 4 11.3418 -6.1879
-6 0 6 -21.3198 5.8975
-6 0 8 16.6448 -3.0591
-6 0 10 9.2142 0.1431
-6 0 12 -32.0674 0.9496
-6 0 14 29.4618 -0.2295
-6 0 16 -8.9786 -0.9171
-6 0 18 -10.1547 1.2837
-6 0 20 21.5083 -0.8311
-6 0 22 -24.8974 0.3013
-6 0 24 17.8291 -0.2016
-6 0 26 -5.2587 0.4340
-6 0 28 -0.4470 -0.7068
-6 0 30 -3.4339 0.8820
-6 0 32 7.5610 -0.9474
-6 0 34 -6.4937 0.9622
-6 0 36 3.6624 -1.0007
-6 0 38 -2.0407 0.9857
-6 0 40 1.4558 -0.7584
-6 0 42 -2.6560 0.4308
-6 0 44 5.6553 -0.3457
-6 0 46 -7.2851 0.5836
-6 0 48 5.7395 -0.8909
-6 0 50 -3.7153 1.1293
-6 0 52 3.7175 -1.3114
-6 0 54 -4.1830 1.2069
-6 2 1 3.3641 -0.0309
-6 2 2 -9.9112 0.4051
-6 2 3 -4.9504 -2.2879
-6 2 4 19.9119 -0.9461
-6 2 5 0.0681 2.9658
-6 2 6 -29.1958 0.7234
-6 2 7 2.6705 -1.6308
-6 2 8 28.1672 -0.0308
-6 2 9 8.2374 -0.3543
-6 2 10 -11.9987 -0.4528
-6 2 11 -23.7131 1.3401
-6 2 12 -8.9837 0.3373
-6 2 13 24.0260 -0.8825
-6 2 14 19.7566 0.1494
-6 2 15 -8.7258 -0.1385
-6 2 16 -16.5929 -0.4349
-6 2 17 -5.3416 0.6388
-6 2 18 6.9172 0.2724
-6 2 19 10.4877 -0.4058
-6 2 20 0.9924 0.0354
-6 2 21 -11.2151 0.0218
-6 2 22 -3.0558 -0.1451
-6 2 23 8.2241 0.0754
-6 2 24 -0.4849 0.0629
-6 2 25 -0.0599 -0.0368
-6 2 26 5.5280 0.0364
-6 2 27 -6.4040 0.1055
-6 2 28 -7.6596 -0.0584
-6 2 29 4.1908 -0.2335
-6 2 30 6.5936 0.0573
-6 2 31 2.0806 0.3446
-6 2 32 -4.9331 -0.2020
-6 2 33 -4.4752 -0.4295
-6 2 34 4.0533 0.4871
-6 2 35 3.3270 0.2871
-6 2 36 -3.9399 -0.5540
-6 2 37 -2.4921 0.2172
-6 2 38 4.7499 0.1916
-6 2 39 1.9639 -0.6432
-6 2 40 -5.9267 0.2366
-6 2 41 -0.9977 0.4270
-6 2 42 6.0125 -0.3188
-6 2 43 1.0035 0.2333
-6 2 44 -4.9266 0.0906
-6 2 45 -1.9707 -0.6573
-6 2 46 4.1162 0.3191
-6 2 47 1.8523 0.6518
-6 2 48 -3.7496 -0.7433
-6 2 49 -0.6074 -0.4787
-6 2 50 2.2672 0.5202
-6 2 51 0.2614 0.1642
-6 2 52 0.7292 0.8012
-6 2 53 -1.0881 0.3859
-6 2 54 -3.3042 -2.2096
-6 4 1 -17.2679 -0.3087
-6 4 2 -9.9752 -0.1474
-6 4 3 19.5923 -0.0429
-6 4 4 8.0801 0.0640
-6 4 5 -22.0259 0.0865
-6 4 6 -5.7678 0.5027
-6 4 7 23.7598 0.2328
-6 4 8 7.4276 -1.0544
-6 4 9 -17.8809 -0.4731
-6 4 10 -11.1235 0.9836
-6 4 11 5.9496 0.3098
-6 4 12 7.3189 -0.2907
-6 4 13 1.3209 0.0704
-6 4 14 4.7093 -0.4043
-6 4 15 0.6093 -0.1904
-6 4 16 -12.1017 0.5131
-6 4 17 -6.0268 -0.1032
-6 4 18 7.2509 -0.0984
-6 4 19 9.5720 0.3869
-6 4 20 2.1368 -0.2217
-6 4 21 -10.2161 -0.2355
-6 4 22 -7.5650 0.0576
-6 4 23 7.1231 -0.1665
-6 4 24 10.0947 0.2890
-6 4 25 -0.9358 0.3056
-6 4 26 -11.5614 -0.3894
-6 4 27 -3.8161 -0.0010
-6 4 28 9.4264 0.3219
-6 4 29 4.0359 -0.4657
-6 4 30 -4.3815 -0.2967
-6 4 31 -1.9118 0.6575
-6 4 32 1.4555 0.1526
-6 4 33 0.2566 -0.3525
-6 4 34 -1.4333 0.1757
-6 4 35 0.7553 -0.1753
-6 4 36 0.4492 -0.2729
-6 4 37 -0.8572 0.3896
-6 4 38 1.9885 -0.0356
-6 4 39 -0.7313 -0.1554
-6 4 40 -2.4400 0.2492
-6 4 41 2.6584 -0.1836
-6 4 42 0.0509 -0.0710
-6 4 43 -2.9207 0.3945
-6 4 44 2.4655 -0.0627
-6 4 45 2.1830 -0.4904
-6 4 46 -3.2638 -0.1436
-6 4 47 -2.2013 0.4819
-6 4 48 2.7194 0.3177
-6 4 49 2.5861 -0.6198
-6 4 50 -1.5849 -0.2331
-6 4 51 -1.8890 1.3556
-6 4 52 0.4207 0.2610
-6 4 53 0.3619 -2.3316
-6 6 1 -1.7840 -0.2368
-6 6 2 0.6878 -0.1092
-6 6 3 -5.2505 0.3823
-6 6 4 9.0161 0.0598
-6 6 5 13.8732 -0.2770
-6 6 6 -13.8097 0.2511
-6 6 7 -17.8364 0.0765
-6 6 8 12.3999 -0.4300
-6 6 9 14.2547 -0.0897
-6 6 10 -7.2601 0.1462
-6 6 11 -8.8977 0.3674
-6 6 12 -1.4889 0.3688
-6 6 13 8.5908 -0.6418
-6 6 14 11.2476 -0.5474
-6 6 15 -10.9926 0.5971
-6 6 16 -14.8703 0.1534
-6 6 17 8.8056 -0.1893
-6 6 18 10.5180 0.3758
-6 6 19 -1.3953 -0.2248
-6 6 20 -4.9506 -0.4326
-6 6 21 -5.2691 0.2280
-6 6 22 2.9255 0.0258
-6 6 23 7.8269 0.1005
-6 6 24 -2.4944 0.2793
-6 6 25 -7.7148 -0.2979
-6 6 26 2.2155 -0.1517
-6 6 27 6.5222 0.2520
-6 6 28 -3.4735 -0.1889
-6 6 29 -5.1362 -0.2671
-6 6 30 5.5183 0.3671
-6 6 31 5.1479 0.3517
-6 6 32 -6.1941 -0.2100
-6 6 33 -6.4317 -0.1967
-6 6 34 6.2496 -0.1409
-6 6 35 5.8705 -0.1103
-6 6 36 -7.1917 0.2911
-6 6 37 -1.9752 0.2133
-6 6 38 7.7858 -0.0217
-6 6 39 -2.0059 -0.2245
-6 6 40 -6.7098 -0.3642
-6 6 41 2.3662 0.3963
-6 6 42 5.1715 0.4586
-6 6 43 0.2114 -0.3595
-6 6 44 -4.3844 -0.2646
-6 6 45 -2.2490 -0.2628
-6 6 46 3.6782 -0.0421
-6 6 47 1.8450 0.8963
-6 6 48 -2.3430 0.3764
-6 6 49 0.2090 -0.7382
-6 6 50 0.8393 -0.5010
-6 6 51 -2.1532 -0.0010
-6 6 52 0.2506 0.2469
-6 6 53 2.7457 0.5111
-6 8 1 -4.7483 0.0122
-6 8 2 -4.4599 0.0148
-6 8 3 13.7249 0.4209
-6 8 4 16.3449 -0.3146
-6 8 5 -20.3635 -0.3389
-6 8 6 -26.2556 0.3208
-6 8 7 21.6182 -0.1627
-6 8 8 26.2740 -0.0938
-6 8 9 -17.9377 0.4615
-6 8 10 -16.4345 -0.1798
-6 8 11 9.8212 -0.2250
-6 8 12 4.9543 0.3213
-6 8 13 0.8396 -0.2359
-6 8 14 -0.0244 -0.2792
-6 8 15 -7.7761 0.3819
-6 8 16 2.1760 0.2091
-6 8 17 6.4996 -0.0829
-6 8 18 -5.6036 -0.2529
-6 8 19 -1.1816 -0.2646
-6 8 20 5.7422 0.2683
-6 8 21 -1.2186 0.2987
-6 8 22 -3.1478 -0.0956
-6 8 23 -0.2360 -0.1268
-6 8 24 0.3641 -0.0415
-6 8 25 2.7382 0.0311
-6 8 26 1.7895 -0.1183
-6 8 27 -5.2610 -0.0600
-6 8 28 -3.7907 0.3506
-6 8 29 7.3365 0.1031
-6 8 30 5.6270 -0.3239
-6 8 31 -7.6656 -0.0511
-6 8 32 -6.6724 0.1538
-6 8 33 6.8076 -0.1723
-6 8 34 6.2553 -0.0364
-6 8 35 -6.8718 0.4108
-6 8 36 -4.1723 -0.1248
-6 8 37 7.8582 -0.3012
-6 8 38 1.4633 0.2436
-6 8 39 -7.9898 -0.1411
-6 8 40 -0.0214 0.0100
-6 8 41 6.8898 0.3708
-6 8 42 0.5026 -0.4055
-6 8 43 -5.5395 -0.0987
-6 8 44 -1.4836 0.3122
-6 8 45 4.3643 -0.3307
-6 8 46 1.3846 0.0433
-6 8 47 -3.1845 0.5793
-6 8 48 -0.2139 0.3066
-6 8 49 1.9875 -0.6540
-6 8 50 -0.9999 -1.4605
-6 8 51 -1.0458 0.5429
-6 8 52 1.4318 2.3807
-6 10 1 0.2047 -0.0130
-6 10 2 -2.5372 -0.1226
-6 10 3 4.7301 -0.0244
-6 10 4 3.8880 -0.3248
-6 10 5 -9.7657 0.0081
-6 10 6 -3.5643 0.1949
-6 10 7 10.6712 0.0535
-6 10 8 0.3747 0.2908
-6 10 9 -5.8135 -0.1791
-6 10 10 3.9481 -0.5597
-6 10 11 -2.2967 0.3008
-6 10 12 -5.9751 0.3531
-6 10 13 7.9624 -0.2350
-6 10 14 4.5946 0.0456
-6 10 15 -6.5704 -0.0391
-6 10 16 -1.7334 -0.1729
-6 10 17 -0.2604 0.2700
-6 10 18 -1.1835 -0.0517
-6 10 19 6.0475 -0.3105
-6 10 20 4.1076 0.2747
-6 10 21 -7.0890 0.3061
-6 10 22 -5.9849 -0.2320
-6 10 23 5.3591 -0.2994
-6 10 24 5.3731 0.0333
-6 10 25 -3.4025 0.1058
-6 10 26 -3.0476 0.0862
-6 10 27 1.2164 0.1913
-6 10 28 1.0920 0.0072
-6 10 29 0.9949 -0.2236
-6 10 30 -0.4346 -0.2696
-6 10 31 -1.7418 0.0006
-6 10 32 0.9053 0.4164
-6 10 33 0.8843 0.1143
-6 10 34 -1.9080 -0.2336
-6 10 35 0.0762 -0.1179
-6 10 36 2.2911 0.0277
-6 10 37 -0.4115 0.2324
-6 10 38 -1.3812 -0.1901
-6 10 39 0.5297 -0.2578
-6 10 40 0.0166 0.3893
-6 10 41 -0.6555 -0.0157
-6 10 42 0.7188 -0.0762
-6 10 43 0.7390 0.1991
-6 10 44 -0.7807 -0.3688
-6 10 45 -0.8227 -0.0864
-6 10 46 0.5543 0.0889
-6 10 47 0.8208 0.3051
-6 10 48 -0.3503 0.8326
-6 10 49 -0.6074 -1.1543
-6 10 50 0.4334 -1.5102
-6 10 51 0.1954 1.7296
-6 10 52 -0.4355 1.5575
-6 12 1 -1.7660 -0.2407
-6 12 2 1.6540 0.0291
-6 12 3 11.2200 -0.1619
-6 12 4 1.1044 -0.1293
-6 12 5 -16.8196 0.4083
-6 12 6 -4.7977 0.0944
-6 12 7 15.8785 -0.3286
-6 12 8 7.0070 0.0443
-6 12 9 -10.0132 0.0559
-6 12 10 -6.6274 -0.1084
-6 12 11 2.3466 0.1048
-6 12 12 4.5446 0.0910
-6 12 13 4.2541 0.0122
-6 12 14 -1.6088 -0.1339
-6 12 16 -1.4293 0.2090
-6 12 17 4.7422 0.2034
-6 12 18 2.6123 -0.1481
-6 12 19 1.4796 -0.0455
-6 12 20 -1.1738 -0.0251
-6 12 21 -7.0057 -0.0214
-6 12 22 -0.1061 0.1570
-6 12 23 8.0403 -0.0287
-6 12 24 -1.1913 -0.2660
-6 12 25 -4.5793 0.0702
-6 12 26 3.2129 0.3598
-6 12 27 -0.4790 -0.0641
-6 12 28 -3.3815 -0.2133
-6 12 29 3.9068 0.0136
-6 12 30 2.6083 -0.1559
-6 12 31 -3.9858 0.0101
-6 12 32 -2.8199 0.2452
-6 12 33 1.7366 0.1794
-6 12 34 3.6526 0.1153
-6 12 35 -0.1481 -0.4853
-6 12 36 -3.9644 -0.3688
-6 12 37 0.7970 0.4309
-6 12 38 3.7884 0.2176
-6 12 39 -2.2750 -0.0173
-6 12 40 -3.5196 -0.0897
-6 12 41 2.8470 -0.0344
-6 12 42 3.1372 0.1315
-6 12 43 -2.5241 -0.3679
-6 12 44 -2.4638 0.0894
-6 12 45 1.7458 0.1500
-6 12 46 1.3259 -0.4888
-6 12 47 -0.5973 1.1481
-6 12 48 -0.0138 0.4489
-6 12 49 -0.2019 -2.2510
-6 12 50 -0.6281 -0.1407
-6 14 1 2.3711 -0.1137
-6 14 2 4.3929 -0.2044
-6 14 3 1.0065 -0.0049
-6 14 4 -8.2781 0.0620
-6 14 5 -4.5594 0.0876
-6 14 6 6.8979 0.0002
-6 14 7 6.2723 -0.0547
-6 14 8 -4.0274 -0.0521
-6 14 9 -4.5683 0.0026
-6 14 10 2.6921 0.1753
-6 14 11 0.3004 -0.0572
-6 14 12 -1.3959 -0.2411
-6 14 13 3.8543 0.1718
-6 14 14 -1.9058 0.1571
-6 14 15 -5.5958 -0.2422
-6 14 16 5.3727 -0.0617
-6 14 17 3.6848 0.3014
-6 14 18 -5.7991 0.0347
-6 14 19 1.1726 -0.3716
-6 14 20 3.1509 0.0169
-6 14 21 -5.2225 0.3156
-6 14 22 0.0750 -0.0497
-6 14 23 4.7884 -0.1051
-6 14 24 -1.9377 -0.0703
-6 14 25 -0.9508 -0.0520
-6 14 26 1.7564 0.2081
-6 14 27 -2.2493 0.1003
-6 14 28 -0.0565 -0.1567
-6 14 29 3.4029 -0.1897
-6 14 30 -1.1569 0.0198
-6 14 31 -3.9415 0.1737
-6 14 32 0.3309 0.0750
-6 14 33 4.4155 0.2337
-6 14 34 1.3780 -0.2106
-6 14 35 -4.0335 -0.7173
-6 14 36 -1.8797 0.2417
-6 14 37 2.5240 0.6971
-6 14 38 1.1336 0.1215
-6 14 39 -0.3629 -0.3307
-6 14 40 -0.2928 -0.5174
-6 14 41 -1.7006 0.1132
-6 14 42 -0.3575 0.3245
-6 14 43 2.9600 0.1766
-6 14 44 0.7661 0.0096
-6 14 46 -0.4795 0.4904
-6 14 47 4.0992 1.3144
-6 16 1 3.0062 -0.1027
-6 16 2 6.1839 -0.0125
-6 16 3 -2.3254 -0.2919
-6 16 4 -6.2903 -0.0136
-6 16 5 -2.1144 0.4494
-6 16 6 4.3498 -0.0022
-6 16 7 6.4604 -0.2580
-6 16 8 -2.7344 0.0530
-6 16 9 -5.9289 -0.0030
-6 16 10 2.8486 -0.1303
-6 16 11 1.3942 0.1359
-6 16 12 -4.2934 0.1863
-6 16 13 1.5636 -0.1671
-6 16 14 5.3707 -0.1104
-6 16 15 -0.2850 0.0724
-6 16 16 -5.3691 -0.0639
-6 16 17 -2.5639 0.1297
-6 16 18 5.5512 0.1364
-6 16 19 4.0329 -0.1769
-6 16 20 -6.4994 -0.1269
-6 16 21 -3.7967 -0.0499
-6 16 22 6.6128 0.2925
-6 16 23 2.3303 0.2451
-6 16 24 -4.8732 -0.5568
-6 16 25 -0.1794 -0.1974
-6 16 26 2.3983 0.5028
-6 16 27 -1.4168 0.1037
-6 16 28 -0.1015 -0.1170
-6 16 29 1.8212 -0.0565
-6 16 30 -2.1964 -0.1594
-6 16 31 -1.7957 -0.1098
-6 16 32 3.8957 0.1897
-6 16 33 1.7628 0.2803
-6 16 34 -3.7678 -0.1855
-6 16 35 -1.1681 -0.1719
-6 16 36 1.8683 0.1378
-6 16 37 -0.0634 -0.0583
-6 16 38 0.6848 0.0138
-6 16 39 1.4151 0.2451
-6 16 40 -2.9693 -0.0605
-6 16 41 -2.6634 -0.8611
-6 16 42 4.3413 0.0814
-6 16 43 3.3979 2.0582
-6 16 44 -4.6257 -0.5261
-6 16 45 -3.0552 -2.7390
-6 16 46 4.2771 1.1097
-6 16 47 2.3273 2.0339
-6 18 1 8.0576 -0.3194
-6 18 2 1.4141 -0.0681
-6 18 3 -8.0443 -0.0098
-6 18 4 -2.9721 -0.0200
-6 18 5 4.5465 0.2447
-6 18 6 4.1001 0.2598
-6 18 7 -1.1302 -0.2400
-6 18 8 -3.1221 -0.4477
-6 18 9 0.8266 0.0625
-6 18 10 -0.0874 0.4025
-6 18 11 -3.3925 0.1784
-6 18 12 2.5520 -0.2851
-6 18 13 5.3765 -0.2760
-6 18 14 -2.3076 0.2258
-6 18 15 -3.9713 0.0660
-6 18 16 1.3479 -0.0758
-6 18 17 0.6109 0.1815
-6 18 18 -1.6228 -0.1571
-6 18 19 1.2836 -0.0565
-6 18 20 1.7177 0.1668
-6 18 21 -0.9652 -0.2379
-6 18 22 -0.1494 0.1062
-6 18 23 0.0654 0.1955
-6 18 24 -1.6982 -0.3334
-6 18 25 0.6037 0.0142
-6 18 26 1.9737 0.3194
-6 18 27 -1.0921 0.1387
-6 18 28 -0.7920 -0.1401
-6 18 29 0.9955 -0.4385
-6 18 30 -0.5996 -0.1355
-6 18 31 -0.3185 0.2331
-6 18 32 1.1105 0.3273
-6 18 33 -0.1277 0.4052
-6 18 34 -0.4949 -0.0923
-6 18 35 0.3181 -0.8360
-6 18 36 -0.3556 -0.4884
-6 18 37 -1.1574 0.7821
-6 18 38 0.7351 0.8938
-6 18 39 2.6914 -0.3432
-6 18 40 -1.2529 -1.2055
-6 18 41 -3.7211 -0.2997
-6 18 42 2.1669 2.1302
-6 18 43 3.2086 0.7040
-6 18 44 -2.3015 -3.4057
-6 18 45 -1.4674 -0.5266
-6 20 1 3.7008 -0.0126
-6 20 2 -1.9318 -0.1029
-6 20 3 -3.1176 -0.3412
-6 20 4 0.1130 0.3643
-6 20 5 1.5767 0.4974
-6 20 6 1.7975 -0.3323
-6 20 7 -0.7157 -0.3678
-6 20 8 -1.8419 0.1614
-6 20 9 0.8389 -0.1058
-6 20 10 0.2410 0.0342
-6 20 11 -2.0774 0.6197
-6 20 12 0.5037 -0.2757
-6 20 13 4.1439 -0.6859
-6 20 14 1.9295 0.3439
-6 20 15 -4.8694 0.3033
-6 20 16 -6.2128 -0.0829
-6 20 17 2.7559 0.0367
-6 20 18 8.6336 -0.0933
-6 20 19 -0.0872 -0.0700
-6 20 20 -8.1574 -0.1497
-6 20 21 -0.1115 -0.0007
-6 20 22 7.0164 0.3447
-6 20 23 -1.5223 -0.0066
-6 20 24 -6.3527 -0.0622
-6 20 25 2.3505 -0.0144
-6 20 26 4.9660 -0.2410
-6 20 27 -1.5821 0.2072
-6 20 28 -2.2934 0.1544
-6 20 29 0.2711 -0.5153
-6 20 30 -0.5788 -0.1471
-6 20 31 0.5197 0.6444
-6 20 32 2.6531 0.5264
-6 20 33 -0.5894 -0.2327
-6 20 34 -3.5023 -0.6254
-6 20 35 0.8958 -0.6214
-6 20 37 -2.3543 1.1166
-6 20 38 0.3211 1.2252
-6 20 39 3.8515 -0.6592
-6 20 40 -3.9012 -2.0951
-6 20 41 -3.5387 -0.1396
-6 20 42 5.7777 2.5585
-6 22 1 0.0536 -0.1974
-6 22 2 -3.7820 -0.0981
-6 22 3 -0.0398 0.2799
-6 22 4 0.9556 0.2124
-6 22 5 0.6881 -0.0537
-6 22 6 0.0329 -0.1664
-6 22 7 -0.7134 -0.2224
-6 22 8 2.0825 0.0416
-6 22 9 -0.4235 0.1722
-6 22 10 -5.6815 0.1475
-6 22 11 2.0420 0.0405
-6 22 12 8.7587 -0.2199
-6 22 13 -2.2424 -0.1484
-6 22 14 -9.4761 -0.0542
-6 22 15 0.3456 0.3092
-6 22 16 6.9810 0.5182
-6 22 17 1.8526 -0.5318
-6 22 18 -3.0726 -0.6988
-6 22 19 -2.9794 0.4017
-6 22 20 0.3585 0.4134
-6 22 21 3.8900 0.0312
-6 22 22 1.0843 0.0271
-6 22 23 -5.0834 -0.1144
-6 22 24 -2.4516 -0.3011
-6 22 25 5.1911 -0.2406
-6 22 26 3.2596 0.4203
-6 22 27 -3.3614 0.4422
-6 22 28 -2.5990 -0.4697
-6 22 29 0.6503 -0.4431
-6 22 30 1.2342 0.2976
-6 22 31 1.6926 0.6820
-6 22 32 -0.2265 0.3229
-6 22 33 -3.4164 -0.7889
-6 22 34 -0.3071 -1.2763
-6 22 35 4.4901 -0.1069
-6 22 36 0.1810 1.9566
-6 22 37 -4.4053 1.7549
-6 22 38 0.6397 -1.7157
-6 22 39 2.7017 -2.8771
-6 24 1 -4.4176 -0.1001
-6 24 2 1.5503 0.2452
-6 24 3 1.7071 -0.0393
-6 24 4 -2.2254 0.2339
-6 24 5 1.5534 0.1670
-6 24 6 2.1642 -0.6257
-6 24 7 -2.5942 -0.0840
-6 24 8 -1.7313 0.5089
-6 24 9 1.4515 -0.1918
-6 24 10 2.0138 0.0126
-6 24 11 0.6138 0.3941
-6 24 12 -2.8597 -0.3552
-6 24 13 -2.0991 -0.4069
-6 24 14 2.9101 0.3036
-6 24 15 1.6615 0.3711
-6 24 16 -1.8934 -0.0767
-6 24 17 0.3152 -0.2782
-6 24 18 0.6774 -0.3288
-6 24 19 -2.1232 -0.0937
-6 24 20 0.3053 0.9121
-6 24 21 3.3224 0.6727
-6 24 22 -0.8149 -1.1146
-6 24 23 -4.3031 -0.9943
-6 24 24 0.4130 0.5651
-6 24 25 3.8797 0.7828
-6 24 26 0.4844 0.0996
-6 24 27 -0.9966 -0.1958
-6 24 28 -0.9108 -0.1929
-6 24 29 -2.2468 -0.5738
-6 24 30 0.9502 0.0641
-6 24 31 3.0358 1.4493
-6 24 32 -1.2539 -0.2101
-6 24 33 -1.8635 -2.1683
-6 24 34 1.6095 0.1807
-6 26 1 0.0597 0.0740
-6 26 2 2.9250 0.0091
-6 26 3 -0.4484 0.6684
-6 26 4 -0.6998 0.2294
-6 26 5 0.9334 -0.9016
-6 26 6 -1.3868 -0.3034
-6 26 7 -1.3963 0.2488
-6 26 8 1.7616 0.2143
-6 26 9 2.1760 0.7543
-6 26 10 -0.3474 -0.0245
-6 26 11 -3.0793 -1.1507
-6 26 12 -1.5306 -0.0663
-6 26 13 2.9239 0.6288
-6 26 14 1.8139 0.0135
-6 26 15 -1.3482 0.2230
-6 26 16 -0.1441 0.0555
-6 26 17 -0.5717 -0.8071
-6 26 18 -1.4745 -0.2025
-6 26 19 1.7480 0.9830
-6 26 20 1.7608 0.5623
-6 26 21 -1.5810 -0.5593
-6 26 22 -1.4766 -0.8786
-6 26 23 0.1450 -0.6432
-6 26 24 0.6942 0.7101
-6 26 25 0.9188 1.9545
-6 26 26 1.7437 -0.0344
-6 26 28 -5.0004 -0.8199
-6 28 1 5.5085 -0.2747
-6 28 2 -2.6645 0.4576
-6 28 3 -4.5607 0.3746
-6 28 4 1.9592 -0.9693
-6 28 5 2.3988 -0.0556
-6 28 6 -1.0324 0.0789
-6 28 7 -2.2679 -0.1461
-6 28 8 0.0157 1.3854
-6 28 9 5.4135 0.1050
-6 28 10 0.8288 -1.7349
-6 28 11 -9.7812 -0.0694
-6 28 12 -1.5924 0.5518
-6 28 13 11.2935 0.2268
-6 28 14 2.1509 0.8881
-6 28 15 -8.1647 -0.6180
-6 28 16 -2.2062 -1.2918
-6 28 17 3.2557 1.0920
-6 28 18 2.2220 0.6292
-6 28 19 -0.2865 -1.3015
-6 28 20 -2.4186 0.5283
-6 28 21 -0.5022 1.0825
-6 28 22 1.6949 -1.9591
-6 28 23 0.8188 -0.6994
-6 28 24 0.0318 3.3712
-6 30 1 -1.3591 -0.8501
-6 30 2 -4.1922 0.7107
-6 30 3 1.5667 -0.2636
-6 30 4 2.3520 -0.1984
-6 30 5 -1.3541 0.2628
-6 30 6 -0.8454 -0.5819
-6 30 7 -0.4302 0.8946
-6 30 8 1.7676 0.6007
-6 30 9 3.5996 -1.2472
-6 30 10 -4.9943 0.0356
-6 30 11 -6.7070 -0.3050
-6 30 12 7.5814 -0.4186
-6 30 13 7.6754 2.3503
-6 30 14 -6.7484 0.0106
-6 30 15 -5.4255 -2.8435
-6 30 16 3.4469 0.8836
-5 1 1 2.5251 2.1394
-5 1 2 -48.9756 1.2236
-5 1 3 10.8341 -1.3623
-5 1 4 48.0299 0.4501
-5 1 5 -11.0309 -0.2699
-5 1 6 -16.9294 -1.9090
-5 1 7 1.6408 1.2288
-5 1 8 -15.4959 1.7203
-5 1 9 -1.7187 -0.7538
-5 1 10 15.1856 -0.1348
-5 1 11 15.4593 -0.4353
-5 1 12 11.1141 -1.2365
-5 1 13 -25.8453 1.1552
-5 1 14 -30.8658 1.1648
-5 1 15 22.3538 -0.9563
-5 1 16 31.4338 -0.0262
-5 1 17 -13.7987 0.2710
-5 1 18 -24.1957 -0.8704
-5 1 19 9.3637 0.2142
-5 1 20 17.5583 0.7989
-5 1 21 -6.8506 -0.1948
-5 1 22 -11.4057 -0.0993
-5 1 23 3.7743 -0.1313
-5 1 24 7.8123 -0.4817
-5 1 25 -2.8416 0.4143
-5 1 26 -7.8426 0.4958
-5 1 27 3.4782 -0.4321
-5 1 28 6.0944 -0.0635
-5 1 29 -1.3577 0.1422
-5 1 30 0.2112 -0.2931
-5 1 31 -3.0331 0.2256
-5 1 32 -5.7901 0.2109
-5 1 33 5.2893 -0.2960
-5 1 34 6.3915 0.1221
-5 1 35 -4.6150 0.0511
-5 1 36 -3.7334 -0.2700
-5 1 37 3.1944 0.1575
-5 1 38 -0.1937 0.0706
-5 1 39 -1.6292 -0.2730
-5 1 40 4.6196 0.2731
-5 1 41 0.2104 0.5483
-5 1 42 -6.6679 -0.4103
-5 1 43 -0.6002 -0.8227
-5 1 44 4.3262 0.1518
-5 1 45 2.8106 0.6916
-5 1 46 -0.6373 0.2710
-5 1 47 -4.3416 -0.2893
-5 1 48 -0.6927 -0.5053
-5 1 49 4.0346 -0.1921
-5 1 50 0.7025 0.7360
-5 1 51 -3.3630 1.3175
-5 1 52 -2.0922 -1.4230
-5 1 53 3.3526 -3.2976
-5 1 54 4.1963 2.2399
-5 1 55 -3.2303 4.6683
-5 3 1 -24.4586 0.8508
-5 3 2 -18.4264 -0.5418
-5 3 3 29.9724 -0.6134
-5 3 4 11.0436 0.1916
-5 3 5 -19.5832 -0.1318
-5 3 6 2.8832 0.2346
-5 3 7 -5.5002 0.2355
-5 3 8 -20.7991 -0.3075
-5 3 9 19.2151 0.6220
-5 3 10 34.0730 0.0669
-5 3 11 -10.4407 -1.4663
-5 3 12 -31.8330 0.1696
-5 3 13 -1.6517 1.1809
-5 3 14 14.7462 -0.2591
-5 3 15 1.1377 0.0908
-5 3 16 2.3605 0.2464
-5 3 17 4.5041 -1.0960
-5 3 18 -7.3511 -0.1684
-5 3 19 -5.7792 0.9657
-5 3 20 3.3412 0.0289
-5 3 21 5.7089 -0.0426
-5 3 22 0.3089 0.1095
-5 3 23 -6.3514 -0.7813
-5 3 24 -1.1623 -0.0931
-5 3 25 3.4764 0.9763
-5 3 26 1.8587 -0.1395
-5 3 27 1.6929 -0.5799
-5 3 28 -2.6947 0.3408
-5 3 29 -2.8375 0.0251
-5 3 30 2.6627 -0.2355
-5 3 31 0.0371 0.1788
-5 3 32 -2.7960 0.0074
-5 3 33 1.9074 0.0620
-5 3 34 3.6431 -0.0136
-5 3 35 -2.2442 -0.3116
-5 3 36 -3.2478 0.1404
-5 3 37 2.0413 0.1970
-5 3 38 0.5884 -0.0953
-5 3 39 0.2544 0.0898
-5 3 40 2.3114 0.0421
-5 3 41 -4.4904 -0.1055
-5 3 42 -3.4293 -0.1959
-5 3 43 6.8402 -0.1847
-5 3 44 3.1241 0.3165
-5 3 45 -5.8825 0.2833
-5 3 46 -2.6073 -0.3260
-5 3 47 4.3975 0.2032
-5 3 48 2.2572 0.5814
-5 3 49 -3.7746 -0.8602
-5 3 50 -1.9173 -0.8658
-5 3 51 2.3524 0.7931
-5 3 52 1.4396 0.3439
-5 3 53 0.3095 0.0947
-5 3 54 -0.7838 0.7833
-5 3 55 -2.1332 -0.7387
-5 5 1 -4.0320 -0.1053
-5 5 2 -17.9511 -0.0843
-5 5 3 12.1991 0.0402
-5 5 4 15.8447 -0.0187
-5 5 5 -15.3983 -0.0175
-5 5 6 -15.0566 0.1116
-5 5 7 7.1624 0.0371
-5 5 8 14.7585 0.1134
-5 5 9 7.8093 -0.0209
-5 5 10 -11.1170 -0.3703
-5 5 11 -16.3678 -0.0611
-5 5 12 11.9932 0.1360
-5 5 13 11.4365 0.0853
-5 5 14 -24.2481 0.5460
-5 5 15 0.7790 0.0402
-5 5 16 37.1893 -0.9537
-5 5 17 -8.7721 -0.1905
-5 5 18 -37.3779 0.5845
-5 5 19 7.5346 0.1531
-5 5 20 28.5080 0.1729
-5 5 21 -1.2929 0.1238
-5 5 22 -21.0894 -0.5805
-5 5 23 -3.0981 -0.4077
-5 5 24 15.4433 0.4106
-5 5 25 3.0771 0.3388
-5 5 26 -7.9782 0.0636
-5 5 27 -0.9426 0.1054
-5 5 28 1.4644 -0.5021
-5 5 29 0.0566 -0.4581
-5 5 30 1.0184 0.5971
-5 5 31 -2.0425 0.3879
-5 5 32 -1.5068 -0.1980
-5 5 33 6.0901 -0.1414
-5 5 34 1.1763 -0.3601
-5 5 35 -9.2236 -0.0064
-5 5 36 1.4247 0.4888
-5 5 37 8.4804 0.1821
-5 5 38 -4.5986 -0.1135
-5 5 39 -4.2242 -0.4135
-5 5 40 4.4961 -0.2161
-5 5 41 0.0599 0.4512
-5 5 42 -1.4966 0.1376
-5 5 43 1.3308 -0.3545
-5 5 44 -0.8305 0.0147
-5 5 45 -0.6916 0.3609
-5 5 46 1.2590 0.2425
-5 5 47 0.1029 -0.1741
-5 5 48 -0.8556 -0.7070
-5 5 49 -0.2791 -0.5214
-5 5 50 -0.0323 0.5754
-5 5 51 0.6158 1.1126
-5 5 52 1.4046 0.4620
-5 5 53 -0.5347 -0.9072
-5 5 54 -2.2464 -1.5313
-5 5 55 0.0480 0.4470
-5 7 1 -6.5243 -0.4604
-5 7 2 -6.4252 0.0825
-5 7 3 9.1315 0.1524
-5 7 4 -4.4653 -0.1636
-5 7 5 -7.9799 0.2605
-5 7 6 15.6666 0.3193
-5 7 7 2.7587 -0.3590
-5 7 8 -17.3776 -0.3726
-5 7 9 6.7282 0.1506
-5 7 10 9.8097 0.2441
-5 7 11 -12.8228 0.0063
-5 7 12 -0.2589 -0.0509
-5 7 13 5.7403 0.0910
-5 7 14 -4.7694 -0.0316
-5 7 15 10.3926 -0.1790
-5 7 16 3.6731 -0.0366
-5 7 17 -20.2249 -0.0889
-5 7 18 -0.1828 0.1528
-5 7 19 17.4336 0.5357
-5 7 20 -0.7545 -0.1623
-5 7 21 -9.7388 -0.6284
-5 7 22 -0.8210 -0.0007
-5 7 23 4.3465 0.2370
-5 7 24 0.6174 0.1289
-5 7 25 -1.1176 0.2314
-5 7 26 2.6935 0.0709
-5 7 27 -0.9038 -0.4236
-5 7 28 -5.5966 -0.4495
-5 7 29 1.2815 0.2941
-5 7 30 5.2071 0.5140
-5 7 31 -1.3448 0.0878
-5 7 32 -2.2328 -0.2001
-5 7 33 2.0570 -0.4682
-5 7 34 -1.1702 -0.0571
-5 7 35 -1.3227 0.3870
-5 7 36 3.1411 0.0645
-5 7 37 -1.9020 0.2303
-5 7 38 -2.7503 0.0330
-5 7 39 4.7336 -0.7438
-5 7 40 1.0632 -0.2346
-5 7 41 -4.7322 0.5795
-5 7 42 -0.2112 0.4749
-5 7 43 3.2321 -0.0276
-5 7 44 0.6403 -0.3453
-5 7 45 -2.4513 -0.2275
-5 7 46 -0.9933 -0.1949
-5 7 47 2.6015 0.1247
-5 7 48 0.5562 0.5010
-5 7 49 -2.9083 -0.3073
-5 7 50 0.0036 -0.3252
-5 7 51 3.0991 1.1996
-5 7 52 -0.0051 0.2721
-5 7 53 -3.1221 -2.2786
-5 7 54 -0.4126 -0.6083
-5 9 1 -14.8390 -0.4124
-5 9 2 -15.5161 0.0029
-5 9 3 16.0245 0.2216
-5 9 4 13.7500 0.3342
-5 9 5 -9.6777 0.0979
-5 9 6 -12.4928 -0.3841
-5 9 7 0.4808 -0.2495
-5 9 8 17.3870 0.0543
-5 9 9 6.0355 0.1326
-5 9 10 -27.1220 0.3185
-5 9 11 -7.3236 0.0991
-5 9 12 32.4074 -0.3314
-5 9 13 4.3741 -0.2320
-5 9 14 -26.9317 0.0006
-5 9 15 -1.3958 0.1965
-5 9 16 15.5531 0.2242
-5 9 17 1.6834 -0.0459
-5 9 18 -7.3996 -0.0754
-5 9 19 -3.4582 -0.1247
-5 9 20 5.1357 -0.1418
-5 9 21 3.6091 0.1759
-5 9 22 -5.3676 0.0567
-5 9 23 -3.1701 -0.0771
-5 9 24 5.2991 0.1964
-5 9 25 4.3893 0.0434
-5 9 26 -4.5186 -0.2808
-5 9 27 -5.9606 -0.1692
-5 9 28 3.2359 0.1687
-5 9 29 5.7603 0.1265
-5 9 30 -2.0027 -0.0086
-5 9 31 -4.6293 0.2613
-5 9 32 1.4427 -0.1077
-5 9 33 4.1580 -0.5346
-5 9 34 -1.1172 0.0293
-5 9 35 -4.1922 0.3094
-5 9 36 0.2332 0.2979
-5 9 37 4.1431 0.0777
-5 9 38 0.6981 -0.4816
-5 9 39 -3.7471 -0.2311
-5 9 40 -0.6020 0.1187
-5 9 41 2.3891 0.2612
-5 9 42 -0.2530 0.4402
-5 9 43 -0.0212 -0.2108
-5 9 44 0.5520 -0.4725
-5 9 45 -2.0010 -0.1395
-5 9 46 0.1937 -0.0234
-5 9 47 2.4520 0.5594
-5 9 48 -1.0803 0.3225
-5 9 49 -1.6265 -0.5109
-5 9 50 1.1144 -0.0226
-5 9 51 0.7566 0.1210
-5 9 52 -0.4896 -0.4722
-5 9 53 -0.7784 0.0348
-5 11 1 -13.1892 -0.0640
-5 11 2 5.1407 -0.0371
-5 11 3 13.4981 0.0946
-5 11 4 -9.3817 0.1700
-5 11 5 -11.5078 -0.1309
-5 11 6 10.8975 -0.1244
-5 11 7 11.1317 0.0421
-5 11 8 -7.2950 -0.0944
-5 11 9 -13.9903 0.1502
-5 11 10 -0.9637 0.2627
-5 11 11 17.7308 -0.1931
-5 11 12 10.2099 -0.1783
-5 11 13 -18.7257 -0.1186
-5 11 15 15.8264 0.5472
-5 11 16 18.2295 0.1919
-5 11 17 -11.1125 -0.6158
-5 11 18 -15.9850 -0.1163
-5 11 19 7.3188 0.2793
-5 11 20 10.8354 -0.0165
-5 11 21 -5.3037 0.0329
-5 11 22 -5.9862 0.0914
-5 11 23 4.3404 -0.0950
-5 11 24 4.5993 -0.0544
-5 11 25 -3.9362 0.0767
-5 11 26 -5.6934 -0.0984
-5 11 27 4.0863 -0.0482
-5 11 28 5.8524 0.1470
-5 11 29 -4.1598 -0.0992
-5 11 30 -4.2962 0.1086
-5 11 31 3.2069 0.2641
-5 11 32 2.8828 -0.3216
-5 11 33 -1.5003 -0.2403
-5 11 34 -2.7522 0.0387
-5 11 35 0.3622 0.0739
-5 11 36 3.6795 0.3535
-5 11 37 -0.3976 0.1471
-5 11 38 -4.9433 -0.1323
-5 11 39 1.1242 -0.4754
-5 11 40 5.3612 -0.4441
-5 11 41 -2.0451 0.6672
-5 11 42 -4.0673 0.5188
-5 11 43 2.7478 -0.2217
-5 11 44 1.5681 -0.0897
-5 11 45 -2.4230 -0.6965
-5 11 46 0.8516 -0.1917
-5 11 47 0.7449 1.1709
-5 11 48 -2.0898 0.2969
-5 11 49 1.1382 -0.8181
-5 11 50 1.6739 -0.6610
-5 11 51 -1.7332 0.3482
-5 11 52 -0.5210 1.1853
-5 13 1 -15.2615 -0.4257
-5 13 2 -2.8547 -0.4131
-5 13 3 12.0840 0.3170
-5 13 4 4.5701 0.3034
-5 13 5 -5.6281 -0.1219
-5 13 6 -3.1638 0.0462
-5 13 7 -0.4357 -0.0971
-5 13 8 1.3977 -0.2807
-5 13 9 2.3715 0.2649
-5 13 10 -2.6256 0.1792
-5 13 11 1.6603 -0.2201
-5 13 12 6.0634 0.0307
-5 13 13 -9.5496 -0.0621
-5 13 14 -7.8809 -0.0455
-5 13 15 16.5067 0.2827
-5 13 16 6.0821 -0.0348
-5 13 17 -18.3844 -0.1817
-5 13 18 -1.9184 -0.0360
-5 13 19 14.5971 -0.0745
-5 13 20 -2.1616 0.1796
-5 13 21 -9.0058 0.1710
-5 13 22 4.1896 -0.2040
-5 13 23 6.5336 -0.0501
-5 13 24 -3.8941 0.1718
-5 13 25 -7.8771 -0.1721
-5 13 26 3.0147 -0.1478
-5 13 27 9.3265 0.3181
-5 13 28 -2.9289 -0.0109
-5 13 29 -7.8992 -0.1654
-5 13 30 2.7348 0.2524
-5 13 31 4.2625 -0.1773
-5 13 32 -1.4410 -0.2510
-5 13 33 -0.8546 0.1982
-5 13 34 0.1812 0.0229
-5 13 35 -0.6317 0.1307
-5 13 36 -0.2414 0.0240
-5 13 37 0.1464 -0.0590
-5 13 38 1.0604 0.1788
-5 13 39 1.1140 -0.6061
-5 13 40 -1.7711 -0.3333
-5 13 41 -2.1189 0.8626
-5 13 42 2.3980 0.4451
-5 13 43 2.5826 -0.1200
-5 13 44 -2.5323 -0.6289
-5 13 45 -1.9874 -0.7315
-5 13 46 1.1809 0.4592
-5 13 47 0.0170 0.8279
-5 13 50 -3.3122 -1.3903
-5 13 51 -1.5999 1.0122
-5 15 1 -9.5500 0.0111
-5 15 2 11.9035 -0.3127
-5 15 3 12.3323 0.0924
-5 15 4 -11.6514 0.4256
-5 15 5 -8.8790 0.0461
-5 15 6 11.2423 -0.2616
-5 15 7 2.3317 -0.2776
-5 15 8 -8.6186 0.0878
-5 15 9 0.7437 0.2656
-5 15 10 4.2207 -0.0812
-5 15 11 2.0085 0.0287
-5 15 12 -1.0882 0.0817
-5 15 13 -6.0330 -0.2623
-5 15 14 1.4900 -0.0044
-5 15 15 6.4026 0.2263
-5 15 16 -4.2302 0.0370
-5 15 17 -3.1586 -0.0821
-5 15 18 6.0245 -0.2046
-5 15 19 -0.7784 -0.0255
-5 15 20 -5.4968 0.2686
-5 15 21 3.0572 0.1528
-5 15 22 4.3670 -0.1735
-5 15 23 -2.8290 -0.2577
-5 15 24 -4.3249 0.0575
-5 15 25 1.1259 0.1998
-5 15 26 4.6771 0.0753
-5 15 27 0.0905 -0.0795
-5 15 28 -3.8339 -0.1551
-5 15 29 -0.4615 0.0730
-5 15 30 1.4731 -0.0790
-5 15 31 1.0720 -0.0323
-5 15 32 1.3540 0.4926
-5 15 33 -1.7690 -0.1899
-5 15 34 -3.3309 -0.5300
-5 15 35 1.3743 0.2971
-5 15 36 4.0448 0.1919
-5 15 37 -0.0666 -0.0832
-5 15 38 -4.1342 -0.0703
-5 15 39 -0.9939 -0.0310
-5 15 40 3.8963 0.1459
-5 15 41 1.3441 -0.3239
-5 15 42 -2.8775 0.1671
-5 15 43 -0.7835 0.8650
-5 15 44 1.7138 -0.6265
-5 15 45 -0.9725 -1.3813
-5 15 46 -2.0931 0.3414
-5 15 47 3.1224 2.1936
-5 15 48 3.6125 0.5235
-5 15 49 -4.1084 -3.1964
-5 17 1 -1.9510 -0.3434
-5 17 2 5.6880 -0.0710
-5 17 3 1.2022 0.3599
-5 17 4 -3.9654 -0.0656
-5 17 5 3.5246 -0.0331
-5 17 6 0.0845 0.0885
-5 17 7 -7.3007 -0.3448
-5 17 8 3.2730 -0.0375
-5 17 9 5.7454 0.3733
-5 17 10 -3.9233 0.0314
-5 17 11 0.2678 -0.1393
-5 17 12 3.2646 0.0046
-5 17 13 -5.5900 0.0169
-5 17 14 -3.1901 -0.1970
-5 17 15 6.6508 -0.0282
-5 17 16 2.5056 0.3938
-5 17 17 -4.8655 -0.0063
-5 17 18 0.0497 -0.3368
-5 17 19 3.4514 0.0126
-5 17 20 -2.4618 0.0929
-5 17 21 -3.1830 0.0487
-5 17 22 2.2998 0.0632
-5 17 23 2.9497 0.0443
-5 17 24 -0.0262 -0.0990
-5 17 25 -2.3904 -0.2234
-5 17 26 -2.3512 0.1622
-5 17 27 2.1043 0.0863
-5 17 28 3.4669 -0.2172
-5 17 29 -2.4311 0.2569
-5 17 30 -3.0489 0.1435
-5 17 31 3.0009 -0.2513
-5 17 32 2.0491 0.0027
-5 17 33 -3.0331 -0.0299
-5 17 34 -1.7319 -0.1342
-5 17 35 2.2542 0.0123
-5 17 36 1.8868 0.2159
-5 17 37 -1.4968 0.2259
-5 17 38 -1.3744 -0.0360
-5 17 39 1.4713 -0.1674
-5 17 40 0.1214 -0.5509
-5 17 41 -1.7067 -0.0519
-5 17 42 1.2698 1.0949
-5 17 43 2.0585 0.0686
-5 17 44 -2.7568 -1.0549
-5 17 45 -3.4432 -0.3151
-5 17 46 4.0104 0.8006
-5 17 47 5.3263 1.2588
-5 19 1 -0.6400 0.0657
-5 19 2 7.3449 0.0240
-5 19 3 0.4695 -0.0898
-5 19 4 -4.3391 0.2190
-5 19 5 0.4715 0.1941
-5 19 6 0.9951 -0.4146
-5 19 7 -0.8300 -0.2587
-5 19 8 -0.3722 0.2623
-5 19 9 0.0449 0.2548
-5 19 10 2.4320 0.2313
-5 19 11 2.1728 -0.1907
-5 19 12 -4.0875 -0.5604
-5 19 13 -4.8982 0.0119
-5 19 14 3.2111 0.4476
-5 19 15 4.7815 0.2204
-5 19 16 -1.6294 -0.1817
-5 19 17 0.0550 -0.1999
-5 19 18 1.9581 -0.0169
-5 19 19 -5.8384 -0.2257
-5 19 20 -3.1469 0.1998
-5 19 21 7.0749 0.6629
-5 19 22 2.2768 -0.2094
-5 19 23 -3.3261 -0.6140
-5 19 24 0.7634 -0.0884
-5 19 25 -1.3598 0.1827
-5 19 26 -3.3360 0.2371
-5 19 27 3.9236 0.1262
-5 19 28 3.6146 0.1512
-5 19 29 -4.4645 -0.1555
-5 19 30 -2.1821 -0.5599
-5 19 31 4.5396 0.1629
-5 19 32 0.9306 0.4027
-5 19 33 -5.0170 -0.2849
-5 19 34 -1.0371 -0.0281
-5 19 35 5.0338 0.3463
-5 19 36 1.7317 -0.1398
-5 19 37 -3.2174 -0.1166
-5 19 38 -1.6880 0.5452
-5 19 39 0.1147 -0.3940
-5 19 40 1.1418 -1.5118
-5 19 41 2.0847 0.7473
-5 19 43 -2.3387 -0.3584
-5 19 44 -0.2790 -2.3772
-5 21 1 5.3069 -0.2480
-5 21 2 1.9592 0.3229
-5 21 3 -4.1932 0.2476
-5 21 4 1.5736 -0.3320
-5 21 5 2.4878 -0.0567
-5 21 6 -3.0863 0.0725
-5 21 7 -1.0277 -0.1597
-5 21 8 0.8505 0.1864
-5 21 9 -0.5540 0.3974
-5 21 10 3.8767 -0.2450
-5 21 11 3.1422 -0.4716
-5 21 12 -8.5717 0.1199
-5 21 13 -6.4858 0.1987
-5 21 14 10.1366 0.1244
-5 21 15 7.9593 0.1358
-5 21 16 -6.8009 -0.3516
-5 21 17 -5.3638 -0.1659
-5 21 18 0.9358 0.3008
-5 21 19 0.9801 0.0245
-5 21 20 2.9064 0.0145
-5 21 21 0.6040 0.0607
-5 21 22 -3.3377 -0.1085
-5 21 23 1.5155 -0.2008
-5 21 24 2.6880 -0.2712
-5 21 25 -4.1730 0.3409
-5 21 26 -2.6979 0.6149
-5 21 27 4.8956 -0.1213
-5 21 28 2.7199 -0.3933
-5 21 29 -3.9786 -0.3039
-5 21 30 -1.7568 -0.1400
-5 21 31 2.8562 0.2964
-5 21 32 -0.0437 0.4923
-5 21 33 -2.4404 0.0975
-5 21 34 1.6509 -0.7740
-5 21 35 2.2612 -0.1849
-5 21 36 -1.9536 1.3557
-5 21 38 0.8816 -2.0635
-5 21 39 -0.7165 -0.5809
-5 21 40 0.2256 2.2530
-5 21 41 1.4143 1.8442
-5 21 42 -0.0945 -1.5316
-5 23 1 1.0728 0.1175
-5 23 2 -2.4252 0.4725
-5 23 3 2.6348 -0.2195
-5 23 4 4.1165 0.1073
-5 23 5 -5.3560 0.0858
-5 23 6 -4.3617 -0.5367
-5 23 7 4.7548 0.1882
-5 23 8 1.9377 0.4700
-5 23 9 -1.6944 -0.2641
-5 23 10 2.3797 0.0212
-5 23 11 -1.7337 0.1176
-5 23 12 -6.6451 -0.6436
-5 23 13 3.9257 0.0150
-5 23 14 8.5433 0.9475
-5 23 15 -4.0280 -0.0715
-5 23 16 -6.5328 -0.6325
-5 23 17 2.5817 0.0706
-5 23 18 2.0831 0.0041
-5 23 19 -1.1507 0.0726
-5 23 20 1.2193 0.3622
-5 23 21 0.3333 -0.2271
-5 23 22 -1.9821 -0.3893
-5 23 23 0.5222 0.0776
-5 23 24 1.6788 0.3304
-5 23 25 -1.4747 0.1981
-5 23 26 -1.1019 -0.0965
-5 23 27 1.7318 -0.0193
-5 23 28 -0.1704 -0.4550
-5 23 29 -1.2101 -0.5737
-5 23 30 1.4733 0.9154
-5 23 31 0.6646 0.8949
-5 23 32 -1.7613 -0.8737
-5 23 33 -0.3966 -0.8422
-5 23 34 1.3784 0.6618
-5 23 35 0.0384 1.1256
-5 23 36 -0.7876 -0.7210
-5 23 37 0.6149 -1.9605
-5 23 38 -0.2953 0.7282
-5 25 1 0.5902 0.0251
-5 25 2 5.1662 0.3435
-5 25 3 1.4214 0.1851
-5 25 4 -6.2371 -0.3823
-5 25 5 -3.9139 -0.3330
-5 25 6 6.5510 0.3240
-5 25 7 4.7771 0.2616
-5 25 8 -5.8174 -0.1257
-5 25 9 -3.7100 0.0533
-5 25 10 4.4302 -0.1809
-5 25 11 1.8550 -0.4114
-5 25 12 -2.9291 0.2626
-5 25 13 -0.2316 0.4261
-5 25 14 1.8100 0.0603
-5 25 15 -0.4394 0.1048
-5 25 16 -0.9702 -0.5297
-5 25 17 0.1883 -0.7781
-5 25 18 -0.1900 0.8547
-5 25 19 -0.0025 0.9097
-5 25 20 1.6009 -0.8835
-5 25 21 0.1035 -0.4002
-5 25 22 -2.4581 0.4074
-5 25 23 0.2464 -0.2196
-5 25 24 2.4468 0.4901
-5 25 25 -0.2431 0.6915
-5 25 26 -1.9479 -1.0857
-5 25 27 -1.7034 -1.2996
-5 25 28 1.2956 0.8456
-5 25 29 4.1032 2.0709
-5 25 30 -0.7131 -0.2948
-5 25 31 -3.7510 -2.4503
-5 27 1 0.9511 -0.0224
-5 27 2 -2.8019 0.4309
-5 27 3 -0.6167 -0.2246
-5 27 4 1.5994 0.0557
-5 27 5 1.5874 0.0035
-5 27 6 0.5808 -0.2758
-5 27 7 -2.0304 0.4539
-5 27 8 -1.8478 0.0680
-5 27 9 0.4112 -0.7409
-5 27 10 1.7114 0.1611
-5 27 11 2.6554 0.5834
-5 27 12 -0.9209 -0.2527
-5 27 13 -4.6777 -0.0661
-5 27 14 0.5097 0.4983
-5 27 15 4.2687 -0.3405
-5 27 16 -0.6469 -0.8785
-5 27 17 -2.7458 0.2474
-5 27 18 0.2287 0.7966
-5 27 19 1.9427 0.3073
-5 27 20 1.1141 0.0466
-5 27 21 -2.0510 -1.1662
-5 27 22 -1.7739 -1.0923
-5 27 23 2.1402 2.1926
-5 27 24 1.0578 1.6953
-5 27 25 -1.2777 -2.8627
-5 27 27 -0.6923 2.4898
-5 27 28 2.1676 2.1994
-5 29 1 -1.7223 0.5623
-5 29 2 3.3522 -0.4930
-5 29 3 1.5880 0.1064
-5 29 4 -2.4994 0.3507
-5 29 5 0.7929 -0.8066
-5 29 6 1.0509 0.4906
-5 29 7 -2.5674 0.5614
-5 29 8 -0.9952 -0.7452
-5 29 9 1.4505 0.1693
-5 29 10 2.8652 -0.4321
-5 29 11 1.7212 -0.3365
-5 29 12 -4.6044 2.2790
-5 29 13 -3.7141 -0.1457
-5 29 14 4.1020 -3.1185
-5 29 15 2.4916 0.6200
-5 29 16 -2.0714 2.0995
-5 29 17 0.0808 -0.9399
-5 29 18 0.5558 0.0180
-5 29 19 -0.7555 1.4772
-5 29 20 -0.1617 -1.8783
-5 29 21 -0.3821 -2.1227
-5 29 23 0.6253 2.2700
-5 31 1 0.0626 -0.7281
-5 31 2 0.2408 -0.8258
-5 31 3 -0.9813 1.1217
-5 31 4 0.2871 -0.4815
-5 31 5 1.8166 -0.1295
-5 31 6 -1.1935 1.4584
-5 31 7 -2.3154 -0.9782
-5 31 8 1.0488 -1.0539
-5 31 9 2.6155 0.1456
-5 31 10 0.6072 0.1156
-4 0 2 -19.5591 -7.5368
-4 0 4 -30.3313 8.3847
-4 0 6 20.1143 -5.3579
-4 0 8 28.1060 0.9112
-4 0 10 -46.7416 1.9760
-4 0 12 19.3896 -2.2772
-4 0 14 8.9319 1.0475
-4 0 16 -7.3450 0.0968
-4 0 18 -8.1337 -0.2957
-4 0 20 14.7991 -0.2609
-4 0 22 -11.1410 0.8236
-4 0 24 2.8126 -0.8536
-4 0 26 6.8771 0.4896
-4 0 28 -11.7190 -0.2731
-4 0 30 7.7376 0.4388
-4 0 32 -0.1589 -0.6700
-4 0 34 -4.8375 0.6165
-4 0 36 7.0546 -0.3847
-4 0 38 -6.6195 0.3124
-4 0 40 2.4624 -0.4643
-4 0 42 1.8703 0.5978
-4 0 44 -1.2995 -0.5009
-4 0 46 -2.4472 0.1823
-4 0 48 3.9146 0.1208
-4 0 50 -2.6514 0.0188
-4 0 52 2.0516 -0.9347
-4 0 54 -2.7282 2.3793
-4 2 1 -31.3486 -2.9759
-4 2 2 53.9752 -1.1824
-4 2 3 -11.9522 4.6429
-4 2 4 -65.1900 1.1766
-4 2 5 33.2692 -3.5262
-4 2 6 50.4591 -0.3256
-4 2 7 -12.1228 0.6984
-4 2 8 -14.4018 -0.7365
-4 2 9 -13.4089 1.4700
-4 2 10 -15.3322 1.1134
-4 2 11 8.3966 -1.7582
-4 2 12 22.9790 -0.5639
-4 2 13 10.5237 0.7887
-4 2 14 -18.3175 -0.2379
-4 2 15 -12.4778 0.1871
-4 2 16 15.6991 0.5805
-4 2 17 0.3701 -0.5089
-4 2 18 -16.6288 -0.4270
-4 2 19 5.6597 0.2618
-4 2 20 15.9866 0.1416
-4 2 21 -2.6105 0.1431
-4 2 22 -12.0151 0.0188
-4 2 23 -1.5179 -0.3199
-4 2 24 6.1830 -0.0557
-4 2 25 5.4664 0.1547
-4 2 26 -0.9142 0.1259
-4 2 27 -9.5100 0.0821
-4 2 28 -0.9624 -0.2558
-4 2 29 9.6269 -0.0454
-4 2 30 -1.3719 0.2237
-4 2 31 -5.6398 -0.1870
-4 2 32 5.5958 0.0438
-4 2 33 2.2240 0.2095
-4 2 34 -9.1638 -0.2336
-4 2 35 -0.4288 0.0481
-4 2 36 10.8916 0.1016
-4 2 37 -1.3197 -0.1794
-4 2 38 -9.6594 0.2125
-4 2 39 1.3745 -0.0287
-4 2 40 5.2677 -0.4680
-4 2 41 1.2776 0.2778
-4 2 42 -0.2932 0.4311
-4 2 43 -2.9655 -0.3155
-4 2 44 -2.2765 0.0933
-4 2 45 1.3930 0.2841
-4 2 46 2.5639 -0.6908
-4 2 47 0.4361 -0.2698
-4 2 48 -2.4952 0.4281
-4 2 49 -0.0581 0.0401
-4 2 50 2.4530 0.6434
-4 2 51 -0.7878 0.4867
-4 2 52 -1.5561 -1.1002
-4 2 53 0.3908 -0.9750
-4 2 54 0.0243 0.2903
-4 2 55 0.2083 1.1463
-4 4 1 20.5816 -0.5701
-4 4 2 13.6092 -0.4433
-4 4 3 -38.2887 0.8415
-4 4 4 -3.3565 0.5313
-4 4 5 51.1540 -0.3118
-4 4 6 0.5639 -1.1108
-4 4 7 -38.2267 -0.5650
-4 4 8 -2.8158 1.3799
-4 4 9 9.8095 0.9204
-4 4 10 -3.2881 -0.8675
-4 4 11 10.3911 -0.4031
-4 4 12 12.7360 0.0236
-4 4 13 -16.4696 -0.3788
-4 4 14 -9.9236 0.4427
-4 4 15 16.9487 0.6296
-4 4 16 -1.7630 -0.3616
-4 4 17 -15.4201 -0.2957
-4 4 18 5.0346 0.0618
-4 4 19 11.1352 -0.0939
-4 4 20 2.5136 0.1389
-4 4 21 -7.2995 0.1481
-4 4 22 -8.1280 -0.1357
-4 4 23 6.1889 0.0866
-4 4 24 6.4241 -0.0709
-4 4 25 -4.6809 -0.2484
-4 4 26 -2.7647 0.3443
-4 4 27 1.1824 0.0353
-4 4 28 0.3888 -0.3713
-4 4 29 1.1339 0.3438
-4 4 30 0.9286 0.0231
-4 4 31 -0.3539 -0.3450
-4 4 32 0.3380 0.3332
-4 4 33 -2.1357 -0.1319
-4 4 34 -4.0409 -0.3004
-4 4 35 5.0383 0.5746
-4 4 36 6.0757 0.0661
-4 4 37 -6.9229 -0.5518
-4 4 38 -4.8552 -0.0414
-4 4 39 5.3796 0.1331
-4 4 40 3.5299 0.1296
-4 4 41 -0.7261 0.2872
-4 4 42 -3.8304 0.0010
-4 4 43 -2.9348 -0.2743
-4 4 44 4.1363 -0.1892
-4 4 45 2.9818 -0.1739
-4 4 46 -3.7685 0.0688
-4 4 47 -0.9962 0.3764
-4 4 48 3.7132 0.1576
-4 4 49 -0.7899 0.0571
-4 4 50 -3.8289 0.0226
-4 4 51 2.0643 -0.2273
-4 4 52 3.2342 -0.5794
-4 4 53 -2.9097 -0.8289
-4 4 54 -2.2763 1.0002
-4 4 55 2.7464 2.2530
-4 6 1 9.8529 -0.1875
-4 6 2 -0.3633 0.2896
-4 6 3 -17.5827 0.0711
-4 6 4 9.5607 -0.2902
-4 6 5 24.8556 -0.0272
-4 6 6 -21.8871 -0.0283
-4 6 7 -26.6996 -0.0289
-4 6 8 26.1415 0.2394
-4 6 9 15.7290 0.2359
-4 6 10 -24.7962 0.0269
-4 6 11 1.9306 -0.4585
-4 6 12 21.8666 -0.5244
-4 6 13 -9.3702 0.4344
-4 6 14 -16.9672 0.6404
-4 6 15 1.5590 -0.1377
-4 6 16 13.3551 -0.1951
-4 6 17 8.1240 -0.1892
-4 6 18 -15.2487 -0.3800
-4 6 19 -8.2077 0.3448
-4 6 20 17.8017 0.5810
-4 6 21 2.9357 -0.3543
-4 6 22 -13.7047 -0.2489
-4 6 23 -1.4998 0.3003
-4 6 24 5.8495 -0.3274
-4 6 25 5.4620 -0.1719
-4 6 26 -1.8779 0.5529
-4 6 27 -11.2089 0.0296
-4 6 28 2.3444 -0.1486
-4 6 29 15.4839 -0.0542
-4 6 30 -3.3771 -0.3666
-4 6 31 -15.4732 0.2103
-4 6 32 3.9946 0.3130
-4 6 33 10.3498 -0.2070
-4 6 34 -4.3757 0.1898
-4 6 35 -3.8741 0.0285
-4 6 36 3.5565 -0.4586
-4 6 37 0.6238 -0.0092
-4 6 38 -2.3201 0.1988
-4 6 39 -0.5129 0.1389
-4 6 40 2.7299 0.2482
-4 6 41 0.5855 0.0285
-4 6 42 -4.0471 -0.3591
-4 6 43 0.1178 -0.4870
-4 6 44 3.7256 -0.0644
-4 6 45 -0.6731 0.5881
-4 6 46 -1.5099 0.5857
-4 6 47 0.8682 -0.0734
-4 6 48 -0.8891 -0.5737
-4 6 49 -1.0834 -0.4893
-4 6 50 2.5263 0.2588
-4 6 51 1.1379 0.6301
-4 6 52 -3.3401 -0.6015
-4 6 53 -0.7442 -0.6017
-4 6 54 3.1538 1.6316
-4 6 55 0.1819 0.7845
-4 8 1 -12.0677 0.1071
-4 8 2 8.5346 -0.3245
-4 8 3 0.7453 -0.3563
-4 8 4 -8.1929 0.3864
-4 8 5 2.8106 0.2566
-4 8 6 2.2616 -0.3399
-4 8 7 1.7336 0.0984
-4 8 8 -0.9584 0.2183
-4 8 12 -15.0469 -0.1180
-4 8 14 11.0938 0.2231
-4 8 15 21.6027 -0.3981
-4 8 16 1.1581 -0.1528
-4 8 17 -15.2105 0.1270
-4 8 18 -10.9228 -0.0817
-4 8 19 12.6189 0.2231
-4 8 20 12.4710 0.2567
-4 8 21 -10.0690 -0.3303
-4 8 22 -9.3819 -0.1431
-4 8 23 5.1004 0.0505
-4 8 24 7.5952 -0.1482
-4 8 25 -1.1299 0.3194
-4 8 26 -9.0822 0.2721
-4 8 27 0.0583 -0.2682
-4 8 28 12.0478 -0.1425
-4 8 29 0.0122 -0.1549
-4 8 30 -13.8432 -0.0303
-4 8 31 0.5321 0.3004
-4 8 32 13.1056 0.1736
-4 8 33 -2.6735 0.0508
-4 8 34 -10.7677 -0.3360
-4 8 35 4.8985 -0.3154
-4 8 36 9.0304 0.3380
-4 8 37 -5.1789 0.0748
-4 8 38 -8.6450 -0.0521
-4 8 39 4.2679 0.3066
-4 8 40 8.1302 -0.1715
-4 8 41 -3.5579 -0.2981
-4 8 42 -6.2648 0.0419
-4 8 43 2.7612 -0.1237
-4 8 44 3.8712 0.0441
-4 8 45 -1.6162 0.5061
-4 8 46 -2.2879 0.3306
-4 8 47 1.0528 -0.3262
-4 8 48 1.4979 -0.7272
-4 8 49 -1.6517 -0.4197
-4 8 50 -0.7284 0.4501
-4 8 51 2.6693 0.9859
-4 8 52 -0.1118 0.3559
-4 8 53 -2.9206 -0.7724
-4 8 54 0.4411 -0.9160
-4 10 1 1.6480 0.2644
-4 10 2 1.3807 0.0991
-4 10 3 -12.7251 -0.3288
-4 10 4 7.7667 0.1214
-4 10 5 19.2947 0.3576
-4 10 6 -15.2349 -0.0319
-4 10 7 -20.5549 -0.3218
-4 10 8 15.5848 -0.2162
-4 10 9 19.5332 0.2422
-4 10 10 -8.3310 0.2707
-4 10 11 -16.0496 -0.1718
-4 10 12 0.3144 -0.0497
-4 10 13 8.5455 0.1168
-4 10 14 0.7941 -0.2213
-4 10 15 0.9787 -0.0109
-4 10 16 4.3750 0.3612
-4 10 17 -7.5394 -0.1969
-4 10 18 -9.3459 -0.3273
-4 10 19 7.8574 0.3860
-4 10 20 10.9740 0.1413
-4 10 21 -3.4150 -0.2989
-4 10 22 -10.4247 0.0272
-4 10 23 -1.2330 -0.0829
-4 10 24 8.5756 0.0007
-4 10 25 3.1126 0.3662
-4 10 26 -6.0759 -0.0820
-4 10 27 -2.8293 -0.2583
-4 10 28 4.7225 0.0009
-4 10 29 1.9413 0.0024
-4 10 30 -4.9143 0.0427
-4 10 31 -0.6725 0.0829
-4 10 32 4.7475 0.1965
-4 10 33 -1.1104 -0.1069
-4 10 34 -3.3396 -0.4113
-4 10 35 3.0391 0.2070
-4 10 36 1.9746 0.2435
-4 10 37 -4.9104 -0.1766
-4 10 38 -1.5526 -0.0036
-4 10 39 6.3410 -0.0403
-4 10 40 1.5838 0.1382
-4 10 41 -6.1186 0.1133
-4 10 42 -1.5461 -0.4197
-4 10 43 3.7001 0.0241
-4 10 44 1.4286 0.3388
-4 10 45 -0.6031 -0.0367
-4 10 46 -1.1374 0.1312
-4 10 47 -1.1567 -0.0052
-4 10 48 0.1885 -0.6226
-4 10 49 1.2405 -0.4672
-4 10 50 1.7463 0.8132
-4 10 51 -0.7944 1.5187
-4 10 52 -3.7695 -0.6136
-4 10 53 0.8246 -2.3831
-4 12 1 -10.8066 -0.0566
-4 12 2 11.0862 0.2380
-4 12 3 11.1419 0.3598
-4 12 4 -3.3277 -0.1356
-4 12 5 -14.1412 -0.4493
-4 12 6 -6.0292 0.0043
-4 12 7 17.5536 0.2484
-4 12 8 13.1167 -0.0030
-4 12 9 -18.8147 -0.0131
-4 12 10 -13.2377 0.1489
-4 12 11 17.2830 -0.0730
-4 12 12 5.3739 -0.3141
-4 12 13 -15.0212 0.1045
-4 12 14 4.6494 0.3476
-4 12 15 13.9907 -0.1300
-4 12 16 -9.4417 -0.2312
-4 12 17 -13.7582 0.0520
-4 12 18 6.7876 0.0847
-4 12 19 12.9645 0.0557
-4 12 20 -0.2109 0.0290
-4 12 21 -11.0298 -0.0178
-4 12 22 -4.9556 -0.1491
-4 12 23 7.7954 -0.0684
-4 12 24 6.0345 0.1960
-4 12 25 -3.6994 0.0156
-4 12 26 -4.7601 -0.0266
-4 12 27 0.5875 0.0860
-4 12 28 4.1732 -0.1998
-4 12 29 -0.2946 -0.1272
-4 12 30 -4.7284 0.1768
-4 12 31 2.2364 0.2042
-4 12 32 5.1848 -0.0226
-4 12 33 -3.9013 -0.2184
-4 12 34 -5.2671 0.0754
-4 12 35 3.8048 -0.1183
-4 12 36 5.0245 -0.1781
-4 12 37 -2.8378 0.5961
-4 12 38 -3.8031 -0.0304
-4 12 39 2.4014 -0.6404
-4 12 40 1.8791 0.2593
-4 12 41 -2.2664 0.3122
-4 12 42 -0.9093 0.0516
-4 12 43 1.4784 -0.2285
-4 12 44 1.5394 -0.6864
-4 12 45 -0.6473 0.3856
-4 12 46 -2.4335 0.9569
-4 12 47 1.1449 -0.0814
-4 12 48 2.0966 -0.8185
-4 12 49 -2.2648 -0.8836
-4 12 50 -0.4739 0.7893
-4 12 51 1.9270 1.8072
-4 12 52 -1.0606 -1.0003
-4 14 1 12.1298 0.3023
-4 14 2 7.8585 0.1944
-4 14 3 -15.9997 -0.1551
-4 14 4 -6.8840 -0.1757
-4 14 5 14.5753 -0.0519
-4 14 6 3.8875 -0.0488
-4 14 7 -7.9614 0.1558
-4 14 8 -2.0324 0.2421
-4 14 9 1.7729 -0.1079
-4 14 10 3.4705 -0.1618
-4 14 11 -2.4035 -0.0433
-4 14 12 -6.8567 -0.0048
-4 14 13 8.7414 0.1794
-4 14 14 8.9190 -0.0183
-4 14 15 -13.6154 -0.1615
-4 14 16 -8.0860 0.1002
-4 14 17 12.5291 -0.0045
-4 14 18 5.6031 -0.0227
-4 14 19 -7.3310 0.1389
-4 14 20 -3.2939 -0.0834
-4 14 21 2.7777 -0.1254
-4 14 22 1.4272 0.0602
-4 14 23 -1.8074 0.0035
-4 14 24 0.8876 -0.0174
-4 14 25 3.1777 0.1798
-4 14 26 -3.8493 -0.0048
-4 14 27 -3.2613 -0.3270
-4 14 28 6.0571 0.1021
-4 14 29 0.4774 0.2323
-4 14 30 -5.9424 -0.1233
-4 14 31 3.4456 0.0548
-4 14 32 4.0889 -0.0876
-4 14 33 -6.5401 -0.1154
-4 14 34 -2.7555 0.1681
-4 14 35 8.4172 -0.1405
-4 14 36 2.5815 0.2240
-4 14 37 -9.1265 0.1938
-4 14 38 -1.9265 -0.6349
-4 14 39 8.6221 0.1578
-4 14 40 0.3690 0.4712
-4 14 41 -7.2306 -0.3523
-4 14 42 0.1998 0.0173
-4 14 43 5.3942 0.1445
-4 14 44 0.6022 -0.3306
-4 14 45 -3.5310 -0.2442
-4 14 46 -0.3354 0.6959
-4 14 47 2.1361 1.1684
-4 14 48 -1.8813 -1.4830
-4 14 49 -1.0718 -2.2728
-4 14 50 3.3219 2.2214
-4 16 1 2.1318 -0.1773
-4 16 2 -5.4536 0.2450
-4 16 3 -4.5240 0.2062
-4 16 4 10.7526 -0.1478
-4 16 5 0.8496 -0.2493
-4 16 6 -13.1654 -0.0320
-4 16 7 5.4838 0.2679
-4 16 8 11.8191 0.1250
-4 16 9 -8.5535 -0.0565
-4 16 10 -9.5928 -0.0844
-4 16 11 6.4284 -0.2836
-4 16 12 8.4563 0.0551
-4 16 13 -2.9695 0.3520
-4 16 14 -7.1409 -0.1033
-4 16 15 2.0657 -0.0906
-4 16 16 4.6148 0.1094
-4 16 17 -2.9125 -0.1399
-4 16 18 -1.9931 -0.0290
-4 16 19 2.7254 0.1738
-4 16 20 0.4863 -0.0423
-4 16 21 -1.1427 -0.1332
-4 16 22 -0.2027 0.0963
-4 16 23 -0.0169 0.0177
-4 16 24 0.6662 -0.1646
-4 16 25 -0.6463 0.1701
-4 16 26 -0.9490 0.1501
-4 16 27 2.7677 -0.1685
-4 16 28 0.2359 -0.0458
-4 16 29 -4.4783 -0.0650
-4 16 30 1.0607 0.0389
-4 16 31 4.3839 0.1027
-4 16 32 -1.7687 -0.0857
-4 16 33 -3.3852 0.1717
-4 16 34 1.5397 -0.1248
-4 16 35 2.9383 -0.2454
-4 16 36 -1.1884 0.5178
-4 16 37 -2.3879 -0.0376
-4 16 38 1.6241 -0.6038
-4 16 39 0.6937 0.0992
-4 16 40 -2.6567 0.2802
-4 16 41 0.8611 0.2429
-4 16 42 3.0230 0.1329
-4 16 43 -0.9720 -0.3253
-4 16 44 -2.2069 -0.7035
-4 16 45 1.0734 -0.1597
-4 16 46 1.4771 1.7714
-4 16 47 -2.4365 0.5833
-4 16 48 -1.7306 -2.9765
-4 18 1 1.6022 0.3044
-4 18 2 -3.4952 -0.0372
-4 18 3 -2.8797 0.0438
-4 18 4 2.9512 0.2000
-4 18 5 2.0543 -0.3879
-4 18 6 -0.3168 -0.1593
-4 18 7 -0.8202 0.4354
-4 18 8 -1.4039 0.0584
-4 18 9 0.3818 -0.1187
-4 18 10 1.1630 -0.1069
-4 18 11 -0.9062 -0.2506
-4 18 12 -1.4775 0.1559
-4 18 13 2.4384 0.3107
-4 18 14 4.0766 0.0061
-4 18 15 -4.1558 -0.1041
-4 18 16 -5.9719 -0.2324
-4 18 17 4.6645 -0.1077
-4 18 18 3.7743 0.3117
-4 18 19 -4.1502 0.2560
-4 18 20 0.4970 -0.2912
-4 18 21 4.1195 -0.3121
-4 18 22 -2.2276 0.1888
-4 18 23 -4.6775 0.1174
-4 18 24 0.5103 0.0906
-4 18 25 4.2774 0.2243
-4 18 26 1.8381 -0.3450
-4 18 27 -2.2988 -0.2934
-4 18 28 -2.3663 0.2330
-4 18 29 -0.0653 0.0311
-4 18 30 0.9497 0.0772
-4 18 31 1.7437 0.1528
-4 18 32 0.6051 -0.1571
-4 18 33 -3.1173 -0.1313
-4 18 34 -0.4549 0.1301
-4 18 35 4.7848 0.1610
-4 18 36 -0.8264 -0.3782
-4 18 37 -6.0531 -0.1778
-4 18 38 1.1050 0.6928
-4 18 39 5.8930 -0.1454
-4 18 40 -0.2420 -0.7201
-4 18 41 -4.7648 0.6589
-4 18 42 -0.1521 0.9058
-4 18 43 3.8121 -0.8855
-4 18 44 0.1456 -1.8597
-4 18 45 -2.8625 0.7938
-4 20 1 -2.2834 -0.1107
-4 20 2 -2.1105 0.1532
-4 20 3 1.1462 0.2368
-4 20 4 3.8912 -0.2590
-4 20 5 -0.1065 -0.1339
-4 20 6 -5.0484 0.2094
-4 20 7 0.5003 -0.2061
-4 20 8 6.0627 0.0100
-4 20 9 -1.7665 0.4537
-4 20 10 -5.8578 -0.2779
-4 20 11 1.6046 -0.4161
-4 20 12 3.9765 0.3040
-4 20 13 0.9999 0.2252
-4 20 14 -1.5063 -0.0421
-4 20 15 -2.8185 -0.0008
-4 20 16 -0.1242 -0.1972
-4 20 17 0.3297 -0.2367
-4 20 18 0.1349 0.2755
-4 20 19 3.7401 0.3403
-4 20 20 1.2483 -0.3413
-4 20 21 -3.3431 -0.1809
-4 20 22 -2.6565 0.3348
-4 20 23 -1.7649 -0.0714
-4 20 24 2.4581 -0.0925
-4 20 25 5.5956 0.2055
-4 20 26 -0.5000 -0.1114
-4 20 27 -4.2390 -0.2706
-4 20 28 -1.4227 -0.0358
-4 20 29 -0.2234 0.2789
-4 20 30 1.6082 0.1632
-4 20 31 3.4199 -0.0379
-4 20 32 -0.7671 0.1983
-4 20 33 -3.0011 -0.3601
-4 20 34 1.1189 -0.6872
-4 20 35 0.1175 0.4339
-4 20 36 -3.1155 0.7230
-4 20 37 2.0494 -0.0566
-4 20 38 4.8564 -0.5490
-4 20 39 -2.0264 -0.3410
-4 20 40 -5.0987 0.6983
-4 20 41 1.4123 0.6095
-4 20 43 -1.5567 -1.1500
-4 20 44 -3.8010 0.6124
-4 22 1 -1.5145 0.5112
-4 22 2 2.2969 -0.0450
-4 22 3 0.2740 -0.0919
-4 22 4 -1.5565 0.0325
-4 22 5 -0.0900 -0.4094
-4 22 6 0.6784 -0.0530
-4 22 7 1.7962 0.5431
-4 22 8 0.3908 0.1077
-4 22 9 -3.3050 -0.3221
-4 22 10 -1.3575 -0.1257
-4 22 11 2.4704 -0.0532
-4 22 12 2.0638 0.0753
-4 22 13 0.0147 0.3931
-4 22 14 -1.7481 0.0573
-4 22 15 -1.5470 -0.3905
-4 22 16 -0.5997 -0.2322
-4 22 17 0.8800 -0.0652
-4 22 18 3.1199 0.2442
-4 22 19 0.4578 0.5439
-4 22 20 -1.7783 0.0932
-4 22 21 -0.4251 -0.6206
-4 22 22 -3.3256 -0.5906
-4 22 23 -0.8198 0.4212
-4 22 24 6.5957 0.7965
-4 22 25 1.5581 -0.1523
-4 22 26 -4.2509 -0.5153
-4 22 27 -0.8401 -0.2350
-4 22 28 -1.1500 -0.0405
-4 22 29 -0.9540 0.4561
-4 22 30 4.9189 0.5590
-4 22 31 2.6055 0.0529
-4 22 32 -5.1146 -0.8102
-4 22 33 -2.4402 -0.9794
-4 22 34 2.6967 0.6626
-4 22 35 -0.0407 1.1250
-4 22 36 0.0201 -0.2469
-4 22 37 2.8481 -0.0940
-4 22 38 -1.0769 -0.0615
-4 22 39 -3.7539 -1.0595
-4 22 40 0.6498 0.1104
-4 22 41 3.0323 1.3473
-4 24 1 1.2419 -0.0883
-4 24 2 -0.5144 -0.1786
-4 24 3 -0.4937 0.0771
-4 24 4 1.7449 -0.4859
-4 24 5 -0.6601 -0.0069
-4 24 6 -1.6021 0.6147
-4 24 7 2.6553 -0.1010
-4 24 8 1.0878 -0.1101
-4 24 9 -4.2486 0.1106
-4 24 10 -1.1184 -0.4744
-4 24 11 3.8748 0.0239
-4 24 12 1.4435 0.6640
-4 24 13 -1.7336 -0.1105
-4 24 14 -1.0476 -0.3271
-4 24 15 -0.8784 -0.0102
-4 24 16 -0.3699 -0.3654
-4 24 17 2.5593 0.1552
-4 24 18 1.3251 0.8661
-4 24 19 -1.9755 -0.0295
-4 24 20 -0.1890 -0.6668
-4 24 21 -0.5467 -0.2760
-4 24 22 -1.9537 0.0030
-4 24 23 2.3078 0.3048
-4 24 24 2.3913 0.4528
-4 24 25 -1.4747 0.1975
-4 24 26 -0.7479 -0.5188
-4 24 27 -0.5250 -0.9186
-4 24 28 -1.0575 0.3862
-4 24 29 1.7062 1.2116
-4 24 30 2.1346 0.0574
-4 24 31 -2.1319 -0.6199
-4 24 32 -2.5943 -0.8148
-4 24 33 2.2943 -0.7118
-4 24 34 1.6562 1.1329
-4 24 35 -1.7806 2.0251
-4 24 36 0.8429 -0.3457
-4 26 1 -3.6946 0.0476
-4 26 2 2.4654 -0.1607
-4 26 3 5.3293 -0.3621
-4 26 4 -3.7857 -0.1144
-4 26 5 -7.0552 0.2364
-4 26 6 3.4426 0.2663
-4 26 7 9.0774 0.3879
-4 26 8 -2.4882 -0.2433
-4 26 9 -10.0625 -0.9207
-4 26 10 1.2939 0.3069
-4 26 11 8.5896 0.8016
-4 26 12 0.1728 -0.4603
-4 26 13 -5.0792 -0.0488
-4 26 14 -1.6609 0.3720
-4 26 15 1.1987 -0.8265
-4 26 16 2.7070 0.0405
-4 26 17 1.5091 1.1130
-4 26 18 -2.7692 -0.4423
-4 26 19 -2.1230 -0.3901
-4 26 20 1.7240 0.6130
-4 26 21 1.2435 -0.8497
-4 26 22 -0.3413 -0.7215
-4 26 23 -0.6932 1.4752
-4 26 24 -0.6779 0.9461
-4 26 25 0.6893 -0.9762
-4 26 26 1.6636 -1.1424
-4 26 27 0.3762 -0.0861
-4 26 28 -2.7830 0.9936
-4 26 29 -2.0092 1.0500
-4 26 30 3.0168 -0.3010
-4 28 1 1.2302 -0.8302
-4 28 2 2.8795 -0.1875
-4 28 3 -2.3735 0.5422
-4 28 4 -3.8791 0.0849
-4 28 5 -0.8730 0.0157
-4 28 6 5.2809 -0.1113
-4 28 7 5.7633 -0.1391
-4 28 8 -6.3639 0.2893
-4 28 9 -8.0491 -0.2044
-4 28 10 5.7363 -0.4638
-4 28 11 6.2844 0.4937
-4 28 12 -3.3857 0.5459
-4 28 13 -2.7182 -0.4288
-4 28 14 0.6633 -0.6129
-4 28 15 0.2122 0.0615
-4 28 16 1.5435 0.5711
-4 28 17 0.7869 0.5473
-4 28 18 -2.8722 -0.0545
-4 28 19 -1.6424 -1.2663
-4 28 20 3.0418 -0.9003
-4 28 21 3.0035 1.7041
-4 28 22 -2.6168 1.4828
-4 28 23 -4.2400 -1.5395
-4 28 24 2.1929 -1.0346
-4 28 25 4.7102 0.9398
-4 28 26 -0.8955 -0.0602
-4 28 27 -4.2610 -0.3808
-4 30 1 7.2190 0.2275
-4 30 2 -1.4790 0.9498
-4 30 3 -6.7336 -0.7276
-4 30 4 0.3027 0.1120
-4 30 5 4.5251 0.5735
-4 30 6 3.0205 -1.6803
-4 30 7 -1.7910 0.3908
-4 30 8 -5.3397 2.1439
-4 30 9 -0.3252 -1.2087
-4 30 10 4.1825 -1.0552
-4 30 11 1.1166 0.9395
-4 30 12 -0.7952 -0.4947
-4 30 13 -0.5275 0.1390
-4 30 14 -1.5722 1.0558
-4 30 15 -0.2672 -1.0194
-4 30 16 2.0016 -0.0167
-4 30 17 0.1655 1.3390
-4 30 18 -2.2613 -2.0433
-4 30 19 0.1381 -1.4747
-4 30 20 3.3103 3.8150
-4 32 1 -1.2209 0.4547
-4 32 2 -7.1691 -0.1638
-4 32 3 1.9007 -0.1914
-4 32 4 6.3991 0.9412
-4 32 5 -2.6027 -2.0164
-3 1 1 59.9078 -0.8476
-3 1 2 100.5613 -1.7681
-3 1 3 -17.0903 -0.3405
-3 1 4 -29.9459 -0.1715
-3 1 5 -6.8893 1.5164
-3 1 6 18.0879 1.3580
-3 1 7 -18.0839 -1.8100
-3 1 8 -64.9331 -0.8884
-3 1 9 56.5115 1.3781
-3 1 10 95.1726 -0.4608
-3 1 11 -60.6840 -0.6204
-3 1 12 -66.7250 1.2874
-3 1 13 33.4112 -0.0593
-3 1 14 17.4692 -1.0072
-3 1 15 -11.5067 0.2321
-3 1 16 1.9090 0.1101
-3 1 17 10.8788 0.1255
-3 1 18 9.8992 0.5266
-3 1 19 -17.8759 -0.4943
-3 1 20 -25.1675 -0.3679
-3 1 21 19.6471 0.4337
-3 1 22 28.9783 -0.3577
-3 1 23 -16.2528 -0.0968
-3 1 24 -22.6104 0.8744
-3 1 25 10.4190 -0.0218
-3 1 26 11.1752 -0.7035
-3 1 27 -3.6696 -0.2809
-3 1 28 -1.1564 0.1553
-3 1 29 -1.4917 0.6636
-3 1 30 -2.9911 0.1558
-3 1 31 4.4294 -0.7112
-3 1 32 3.4277 0.0074
-3 1 33 -6.9186 0.4904
-3 1 34 -3.5727 -0.3981
-3 1 35 8.6655 -0.3127
-3 1 36 2.8210 0.5833
-3 1 37 -8.1083 0.1841
-3 1 38 -1.1469 -0.3573
-3 1 39 6.5957 -0.0063
-3 1 40 1.0421 -0.0068
-3 1 41 -6.0008 -0.0282
-3 1 42 -1.8841 0.1219
-3 1 43 4.9321 -0.1586
-3 1 44 0.4008 -0.0408
-3 1 45 -1.9803 0.2486
-3 1 46 2.5382 -0.0105
-3 1 47 -0.9398 -0.2269
-3 1 48 -2.9879 0.1864
-3 1 49 1.8837 0.5670
-3 1 50 0.9039 -0.5706
-3 1 51 -1.7633 -1.1332
-3 1 52 0.2049 0.5657
-3 1 53 1.8438 0.9368
-3 1 54 0.8364 0.2962
-3 1 55 -1.6839 0.3549
-3 1 56 -1.9918 -1.3432
-3 3 2 57.6066 0.1916
-3 3 3 -68.6036 -0.5801
-3 3 4 -65.6102 0.0858
-3 3 5 12.9154 0.9248
-3 3 6 57.3729 -0.1638
-3 3 7 -9.7450 -0.5133
-3 3 8 -37.7988 0.1924
-3 3 9 35.9079 -0.3225
-3 3 10 22.3779 -0.2506
-3 3 11 -39.0595 0.7020
-3 3 12 -14.7728 0.1427
-3 3 13 15.3544 -0.2584
-3 3 14 7.0691 0.0902
-3 3 15 1.0068 -0.5951
-3 3 16 2.1313 -0.1358
-3 3 17 2.4422 1.1955
-3 3 18 -5.1671 -0.0982
-3 3 19 -9.4237 -1.1083
-3 3 20 -0.0454 0.3674
-3 3 21 10.0903 0.3926
-3 3 22 5.8820 -0.4130
-3 3 23 -8.6662 0.3287
-3 3 24 -6.2763 0.2284
-3 3 25 7.1017 -0.3856
-3 3 26 2.7341 -0.0330
-3 3 27 -4.1718 -0.1804
-3 3 28 0.8087 -0.0284
-3 3 29 2.0243 0.6894
-3 3 30 -2.0888 0.0594
-3 3 31 -1.5628 -0.6662
-3 3 32 0.2963 -0.1191
-3 3 33 0.3476 0.2696
-3 3 34 3.2471 0.0401
-3 3 35 0.9996 0.0681
-3 3 36 -5.3883 0.1899
-3 3 37 0.1907 -0.1218
-3 3 38 4.8183 -0.3066
-3 3 39 -2.1788 -0.0054
-3 3 40 -3.4556 0.2722
-3 3 41 1.9657 0.1252
-3 3 42 3.0612 -0.2947
-3 3 43 -1.1387 -0.2673
-3 3 44 -3.1682 0.2558
-3 3 45 1.8754 0.5203
-3 3 46 2.8578 0.0744
-3 3 47 -2.3227 -0.6145
-3 3 48 -2.0636 -0.3639
-3 3 49 0.7478 0.2249
-3 3 50 1.0136 0.2570
-3 3 51 0.9558 0.2678
-3 3 52 -0.1399 -0.2776
-3 3 53 -0.8993 -0.1236
-3 3 54 0.1009 1.0218
-3 3 55 -0.0048 -0.5248
-3 3 56 -0.8243 -1.8707
-3 5 1 66.5362 0.0239
-3 5 3 -69.8974 0.1602
-3 5 4 29.5504 -0.1670
-3 5 5 54.6953 -0.1037
-3 5 6 0.0231 0.3155
-3 5 7 -31.7501 -0.0773
-3 5 8 -6.2535 -0.6350
-3 5 9 15.3405 0.1369
-3 5 10 3.4674 0.7081
-3 5 11 -6.9720 -0.1358
-3 5 12 -4.6906 -0.3152
-3 5 13 -0.6016 0.2092
-3 5 14 3.4590 -0.2407
-3 5 15 9.5772 -0.2840
-3 5 16 2.6731 0.5163
-3 5 17 -14.6703 0.2179
-3 5 18 -2.7658 -0.3361
-3 5 19 11.6743 0.0300
-3 5 20 -5.4234 -0.1582
-3 5 21 -3.0210 -0.3355
-3 5 22 9.8247 0.5651
-3 5 23 -4.8142 0.4190
-3 5 24 -4.9139 -0.4716
-3 5 25 6.9528 -0.1272
-3 5 26 -2.1814 -0.0359
-3 5 27 -3.3898 -0.3184
-3 5 28 6.0273 0.3344
-3 5 29 -1.9620 0.5938
-3 5 30 -7.0149 -0.0433
-3 5 31 5.0736 -0.5989
-3 5 32 4.8388 -0.4490
-3 5 33 -4.8898 0.3510
-3 5 34 -0.1457 0.5265
-3 5 35 3.1699 0.0623
-3 5 36 -2.5272 -0.1334
-3 5 37 -1.9262 -0.3526
-3 5 38 1.1209 -0.2525
-3 5 39 1.4044 0.3285
-3 5 40 0.8022 0.2609
-3 5 41 -0.5304 -0.2050
-3 5 42 -0.7626 -0.0315
-3 5 43 -1.2028 0.1559
-3 5 44 0.4339 -0.0602
-3 5 45 2.9975 0.0118
-3 5 46 -0.9820 -0.0052
-3 5 47 -3.8180 -0.2815
-3 5 48 1.4446 -0.1358
-3 5 49 3.4525 0.2793
-3 5 50 -1.5435 0.5243
-3 5 51 -2.3840 -0.1442
-3 5 52 1.7838 -0.6359
-3 5 53 1.1637 0.5317
-3 5 54 -1.7939 0.2321
-3 5 55 -0.1238 -1.3155
-3 5 56 1.0948 0.1183
-3 7 1 -13.3534 0.5498
-3 7 2 -7.3042 0.2981
-3 7 3 5.6610 -0.0835
-3 7 4 7.8324 -0.2604
-3 7 5 7.5132 -0.3816
-3 7 6 7.9369 0.1077
-3 7 7 -15.8946 0.4318
-3 7 9 20.5459 -0.1541
-3 7 10 28.8419 0.2241
-3 7 11 -25.5379 -0.0426
-3 7 12 -24.9917 -0.2770
-3 7 13 25.9930 0.0092
-3 7 14 20.1041 0.1820
-3 7 15 -18.2295 0.0285
-3 7 16 -17.6108 -0.0262
-3 7 17 10.6216 0.1383
-3 7 18 16.0394 -0.0309
-3 7 19 -10.9128 -0.4298
-3 7 20 -11.7229 -0.1282
-3 7 21 13.5987 0.5412
-3 7 22 3.4647 0.3496
-3 7 23 -10.7308 -0.2151
-3 7 24 4.5330 -0.3195
-3 7 25 4.1948 -0.3851
-3 7 26 -7.1556 0.0720
-3 7 27 0.6578 0.6549
-3 7 28 4.5551 0.0233
-3 7 29 -2.9234 -0.2395
-3 7 30 -0.6259 0.1350
-3 7 31 2.7804 -0.3760
-3 7 32 -2.2923 -0.2916
-3 7 33 0.2435 0.4129
-3 7 34 4.0639 0.2990
-3 7 35 -3.4631 0.1582
-3 7 36 -4.6566 -0.1771
-3 7 37 3.2080 -0.5971
-3 7 38 4.0301 -0.0651
-3 7 39 -0.5442 0.3802
-3 7 40 -2.6282 0.2735
-3 7 41 -0.9075 0.2180
-3 7 42 0.9579 -0.2127
-3 7 43 0.6972 -0.5833
-3 7 44 0.4160 -0.0128
-3 7 45 -0.7617 0.5122
-3 7 46 -0.8503 0.1576
-3 7 47 1.6268 -0.3144
-3 7 48 0.3873 -0.3828
-3 7 49 -2.4428 0.2145
-3 7 50 0.2351 0.8652
-3 7 51 2.7600 0.0530
-3 7 52 -0.6620 -1.1645
-3 7 53 -2.6946 -0.7409
-3 7 54 1.1336 0.8582
-3 7 55 2.4266 1.4234
-3 9 1 23.3488 0.2503
-3 9 2 1.5223 0.0599
-3 9 3 -10.2325 0.0477
-3 9 4 5.4898 -0.3350
-3 9 5 1.9244 -0.3854
-3 9 6 -7.8374 0.4180
-3 9 7 0.3033 0.3958
-3 9 8 8.6233 -0.1669
-3 9 9 -2.5436 -0.0811
-3 9 10 -12.5736 -0.1552
-3 9 12 16.4056 0.2212
-3 9 13 -9.4874 0.1680
-3 9 14 -13.1406 -0.0454
-3 9 15 11.2774 0.0494
-3 9 16 4.2162 -0.1017
-3 9 17 -11.4183 -0.2353
-3 9 18 1.8629 0.0412
-3 9 19 10.1425 0.1938
-3 9 20 -1.7081 0.1436
-3 9 21 -9.1706 0.0303
-3 9 22 -0.7425 -0.1824
-3 9 23 9.2431 -0.1359
-3 9 24 2.4838 -0.0877
-3 9 25 -8.8940 0.0370
-3 9 26 -3.9806 0.4208
-3 9 27 7.6088 -0.0662
-3 9 28 5.1882 -0.3789
-3 9 29 -6.5336 0.3417
-3 9 30 -5.4352 -0.0198
-3 9 31 5.5916 -0.4411
-3 9 32 5.5643 0.2413
-3 9 33 -3.8286 0.1173
-3 9 34 -6.0502 -0.0337
-3 9 35 1.9019 0.2678
-3 9 36 5.3627 -0.1656
-3 9 37 -0.9187 -0.3621
-3 9 38 -2.8335 -0.0764
-3 9 39 0.3878 0.2345
-3 9 40 0.4648 0.5157
-3 9 41 0.4197 -0.0284
-3 9 42 -0.1021 -0.6205
-3 9 43 -1.0718 -0.1596
-3 9 44 1.0496 0.3226
-3 9 45 1.1577 0.1284
-3 9 46 -1.5656 -0.0062
-3 9 47 -1.0423 0.1379
-3 9 48 1.1362 -0.1297
-3 9 49 1.0559 -0.3088
-3 9 50 -0.5100 0.3804
-3 9 51 -1.1004 0.2463
-3 9 52 0.2139 -1.0679
-3 9 53 0.9089 -0.2057
-3 9 54 0.1704 1.8946
-3 11 1 19.2166 -0.0959
-3 11 2 0.1927 0.1325
-3 11 3 -15.3946 0.1486
-3 11 4 -11.7331 -0.2718
-3 11 5 10.8885 -0.1646
-3 11 6 23.8492 0.2398
-3 11 7 -7.6118 0.2290
-3 11 8 -34.3991 0.0217
-3 11 9 4.1259 -0.2956
-3 11 10 40.3790 -0.2364
-3 11 11 -1.8410 0.2245
-3 11 12 -39.2040 0.1822
-3 11 13 4.3593 -0.0095
-3 11 14 33.8980 0.0367
-3 11 15 -11.0687 -0.1962
-3 11 16 -29.4779 -0.1965
-3 11 17 16.4769 0.2426
-3 11 18 26.5397 0.1482
-3 11 19 -16.8347 -0.0658
-3 11 20 -22.7317 0.0962
-3 11 21 13.6213 -0.2591
-3 11 22 17.1582 -0.2553
-3 11 23 -9.6945 0.4698
-3 11 24 -10.9605 0.0563
-3 11 25 5.7577 -0.3533
-3 11 26 6.2316 0.2846
-3 11 27 -2.0161 0.0849
-3 11 28 -4.5923 -0.3528
-3 11 29 -0.0597 -0.0238
-3 11 30 5.2215 0.2420
-3 11 31 -0.1727 0.1715
-3 11 32 -5.6712 -0.2984
-3 11 33 0.9221 -0.2347
-3 11 34 5.0676 0.3831
-3 11 35 -0.5139 0.1779
-3 11 36 -4.2069 -0.1585
-3 11 37 -0.1543 -0.2043
-3 11 38 3.1005 -0.2151
-3 11 39 -0.3281 0.2241
-3 11 40 -1.1721 0.4040
-3 11 41 0.9016 0.0820
-3 11 42 -0.9108 -0.4659
-3 11 43 0.5233 -0.6278
-3 11 44 1.7400 0.4641
-3 11 45 -3.4969 0.8774
-3 11 46 -0.8908 -0.0785
-3 11 47 5.2911 -0.5645
-3 11 48 -0.6743 -0.8538
-3 11 49 -4.5375 0.0856
-3 11 50 1.4799 1.9066
-3 11 51 2.5615 -0.0116
-3 11 52 -1.0762 -2.4952
-3 11 53 -1.0247 0.3827
-3 13 1 3.0853 0.0794
-3 13 2 -20.7052 0.0852
-3 13 3 -7.6598 0.0698
-3 13 4 19.3706 0.0011
-3 13 5 13.3666 -0.1958
-3 13 6 -13.4058 -0.0936
-3 13 7 -20.4339 0.3490
-3 13 8 4.9866 0.0940
-3 13 9 26.6447 -0.3763
-3 13 10 0.9323 -0.0226
-3 13 11 -26.6795 0.1560
-3 13 12 0.0707 -0.0846
-3 13 13 19.9410 0.1197
-3 13 14 -6.0563 0.2072
-3 13 15 -12.6814 -0.2150
-3 13 16 10.7540 -0.2582
-3 13 17 9.9521 0.1217
-3 13 18 -11.0811 0.1675
-3 13 19 -10.4408 0.0943
-3 13 20 9.4281 -0.0290
-3 13 21 10.0574 -0.3226
-3 13 22 -8.9835 -0.0405
-3 13 23 -6.7688 0.3116
-3 13 24 9.5697 0.0927
-3 13 25 1.7238 -0.0119
-3 13 26 -8.9688 -0.1669
-3 13 27 2.2070 -0.1921
-3 13 28 6.9380 0.1173
-3 13 29 -3.1303 0.0530
-3 13 30 -5.6567 0.0815
-3 13 31 1.8527 0.1520
-3 13 32 5.8622 -0.1380
-3 13 33 -0.4795 -0.1967
-3 13 34 -5.4707 -0.0903
-3 13 35 -0.0551 0.2340
-3 13 36 3.5323 0.2789
-3 13 37 0.2796 -0.2453
-3 13 38 -2.1878 -0.1807
-3 13 39 -0.7016 -0.0267
-3 13 40 2.5138 0.0838
-3 13 41 0.8448 0.3803
-3 13 42 -2.0083 -0.2544
-3 13 43 -0.0361 -0.3047
-3 13 44 -1.1678 0.3099
-3 13 45 -1.0192 -0.0318
-3 13 46 4.6818 0.3039
-3 13 47 0.7628 -0.1310
-3 13 48 -5.3147 -1.4240
-3 13 49 0.5546 0.9418
-3 13 50 3.2413 2.2221
-3 13 51 -0.8543 -1.6083
-3 13 52 -1.0283 -2.1176
-3 15 1 -5.8523 0.0661
-3 15 2 -4.6354 0.2197
-3 15 3 8.2046 -0.0846
-3 15 4 3.6759 -0.1367
-3 15 5 -5.2450 -0.0727
-3 15 6 0.0790 0.0045
-3 15 7 -2.4180 0.2056
-3 15 8 -3.2055 0.0882
-3 15 9 9.5620 -0.1812
-3 15 10 6.0355 -0.2358
-3 15 11 -9.8940 0.0180
-3 15 12 -10.5791 0.3615
-3 15 13 4.1834 0.1795
-3 15 14 15.4161 -0.3010
-3 15 15 0.4570 -0.2574
-3 15 16 -17.0436 0.1634
-3 15 17 0.0823 0.1079
-3 15 18 14.6224 -0.1364
-3 15 19 -2.9711 0.1716
-3 15 20 -10.4310 0.1531
-3 15 21 3.6294 -0.3480
-3 15 22 6.9876 -0.1400
-3 15 23 -1.1154 0.3343
-3 15 24 -5.4314 0.1844
-3 15 25 -1.7904 -0.2132
-3 15 26 5.3878 -0.1810
-3 15 27 2.2556 -0.0018
-3 15 28 -5.2759 -0.0947
-3 15 29 -0.7463 0.3076
-3 15 30 3.7593 0.4164
-3 15 31 -0.0616 -0.4510
-3 15 32 -1.4428 -0.3232
-3 15 33 -0.6412 0.1747
-3 15 34 0.0161 -0.1044
-3 15 35 1.3638 0.2683
-3 15 36 0.5547 0.4384
-3 15 37 -1.6033 -0.3664
-3 15 38 -2.1171 -0.6466
-3 15 39 2.0613 0.1185
-3 15 40 4.7373 0.8398
-3 15 41 -2.0640 0.0391
-3 15 42 -5.5506 -0.6851
-3 15 43 0.4193 -0.1072
-3 15 44 3.1707 -0.0494
-3 15 45 1.8481 0.6465
-3 15 46 -0.4829 0.7952
-3 15 47 -2.6982 -1.8147
-3 15 48 0.2825 -0.8600
-3 15 49 1.9902 2.8310
-3 15 50 -1.0426 0.4416
-3 17 1 -4.5173 0.3098
-3 17 2 -4.9784 -0.2309
-3 17 3 3.4704 -0.1134
-3 17 4 7.4333 0.1273
-3 17 5 2.4894 -0.2033
-3 17 6 -10.3144 -0.0285
-3 17 7 -9.5938 0.3205
-3 17 8 11.7737 0.0448
-3 17 9 13.8954 -0.2186
-3 17 10 -9.2166 -0.1068
-3 17 11 -15.0902 0.0336
-3 17 12 3.6902 0.0953
-3 17 13 14.7057 0.1828
-3 17 14 -0.1217 0.0187
-3 17 15 -13.2657 -0.2912
-3 17 16 0.7478 -0.1493
-3 17 17 10.5628 0.1295
-3 17 18 -2.6747 0.1484
-3 17 19 -7.0636 0.1079
-3 17 20 3.0594 0.0604
-3 17 21 3.7294 -0.1024
-3 17 22 -2.2178 -0.3387
-3 17 23 -1.2717 -0.0315
-3 17 24 1.3965 0.4296
-3 17 25 0.1499 0.0234
-3 17 26 -1.2008 -0.2800
-3 17 27 -0.1931 0.0001
-3 17 28 1.7904 0.1174
-3 17 29 0.0482 0.1093
-3 17 30 -2.4109 -0.0916
-3 17 31 1.3115 -0.0707
-3 17 32 1.8682 0.0631
-3 17 33 -2.6733 -0.2507
-3 17 34 -0.2597 0.0811
-3 17 35 2.5224 0.4348
-3 17 36 -1.2246 -0.1944
-3 17 37 -2.2117 -0.2455
-3 17 38 1.8890 0.2093
-3 17 39 3.8397 0.0210
-3 17 40 -1.6928 -0.3776
-3 17 41 -5.9517 0.1488
-3 17 42 0.9456 0.8210
-3 17 43 5.5993 -0.7411
-3 17 44 -0.4782 -1.1396
-3 17 45 -3.5557 1.8092
-3 17 46 0.7091 0.8932
-3 17 47 2.8061 -2.5279
-3 19 1 4.0536 0.0193
-3 19 2 -1.4274 0.1273
-3 19 3 -1.0502 -0.2654
-3 19 4 3.9146 -0.2862
-3 19 5 -1.1467 0.2775
-3 19 6 -5.6108 0.2180
-3 19 7 1.4768 -0.0529
-3 19 8 4.0755 0.0717
-3 19 9 -0.0593 -0.1522
-3 19 10 -0.2293 -0.3020
-3 19 11 -1.7284 0.1384
-3 19 12 -3.0142 0.3302
-3 19 13 1.5658 0.0534
-3 19 14 4.8621 -0.1771
-3 19 15 0.4891 -0.2132
-3 19 16 -7.2344 -0.1540
-3 19 17 -1.4567 0.1632
-3 19 18 10.7622 0.4643
-3 19 19 0.5132 0.0641
-3 19 20 -12.8061 -0.3826
-3 19 21 -0.5471 -0.2280
-3 19 22 11.0447 -0.0212
-3 19 23 2.6505 0.1057
-3 19 24 -6.7061 0.2168
-3 19 25 -3.8644 0.2567
-3 19 26 2.8100 -0.0635
-3 19 27 2.2700 -0.5536
-3 19 28 -1.3796 -0.0449
-3 19 29 0.1012 0.5215
-3 19 30 2.7508 -0.0154
-3 19 31 -0.8736 -0.2125
-3 19 32 -5.1264 0.0165
-3 19 33 0.3577 -0.0959
-3 19 34 5.4535 -0.0601
-3 19 35 -0.0139 0.2340
-3 19 36 -3.1967 0.3726
-3 19 37 0.2294 -0.2459
-3 19 38 1.3907 -0.5816
-3 19 39 -0.4207 0.1576
-3 19 40 -1.8912 0.2195
-3 19 41 0.3449 0.1649
-3 19 42 2.8701 0.2771
-3 19 43 -0.5436 -0.8069
-3 21 1 2.9647 0.2935
-3 21 2 -12.3089 -0.2457
-3 21 3 -1.3516 -0.1781
-3 21 4 11.4800 0.1544
-3 21 5 0.7665 -0.0621
-3 21 6 -9.3534 0.1265
-3 21 7 -2.8082 0.3010
-3 21 8 5.7314 -0.2752
-3 21 9 5.8626 -0.2726
-3 21 10 -1.7143 0.1640
-3 21 11 -6.7586 -0.0212
-3 21 12 -1.7184 0.0717
-3 21 13 5.0038 0.2644
-3 21 14 4.3006 -0.2344
-3 21 15 -3.9012 -0.3225
-3 21 16 -5.3670 0.2064
-3 21 17 5.5950 0.3038
-3 21 18 4.9751 -0.0323
-3 21 19 -6.7211 -0.1838
-3 21 20 -5.2221 -0.0825
-3 21 21 2.9742 -0.0507
-3 21 22 7.0996 -0.0251
-3 21 23 3.4384 0.1011
-3 21 24 -7.7018 0.2753
-3 21 25 -5.9217 0.1809
-3 21 26 4.2002 -0.4236
-3 21 27 1.9164 -0.4058
-3 21 28 1.1982 0.2849
-3 21 29 5.2365 0.2865
-3 21 30 -3.7942 0.1356
-3 21 31 -10.9518 -0.0983
-3 21 32 2.4404 -0.5946
-3 21 33 12.2904 0.0173
-3 21 34 -0.0388 0.7020
-3 21 35 -8.9019 0.2177
-3 21 36 -0.9364 -0.2802
-3 21 37 3.8592 -0.5227
-3 21 38 0.7643 -0.3500
-3 21 39 -0.9963 0.2610
-3 21 40 -0.6384 0.6742
-3 21 41 0.6620 0.7040
-3 21 42 0.7120 -0.6117
-3 21 43 -0.8019 -1.6056
-3 23 1 -3.4072 0.0304
-3 23 2 -8.4514 0.0388
-3 23 3 3.8697 -0.1716
-3 23 4 8.5776 -0.1645
-3 23 5 -2.8989 0.3540
-3 23 6 -8.6465 0.2239
-3 23 7 -0.0674 -0.2950
-3 23 8 7.8367 -0.0053
-3 23 9 3.5874 0.0133
-3 23 10 -5.5826 -0.4407
-3 23 11 -5.3172 0.2240
-3 23 12 2.4323 0.6603
-3 23 13 4.9777 -0.2912
-3 23 14 -0.0255 -0.3603
-3 23 15 -3.9907 0.2330
-3 23 16 -0.6372 -0.2023
-3 23 17 2.9568 -0.0871
-3 23 18 1.7488 0.6559
-3 23 19 -1.5735 -0.0773
-3 23 20 -6.5798 -0.8755
-3 23 21 0.0517 0.1381
-3 23 22 13.0723 0.7538
-3 23 23 1.2411 -0.0851
-3 23 24 -14.1297 -0.2338
-3 23 25 -2.5980 0.0221
-3 23 26 6.7782 -0.3235
-3 23 27 3.9843 -0.0048
-3 23 28 3.8336 0.4379
-3 23 29 -4.2905 0.0562
-3 23 30 -11.2584 -0.1258
-3 23 31 2.9451 -0.1845
-3 23 32 13.4145 -0.3571
-3 23 33 -1.2623 0.1547
-3 23 34 -11.0491 1.0235
-3 23 35 0.7915 0.4663
-3 23 36 6.1462 -1.7357
-3 23 37 -1.2283 -1.6721
-3 23 38 -2.0140 1.8389
-3 23 39 1.3157 2.6889
-3 25 1 -0.1642 0.1019
-3 25 2 0.7213 -0.2193
-3 25 3 1.3651 0.1281
-3 25 4 1.0357 0.2858
-3 25 5 -2.5023 -0.1812
-3 25 6 -2.0851 0.0571
-3 25 7 1.9864 0.0875
-3 25 8 2.0615 -0.5725
-3 25 9 -0.4075 -0.0587
-3 25 10 -1.2423 0.6937
-3 25 11 -0.2277 0.0756
-3 25 12 0.3221 -0.2915
-3 25 13 -0.6802 0.0352
-3 25 14 -0.1790 -0.1937
-3 25 15 2.0301 -0.2274
-3 25 16 0.5224 0.3718
-3 25 17 -2.3298 0.3182
-3 25 18 0.4983 -0.2136
-3 25 19 0.3305 -0.2644
-3 25 20 -3.8420 -0.1433
-3 25 21 3.3236 0.0485
-3 25 22 7.4072 0.4720
-3 25 23 -5.3064 0.3703
-3 25 24 -8.1786 -0.4830
-3 25 25 3.5763 -0.7285
-3 25 26 6.0332 0.1046
-3 25 27 -0.6088 0.5599
-3 25 28 -3.4106 0.3965
-3 25 29 -0.5994 0.1824
-3 25 30 1.9030 -0.6868
-3 25 31 0.7641 -1.1474
-3 25 32 -1.4027 0.5296
-3 25 33 -1.3361 2.1750
-3 25 34 1.6976 0.2329
-3 27 1 1.7353 -0.2567
-3 27 2 -2.1864 0.0019
-3 27 3 1.2597 0.5553
-3 27 4 2.0043 -0.1875
-3 27 5 -1.0902 -0.3405
-3 27 6 -1.8045 0.2290
-3 27 7 -2.6733 -0.3030
-3 27 8 2.2536 -0.1490
-3 27 9 6.4785 0.6514
-3 27 10 -2.6248 0.0155
-3 27 11 -6.8734 -0.2773
-3 27 12 2.4183 0.1201
-3 27 13 3.8151 -0.3750
-3 27 14 -2.2489 -0.1377
-3 27 15 0.1465 0.6308
-3 27 16 2.1959 -0.0057
-3 27 17 -2.3866 -0.3666
-3 27 18 -1.5311 0.1534
-3 27 19 1.7817 -0.0754
-3 27 20 0.2627 -0.2449
-3 27 21 0.3964 0.2997
-3 27 22 0.8502 0.4398
-3 27 23 -1.3386 -0.0179
-3 27 24 -0.9781 -0.6106
-3 27 25 0.0865 -0.8043
-3 27 26 -0.8881 0.2078
-3 27 27 1.1618 1.8284
-3 27 28 4.5614 0.8948
-3 27 29 -0.6798 -2.5509
-3 27 30 -7.1901 -1.9921
-3 29 1 5.7251 -0.1925
-3 29 2 4.5181 -0.2310
-3 29 3 -5.1446 0.3287
-3 29 4 -4.0244 0.3846
-3 29 5 6.3992 -0.3054
-3 29 6 -0.1647 -0.3414
-3 29 7 -8.5351 0.1119
-3 29 8 4.9277 0.0637
-3 29 9 9.5158 0.1155
-3 29 10 -6.1900 0.2601
-3 29 11 -7.9101 -0.2192
-3 29 12 3.6031 -0.2064
-3 29 13 3.7693 0.2545
-3 29 14 -0.4099 -0.4117
-3 29 15 0.9296 -0.2625
-3 29 16 -1.0298 1.1752
-3 29 17 -3.4310 -0.0481
-3 29 18 1.0010 -1.4253
-3 29 19 2.8185 0.8727
-3 29 20 -0.5930 0.8548
-3 29 21 -0.6997 -1.7178
-3 29 22 0.7182 0.3716
-3 29 23 -0.7982 1.9243
-3 29 24 -1.7878 -1.7746
-3 29 25 0.5904 -1.6654
-3 29 26 2.6946 2.7694
-3 31 1 1.1174 -0.6014
-3 31 2 -1.0021 -0.2669
-3 31 3 -1.4252 1.4629
-3 31 4 3.4272 0.2411
-3 31 5 0.9055 -1.2997
-3 31 6 -6.8643 0.3038
-3 31 7 -0.1835 0.0370
-3 31 8 9.8266 -0.9399
-3 31 9 0.7393 1.2646
-3 31 10 -10.4628 1.1615
-3 31 11 -2.6207 -1.3837
-3 31 12 8.1326 -0.7574
-3 31 13 3.5134 0.1486
-3 31 14 -4.3556 -0.0417
-3 31 15 -2.0957 1.4440
-3 31 16 1.5348 0.5276
-3 31 17 0.1258 -2.2828
-2 0 2 155.8833 11.4375
-2 0 4 -255.8835 -11.2433
-2 0 6 222.4946 7.5427
-2 0 8 -58.3361 -2.7923
-2 0 12 116.2503 0.9829
-2 0 14 -48.1774 0.2906
-2 0 16 -14.6736 -1.4801
-2 0 18 30.1939 1.4487
-2 0 20 -19.8123 -0.6228
-2 0 22 9.4772 0.0572
-2 0 24 -6.1773 -0.1514
-2 0 26 8.4650 0.4987
-2 0 28 -11.8189 -0.6462
-2 0 30 11.9657 0.5973
-2 0 32 -10.5736 -0.5978
-2 0 34 10.8500 0.7070
-2 0 36 -11.0494 -0.7266
-2 0 38 9.5156 0.4960
-2 0 40 -8.5786 -0.1402
-2 0 42 8.2126 -0.0343
-2 0 44 -4.9110 -0.1353
-2 0 46 -0.4446 0.4787
-2 0 48 2.6825 -0.5966
-2 0 50 -0.9456 0.1356
-2 0 52 -0.5685 0.9451
-2 0 54 -0.2994 -2.2447
-2 0 56 1.7036 3.0678
-2 2 1 23.7482 4.6060
-2 2 2 52.0604 1.7814
-2 2 3 -111.6010 -5.5649
-2 2 4 -82.1853 -1.7837
-2 2 5 165.2606 4.0057
-2 2 6 73.9630 0.4856
-2 2 7 -110.8695 -1.1761
-2 2 8 -25.3821 0.8127
-2 2 9 2.1211 -1.1901
-2 2 10 -20.4433 -1.0883
-2 2 11 55.1566 1.8518
-2 2 12 26.2895 0.5293
-2 2 13 -33.3772 -0.8526
-2 2 14 -0.1799 0.1925
-2 2 15 -9.8012 -0.5158
-2 2 16 -24.5725 -0.6426
-2 2 17 25.5725 0.9464
-2 2 18 30.0614 0.6518
-2 2 19 -18.3988 -0.3602
-2 2 20 -21.9854 -0.3202
-2 2 21 8.9481 -0.2843
-2 2 22 11.9535 -0.0391
-2 2 23 -3.1130 0.2692
-2 2 24 -6.2481 0.2240
-2 2 25 -0.1252 0.1557
-2 2 26 5.6413 -0.2487
-2 2 27 0.8711 -0.3313
-2 2 28 -6.7756 0.1673
-2 2 29 -1.0636 0.1082
-2 2 30 5.6424 -0.0339
-2 2 31 1.4724 0.0739
-2 2 32 -2.2564 -0.0971
-2 2 33 0.0899 0.1018
-2 2 34 -0.2804 0.2078
-2 2 35 -2.7034 -0.4044
-2 2 36 0.4403 -0.1697
-2 2 37 2.8445 0.4330
-2 2 38 0.7566 -0.1799
-2 2 39 -1.5433 -0.1269
-2 2 40 -1.6457 0.5444
-2 2 41 2.0730 -0.2615
-2 2 42 0.7778 -0.3478
-2 2 43 -3.0143 0.4733
-2 2 44 2.0126 -0.2710
-2 2 45 1.5882 -0.3696
-2 2 46 -4.3906 0.5091
-2 2 47 0.4798 -0.0387
-2 2 48 3.5976 -0.2115
-2 2 49 -0.6386 0.5186
-2 2 50 -0.0611 0.0284
-2 2 51 0.1075 -0.7201
-2 2 52 -3.0065 -0.0921
-2 2 53 -0.6952 0.5035
-2 2 54 3.4648 -0.1521
-2 2 55 1.5690 -0.1010
-2 2 56 -2.1260 0.6619
-2 4 3 52.1379 -0.9036
-2 4 4 -24.4641 -0.8879
-2 4 5 -26.9274 0.2644
-2 4 6 -8.1948 1.2712
-2 4 7 27.1459 0.9258
-2 4 8 3.2653 -1.3074
-2 4 9 -47.6244 -1.4154
-2 4 10 11.8402 0.8909
-2 4 11 54.8474 0.8518
-2 4 12 -11.7160 -0.1610
-2 4 13 -35.8526 0.1167
-2 4 14 5.5682 -0.4484
-2 4 15 9.9676 -0.6693
-2 4 16 -8.4287 0.4959
-2 4 17 4.0807 0.4376
-2 4 18 14.0688 -0.0426
-2 4 19 -6.7552 0.2415
-2 4 20 -11.9738 -0.3422
-2 4 21 4.7164 -0.6299
-2 4 22 6.3523 0.2029
-2 4 23 -1.1042 0.4360
-2 4 24 -5.1643 0.2871
-2 4 25 -0.8758 -0.1039
-2 4 26 7.6844 -0.5302
-2 4 27 -0.6129 0.0657
-2 4 28 -10.2310 0.2173
-2 4 29 2.0508 -0.1754
-2 4 30 11.4407 0.3021
-2 4 31 -0.1101 0.0711
-2 4 32 -9.9643 -0.4888
-2 4 33 -2.9299 0.2978
-2 4 34 6.2576 0.2903
-2 4 35 3.8217 -0.5848
-2 4 36 -4.4397 -0.0688
-2 4 37 -2.9219 0.3506
-2 4 38 6.0159 0.0054
-2 4 39 1.8254 0.3529
-2 4 40 -6.7498 0.0445
-2 4 41 -1.3470 -0.8167
-2 4 42 3.8072 -0.1725
-2 4 43 2.1685 0.5435
-2 4 44 0.1168 0.2682
-2 4 45 -3.7722 0.0532
-2 4 46 -1.9498 -0.2379
-2 4 47 3.9188 -0.4043
-2 4 48 1.7121 0.1279
-2 4 49 -1.6604 0.6098
-2 4 50 -0.2928 -0.0609
-2 4 51 -1.0719 -0.7932
-2 4 52 -1.5781 0.1785
-2 4 53 2.2394 0.5205
-2 4 54 2.6145 -0.5191
-2 4 55 -1.9693 0.2762
-2 4 56 -2.1897 0.8710
-2 6 1 76.1986 -0.3456
-2 6 3 -66.1999 0.1661
-2 6 4 -120.1857 0.3932
-2 6 5 45.5649 -0.1271
-2 6 6 86.7717 0.2339
-2 6 7 -35.6247 0.3313
-2 6 8 -55.4289 -0.6691
-2 6 9 35.4782 -0.5920
-2 6 10 34.8678 0.4255
-2 6 11 -34.8194 0.6506
-2 6 12 -20.2862 0.1858
-2 6 13 33.2129 -0.3985
-2 6 14 10.8748 -0.5397
-2 6 15 -34.4918 -0.0156
-2 6 16 -7.2338 0.2822
-2 6 17 33.8477 0.2680
-2 6 18 4.1075 0.3527
-2 6 19 -24.5833 -0.1758
-2 6 20 1.0900 -0.6561
-2 6 21 10.4874 -0.1145
-2 6 22 -3.5362 0.2370
-2 6 23 -0.6257 0.3366
-2 6 24 1.5963 0.3838
-2 6 25 -2.3556 -0.3636
-2 6 26 -0.2454 -0.4504
-2 6 27 1.5723 0.2200
-2 6 28 1.1505 -0.0060
-2 6 29 0.2000 -0.0299
-2 6 30 -0.8622 0.3401
-2 6 31 -1.0656 -0.0521
-2 6 32 -1.0911 -0.1957
-2 6 33 0.1180 0.0205
-2 6 34 2.0153 -0.1804
-2 6 35 0.4870 -0.0190
-2 6 36 -1.9474 0.2972
-2 6 37 1.6528 0.0411
-2 6 38 2.5445 0.0570
-2 6 39 -4.4553 0.1199
-2 6 40 -3.2149 -0.5015
-2 6 41 4.0879 -0.4763
-2 6 42 2.8618 0.4718
-2 6 43 -0.9226 0.6865
-2 6 44 -2.0601 -0.0340
-2 6 45 -1.4478 -0.4395
-2 6 46 1.4261 -0.2169
-2 6 47 1.3395 -0.2091
-2 6 48 -0.8702 0.0753
-2 6 49 0.0462 0.9153
-2 6 50 0.6637 0.2142
-2 6 51 -1.1105 -1.2819
-2 6 52 -0.9296 -0.6919
-2 6 53 1.3104 1.1183
-2 6 54 0.9435 1.5021
-2 6 55 -1.1286 -0.6656
-2 6 56 -0.3148 -2.1502
-2 8 1 49.8592 -0.1624
-2 8 2 -6.7884 0.0833
-2 8 3 -53.9052 0.4453
-2 8 4 -13.5429 -0.1987
-2 8 5 36.5804 -0.2230
-2 8 6 18.2769 0.2348
-2 8 8 -9.9343 -0.1663
-2 8 9 -13.2580 0.2035
-2 8 10 2.2343 0.0076
-2 8 11 22.9673 0.0940
-2 8 12 -0.7504 0.2130
-2 8 13 -22.2286 -0.3732
-2 8 14 1.6937 -0.3994
-2 8 15 14.6756 0.3734
-2 8 16 -2.8675 0.3424
-2 8 17 -7.1090 -0.1009
-2 8 18 5.8042 0.0137
-2 8 19 5.1541 -0.1451
-2 8 20 -9.8560 -0.3328
-2 8 21 -6.4750 0.0628
-2 8 22 11.8857 0.2432
-2 8 23 6.1648 0.1731
-2 8 24 -11.1431 0.1602
-2 8 25 -4.9042 -0.1105
-2 8 26 9.7292 -0.4630
-2 8 27 5.1551 -0.2379
-2 8 28 -9.0120 0.4306
-2 8 29 -5.7890 0.4083
-2 8 30 8.7388 -0.1409
-2 8 31 5.7529 -0.2336
-2 8 32 -8.5865 -0.1651
-2 8 33 -6.3451 -0.0011
-2 8 34 8.2132 0.2311
-2 8 35 7.0996 0.0737
-2 8 36 -6.9091 -0.0174
-2 8 37 -5.7881 -0.0196
-2 8 38 4.8553 -0.2014
-2 8 39 3.0792 -0.0332
-2 8 40 -3.4653 0.1993
-2 8 41 -1.7608 -0.0457
-2 8 42 3.3037 -0.1282
-2 8 43 2.1693 0.2335
-2 8 44 -3.0612 0.2301
-2 8 45 -2.3388 -0.2723
-2 8 46 1.6143 -0.4193
-2 8 47 1.1813 0.0410
-2 8 48 0.1425 0.4052
-2 8 49 0.8050 0.2266
-2 8 50 -0.5018 -0.0590
-2 8 51 -2.5156 -0.4174
-2 8 52 -0.7444 -0.4738
-2 8 53 3.0615 0.7542
-2 8 54 1.9894 0.8575
-2 8 55 -2.5147 -1.2053
-2 10 1 3.1861 -0.1628
-2 10 2 19.8429 -0.1508
-2 10 3 -21.3752 0.2229
-2 10 4 -26.1291 0.0031
-2 10 5 30.7580 -0.2814
-2 10 6 34.2017 -0.1907
-2 10 7 -26.7074 0.3474
-2 10 8 -38.6528 0.3688
-2 10 9 19.3203 -0.3506
-2 10 10 37.1314 -0.3193
-2 10 11 -15.7452 0.2412
-2 10 12 -31.8315 0.1380
-2 10 13 14.5789 -0.1115
-2 10 14 23.9065 0.0145
-2 10 15 -14.0811 0.0258
-2 10 16 -14.2196 -0.0251
-2 10 17 14.8010 0.0862
-2 10 18 6.3199 -0.1038
-2 10 19 -15.3082 -0.2078
-2 10 20 -2.6407 0.2000
-2 10 21 12.8294 0.1854
-2 10 22 1.5734 -0.1830
-2 10 23 -8.0287 -0.0229
-2 10 24 -1.2524 0.2207
-2 10 25 4.8331 -0.0898
-2 10 26 1.6302 -0.3289
-2 10 27 -5.2801 0.0749
-2 10 28 -2.1559 0.1996
-2 10 29 7.0519 0.0113
-2 10 30 2.0652 0.2239
-2 10 31 -6.9305 -0.1511
-2 10 32 -2.2577 -0.5006
-2 10 33 5.1077 0.2716
-2 10 34 3.3845 0.3486
-2 10 35 -4.2771 -0.1977
-2 10 36 -4.1252 -0.0282
-2 10 37 5.2516 -0.0456
-2 10 38 3.7287 -0.1509
-2 10 39 -6.0558 0.1904
-2 10 40 -3.5458 0.1959
-2 10 41 5.3279 -0.1555
-2 10 42 4.4917 -0.2004
-2 10 43 -3.9768 0.1343
-2 10 44 -5.3758 0.1668
-2 10 45 3.1404 -0.1340
-2 10 46 4.5916 -0.0662
-2 10 47 -2.7387 -0.1584
-2 10 48 -2.0793 -0.1522
-2 10 49 2.3985 0.9076
-2 10 50 -0.5903 0.4752
-2 10 51 -2.1594 -1.8197
-2 10 52 1.8018 -0.7074
-2 10 53 1.9782 2.3839
-2 10 54 -1.6097 0.7033
-2 12 1 27.5345 0.1897
-2 12 2 12.7111 -0.3622
-2 12 3 -27.6384 -0.3086
-2 12 4 -10.1076 0.1681
-2 12 5 24.5999 0.2270
-2 12 6 10.7785 -0.0312
-2 12 7 -17.8592 -0.0778
-2 12 8 -11.9031 -0.0024
-2 12 9 9.2079 0.0163
-2 12 10 11.2879 -0.0931
-2 12 11 -3.0895 -0.0140
-2 12 12 -12.5226 0.2070
-2 12 13 1.4732 0.0276
-2 12 14 16.0791 -0.1660
-2 12 15 -1.8730 -0.0334
-2 12 16 -16.7403 -0.0063
-2 12 17 1.7546 -0.0325
-2 12 18 12.6113 0.1410
-2 12 19 -1.0706 0.1163
-2 12 20 -8.3553 -0.1774
-2 12 21 0.2690 -0.0642
-2 12 22 7.7751 0.1269
-2 12 23 0.4821 -0.0502
-2 12 24 -8.9382 0.0324
-2 12 25 -0.4985 0.0180
-2 12 26 8.2090 -0.2004
-2 12 27 -0.1482 0.0498
-2 12 28 -5.7871 0.1669
-2 12 29 -0.2745 0.1092
-2 12 30 5.0277 0.0621
-2 12 31 2.5925 -0.3318
-2 12 32 -6.9478 -0.2662
-2 12 33 -4.7873 0.2264
-2 12 34 8.1874 0.3581
-2 12 35 4.5016 0.1591
-2 12 36 -6.0088 -0.3544
-2 12 37 -2.1629 -0.4338
-2 12 38 2.4972 0.1417
-2 12 39 -0.0213 0.4601
-2 12 40 -1.0092 0.2607
-2 12 41 1.2583 -0.3682
-2 12 42 1.1075 -0.4284
-2 12 43 -2.5617 0.1969
-2 12 44 -0.1593 0.0501
-2 12 45 4.1026 0.0815
-2 12 46 -2.2005 0.4814
-2 12 47 -4.2945 -0.3543
-2 12 48 3.9238 -0.5096
-2 12 49 2.4603 0.4390
-2 12 50 -3.4930 0.0106
-2 12 51 -0.4108 -0.2839
-2 12 52 1.4031 0.3855
-2 12 53 -0.1199 0.0538
-2 14 1 22.6356 0.1580
-2 14 2 -1.5301 -0.2031
-2 14 3 -24.0988 -0.1148
-2 14 4 -2.8492 0.1470
-2 14 5 21.9915 0.0736
-2 14 6 7.1070 -0.0440
-2 14 7 -16.1440 -0.0978
-2 14 8 -11.5611 0.0478
-2 14 9 8.2091 0.1140
-2 14 10 15.0119 -0.0797
-2 14 11 -5.9749 -0.0311
-2 14 12 -15.7004 0.0505
-2 14 13 13.2155 -0.0555
-2 14 14 13.1027 -0.0184
-2 14 15 -22.4259 0.0310
-2 14 16 -8.1858 -0.0017
-2 14 17 24.5381 0.0364
-2 14 18 2.6436 0.0430
-2 14 20 1.5613 -0.0169
-2 14 21 14.4850 0.0752
-2 14 22 -3.0933 -0.0954
-2 14 23 -12.0734 -0.0644
-2 14 24 2.6282 0.0690
-2 14 25 11.3938 -0.0061
-2 14 26 -2.1455 0.1610
-2 14 27 -10.4654 0.0175
-2 14 28 1.9778 -0.2570
-2 14 29 9.3200 0.1428
-2 14 30 -0.3938 0.0369
-2 14 31 -9.0793 -0.3302
-2 14 32 -2.6639 0.1673
-2 14 33 9.4603 0.3397
-2 14 34 4.1066 -0.0915
-2 14 35 -8.8670 -0.1584
-2 14 36 -2.2459 -0.0127
-2 14 37 6.9690 -0.1656
-2 14 38 -0.0420 -0.1369
-2 14 39 -5.0949 0.5490
-2 14 40 -0.2051 0.3937
-2 14 41 3.8954 -0.6351
-2 14 42 1.2372 -0.4998
-2 14 43 -2.6747 0.0632
-2 14 44 0.0022 0.4634
-2 14 45 0.9518 0.8246
-2 14 46 -2.3378 -0.3896
-2 14 47 0.8698 -1.1227
-2 14 48 2.4252 0.2032
-2 14 49 -1.9472 0.5197
-2 14 50 -0.2841 0.2629
-2 14 51 1.5371 0.1686
-2 16 1 13.1687 0.1034
-2 16 2 -2.6745 -0.0831
-2 16 3 -14.3859 -0.0391
-2 16 4 -0.1267 -0.1041
-2 16 5 9.9805 0.1903
-2 16 6 4.2572 0.1629
-2 16 7 -2.8685 -0.2759
-2 16 8 -9.9369 -0.0059
-2 16 9 -2.0452 0.1830
-2 16 10 12.8365 -0.1687
-2 16 11 1.6867 -0.0399
-2 16 12 -8.2130 0.2173
-2 16 13 2.2475 -0.0452
-2 16 14 -0.8078 -0.2201
-2 16 15 -5.1516 0.0235
-2 16 16 6.4448 0.2213
-2 16 17 4.2864 0.1095
-2 16 18 -5.9726 -0.1546
-2 16 19 -0.7680 -0.1794
-2 16 20 2.7502 0.0591
-2 16 21 -2.2971 0.0032
-2 16 22 -0.1409 -0.0356
-2 16 23 2.7179 0.2203
-2 16 24 -1.1299 0.0461
-2 16 25 -1.1090 -0.1350
-2 16 26 1.5747 -0.0283
-2 16 27 -0.1354 -0.1600
-2 16 28 -1.8856 0.0335
-2 16 29 0.2773 0.2535
-2 16 30 2.2305 -0.0434
-2 16 31 -0.7783 -0.0990
-2 16 32 -1.6873 -0.0853
-2 16 33 1.7112 -0.0284
-2 16 34 -0.5467 0.3506
-2 16 35 -1.1955 0.1088
-2 16 36 3.3683 -0.5664
-2 16 37 -0.4607 -0.3049
-2 16 38 -4.4779 0.6175
-2 16 39 0.5389 0.4623
-2 16 40 3.1952 -0.4554
-2 16 41 1.0267 -0.2545
-2 16 42 -1.5256 -0.0133
-2 16 43 -1.2490 -0.2486
-2 16 44 1.5007 0.6177
-2 16 45 -0.4362 0.5963
-2 16 46 -2.3204 -0.7084
-2 16 47 1.2363 -0.5385
-2 16 48 1.8736 -0.1701
-2 16 49 0.0028 0.3482
-2 18 1 8.8578 0.0218
-2 18 2 -6.8142 0.3692
-2 18 3 -10.9370 -0.1468
-2 18 4 1.3087 -0.1363
-2 18 5 10.9204 0.3498
-2 18 6 6.6025 -0.1286
-2 18 7 -9.9696 -0.3748
-2 18 8 -12.4893 0.1483
-2 18 9 9.4916 0.1929
-2 18 10 13.1225 0.0434
-2 18 11 -8.2846 -0.0198
-2 18 12 -9.2022 -0.2566
-2 18 13 5.8872 -0.0382
-2 18 14 4.2567 0.3128
-2 18 15 -4.2568 0.0181
-2 18 16 -0.4209 -0.1263
-2 18 17 4.2694 0.0714
-2 18 18 -2.3744 -0.1131
-2 18 19 -4.5445 -0.1639
-2 18 20 3.7596 0.0446
-2 18 21 4.4730 0.0997
-2 18 22 -3.1296 0.3226
-2 18 23 -4.7991 0.1038
-2 18 24 1.4682 -0.5140
-2 18 25 5.2988 -0.2141
-2 18 26 0.1981 0.2800
-2 18 27 -5.1172 0.1327
-2 18 28 -2.2089 0.0652
-2 18 29 4.7810 0.0060
-2 18 30 4.0601 -0.2131
-2 18 31 -4.9625 -0.0758
-2 18 32 -4.0605 0.2389
-2 18 33 4.3030 0.0160
-2 18 34 2.4993 -0.2219
-2 18 35 -1.4841 0.2217
-2 18 36 -1.4577 0.0599
-2 18 37 -1.5716 -0.5055
-2 18 38 1.3021 0.1608
-2 18 39 1.8999 0.5335
-2 18 40 -0.9607 -0.1296
-2 18 41 -0.2543 -0.2757
-2 18 42 0.5730 -0.2032
-2 18 43 0.1076 0.1006
-2 18 44 -0.6118 0.4870
-2 18 47 3.4759 0.1363
-2 20 1 0.9802 0.0159
-2 20 2 2.2912 0.1931
-2 20 3 -2.5193 0.0470
-2 20 4 -4.8774 -0.2572
-2 20 5 4.3893 -0.0843
-2 20 6 6.9684 0.2484
-2 20 7 -5.0594 0.0616
-2 20 8 -6.2806 -0.2908
-2 20 9 4.7813 -0.0587
-2 20 10 3.5028 0.2898
-2 20 11 -4.6420 0.0420
-2 20 12 -1.3849 -0.1429
-2 20 13 4.8587 0.0881
-2 20 14 0.5990 -0.0504
-2 20 15 -3.4131 -0.2230
-2 20 16 0.1737 0.1716
-2 20 17 -1.6250 0.1773
-2 20 18 -1.0804 -0.1911
-2 20 19 7.3438 -0.0313
-2 20 20 1.1512 0.0751
-2 20 21 -7.8659 -0.0386
-2 20 22 -0.5474 0.1225
-2 20 23 2.4844 0.1015
-2 20 24 0.0168 -0.1798
-2 20 25 3.3329 -0.2292
-2 20 26 0.7699 -0.0071
-2 20 27 -5.9181 0.1907
-2 20 28 -1.9092 0.2403
-2 20 29 6.4889 0.1502
-2 20 30 1.9271 -0.3048
-2 20 31 -6.2587 -0.4596
-2 20 32 -0.2497 0.1706
-2 20 33 4.6391 0.3941
-2 20 34 -1.0491 0.1360
-2 20 35 -2.2904 -0.0934
-2 20 36 0.5559 -0.4705
-2 20 37 1.0672 -0.1081
-2 20 38 -0.0251 0.4070
-2 20 39 -1.2856 0.0786
-2 20 40 0.9255 0.3415
-2 20 41 1.8650 0.1840
-2 20 42 -1.5470 -1.3221
-2 20 43 -1.9614 -0.5893
-2 20 44 0.3252 1.6806
-2 20 45 1.2290 0.8612
-2 22 1 7.8599 -0.3095
-2 22 2 -2.5705 0.2496
-2 22 3 -9.2159 -0.0938
-2 22 4 -0.1526 0.0226
-2 22 5 10.0607 0.3723
-2 22 6 2.7804 -0.3127
-2 22 7 -9.2120 -0.3729
-2 22 8 -3.3495 0.2123
-2 22 9 6.9019 0.0837
-2 22 10 1.2337 0.2122
-2 22 11 -5.2725 0.3128
-2 22 12 1.6833 -0.4260
-2 22 13 4.9071 -0.4521
-2 22 14 -2.4487 0.1768
-2 22 15 -3.4806 0.1771
-2 22 16 -0.7367 0.1767
-2 22 17 -0.0730 0.2451
-2 22 18 5.6521 -0.2395
-2 22 19 2.7220 -0.4690
-2 22 20 -6.5319 0.0412
-2 22 21 -1.6387 0.3802
-2 22 22 1.0568 0.1972
-2 22 23 -1.2011 -0.0302
-2 22 24 5.3442 -0.2996
-2 22 25 2.2204 -0.3786
-2 22 26 -6.3834 0.0934
-2 22 27 -1.4741 0.5118
-2 22 28 2.8062 0.3906
-2 22 29 1.0675 -0.2773
-2 22 30 0.7981 -0.7087
-2 22 31 -1.1580 0.0175
-2 22 32 -2.8498 0.4463
-2 22 33 0.9546 -0.0424
-2 22 34 4.1204 0.2661
-2 22 35 -0.7874 0.3028
-2 22 36 -4.1649 -1.0174
-2 22 37 0.5834 -0.7589
-2 22 38 2.3270 1.5315
-2 22 39 0.5856 1.5511
-2 22 40 0.2439 -1.5289
-2 22 41 -2.0472 -2.4916
-2 22 42 -1.8697 0.7943
-2 24 1 1.8657 0.0945
-2 24 2 -3.8998 0.0497
-2 24 3 -3.3660 -0.1427
-2 24 4 -0.7366 0.2577
-2 24 5 5.3883 -0.0940
-2 24 6 3.8798 -0.3359
-2 24 7 -6.2496 0.2841
-2 24 8 -4.0704 0.0016
-2 24 9 4.9592 -0.1709
-2 24 10 1.9214 0.5609
-2 24 11 -2.8912 -0.0272
-2 24 12 0.6088 -0.7915
-2 24 13 1.5127 0.0012
-2 24 14 -0.9173 0.3625
-2 24 15 -0.8847 0.1572
-2 24 16 -2.0139 0.3118
-2 24 17 0.6839 -0.1740
-2 24 18 5.0454 -0.5496
-2 24 19 -0.2344 0.0364
-2 24 20 -3.5958 0.1897
-2 24 21 -1.4374 0.0691
-2 24 22 -1.5900 0.3885
-2 24 23 3.5094 -0.0126
-2 24 24 4.5685 -0.7157
-2 24 25 -3.4253 -0.2413
-2 24 26 -2.7582 0.4979
-2 24 27 0.5123 0.5223
-2 24 28 0.1222 0.1623
-2 24 29 3.1514 -0.3623
-2 24 30 -0.1362 -0.7160
-2 24 31 -6.0372 -0.5131
-2 24 32 1.4393 0.7314
-2 24 33 8.1461 1.6459
-2 24 34 -1.9691 -0.3688
-2 24 35 -8.7858 -2.3360
-2 24 36 1.8003 -0.1009
-2 24 37 6.8404 2.4840
-2 26 1 -6.2132 -0.1989
-2 26 2 1.5627 -0.0104
-2 26 3 1.3497 0.1245
-2 26 4 -3.2761 0.1987
-2 26 5 4.0342 -0.1757
-2 26 6 3.5251 -0.2488
-2 26 7 -5.8020 0.3029
-2 26 8 -2.7398 0.0948
-2 26 9 4.1875 -0.2531
-2 26 10 1.6554 0.2414
-2 26 11 -2.0200 0.0865
-2 26 12 -1.0561 -0.5528
-2 26 13 1.0097 -0.1364
-2 26 14 2.3268 0.5248
-2 26 15 -1.1445 0.3596
-2 26 16 -5.4444 -0.1376
-2 26 17 1.5827 -0.2766
-2 26 18 7.6819 -0.2376
-2 26 19 -0.6765 -0.2992
-2 26 20 -6.7182 0.3398
-2 26 21 -2.2276 0.9312
-2 26 22 3.6380 -0.2992
-2 26 23 4.6645 -1.0128
-2 26 24 -1.1242 0.2501
-2 26 25 -4.2266 0.2670
-2 26 26 0.1956 -0.1373
-2 26 27 2.7804 0.9861
-2 26 28 0.0425 0.1405
-2 26 29 -3.2094 -1.8694
-2 26 30 -0.7469 -0.6986
-2 26 31 4.2954 1.7265
-2 26 32 2.2291 1.7500
-2 26 33 -3.5295 -0.9528
-2 26 34 -3.6483 -2.5230
-2 28 1 12.8422 0.5239
-2 28 2 0.2307 -0.0504
-2 28 3 -16.0329 -0.4693
-2 28 4 0.7984 0.3731
-2 28 5 17.5921 -0.0737
-2 28 6 -0.3827 -0.3396
-2 28 7 -16.2312 0.5807
-2 28 8 -0.9438 0.1109
-2 28 9 13.1867 -0.4569
-2 28 10 0.9104 0.0028
-2 28 11 -10.4631 -0.1405
-2 28 12 0.5703 0.0194
-2 28 13 9.4713 0.3494
-2 28 14 -0.9144 -0.0819
-2 28 15 -10.2663 0.2433
-2 28 16 -0.8481 0.2365
-2 28 17 10.9554 -0.9256
-2 28 18 2.7497 -0.4736
-2 28 19 -9.1433 0.8021
-2 28 20 -3.2328 0.5477
-2 28 21 4.9793 0.0032
-2 28 22 2.4658 -0.1988
-2 28 23 -1.3804 -0.6588
-2 28 24 -1.0074 -0.6965
-2 28 25 0.3958 0.7726
-2 28 26 -0.0152 2.0373
-2 28 27 -0.9764 -0.5708
-2 28 28 -0.7039 -3.1708
-2 28 29 1.1858 0.2156
-2 28 30 2.1543 3.1252
-2 30 1 -3.3305 0.0681
-2 30 2 -9.5847 -0.3948
-2 30 3 1.1959 0.2837
-2 30 4 10.2888 0.0646
-2 30 5 2.4013 -0.4451
-2 30 6 -9.2769 0.3381
-2 30 7 -5.3275 0.3672
-2 30 8 7.3539 0.0625
-2 30 9 5.0860 -0.1346
-2 30 10 -6.1764 -1.2598
-2 30 11 -1.7160 -0.1200
-2 30 12 6.3312 2.0337
-2 30 13 -1.1140 0.1847
-2 30 14 -6.7589 -1.3261
-2 30 15 0.4154 0.0791
-2 30 16 6.1529 -0.2717
-2 30 17 2.1820 -0.3894
-2 30 18 -4.1115 1.0756
-2 30 19 -3.3077 0.1936
-2 30 20 1.2805 -0.3003
-2 30 21 2.3492 0.6113
-2 30 22 0.8372 -1.1859
-2 30 23 -0.7762 -1.5213
-2 32 3 1.2586 -0.2477
-2 32 4 1.6463 -0.5769
-2 32 5 0.9428 0.4635
-2 32 6 -3.4620 0.4635
-2 32 7 -2.8992 0.2646
-2 32 8 4.1186 0.0944
-2 32 9 3.5348 -2.0387
-2 32 10 -2.4668 -0.9078
-2 32 11 -2.2302 3.6186
-2 32 12 0.0149 1.4800
-1 1 1 181.9010 1.9143
-1 1 2 44.0471 0.2858
-1 1 3 -59.8822 -1.5040
-1 1 4 148.7821 1.0819
-1 1 5 -50.8464 0.3766
-1 1 11 -25.2422 -0.5857
-1 1 12 -16.6144 -0.5664
-1 1 13 20.3455 1.1520
-1 1 14 4.4681 0.5416
-1 1 15 4.7362 -0.9794
-1 1 16 20.3028 0.1998
-1 1 17 -15.5688 0.6623
-1 1 18 -20.6223 -0.8673
-1 1 19 10.8699 -0.6221
-1 1 20 6.2495 0.8224
-1 1 21 -4.8856 0.7020
-1 1 22 4.9325 -0.2895
-1 1 23 2.8969 -0.6152
-1 1 24 -8.1326 -0.0231
-1 1 25 -2.8485 0.3357
-1 1 26 5.1471 -0.2050
-1 1 27 3.0718 -0.0918
-1 1 28 -0.4230 0.6323
-1 1 29 -2.5878 0.0679
-1 1 30 -0.8038 -0.7265
-1 1 31 1.7234 -0.1753
-1 1 32 -1.3121 0.3934
-1 1 33 -2.1711 0.2533
-1 1 34 2.4159 -0.0616
-1 1 35 3.2328 -0.3183
-1 1 36 -1.1810 0.0652
-1 1 37 -2.2981 0.3788
-1 1 38 -1.1435 -0.2141
-1 1 39 -0.0141 -0.3257
-1 1 40 4.4491 0.2487
-1 1 41 0.8342 0.2364
-1 1 42 -7.3548 -0.2779
-1 1 43 -0.3665 -0.3021
-1 1 44 6.6126 0.3501
-1 1 45 0.7365 0.3036
-1 1 46 -2.7044 -0.1596
-1 1 47 -1.5254 0.1595
-1 1 48 0.2143 -0.2953
-1 1 49 1.0706 -0.7867
-1 1 50 -0.9791 0.3867
-1 1 51 0.2316 0.6812
-1 1 52 2.2329 0.2615
-1 1 53 -1.0557 0.5091
-1 1 54 -1.6291 -1.1487
-1 1 55 1.1547 -2.1579
-1 1 56 -0.2096 1.5892
-1 1 57 -0.7395 3.3522
-1 3 2 -76.6439 -0.5493
-1 3 3 58.8019 -0.4764
-1 3 4 50.6355 0.7129
-1 3 5 -155.2066 0.2540
-1 3 6 -24.6071 -0.3844
-1 3 8 9.1221 0.1183
-1 3 10 4.7170 -0.2791
-1 3 11 0.9751 -1.2329
-1 3 12 -21.7872 0.4761
-1 3 13 12.7960 0.8132
-1 3 14 33.0189 -0.3566
-1 3 15 2.3635 -0.0037
-1 3 16 -31.4991 0.1034
-1 3 17 -7.9756 -0.4937
-1 3 18 23.7877 0.0393
-1 3 19 1.8023 0.2106
-1 3 20 -19.2661 -0.0729
-1 3 21 3.5372 0.4807
-1 3 22 18.1574 0.0596
-1 3 23 -5.4018 -0.7803
-1 3 24 -15.2616 -0.0282
-1 3 25 5.0440 0.4329
-1 3 26 8.7349 -0.0313
-1 3 27 -2.0973 0.0422
-1 3 28 -1.5400 0.1831
-1 3 29 -0.3550 -0.0495
-1 3 30 -1.8647 -0.3707
-1 3 31 -0.7957 -0.4085
-1 3 32 -0.5580 0.3775
-1 3 33 2.7770 0.8040
-1 3 34 5.3466 -0.1746
-1 3 35 -2.4449 -0.7574
-1 3 36 -6.0487 0.0002
-1 3 37 1.0827 0.4677
-1 3 38 0.8231 0.0320
-1 3 39 0.2154 -0.2889
-1 3 40 5.3380 0.0014
-1 3 41 -2.0729 0.1375
-1 3 42 -7.3498 -0.1118
-1 3 43 2.9727 0.2103
-1 3 44 5.3828 0.2701
-1 3 45 -1.1284 -0.4985
-1 3 46 -2.4880 -0.2247
-1 3 47 -1.3255 0.3226
-1 3 48 0.5722 -0.0663
-1 3 49 1.5521 0.1445
-1 3 50 0.2407 0.1945
-1 3 51 -0.4027 -0.4414
-1 3 52 -0.7957 0.0712
-1 3 53 0.0379 0.5801
-1 3 54 1.9143 -0.4007
-1 3 55 -0.6611 -0.8522
-1 3 56 -3.0828 0.4723
-1 3 57 1.4088 1.1584
-1 5 1 9.6773 0.4380
-1 5 2 -58.1786 0.5324
-1 5 3 -7.7759 -0.1565
-1 5 4 46.1530 -0.3634
-1 5 5 8.5655 -0.0125
-1 5 6 -29.9350 0.0080
-1 5 7 -9.7176 -0.0639
-1 5 8 35.8132 0.3614
-1 5 9 14.5469 0.1445
-1 5 10 -49.9906 -0.3575
-1 5 11 -21.1750 -0.1408
-1 5 12 49.8827 -0.1257
-1 5 13 22.4640 0.1014
-1 5 14 -38.4252 0.7563
-1 5 15 -16.6239 -0.0342
-1 5 16 29.8519 -0.9774
-1 5 17 9.3578 0.0589
-1 5 18 -23.9437 0.4911
-1 5 19 -5.6786 -0.2693
-1 5 20 14.4429 0.3088
-1 5 21 5.2469 0.4077
-1 5 22 -5.2222 -0.6189
-1 5 23 -4.8531 -0.1902
-1 5 24 1.8857 0.1330
-1 5 25 1.7951 -0.2029
-1 5 26 -1.6208 0.5627
-1 5 27 3.8105 0.4118
-1 5 28 1.0451 -0.6826
-1 5 29 -8.0941 -0.3652
-1 5 30 -1.4538 0.1610
-1 5 31 6.9220 0.1586
-1 5 32 2.4565 0.3108
-1 5 33 -1.4634 0.1248
-1 5 34 -1.7242 -0.1560
-1 5 35 -2.2940 -0.3171
-1 5 36 0.8276 -0.3644
-1 5 37 0.6312 0.2826
-1 5 38 -2.3834 0.5407
-1 5 39 3.7498 -0.1179
-1 5 40 4.6204 -0.2265
-1 5 41 -5.7616 -0.0425
-1 5 42 -5.0863 -0.0324
-1 5 43 3.9165 0.1927
-1 5 44 4.8397 -0.0633
-1 5 45 -0.7832 -0.2735
-1 5 46 -5.0915 0.1484
-1 5 47 -1.0069 0.1952
-1 5 48 4.7880 0.0710
-1 5 49 1.3823 -0.0401
-1 5 50 -3.2487 -0.3272
-1 5 51 -1.8227 -0.1761
-1 5 52 1.1614 0.3290
-1 5 53 3.0343 0.7048
-1 5 54 0.7972 -0.2079
-1 5 55 -4.0788 -1.5244
-1 5 56 -1.8033 0.1706
-1 5 57 3.6446 2.0172
-1 7 1 -61.8267 -0.4339
-1 7 2 -14.4517 0.0592
-1 7 3 76.3268 -0.1026
-1 7 4 36.9951 -0.1383
-1 7 5 -67.9472 0.4098
-1 7 6 -35.8682 0.1145
-1 7 7 51.8597 -0.3268
-1 7 8 16.3116 -0.0352
-1 7 9 -39.5296 0.1591
-1 7 10 3.8425 -0.0191
-1 7 11 30.5902 -0.1539
-1 7 12 -15.9079 -0.0219
-1 7 13 -23.2494 0.2398
-1 7 14 20.4834 0.2518
-1 7 15 18.8737 -0.2155
-1 7 16 -19.4727 -0.4948
-1 7 17 -15.2425 -0.0153
-1 7 18 15.6055 0.3854
-1 7 19 8.4484 0.3247
-1 7 20 -12.2422 -0.0232
-1 7 21 -1.3727 -0.4113
-1 7 22 10.2320 -0.0651
-1 7 23 -0.4977 0.1071
-1 7 24 -8.8337 -0.2037
-1 7 25 -1.4816 0.3429
-1 7 26 8.3930 0.3382
-1 7 27 2.6735 -0.4678
-1 7 28 -8.8482 -0.0837
-1 7 29 -2.5968 0.1104
-1 7 30 8.5651 -0.2901
-1 7 31 2.1325 0.3169
-1 7 32 -7.1029 0.4685
-1 7 33 -0.2466 -0.2578
-1 7 34 6.1134 -0.3454
-1 7 35 -2.0647 -0.2794
-1 7 36 -6.2691 -0.0181
-1 7 37 1.6409 0.6445
-1 7 38 6.0243 0.3612
-1 7 39 1.0439 -0.3545
-1 7 40 -4.0085 -0.4061
-1 7 41 -2.4053 -0.2753
-1 7 42 0.8723 0.1978
-1 7 43 1.8274 0.6227
-1 7 44 1.4327 0.0046
-1 7 45 -1.6074 -0.5778
-1 7 46 -1.6501 -0.0784
-1 7 47 2.2230 0.4073
-1 7 48 0.6618 0.0499
-1 7 49 -1.9224 -0.0898
-1 7 50 -0.5821 -0.0295
-1 7 51 -0.3567 -0.6144
-1 7 52 2.0835 0.2522
-1 7 53 3.7539 1.5521
-1 7 55 -5.9898 -2.1484
-1 9 1 17.2147 -0.2585
-1 9 2 26.0419 0.3419
-1 9 3 15.0601 -0.0324
-1 9 4 -5.9955 0.1517
-1 9 5 -30.3226 0.2222
-1 9 6 -12.8969 -0.2443
-1 9 7 18.7594 -0.2354
-1 9 8 21.0365 0.0196
-1 9 9 2.6472 0.1072
-1 9 10 -19.3687 0.1531
-1 9 11 -17.1568 0.1113
-1 9 12 14.4426 -0.1332
-1 9 13 21.7788 -0.2056
-1 9 14 -10.4074 0.0384
-1 9 15 -18.8300 0.0426
-1 9 16 8.5053 0.0090
-1 9 17 11.1986 0.0960
-1 9 18 -8.7872 0.0119
-1 9 19 -4.1775 0.0468
-1 9 20 8.8430 -0.0518
-1 9 21 1.7561 -0.2117
-1 9 22 -5.7039 0.0345
-1 9 23 -2.3907 0.1077
-1 9 24 0.8399 0.0597
-1 9 25 2.3586 0.0551
-1 9 26 1.4647 -0.1271
-1 9 27 -0.5846 -0.0073
-1 9 28 -0.5493 0.0322
-1 9 29 -1.0959 -0.1188
-1 9 30 -0.7860 0.1907
-1 9 31 0.2736 0.1187
-1 9 32 1.4263 -0.3078
-1 9 33 3.0901 0.0008
-1 9 34 -2.1245 0.1639
-1 9 35 -5.5689 -0.2115
-1 9 36 2.5819 0.0658
-1 9 37 4.0057 0.4483
-1 9 38 -2.3349 -0.0881
-1 9 39 0.2991 -0.4559
-1 9 40 2.3522 -0.0703
-1 9 41 -3.4891 0.0974
-1 9 42 -3.0467 0.1103
-1 9 43 3.7704 0.3340
-1 9 44 2.9841 0.0469
-1 9 45 -2.0427 -0.4269
-1 9 46 -1.2392 -0.1771
-1 9 47 -0.0806 0.0917
-1 9 48 -0.8621 0.2434
-1 9 49 1.1805 0.4240
-1 9 50 1.2615 -0.5601
-1 9 51 -0.6586 -0.7444
-1 9 52 0.5242 1.2737
-1 9 53 -0.6391 0.6525
-1 9 54 -2.7442 -1.9794
-1 9 55 1.3867 -0.3556
-1 11 1 5.6349 -0.3230
-1 11 2 -5.9990 0.0491
-1 11 3 15.4817 0.2598
-1 11 4 -2.9602 0.1544
-1 11 5 -31.6911 -0.1233
-1 11 6 -0.9678 -0.1299
-1 11 7 33.1827 -0.1017
-1 11 8 11.7020 -0.0353
-1 11 9 -23.4466 0.2025
-1 11 10 -17.8719 0.2353
-1 11 11 12.1251 -0.0581
-1 11 12 18.6498 -0.3332
-1 11 13 -5.6853 -0.1897
-1 11 14 -17.0512 0.1755
-1 11 15 5.5364 0.3207
-1 11 16 11.9300 0.0811
-1 11 17 -9.5128 -0.2409
-1 11 18 -3.7007 -0.0856
-1 11 19 12.6892 0.0167
-1 11 20 -2.5246 -0.1093
-1 11 21 -10.6937 0.1798
-1 11 22 4.0160 0.1203
-1 11 23 4.7087 -0.1847
-1 11 24 -3.8740 0.0865
-1 11 25 -0.4823 -0.0006
-1 11 26 5.5470 -0.2093
-1 11 27 0.8750 0.1915
-1 11 28 -8.1688 0.1814
-1 11 29 -2.4097 -0.2259
-1 11 30 8.4051 -0.1326
-1 11 31 0.9522 0.1368
-1 11 32 -5.2940 0.0281
-1 11 33 2.2590 -0.0513
-1 11 34 2.1242 0.1559
-1 11 35 -2.9012 -0.0050
-1 11 36 -2.4559 -0.2431
-1 11 37 -0.1188 0.0621
-1 11 38 5.2260 0.2037
-1 11 39 3.5709 -0.0202
-1 11 40 -6.4036 -0.2672
-1 11 41 -4.4083 -0.2538
-1 11 42 4.5851 0.4596
-1 11 43 2.8198 0.5962
-1 11 44 -1.8842 -0.4767
-1 11 45 -0.6225 -0.5745
-1 11 46 0.2871 0.1813
-1 11 47 -1.2200 0.0066
-1 11 48 0.0745 0.1423
-1 11 49 2.5180 0.7477
-1 11 50 0.0875 -0.1536
-1 11 51 -2.8584 -1.1705
-1 11 52 -0.1296 -0.1286
-1 11 53 2.1218 1.0885
-1 11 54 -0.0261 0.3591
-1 13 1 -10.0923 -0.2731
-1 13 2 8.4945 -0.2627
-1 13 3 17.3903 0.2590
-1 13 4 -14.0735 0.2620
-1 13 5 -24.2950 -0.0867
-1 13 6 11.7707 -0.1237
-1 13 7 27.9778 -0.0848
-1 13 8 -3.6980 -0.0508
-1 13 9 -23.6046 0.1423
-1 13 10 -3.7426 0.1607
-1 13 11 15.4788 -0.1207
-1 13 12 7.7827 -0.1484
-1 13 18 3.3053 -0.0575
-1 13 19 7.1327 0.0132
-1 13 20 -7.8183 0.0109
-1 13 21 -4.1679 0.0897
-1 13 22 7.3783 0.0666
-1 13 23 2.9493 0.1148
-1 13 24 -5.0009 -0.1426
-1 13 25 -1.9750 -0.3038
-1 13 26 4.7308 0.1577
-1 13 27 0.7821 0.1883
-1 13 28 -5.9242 -0.0844
-1 13 29 -0.0506 0.0677
-1 13 30 4.6642 -0.0010
-1 13 31 -0.2631 -0.2421
-1 13 32 -0.5092 0.0223
-1 13 33 0.9214 0.3309
-1 13 34 -1.6058 -0.0495
-1 13 35 -2.0196 -0.2899
-1 13 36 -1.7194 0.1834
-1 13 37 2.5841 0.0218
-1 13 38 6.6606 -0.3158
-1 13 39 -1.8696 0.3358
-1 13 40 -7.0702 0.2316
-1 13 41 0.5073 -0.5394
-1 13 42 2.7336 0.0046
-1 13 43 0.2983 0.5765
-1 13 44 1.3902 -0.0391
-1 13 45 -0.0821 -0.5077
-1 13 46 -2.3482 -0.2551
-1 13 47 -0.9685 0.1360
-1 13 48 1.4800 0.5563
-1 13 49 2.3092 0.7609
-1 13 50 -0.7208 -0.6064
-1 13 51 -2.8666 -1.8882
-1 13 52 0.3090 0.6061
-1 15 1 3.4248 -0.3350
-1 15 2 8.9544 -0.0879
-1 15 3 3.8711 0.2040
-1 15 4 -13.1834 0.1532
-1 15 5 -9.9016 0.0585
-1 15 6 14.5196 -0.1353
-1 15 7 12.0381 -0.2292
-1 15 8 -9.8821 -0.0264
-1 15 9 -8.6988 0.1593
-1 15 10 1.1947 0.1253
-1 15 11 4.3642 0.0894
-1 15 12 4.3493 -0.0409
-1 15 13 -3.8321 -0.3146
-1 15 14 -3.4976 -0.0585
-1 15 15 5.0047 0.3484
-1 15 16 -0.0410 0.0828
-1 15 17 -3.0277 -0.1657
-1 15 18 2.6671 -0.1474
-1 15 19 -2.2056 -0.1211
-1 15 20 -4.7372 0.2041
-1 15 21 6.9472 0.3392
-1 15 22 6.9450 -0.0761
-1 15 23 -8.8933 -0.3601
-1 15 24 -8.3978 -0.0943
-1 15 25 8.6779 0.1765
-1 15 26 8.7580 -0.0029
-1 15 27 -7.6973 0.0852
-1 15 28 -8.3802 0.2858
-1 15 29 6.1265 -0.2340
-1 15 30 6.6635 -0.3959
-1 15 31 -3.5452 0.1581
-1 15 32 -3.4226 0.2505
-1 15 33 1.2543 0.0534
-1 15 34 0.9147 -0.0298
-1 15 35 -1.6223 -0.1797
-1 15 36 -1.3257 -0.1894
-1 15 37 3.9303 0.1167
-1 15 38 3.1088 0.4051
-1 15 39 -4.0723 0.0200
-1 15 40 -2.9674 -0.5029
-1 15 41 0.2774 -0.1142
-1 15 42 0.7771 0.3868
-1 15 43 4.1695 0.1902
-1 15 44 0.7358 -0.1247
-1 15 45 -5.5224 -0.1222
-1 15 46 -0.6837 -0.2171
-1 15 47 3.6937 -0.5346
-1 15 48 0.8057 0.7110
-1 15 49 -0.8057 1.9066
-1 15 50 -1.7246 -1.3504
-1 15 51 -1.4218 -3.1324
-1 17 1 0.2677 0.0516
-1 17 2 9.3381 -0.2232
-1 17 3 5.8790 -0.1057
-1 17 4 -11.7150 0.2888
-1 17 5 -9.6193 0.0808
-1 17 6 9.8222 -0.2203
-1 17 7 10.0296 -0.1111
-1 17 8 -3.0727 0.0305
-1 17 9 -9.4095 0.1449
-1 17 10 -4.7651 0.1107
-1 17 11 8.5663 -0.0367
-1 17 12 7.9506 -0.0460
-1 17 13 -6.8287 -0.1084
-1 17 14 -6.1567 -0.1326
-1 17 15 4.8485 0.0963
-1 17 16 3.9152 0.1892
-1 17 17 -3.6943 -0.0123
-1 17 18 -3.6761 -0.0715
-1 17 19 2.6381 0.0247
-1 17 20 4.1732 -0.0572
-1 17 21 -0.8616 -0.0510
-1 17 22 -3.7243 0.0916
-1 17 23 -0.4393 -0.0153
-1 17 24 1.7089 -0.0872
-1 17 25 0.3073 0.0483
-1 17 26 1.2029 0.0935
-1 17 27 -0.0593 0.0315
-1 17 28 -2.9793 -0.0702
-1 17 29 0.6229 -0.0601
-1 17 30 2.5127 -0.0067
-1 17 31 -0.7640 -0.0606
-1 17 32 -1.3915 0.0861
-1 17 33 0.2465 0.1844
-1 17 34 1.3119 -0.1017
-1 17 35 -1.0519 -0.1747
-1 17 36 -1.5783 0.0333
-1 17 37 3.0908 0.0379
-1 17 38 1.0725 0.0682
-1 17 39 -3.0103 0.2273
-1 17 40 -0.4593 -0.1225
-1 17 41 -0.1941 -0.6360
-1 17 42 0.8713 0.1396
-1 17 43 2.8525 1.0501
-1 17 44 -2.0789 -0.1638
-1 17 45 -2.3043 -1.2029
-1 17 46 2.7603 -0.0309
-1 17 47 0.4928 0.9489
-1 17 48 -1.8696 0.8441
-1 17 49 0.1226 -0.4321
-1 19 1 9.4918 -0.0509
-1 19 2 2.1163 -0.2852
-1 19 3 -5.3796 0.0543
-1 19 4 -5.9271 0.1287
-1 19 5 0.4391 0.0461
-1 19 6 6.1745 0.1008
-1 19 7 3.6426 -0.1933
-1 19 8 -4.3038 -0.1998
-1 19 9 -7.2550 0.2647
-1 19 10 2.2166 0.1965
-1 19 11 9.4543 -0.0824
-1 19 12 -0.0575 -0.1468
-1 19 13 -9.2084 -0.2770
-1 19 14 -1.9343 0.0159
-1 19 15 7.2661 0.4142
-1 19 16 1.9710 0.1151
-1 19 17 -4.3069 -0.1142
-1 19 18 0.6304 -0.0720
-1 19 19 0.4712 -0.3112
-1 19 20 -3.7569 -0.1137
-1 19 21 2.9201 0.4376
-1 19 22 5.7713 0.2460
-1 19 23 -4.7073 -0.2416
-1 19 24 -7.4573 -0.2607
-1 19 25 5.7946 -0.0290
-1 19 26 8.6437 0.1996
-1 19 27 -6.6868 0.2306
-1 19 28 -7.1025 -0.0542
-1 19 29 5.8336 -0.3203
-1 19 30 3.0176 -0.1166
-1 19 31 -3.1043 0.2140
-1 19 32 0.1161 0.1462
-1 19 33 1.2908 0.1091
-1 19 34 -0.7606 -0.0221
-1 19 35 -1.6143 -0.4894
-1 19 36 0.7081 -0.0590
-1 19 37 1.3438 0.6861
-1 19 38 -0.6818 -0.0243
-1 19 39 1.7654 -0.5076
-1 19 40 -0.2802 0.2190
-1 19 41 -5.6455 -0.0450
-1 19 42 1.3651 -0.4485
-1 19 43 6.7300 0.5943
-1 19 44 -0.8635 0.6391
-1 19 45 -4.6885 -0.6147
-1 21 1 -3.4011 0.0298
-1 21 2 -0.7384 0.0877
-1 21 3 4.0660 -0.0614
-1 21 4 -0.6065 -0.1161
-1 21 5 -5.0327 0.1196
-1 21 6 0.1589 0.1334
-1 21 7 5.0465 -0.1040
-1 21 8 0.4416 0.0051
-1 21 9 -4.1093 0.0363
-1 21 10 0.4152 -0.1870
-1 21 11 3.7420 0.0526
-1 21 12 -1.3420 0.1437
-1 21 13 -4.6637 -0.1955
-1 21 14 0.7637 0.0598
-1 21 15 4.6715 0.3152
-1 21 16 1.1709 -0.0774
-1 21 17 -1.3848 -0.2447
-1 21 18 -3.5585 -0.1414
-1 21 19 -2.9772 0.0216
-1 21 20 4.7933 0.2652
-1 21 21 3.9702 0.1382
-1 21 22 -3.1235 -0.1202
-1 21 23 -2.1263 -0.1674
-1 21 24 -0.6702 -0.0829
-1 21 25 1.8643 0.1205
-1 21 26 3.4033 0.1070
-1 21 27 -3.4318 0.0430
-1 21 28 -3.5340 0.0555
-1 21 29 3.0139 -0.2769
-1 21 30 2.2686 -0.2841
-1 21 31 -0.4470 0.3060
-1 21 32 -0.4230 0.4188
-1 21 33 -0.5286 -0.0335
-1 21 34 -2.0922 -0.3040
-1 21 35 -0.9035 -0.2178
-1 21 36 3.5524 -0.0499
-1 21 37 1.9613 0.1267
-1 21 38 -1.3652 0.4799
-1 21 39 -1.2234 0.3479
-1 21 40 -3.5238 -0.9423
-1 21 41 -0.5412 -1.1640
-1 21 42 6.7659 1.4583
-1 21 43 2.5246 2.1227
-1 21 44 -6.0944 -1.7345
-1 23 1 2.5418 0.1127
-1 23 2 3.6436 -0.1573
-1 23 3 -3.1287 0.0564
-1 23 4 -3.6729 0.0769
-1 23 5 2.5730 0.0185
-1 23 6 3.2197 0.0777
-1 23 7 -0.6108 -0.1618
-1 23 8 -3.2552 -0.0757
-1 23 9 -0.7835 0.1209
-1 23 10 4.2681 -0.0933
-1 23 11 1.6024 0.0439
-1 23 12 -5.4522 0.1628
-1 23 13 -2.9248 -0.1282
-1 23 14 5.0572 -0.0422
-1 23 15 3.9534 0.1067
-1 23 16 -1.6818 0.0068
-1 23 17 -3.6932 -0.0479
-1 23 18 -2.8739 -0.1958
-1 23 19 3.2100 -0.0645
-1 23 20 3.6873 0.3241
-1 23 21 -3.1644 0.2178
-1 23 22 0.6392 -0.1527
-1 23 23 1.7670 -0.2692
-1 23 24 -4.4080 -0.1874
-1 23 25 2.0652 0.1091
-1 23 26 2.7308 0.4923
-1 23 27 -5.9716 0.2065
-1 23 28 1.2942 -0.6263
-1 23 29 6.7931 -0.5037
-1 23 30 -2.6292 0.3981
-1 23 31 -4.0129 0.5226
-1 23 32 2.1487 0.1290
-1 23 33 -0.5041 -0.0125
-1 23 34 -2.9036 -0.4138
-1 23 35 4.0851 -0.9251
-1 23 36 3.9273 0.1396
-1 23 37 -4.3432 1.6986
-1 23 38 -2.8062 0.2680
-1 23 39 1.2401 -1.7681
-1 23 40 0.0931 -0.4292
-1 25 1 0.5006 -0.1824
-1 25 2 5.8358 0.4125
-1 25 3 -0.0907 0.2749
-1 25 4 -2.1289 -0.4956
-1 25 5 -1.1890 -0.1403
-1 25 6 0.0759 0.2592
-1 25 7 1.3718 -0.0200
-1 25 8 -0.1217 0.0921
-1 25 9 0.1080 -0.0062
-1 25 10 1.0963 -0.2760
-1 25 11 -1.5052 0.0972
-1 25 12 -2.4752 0.1320
-1 25 13 1.5479 -0.0330
-1 25 14 3.2076 0.2346
-1 25 15 -0.6140 -0.0757
-1 25 16 -1.9940 -0.4358
-1 25 17 -0.7875 0.0002
-1 25 18 0.4491 0.1642
-1 25 19 1.7592 0.1439
-1 25 20 -2.0311 0.3628
-1 25 21 -0.8361 -0.1032
-1 25 22 6.1732 -0.5946
-1 25 23 -1.2318 -0.0718
-1 25 24 -7.8530 0.3289
-1 25 25 1.5934 0.1730
-1 25 26 4.8007 0.0729
-1 25 27 -0.1076 -0.0655
-1 25 28 -0.6947 -0.1495
-1 25 29 -0.3660 -0.4497
-1 25 30 -0.5221 -0.2547
-1 25 31 -0.5440 1.3529
-1 25 32 -0.7473 1.0014
-1 25 33 0.2884 -1.8628
-1 25 34 2.1487 -1.7604
-1 25 35 1.2475 1.1507
-1 25 36 -2.4877 2.0927
-1 27 1 6.0553 0.0302
-1 27 2 -0.8425 0.0717
-1 27 3 -5.2434 0.2101
-1 27 4 -0.1198 -0.0197
-1 27 5 4.0010 -0.2701
-1 27 6 0.7203 -0.0270
-1 27 7 -3.5692 0.1248
-1 27 8 -0.2758 0.0383
-1 27 9 3.0906 -0.0477
-1 27 10 0.1386 -0.0855
-1 27 11 -2.0444 0.0810
-1 27 12 -1.2809 0.1933
-1 27 13 1.2632 0.0670
-1 27 14 1.8710 -0.2071
-1 27 15 -0.9206 -0.4006
-1 27 16 -0.4041 0.0542
-1 27 17 0.4120 0.4469
-1 27 18 -1.3060 -0.0046
-1 27 19 -0.5939 -0.0367
-1 27 20 1.2621 0.2772
-1 27 21 2.6894 -0.2326
-1 27 22 -0.3480 -0.5617
-1 27 23 -5.0405 -0.2524
-1 27 24 0.0829 0.4371
-1 27 25 4.9923 1.2674
-1 27 26 -0.5030 0.0062
-1 27 27 -3.4066 -1.9593
-1 27 28 1.3439 -0.5304
-1 27 29 2.9716 1.6611
-1 27 30 -2.3538 1.2315
-1 27 31 -3.3396 -0.4158
-1 27 32 2.5014 -1.9279
-1 29 1 -0.7131 -0.1205
-1 29 2 5.3329 0.6676
-1 29 3 0.2883 0.4361
-1 29 4 -3.1897 -0.7191
-1 29 5 -0.9377 -0.3260
-1 29 6 0.7285 -0.0484
-1 29 7 2.6556 -0.1641
-1 29 8 0.4689 0.8797
-1 29 9 -3.7310 0.3938
-1 29 10 0.6852 -0.9393
-1 29 11 2.4011 -0.0736
-1 29 12 -2.6872 0.3362
-1 29 13 0.0959 -0.1994
-1 29 14 2.7658 0.2468
-1 29 15 -0.7472 -0.2161
-1 29 16 -0.7144 -0.5788
-1 29 17 -0.6103 0.9342
-1 29 18 -1.1874 0.8388
-1 29 19 1.3194 -0.9851
-1 29 20 1.8289 -0.8320
-1 29 21 -0.5274 0.2244
-1 29 22 -1.8037 0.0671
-1 29 23 0.0005 0.5000
-1 29 24 1.3103 1.4343
-1 29 25 -0.4470 -0.6214
-1 29 26 -0.6155 -2.9537
-1 29 27 0.5791 0.4111
-1 31 1 4.9354 0.2716
-1 31 2 1.9494 0.3333
-1 31 3 -3.8356 -0.5689
-1 31 4 -2.5917 -0.4121
-1 31 5 1.2658 -0.0381
-1 31 6 4.3429 -0.2027
-1 31 7 1.0231 0.9481
-1 31 12 -2.3132 -0.8806
-1 31 13 2.7881 0.7427
-1 31 14 -0.1899 0.9575
-1 31 15 -2.1180 -1.6619
-1 31 16 0.6514 0.2766
-1 31 17 -0.2460 2.2385
-1 31 18 -0.2358 -1.5655
-1 31 19 1.7710 -2.3353
0 0 4 458.9609 5.4143
0 0 6 -186.8835 -3.0250
0 0 8 93.6218 -0.7474
0 0 10 -112.6345 3.1413
0 0 12 121.7155 -3.0637
0 0 14 -85.5032 1.5220
0 0 16 45.6878 -0.2905
0 0 18 -30.8917 0.2980
0 0 20 29.8018 -1.1041
0 0 22 -27.3651 1.6921
0 0 24 22.2870 -1.6089
0 0 26 -16.1685 1.2329
0 0 28 10.4475 -1.0574
0 0 30 -8.4418 1.0742
0 0 32 9.5475 -0.9956
0 0 34 -9.1744 0.7679
0 0 36 6.7787 -0.5895
0 0 38 -4.9974 0.5701
0 0 40 3.2501 -0.6040
0 0 42 -0.4460 0.5351
0 0 44 -0.9303 -0.3231
0 0 46 -0.3539 0.0936
0 0 48 1.2160 -0.0965
0 0 50 0.4495 0.5458
0 0 52 -2.9450 -1.3918
0 0 54 4.1981 2.2467
0 0 56 -3.6316 -2.6004
0 2 2 -148.4818 -1.1533
0 2 4 45.6457 1.0279
0 2 6 38.1370 -0.3916
0 2 7 -12.5450 0.8801
0 2 8 -58.8838 -0.4957
0 2 9 -0.3977 1.1541
0 2 10 33.9339 1.2359
0 2 11 40.0403 -1.3937
0 2 12 -6.6957 -1.1606
0 2 13 -42.8643 0.3328
0 2 14 -2.4226 0.3016
0 2 15 21.9885 0.6764
0 2 16 1.9121 0.4272
0 2 17 -9.5150 -0.7277
0 2 18 -2.8615 -0.4407
0 2 19 7.5313 -0.0005
0 2 20 5.8061 0.0660
0 2 21 -4.7211 0.6187
0 2 22 -7.9630 0.1857
0 2 23 0.7868 -0.5217
0 2 24 8.0153 -0.2034
0 2 25 0.4373 -0.0210
0 2 26 -4.6617 0.1208
0 2 27 0.1950 0.3506
0 2 28 -1.0153 -0.0438
0 2 29 -1.9123 -0.2503
0 2 30 3.9054 -0.0538
0 2 31 4.3787 0.0140
0 2 32 -0.7251 0.2248
0 2 33 -4.5208 0.0929
0 2 34 -5.4016 -0.3080
0 2 35 1.6243 -0.0825
0 2 36 9.0395 0.0866
0 2 37 0.1286 0.0813
0 2 38 -8.0983 0.2393
0 2 39 0.8655 -0.1886
0 2 40 4.2458 -0.2388
0 2 41 -1.3925 0.3987
0 2 42 -0.4884 -0.0552
0 2 43 0.3877 -0.5088
0 2 44 -1.1272 0.2375
0 2 45 -0.0351 0.2679
0 2 46 1.0000 -0.2271
0 2 47 0.3728 0.2593
0 2 48 -1.0260 0.2146
0 2 49 0.3942 -0.6506
0 2 50 1.9053 -0.1299
0 2 51 -2.0711 0.5680
0 2 52 -2.4900 -0.1839
0 2 53 3.3750 -0.1184
0 2 54 1.7310 0.5265
0 2 55 -3.8586 -0.2955
0 2 56 -0.0336 -0.6080
0 2 57 3.0829 0.3733
0 4 0 72.9002 -0.0515
0 4 1 -131.3675 -1.4165
0 4 2 -101.0302 0.5847
0 4 3 71.7947 1.7883
0 4 4 152.2109 -0.3708
0 4 5 0.3594 -1.1669
0 4 6 -165.8609 -0.3498
0 4 7 -34.5443 0.1977
0 4 8 122.7825 0.7690
0 4 9 21.8510 0.4860
0 4 10 -59.5678 -0.4913
0 4 11 6.5437 -0.4025
0 4 12 18.1330 -0.0943
0 4 13 -21.9545 -0.3084
0 4 14 -4.0804 0.3826
0 4 15 23.5014 0.7963
0 4 16 1.6204 -0.1643
0 4 17 -21.4788 -0.5398
0 4 18 -4.2434 -0.2735
0 4 19 18.2590 0.0066
0 4 20 13.1011 0.4139
0 4 21 -13.4611 0.1468
0 4 22 -22.3217 -0.0102
0 4 23 10.2290 0.0799
0 4 24 23.7872 -0.5444
0 4 25 -8.6345 -0.2932
0 4 26 -17.6656 0.6192
0 4 27 4.9698 0.2807
0 4 28 8.9761 -0.1701
0 4 29 -0.3638 -0.1395
0 4 30 -1.7220 -0.2429
0 4 31 -0.0777 0.1029
0 4 32 -0.6252 0.2677
0 4 33 -3.5701 -0.2306
0 4 34 -2.3532 -0.0816
0 4 35 6.1156 0.2714
0 4 36 5.0449 -0.1033
0 4 37 -4.8796 -0.0433
0 4 38 -2.6609 0.2994
0 4 39 1.5677 -0.2326
0 4 40 -1.9039 -0.4462
0 4 41 1.1459 0.2757
0 4 42 3.6362 0.3552
0 4 43 -1.6483 -0.1073
0 4 44 -2.6789 -0.0721
0 4 45 0.2198 -0.1635
0 4 46 1.6565 -0.0699
0 4 47 1.0844 0.4635
0 4 48 -1.1054 -0.1226
0 4 49 -0.8955 -0.5406
0 4 50 0.4631 0.4370
0 4 51 0.0495 0.1852
0 4 52 0.5040 -0.5046
0 4 53 0.2936 0.3043
0 4 54 -1.9810 0.2200
0 4 55 -0.1732 -0.4452
0 4 56 3.1804 0.1392
0 4 57 -0.0610 0.2515
0 6 0 37.2190 -0.1621
0 6 1 -116.3566 -0.3909
0 6 2 -35.1950 0.5497
0 6 3 123.4407 0.6108
0 6 4 31.3879 -0.2854
0 6 5 -117.5838 -0.6374
0 6 6 -26.0356 -0.2841
0 6 7 85.8559 0.3668
0 6 8 14.3186 0.6613
0 6 9 -40.0255 -0.0012
0 6 10 2.7739 -0.4762
0 6 11 2.8432 -0.0850
0 6 12 -16.2159 -0.1986
0 6 13 14.9291 -0.1649
0 6 14 21.3702 0.6745
0 6 15 -17.0825 0.4365
0 6 16 -20.8987 -0.4213
0 6 17 9.9175 -0.4927
0 6 18 16.1534 -0.1260
0 6 19 1.7582 0.3257
0 6 20 -7.7809 0.1909
0 6 21 -11.3486 0.0184
0 6 22 1.1590 0.2237
0 6 23 13.4934 -0.3428
0 6 24 -0.3852 -0.4755
0 6 25 -9.1389 0.2614
0 6 26 2.0049 0.2312
0 6 27 2.5700 0.2656
0 6 28 -1.9569 0.2221
0 6 29 3.2562 -0.6688
0 6 30 1.5079 -0.4106
0 6 31 -5.9631 0.5181
0 6 32 -1.8503 0.1787
0 6 33 4.2092 -0.1460
0 6 34 0.9633 0.1610
0 6 35 -1.0439 0.0510
0 6 36 1.5078 -0.2207
0 6 37 1.0702 -0.1284
0 6 38 -3.0717 0.0425
0 6 39 -3.5901 0.0154
0 6 40 2.5842 0.0561
0 6 41 4.1118 0.1851
0 6 42 -0.8729 -0.0044
0 6 43 -1.8636 -0.0742
0 6 44 -1.3303 -0.0592
0 6 45 0.2800 -0.3518
0 6 46 3.1310 0.1157
0 6 47 -1.1067 0.6538
0 6 48 -3.4815 -0.1291
0 6 49 2.5488 -0.5960
0 6 50 2.6373 -0.0985
0 6 51 -2.3851 0.5106
0 6 52 -1.4604 0.5676
0 6 53 0.2972 -0.8345
0 6 54 -0.0497 -0.9590
0 6 55 2.0093 1.4222
0 6 56 1.6786 1.1020
0 8 0 70.5765 0.4363
0 8 1 -53.6964 -0.0182
0 8 2 -54.0366 -0.3646
0 8 3 36.5837 0.0077
0 8 4 20.5864 0.2617
0 8 5 -20.5123 -0.1969
0 8 6 1.1732 -0.3682
0 8 7 14.3254 0.4629
0 8 8 -1.5011 0.6010
0 8 9 -10.3448 -0.5763
0 8 10 -7.9345 -0.5859
0 8 11 3.3679 0.2997
0 8 12 13.9625 0.2451
0 8 13 2.0471 0.1730
0 8 14 -12.8729 0.0097
0 8 15 -2.3824 -0.3074
0 8 16 6.7200 0.0893
0 8 17 -0.6545 0.0266
0 8 18 0.2058 -0.2893
0 8 19 4.7653 0.1594
0 8 20 -2.3827 0.3200
0 8 21 -7.6765 -0.0002
0 8 22 -2.2533 -0.2481
0 8 23 6.9639 -0.1472
0 8 24 9.1154 0.1338
0 8 25 -3.2596 -0.0402
0 8 26 -12.2597 0.0720
0 8 27 -0.4297 0.3770
0 8 28 10.9146 -0.1603
0 8 29 2.5788 -0.4503
0 8 30 -8.0966 -0.1521
0 8 31 -2.6799 0.1101
0 8 32 5.7958 0.6000
0 8 33 0.1749 0.3436
0 8 34 -4.3687 -0.5970
0 8 35 2.9769 -0.4604
0 8 36 3.8959 0.1290
0 8 37 -3.1725 0.1956
0 8 38 -3.4955 0.2156
0 8 39 0.3812 0.0385
0 8 40 1.4375 -0.1450
0 8 41 2.1159 0.0078
0 8 42 2.1254 -0.0017
0 8 43 -2.9859 -0.1300
0 8 44 -4.3805 -0.0762
0 8 45 3.3768 0.1209
0 8 46 3.2431 0.1402
0 8 47 -3.6533 -0.0419
0 8 48 -0.1015 0.1573
0 8 49 3.3152 -0.0666
0 8 50 -1.8308 -0.6121
0 8 51 -2.4627 0.2886
0 8 52 1.0444 0.6092
0 8 53 1.3259 -0.5938
0 8 54 0.9530 0.0332
0 8 55 -0.0998 0.8441
0 10 0 36.2588 0.1657
0 10 1 -64.9695 -0.1181
0 10 2 -37.0105 -0.3483
0 10 3 34.6046 -0.1766
0 10 4 33.5687 0.4163
0 10 5 -3.0158 0.4139
0 10 6 -21.2898 -0.3559
0 10 7 -7.8764 -0.3365
0 10 8 8.8519 0.1891
0 10 9 2.3696 0.1009
0 10 10 -5.5828 -0.0931
0 10 11 5.6111 -0.0254
0 10 12 7.5428 0.1999
0 10 13 -9.5350 0.0693
0 10 14 -6.1715 -0.3029
0 10 15 8.4415 0.0075
0 10 16 1.0880 0.1743
0 10 17 -3.3407 -0.1273
0 10 18 2.9186 0.0168
0 10 19 -0.6383 0.0562
0 10 20 -3.7043 -0.0184
0 10 21 -1.9071 0.1189
0 10 22 1.8674 -0.0647
0 10 23 8.5108 -0.1819
0 10 24 1.5662 0.0191
0 10 25 -10.8666 0.1782
0 10 26 -5.1718 0.0837
0 10 27 5.5907 -0.1729
0 10 28 7.4036 -0.0326
0 10 29 1.8147 0.0168
0 10 30 -7.2430 -0.1904
0 10 31 -4.3169 0.2504
0 10 32 4.6418 0.3650
0 10 33 1.2428 -0.2516
0 10 34 -1.5391 -0.2375
0 10 35 2.4973 -0.0985
0 10 36 0.8147 -0.1751
0 10 37 -3.0268 0.3284
0 10 38 -2.5416 0.5016
0 10 39 1.0251 -0.1237
0 10 40 3.7466 -0.4360
0 10 41 0.9238 -0.1752
0 10 42 -2.9506 0.1504
0 10 43 -1.7439 0.1438
0 10 44 1.7508 -0.0114
0 10 45 1.6549 0.0384
0 10 46 -1.4903 0.0470
0 10 47 -0.8161 0.1467
0 10 48 1.6653 -0.0065
0 10 49 -0.3268 -0.7734
0 10 50 -1.6408 -0.2125
0 10 51 0.7911 1.2958
0 10 52 1.4376 0.4540
0 10 53 -0.3049 -1.2056
0 10 54 -1.2452 -0.5047
0 12 0 15.4399 0.0046
0 12 1 -45.7310 0.1320
0 12 2 -22.4340 0.0145
0 12 3 36.9431 -0.1011
0 12 4 31.6274 0.0765
0 12 5 -22.1958 0.1252
0 12 6 -26.4885 -0.1562
0 12 7 10.0601 -0.1842
0 12 8 9.8165 0.1280
0 12 12 -10.3171 0.1252
0 12 13 -16.7781 0.0320
0 12 14 9.9659 -0.1113
0 12 15 13.4030 -0.0796
0 12 16 -4.5260 0.0357
0 12 17 -8.1797 0.2002
0 12 18 -3.1458 -0.0455
0 12 19 5.7705 -0.1442
0 12 20 6.4101 0.0980
0 12 21 -6.4245 -0.0481
0 12 22 -2.9415 0.0186
0 12 23 8.0991 0.1062
0 12 24 -1.0280 -0.2329
0 12 25 -8.7376 -0.0094
0 12 26 -0.6376 0.2533
0 12 27 7.2457 -0.0084
0 12 28 5.5729 -0.0740
0 12 29 -4.4959 -0.1133
0 12 30 -6.7736 -0.0846
0 12 31 2.6697 0.1628
0 12 32 2.2717 0.2162
0 12 33 -2.7987 0.0186
0 12 34 2.6257 -0.3883
0 12 35 3.7220 -0.2963
0 12 36 -2.8920 0.3804
0 12 37 -3.6961 0.3559
0 12 38 0.2767 -0.0173
0 12 39 2.4053 -0.0546
0 12 40 0.3021 -0.3515
0 12 41 -1.0453 -0.3578
0 12 42 1.7843 0.2503
0 12 43 0.5860 0.4804
0 12 44 -3.0613 0.2022
0 12 45 -0.6424 -0.2173
0 12 46 1.9235 -0.4584
0 12 47 0.4808 -0.1435
0 12 48 -0.2122 0.3327
0 12 49 -0.1791 0.2579
0 12 50 -0.3190 -0.1799
0 12 51 0.0188 -0.0334
0 12 52 -0.2034 0.2792
0 14 0 8.6473 0.0840
0 14 1 -41.5433 0.2619
0 14 2 -10.0800 0.0506
0 14 3 37.6083 -0.3851
0 14 4 12.8854 -0.0759
0 14 5 -24.6999 0.3284
0 14 6 -13.5167 -0.0255
0 14 7 7.0515 -0.2184
0 14 8 9.4851 0.1294
0 14 9 3.3726 0.1512
0 14 10 -2.6337 -0.0650
0 14 11 -3.0368 -0.0941
0 14 12 -2.1186 -0.1262
0 14 13 -1.4124 0.0623
0 14 14 2.2280 0.1745
0 14 15 5.4374 -0.0997
0 14 16 -0.0690 -0.0007
0 14 17 -9.1506 0.1095
0 14 18 -0.7413 -0.1111
0 14 19 10.7515 -0.0254
0 14 20 -0.4697 -0.0153
0 14 21 -7.6789 0.0180
0 14 22 1.8393 0.1398
0 14 23 2.2109 -0.1917
0 14 24 -1.5250 -0.0269
0 14 25 1.0990 0.3111
0 14 26 -0.9896 -0.1630
0 14 27 -1.7370 -0.1701
0 14 28 4.2066 0.1709
0 14 29 2.6007 -0.0612
0 14 30 -4.9461 -0.0508
0 14 31 -4.6524 0.1458
0 14 32 1.6976 0.0193
0 14 33 5.3974 -0.1004
0 14 34 2.4297 -0.0741
0 14 35 -2.7813 -0.0123
0 14 36 -2.9930 0.0034
0 14 37 -1.1683 0.2160
0 14 38 0.2746 0.2608
0 14 39 2.3067 -0.3658
0 14 40 1.3273 -0.4982
0 14 41 0.3219 0.1971
0 14 42 0.1265 0.4837
0 14 43 -3.4615 0.1803
0 14 44 -1.9577 -0.2375
0 14 45 4.1386 -0.2856
0 14 46 1.6520 -0.1484
0 14 47 -2.6225 0.0011
0 14 48 -0.0596 0.6857
0 14 49 0.7415 0.1503
0 14 50 -1.0453 -1.2390
0 14 51 0.2104 0.2009
0 16 0 -12.6193 -0.0810
0 16 1 -26.0089 0.2930
0 16 2 11.8628 0.1554
0 16 3 19.3348 -0.3585
0 16 4 -7.5460 -0.2738
0 16 5 -9.1586 0.2305
0 16 6 -0.4703 0.3301
0 16 7 0.5471 -0.0377
0 16 8 6.0012 -0.2315
0 16 9 2.9399 0.0223
0 16 10 -5.0321 0.0830
0 16 11 -1.6408 -0.2103
0 16 12 1.3848 -0.0177
0 16 13 -1.6678 0.2986
0 16 14 0.7390 -0.0302
0 16 15 4.3763 -0.0665
0 16 16 -2.2475 0.1265
0 16 17 -5.1183 -0.2378
0 16 18 4.1680 -0.1307
0 16 19 4.2079 0.2179
0 16 20 -4.5901 -0.0397
0 16 21 -3.1844 0.0839
0 16 22 2.7630 0.1979
0 16 23 2.9095 -0.2665
0 16 24 -0.4812 -0.1843
0 16 25 -3.0089 0.1576
0 16 26 -1.2994 0.0946
0 16 27 3.2901 0.0189
0 16 28 2.9250 -0.0349
0 16 29 -3.5451 -0.0381
0 16 30 -3.7466 -0.0557
0 16 31 2.5830 -0.0504
0 16 32 2.8043 0.2021
0 16 33 -0.4533 0.0908
0 16 34 -0.9809 -0.2906
0 16 35 0.0584 -0.0573
0 16 36 0.0955 0.2540
0 16 37 -2.9091 -0.0048
0 16 38 -0.5792 -0.1154
0 16 39 5.5838 0.1413
0 16 40 1.5356 -0.1403
0 16 41 -4.3617 -0.3626
0 16 42 -2.4264 0.4443
0 16 43 0.7523 0.4362
0 16 44 3.3471 -0.4454
0 16 45 1.2485 -0.1911
0 16 46 -3.8215 -0.1413
0 16 47 -0.6386 0.0106
0 16 48 2.8350 0.9588
0 16 49 -0.8695 -0.4444
0 16 50 -0.6446 -1.2839
0 18 0 -4.9265 -0.1943
0 18 1 -21.4609 0.0917
0 18 2 2.5502 0.1702
0 18 3 15.4306 -0.0790
0 18 4 3.6088 -0.1641
0 18 5 -9.5518 0.0266
0 18 6 -10.2582 0.2481
0 18 7 7.0616 0.0774
0 18 8 13.4193 -0.2876
0 18 9 -6.0056 -0.1488
0 18 10 -12.1821 0.1587
0 18 11 5.1237 0.0450
0 18 12 8.7123 -0.0013
0 18 13 -5.0465 0.1476
0 18 14 -4.9313 0.0335
0 18 15 4.7260 -0.1448
0 18 16 1.8098 -0.1906
0 18 17 -2.5735 -0.0687
0 18 18 -0.2867 0.2103
0 18 19 -0.1703 0.1544
0 18 20 0.4263 -0.0408
0 18 21 1.4110 0.0425
0 18 22 -1.5994 -0.0975
0 18 23 -1.4469 -0.2330
0 18 24 4.0021 0.0399
0 18 25 1.3649 0.1314
0 18 26 -7.0391 0.1492
0 18 27 -1.0157 0.1526
0 18 28 7.6236 -0.3035
0 18 29 0.5930 -0.3234
0 18 30 -4.1605 0.3119
0 18 31 -1.0752 0.2527
0 18 32 -0.2186 -0.1871
0 18 33 1.7703 -0.0077
0 18 34 2.3827 0.0380
0 18 35 -0.7469 -0.2718
0 18 36 -3.5997 0.0504
0 18 37 -1.4250 0.4407
0 18 38 5.6271 -0.0454
0 18 39 1.8728 -0.4516
0 18 40 -6.7226 -0.0880
0 18 41 -0.1283 0.4042
0 18 42 4.9192 0.2352
0 18 43 -0.9551 -0.3288
0 18 44 -1.5523 -0.0313
0 18 45 -0.0721 0.0156
0 18 46 -0.7918 -0.6334
0 18 47 1.1449 0.6343
0 18 48 1.1487 1.1551
0 20 0 -15.0560 -0.2514
0 20 1 -9.4911 0.0629
0 20 2 12.0261 0.2855
0 20 3 6.7603 0.1409
0 20 4 -6.1712 -0.1944
0 20 5 -4.5361 -0.2634
0 20 6 2.2333 0.1201
0 20 7 4.1115 0.1981
0 20 8 -0.3759 -0.1760
0 20 9 -3.9659 -0.0856
0 20 10 -1.2655 0.2506
0 20 11 3.0023 0.0284
0 20 12 2.0674 -0.1594
0 20 13 -1.2160 -0.0084
0 20 14 -0.9319 -0.0122
0 20 15 -0.9447 0.0634
0 20 16 -0.7636 0.0128
0 20 17 2.1030 -0.2173
0 20 18 1.7154 0.1468
0 20 19 -1.2908 0.2736
0 20 20 -2.9049 -0.1977
0 20 21 -0.5921 -0.0396
0 20 22 4.6517 0.0497
0 20 23 3.1217 -0.2992
0 20 24 -5.0073 0.0828
0 20 25 -7.1836 0.3977
0 20 26 3.2518 -0.0352
0 20 27 10.8733 -0.2340
0 20 28 -1.4753 -0.0719
0 20 29 -9.7497 0.0335
0 20 30 1.1400 0.0236
0 20 31 4.0704 0.1001
0 20 32 -1.4530 0.2168
0 20 33 0.2622 -0.1740
0 20 34 1.7588 -0.4824
0 20 35 -0.3908 0.1886
0 20 36 -2.0605 0.5468
0 20 37 -0.1464 -0.2341
0 20 38 1.3916 -0.2737
0 20 39 -1.5240 0.3752
0 20 40 0.7513 -0.2576
0 20 41 3.3208 -0.4237
0 20 42 -2.2896 0.7680
0 20 43 -2.6268 0.2804
0 20 44 1.3500 -1.0330
0 20 45 0.2744 -0.3150
0 22 0 -4.2377 -0.0372
0 22 1 -7.4191 0.2843
0 22 2 2.0064 0.1070
0 22 3 8.6760 0.0559
0 22 4 1.8480 -0.1453
0 22 5 -8.7768 -0.4575
0 22 6 -3.5119 0.0477
0 22 7 7.1629 0.5917
0 22 8 3.3848 0.0665
0 22 9 -5.7102 -0.3238
0 22 10 -3.2603 -0.0953
0 22 11 4.7957 -0.0945
0 22 12 2.9558 0.1213
0 22 13 -2.8216 0.2639
0 22 14 -1.9984 -0.1471
0 22 15 0.1258 -0.0661
0 22 16 0.8041 0.0202
0 22 17 1.2153 -0.2485
0 22 18 0.3452 0.1821
0 22 19 -1.9336 0.3669
0 22 20 -0.9737 -0.1393
0 22 21 4.5203 -0.2314
0 22 22 0.6707 -0.1274
0 22 23 -7.2533 0.0508
0 22 24 -0.8484 0.1666
0 22 25 5.5567 -0.0275
0 22 26 2.7863 0.2082
0 22 27 0.0411 0.1394
0 22 28 -4.0916 -0.6541
0 22 29 -3.6869 -0.2230
0 22 30 1.9803 0.8294
0 22 31 2.5044 0.1646
0 22 32 1.1377 -0.6446
0 22 33 0.6281 0.0725
0 22 34 -1.0334 0.0748
0 22 35 -2.4368 -0.4872
0 22 36 -1.1977 0.6426
0 22 37 2.3529 1.0037
0 22 38 1.1897 -0.8701
0 22 39 -1.0680 -1.4729
0 22 40 1.3712 0.3307
0 22 41 -0.1023 1.7488
0 22 42 -2.8483 0.3609
0 24 0 -9.0280 0.1552
0 24 1 1.6846 0.0409
0 24 2 10.1333 -0.0975
0 24 3 1.0488 0.0344
0 24 4 -11.7105 -0.0136
0 24 5 -3.1149 -0.1856
0 24 6 11.0210 0.1032
0 24 7 3.4305 0.2945
0 24 8 -8.0881 -0.0768
0 24 9 -3.3066 -0.2105
0 24 10 5.1483 -0.1087
0 24 11 2.2710 0.0318
0 24 12 -3.2996 0.3324
0 24 13 0.5966 0.0277
0 24 14 2.3988 -0.3365
0 24 15 -3.2760 0.0225
0 24 16 -2.9703 0.0111
0 24 17 3.4261 -0.0585
0 24 18 4.3771 0.3340
0 24 19 -1.9444 0.1148
0 24 20 -3.1774 -0.2258
0 24 21 0.8449 -0.1973
0 24 22 -1.6462 -0.3270
0 24 23 -0.4328 0.1019
0 24 24 4.7220 0.7436
0 24 25 0.1658 0.1902
0 24 26 -1.5239 -0.5808
0 24 27 0.4916 -0.2993
0 24 28 -3.9586 0.0163
0 24 29 -2.1650 0.0038
0 24 30 5.0253 0.4684
0 24 31 4.0536 0.4729
0 24 32 -1.7739 -0.4929
0 24 33 -3.7438 -1.0066
0 24 34 -1.0437 -0.1344
0 24 35 0.8756 1.6797
0 24 36 1.5314 1.2325
0 24 37 1.3771 -2.0822
0 24 38 -0.9968 -2.1348
0 24 39 -0.7298 1.4844
0 26 0 1.1724 0.4024
0 26 1 0.9468 -0.0826
0 26 2 -0.7851 -0.2892
0 26 3 -2.1351 0.1473
0 26 4 0.7940 0.0355
0 26 5 2.3727 -0.2353
0 26 6 -1.8602 0.1066
0 26 7 -0.4601 0.2359
0 26 8 2.1622 -0.0415
0 26 9 -1.5716 -0.0643
0 26 10 -1.1946 -0.0831
0 26 11 1.0240 -0.1554
0 26 12 1.1029 0.1057
0 26 13 1.4909 0.2213
0 26 14 -2.0908 -0.0560
0 26 15 -3.3963 -0.1428
0 26 16 1.4775 -0.0097
0 26 17 3.7910 0.0256
0 26 18 1.0795 0.1733
0 26 19 -2.5185 0.2288
0 26 20 -2.4990 -0.3869
0 26 21 -1.3034 -0.6766
0 26 22 1.5652 0.3252
0 26 23 6.2231 0.9200
0 26 24 -0.6353 0.0653
0 26 25 -8.1130 -0.5023
0 26 26 1.3658 -0.1855
0 26 27 6.2259 -0.4082
0 26 28 -2.6885 -0.4760
0 26 29 -4.6577 1.2377
0 26 30 3.2541 1.5218
0 26 31 5.4120 -1.6267
0 26 32 -2.7867 -2.1735
0 26 33 -5.6817 1.3836
0 26 34 1.3181 2.2423
0 26 35 3.6070 -0.3839
0 28 0 -2.0697 0.0817
0 28 1 4.7316 -0.2004
0 28 2 1.8930 -0.0420
0 28 3 -1.0656 -0.3897
0 28 4 -1.7352 -0.0694
0 28 5 -4.5107 0.6729
0 28 6 2.3081 0.0781
0 28 7 8.1966 -0.2185
0 28 8 -3.1316 0.1460
0 28 9 -7.3996 -0.3722
0 28 10 2.2001 -0.4798
0 28 11 4.1387 0.3752
0 28 12 0.7187 0.6065
0 28 13 -2.1752 0.0476
0 28 14 -2.4846 -0.4194
0 28 15 1.8843 -0.2508
0 28 16 1.0251 0.1719
0 28 17 -1.2889 0.1154
0 28 20 -3.5041 0.1219
0 28 21 -0.2339 -0.1895
0 28 22 5.0596 -0.4163
0 28 23 0.1743 0.6470
0 28 24 -6.5428 1.1960
0 28 25 1.0661 -1.1199
0 28 26 6.5418 -2.1667
0 28 27 -2.1453 0.9286
0 28 28 -5.1936 2.5667
0 28 29 1.2835 -0.0091
0 28 30 4.2106 -2.1352
0 30 0 2.4743 -0.3190
0 30 1 2.2097 -0.4683
0 30 2 -0.5982 -0.1482
0 30 3 -0.7527 -0.0659
0 30 4 -3.3484 0.6701
0 30 5 -1.4426 0.4263
0 30 6 5.7603 -0.2607
0 30 7 3.2291 -0.2481
0 30 8 -4.4041 -0.6915
0 30 9 -4.5597 -0.0938
0 30 10 0.7296 0.8811
0 30 11 6.1766 -0.0189
0 30 12 1.5860 0.0410
0 30 13 -6.9770 0.5911
0 30 14 -0.7677 -1.0284
0 30 15 4.9087 -0.9207
0 30 16 -1.4223 1.1762
0 30 17 -1.1001 0.4673
0 30 18 2.6839 -0.6945
0 30 19 -1.0017 0.4983
0 30 20 -2.8639 0.0801
0 30 21 0.8013 -1.4051
0 30 22 2.5423 0.6487
0 30 23 -0.5917 2.1195
0 30 24 -1.4813 -1.4269
0 32 0 2.7615 -0.6754
0 32 1 -0.8811 0.2483
0 32 2 -1.7950 0.2735
0 32 3 -0.1715 0.0515
0 32 4 -0.3152 0.2360
0 32 5 0.0509 0.0754
0 32 6 1.9058 -0.1210
0 32 7 2.1924 -0.7456
0 32 8 -2.3220 -0.3971
0 32 9 -4.8342 1.0215
0 32 10 2.6882 0.3898
0 32 11 5.6847 -0.1839
0 32 12 -3.6063 0.4838
0 32 13 -4.2716 -1.1368
1 1 0 -179.9871 1.5010
1 1 1 212.9786 0.4809
1 1 2 152.4604 -1.1853
1 1 3 -139.6734 -1.1211
1 1 4 -15.5303 0.4815
1 1 5 43.1696 1.6520
1 1 6 -92.2491 0.3080
1 1 7 -3.6899 -1.5310
1 1 8 97.6997 -0.4160
1 1 9 23.9565 1.0359
1 1 10 -43.9013 -0.3928
1 1 11 -51.3566 -0.5197
1 1 12 9.4649 1.1358
1 1 13 50.3325 0.1586
1 1 14 -18.2264 -0.8613
1 1 15 -30.2561 -0.1685
1 1 16 40.9710 -0.0131
1 1 17 13.9653 0.4690
1 1 18 -50.8545 0.3730
1 1 19 -8.2221 -0.5456
1 1 20 45.4374 0.0924
1 1 21 8.5881 0.2352
1 1 22 -30.8298 -0.6874
1 1 23 -11.5644 -0.0662
1 1 24 13.5278 0.7119
1 1 25 14.0339 0.3904
1 1 26 -2.5245 -0.2227
1 1 27 -12.9702 -0.8180
1 1 28 1.7055 -0.1843
1 1 29 9.5875 0.8284
1 1 30 -4.6929 0.1369
1 1 31 -6.6892 -0.4139
1 1 32 5.2217 0.1653
1 1 33 3.5318 -0.0316
1 1 34 -4.4166 -0.3692
1 1 35 0.9065 0.1242
1 1 36 4.1163 0.4095
1 1 37 -4.0316 0.1579
1 1 38 -2.8498 -0.3705
1 1 39 3.9307 -0.3926
1 1 40 0.5094 0.2654
1 1 41 -2.6425 0.2173
1 1 42 0.9539 -0.1729
1 1 43 2.1118 0.1082
1 1 44 -1.4150 0.2642
1 1 45 -1.6434 -0.0327
1 1 46 1.8593 -0.5003
1 1 47 0.5812 -0.4636
1 1 48 -1.9034 0.5683
1 1 49 0.5267 0.7861
1 1 50 1.1267 -0.2217
1 1 51 -1.2965 -0.3982
1 1 52 -0.0791 -0.4949
1 1 53 1.4389 -0.7055
1 1 54 -0.9743 1.3140
1 1 55 -0.6472 2.0486
1 1 56 1.7661 -1.8746
1 1 57 -0.2908 -2.9571
1 3 0 76.9118 0.3503
1 3 1 40.8832 0.3489
1 3 2 -43.7676 -0.6398
1 3 3 62.7206 -0.4706
1 3 4 3.1396 0.6925
1 3 5 -171.2712 0.4986
1 3 6 12.0910 -0.2607
1 3 7 196.3807 -0.4016
1 3 8 3.5197 -0.1976
1 3 9 -140.7513 0.0276
1 3 10 -28.6633 0.2624
1 3 11 71.6942 0.2899
1 3 12 43.6885 -0.1006
1 3 13 -37.7578 0.0072
1 3 14 -46.8416 -0.1030
1 3 15 34.0364 -0.7106
1 3 16 44.6868 0.4123
1 3 17 -36.9044 0.9383
1 3 18 -39.5331 -0.6597
1 3 19 37.3971 -0.3643
1 3 20 30.6094 0.5577
1 3 21 -34.8945 -0.2921
1 3 22 -19.5371 -0.2875
1 3 23 26.9430 0.2037
1 3 24 9.6853 0.2344
1 3 25 -16.4345 0.5364
1 3 26 -3.6182 -0.3444
1 3 27 11.0525 -1.0653
1 3 28 2.3599 0.3454
1 3 29 -10.8178 0.7956
1 3 30 -3.9324 -0.2519
1 3 31 9.2434 -0.0530
1 3 32 3.6776 0.2035
1 3 33 -5.2257 -0.4153
1 3 34 0.3540 -0.1974
1 3 35 2.3105 0.3061
1 3 36 -4.4136 0.2189
1 3 37 -0.6148 0.1078
1 3 38 4.6972 -0.2556
1 3 39 -1.4462 -0.4655
1 3 40 -2.7984 0.1618
1 3 41 2.6460 0.6091
1 3 42 2.3232 0.1246
1 3 43 -1.8313 -0.5564
1 3 44 -3.5160 -0.3422
1 3 45 0.2754 0.4458
1 3 46 4.2371 0.1989
1 3 47 0.9523 -0.3884
1 3 48 -3.4161 0.2316
1 3 49 -1.6720 0.2879
1 3 50 1.4735 -0.5743
1 3 51 1.3733 0.0009
1 3 52 0.5513 0.4752
1 3 53 -0.4403 -0.3727
1 3 54 -1.4612 0.1305
1 3 55 0.2612 0.5938
1 3 56 1.0295 -0.8919
1 3 57 -0.6817 -0.6225
1 5 0 27.1428 0.3744
1 5 1 20.8930 0.0750
1 5 2 47.4907 -0.4592
1 5 3 -37.4241 -0.0480
1 5 4 -121.2408 0.1366
1 5 5 43.6406 0.2300
1 5 6 146.5368 0.3376
1 5 7 -31.0308 -0.3891
1 5 8 -114.4081 -0.7014
1 5 9 8.0691 0.2884
1 5 10 56.3495 0.7182
1 5 11 11.7274 -0.1798
1 5 12 -9.7436 -0.2094
1 5 13 -22.2745 0.2879
1 5 14 -12.6356 -0.5075
1 5 15 23.6452 -0.2921
1 5 16 18.1394 0.6596
1 5 17 -17.7874 -0.0398
1 5 18 -14.0182 0.0493
1 5 19 8.5246 0.3319
1 5 20 4.4441 -0.8922
1 5 21 0.0395 -0.2380
1 5 22 3.2750 0.9314
1 5 23 -6.3860 -0.0704
1 5 24 -4.5599 -0.1805
1 5 25 9.9787 0.3505
1 5 26 3.3877 -0.4329
1 5 27 -9.3421 -0.5373
1 5 28 -3.6646 0.2431
1 5 29 5.2703 0.4766
1 5 30 3.0987 0.3861
1 5 31 -2.4085 -0.0815
1 5 32 -0.4118 -0.6514
1 5 33 3.5981 -0.3153
1 5 34 -1.3089 0.3420
1 5 35 -5.6851 0.3284
1 5 36 1.0497 0.0907
1 5 37 4.4526 -0.0611
1 5 38 -0.7389 -0.2565
1 5 39 -0.8832 -0.1287
1 5 40 -0.0542 0.1462
1 5 41 -0.8309 0.1468
1 5 42 2.8712 0.1229
1 5 43 -0.6226 -0.1452
1 5 44 -6.0947 -0.4049
1 5 45 2.6999 0.1970
1 5 46 7.1897 0.4697
1 5 47 -3.0120 -0.1957
1 5 48 -5.9806 -0.2377
1 5 49 1.8109 0.0377
1 5 50 3.2706 -0.0316
1 5 51 -0.6824 0.1348
1 5 52 -0.0571 0.0466
1 5 53 0.4162 -0.0116
1 5 54 -1.7013 0.1836
1 5 55 -0.5430 -0.4146
1 5 56 1.1621 -0.4655
1 7 0 -10.7667 -0.2309
1 7 1 -24.7407 0.3627
1 7 2 15.7749 0.2247
1 7 3 -16.8203 -0.1567
1 7 5 41.9130 0.0589
1 7 6 1.5909 0.1430
1 7 7 -40.1826 -0.0860
1 7 8 -9.9936 -0.4166
1 7 9 16.8451 0.1814
1 7 10 18.6296 0.5836
1 7 11 11.0517 -0.1284
1 7 12 -18.1104 -0.2257
1 7 13 -27.5081 -0.1781
1 7 14 9.6949 -0.3154
1 7 15 28.6046 0.3930
1 7 16 2.0329 0.3605
1 7 17 -20.3974 -0.0959
1 7 18 -12.3674 0.0497
1 7 19 10.8324 -0.5034
1 7 20 16.5450 -0.3250
1 7 21 -5.7096 0.6948
1 7 22 -13.8071 0.2610
1 7 23 6.2169 -0.2190
1 7 24 8.2119 -0.0835
1 7 25 -8.0510 -0.3194
1 7 26 -3.3249 -0.0556
1 7 27 7.0283 0.2606
1 7 28 0.0694 0.0691
1 7 29 -4.1954 0.1922
1 7 30 0.8920 0.1401
1 7 31 1.9949 -0.3034
1 7 32 0.5411 -0.3825
1 7 33 -0.1057 -0.0981
1 7 34 -2.0947 0.2797
1 7 35 -1.4795 0.4227
1 7 36 1.2813 0.1500
1 7 37 1.2684 -0.2429
1 7 38 1.4018 -0.4408
1 7 39 -0.5521 -0.1910
1 7 40 -3.3558 0.2909
1 7 41 2.5463 0.5066
1 7 42 3.0217 0.1094
1 7 43 -6.3979 -0.6794
1 7 44 -1.2542 -0.3720
1 7 45 7.9523 0.7168
1 7 46 0.0966 0.3266
1 7 47 -5.9144 -0.4138
1 7 48 -0.3802 -0.1105
1 7 49 2.5003 -0.2730
1 7 50 0.8416 -0.1284
1 7 51 0.2333 0.9816
1 7 52 -0.1680 0.4889
1 7 53 -1.3852 -1.3218
1 7 54 -0.9839 -1.0238
1 7 55 0.9336 1.2696
1 7 56 1.1623 1.3418
1 9 0 -34.5536 0.4353
1 9 1 36.4343 0.3222
1 9 2 26.9963 -0.2112
1 9 3 -31.6429 -0.0507
1 9 4 -10.3054 -0.0775
1 9 5 21.7177 -0.3380
1 9 6 -2.5147 0.2680
1 9 7 -21.6676 0.3717
1 9 8 2.3380 -0.2323
1 9 9 22.9341 -0.0326
1 9 10 8.0008 0.0343
1 9 11 -14.4135 -0.1579
1 9 12 -16.3188 0.0416
1 9 13 0.3650 -0.0241
1 9 14 13.5332 0.1213
1 9 15 10.5925 0.1592
1 9 16 -2.0349 -0.2445
1 9 17 -16.8351 0.0310
1 9 18 -8.3629 0.0745
1 9 19 18.4164 -0.2493
1 9 20 10.0479 0.1747
1 9 21 -13.5368 0.2264
1 9 22 -3.2965 -0.1293
1 9 23 4.1325 -0.0809
1 9 24 -5.1195 -0.1321
1 9 25 3.4008 -0.0468
1 9 26 8.6467 0.1753
1 9 27 -4.9680 0.1308
1 9 28 -6.4651 0.0870
1 9 29 2.1841 -0.0786
1 9 30 1.9202 -0.2367
1 9 31 0.7128 -0.0972
1 9 32 2.1405 0.0404
1 9 33 -1.2863 0.1274
1 9 34 -4.0835 0.1614
1 9 35 0.4593 0.1107
1 9 36 2.7436 -0.0517
1 9 37 -0.0616 -0.3195
1 9 38 0.5835 -0.1021
1 9 39 -0.0758 0.1941
1 9 40 -2.1849 -0.0908
1 9 41 0.8591 0.1590
1 9 42 0.6443 0.4685
1 9 43 -1.4445 -0.3915
1 9 44 1.3102 -0.5860
1 9 45 0.8458 0.3222
1 9 46 -1.1339 0.4296
1 9 47 -0.2194 -0.0936
1 9 48 -0.5080 -0.3848
1 9 49 0.8391 -0.0463
1 9 50 1.7638 0.6135
1 9 51 -1.7961 0.1011
1 9 52 -1.8077 -0.8697
1 9 53 1.7796 -0.2980
1 9 54 0.8750 0.9168
1 9 55 -1.0721 0.6129
1 11 0 14.7783 0.2608
1 11 1 16.3161 0.0077
1 11 2 -9.9591 -0.0999
1 11 3 -11.8538 -0.0496
1 11 4 -0.1605 -0.2469
1 11 5 2.5357 0.0775
1 11 6 0.6196 0.4682
1 11 7 -0.8615 -0.0436
1 11 8 4.9916 -0.3402
1 11 9 8.1826 -0.0715
1 11 10 -3.5515 0.0721
1 11 11 -15.4060 0.1553
1 11 12 -4.6358 -0.0037
1 11 13 13.6234 -0.0659
1 11 14 9.7856 0.0709
1 11 15 -2.1431 -0.1082
1 11 16 -9.7733 -0.0236
1 11 17 -11.6633 0.1172
1 11 18 8.5415 -0.0674
1 11 19 18.5802 0.0656
1 11 20 -5.7415 -0.0000
1 11 21 -14.9706 -0.1829
1 11 22 -0.3899 0.1734
1 11 23 5.5274 0.1008
1 11 24 6.0145 -0.3315
1 11 25 1.6335 -0.0006
1 11 26 -5.9294 0.4782
1 11 27 -2.6324 0.0259
1 11 28 1.1789 -0.5194
1 11 29 -0.0576 -0.0355
1 11 30 2.5916 0.2884
1 11 31 2.1510 -0.0728
1 11 32 -2.5762 0.0856
1 11 33 -2.0608 0.0892
1 11 34 1.4388 -0.2713
1 11 35 0.8298 0.1373
1 11 36 -2.3839 0.2081
1 11 37 0.2556 -0.3073
1 11 38 4.1152 -0.1050
1 11 39 -0.7620 0.0597
1 11 40 -3.3530 0.0416
1 11 41 0.6704 0.4002
1 11 42 0.7367 0.0955
1 11 43 0.0468 -0.4909
1 11 44 0.1037 -0.3246
1 11 45 -1.1618 0.0248
1 11 46 1.4109 0.4509
1 11 47 1.8626 0.5792
1 11 48 -2.3164 -0.2850
1 11 49 -1.3343 -0.8473
1 11 50 1.1615 -0.0743
1 11 51 -0.0939 0.7191
1 11 52 0.5500 0.2875
1 13 0 -2.6399 -0.0832
1 13 1 0.6228 0.0305
1 13 2 3.7534 0.1516
1 13 3 -11.9595 -0.0554
1 13 4 -7.2493 -0.1138
1 13 5 14.3678 -0.0187
1 13 6 3.3743 0.0372
1 13 7 -7.0886 0.1956
1 13 8 8.3443 0.0073
1 13 9 0.5456 -0.3485
1 13 10 -18.7828 -0.0028
1 13 11 0.1182 0.2835
1 13 12 20.3171 -0.0106
1 13 16 1.0002 -0.0762
1 13 17 -6.0445 -0.0606
1 13 18 7.3882 0.1451
1 13 19 6.3352 0.1192
1 13 20 -7.6354 -0.0978
1 13 21 -7.0812 -0.0744
1 13 22 1.7321 -0.0716
1 13 23 8.4436 0.0681
1 13 24 3.3926 0.1482
1 13 25 -7.3808 -0.1061
1 13 26 -3.3879 -0.0169
1 13 27 3.8730 0.0995
1 13 28 0.3292 -0.1039
1 13 29 -1.4387 -0.1362
1 13 30 1.1510 -0.0007
1 13 31 1.4499 0.3169
1 13 32 0.2791 0.1614
1 13 33 -1.3695 -0.4782
1 13 34 -1.6708 -0.1020
1 13 35 -0.8053 0.3997
1 13 36 0.2914 -0.0795
1 13 37 3.2293 -0.1324
1 13 38 2.4346 0.1050
1 13 39 -2.9104 -0.1158
1 13 40 -3.1947 -0.0511
1 13 41 0.2977 0.2750
1 13 42 1.8993 0.2227
1 13 43 1.2295 -0.3906
1 13 44 -1.4713 -0.5558
1 13 45 -0.1278 0.3928
1 13 46 2.8764 0.6398
1 13 47 -1.7875 -0.1229
1 13 48 -3.7965 -0.3509
1 13 49 2.6600 -0.3347
1 13 50 2.5637 0.0034
1 13 51 -2.5535 0.5741
1 13 52 -0.4216 0.1566
1 15 0 -2.9077 0.1683
1 15 1 11.5180 -0.0463
1 15 2 -4.9490 -0.2190
1 15 3 -16.8313 0.0603
1 15 4 10.6682 0.1835
1 15 5 13.0989 -0.0502
1 15 6 -10.3870 -0.0485
1 15 7 -0.9614 0.0358
1 15 8 6.6068 -0.0895
1 15 9 -10.5530 -0.0900
1 15 10 -3.7803 0.0825
1 15 11 14.4263 0.1831
1 15 12 1.5541 0.0644
1 15 13 -11.2734 -0.1890
1 15 14 1.8108 -0.1147
1 15 15 5.1808 0.0541
1 15 16 -4.2691 -0.0484
1 15 17 -0.2230 0.0984
1 15 18 3.7319 0.1705
1 15 19 -0.4563 -0.0769
1 15 20 -2.2676 -0.0208
1 15 21 -2.5718 -0.1300
1 15 22 2.2370 -0.2029
1 15 23 4.7366 0.2694
1 15 24 -2.6501 0.1965
1 15 25 -2.9377 -0.1179
1 15 26 2.3655 -0.0251
1 15 27 -0.9168 -0.1773
1 15 28 -2.5383 -0.0430
1 15 29 3.0969 0.2574
1 15 30 3.5987 -0.0481
1 15 31 -2.3225 -0.0519
1 15 32 -3.7894 0.1714
1 15 33 0.3676 -0.1554
1 15 34 2.5763 -0.2735
1 15 35 0.1252 0.1888
1 15 36 -2.1199 0.3438
1 15 37 1.3623 -0.1586
1 15 38 3.7233 -0.2640
1 15 39 -2.5156 0.0950
1 15 40 -5.5747 -0.0357
1 15 41 1.5411 0.1284
1 15 42 5.5419 0.3232
1 15 43 0.1783 -0.2914
1 15 44 -4.0198 -0.2859
1 15 45 -0.5456 -0.1968
1 15 46 2.5144 0.0397
1 15 47 -0.1812 1.3982
1 15 48 -1.2192 -0.0355
1 15 49 0.7004 -2.4298
1 15 50 -0.3441 0.3449
1 17 0 -3.7191 -0.0471
1 17 1 3.7870 0.1068
1 17 2 -3.0692 0.1943
1 17 3 -1.7928 0.0539
1 17 4 5.6826 -0.1867
1 17 5 -2.6984 -0.0503
1 17 6 -1.1158 -0.0340
1 17 7 5.4104 -0.0576
1 17 8 -6.1071 0.2309
1 17 9 -5.7224 0.0759
1 17 10 9.7443 -0.1914
1 17 11 5.0177 0.0770
1 17 12 -8.8565 0.0145
1 17 13 -3.9279 -0.2202
1 17 14 5.6195 0.0608
1 17 15 3.3177 0.1200
1 17 16 -1.6333 0.0363
1 17 17 -4.4743 0.1209
1 17 18 -1.1519 -0.1929
1 17 19 6.5549 -0.1375
1 17 20 1.1125 0.2848
1 17 21 -7.0677 -0.1444
1 17 22 0.3448 -0.2636
1 17 23 5.7351 0.3534
1 17 24 -0.6363 0.1507
1 17 25 -4.5179 -0.2265
1 17 26 -0.4753 -0.0058
1 17 27 3.8583 0.0016
1 17 28 1.9679 -0.1251
1 17 29 -2.6484 -0.0407
1 17 30 -3.4119 0.2166
1 17 31 1.2557 0.3031
1 17 32 3.7841 -0.2072
1 17 33 -0.5905 -0.4430
1 17 34 -1.8807 0.0488
1 17 35 -0.6888 0.2704
1 17 36 -0.9687 0.1596
1 17 37 3.9769 0.1441
1 17 38 1.9131 -0.2758
1 17 39 -7.2047 -0.6694
1 17 40 -0.5646 0.3574
1 17 41 7.3845 1.0734
1 17 42 -0.7798 -0.4727
1 17 43 -5.0263 -0.9369
1 17 44 0.5464 0.2764
1 17 45 2.7046 0.1213
1 17 46 0.5348 0.6453
1 17 47 -1.1993 0.7528
1 17 48 -0.8741 -1.8729
1 17 49 -0.0740 -0.8945
1 19 0 3.2510 0.2248
1 19 1 9.1745 -0.1629
1 19 2 -6.2944 0.0320
1 19 3 -5.2336 -0.0767
1 19 4 5.8430 -0.1520
1 19 5 3.1128 0.1302
1 19 6 -4.3738 -0.0001
1 19 7 -4.7695 0.0430
1 19 8 3.9811 0.2384
1 19 9 6.5395 -0.1879
1 19 10 -3.9899 -0.2911
1 19 11 -5.7694 0.1442
1 19 12 3.4736 0.0822
1 19 13 3.3606 -0.0048
1 19 14 -2.9628 0.1869
1 19 15 -0.2658 -0.1205
1 19 16 2.4113 -0.2495
1 19 17 -2.9272 0.1980
1 19 18 -0.8677 0.0659
1 19 19 4.2657 -0.1575
1 19 20 -1.0498 0.1766
1 19 21 -2.4724 -0.0014
1 19 22 2.0004 -0.3304
1 19 23 -1.0703 0.0524
1 19 24 -2.9268 0.4096
1 19 25 4.2274 0.1814
1 19 26 5.1320 -0.4345
1 19 27 -5.4478 -0.4794
1 19 28 -6.8452 0.3300
1 19 29 3.5674 0.4750
1 19 30 6.1500 -0.0912
1 19 31 0.1766 -0.1500
1 19 32 -4.8849 -0.0791
1 19 33 -1.5165 -0.2116
1 19 34 5.2409 -0.0038
1 19 35 -1.5724 0.3894
1 19 36 -5.6722 0.2112
1 19 37 5.1982 -0.3052
1 19 38 4.1822 -0.2591
1 19 39 -4.8395 0.0045
1 19 40 -2.1247 0.0732
1 19 41 1.6806 0.2498
1 19 42 1.5141 0.2775
1 19 43 -0.0437 -0.2311
1 19 44 -1.9738 -0.8111
1 19 45 0.8755 0.1777
1 19 46 2.3548 1.3906
1 21 0 1.4384 0.0137
1 21 1 -3.6471 0.0217
1 21 2 1.0670 -0.0713
1 21 3 3.9893 -0.1533
1 21 4 -4.0782 0.1534
1 21 5 -3.8591 0.1788
1 21 6 3.8985 -0.1364
1 21 7 3.8989 -0.0660
1 21 8 -2.1381 0.0675
1 21 9 -4.2622 -0.0936
1 21 10 2.2225 -0.0621
1 21 11 4.2167 0.1764
1 21 12 -3.5279 0.0509
1 21 13 -4.1649 -0.0771
1 21 14 3.9995 0.0536
1 21 15 5.0527 -0.1831
1 21 16 -4.4061 -0.1233
1 21 17 -5.9993 0.3741
1 21 18 5.7124 0.0439
1 21 19 6.0254 -0.2473
1 21 20 -6.1061 0.0546
1 21 21 -6.3801 -0.1163
1 21 22 3.8641 -0.0597
1 21 23 7.3776 0.3195
1 21 24 -0.1997 0.0652
1 21 25 -6.4837 -0.1393
1 21 26 -2.3155 -0.0699
1 21 27 3.4218 -0.1800
1 21 28 2.0471 -0.1179
1 21 29 -2.0503 0.2775
1 21 30 0.7028 0.4449
1 21 31 3.4416 -0.0983
1 21 32 -3.2700 -0.5327
1 21 33 -3.2146 -0.1696
1 21 34 2.8022 0.2426
1 21 35 -0.9484 0.2833
1 21 36 -0.1716 0.1585
1 21 37 5.4043 0.0354
1 21 38 -0.8722 -0.5036
1 21 39 -6.6580 -0.8844
1 21 40 -0.6008 0.8385
1 21 41 5.6435 1.8867
1 21 42 1.4106 -1.0166
1 21 43 -4.4056 -2.4722
1 21 44 0.1733 0.8313
1 23 0 -2.9471 0.0159
1 23 1 3.8508 0.0993
1 23 2 1.6583 0.1377
1 23 3 -7.2330 -0.2293
1 23 4 0.2783 -0.2176
1 23 5 8.9638 0.1940
1 23 6 -1.6551 0.1427
1 23 7 -7.6453 -0.0976
1 23 8 0.8727 0.0480
1 23 9 5.8650 -0.0483
1 23 10 0.9949 -0.1686
1 23 11 -4.5422 0.1895
1 23 12 -1.4153 0.0954
1 23 13 1.9074 -0.1382
1 23 14 0.4076 0.0209
1 23 15 0.9633 -0.1420
1 23 16 0.1750 0.0383
1 23 17 -0.3078 0.4039
1 23 18 0.4071 -0.1786
1 23 19 -3.4673 -0.4278
1 23 20 -2.5343 0.1449
1 23 21 5.3440 0.2547
1 23 22 6.4247 -0.0386
1 23 23 -3.1929 -0.0684
1 23 24 -9.5495 0.2052
1 23 25 0.3312 0.0559
1 23 26 8.8846 -0.5447
1 23 27 0.0809 -0.3036
1 23 28 -6.5187 0.5382
1 23 29 1.3767 0.5763
1 23 30 6.8309 -0.0818
1 23 31 -2.7782 -0.4031
1 23 32 -8.6083 -0.3492
1 23 33 3.3462 -0.2825
1 23 34 6.9565 0.4531
1 23 35 -3.4444 0.8677
1 23 36 -1.8323 -0.3212
1 23 41 5.8910 -0.0253
1 25 0 -7.5403 0.0766
1 25 1 -0.8789 -0.0131
1 25 2 4.8020 -0.3403
1 25 3 3.6773 -0.1697
1 25 4 -0.6269 0.3109
1 25 5 -5.9958 0.2202
1 25 6 -0.4729 -0.0909
1 25 7 4.8221 -0.1402
1 25 8 -1.4126 -0.0926
1 25 9 -0.1704 0.0179
1 25 10 3.3792 0.1547
1 25 11 -3.1109 0.0013
1 25 12 -4.9040 -0.1410
1 25 13 1.4967 0.1119
1 25 14 6.4178 0.1078
1 25 15 2.3565 -0.1808
1 25 16 -5.6340 -0.0896
1 25 17 -4.1452 0.0992
1 25 18 1.1203 0.1280
1 25 19 3.1394 -0.0435
1 25 20 3.0478 -0.2742
1 25 21 -0.6878 0.1170
1 25 22 -2.1631 0.4993
1 25 23 -1.7356 -0.0732
1 25 24 -2.0109 -0.6133
1 25 25 2.0984 -0.1572
1 25 26 4.4781 0.4454
1 25 27 -0.0243 0.0861
1 25 28 -4.4758 -0.1870
1 25 29 -1.3625 0.5374
1 25 30 4.4833 0.3195
1 25 31 -0.0669 -1.0474
1 25 32 -4.7642 -0.9827
1 25 33 1.6293 0.7591
1 25 34 3.7603 1.6185
1 25 35 -0.3267 -0.0129
1 25 36 -1.5697 -1.5456
1 25 37 -2.2917 -0.4689
1 27 0 0.8886 -0.0378
1 27 1 4.5016 0.2039
1 27 2 0.6336 0.0257
1 27 3 -1.6471 -0.1084
1 27 4 -3.4267 -0.0600
1 27 5 1.0288 0.0252
1 27 6 5.0426 0.1763
1 27 7 -3.6877 -0.0555
1 27 8 -2.7507 -0.3027
1 27 9 6.4542 0.0123
1 27 10 -1.6226 0.3043
1 27 11 -6.6544 0.2160
1 27 12 3.0458 -0.1584
1 27 13 5.4636 -0.3802
1 27 14 -0.6806 0.0539
1 27 15 -4.4398 0.2092
1 27 16 -1.2951 -0.1571
1 27 17 2.5248 0.1518
1 27 18 0.6101 0.3129
1 27 19 0.5059 -0.3365
1 27 20 0.9753 -0.2776
1 27 21 -1.8465 0.1987
1 27 22 -2.0237 0.2011
1 27 23 0.2967 0.2095
1 27 24 2.5479 -0.3604
1 27 25 1.2796 -0.7912
1 27 26 -1.8753 0.4434
1 27 27 -1.0418 1.2153
1 27 28 -0.1670 0.1167
1 27 29 0.9438 -0.9598
1 27 31 -2.1637 -0.0476
1 27 32 -1.2621 1.1479
1 27 33 2.7953 1.1227
1 29 0 -6.3972 0.0056
1 29 1 -1.0546 0.0579
1 29 2 6.1075 -0.4025
1 29 3 -0.1399 0.0866
1 29 4 -4.4596 0.2761
1 29 5 2.6656 -0.1540
1 29 6 2.0613 0.0130
1 29 7 -3.7497 -0.1767
1 29 8 -0.3151 -0.1469
1 29 9 1.7188 0.5583
1 29 10 0.2607 0.1500
1 29 11 0.8196 -0.4465
1 29 12 -0.6843 0.0102
1 29 13 -0.8684 -0.0997
1 29 14 -0.8254 -0.5033
1 29 15 -0.2020 0.5166
1 29 16 4.0004 1.0943
1 29 17 -0.4088 -0.5608
1 29 18 -5.8013 -1.1150
1 29 19 2.1855 0.5234
1 29 20 5.1030 0.2509
1 29 21 -3.2947 -0.5343
1 29 22 -3.8324 1.1338
1 29 23 4.0547 0.2751
1 29 24 2.8568 -2.5053
1 29 25 -4.9537 0.2998
1 31 0 -1.5998 0.2400
1 31 1 3.7064 -0.3678
1 31 2 -0.0030 -0.2474
1 31 3 -1.2176 0.7298
1 31 4 2.7779 -0.1669
1 31 5 -0.2433 -0.3415
1 31 6 -4.4627 0.3220
1 31 7 -0.2780 -0.3398
1 31 8 3.3285 -0.0867
1 31 9 1.6910 0.6712
1 31 10 -1.0166 0.0761
1 31 11 -2.3140 -0.3164
1 31 12 0.6235 -0.5951
1 31 13 0.8668 -0.6987
1 31 14 -2.1720 1.1169
1 31 15 2.5575 1.8776
1 31 16 2.8183 -1.1611
1 31 17 -5.6109 -2.3308
1 31 18 -1.5405 1.0220
1 31 19 5.8485 1.5604
2 0 0 -61.1158 7.4798
2 0 4 -151.6145 -2.9605
2 0 6 172.1492 3.5076
2 0 8 -92.3875 -1.3866
2 0 10 -23.0142 -0.2245
2 0 12 89.3549 -0.3481
2 0 14 -86.2084 1.9219
2 0 16 50.1630 -2.5421
2 0 18 -19.4173 1.9038
2 0 20 8.1669 -1.1624
2 0 22 -14.3565 1.1120
2 0 24 25.8371 -1.4457
2 0 26 -26.7616 1.5773
2 0 28 14.4078 -1.4177
2 0 30 -2.5168 1.2322
2 0 32 0.7390 -1.1758
2 0 34 -3.2983 1.1547
2 0 36 2.8160 -1.0091
2 0 38 -0.9436 0.7374
2 0 40 0.8941 -0.5214
2 0 42 -1.4244 0.5170
2 0 44 1.0682 -0.6736
2 0 46 -0.4255 0.7947
2 0 48 -0.0378 -0.6842
2 0 50 0.2228 0.2254
2 0 52 -0.1402 0.5271
2 0 54 0.6289 -1.2697
2 0 56 -1.8168 1.5875
2 2 0 -24.2330 1.4929
2 2 1 10.6088 -1.6027
2 2 2 25.6434 0.0668
2 2 3 -82.2856 -1.3971
2 2 4 -41.1697 -1.3313
2 2 5 148.6771 2.2677
2 2 6 38.1404 1.1346
2 2 8 -5.9993 -0.0624
2 2 9 55.1774 -0.7523
2 2 10 -34.4999 -0.5476
2 2 11 17.0733 0.8649
2 2 12 56.0881 0.3982
2 2 13 -39.5896 0.2911
2 2 14 -50.9839 -0.0400
2 2 15 24.6559 -0.9776
2 2 16 31.1019 -0.2130
2 2 17 -3.5473 0.3829
2 2 18 -10.9367 0.3044
2 2 19 -7.2407 0.5356
2 2 20 -2.1312 -0.1429
2 2 21 5.5090 -0.6362
2 2 22 6.1495 -0.1423
2 2 23 4.3164 0.0357
2 2 24 -3.6554 0.2364
2 2 25 -11.5031 0.4301
2 2 26 1.1957 -0.0967
2 2 27 7.8697 -0.4112
2 2 28 -2.6598 -0.0978
2 2 29 0.8483 0.1708
2 2 30 4.5310 0.2893
2 2 31 -3.7347 0.0166
2 2 32 -2.1303 -0.4244
2 2 33 0.9206 -0.1230
2 2 34 -3.0202 0.3280
2 2 35 0.2502 0.2302
2 2 36 6.1841 -0.0180
2 2 37 1.3278 -0.3834
2 2 38 -5.9684 -0.2080
2 2 39 -1.8145 0.5066
2 2 40 4.2415 0.1841
2 2 41 0.8542 -0.4445
2 2 42 -2.4269 -0.0620
2 2 43 -0.4982 0.1656
2 2 44 0.6464 0.0291
2 2 45 0.8970 0.1667
2 2 46 1.0587 -0.0872
2 2 47 -1.3841 -0.4010
2 2 48 -2.2238 0.1041
2 2 49 1.6543 0.5218
2 2 50 2.3337 0.0433
2 2 51 -1.0752 -0.5087
2 2 52 -1.4991 -0.3454
2 2 53 -0.0748 0.2827
2 2 54 0.5585 0.6651
2 2 55 0.3609 0.0815
2 2 56 -0.0883 -0.8833
2 2 57 0.1480 -0.2800
2 4 0 -74.3236 0.8675
2 4 1 -49.6801 -0.2312
2 4 2 13.2289 -1.0154
2 4 3 9.6090 -0.6903
2 4 4 67.0066 0.8001
2 4 5 14.3188 0.6040
2 4 6 -106.8394 -0.1035
2 4 7 -3.7793 0.3076
2 4 8 91.8824 -0.6232
2 4 9 -26.6044 -0.8302
2 4 10 -53.8803 0.7080
2 4 11 48.8243 0.4794
2 4 12 27.1116 -0.1395
2 4 13 -48.9799 0.0298
2 4 14 -18.8973 -0.2464
2 4 15 34.7500 -0.0772
2 4 16 18.7929 -0.1415
2 4 17 -19.9048 -0.1893
2 4 18 -18.8426 0.7650
2 4 19 10.3009 0.4287
2 4 20 17.0285 -0.7407
2 4 21 -6.3717 -0.4985
2 4 22 -12.4339 0.1188
2 4 23 7.7885 0.3754
2 4 24 6.9805 0.3300
2 4 25 -10.4576 -0.1831
2 4 26 -5.3822 -0.2778
2 4 27 8.5098 0.1000
2 4 28 7.6166 0.0500
2 4 29 -3.2505 -0.0801
2 4 30 -8.2950 0.0819
2 4 31 1.8248 -0.0108
2 4 32 5.8696 -0.1336
2 4 33 -5.7595 0.0489
2 4 34 -4.1428 0.0927
2 4 35 9.1110 0.1572
2 4 36 4.1534 0.0804
2 4 37 -7.9657 -0.4699
2 4 38 -3.2307 -0.2363
2 4 39 4.4688 0.5715
2 4 40 1.3517 0.1894
2 4 41 -1.8421 -0.3752
2 4 42 -0.8424 0.0083
2 4 43 0.7278 0.0748
2 4 44 1.5961 -0.1592
2 4 45 -0.1050 0.1147
2 4 46 -2.0929 0.1609
2 4 47 -0.8737 -0.1834
2 4 48 2.2681 -0.0363
2 4 49 1.6888 0.3144
2 4 50 -2.1222 -0.1322
2 4 51 -1.0400 -0.6035
2 4 52 1.0326 0.2079
2 4 53 -0.8455 0.8922
2 4 54 0.3137 -0.0777
2 4 55 2.0584 -1.0440
2 4 56 -0.7184 -0.1814
2 6 0 -103.3487 0.1874
2 6 1 53.7761 0.2654
2 6 2 58.1796 -0.4395
2 6 3 -6.0868 -0.2486
2 6 4 -22.6830 0.2200
2 6 5 -35.3647 0.0711
2 6 6 7.7475 0.4108
2 6 7 46.9905 0.0983
2 6 8 -7.0733 -0.6841
2 6 9 -32.4262 -0.1884
2 6 10 10.1835 0.2094
2 6 11 11.3894 0.2848
2 6 12 -9.9009 0.3676
2 6 13 1.2524 -0.3305
2 6 14 5.8694 -0.3506
2 6 15 -2.8035 0.1697
2 6 16 -3.2005 -0.0658
2 6 17 -2.5550 0.0049
2 6 18 4.9717 0.2996
2 6 19 8.9890 0.2021
2 6 20 -9.2468 -0.1836
2 6 21 -11.6134 -0.6468
2 6 22 13.5408 -0.0612
2 6 23 9.7454 0.6990
2 6 24 -16.0725 0.1750
2 6 25 -7.0617 -0.2187
2 6 26 14.1884 -0.0394
2 6 27 6.2392 -0.2086
2 6 28 -8.0759 -0.2181
2 6 29 -6.1649 0.1936
2 6 30 2.9795 0.3465
2 6 31 5.7269 -0.0037
2 6 32 -2.4441 -0.2890
2 6 33 -5.5753 -0.0748
2 6 34 3.6721 0.1859
2 6 35 4.8042 0.1648
2 6 36 -2.9509 -0.1034
2 6 37 -1.4497 -0.3654
2 6 38 0.5452 0.0090
2 6 39 -2.7432 0.4392
2 6 40 1.5885 0.0836
2 6 41 3.6594 -0.1896
2 6 42 -2.3158 -0.1464
2 6 43 -1.1523 -0.2069
2 6 44 1.3227 0.1808
2 6 45 -1.1243 0.4492
2 6 46 0.2868 -0.1611
2 6 47 1.5037 -0.4690
2 6 48 -0.7551 0.0757
2 6 49 -1.3380 0.3805
2 6 50 0.3733 0.0566
2 6 51 1.5597 -0.2391
2 6 52 -0.7814 -0.3232
2 6 53 -1.8763 0.0548
2 6 54 1.7014 0.8034
2 6 55 1.9985 0.0335
2 6 56 -1.6394 -1.2223
2 8 0 25.0107 0.4226
2 8 1 33.2233 -0.1236
2 8 2 -23.6533 -0.4414
2 8 3 -17.8274 0.3424
2 8 4 8.4570 0.2157
2 8 5 5.3192 -0.1194
2 8 6 -0.2284 0.0833
2 8 7 6.5914 -0.1984
2 8 8 8.3932 -0.1739
2 8 9 -12.8969 0.0923
2 8 10 -23.0689 0.0443
2 8 11 10.5704 0.2910
2 8 12 30.2283 0.1282
2 8 13 -6.6984 -0.3804
2 8 14 -24.8030 -0.2781
2 8 15 7.6756 0.0948
2 8 16 10.3455 0.3548
2 8 17 -10.3254 0.1264
2 8 18 5.4746 -0.1875
2 8 19 9.3340 -0.0404
2 8 20 -14.6609 -0.1456
2 8 21 -5.0013 -0.1621
2 8 22 14.1370 0.1632
2 8 23 0.7357 0.2046
2 8 24 -8.0973 0.3265
2 8 25 1.2068 -0.0240
2 8 26 2.8929 -0.7726
2 8 27 -0.6230 -0.1845
2 8 28 -1.0678 0.6239
2 8 29 -1.0800 0.1712
2 8 30 1.7313 -0.1239
2 8 31 2.5887 0.0594
2 8 32 -3.3458 -0.1231
2 8 33 -3.8076 -0.2783
2 8 34 3.9035 0.0040
2 8 35 4.3715 0.3720
2 8 36 -1.5588 0.1543
2 8 37 -3.5916 -0.3932
2 8 38 -2.6031 -0.1934
2 8 39 2.7215 0.3368
2 8 40 4.8801 0.2343
2 8 41 -3.4330 -0.1736
2 8 42 -3.5354 -0.3114
2 8 43 4.1831 -0.0042
2 8 44 0.8333 0.2563
2 8 45 -2.5912 0.1187
2 8 46 0.3448 0.0203
2 8 47 0.0445 -0.2077
2 8 48 0.2977 -0.3724
2 8 49 0.6124 0.2655
2 8 50 -1.2769 0.6645
2 8 51 0.3229 -0.2626
2 8 52 1.4410 -0.9802
2 8 53 -0.9569 0.3476
2 8 54 -0.7361 1.3499
2 10 0 -15.4953 0.0368
2 10 1 -5.6924 0.1907
2 10 2 10.5914 0.1853
2 10 3 -1.3262 0.1375
2 10 5 9.3840 -0.2700
2 10 6 13.0018 -0.1516
2 10 7 -4.4542 0.2129
2 10 8 -16.0099 0.3789
2 10 9 -8.1694 -0.0762
2 10 10 8.8672 -0.2564
2 10 11 15.1811 -0.0635
2 10 12 2.3845 0.0338
2 10 13 -12.5209 0.1036
2 10 14 -4.3509 -0.0184
2 10 15 4.2553 0.0179
2 10 16 -4.5187 0.1348
2 10 17 5.0616 -0.1395
2 10 18 14.1274 -0.1681
2 10 19 -10.7153 0.0790
2 10 20 -17.6703 0.1076
2 10 21 8.6614 0.0091
2 10 22 16.4138 -0.0895
2 10 23 -0.7469 0.1103
2 10 24 -13.1030 0.1827
2 10 25 -5.9661 -0.2529
2 10 26 8.6413 -0.2790
2 10 27 7.0819 0.0719
2 10 28 -4.2671 0.1815
2 10 29 -4.4638 0.3125
2 10 30 2.1712 0.1099
2 10 31 1.9199 -0.4541
2 10 32 -2.9381 -0.3036
2 10 33 -0.8031 0.2475
2 10 34 4.0259 0.1761
2 10 35 0.3614 -0.0024
2 10 36 -2.6777 0.1376
2 10 37 -0.1316 -0.0673
2 10 38 0.1458 -0.3664
2 10 39 0.6249 0.0576
2 10 40 -0.0554 0.4019
2 10 41 -1.9053 -0.0907
2 10 42 2.3526 -0.2826
2 10 43 2.7781 0.0737
2 10 44 -3.1594 0.1186
2 10 45 -2.4453 0.1613
2 10 46 1.1558 -0.0443
2 10 47 2.0421 -0.5582
2 10 48 0.8106 0.0285
2 10 49 -3.0182 0.8365
2 10 50 -0.9336 0.1576
2 10 51 4.7211 -0.8604
2 10 52 0.4480 -0.5792
2 12 0 -11.5516 0.1615
2 12 1 24.9098 0.1784
2 12 2 -1.0901 -0.2137
2 12 3 -21.6572 -0.1571
2 12 4 17.2943 0.0590
2 12 5 19.6253 -0.0015
2 12 6 -21.8503 0.1076
2 12 7 -15.5839 0.1603
2 12 8 13.7558 -0.1275
2 12 9 4.3339 -0.0965
2 12 10 -5.0155 -0.0223
2 12 11 10.7169 -0.1316
2 12 12 2.2167 0.2149
2 12 13 -18.2222 0.2551
2 12 14 -2.4866 -0.2622
2 12 15 13.0957 -0.1975
2 12 16 2.9707 0.1434
2 12 17 -2.4927 0.1137
2 12 18 -2.6987 -0.0351
2 12 19 -4.6255 -0.1064
2 12 20 -0.6838 0.0218
2 12 21 6.6677 0.1403
2 12 22 7.2264 -0.0151
2 12 23 -6.2390 -0.1590
2 12 24 -11.6563 0.0220
2 12 25 4.5822 0.1488
2 12 26 9.9499 -0.1383
2 12 27 -2.1554 -0.1440
2 12 28 -5.1890 0.2358
2 12 29 0.4827 0.1778
2 12 30 2.8980 -0.0787
2 12 31 -0.5807 -0.1814
2 12 32 -3.6316 -0.2221
2 12 33 1.2856 0.0225
2 12 34 3.4257 0.2930
2 12 35 -0.8832 0.2869
2 12 36 -0.2700 -0.0569
2 12 37 -0.3499 -0.5138
2 12 38 -2.7195 -0.1607
2 12 39 0.7094 0.3948
2 12 40 1.7659 0.1043
2 12 41 0.0523 0.0949
2 12 42 1.8173 0.1135
2 12 43 -0.2595 -0.6307
2 12 44 -3.4247 -0.2181
2 12 45 -0.8730 0.7703
2 12 46 1.8737 0.1181
2 12 47 2.0942 -0.4234
2 12 48 -0.3496 0.0089
2 12 49 -2.5129 -0.0198
2 12 50 0.8025 0.0466
2 12 51 2.8295 0.1778
2 12 52 -1.5542 -0.2606
2 12 53 -3.3268 -0.1028
2 14 0 6.5642 -0.0571
2 14 1 14.3773 -0.1709
2 14 2 -11.4643 -0.0850
2 14 3 -0.6655 0.3058
2 14 4 14.1437 0.1498
2 14 5 -8.7538 -0.1940
2 14 6 -12.2482 -0.1456
2 14 7 8.1574 -0.0417
2 14 8 5.0083 0.1385
2 14 9 -3.3565 0.2390
2 14 10 4.4195 -0.1507
2 14 11 1.3098 -0.2793
2 14 12 -9.7325 0.1059
2 14 13 -1.6852 0.1683
2 14 14 7.3507 0.0133
2 14 15 2.1208 -0.0267
2 14 18 -3.1470 0.0959
2 14 19 1.0407 0.0404
2 14 20 2.7115 -0.0744
2 14 21 2.8181 0.0461
2 14 22 -1.1079 0.0655
2 14 23 -5.9395 -0.1418
2 14 24 0.9473 -0.0229
2 14 25 4.3790 0.1385
2 14 26 -1.4892 -0.0363
2 14 27 -0.1843 -0.0799
2 14 28 1.3762 0.0367
2 14 29 -1.3539 0.1388
2 14 30 -0.6465 -0.0008
2 14 31 -0.6775 -0.2731
2 14 32 -0.1206 0.0187
2 14 33 2.3549 0.1840
2 14 34 0.4095 -0.0504
2 14 35 -0.9775 0.2070
2 14 36 0.2344 -0.0298
2 14 37 -1.5638 -0.5267
2 14 38 -1.3083 0.1189
2 14 39 1.8158 0.4101
2 14 40 1.3047 0.1043
2 14 41 0.3995 0.0119
2 14 42 0.2027 -0.6249
2 14 43 -1.9141 -0.2987
2 14 44 -1.6058 0.8417
2 14 45 0.9649 0.2603
2 14 46 1.4866 -0.2900
2 14 47 0.5989 -0.1099
2 14 48 -0.5200 -0.6085
2 14 49 -0.9011 0.0660
2 14 50 0.1456 1.0386
2 14 51 0.8262 -0.0558
2 16 0 3.5020 0.0138
2 16 1 7.2793 0.0612
2 16 2 -0.2326 -0.0781
2 16 3 -0.8907 -0.1418
2 16 4 -4.5357 0.1131
2 16 5 -2.1286 0.1093
2 16 6 5.1933 -0.0819
2 16 7 1.7163 -0.0170
2 16 8 -1.5184 0.0071
2 16 9 -0.7905 -0.0059
2 16 10 -1.7893 0.0401
2 16 11 1.7762 -0.0814
2 16 12 2.4120 -0.0650
2 16 13 -5.0663 0.1992
2 16 14 -1.1023 0.1129
2 16 15 9.1048 -0.2216
2 16 16 -1.6506 -0.1671
2 16 17 -10.8971 0.1241
2 16 18 4.4182 0.1791
2 16 19 8.7549 -0.0391
2 16 20 -4.3262 -0.1271
2 16 21 -4.9677 0.0711
2 16 22 1.5057 0.0147
2 16 23 3.0965 -0.1352
2 16 24 0.2114 0.1171
2 16 25 -3.2480 0.1111
2 16 26 0.9940 -0.1890
2 16 27 3.0514 -0.0503
2 16 28 -2.9442 0.1572
2 16 29 -1.8143 0.0402
2 16 30 3.7612 -0.0519
2 16 31 0.5354 0.0173
2 16 32 -3.7500 -0.0909
2 16 33 0.3801 -0.2228
2 16 34 3.0137 0.2550
2 16 35 -0.8253 0.3639
2 16 36 -1.0444 -0.3402
2 16 37 0.3934 -0.1574
2 16 38 -1.2972 0.1598
2 16 39 0.4327 -0.2190
2 16 40 2.1331 0.2806
2 16 41 -0.6258 0.3382
2 16 42 -1.0309 -0.5882
2 16 43 0.4660 -0.3381
2 16 44 -0.3916 0.3747
2 16 45 -0.8510 0.8557
2 16 46 0.4710 0.1636
2 16 47 1.4027 -1.8737
2 16 48 0.6229 -0.4498
2 16 49 -1.3449 2.3798
2 18 0 7.3376 -0.3061
2 18 1 7.1587 -0.0354
2 18 2 -4.1970 0.0333
2 18 3 -7.6153 0.0484
2 18 4 1.4718 0.1574
2 18 5 7.0436 -0.0396
2 18 6 -1.2305 -0.0802
2 18 7 -2.2128 -0.1079
2 18 8 1.6031 -0.1218
2 18 9 -4.6170 0.2762
2 18 10 -0.7173 0.2315
2 18 11 9.0398 -0.2648
2 18 12 -0.9184 -0.1840
2 18 13 -9.5916 0.0917
2 18 14 2.7773 0.0653
2 18 15 6.9082 0.0783
2 18 16 -4.8197 -0.0111
2 18 17 -2.1551 -0.1493
2 18 18 5.5718 0.0841
2 18 19 -1.8742 0.1020
2 18 20 -3.8260 -0.2051
2 18 21 2.2629 0.0381
2 18 22 1.1427 0.2407
2 18 23 0.2520 -0.1573
2 18 24 0.6446 -0.1594
2 18 25 -2.0992 0.1656
2 18 26 -1.7487 0.0446
2 18 27 1.2229 -0.1682
2 18 28 2.0115 0.0241
2 18 29 1.7470 0.2979
2 18 30 -0.4390 -0.0131
2 18 31 -5.0503 -0.4023
2 18 32 -1.3385 -0.1024
2 18 33 6.3519 0.2094
2 18 34 0.1748 0.2612
2 18 35 -4.0120 0.2161
2 18 36 3.1627 -0.2368
2 18 37 -0.2588 -0.5439
2 18 38 -4.5132 -0.1229
2 18 39 2.3919 0.6399
2 18 40 2.3485 0.6096
2 18 41 -1.0041 -0.5268
2 18 42 0.8059 -0.9570
2 18 43 -1.0823 0.0519
2 18 44 -2.3456 1.3563
2 18 45 1.2719 0.7970
2 18 46 1.8922 -2.1082
2 18 47 -0.2626 -1.4243
2 20 0 -0.4136 0.0928
2 20 1 1.4056 0.0877
2 20 2 -1.6767 -0.2404
2 20 3 -2.3236 0.0007
2 20 4 3.2449 0.1019
2 20 5 0.6905 -0.0819
2 20 6 -1.7589 0.0689
2 20 7 3.0916 0.0980
2 20 8 -2.2661 -0.0796
2 20 9 -5.8382 -0.0871
2 20 10 4.9520 0.0797
2 20 11 6.4889 0.0722
2 20 12 -4.6609 -0.1925
2 20 13 -5.7428 -0.0640
2 20 14 3.4132 0.2855
2 20 15 2.9384 0.0903
2 20 16 -2.3863 -0.2681
2 20 17 1.9476 -0.1236
2 20 18 0.8832 0.2380
2 20 19 -5.9801 0.0880
2 20 20 0.1698 -0.2326
2 20 21 6.6355 -0.0331
2 20 22 1.3192 0.1638
2 20 23 -4.4228 0.1384
2 20 24 -4.5273 -0.0305
2 20 25 0.8425 -0.3985
2 20 26 6.2723 -0.0928
2 20 27 2.3221 0.5070
2 20 28 -5.3768 0.2050
2 20 29 -2.5362 -0.2787
2 20 30 3.3381 -0.2319
2 20 31 0.0239 -0.0359
2 20 32 -1.7104 -0.0508
2 20 33 0.6031 0.1276
2 20 34 1.1977 0.5783
2 20 35 3.0819 -0.0609
2 20 36 -1.7804 -0.7720
2 20 37 -6.6589 0.0366
2 20 38 2.2464 0.2165
2 20 39 5.2651 -0.0295
2 20 40 -1.4386 0.7552
2 20 41 -0.6817 -0.0453
2 20 42 0.2741 -1.5936
2 20 43 -2.0847 0.1448
2 20 44 -0.2364 2.1766
2 20 45 1.7267 -0.2848
2 22 0 4.6605 -0.1936
2 22 1 6.0591 -0.3687
2 22 2 -5.7066 -0.0023
2 22 3 -3.4681 0.1134
2 22 4 3.9263 0.0906
2 22 5 1.3766 0.2644
2 22 6 0.7200 0.0122
2 22 7 -0.8785 -0.2809
2 22 8 -4.5089 -0.2196
2 22 9 0.2010 -0.0612
2 22 10 5.0516 0.3517
2 22 11 2.4429 0.3501
2 22 12 -4.4817 -0.2530
2 22 13 -4.9120 -0.4051
2 22 14 4.2463 -0.0261
2 22 15 4.3421 0.3637
2 22 16 -2.0066 0.2419
2 22 17 -2.1436 -0.2674
2 22 18 -3.2582 -0.2491
2 22 19 1.0554 0.0394
2 22 20 8.3136 0.1290
2 22 21 -0.0799 0.2099
2 22 22 -9.9076 0.0350
2 22 23 -2.5626 -0.2597
2 22 24 7.8238 -0.2141
2 22 25 4.8525 0.1267
2 22 26 -3.7107 0.1965
2 22 27 -4.4015 -0.0502
2 22 28 0.1667 0.2285
2 22 29 2.8665 0.1834
2 22 30 0.7558 -0.7005
2 22 31 -2.6146 -0.4597
2 22 32 -0.4267 0.5487
2 22 33 2.7141 0.6093
2 22 34 1.9412 0.1270
2 22 35 -1.5650 -0.2091
2 22 36 -4.5589 -0.3834
2 22 37 -0.0792 -0.9552
2 22 38 4.3680 -0.2334
2 22 39 0.8730 2.4135
2 22 40 -1.0241 1.0633
2 22 41 -0.6551 -3.2841
2 22 42 -1.3549 -1.3602
2 24 0 6.6419 -0.2716
2 24 1 1.1044 -0.1105
2 24 2 -4.7738 0.2188
2 24 3 -1.3184 0.2428
2 24 4 -0.3904 0.0847
2 24 5 2.8839 -0.1469
2 24 6 4.1765 -0.2689
2 24 7 -3.5809 0.0330
2 24 8 -4.1263 0.1028
2 24 9 0.7467 -0.0448
2 24 10 2.8655 0.1604
2 24 11 3.1852 0.1410
2 24 12 -3.2689 -0.1518
2 24 13 -3.3460 -0.2254
2 24 14 4.1438 -0.1198
2 24 15 0.5042 0.2086
2 24 16 -3.7776 0.3694
2 24 17 0.1087 -0.0639
2 24 18 3.3952 -0.4250
2 24 19 2.6053 -0.0758
2 24 20 -3.6351 0.2906
2 24 21 -4.6038 0.0479
2 24 22 2.6434 0.0123
2 24 23 3.4058 0.1133
2 24 24 -0.6582 -0.3911
2 24 25 -0.4458 -0.3124
2 24 26 0.7581 0.5512
2 24 27 -2.1430 0.5728
2 24 28 -2.9518 -0.2428
2 24 29 3.2828 -0.6848
2 24 30 3.6901 -0.2951
2 24 31 -2.8784 0.0596
2 24 32 -2.3354 0.4031
2 24 33 2.0990 1.3409
2 24 34 1.9030 0.3399
2 24 35 -2.1337 -2.3266
2 24 36 -3.1668 -1.6426
2 24 37 2.2884 1.7136
2 26 0 0.1746 -0.2174
2 26 1 -5.5359 -0.1620
2 26 2 -0.2291 0.1374
2 26 3 -1.3463 -0.0737
2 26 4 -0.7002 0.1627
2 26 5 9.0864 0.2639
2 26 6 1.6774 -0.3355
2 26 7 -11.0618 -0.1960
2 26 8 -4.2182 0.1422
2 26 9 6.6994 -0.0930
2 26 10 8.6512 0.2212
2 26 11 -1.7915 0.4143
2 26 12 -10.9921 -0.3461
2 26 13 0.5625 -0.6151
2 26 14 8.3945 0.0538
2 26 15 -1.5750 0.6224
2 26 16 -4.1961 0.4338
2 26 17 2.5705 -0.4114
2 26 18 2.6299 -0.6818
2 26 19 -3.6507 0.0440
2 26 20 -2.4060 0.4417
2 26 21 4.3413 0.3362
2 26 22 0.2415 0.0705
2 26 23 -3.3839 -0.6040
2 26 24 3.2075 -0.4080
2 26 25 2.0428 0.6201
2 26 26 -5.2293 0.3888
2 26 27 -2.2585 -0.1681
2 26 28 5.3209 -0.0728
2 26 29 2.5467 -0.6981
2 26 30 -4.2548 -0.6573
2 26 31 -0.7660 1.2963
2 26 32 2.0923 1.8705
2 26 33 -1.4043 -0.8804
2 26 34 0.5206 -2.8869
2 28 0 -0.7955 -0.3105
2 28 1 10.8338 0.0714
2 28 2 -0.9316 0.2312
2 28 3 -10.8332 0.4133
2 28 4 4.3824 0.1855
2 28 5 11.2360 -0.5648
2 28 6 -6.2725 -0.4377
2 28 7 -11.4756 0.3258
2 28 8 3.8714 0.2899
2 28 9 12.5842 0.1049
2 28 10 0.8826 -0.0685
2 28 11 -13.5160 -0.3914
2 28 12 -3.4422 0.1600
2 28 13 11.2277 0.2651
2 28 14 2.8501 -0.4808
2 28 15 -5.9190 0.1766
2 28 16 -1.7712 0.6592
2 28 17 1.7173 -0.4031
2 28 18 1.1840 -0.4934
2 28 19 -0.5594 -0.0366
2 28 20 -0.0682 0.0224
2 28 21 -0.0467 0.8956
2 28 22 -1.0106 0.5925
2 28 23 1.8676 -1.4338
2 28 24 0.9618 -1.1286
2 28 25 -3.3576 1.2752
2 28 26 -0.8627 1.5167
2 28 27 3.3633 -0.6949
2 28 28 1.5817 -1.9247
2 28 29 -2.8232 0.0490
2 30 0 7.7220 0.0791
2 30 1 -3.3840 0.2184
2 30 2 -5.5728 0.4891
2 30 3 2.2905 -0.2659
2 30 4 3.8482 -0.6118
2 30 5 -1.1739 0.2339
2 30 6 -3.5170 0.0899
2 30 7 -0.3421 -0.2947
2 30 8 5.2837 0.7311
2 30 9 2.7148 0.3658
2 30 10 -7.8869 -1.3468
2 30 11 -4.2809 -0.1416
2 30 12 8.2247 1.3497
2 30 13 3.5291 -0.3877
2 30 14 -4.9025 -0.6729
2 30 15 -2.0606 0.7392
2 30 16 0.6960 -0.0746
2 30 17 1.9459 -0.4352
2 30 18 0.7799 -0.0544
2 30 19 -2.3426 -0.5186
2 30 20 0.1768 1.2097
2 30 21 1.7895 1.6828
2 30 22 -0.6827 -2.3747
2 32 0 0.0027 0.0380
2 32 1 -2.3257 0.3090
2 32 2 0.3312 -0.0789
2 32 3 0.1042 -0.5359
2 32 4 -1.3495 -0.0409
2 32 5 1.7291 0.0783
2 32 6 2.3175 0.0017
2 32 7 -1.0954 0.9623
2 32 8 -1.7683 0.4464
2 32 9 -1.3198 -1.8903
2 32 10 0.0635 -1.0096
2 32 11 2.9381 2.0841
2 32 12 0.6467 1.0508
3 1 0 -146.8481 -1.5992
3 1 1 64.5213 2.9138
3 1 2 110.3713 0.4338
3 1 3 -21.5949 -1.4571
3 1 4 -27.3316 1.7671
3 1 5 -23.8150 0.0315
3 1 6 -24.7052 -2.5555
3 1 7 31.9194 0.1787
3 1 8 16.2958 1.2983
3 1 9 -8.6801 0.7541
3 1 10 18.3724 0.3138
3 1 11 -13.8093 -1.4880
3 1 12 -34.8336 -0.6645
3 1 13 16.7997 1.1313
3 1 14 22.1827 -0.1222
3 1 15 -5.8754 -0.4152
3 1 16 2.5042 0.9020
3 1 17 -5.2032 0.4170
3 1 18 -20.9991 -0.9218
3 1 19 8.2908 -0.9172
3 1 20 25.4386 0.3645
3 1 21 -2.0547 1.0169
3 1 22 -16.7711 0.0315
3 1 23 -8.7158 -0.6257
3 1 24 4.7438 0.1906
3 1 25 14.4951 0.3291
3 1 26 -2.1681 -0.7067
3 1 27 -10.0604 -0.3779
3 1 28 9.9852 0.8800
3 1 29 1.5686 0.6041
3 1 30 -15.4614 -0.5716
3 1 31 1.9764 -0.8451
3 1 32 10.9210 0.1658
3 1 33 -0.8986 0.9407
3 1 34 -3.7448 0.0426
3 1 35 1.3406 -0.7368
3 1 36 2.5847 -0.0911
3 1 37 -4.2460 0.3658
3 1 38 -5.2479 0.0700
3 1 39 5.5779 -0.1701
3 1 40 5.7217 0.0317
3 1 41 -3.7661 0.2626
3 1 42 -3.4651 -0.1621
3 1 43 0.7036 -0.4192
3 1 44 1.2329 0.1542
3 1 45 1.8334 0.3853
3 1 46 -0.3154 0.0413
3 1 47 -2.9988 -0.1311
3 1 48 0.4365 -0.2139
3 1 49 2.5050 -0.1156
3 1 50 -0.8397 0.1233
3 1 51 -1.0622 0.0135
3 1 52 1.0295 0.2050
3 1 53 -0.3942 0.6064
3 1 54 -1.3637 -0.5315
3 1 55 1.5555 -1.5153
3 1 56 1.8567 0.6712
3 3 0 -47.7642 0.3207
3 3 1 108.9273 0.6110
3 3 2 49.2192 0.0820
3 3 3 -36.1037 0.3878
3 3 4 -55.8182 -0.4033
3 3 5 -27.2057 -0.8505
3 3 6 52.7726 0.4336
3 3 7 35.3942 -0.0900
3 3 8 -37.2817 -0.0194
3 3 9 -5.7196 1.4416
3 3 10 19.9420 -0.4963
3 3 11 -17.7757 -1.6849
3 3 12 -10.0994 0.4555
3 3 13 14.5463 0.7099
3 3 14 7.6968 0.0914
3 3 15 3.9180 0.2772
3 3 16 -7.9153 -0.3332
3 3 17 -19.0985 -0.3199
3 3 18 6.9908 -0.0314
3 3 19 23.3605 -0.3748
3 3 20 -3.0289 0.4138
3 3 21 -17.3741 0.9026
3 3 22 -3.6763 -0.4238
3 3 23 5.9985 -0.7087
3 3 24 9.8799 0.3365
3 3 25 1.1205 0.1148
3 3 26 -12.3209 -0.3489
3 3 27 2.4017 0.1596
3 3 28 11.5927 0.3004
3 3 29 -9.6553 0.1425
3 3 30 -10.2969 -0.1794
3 3 31 9.2099 -0.6189
3 3 32 8.7213 0.1570
3 3 33 -1.8508 0.7744
3 3 34 -5.8766 -0.1755
3 3 35 -2.5676 -0.5173
3 3 36 2.9676 0.0686
3 3 37 1.0090 0.0896
3 3 38 -1.9089 0.0526
3 3 39 1.1022 0.2695
3 3 40 2.1134 0.0494
3 3 41 -0.2956 -0.4725
3 3 42 -2.0583 -0.3390
3 3 43 -1.8607 0.4848
3 3 44 2.0022 0.5262
3 3 45 3.0384 -0.2608
3 3 46 -2.5268 -0.4039
3 3 47 -2.1851 -0.1249
3 3 48 2.7202 0.0526
3 3 49 -0.1471 0.4320
3 3 50 -1.8776 0.2364
3 3 51 1.8364 -0.5287
3 3 52 0.8484 -0.1894
3 3 53 -1.7244 0.5815
3 3 54 -0.4784 -0.2622
3 3 55 0.9985 -0.7624
3 3 56 0.5738 0.9029
3 5 0 60.8363 -0.5035
3 5 1 51.2487 0.2683
3 5 2 -21.5817 0.7518
3 5 3 -38.4382 -0.2261
3 5 4 -17.3403 -0.7355
3 5 5 32.2304 0.2512
3 5 6 23.2717 0.1007
3 5 7 -25.9235 -0.2988
3 5 8 -1.7447 0.6753
3 5 9 14.6571 0.1198
3 5 10 -19.0112 -0.6646
3 5 11 -0.9441 0.1257
3 5 12 20.8684 -0.2641
3 5 13 -9.6014 -0.0641
3 5 14 -8.2071 1.1865
3 5 15 12.7615 -0.1946
3 5 16 -4.2918 -1.2062
3 5 17 -8.1854 0.2872
3 5 18 7.9969 0.4113
3 5 19 0.3411 -0.2373
3 5 20 -3.4316 0.3467
3 5 21 4.8941 0.2087
3 5 22 -5.4039 -0.4157
3 5 23 -5.2317 -0.0703
3 5 24 13.0871 -0.0596
3 5 25 1.9191 -0.2081
3 5 26 -14.0560 0.4556
3 5 27 3.2237 0.2598
3 5 28 8.6624 -0.4015
3 5 29 -7.8060 0.1004
3 5 30 -3.7895 0.0612
3 5 31 8.8055 -0.5128
3 5 32 3.3374 0.1682
3 5 33 -6.1846 0.6079
3 5 34 -4.0804 -0.0433
3 5 35 4.0958 -0.4540
3 5 36 3.1638 -0.3456
3 5 37 -5.3789 0.2856
3 5 38 -2.2142 0.6385
3 5 39 7.4396 -0.1650
3 5 40 2.6985 -0.5377
3 5 41 -6.3613 0.0498
3 5 42 -3.9451 0.1243
3 5 43 2.5610 0.0315
3 5 44 5.4772 0.2632
3 5 45 0.4085 0.0087
3 5 46 -6.3795 -0.3973
3 5 47 -0.7831 -0.1761
3 5 48 4.7705 0.2565
3 5 49 -0.1886 0.3560
3 5 50 -1.2008 0.0710
3 5 51 0.8499 -0.4745
3 5 52 -1.1567 -0.3492
3 5 53 -0.9342 0.5753
3 5 54 1.2322 0.2620
3 5 55 0.9995 -0.6167
3 5 56 -0.7747 0.2012
3 7 0 -7.4646 -0.2715
3 7 1 -8.6047 0.0839
3 7 2 17.1696 0.3565
3 7 3 -0.3234 -0.2302
3 7 4 -11.8237 -0.3020
3 7 5 0.7266 0.1916
3 7 6 2.6233 -0.0015
3 7 7 10.0338 0.1016
3 7 8 -3.5738 0.1998
3 7 9 -24.4558 -0.2588
3 7 10 14.8798 0.0036
3 7 11 32.5673 -0.0025
3 7 12 -28.1073 -0.3762
3 7 13 -28.6126 0.3814
3 7 14 35.9883 0.5611
3 7 15 15.1304 -0.3711
3 7 16 -34.3410 -0.4967
3 7 17 -0.8828 -0.0633
3 7 18 23.4157 0.2361
3 7 19 -6.6505 0.4322
3 7 20 -9.3343 0.1144
3 7 21 5.8836 -0.3239
3 7 22 -0.7401 -0.2364
3 7 23 0.1132 -0.1155
3 7 24 4.4492 -0.0630
3 7 25 -6.5538 0.4143
3 7 26 -3.6109 0.4332
3 7 27 9.8089 -0.3642
3 7 28 1.1860 -0.4012
3 7 29 -9.2607 0.1603
3 7 30 -0.0131 0.0453
3 7 31 6.1679 -0.0368
3 7 32 0.8567 0.1533
3 7 33 -2.1572 0.0439
3 7 34 -1.2412 0.0525
3 7 35 -0.2769 -0.1332
3 7 36 -1.1303 -0.4493
3 7 37 -0.7092 0.1787
3 7 38 4.7557 0.6367
3 7 39 3.1050 0.0113
3 7 40 -6.2731 -0.4225
3 7 41 -3.4942 -0.4344
3 7 42 4.5493 0.0024
3 7 43 2.5332 0.7593
3 7 44 -1.3322 0.2753
3 7 45 -3.0096 -0.6809
3 7 46 -0.8939 -0.2624
3 7 47 4.0406 0.2516
3 7 48 1.0342 0.0136
3 7 49 -2.8772 0.3255
3 7 50 -0.1532 0.3407
3 7 51 0.2612 -0.9707
3 7 52 0.0028 -0.5302
3 7 53 1.1970 1.5604
3 7 54 -0.7161 0.2853
3 7 55 -1.3400 -1.7609
3 9 0 -8.6082 -0.3953
3 9 1 27.8294 -0.4049
3 9 2 9.4680 0.2166
3 9 3 -16.5028 0.0833
3 9 4 -3.8019 0.0626
3 9 5 1.9906 0.0453
3 9 6 -1.8819 -0.0817
3 9 7 0.4781 0.1597
3 9 8 -0.1042 -0.1269
3 9 9 6.9908 -0.3659
3 9 10 10.5512 0.2247
3 9 11 -13.7380 0.2873
3 9 12 -20.7260 -0.1024
3 9 13 17.2409 0.0001
3 9 14 20.6453 -0.0014
3 9 15 -19.7166 -0.2433
3 9 16 -9.6371 -0.0818
3 9 17 19.1012 0.2147
3 9 18 -3.9208 0.1870
3 9 19 -13.5095 0.1143
3 9 20 11.7849 -0.0801
3 9 21 6.6305 -0.4285
3 9 22 -11.7890 -0.1642
3 9 23 -2.1964 0.3776
3 9 24 6.5455 0.2393
3 9 25 -0.7977 -0.0733
3 9 26 -0.0745 -0.0464
3 9 27 4.1282 -0.0800
3 9 28 -4.0784 -0.1590
3 9 29 -6.5538 -0.0184
3 9 30 3.9702 0.1492
3 9 31 5.9371 0.1099
3 9 32 -0.5654 -0.0282
3 9 33 -2.5183 -0.0044
3 9 34 -2.3338 0.0043
3 9 35 -0.9522 -0.2095
3 9 36 1.6320 -0.0711
3 9 37 2.0639 0.2684
3 9 38 1.0819 0.0909
3 9 39 -1.3530 0.0164
3 9 40 -1.6058 -0.0159
3 9 41 0.8137 -0.4683
3 9 42 -0.6160 -0.1231
3 9 43 -0.5041 0.6490
3 9 44 2.0355 0.2811
3 9 45 -0.6741 -0.4063
3 9 46 -1.0889 -0.3471
3 9 47 1.8512 0.0042
3 9 48 0.1041 0.2302
3 9 49 -1.4094 0.3969
3 9 50 -0.5485 -0.1014
3 9 51 0.1935 -0.8860
3 9 52 1.0415 0.3066
3 11 0 4.6284 -0.4418
3 11 1 15.9216 -0.1776
3 11 2 1.9818 0.1631
3 11 3 -2.8202 0.2842
3 11 4 -12.2247 0.2543
3 11 5 -12.8123 -0.2269
3 11 6 13.6678 -0.3515
3 11 7 19.3728 -0.0112
3 11 8 -7.8871 0.0721
3 11 9 -12.2941 0.1496
3 11 10 6.8507 0.2314
3 11 11 -1.7404 -0.0129
3 11 12 -12.7293 -0.2745
3 11 13 11.4524 -0.2095
3 11 14 16.4364 0.0914
3 11 15 -10.9724 0.2523
3 11 16 -13.7800 0.0731
3 11 17 3.6718 -0.1317
3 11 18 8.9659 -0.0281
3 11 19 2.8105 0.0529
3 11 20 -4.6546 -0.1300
3 11 21 -4.2839 -0.0923
3 11 22 0.3766 0.1508
3 11 23 2.4263 0.1344
3 11 24 1.8324 -0.0303
3 11 25 -0.8750 -0.0787
3 11 26 0.4215 -0.0067
3 11 27 1.0125 -0.0252
3 11 28 -4.0970 -0.0731
3 11 29 -1.7836 0.0790
3 11 30 3.5842 0.0933
3 11 31 1.7520 -0.0936
3 11 32 1.6374 -0.0392
3 11 33 -0.3698 0.1632
3 11 34 -6.1470 0.0710
3 11 35 -1.6844 -0.2827
3 11 36 5.4485 -0.2387
3 11 37 2.7546 0.2783
3 11 38 -1.3808 0.4395
3 11 39 -1.6913 -0.0048
3 11 40 -0.9338 -0.5018
3 11 41 -0.5838 -0.4190
3 11 42 0.2469 0.2386
3 11 43 1.9912 0.6668
3 11 44 0.2273 0.2935
3 11 45 -1.8436 -0.5106
3 11 46 0.8843 -0.6672
3 11 47 1.2209 0.0168
3 11 48 -1.1592 0.6137
3 11 49 -0.8280 0.5297
3 11 50 -0.4176 -0.4910
3 11 51 0.1433 -0.8194
3 11 52 1.4068 0.7579
3 13 0 15.5244 0.2368
3 13 1 1.3908 0.0016
3 13 2 -3.1649 -0.1320
3 13 3 -2.6531 0.0921
3 13 4 -10.8534 0.0329
3 13 5 2.4400 -0.1909
3 13 6 17.1966 -0.0553
3 13 7 0.2828 0.1604
3 13 8 -12.4172 0.1160
3 13 9 0.7344 -0.0750
3 13 10 2.3062 -0.0653
3 13 11 -8.4542 0.0500
3 13 12 4.8705 -0.0499
3 13 13 16.1359 -0.0542
3 13 14 -5.4058 0.0466
3 13 15 -17.2373 0.0049
3 13 16 1.6353 0.1003
3 13 17 13.4738 0.0801
3 13 18 0.7899 -0.2206
3 13 19 -8.8177 -0.0782
3 13 20 1.5075 0.1857
3 13 21 3.9214 -0.0940
3 13 22 -5.5424 -0.0163
3 13 23 0.3087 0.3049
3 13 24 5.6305 -0.1907
3 13 25 -1.3667 -0.3014
3 13 26 -1.0853 0.3021
3 13 27 -0.0321 0.0714
3 13 28 -2.9127 -0.2148
3 13 29 -0.2513 0.1029
3 13 30 2.0763 0.0137
3 13 31 3.5407 -0.0620
3 13 32 2.3495 0.0741
3 13 33 -6.2313 -0.0311
3 13 34 -5.8692 0.0124
3 13 35 5.0329 0.0051
3 13 36 5.6638 -0.0919
3 13 37 -1.4070 0.0640
3 13 38 -2.9215 0.0591
3 13 39 -0.6528 0.0272
3 13 40 0.8750 -0.0194
3 13 41 -0.1072 -0.3794
3 13 42 -0.9069 -0.0111
3 13 43 1.1766 0.8192
3 13 44 1.5706 0.2435
3 13 45 -0.6608 -0.9419
3 13 46 -1.5075 -0.7652
3 13 47 0.0408 0.5586
3 13 48 1.2944 1.2819
3 13 49 -0.9772 -0.0623
3 13 50 -1.6601 -1.4160
3 13 51 2.0567 0.0021
3 15 0 1.2389 0.0622
3 15 1 0.5546 -0.2163
3 15 2 3.2016 -0.2428
3 15 3 -8.0084 0.1311
3 15 4 -5.5737 0.3042
3 15 5 11.2406 0.0064
3 15 6 6.2301 -0.2603
3 15 7 -7.7463 -0.0728
3 15 8 -5.7097 0.1558
3 15 9 1.3803 0.0528
3 15 10 3.5806 0.0198
3 15 11 2.3130 -0.0205
3 15 12 -1.3724 -0.1724
3 15 13 -1.5381 0.0030
3 15 14 1.2857 0.1253
3 15 15 -1.9131 0.0265
3 15 16 -1.9720 0.1178
3 15 17 4.3923 -0.0705
3 15 18 0.5438 -0.3164
3 15 19 -2.4971 0.1202
3 15 20 2.2458 0.2668
3 15 21 -2.7347 -0.1724
3 15 22 -3.3969 -0.0478
3 15 23 5.7131 0.1925
3 15 24 2.5305 -0.0633
3 15 25 -3.6007 -0.1788
3 15 26 -1.3636 -0.0847
3 15 27 0.3234 0.2342
3 15 28 0.3458 0.3206
3 15 29 -0.4500 -0.3788
3 15 30 0.8511 -0.3296
3 15 31 3.0794 0.3783
3 15 32 -1.4580 0.0157
3 15 33 -4.4371 -0.0547
3 15 34 0.7970 0.3554
3 15 35 3.1731 -0.3259
3 15 36 0.2654 -0.4138
3 15 37 -1.0163 0.3419
3 15 38 -0.7081 0.1245
3 15 39 0.0935 -0.0342
3 15 40 0.8346 0.1444
3 15 41 -0.6645 -0.1660
3 15 42 -1.3429 -0.1774
3 15 43 1.1842 0.1242
3 15 44 2.0067 0.3347
3 15 45 -0.7107 -0.2020
3 15 46 -2.0156 -0.9846
3 15 47 0.2714 0.6504
3 15 48 1.0736 1.6917
3 15 49 -0.7157 -1.1519
3 15 50 0.2128 -1.6287
3 17 0 3.8375 0.2844
3 17 1 -2.1813 0.1358
3 17 2 -4.6501 -0.1872
3 17 3 1.4180 -0.1321
3 17 4 5.7124 0.0345
3 17 5 -3.7924 0.1754
3 17 6 -3.9818 0.0612
3 17 7 6.0172 -0.0803
3 17 8 -0.4396 -0.0691
3 17 9 -5.2524 -0.0902
3 17 10 4.5096 0.0255
3 17 11 2.1646 0.0793
3 17 12 -6.2567 0.0255
3 17 13 1.2332 0.1043
3 17 14 5.2645 -0.0546
3 17 15 -3.1426 -0.1978
3 17 16 -1.7469 0.0612
3 17 17 1.7870 0.1181
3 17 18 -2.0014 -0.0584
3 17 19 2.7314 -0.0408
3 17 20 2.8122 0.0418
3 17 21 -6.9813 0.0821
3 17 22 -0.9845 -0.0117
3 17 23 7.6954 -0.1717
3 17 24 -0.4714 0.0050
3 17 25 -5.6748 0.2078
3 17 26 0.6614 -0.0458
3 17 27 3.8359 -0.1650
3 17 28 -0.4821 0.1001
3 17 29 -3.1637 0.1065
3 17 30 -0.7346 -0.1275
3 17 31 2.7456 -0.1753
3 17 32 3.4848 0.1168
3 17 33 -1.9213 0.3958
3 17 34 -5.2461 -0.0437
3 17 35 0.7241 -0.4480
3 17 36 3.6361 -0.1127
3 17 37 0.3157 0.0069
3 17 38 -0.2877 0.2565
3 17 39 -0.2727 0.6145
3 17 40 -1.4490 -0.1524
3 17 41 -0.8921 -0.7432
3 17 42 0.6942 -0.3600
3 17 43 1.7198 0.4626
3 17 44 0.8964 1.0766
3 17 45 -1.3142 -0.6676
3 17 46 -1.5981 -1.4636
3 17 47 0.6583 1.6062
3 17 48 1.1033 1.1709
3 19 0 0.4309 -0.0349
3 19 1 5.2579 -0.0322
3 19 2 0.2275 -0.1312
3 19 3 -3.4011 -0.0016
3 19 4 -2.8078 0.3463
3 19 5 1.0449 0.1858
3 19 6 6.2979 -0.3170
3 19 7 -1.0650 -0.2324
3 19 8 -7.6875 -0.0643
3 19 9 2.9078 0.0801
3 19 10 6.7275 0.3838
3 19 11 -4.7246 0.0742
3 19 12 -5.4283 -0.2772
3 19 13 5.6748 -0.0703
3 19 14 3.9678 -0.0368
3 19 15 -4.5650 -0.0476
3 19 16 -1.5222 0.1727
3 19 17 0.5293 0.1284
3 19 18 -0.4562 -0.1352
3 19 19 4.1004 -0.0683
3 19 20 0.2500 0.1164
3 19 21 -5.6353 -0.1149
3 19 22 0.9289 -0.1165
3 19 23 3.6086 0.3042
3 19 24 -1.4929 0.0690
3 19 25 -0.6663 -0.4159
3 19 26 2.2774 -0.0258
3 19 27 -0.4644 0.4951
3 19 28 -3.7918 -0.0030
3 19 29 -1.8176 -0.5509
3 19 30 4.2872 0.1065
3 19 31 6.6909 0.3692
3 19 32 -2.9284 -0.2600
3 19 33 -9.8170 0.2058
3 19 34 1.3898 0.3638
3 19 35 7.3726 -0.8256
3 19 36 -0.9473 -0.4560
3 19 37 -1.5223 0.9096
3 19 38 1.0181 0.4735
3 19 39 -2.0354 -0.4034
3 19 40 -0.8098 0.0020
3 19 41 1.5283 -0.2196
3 19 42 0.0696 -1.1030
3 19 43 -0.1038 0.7102
3 19 44 1.1120 1.9964
3 19 45 0.1477 -1.1833
3 21 0 12.0475 -0.0108
3 21 1 3.5029 0.3975
3 21 2 -10.0926 0.1836
3 21 3 -3.2836 -0.1307
3 21 4 7.1370 -0.1138
3 21 5 3.5231 -0.1860
3 21 6 -5.0295 -0.0149
3 21 7 -3.7947 0.1899
3 21 8 3.5354 -0.0266
3 21 9 3.9252 0.0368
3 21 10 -1.0053 0.1397
3 21 11 -5.6320 -0.0671
3 21 12 -1.7548 -0.1321
3 21 13 8.5862 -0.1542
3 21 14 2.6598 0.0388
3 21 15 -8.6428 0.2503
3 21 16 -2.5428 0.0171
3 21 17 3.9620 -0.0752
3 21 18 3.5813 -0.0365
3 21 19 1.4909 -0.1238
3 21 20 -4.8715 0.0546
3 21 21 -3.7501 0.2105
3 21 22 3.9041 -0.0680
3 21 23 3.1688 -0.2953
3 21 24 -1.0832 0.1138
3 21 25 -1.1588 0.3523
3 21 26 -0.6424 -0.1905
3 21 27 -1.6654 -0.2054
3 21 28 -0.5083 0.1829
3 21 29 3.3318 -0.0549
3 21 30 3.6131 -0.1386
3 21 31 -2.0866 0.0958
3 21 32 -5.9473 0.3253
3 21 33 -0.1676 0.1342
3 21 34 5.1622 -0.5981
3 21 35 0.5997 -0.2691
3 21 36 -2.0512 0.2074
3 21 37 0.1112 -0.0490
3 21 38 0.1738 1.0899
3 21 39 0.1702 0.8862
3 21 40 -1.1400 -2.2748
3 21 41 -1.1697 -2.0327
3 21 42 2.3420 2.2757
3 21 43 1.4212 2.9699
3 23 0 8.3613 0.0279
3 23 1 -2.1538 0.2088
3 23 2 -8.1495 0.0221
3 23 3 0.5571 -0.1488
3 23 4 7.8821 -0.1920
3 23 5 0.1254 -0.0431
3 23 6 -6.5950 0.2911
3 23 7 0.2783 0.1055
3 23 8 3.2012 -0.1871
3 23 9 0.6410 0.0152
3 23 10 -0.0577 0.0247
3 23 11 -4.0599 -0.0862
3 23 12 1.1062 0.0271
3 23 13 6.9153 0.0375
3 23 14 -5.0644 -0.0579
3 23 15 -6.3402 -0.0273
3 23 16 6.3132 0.2014
3 23 17 4.0693 0.0750
3 23 18 -3.5210 -0.3488
3 23 19 -2.7638 -0.0537
3 23 20 0.9628 0.3233
3 23 21 1.6183 -0.0195
3 23 22 -1.2098 -0.1486
3 23 23 0.6396 0.0467
3 23 24 2.8486 -0.0866
3 23 25 -2.1779 -0.0582
3 23 26 -4.4585 0.4293
3 23 27 1.1537 0.0786
3 23 28 5.2737 -0.8147
3 23 29 0.8194 -0.0331
3 23 30 -3.9320 0.7887
3 23 31 -1.1589 -0.0474
3 23 32 0.8091 0.0371
3 23 33 -0.2443 0.1754
3 23 34 1.3180 -1.2285
3 23 35 1.7216 -0.8183
3 23 36 -1.4888 1.7303
3 23 39 0.6757 -4.0489
3 23 40 -2.6178 -0.3046
3 25 0 -1.4681 -0.1391
3 25 1 -0.4721 0.3115
3 25 2 -0.5807 0.2780
3 25 3 2.4413 -0.2051
3 25 4 4.2255 -0.3232
3 25 5 -4.3282 -0.0542
3 25 6 -5.8489 0.2422
3 25 7 2.8922 0.1592
3 25 8 4.4779 -0.0261
3 25 9 2.6366 -0.0585
3 25 10 -3.2484 -0.1385
3 25 11 -7.5481 -0.0202
3 25 12 4.0775 0.1148
3 25 13 7.1740 -0.0951
3 25 14 -4.7613 -0.0544
3 25 15 -3.7148 0.2860
3 25 16 3.4503 0.1447
3 25 17 2.1449 -0.3061
3 25 18 -1.5481 -0.3354
3 25 19 -2.2393 0.0849
3 25 20 0.0736 0.4787
3 25 21 0.6561 0.2225
3 25 22 2.0376 -0.4987
3 25 23 2.4447 -0.4221
3 25 24 -4.3044 0.3331
3 25 25 -4.4472 0.4421
3 25 26 4.4241 0.0341
3 25 27 4.6433 -0.2753
3 25 28 -2.7948 -0.4383
3 25 29 -3.5525 -0.2515
3 25 30 2.4119 0.6539
3 25 31 1.2857 1.4383
3 25 32 -3.8031 -0.5811
3 25 33 1.0925 -3.0968
3 25 34 4.6040 0.1256
3 25 35 -1.8964 4.1733
3 25 36 -3.9072 0.8101
3 27 0 1.4430 0.1249
3 27 1 3.8858 0.0465
3 27 2 0.1432 0.0839
3 27 3 -2.4208 -0.0944
3 27 4 -2.1022 -0.4722
3 27 5 -0.7514 -0.0903
3 27 6 3.1871 0.5046
3 27 7 1.7686 0.2030
3 27 8 -1.3524 0.0109
3 27 9 -0.2257 -0.0712
3 27 10 -2.8665 -0.5331
3 27 11 -0.9336 -0.1955
3 27 12 5.3369 0.4489
3 27 13 0.6478 0.3309
3 27 14 -4.0180 0.0759
3 27 15 -0.8502 -0.1971
3 27 16 2.0671 -0.3328
3 27 17 2.1856 -0.0982
3 27 18 -2.1175 0.0576
3 27 19 -3.1402 0.3088
3 27 20 2.1995 0.2579
3 27 21 3.5409 -0.1624
3 27 22 -0.3912 -0.0272
3 27 23 -4.4036 -0.4921
3 27 24 -1.5479 -0.8147
3 27 25 4.8963 1.4621
3 27 26 1.7996 1.8664
3 27 27 -3.7773 -2.2483
3 27 28 -1.1187 -2.7002
3 27 29 2.3780 2.4524
3 27 30 0.2636 3.2073
3 27 31 -2.2486 -2.0648
3 29 0 -1.9650 -0.1067
3 29 1 7.0493 0.1343
3 29 2 -0.8135 0.3727
3 29 3 -7.6790 -0.4953
3 29 4 1.8035 -0.4601
3 29 5 7.2766 0.4960
3 29 6 -1.2823 0.2387
3 29 7 -5.4228 0.0778
3 29 8 0.6211 0.2098
3 29 9 1.6672 -0.7437
3 29 10 -0.0871 -0.5150
3 29 11 2.0540 0.6498
3 29 12 -0.7338 0.3579
3 29 13 -2.5939 0.3263
3 29 14 0.9942 0.0874
3 29 15 0.3175 -1.2275
3 29 16 0.2827 -0.3493
3 29 17 1.2400 1.1357
3 29 18 -1.9226 0.2236
3 29 19 -0.9335 -0.3417
3 29 20 2.3659 0.2404
3 29 21 0.9304 -0.0078
3 29 22 -2.2777 -1.0787
3 29 23 -2.0922 -0.7347
3 29 24 2.6450 2.1830
3 29 25 2.8740 2.0724
3 31 0 0.0674 -0.1070
3 31 1 0.2153 0.2678
3 31 2 -0.4298 0.2220
3 31 3 0.6476 -0.5914
3 31 4 1.4766 0.0018
3 31 5 -0.6045 0.2013
3 31 6 -1.8327 -0.0732
3 31 7 -0.3818 0.4531
3 31 13 2.3603 0.8492
3 31 14 4.6705 -1.2116
3 31 15 -2.5633 -1.7145
3 31 16 -1.9717 1.9635
3 31 17 2.2304 1.7101
4 0 0 72.2542 -3.4474
4 0 2 -71.9496 -0.6078
4 0 4 33.5661 1.9305
4 0 6 -8.0687 -0.7157
4 0 8 13.4298 -0.9476
4 0 10 -26.5476 1.5933
4 0 12 24.1921 -1.3282
4 0 14 -7.3429 0.8925
4 0 16 -9.6875 -0.7052
4 0 18 16.0964 0.7970
4 0 20 -8.2487 -1.0251
4 0 22 -10.3378 1.1904
4 0 24 26.8183 -1.2105
4 0 26 -27.2231 1.1754
4 0 28 13.3882 -1.1164
4 0 30 -2.0882 0.9255
4 0 32 2.4037 -0.6285
4 0 34 -5.8329 0.4603
4 0 36 3.4703 -0.5303
4 0 38 0.8516 0.6694
4 0 40 -0.4931 -0.6845
4 0 42 -3.1273 0.5410
4 0 44 5.3235 -0.3203
4 0 46 -5.1972 0.2033
4 0 48 4.2930 -0.3904
4 0 50 -3.4542 0.8504
4 0 52 2.4673 -1.2851
4 0 54 -0.7770 1.4374
4 2 0 -39.5104 -0.2825
4 2 1 -45.2914 -0.2797
4 2 2 39.5615 -0.6547
4 2 3 20.3323 1.5301
4 2 4 -46.8146 0.9731
4 2 5 5.1243 -0.8546
4 2 6 44.9645 -0.7470
4 2 7 -2.7527 -0.4488
4 2 8 -31.2169 0.2377
4 2 9 -14.6593 0.9023
4 2 10 15.9324 0.3033
4 2 11 20.2867 -0.4055
4 2 12 -7.8149 -0.4893
4 2 13 -7.0602 -0.1455
4 2 14 6.3538 0.2559
4 2 15 -12.1625 0.1880
4 2 16 -6.3606 -0.0771
4 2 17 23.5885 0.1037
4 2 18 4.5210 0.1878
4 2 19 -22.1108 -0.3748
4 2 20 -0.4110 -0.2400
4 2 21 9.3784 0.4516
4 2 22 -5.0816 0.0903
4 2 23 6.9916 -0.2914
4 2 24 9.3484 -0.0828
4 2 25 -15.0587 -0.0002
4 2 26 -8.8974 0.2737
4 2 27 9.5926 0.1789
4 2 28 4.0721 -0.2488
4 2 29 -0.0017 -0.1230
4 2 30 -0.2265 -0.0813
4 2 31 -1.5401 -0.0470
4 2 32 0.9451 0.2768
4 2 33 -3.7417 0.1931
4 2 34 -3.4930 -0.1002
4 2 35 6.2472 -0.2923
4 2 36 4.1819 -0.1591
4 2 37 -3.7296 0.3175
4 2 38 -4.1134 0.1880
4 2 39 1.5059 -0.2309
4 2 40 5.9639 -0.0435
4 2 41 -1.8203 0.0931
4 2 42 -8.7701 -0.0532
4 2 43 2.3969 0.0224
4 2 44 9.5420 0.0426
4 2 45 -2.0112 -0.1655
4 2 46 -7.6945 -0.0206
4 2 47 1.1960 0.3952
4 2 48 5.2467 0.0435
4 2 49 -0.2934 -0.6237
4 2 50 -3.9139 -0.1062
4 2 51 -0.2996 0.7276
4 2 52 3.5774 0.2559
4 2 53 0.3820 -0.7377
4 2 54 -3.2144 -0.5273
4 2 55 -0.5432 0.7985
4 2 56 2.5098 0.7978
4 4 0 -13.1564 -0.7943
4 4 1 20.7050 -0.6897
4 4 2 -5.8169 0.8950
4 4 3 -31.4651 0.7635
4 4 4 23.4670 -0.3899
4 4 5 30.2454 -0.4093
4 4 6 -18.6494 -0.3262
4 4 7 -12.4835 0.0597
4 4 8 -3.1965 0.4769
4 4 9 -4.9790 0.0870
4 4 10 19.2251 0.0783
4 4 11 7.3376 -0.0088
4 4 12 -16.3255 -0.6231
4 4 13 3.0907 -0.2424
4 4 14 0.6915 0.5404
4 4 15 -13.4103 0.3731
4 4 16 13.9007 -0.0447
4 4 17 14.5425 -0.1657
4 4 18 -19.3242 -0.2818
4 4 19 -7.1783 -0.0822
4 4 20 15.5898 0.2391
4 4 21 -3.0198 -0.0039
4 4 22 -7.2422 -0.0121
4 4 23 10.9139 0.2702
4 4 24 0.5637 -0.1869
4 4 25 -12.6591 -0.3923
4 4 26 -0.0201 0.2142
4 4 27 7.4891 0.4309
4 4 28 3.8308 -0.0353
4 4 29 -0.7013 -0.5520
4 4 30 -5.9586 -0.1648
4 4 31 -0.9974 0.6026
4 4 32 3.9508 0.1418
4 4 33 -1.7873 -0.3717
4 4 34 -0.6970 0.0948
4 4 35 2.8995 -0.0184
4 4 36 -1.4923 -0.3171
4 4 37 -0.5563 0.2452
4 4 38 2.8641 0.3703
4 4 39 -1.0804 -0.1628
4 4 40 -2.9233 -0.2471
4 4 41 -0.5334 -0.0770
4 4 42 1.0050 -0.0088
4 4 43 3.2639 0.2400
4 4 44 1.0164 0.2845
4 4 45 -4.3274 -0.2828
4 4 46 -1.2674 -0.3904
4 4 47 3.2103 0.3338
4 4 48 0.8097 0.2638
4 4 49 -1.1372 -0.4615
4 4 50 -0.8026 -0.1272
4 4 51 -0.2566 0.6612
4 4 52 0.2758 0.2569
4 4 53 0.3776 -0.9850
4 4 54 1.0915 -0.5817
4 4 55 -0.0950 1.3950
4 6 0 6.6648 -0.1385
4 6 1 -0.0639 -0.2886
4 6 2 -19.9845 0.2592
4 6 3 9.9089 0.1787
4 6 4 19.7286 0.0539
4 6 5 -11.0061 -0.1689
4 6 6 -1.6256 -0.4300
4 6 7 -0.6762 0.1590
4 6 8 -17.4960 0.5030
4 6 9 17.9194 -0.0234
4 6 10 20.8317 -0.2412
4 6 11 -29.1159 -0.0751
4 6 12 -6.9802 -0.1871
4 6 13 28.6212 -0.0907
4 6 14 -12.6243 0.4959
4 6 15 -19.5492 0.3511
4 6 16 24.4577 -0.4641
4 6 17 8.9149 -0.3137
4 6 18 -22.9148 0.2499
4 6 19 -1.7589 -0.0279
4 6 20 12.9061 -0.1847
4 6 21 -0.9122 0.2664
4 6 22 -3.0709 0.2388
4 6 23 0.7243 -0.1467
4 6 24 -1.5695 -0.1284
4 6 25 0.1859 -0.1852
4 6 26 0.7192 -0.1436
4 6 27 -0.3064 0.4548
4 6 28 2.6143 0.2970
4 6 29 -1.2684 -0.5024
4 6 30 -4.1654 -0.2050
4 6 31 4.7018 0.3060
4 6 32 2.6209 0.0013
4 6 33 -8.1379 0.0248
4 6 34 -0.9020 0.1179
4 6 35 8.0226 -0.2993
4 6 36 1.3234 -0.0710
4 6 37 -3.3924 0.3909
4 6 38 -2.6192 -0.0217
4 6 39 -1.4765 -0.3064
4 6 40 3.0574 -0.0073
4 6 41 2.1603 0.1103
4 6 42 -2.5535 0.0813
4 6 43 -0.1368 0.1395
4 6 44 1.3023 0.0106
4 6 45 -0.2452 -0.3492
4 6 46 0.1169 -0.2152
4 6 47 -1.4347 0.3773
4 6 48 -0.2655 0.3028
4 6 49 2.4574 -0.2064
4 6 50 -0.7819 -0.2924
4 6 51 -2.1878 0.1104
4 6 52 0.9073 0.3629
4 6 53 1.9933 -0.4042
4 6 55 -1.9707 0.9193
4 8 0 -2.4459 -0.1299
4 8 1 -23.3284 0.4122
4 8 2 -1.3156 -0.0712
4 8 3 23.8248 -0.4693
4 8 4 -1.4325 0.2889
4 8 5 -13.3373 0.1421
4 8 6 4.2959 -0.4188
4 8 7 1.8536 0.1659
4 8 8 -0.0134 0.4012
4 8 9 3.4874 -0.2352
4 8 10 -10.1977 -0.2055
4 8 11 -2.1621 0.1452
4 8 12 19.2585 -0.1205
4 8 13 -4.9246 -0.0774
4 8 14 -21.7670 0.3480
4 8 15 14.6900 0.1240
4 8 16 17.0994 -0.2196
4 8 17 -20.2902 -0.1625
4 8 18 -8.3940 -0.1917
4 8 19 18.0536 0.0355
4 8 20 0.4246 0.4853
4 8 21 -12.0034 0.1044
4 8 22 3.1558 -0.4021
4 8 23 7.3591 0.0402
4 8 24 -1.9385 0.1089
4 8 25 -4.5432 -0.3978
4 8 26 -1.4553 0.0539
4 8 27 2.0424 0.5794
4 8 28 3.2746 0.0352
4 8 29 -0.3727 -0.4022
4 8 30 -1.1825 -0.1965
4 8 31 0.9198 0.0310
4 8 32 -3.3308 0.1984
4 8 33 -3.1150 0.2644
4 8 34 5.6880 -0.0300
4 8 35 4.2702 -0.2859
4 8 36 -3.3971 -0.1357
4 8 37 -2.7036 0.0759
4 8 38 -0.4697 0.2048
4 8 39 0.4230 0.0573
4 8 40 1.3524 -0.2175
4 8 41 -0.3743 0.0203
4 8 42 0.6446 0.1719
4 8 43 1.7122 -0.0012
4 8 44 -1.7842 -0.0155
4 8 45 -1.6277 -0.2889
4 8 46 0.6183 -0.2454
4 8 47 0.6064 0.4373
4 8 48 0.7011 0.6245
4 8 49 -0.9246 -0.1001
4 8 50 -0.4257 -1.1582
4 8 51 1.6655 -0.3142
4 8 52 -0.7691 1.6298
4 8 54 1.6459 -1.6370
4 10 0 -5.9421 0.1507
4 10 1 -5.1806 -0.1906
4 10 2 3.2873 -0.2995
4 10 3 0.9234 0.0623
4 10 4 1.5197 0.1393
4 10 5 9.0710 -0.0699
4 10 6 -0.9943 0.0284
4 10 7 -14.0344 0.1576
4 10 8 -3.7853 0.0386
4 10 9 11.1359 -0.1669
4 10 10 5.1362 -0.2065
4 10 11 -5.6612 0.0371
4 10 12 -1.9044 0.2156
4 10 13 2.2809 0.1103
4 10 14 0.6510 -0.0083
4 10 15 -2.2647 -0.1316
4 10 16 -3.7023 -0.1929
4 10 17 5.2107 0.0630
4 10 18 6.3035 0.1156
4 10 19 -8.3922 -0.0480
4 10 20 -5.5943 0.1925
4 10 21 7.7500 0.1060
4 10 22 3.3726 -0.3920
4 10 23 -2.8694 -0.1256
4 10 24 -0.5569 0.3500
4 10 25 -1.8496 0.0313
4 10 26 -3.4900 -0.2982
4 10 27 2.5711 0.1588
4 10 28 6.7817 0.3926
4 10 29 -0.1458 -0.3366
4 10 30 -5.8347 -0.4912
4 10 31 -1.6521 0.3310
4 10 32 1.1228 0.4319
4 10 33 0.3243 -0.1166
4 10 34 2.4317 -0.1941
4 10 35 2.8951 -0.0778
4 10 36 -1.3982 -0.1442
4 10 37 -4.3115 0.1084
4 10 38 -1.7940 0.3541
4 10 39 2.0304 -0.1471
4 10 40 2.3486 -0.2177
4 10 41 1.7459 0.2835
4 10 42 0.1199 -0.0625
4 10 43 -3.6989 -0.2711
4 10 44 -1.7374 0.0620
4 10 45 3.2119 0.0061
4 10 46 1.1198 0.1022
4 10 47 -1.8589 0.2285
4 10 48 -1.1093 0.1826
4 10 49 0.8444 -0.3343
4 10 50 2.9079 -1.0007
4 10 51 -0.4991 0.6201
4 12 0 -13.2937 -0.0488
4 12 1 -13.4439 0.0418
4 12 2 7.2598 -0.0682
4 12 3 15.9307 -0.2017
4 12 4 2.4685 0.2048
4 12 5 -13.6750 0.3768
4 12 6 -6.6057 -0.2071
4 12 7 7.0687 -0.3208
4 12 8 2.8291 0.1056
4 12 9 -2.6959 0.0863
4 12 10 1.8891 -0.0146
4 12 11 4.3439 0.0863
4 12 12 -1.7724 -0.0357
4 12 13 -7.2534 -0.0825
4 12 14 -2.2506 0.0886
4 12 15 5.7322 -0.0218
4 12 16 6.9912 -0.1229
4 12 17 -1.5384 0.0849
4 12 18 -9.6100 0.0827
4 12 19 -0.1065 -0.0541
4 12 20 7.3203 -0.0288
4 12 21 -1.7171 0.0301
4 12 22 -0.9763 0.0489
4 12 23 4.2376 -0.1085
4 12 24 -3.2747 -0.0696
4 12 25 -5.5530 0.2046
4 12 26 1.0765 0.0029
4 12 27 5.1247 -0.1927
4 12 28 3.9755 0.0602
4 12 29 -2.8338 0.1233
4 12 30 -5.0013 -0.0558
4 12 31 0.1559 -0.1315
4 12 32 0.2674 0.0780
4 12 33 0.0650 0.2526
4 12 34 5.5976 -0.0759
4 12 35 2.9555 -0.4363
4 12 36 -7.2801 -0.1493
4 12 37 -6.1865 0.5753
4 12 38 4.1254 0.4525
4 12 39 6.0777 -0.5038
4 12 40 0.0888 -0.4208
4 12 41 -2.9348 0.1918
4 12 42 -2.1060 0.0770
4 12 43 0.4216 0.1258
4 12 44 2.2807 0.1677
4 12 45 -0.6809 -0.2668
4 12 46 -2.0721 -0.3020
4 12 47 1.8761 0.4096
4 12 48 1.2439 0.6734
4 12 49 -1.4967 -0.7826
4 12 50 0.4804 -1.1690
4 12 51 0.0005 1.1913
4 14 0 -5.9958 -0.1906
4 14 1 5.0735 0.4087
4 14 2 3.1085 0.2131
4 14 3 2.2092 -0.2350
4 14 4 -1.2175 -0.0457
4 14 5 -4.7332 -0.0309
4 14 6 1.1264 -0.1133
4 14 7 -0.0273 0.1627
4 14 8 -3.0124 0.1336
4 14 9 7.4928 -0.0993
4 14 10 6.1778 -0.1147
4 14 11 -11.1313 -0.0461
4 14 12 -7.8351 0.1391
4 14 13 9.6719 0.1338
4 14 14 5.0978 -0.1227
4 14 15 -5.7028 -0.1139
4 14 16 0.4869 0.0022
4 14 17 1.6786 0.0406
4 14 18 -3.4152 0.1235
4 14 19 0.1485 -0.0387
4 14 20 1.0922 -0.1065
4 14 21 0.9397 0.1614
4 14 22 2.5716 -0.0918
4 14 23 -1.6450 -0.2418
4 14 24 -2.3736 0.3492
4 14 25 -1.3666 0.0814
4 14 26 -1.8775 -0.4562
4 14 27 5.4180 0.2122
4 14 28 6.0541 0.3056
4 14 29 -4.8832 -0.3783
4 14 30 -6.6015 -0.0387
4 14 31 -0.7512 0.4111
4 14 32 3.2804 -0.0850
4 14 33 6.3218 -0.4143
4 14 34 1.3609 0.0083
4 14 35 -7.4643 0.2410
4 14 36 -4.1502 0.0306
4 14 37 4.5522 0.2016
4 14 38 3.7823 0.1816
4 14 39 -0.9307 -0.5424
4 14 40 -1.5997 -0.5198
4 14 41 -0.9399 0.3980
4 14 42 -0.2088 0.7066
4 14 43 1.4209 0.0588
4 14 44 0.5640 -0.7471
4 14 45 -1.9647 -0.4635
4 14 46 0.3752 0.9057
4 14 47 2.4286 0.7996
4 14 48 -1.7601 -1.2332
4 14 49 -1.7366 -1.1350
4 14 50 2.3912 1.4140
4 16 0 0.0618 0.0153
4 16 1 -4.0928 0.0800
4 16 2 4.9230 -0.0066
4 16 3 8.6993 -0.0778
4 16 4 -9.4739 -0.0241
4 16 5 -7.9140 -0.0224
4 16 6 11.2018 0.0793
4 16 7 2.6583 -0.0269
4 16 8 -8.3900 -0.1340
4 16 9 3.1129 0.1978
4 16 10 2.8626 0.1263
4 16 11 -6.2077 -0.1957
4 16 12 2.5561 -0.0552
4 16 13 5.5612 -0.0295
4 16 14 -6.2756 0.0264
4 16 15 -2.0397 0.1873
4 16 16 7.1734 -0.1194
4 16 17 -1.1825 -0.0935
4 16 18 -5.2372 0.2436
4 16 19 0.8020 -0.1263
4 16 20 2.5254 -0.2281
4 16 21 1.9155 0.2833
4 16 22 -0.7054 0.0696
4 16 23 -1.8744 -0.3196
4 16 24 -0.6188 0.0469
4 16 25 -2.6140 0.2797
4 16 26 1.4305 -0.0220
4 16 27 7.2327 -0.2542
4 16 28 -0.4070 -0.0411
4 16 29 -7.9357 0.2721
4 16 30 -2.1018 0.0482
4 16 31 5.8400 -0.1968
4 16 32 3.7080 -0.0173
4 16 33 -4.3015 -0.0650
4 16 34 -3.4311 -0.0467
4 16 35 4.4535 0.2450
4 16 36 2.4524 0.1208
4 16 37 -5.0611 0.0126
4 16 38 -1.5669 -0.0708
4 16 39 4.8362 -0.4672
4 16 40 0.6381 -0.1350
4 16 41 -3.9252 0.3844
4 16 42 0.0451 0.2985
4 16 43 3.3562 0.4212
4 16 44 -0.1216 -0.3542
4 16 45 -3.1254 -1.1591
4 16 46 0.1157 0.5269
4 16 47 1.9946 1.0666
4 16 48 -0.5600 -0.8302
4 18 0 0.5874 -0.1371
4 18 1 -0.6211 0.4495
4 18 2 4.0900 0.2258
4 18 3 0.1328 -0.1691
4 18 4 -7.0154 -0.3289
4 18 5 3.7381 -0.2206
4 18 6 6.1176 0.2661
4 18 7 -7.0592 0.2869
4 18 8 -2.6422 0.0455
4 18 9 6.5193 0.0069
4 18 10 -1.2761 -0.2792
4 18 11 -2.8441 -0.2461
4 18 12 4.8069 0.1268
4 18 13 -1.4509 0.1737
4 18 14 -6.8678 0.2018
4 18 15 4.3279 0.0095
4 18 16 6.0720 -0.3141
4 18 17 -4.4750 -0.0433
4 18 18 -3.7323 0.1899
4 18 19 2.3801 -0.0408
4 18 20 2.7035 -0.0443
4 18 21 -0.7146 0.0882
4 18 22 -2.6719 -0.0606
4 18 23 1.5686 -0.0545
4 18 24 1.2119 0.1495
4 18 25 -4.0764 -0.0365
4 18 26 1.2893 -0.1423
4 18 27 5.7059 0.1422
4 18 28 -2.8465 -0.0108
4 18 29 -4.7611 -0.1714
4 18 30 4.2818 0.1991
4 18 31 1.6205 0.1014
4 18 32 -7.3406 -0.2857
4 18 33 1.3028 -0.0307
4 18 35 -1.6305 -0.0910
4 18 36 -10.4060 0.1085
4 18 37 -0.0602 0.4613
4 18 38 7.3609 -0.4163
4 18 39 1.0288 -0.8268
4 18 40 -3.9230 0.1995
4 18 41 -0.5353 0.4535
4 18 42 2.0869 0.8583
4 18 43 0.5205 0.7176
4 18 44 -1.7544 -2.2196
4 18 45 -1.6270 -1.5381
4 20 0 -1.3514 0.0821
4 20 1 -1.4834 -0.1414
4 20 2 5.0727 -0.1769
4 20 3 -1.7529 0.1197
4 20 4 -6.2641 -0.0015
4 20 5 5.4896 -0.0717
4 20 6 4.8446 0.1634
4 20 7 -7.6732 0.1009
4 20 8 -2.9273 -0.0208
4 20 9 7.5739 -0.1830
4 20 10 0.9151 -0.1680
4 20 11 -4.6483 0.1443
4 20 12 2.0256 0.0284
4 20 13 -0.4194 -0.0196
4 20 14 -4.7678 0.2709
4 20 15 3.8446 0.0390
4 20 16 5.5044 -0.3278
4 20 17 -2.5625 -0.1854
4 20 18 -4.7976 0.1514
4 20 19 -0.9780 0.1851
4 20 20 3.9002 -0.0041
4 20 21 2.2980 0.0068
4 20 22 -2.0846 -0.0579
4 20 23 -1.0057 -0.1227
4 20 24 -1.2337 0.0702
4 20 25 -0.4905 0.0375
4 20 26 3.9788 0.0413
4 20 27 0.9573 0.0692
4 20 28 -3.7941 -0.2139
4 20 29 0.2611 -0.0918
4 20 30 1.2374 0.2168
4 20 31 -3.7155 0.1953
4 20 32 1.0978 -0.0731
4 20 33 7.3460 -0.4747
4 20 34 -1.4344 0.0082
4 20 35 -7.6468 0.6716
4 20 36 0.2305 0.0338
4 20 37 4.5584 -0.4593
4 20 38 0.5052 -0.0894
4 20 39 -1.4502 -0.1106
4 20 40 0.3524 -0.4586
4 20 41 0.2624 0.6583
4 20 42 -1.3903 2.0947
4 20 43 -0.1010 -0.9044
4 22 0 -2.7505 -0.0253
4 22 1 -1.6197 0.2997
4 22 2 1.9008 0.1850
4 22 3 0.2400 0.1271
4 22 4 0.6389 -0.2442
4 22 5 1.7164 -0.3945
4 22 6 -3.8678 0.1591
4 22 7 -3.9025 0.4653
4 22 8 6.6741 -0.0330
4 22 9 4.9639 -0.3590
4 22 10 -7.7433 -0.0498
4 22 11 -2.1468 0.0094
4 22 12 5.4403 0.0724
4 22 13 -4.0874 0.3423
4 22 14 -0.8586 -0.0349
4 22 15 8.6040 -0.2869
4 22 16 -1.5913 -0.0169
4 22 17 -8.0910 -0.0725
4 22 18 0.0693 -0.0085
4 22 19 5.0507 0.2350
4 22 20 1.6821 0.1154
4 22 21 -2.8583 -0.1114
4 22 22 -0.2321 -0.1590
4 22 23 1.6584 0.0371
4 22 24 -2.8150 0.0206
4 22 25 -1.0979 -0.0739
4 22 26 4.3843 0.1924
4 22 27 2.0130 0.0161
4 22 28 -3.9119 -0.2480
4 22 29 -3.7550 0.0607
4 22 30 2.2169 0.1041
4 22 31 4.1075 0.0278
4 22 32 -0.2077 0.0807
4 22 33 -2.6015 -0.0712
4 22 34 -0.8153 -0.3629
4 22 35 0.8331 -0.1926
4 22 36 0.4972 1.0879
4 22 37 0.0157 0.5855
4 22 38 -0.3320 -2.1846
4 22 39 0.1700 -0.9772
4 22 40 1.1767 2.7625
4 22 41 -0.9520 1.6820
4 24 0 -1.9015 0.6047
4 24 1 1.8652 -0.0857
4 24 2 4.4899 -0.4392
4 24 3 -1.7250 0.0661
4 24 4 -5.9899 0.0020
4 24 5 0.9324 -0.0227
4 24 6 4.5505 0.2655
4 24 7 -0.2703 0.0123
4 24 8 0.3707 -0.2297
4 24 9 -0.1218 -0.0302
4 24 10 -4.9903 -0.0392
4 24 11 -0.0886 -0.0056
4 24 12 4.4989 0.2893
4 24 13 1.6447 0.0582
4 24 14 -0.2714 -0.2157
4 24 15 -3.4318 0.0342
4 24 16 -1.5652 -0.0748
4 24 17 3.2683 -0.2515
4 24 18 -0.8576 0.0883
4 24 19 -2.1343 0.3193
4 24 20 3.5388 0.2988
4 24 21 3.3367 -0.0867
4 24 22 -3.6394 -0.6043
4 24 23 -6.7196 -0.2486
4 24 24 1.9983 0.4960
4 24 25 8.4490 0.3916
4 24 26 0.4114 -0.2084
4 24 27 -6.9906 -0.2144
4 24 28 -3.0243 -0.0212
4 24 29 4.7549 -0.2278
4 24 30 4.1391 0.3034
4 24 31 -3.6931 0.7259
4 24 32 -2.9818 -0.6173
4 24 33 3.1697 -1.0878
4 24 34 1.3128 0.6055
4 24 35 -2.1336 1.4582
4 24 36 -0.6033 -0.1581
4 24 37 0.5788 -2.1075
4 26 0 0.4254 0.2626
4 26 1 -1.3152 -0.2182
4 26 2 -2.7275 -0.0369
4 26 3 -1.9822 0.1985
4 26 4 3.0633 -0.1166
4 26 5 4.8304 -0.0098
4 26 6 -2.9022 0.0834
4 26 7 -4.7041 -0.0442
4 26 8 3.8447 0.0191
4 26 9 1.3027 -0.1327
4 26 10 -5.1287 -0.2049
4 26 11 1.4796 0.2999
4 26 12 5.5302 0.5065
4 26 13 -0.6200 -0.1566
4 26 14 -5.0965 -0.6306
4 26 15 -1.0087 -0.1717
4 26 16 3.9795 0.2801
4 26 17 -0.6980 0.2281
4 26 18 -2.4658 0.2567
4 26 19 4.3077 0.0598
4 26 20 2.1727 -0.3762
4 26 21 -5.7839 -0.2056
4 26 22 -3.9228 -0.0102
4 26 23 4.7736 -0.1042
4 26 24 5.2968 0.3735
4 26 25 -3.3544 0.5839
4 26 26 -3.8315 -0.2482
4 26 27 2.1111 -0.8730
4 26 28 1.1293 -0.3389
4 26 29 -1.0212 1.0155
4 26 30 -0.2366 1.0141
4 26 31 0.7629 -1.1482
4 26 32 0.8737 -1.3650
4 28 0 -2.0344 0.2443
4 28 1 -2.6037 -0.3375
4 28 2 1.0817 -0.2121
4 28 3 5.2158 -0.2963
4 28 4 0.2763 0.1642
4 28 5 -5.1750 0.5813
4 28 6 -1.8920 -0.0955
4 28 7 4.2361 -0.5116
4 28 8 2.6018 -0.0936
4 28 9 -3.8078 0.2683
4 28 10 -2.1160 0.2842
4 28 11 3.4980 0.1199
4 28 12 2.0416 -0.1958
4 28 13 -3.1748 -0.4325
4 28 14 -2.7089 -0.0265
4 28 15 3.4602 0.1607
4 28 16 1.8465 -0.1638
4 28 17 -4.0478 0.7878
4 28 18 1.1541 0.7526
4 28 19 4.1165 -1.6578
4 28 20 -3.4323 -0.8935
4 28 21 -3.8845 1.5860
4 28 22 3.2300 0.0621
4 28 23 3.5462 -0.6254
4 28 24 -2.1568 1.1563
4 30 0 -0.1438 -0.5565
4 30 1 5.9632 -0.0396
4 30 2 2.7406 -0.4827
4 30 3 -3.8300 -0.0633
4 30 4 -4.1794 0.8655
4 30 5 1.2460 0.2475
4 30 6 3.8422 -0.4182
4 30 7 1.1820 -0.2935
4 30 8 -2.4825 -0.1277
4 30 9 -2.0840 0.2222
4 30 10 0.9554 0.2727
4 30 11 1.2912 0.0269
4 30 12 0.0254 -0.0509
4 30 13 -0.4348 -0.3086
4 30 14 0.3834 -0.4654
4 30 15 0.1882 -0.0470
4 30 16 -2.1232 1.3286
4 30 17 0.4676 1.3436
4 30 18 3.6511 -2.3056
4 30 19 -1.5402 -2.5724
4 30 20 -3.8422 2.6855
4 32 0 6.8135 -0.1947
4 32 1 -1.1842 -0.6977
4 32 2 -5.0122 -0.2494
4 32 3 1.4895 1.2614
4 32 4 1.8460 0.7548
5 1 0 30.6540 1.6925
5 1 1 14.1974 -0.4308
5 1 2 -16.8313 -0.3898
5 1 3 -15.8775 -0.8191
5 1 4 8.9188 -0.9425
5 1 5 14.3671 1.5501
5 1 6 4.3751 1.0699
5 1 7 -15.3692 -1.1419
5 1 8 -21.6604 0.0227
5 1 9 14.5128 0.2561
5 1 10 30.9946 -1.2139
5 1 11 -6.7860 0.2738
5 1 12 -27.5018 1.3064
5 1 13 -5.2894 -0.2851
5 1 14 16.9472 -0.2961
5 1 15 15.3390 -0.0554
5 1 16 -6.9144 -0.6041
5 1 17 -19.1902 0.5538
5 1 18 1.9785 0.4619
5 1 19 15.8461 -0.8746
5 1 20 -4.4239 0.3189
5 1 21 -6.9000 0.8505
5 1 22 12.6705 -0.7810
5 1 23 -2.6282 -0.8037
5 1 24 -18.9963 0.6664
5 1 25 6.1859 0.9811
5 1 26 15.4562 -0.3975
5 1 27 -2.1749 -1.0380
5 1 28 -4.3318 0.2941
5 1 29 -3.3569 0.6420
5 1 30 -3.5480 -0.3383
5 1 31 4.1609 -0.1216
5 1 32 3.3073 0.4485
5 1 33 -1.5382 -0.0044
5 1 34 -1.2079 -0.5579
5 1 35 0.5931 -0.2632
5 1 36 2.6509 0.5345
5 1 37 -2.0738 0.5459
5 1 38 -4.3163 -0.3171
5 1 39 3.0526 -0.6116
5 1 40 2.3163 0.0792
5 1 41 -2.6965 0.5214
5 1 42 0.6146 -0.0540
5 1 43 2.3453 -0.4649
5 1 44 -0.5848 0.2422
5 1 45 -2.1690 0.5562
5 1 46 -1.4134 -0.4641
5 1 47 1.4808 -0.7123
5 1 48 2.2721 0.6151
5 1 49 -0.5347 0.7283
5 1 50 -1.2255 -0.6720
5 1 51 -0.0169 -0.4726
5 1 52 -0.1982 0.5818
5 1 53 -0.0435 -0.0076
5 1 54 0.4259 -0.3795
5 1 55 0.6041 0.4962
5 3 0 18.1828 -0.1710
5 3 1 -21.8262 0.1921
5 3 2 -10.6298 -0.3399
5 3 3 24.7542 -0.9757
5 3 4 0.0666 0.7751
5 3 5 -17.5847 1.1517
5 3 6 8.3702 -0.6075
5 3 7 -3.7078 -0.4364
5 3 8 -13.9416 0.0964
5 3 9 22.9642 -0.4942
5 3 10 19.5213 0.1332
5 3 11 -25.6168 0.6659
5 3 12 -26.5749 -0.0079
5 3 13 14.0536 0.1153
5 3 14 32.9317 -0.1332
5 3 15 -0.6027 -0.9624
5 3 16 -34.9840 0.2050
5 3 17 -5.3293 0.9554
5 3 18 31.0242 -0.2783
5 3 19 1.7257 -0.2660
5 3 20 -22.8199 0.2520
5 3 21 7.9076 -0.1747
5 3 22 14.4639 -0.1215
5 3 23 -16.5775 -0.0948
5 3 24 -9.2807 0.1112
5 3 25 16.7972 0.6489
5 3 26 7.4029 -0.2338
5 3 27 -7.2515 -0.8555
5 3 28 -6.5439 0.2145
5 3 29 -4.0295 0.5510
5 3 30 4.9933 -0.0093
5 3 31 8.3749 -0.0493
5 3 32 -2.8920 -0.0925
5 3 33 -6.7460 -0.2425
5 3 34 0.6679 -0.0515
5 3 35 5.5156 0.1414
5 3 36 1.7629 0.2447
5 3 37 -5.6389 0.2485
5 3 38 -3.5623 -0.2495
5 3 39 3.6785 -0.6591
5 3 40 3.1634 0.0289
5 3 41 0.0377 0.8302
5 3 42 -1.0787 0.2676
5 3 43 -2.0552 -0.6801
5 3 44 0.0103 -0.4202
5 3 45 1.7657 0.3584
5 3 46 -0.9668 0.2931
5 3 47 -1.0896 -0.0441
5 3 48 1.9265 0.0384
5 3 49 0.9051 -0.2847
5 3 50 -1.3630 -0.2859
5 3 51 -1.0484 0.7312
5 3 52 0.2943 0.1346
5 3 53 1.2666 -1.1888
5 3 54 0.0372 0.4027
5 5 0 11.9611 -0.2621
5 5 1 2.6824 0.0806
5 5 2 3.1830 -0.0086
5 5 3 -8.6102 -0.0161
5 5 4 -12.2427 0.0807
5 5 5 15.6155 0.0434
5 5 6 4.4388 0.3106
5 5 7 -20.6807 -0.1710
5 5 8 11.0744 -0.8332
5 5 9 19.7649 0.1627
5 5 10 -17.3305 0.8260
5 5 11 -13.7916 0.0061
5 5 12 8.2385 -0.1040
5 5 13 7.4199 -0.0717
5 5 14 8.1276 -0.6408
5 5 15 -3.8798 -0.0076
5 5 16 -18.9078 0.5743
5 5 17 3.0719 0.0046
5 5 18 17.3063 0.2282
5 5 19 -3.5883 0.0718
5 5 20 -6.8769 -0.8792
5 5 21 4.7440 0.0261
5 5 22 -3.3886 0.7705
5 5 23 -6.0572 -0.3048
5 5 24 7.0624 -0.1551
5 5 25 5.9477 0.4978
5 5 26 -3.7137 -0.3112
5 5 27 -3.2345 -0.4347
5 5 28 -2.5822 0.2606
5 5 29 -0.1412 0.1646
5 5 30 7.0939 0.1412
5 5 31 0.9680 0.1455
5 5 32 -8.3133 -0.4319
5 5 33 0.1529 -0.3072
5 5 34 7.7412 0.3323
5 5 35 0.7263 0.2582
5 5 36 -6.2137 -0.0003
5 5 37 -4.4878 -0.1098
5 5 38 3.6003 -0.2256
5 5 39 7.1769 -0.0365
5 5 40 -1.4300 0.1885
5 5 41 -6.0175 0.1777
5 5 42 1.2911 0.0618
5 5 43 3.1238 -0.2830
5 5 44 -1.7166 -0.3689
5 5 45 -1.5394 0.2765
5 5 46 0.9322 0.4962
5 5 47 1.2113 -0.1442
5 5 48 -0.2949 -0.3332
5 5 49 -0.7229 -0.0492
5 5 50 1.1748 0.1623
5 5 51 0.0903 0.1369
5 5 52 -1.9589 -0.4041
5 5 53 -0.0149 0.1193
5 5 54 1.3116 0.9998
5 7 0 7.8152 -0.0661
5 7 1 0.2215 0.0746
5 7 2 -2.4974 -0.0823
5 7 3 -6.8622 0.1215
5 7 4 -0.4563 0.1600
5 7 5 7.6899 -0.0481
5 7 6 -0.8239 -0.0934
5 7 7 -2.6558 -0.2491
5 7 8 0.5567 -0.0801
5 7 9 -3.1309 0.4069
5 7 10 5.0262 0.2065
5 7 11 4.3706 -0.1527
5 7 12 -14.0734 -0.1218
5 7 13 0.9239 -0.2818
5 7 14 22.3821 -0.0649
5 7 15 -9.1343 0.3758
5 7 16 -25.8292 0.0290
5 7 17 13.1753 -0.0256
5 7 18 22.2174 0.2775
5 7 19 -10.2929 -0.3082
5 7 20 -13.5539 -0.5092
5 7 21 5.2127 0.2718
5 7 22 4.9175 0.4033
5 7 23 -3.0692 -0.0347
5 7 24 -0.3536 -0.0834
5 7 25 3.2887 -0.0857
5 7 26 0.4737 -0.1259
5 7 27 -3.0439 0.0258
5 7 28 -2.7105 0.0121
5 7 29 2.5968 0.0998
5 7 30 3.4938 0.2899
5 7 31 -3.9132 -0.1743
5 7 32 -1.9405 -0.3703
5 7 33 6.1700 0.1375
5 7 34 0.8171 0.0674
5 7 35 -5.9418 -0.0546
5 7 36 -2.1493 0.2509
5 7 37 2.3142 0.0553
5 7 38 4.0212 -0.2156
5 7 39 0.7912 -0.1351
5 7 40 -3.8795 -0.0674
5 7 41 0.1335 0.2040
5 7 42 2.2675 0.3433
5 7 43 -2.8404 -0.3121
5 7 44 -1.1057 -0.5334
5 7 45 3.1479 0.5051
5 7 46 0.9306 0.5101
5 7 47 -1.7001 -0.5210
5 7 48 -1.4499 -0.1298
5 7 49 1.8232 0.0927
5 7 50 2.4248 -0.3675
5 7 51 -3.1296 0.4568
5 9 0 13.4119 -0.0564
5 9 1 -8.1992 0.1251
5 9 2 -8.2768 0.3484
5 9 3 2.5543 0.0294
5 9 4 4.1053 -0.3800
5 9 5 0.2467 -0.0440
5 9 6 -3.5016 0.1692
5 9 7 -3.3426 -0.0848
5 9 8 4.6190 0.0619
5 9 9 7.4719 0.1591
5 9 10 -3.7913 -0.1109
5 9 11 -10.7087 -0.0222
5 9 12 1.1231 -0.0206
5 9 13 13.3649 -0.2147
5 9 14 -0.0901 0.0992
5 9 15 -15.8911 0.2747
5 9 16 1.6366 0.0364
5 9 17 15.2046 -0.1057
5 9 18 -3.1346 -0.1990
5 9 19 -9.5287 -0.0575
5 9 20 3.1961 0.1247
5 9 21 2.9721 0.0672
5 9 22 -2.8450 0.0988
5 9 23 -0.2334 0.0034
5 9 24 2.1371 -0.1877
5 9 25 0.6645 -0.0652
5 9 26 -0.2919 0.1081
5 9 27 -0.9798 0.0511
5 9 28 -1.0042 -0.0453
5 9 29 0.2501 0.0697
5 9 30 -1.0574 0.0563
5 9 31 0.1225 -0.1054
5 9 32 5.3228 -0.0349
5 9 33 0.8056 -0.1490
5 9 34 -6.8402 -0.0694
5 9 35 -1.9888 0.4326
5 9 36 3.4571 0.1775
5 9 37 1.4371 -0.3347
5 9 38 0.7843 -0.1379
5 9 39 1.0156 0.0211
5 9 40 -1.1285 -0.1660
5 9 41 -3.1354 0.0863
5 9 42 -1.3233 0.5911
5 9 43 3.3998 -0.0839
5 9 44 1.9238 -0.7057
5 9 45 -2.5561 0.1777
5 9 46 0.1961 0.3078
5 9 47 1.1791 0.0377
5 9 48 -1.5992 0.1163
5 9 49 1.2239 -0.8895
5 9 50 0.7594 0.0833
5 9 51 -3.7811 1.7114
5 11 0 -2.5338 0.1059
5 11 1 -8.8196 -0.0891
5 11 2 4.9999 0.1911
5 11 3 2.9075 0.0691
5 11 4 -9.9340 -0.3200
5 11 5 0.5462 -0.2011
5 11 6 10.6518 0.1830
5 11 7 -0.5290 0.3108
5 11 8 -6.1455 0.0251
5 11 9 -0.3682 -0.2806
5 11 10 2.6413 -0.0547
5 11 11 0.0143 0.0929
5 11 12 -3.5172 -0.1087
5 11 13 0.1320 0.1414
5 11 14 5.5600 0.2189
5 11 15 2.5201 -0.1897
5 11 16 -6.4614 -0.1205
5 11 17 -7.0959 -0.0414
5 11 18 7.4449 -0.0254
5 11 19 9.3784 0.2979
5 11 20 -7.8598 0.0331
5 11 21 -6.6135 -0.2756
5 11 22 5.3588 0.0487
5 11 23 0.5492 0.0393
5 11 24 -1.4498 -0.1229
5 11 25 4.3860 0.1130
5 11 26 0.0480 0.1576
5 11 27 -4.8042 -0.0848
5 11 28 -1.2125 -0.0803
5 11 29 0.8748 0.0041
5 11 30 1.5845 -0.0573
5 11 31 3.4982 0.0655
5 11 32 -0.0460 0.0009
5 11 33 -3.7996 -0.1520
5 11 34 -0.8838 0.1999
5 11 35 -0.3443 0.2085
5 11 36 -1.1059 -0.0840
5 11 37 4.4366 -0.1458
5 11 38 4.9336 -0.3618
5 11 39 -4.4811 -0.0551
5 11 40 -7.2939 0.4902
5 11 41 1.7290 0.3526
5 11 42 6.6794 -0.1271
5 11 43 -0.2746 -0.5703
5 11 44 -4.8986 -0.0709
5 11 45 1.3797 0.3386
5 11 46 3.7310 -0.0938
5 11 47 -2.7381 0.4785
5 11 48 -2.3568 -0.1302
5 11 49 2.5813 -1.2896
5 11 50 -0.0315 1.0434
5 13 0 -1.0115 0.1542
5 13 1 -12.2880 -0.0482
5 13 2 4.3619 -0.0574
5 13 3 3.8788 -0.1612
5 13 5 4.0562 0.2118
5 13 6 3.8083 0.0836
5 13 7 -6.3737 -0.0656
5 13 8 -0.4665 -0.0287
5 13 9 5.1661 -0.1187
5 13 10 -2.4176 -0.0517
5 13 11 -5.4876 0.1422
5 13 12 2.4310 0.1235
5 13 13 7.4136 -0.0053
5 13 14 1.7444 -0.1719
5 13 15 -7.7953 -0.0906
5 13 16 -8.5972 0.1141
5 13 17 6.4172 0.0365
5 13 18 13.1061 0.0626
5 13 19 -5.0337 0.0556
5 13 20 -10.6286 -0.1711
5 13 21 3.6986 -0.0577
5 13 22 2.8430 0.0855
5 13 23 -2.1537 -0.0310
5 13 24 3.0247 0.0226
5 13 25 1.3885 0.1110
5 13 26 -2.3473 0.0139
5 13 27 -1.2422 -0.0337
5 13 28 -2.0374 -0.0504
5 13 29 -0.0087 -0.1872
5 13 30 4.0145 -0.0643
5 13 31 2.2678 0.2156
5 13 32 -0.9428 0.1679
5 13 33 -3.0471 0.1459
5 13 34 -4.4710 -0.0959
5 13 35 0.9794 -0.4639
5 13 36 7.5312 -0.0195
5 13 37 2.3908 0.2750
5 13 38 -6.3158 0.0564
5 13 39 -4.4525 0.0646
5 13 40 3.2525 -0.1330
5 13 41 3.9575 0.0466
5 13 42 -1.7282 0.3178
5 13 43 -1.8886 -0.3593
5 13 44 2.1885 -0.5461
5 13 45 0.2661 0.2255
5 13 46 -2.8628 0.9183
5 13 47 0.0860 0.1816
5 13 48 2.8426 -1.5351
5 13 49 -0.0009 -0.1407
5 13 50 -2.4473 2.0200
5 15 0 -12.8639 -0.0569
5 15 1 -2.5752 0.0560
5 15 2 12.4241 0.1598
5 15 3 -4.6956 -0.0251
5 15 4 -9.0156 -0.0840
5 15 5 8.8661 0.0056
5 15 6 4.6663 -0.0627
5 15 7 -8.4990 0.0834
5 15 8 -2.1241 0.1804
5 15 9 5.1913 -0.2185
5 15 10 1.4114 -0.2107
5 15 11 -2.0627 0.2495
5 15 12 -1.7126 0.1569
5 15 13 1.1765 -0.1609
5 15 14 3.5835 -0.0744
5 15 15 -2.6403 0.0923
5 15 16 -6.6043 0.0154
5 15 17 4.3668 -0.0918
5 15 18 7.9724 0.0025
5 15 19 -3.1669 0.0934
5 15 20 -5.9983 0.0123
5 15 21 -0.9979 -0.0673
5 15 22 2.5356 -0.0392
5 15 23 3.2666 -0.0063
5 15 24 -0.3596 0.0365
5 15 25 -0.0497 0.1322
5 15 26 0.2095 0.0574
5 15 27 -5.1492 -0.1373
5 15 28 -1.0751 -0.2177
5 15 29 6.0686 -0.1613
5 15 30 1.6988 0.2456
5 15 31 -1.6952 0.5444
5 15 32 -1.6171 -0.0036
5 15 33 -3.5372 -0.5976
5 15 34 1.4812 -0.2801
5 15 35 5.5487 0.3605
5 15 36 -1.8697 0.2868
5 15 37 -3.9811 -0.2281
5 15 38 2.0841 -0.1336
5 15 39 1.2672 0.2518
5 15 40 -1.5065 0.1394
5 15 41 0.0148 -0.1533
5 15 42 1.2532 -0.1582
5 15 43 0.6552 -0.0554
5 15 44 -2.3712 -0.2222
5 15 45 -1.9418 0.1093
5 15 46 3.4712 0.8752
5 15 47 2.7241 -0.0261
5 15 48 -2.6190 -1.2049
5 17 0 -4.7747 0.1481
5 17 1 1.6422 0.0087
5 17 2 1.5129 -0.0166
5 17 3 -5.4259 -0.1808
5 17 4 3.4162 -0.0001
5 17 5 5.9895 0.2894
5 17 6 -7.6231 -0.0597
5 17 7 -4.3303 -0.1738
5 17 8 8.4720 0.0362
5 17 9 3.2439 -0.1355
5 17 10 -5.6540 0.0454
5 17 11 -3.4945 0.2958
5 17 12 0.9673 -0.0646
5 17 13 4.5528 -0.1205
5 17 14 3.1702 0.0644
5 17 15 -6.3546 -0.1477
5 17 16 -4.9994 -0.1266
5 17 17 7.9631 0.2319
5 17 18 4.9863 0.1570
5 17 19 -7.3460 -0.1708
5 17 20 -5.0585 -0.0486
5 17 21 4.6848 0.1184
5 17 22 5.1811 -0.1207
5 17 23 -3.0064 -0.1020
5 17 24 -3.4603 0.2235
5 17 25 3.6944 0.1064
5 17 26 0.3764 -0.2223
5 17 27 -4.2600 -0.1301
5 17 28 1.1058 0.1245
5 17 29 2.2598 0.1003
5 17 30 -0.2558 -0.0095
5 17 31 0.9589 -0.0048
5 17 32 -0.7162 0.0343
5 17 33 -2.0624 0.0459
5 17 34 0.6567 -0.2068
5 17 35 0.0710 -0.3031
5 17 36 -0.3313 0.3195
5 17 37 2.4204 0.4267
5 17 38 -0.0681 -0.2625
5 17 39 -2.6104 -0.2056
5 17 40 0.9050 0.1241
5 17 41 1.3023 0.1874
5 17 42 -1.4513 0.1039
5 17 43 -1.5942 -0.9731
5 17 44 0.7886 -0.5282
5 17 45 3.7830 2.0925
5 17 46 0.4898 0.9993
5 17 47 -4.6243 -2.4586
5 19 0 -6.8321 -0.1835
5 19 1 0.2675 0.2567
5 19 2 2.6519 0.3117
5 19 3 -0.2465 -0.3190
5 19 4 2.1446 -0.1073
5 19 5 -1.8134 0.1818
5 19 6 -4.9123 -0.2619
5 19 7 3.6819 0.0309
5 19 8 5.6960 0.3633
5 19 9 -2.6056 -0.1504
5 19 10 -4.9655 -0.2116
5 19 11 -1.4163 0.1481
5 19 12 2.3532 0.1526
5 19 13 6.0082 -0.0746
5 19 14 0.6995 -0.1721
5 19 15 -8.3476 -0.0150
5 19 16 -1.1696 0.0158
5 19 17 7.1449 0.0353
5 19 18 -0.9601 0.2077
5 19 19 -4.0587 0.0670
5 19 20 2.6323 -0.2129
5 19 21 2.0529 -0.1945
5 19 22 -2.9608 0.0881
5 19 23 -1.9918 0.1740
5 19 24 3.7410 -0.0814
5 19 25 2.5187 0.0312
5 19 26 -4.7583 0.1283
5 19 27 -2.5142 -0.2552
5 19 28 3.7383 -0.0814
5 19 29 1.5354 0.2848
5 19 30 -0.9227 0.0365
5 19 31 0.6406 -0.0805
5 19 32 -0.7616 -0.0334
5 19 33 -2.8457 -0.1875
5 19 34 0.0700 -0.0797
5 19 35 2.9874 0.4046
5 19 36 1.1360 0.1818
5 19 37 -1.2295 -0.6732
5 19 38 -0.7492 0.0524
5 19 39 0.1160 0.9506
5 19 40 -0.9742 -0.3392
5 19 41 -0.5827 -0.7705
5 19 42 1.7965 -0.0871
5 19 43 0.8677 -0.1379
5 19 44 -0.3770 1.1563
5 21 0 -3.6821 -0.1004
5 21 1 4.2228 0.0951
5 21 2 2.2507 -0.1178
5 21 3 -0.6579 -0.4604
5 21 4 -0.0130 0.1006
5 21 5 -3.5100 0.3354
5 21 6 -1.2206 0.0743
5 21 7 6.3513 0.0720
5 21 8 2.2766 -0.1836
5 21 9 -6.7412 -0.3370
5 21 10 -3.9753 0.0758
5 21 11 3.3481 0.4143
5 21 12 5.5650 0.1631
5 21 13 3.2003 -0.3425
5 21 14 -6.0345 -0.2692
5 21 15 -7.9624 0.0281
5 21 16 4.8955 0.1222
5 21 17 6.6798 0.3221
5 21 18 -2.2832 0.0903
5 21 19 -1.8768 -0.2670
5 21 20 -0.5140 -0.1670
5 21 21 -1.0271 -0.1192
5 21 22 1.9341 0.1703
5 21 23 1.1273 0.2844
5 21 24 -2.0713 -0.2027
5 21 25 -0.6893 -0.0988
5 21 26 2.2733 0.1584
5 21 27 0.0064 -0.0366
5 21 28 -3.0500 0.0241
5 21 29 1.5391 -0.0098
5 21 30 3.7847 -0.1590
5 21 31 -2.6147 -0.0084
5 21 32 -3.7600 0.1407
5 21 33 1.9425 0.0551
5 21 34 2.4761 -0.0910
5 21 35 -0.5382 0.1447
5 21 36 -0.1289 -0.0422
5 21 37 -0.0348 -0.4538
5 21 38 -1.8352 0.4400
5 21 39 -0.5374 0.4913
5 21 40 2.1552 -0.7516
5 21 41 1.6974 -0.3434
5 23 0 1.0090 -0.6485
5 23 1 2.5456 -0.0112
5 23 2 -0.1488 0.2691
5 23 3 -1.7713 -0.0840
5 23 4 -0.6293 0.0934
5 23 5 0.8713 0.2030
5 23 6 1.5065 -0.1196
5 23 7 -0.2101 -0.2192
5 23 8 -2.3481 0.0013
5 23 9 -0.9619 0.1106
5 23 10 1.8203 0.0431
5 23 11 1.6640 0.0830
5 23 12 1.8409 0.0342
5 23 13 -0.5333 -0.1635
5 23 14 -6.6761 -0.2514
5 23 15 -1.5468 -0.0246
5 23 16 7.2350 0.4495
5 23 17 2.7945 0.1972
5 23 18 -2.1794 -0.2951
5 23 19 -2.8189 0.0483
5 23 20 -2.9653 -0.1712
5 23 21 2.1600 -0.4598
5 23 22 3.6353 0.4110
5 23 23 -1.5601 0.3666
5 23 24 -1.4387 -0.1549
5 23 25 2.0883 0.2417
5 23 26 -0.7653 -0.2203
5 23 27 -3.8594 -0.6589
5 23 28 3.0981 0.3743
5 23 29 5.0207 0.5430
5 23 30 -5.8293 -0.4619
5 23 31 -3.9518 -0.2140
5 23 32 7.3456 0.5872
5 23 33 1.4650 -0.1349
5 23 34 -6.5534 -0.4225
5 23 35 0.6540 0.5967
5 23 36 4.1637 -0.1988
5 23 37 -1.7599 -0.9570
5 23 38 -1.4978 0.8041
5 25 0 -4.2688 -0.1295
5 25 1 0.9026 0.0939
5 25 2 3.3619 -0.1644
5 25 3 -0.5078 -0.1239
5 25 4 -1.0363 0.1698
5 25 5 0.5903 0.0601
5 25 6 -2.2611 0.0919
5 25 7 -1.2605 0.0511
5 25 8 3.8588 -0.2211
5 25 9 1.9549 -0.0807
5 25 10 -3.3023 0.0504
5 25 11 -1.5430 0.0157
5 25 12 3.5056 0.2744
5 25 13 -0.1943 -0.0321
5 25 14 -5.6780 -0.6418
5 25 15 0.5957 0.1492
5 25 16 7.0793 0.8477
5 25 17 2.8285 -0.1247
5 25 18 -5.3995 -0.4955
5 25 19 -7.4337 -0.0629
5 25 20 1.7557 -0.3449
5 25 21 8.2853 0.0819
5 25 22 1.4614 0.8500
5 25 23 -5.3634 0.1214
5 25 24 -2.7429 -0.4934
5 25 25 2.7023 -0.0956
5 25 26 1.7875 -0.1269
5 25 27 -1.5568 -0.3878
5 25 28 -0.0347 0.1709
5 25 29 -0.1896 0.9045
5 25 30 -0.2997 0.3209
5 25 31 2.9803 -1.0105
5 25 32 -0.8566 -0.8556
5 25 33 -4.6649 0.8454
5 27 0 1.9649 -0.5371
5 27 1 2.7841 -0.4627
5 27 2 -0.8607 0.0073
5 27 3 -4.0048 0.3889
5 27 4 1.7835 0.4364
5 27 5 2.5507 0.1979
5 27 6 -4.2461 -0.3032
5 27 7 0.4506 -0.5776
5 27 8 6.0529 -0.0411
5 27 9 -2.2572 0.3460
5 27 10 -6.1427 0.0812
5 27 11 2.7593 0.0958
5 27 12 4.9011 0.0520
5 27 13 -3.6262 -0.2728
5 27 14 -3.5322 -0.0408
5 27 15 4.1554 0.1540
5 27 16 3.5391 0.0263
5 27 17 -2.2716 0.1663
5 27 18 -4.7497 -0.1386
5 27 19 -1.2816 -0.5943
5 27 20 4.7853 0.0115
5 27 21 3.6878 0.7921
5 27 22 -2.7367 0.4788
5 27 23 -3.8658 -0.4766
5 27 24 1.1624 -0.5994
5 27 25 2.7333 -0.0203
5 27 26 -1.9396 -0.3009
5 27 27 -1.3866 0.0897
5 27 28 3.0784 1.7259
5 27 29 0.7507 0.3097
5 29 0 -2.2101 -0.0691
5 29 1 0.3761 0.1493
5 29 2 -0.6114 0.4326
5 29 3 -1.8633 0.7187
5 29 4 2.9148 -0.0065
5 29 5 0.9485 -0.7207
5 29 6 -2.6915 -0.3958
5 29 7 1.1284 -0.1973
5 29 8 0.6296 -0.0473
5 29 9 -2.5616 0.9953
5 29 10 1.1351 0.9084
5 29 11 3.0555 -1.1769
5 29 12 -1.8767 -1.1700
5 29 13 -2.8766 1.0918
5 29 14 1.7068 0.4786
5 29 15 2.1118 -0.8399
5 29 16 -0.0585 0.6944
5 29 17 -1.1791 0.1761
5 29 18 -2.7169 -1.5951
5 29 19 0.4438 0.4967
5 29 20 4.4225 1.6590
5 29 21 0.2188 -0.3485
5 31 0 0.4553 0.8956
5 31 1 -0.5946 0.1535
5 31 4 3.2684 -0.9199
5 31 5 -0.2656 -0.3658
5 31 6 -3.8630 0.0301
5 31 7 -1.4712 0.0613
5 31 8 3.8443 1.2757
5 31 9 3.0824 1.1987
5 31 10 -2.9973 -1.7702
5 31 11 -3.2722 -2.3270
5 31 12 1.2384 1.5438
6 0 0 12.2131 -1.2151
6 0 2 -13.8083 3.9722
6 0 4 8.9773 -3.6900
6 0 6 -2.7841 1.5592
6 0 8 -3.2965 0.1435
6 0 10 10.3855 -0.2373
6 0 12 -16.7062 -0.6715
6 0 14 20.4863 1.2999
6 0 16 -22.3459 -1.1508
6 0 18 21.2815 0.7713
6 0 20 -14.1402 -0.7653
6 0 22 2.2636 1.0106
6 0 24 5.9015 -1.0606
6 0 26 -3.4300 0.8867
6 0 28 -5.6395 -0.7840
6 0 30 10.8497 0.8171
6 0 32 -9.0659 -0.8070
6 0 34 6.8878 0.6864
6 0 36 -8.5376 -0.5351
6 0 38 9.9730 0.4317
6 0 40 -7.6265 -0.4562
6 0 42 4.4321 0.6260
6 0 44 -3.7752 -0.7624
6 0 46 4.3750 0.6658
6 0 48 -3.7914 -0.3551
6 0 50 2.0234 -0.1071
6 0 52 -0.3624 0.7657
6 0 54 -0.3500 -1.4341
6 2 0 0.6992 -0.0246
6 2 1 0.9370 1.9055
6 2 2 10.5213 0.5825
6 2 3 -2.0965 -2.2286
6 2 4 -21.7585 -0.6265
6 2 5 2.4720 0.8255
6 2 6 28.0432 0.1212
6 2 7 0.0844 0.6258
6 2 8 -27.7281 0.3283
6 2 9 -0.8815 -0.8674
6 2 10 22.2943 -0.2151
6 2 11 -3.5174 0.1319
6 2 12 -13.5581 -0.1445
6 2 13 11.3794 0.5239
6 2 14 4.0982 0.2061
6 2 15 -19.1910 -0.4652
6 2 16 2.6843 -0.0855
6 2 17 23.2570 -0.0501
6 2 18 -5.4930 0.1681
6 2 19 -20.1542 0.3779
6 2 20 6.3923 -0.3313
6 2 21 10.3583 -0.2452
6 2 22 -7.4582 0.2331
6 2 23 -0.3799 -0.0745
6 2 24 7.4395 0.0636
6 2 25 -2.3164 0.2451
6 2 26 -3.8373 -0.2625
6 2 27 -2.6895 -0.2484
6 2 28 -2.2110 0.2559
6 2 29 8.1774 0.1918
6 2 30 6.2202 -0.0970
6 2 31 -8.2467 -0.0473
6 2 32 -6.3524 -0.1187
6 2 33 4.9758 -0.2095
6 2 34 5.5619 0.2313
6 2 35 -3.2696 0.4220
6 2 36 -6.0544 -0.1380
6 2 37 3.1225 -0.4092
6 2 38 5.6764 -0.0544
6 2 39 -1.8263 0.1689
6 2 40 -2.4530 0.1461
6 2 41 -0.0885 0.1419
6 2 42 -1.1990 -0.0666
6 2 43 0.5014 -0.3285
6 2 44 1.9797 -0.0779
6 2 45 0.0598 0.2983
6 2 46 -0.4307 0.1290
6 2 47 -0.0759 -0.1901
6 2 48 -0.6574 -0.0152
6 2 49 -0.1922 0.2731
6 2 50 0.3476 -0.2425
6 2 51 0.1279 -0.6215
6 2 52 0.1791 0.6079
6 2 53 -0.0046 1.0040
6 2 54 -0.0569 -0.9533
6 4 0 11.0903 0.9555
6 4 1 -9.4759 0.1859
6 4 2 -12.6704 -0.7556
6 4 3 -2.6147 -0.3161
6 4 4 11.0847 -0.1600
6 4 5 10.4739 -0.0727
6 4 6 -2.8425 0.9371
6 4 7 -10.3061 0.5101
6 4 8 -8.2073 -0.8411
6 4 9 6.2588 -0.4397
6 4 10 14.0495 0.1371
6 4 11 -2.8351 0.0184
6 4 12 -10.2043 0.3565
6 4 13 1.0654 0.1091
6 4 14 -0.8676 -0.2733
6 4 15 -0.5897 0.1855
6 4 16 11.2710 -0.0646
6 4 17 0.5582 -0.4027
6 4 18 -13.4305 0.1934
6 4 19 0.6013 0.2813
6 4 20 6.9276 0.0010
6 4 21 -3.4030 -0.0907
6 4 22 1.4250 -0.2639
6 4 23 5.5029 0.0820
6 4 24 -5.2184 0.2935
6 4 25 -3.4041 -0.1866
6 4 26 4.1787 -0.0583
6 4 27 -3.0159 0.2175
6 4 28 -1.9666 -0.2118
6 4 29 8.7934 -0.0779
6 4 30 0.9562 0.3165
6 4 31 -9.0997 -0.1205
6 4 32 -0.8795 -0.2529
6 4 33 5.2686 0.1093
6 4 34 1.3881 0.1032
6 4 35 -2.1701 0.1775
6 4 36 -3.2494 0.0953
6 4 37 1.0273 -0.4349
6 4 38 5.9949 -0.3249
6 4 39 0.4388 0.3891
6 4 40 -7.0507 0.5166
6 4 41 -2.3322 -0.1436
6 4 42 5.4393 -0.5486
6 4 43 2.5146 -0.0396
6 4 44 -3.6476 0.3176
6 4 45 -1.0831 0.0651
6 4 46 3.3933 0.1573
6 4 47 0.1514 -0.0465
6 4 48 -2.9117 -0.6779
6 4 49 -0.1684 0.2008
6 4 50 0.8885 0.9305
6 4 51 -0.0388 -0.6143
6 4 52 0.8655 -0.6887
6 4 53 0.7186 1.0122
6 4 54 -0.9167 0.0733
6 6 0 -7.1127 0.2898
6 6 1 -4.8043 -0.0980
6 6 2 5.7994 -0.3678
6 6 3 4.7184 0.0573
6 6 4 -2.4143 -0.0174
6 6 5 -2.3035 0.0357
6 6 6 3.6548 0.4818
6 6 7 -2.2872 0.0375
6 6 8 -8.7587 -0.4914
6 6 9 7.8511 -0.2464
6 6 10 12.5218 0.0663
6 6 11 -11.3022 0.3020
6 6 12 -10.9718 0.2002
6 6 13 9.9236 -0.1104
6 6 14 3.8729 -0.0083
6 6 15 -5.3896 -0.0625
6 6 16 4.1743 -0.2501
6 6 17 3.2392 -0.0247
6 6 18 -6.7118 0.1740
6 6 19 -6.0929 0.2767
6 6 20 2.2269 0.1068
6 6 21 10.0356 -0.4294
6 6 22 4.2144 -0.2559
6 6 23 -10.5255 0.3645
6 6 24 -6.9837 0.1412
6 6 25 8.7655 -0.1659
6 6 26 5.0160 0.1209
6 6 27 -8.4960 -0.0333
6 6 28 -1.2233 -0.2429
6 6 29 9.2761 0.1397
6 6 30 -0.8990 0.0558
6 6 31 -7.7037 -0.0835
6 6 32 0.2478 0.1704
6 6 33 4.0073 -0.1320
6 6 34 1.6027 -0.0722
6 6 35 -2.4083 0.3535
6 6 36 -2.9986 -0.1924
6 6 37 4.3911 -0.3997
6 6 38 3.5554 0.1997
6 6 39 -6.1407 0.2687
6 6 40 -2.8237 0.0403
6 6 41 4.5344 -0.0942
6 6 42 0.6355 -0.2018
6 6 43 -1.6185 -0.0619
6 6 44 1.0895 0.1876
6 6 45 0.3717 0.2520
6 6 46 -0.3779 -0.0733
6 6 47 0.1116 -0.5620
6 6 48 -1.4123 -0.1111
6 6 49 -1.6892 1.0402
6 6 50 1.6843 0.1845
6 6 51 3.0055 -1.5323
6 6 52 -0.7189 0.1036
6 8 0 -1.6078 0.4939
6 8 1 1.6024 -0.3653
6 8 2 1.1066 -0.4181
6 8 3 -3.7346 0.3733
6 8 4 0.9702 0.1393
6 8 5 3.4053 -0.0574
6 8 6 -0.6382 0.0936
6 8 7 -2.8685 -0.2302
6 8 8 -1.2776 -0.1336
6 8 9 3.9807 0.2036
6 8 10 1.6454 -0.0272
6 8 11 -6.0820 -0.0253
6 8 12 0.8401 0.2851
6 8 13 4.9602 -0.0203
6 8 14 -4.9428 -0.4320
6 8 15 1.0674 0.0063
6 8 16 8.7618 0.3040
6 8 17 -6.3878 -0.1146
6 8 18 -10.7311 -0.0114
6 8 19 5.0975 0.2304
6 8 20 9.6209 -0.1150
6 8 21 0.7318 -0.1697
6 8 22 -5.7027 -0.0699
6 8 23 -5.1489 -0.0322
6 8 24 1.9005 0.3096
6 8 25 6.4474 0.2667
6 8 26 -1.3804 -0.3103
6 8 27 -6.3604 -0.4098
6 8 28 3.3398 0.1462
6 8 29 5.2237 0.2740
6 8 30 -3.7343 -0.0498
6 8 31 -2.3893 0.0824
6 8 32 1.1861 0.0258
6 8 33 -0.9148 -0.2707
6 8 34 0.9516 0.0037
6 8 35 2.3226 0.1682
6 8 36 -0.1480 0.0585
6 8 37 -1.4576 -0.0996
6 8 38 -1.1767 -0.2549
6 8 39 0.6856 0.1452
6 8 40 -0.1925 0.3899
6 8 41 -1.8662 0.0042
6 8 42 3.1908 -0.3459
6 8 43 3.3024 -0.3136
6 8 44 -4.8781 0.2135
6 8 45 -2.1999 0.4086
6 8 46 5.1509 0.0088
6 8 47 -0.5726 -0.4143
6 8 48 -5.4754 -0.3440
6 8 49 1.7157 0.8115
6 8 50 5.2490 0.4837
6 8 51 -0.8497 -1.4090
6 10 0 1.9068 0.1953
6 10 1 1.8977 -0.1237
6 10 2 -3.1543 -0.0603
6 10 3 -0.8704 0.1989
6 10 4 4.1351 -0.0675
6 10 5 -0.3499 -0.1010
6 10 6 -1.5249 0.0988
6 10 7 0.3282 -0.0413
6 10 8 -3.4028 -0.1042
6 10 9 0.4251 0.1396
6 10 10 5.2814 0.0833
6 10 11 -0.2569 -0.1231
6 10 12 -2.9506 0.0848
6 10 13 -1.9948 -0.0329
6 10 14 1.4307 -0.3016
6 10 15 4.9260 0.1780
6 10 16 -3.4709 0.2802
6 10 17 -5.2805 -0.0924
6 10 18 5.7905 -0.0443
6 10 19 2.1537 -0.1445
6 10 20 -5.6238 -0.0612
6 10 21 1.3065 0.1635
6 10 22 4.3078 -0.1034
6 10 23 -1.8362 0.1138
6 10 24 -3.0718 0.3356
6 10 25 -0.0880 -0.2786
6 10 26 1.4481 -0.3870
6 10 27 1.4358 0.0858
6 10 28 -0.4800 0.1332
6 10 29 -0.3342 0.1696
6 10 30 2.1175 0.2954
6 10 31 -2.0156 -0.2068
6 10 32 -5.1113 -0.4801
6 10 33 2.7858 0.1332
6 10 34 5.7296 0.2201
6 10 35 -1.1589 -0.0485
6 10 36 -2.8852 0.0746
6 10 37 -0.2195 -0.0873
6 10 38 -0.3578 -0.0477
6 10 39 -1.1521 0.1190
6 10 40 0.9240 0.0577
6 10 41 3.9910 0.0690
6 10 42 0.5170 -0.4538
6 10 43 -5.5256 -0.1373
6 10 44 -1.1538 0.7607
6 10 45 5.6438 -0.1086
6 10 46 0.3456 -0.4964
6 10 47 -5.8063 0.1132
6 10 48 -0.0414 0.2099
6 10 49 5.6209 0.5113
6 10 50 0.9513 -0.6747
6 12 0 -2.1926 0.0971
6 12 1 5.4025 -0.2772
6 12 2 1.0766 -0.0753
6 12 3 -6.6528 0.2626
6 12 4 -0.2951 -0.0527
6 12 5 4.7089 -0.1631
6 12 6 1.9377 0.1552
6 12 7 -3.8365 -0.0753
6 12 8 -5.5924 -0.1256
6 12 9 3.2991 0.3820
6 12 10 8.2146 -0.0431
6 12 11 0.0235 -0.4512
6 12 12 -7.7428 0.1888
6 12 13 -4.5846 0.1193
6 12 14 4.6607 -0.1239
6 12 15 5.5330 0.2502
6 12 16 0.0428 -0.0746
6 12 17 -2.2283 -0.1862
6 12 18 -4.9027 0.1480
6 12 19 -0.9268 -0.2036
6 12 20 6.6508 -0.0809
6 12 21 0.7787 0.3918
6 12 22 -3.3377 0.0728
6 12 23 1.4780 -0.1673
6 12 24 -1.8252 -0.0802
6 12 25 -2.8193 -0.1321
6 12 26 3.7149 -0.0776
6 12 27 1.2309 0.0814
6 12 28 -1.5740 0.2197
6 12 29 2.8349 0.2937
6 12 30 -0.8921 -0.0672
6 12 31 -6.1463 -0.4811
6 12 32 0.5577 -0.1650
6 12 33 5.4007 0.1170
6 12 34 2.0521 0.1412
6 12 35 -1.1425 0.3999
6 12 36 -3.9879 -0.0132
6 12 37 -2.7472 -0.3626
6 12 38 3.3315 -0.0230
6 12 39 3.6774 -0.1685
6 12 40 -1.4136 0.1588
6 12 41 -2.5154 0.4225
6 12 42 0.8039 -0.3142
6 12 43 1.1485 -0.1732
6 12 44 -1.5280 -0.0406
6 12 45 -0.0441 0.1058
6 12 46 1.4472 0.7467
6 12 47 -1.1137 -0.6038
6 12 48 -0.0039 -0.7763
6 12 49 1.8947 1.0040
6 14 0 3.2753 0.5201
6 14 1 4.2836 -0.2330
6 14 2 -8.9040 -0.3806
6 14 3 -4.4922 0.0908
6 14 4 8.7538 -0.0360
6 14 5 4.5879 0.1288
6 14 6 -4.1967 0.3223
6 14 7 -6.4193 -0.3222
6 14 8 -1.5880 -0.2145
6 14 9 8.7923 0.3665
6 14 10 6.9901 -0.1451
6 14 11 -8.4984 -0.1725
6 14 12 -10.7549 0.3485
6 14 13 4.7729 -0.1045
6 14 14 10.5863 -0.2028
6 14 15 0.1312 0.1610
6 14 16 -6.3009 -0.0341
6 14 17 -3.8899 0.0423
6 14 18 2.4800 0.0519
6 14 19 5.1047 -0.2429
6 14 20 -3.9725 0.0620
6 14 21 -3.4193 0.2549
6 14 22 9.2872 -0.0257
6 14 23 0.8194 -0.0841
6 14 24 -11.8487 -0.1417
6 14 25 -0.3385 -0.1830
6 14 26 7.8607 0.1571
6 14 27 2.1338 0.3020
6 14 28 -0.4296 0.0281
6 14 29 -3.3727 -0.0264
6 14 30 -4.3309 -0.0862
6 14 31 2.2649 -0.3918
6 14 32 3.6523 -0.1940
6 14 33 0.2348 0.4068
6 14 34 -0.0994 0.4953
6 14 35 -2.2342 -0.0491
6 14 36 -2.1844 -0.3261
6 14 37 2.5055 -0.1648
6 14 38 2.2466 -0.2666
6 14 39 -1.2977 0.2022
6 14 40 -2.1846 0.6481
6 14 41 0.5670 -0.4021
6 14 42 2.9173 -0.3742
6 14 43 -1.9602 0.5141
6 14 44 -2.8439 -0.2251
6 14 45 4.3557 -0.0445
6 14 46 1.2021 0.4673
6 14 47 -5.0742 -0.5892
6 14 48 0.2624 -0.1918
6 16 0 -2.9222 -0.1570
6 16 1 0.9258 -0.4256
6 16 2 -1.2002 0.0633
6 16 3 0.5668 0.1073
6 16 4 2.5844 -0.0782
6 16 5 0.4949 0.2483
6 16 6 -0.8429 0.0879
6 16 7 -3.5703 -0.3691
6 16 8 -1.3484 -0.0008
6 16 9 6.7500 0.2496
6 16 10 2.3204 -0.0614
6 16 11 -8.2978 0.0299
6 16 12 -2.3185 -0.0320
6 16 13 7.1137 -0.2955
6 16 14 1.4669 0.1643
6 16 15 -3.1926 0.3222
6 16 16 0.1433 -0.1507
6 16 17 -0.8432 -0.1074
6 16 18 -1.4003 0.0427
6 16 19 0.7158 -0.1036
6 16 20 1.3386 -0.0082
6 16 21 4.1677 0.1489
6 16 22 -0.3385 0.0636
6 16 23 -8.4186 -0.0617
6 16 24 -0.7149 -0.1241
6 16 25 7.0142 -0.1124
6 16 26 1.3571 0.1409
6 16 27 -1.8758 0.2948
6 16 28 -1.6400 -0.1014
6 16 29 -1.1482 -0.2766
6 16 30 2.0564 0.0819
6 16 31 -0.1246 0.0135
6 16 32 -2.7169 -0.2030
6 16 33 2.7496 0.1270
6 16 34 2.7633 0.3339
6 16 35 -3.4932 0.1682
6 16 36 -2.0427 -0.1790
6 16 37 2.5093 -0.6004
6 16 38 2.2569 -0.1272
6 16 39 -2.0907 0.5964
6 16 40 -4.1035 0.0855
6 16 41 3.0308 -0.0561
6 16 42 4.9029 0.2685
6 16 43 -3.5529 -0.6225
6 16 44 -2.1510 -0.2872
6 16 45 2.3328 1.0922
6 16 46 -2.0943 -0.1995
6 18 0 -0.0815 0.0879
6 18 1 4.2941 -0.4196
6 18 2 -0.6352 -0.1714
6 18 3 -0.9208 0.1475
6 18 4 0.1745 0.1039
6 18 5 1.9145 0.1981
6 18 6 0.9313 0.1481
6 18 7 -5.8947 -0.3110
6 18 8 -1.2850 -0.2322
6 18 9 8.1956 0.1947
6 18 10 0.1305 0.0705
6 18 11 -6.6949 -0.0343
6 18 12 1.9860 0.0075
6 18 13 2.7493 -0.0441
6 18 14 -3.2547 0.1017
6 18 15 1.7009 0.0133
6 18 16 2.0620 -0.1516
6 18 17 -4.9566 0.0961
6 18 18 0.3426 0.0759
6 18 19 5.3759 -0.1902
6 18 20 -0.7269 -0.0394
6 18 21 -3.0622 0.1607
6 18 22 -1.3050 0.0253
6 18 23 0.4681 0.0003
6 18 24 2.6325 0.0981
6 18 25 0.3480 -0.1784
6 18 26 -1.8491 -0.2462
6 18 27 -0.0288 0.2138
6 18 28 1.0993 0.2850
6 18 29 0.5304 0.0156
6 18 30 -1.7241 -0.2786
6 18 31 -2.2154 -0.4166
6 18 32 2.2371 0.2519
6 18 33 3.2930 0.5594
6 18 34 -1.4897 -0.0846
6 18 35 -2.4822 -0.1029
6 18 36 0.4038 -0.1055
6 18 37 1.4337 -0.5721
6 18 38 -0.0130 -0.0496
6 18 39 -2.6869 0.7144
6 18 40 0.0826 0.5603
6 18 41 5.3144 -0.3211
6 18 42 0.1390 -0.9484
6 18 43 -5.5266 0.1619
6 20 0 1.1530 -0.3314
6 20 1 2.3803 -0.2849
6 20 2 2.1656 0.2856
6 20 3 -1.1033 0.3693
6 20 4 -4.4667 0.0127
6 20 5 2.1012 0.0278
6 20 6 3.1428 -0.1917
6 20 7 -4.5559 -0.4126
6 20 8 -0.1741 0.1593
6 20 9 5.6626 0.2573
6 20 10 -1.2412 -0.0285
6 20 11 -3.6916 0.2010
6 20 12 0.8928 -0.0941
6 20 13 -0.3224 -0.3942
6 20 14 0.1908 0.0668
6 20 15 3.0069 0.2431
6 20 16 -2.1221 0.1490
6 20 17 -1.9346 -0.0343
6 20 18 4.2053 -0.2801
6 20 19 -1.1668 -0.0829
6 20 20 -4.1895 0.0837
6 20 21 2.7588 0.0561
6 20 22 1.6194 0.2106
6 20 23 -2.4472 0.1718
6 20 24 1.1322 -0.2630
6 20 25 2.3564 -0.4244
6 20 26 -2.3240 0.1938
6 20 27 -2.8830 0.3770
6 20 28 2.5761 -0.2637
6 20 29 2.8499 -0.0465
6 20 30 -2.7073 0.3356
6 20 31 -2.4046 -0.2104
6 20 32 2.2901 -0.2573
6 20 33 2.3870 0.2139
6 20 34 -0.8607 0.3147
6 20 35 -2.3819 -0.0707
6 20 36 -0.7920 -0.6228
6 20 37 1.7762 -0.1715
6 20 38 1.1009 0.6559
6 20 39 -1.0514 0.5517
6 20 40 0.4417 -0.1495
6 20 41 0.6760 -0.9253
6 22 0 4.5625 -0.2650
6 22 1 2.0489 -0.0332
6 22 2 -1.8489 0.5836
6 22 3 -5.1140 -0.0316
6 22 4 -1.2236 -0.4587
6 22 5 6.2600 0.1159
6 22 6 1.3690 -0.0241
6 22 7 -4.6138 -0.2051
6 22 8 0.9064 0.3081
6 22 9 2.4449 0.1548
6 22 10 -2.6859 -0.1569
6 22 11 -0.9329 -0.0321
6 22 12 2.0611 -0.0892
6 22 13 -0.7677 -0.0926
6 22 14 0.0780 0.1055
6 22 15 1.8002 0.3040
6 22 16 -1.0984 0.0122
6 22 17 -0.1622 -0.4285
6 22 18 -0.0239 -0.0080
6 22 19 -2.8878 0.1219
6 22 20 1.3577 -0.1682
6 22 21 3.9981 0.3371
6 22 22 -1.3587 0.2981
6 22 23 -2.8070 -0.2282
6 22 24 1.3628 -0.0903
6 22 25 1.6143 -0.3628
6 22 26 -2.6463 -0.4709
6 22 27 -1.2932 0.5358
6 22 28 3.7090 0.9779
6 22 29 1.0599 -0.0970
6 22 30 -2.8699 -1.0031
6 22 31 -0.7361 -0.0967
6 22 32 1.0241 0.6070
6 22 33 0.7268 -0.3766
6 22 34 0.1123 -0.2099
6 22 35 -1.0714 0.9174
6 22 36 -0.3109 0.0459
6 22 37 1.5813 -1.1214
6 22 38 0.2357 0.0098
6 24 0 -0.4488 -0.4940
6 24 1 -3.4350 -0.1707
6 24 2 -0.7701 0.4625
6 24 3 -0.2079 0.0391
6 24 4 1.1397 -0.1047
6 24 5 2.3891 0.1672
6 24 6 -0.0657 -0.2803
6 24 7 -1.4744 -0.3150
6 24 8 -0.8470 0.2924
6 24 9 -0.2470 0.2494
6 24 10 0.1933 -0.0538
6 24 11 0.3413 0.0333
6 24 12 0.2988 -0.0184
6 24 13 1.0784 -0.3327
6 24 14 0.9610 -0.0738
6 24 15 -2.2982 0.4397
6 24 16 -1.8474 0.1416
6 24 17 2.3385 -0.2624
6 24 18 0.3364 -0.3538
6 24 19 -2.1848 -0.1623
6 24 20 1.5535 0.7233
6 24 21 3.2875 0.5472
6 24 22 -1.5030 -0.6545
6 24 23 -4.9509 -0.4590
6 24 24 0.7713 -0.0651
6 24 25 5.0957 -0.0444
6 24 26 -1.2253 0.5505
6 24 27 -3.8271 0.1522
6 24 28 2.1822 -0.1339
6 24 29 3.5131 0.7555
6 24 30 -2.3110 -0.3827
6 24 31 -4.8106 -2.1394
6 24 32 1.6298 -0.0947
6 24 33 5.5423 2.8821
6 24 35 -4.1681 -2.6031
6 26 0 -2.8883 -0.4980
6 26 1 -0.4074 0.4848
6 26 2 0.3750 0.6783
6 26 3 1.3073 -0.1834
6 26 4 1.4093 -0.1891
6 26 5 -2.0526 -0.3063
6 26 6 -0.0466 -0.7132
6 26 7 2.2066 0.2005
6 26 8 -2.5068 1.0546
6 26 9 -2.5742 0.3396
6 26 10 2.9859 -0.4095
6 26 11 3.1257 -0.4507
6 26 12 -1.2924 -0.4656
6 26 13 -2.3550 -0.0438
6 26 14 -0.3924 0.6980
6 26 15 0.4724 0.4459
6 26 16 1.0535 -0.3429
6 26 17 0.3914 -0.3544
6 26 18 -1.4941 -0.0325
6 26 19 -0.3266 -0.0187
6 26 20 2.6157 0.1115
6 26 21 1.6226 0.6011
6 26 22 -4.0871 0.1800
6 26 23 -4.0901 -1.3901
6 26 24 4.6719 -0.6746
6 26 25 4.9374 1.7582
6 26 26 -4.0857 0.6368
6 26 27 -3.3335 -1.0348
6 26 28 3.8891 0.6850
6 26 29 1.1880 -0.2544
6 26 30 -5.1712 -2.8001
6 28 0 2.9829 0.4509
6 28 1 2.9440 0.1723
6 28 2 -2.0231 -0.2680
6 28 3 1.4332 -0.3867
6 28 4 -0.4948 -0.7165
6 28 5 -3.2930 -0.1459
6 28 6 3.0055 1.0215
6 28 7 1.0984 0.5078
6 28 8 -4.0496 -0.2430
6 28 9 2.2925 0.2056
6 28 10 3.9499 -0.4072
6 28 11 -4.0738 -1.2189
6 28 12 -3.3491 0.0767
6 28 13 4.3189 1.0087
6 28 14 2.3293 0.5547
6 28 15 -3.7947 0.5007
6 28 16 -1.4425 -0.5305
6 28 17 2.3597 -1.8462
6 28 18 1.0539 -0.1948
6 28 19 -0.3770 1.8947
6 28 20 -0.0959 1.2665
6 28 21 -0.8081 -0.8153
6 28 22 -2.0372 -2.4287
6 28 23 0.5101 -0.5590
6 28 24 3.7191 3.1079
6 30 0 3.8703 -0.2354
6 30 1 -1.6428 -1.2800
6 30 2 -0.5605 -0.4938
6 30 3 1.8143 0.0603
6 30 4 -3.4116 0.3669
6 30 5 -1.2210 1.2200
6 30 6 4.6435 0.1742
6 30 7 0.4566 -1.0789
6 30 8 -2.6314 0.2305
6 30 9 0.0164 0.1857
6 30 10 -0.3111 -1.4624
6 30 11 -0.6846 0.0402
6 30 12 2.5367 1.7377
6 30 13 1.5876 0.4051
6 30 14 -3.8553 -0.0805
6 30 15 -1.9610 -0.6131
7 1 0 -2.5685 -1.1898
7 1 1 26.3177 0.6265
7 1 2 8.8931 -0.4440
7 1 3 -31.8080 0.6944
7 1 4 -11.7276 1.5513
7 1 5 33.8055 -1.1346
7 1 6 9.3852 -0.9919
7 1 7 -31.3766 0.6617
7 1 8 -2.6269 -0.4830
7 1 9 24.9424 0.1450
7 1 10 -4.8156 1.2380
7 1 11 -16.9625 -0.6589
7 1 12 8.6867 -0.6901
7 1 13 9.6621 0.5848
7 1 14 -9.2872 -0.3087
7 1 15 -3.5166 -0.2089
7 1 16 9.6742 0.7433
7 1 17 -0.4346 0.0692
7 1 18 -9.0781 -0.4438
7 1 19 -0.0620 -0.2422
7 1 20 3.7540 -0.0797
7 1 21 4.7851 0.3437
7 1 22 5.5592 0.2810
7 1 23 -9.5000 -0.2081
7 1 24 -12.3473 -0.0128
7 1 25 10.2086 0.0644
7 1 26 12.0896 -0.4153
7 1 27 -7.4192 -0.1037
7 1 28 -7.9515 0.5753
7 1 29 4.7266 0.2942
7 1 30 6.1237 -0.3490
7 1 31 -4.0842 -0.4931
7 1 32 -7.3375 -0.0250
7 1 33 4.1382 0.4856
7 1 34 6.9539 0.2586
7 1 35 -3.1574 -0.1489
7 1 36 -3.0865 -0.2510
7 1 37 1.4806 -0.2829
7 1 38 -0.5398 0.0833
7 1 39 -0.0751 0.3989
7 1 40 0.9548 0.0911
7 1 41 -1.1639 -0.1014
7 1 42 0.0861 -0.1335
7 1 43 2.2579 -0.3075
7 1 44 -0.2000 -0.0069
7 1 45 -2.3938 0.4533
7 1 46 -0.2366 0.2081
7 1 47 1.5370 -0.1370
7 1 48 0.2677 -0.2327
7 1 49 -0.7475 -0.5639
7 1 50 -0.1571 0.0487
7 1 51 0.3280 1.2631
7 1 52 0.1691 0.0123
7 1 53 0.2684 -1.4710
7 3 0 6.7811 0.3076
7 3 1 -11.6669 0.0934
7 3 2 -7.6377 -0.0671
7 3 3 13.1893 0.5032
7 3 4 11.3662 0.0432
7 3 5 -12.9374 -0.3162
7 3 6 -17.4114 -0.1361
7 3 7 10.7020 -0.5603
7 3 8 23.3740 0.1426
7 3 9 -8.1145 1.0830
7 3 10 -25.9507 -0.0994
7 3 11 6.0303 -0.6688
7 3 12 22.7438 0.0803
7 3 13 -5.3081 -0.1412
7 3 14 -14.4534 -0.0635
7 3 15 7.1908 0.5013
7 3 16 5.5474 0.0933
7 3 17 -9.5688 -0.1957
7 3 18 -0.7939 -0.2062
7 3 19 7.3355 -0.3581
7 3 20 0.3799 0.2613
7 3 21 0.4559 0.6351
7 3 22 -0.3930 -0.1505
7 3 23 -7.7014 -0.4539
7 3 24 -1.5316 0.0076
7 3 25 8.1175 0.1151
7 3 26 3.7511 -0.0023
7 3 27 -2.5839 -0.0550
7 3 28 -4.4081 0.1319
7 3 29 -2.4440 0.3272
7 3 30 4.3705 -0.2854
7 3 31 2.8301 -0.6029
7 3 32 -4.6578 0.3152
7 3 33 -0.6899 0.6213
7 3 34 3.8932 -0.1233
7 3 35 -0.2340 -0.3821
7 3 36 -0.9999 -0.1468
7 3 37 -0.0153 -0.0061
7 3 38 -1.6781 0.1845
7 3 39 -0.4494 0.3893
7 3 40 1.1819 0.0995
7 3 41 1.1844 -0.5614
7 3 42 1.3779 -0.4589
7 3 43 -0.9905 0.4137
7 3 44 -2.3364 0.6217
7 3 45 0.8305 -0.0699
7 3 46 0.9242 -0.5324
7 3 47 -1.6878 -0.1916
7 3 48 0.3727 0.3260
7 3 49 2.3240 0.1532
7 3 50 -0.4399 -0.1930
7 3 51 -1.7038 0.1300
7 3 52 0.6684 0.2141
7 3 53 0.7857 -0.3291
7 5 0 -4.3181 0.0781
7 5 1 13.5689 0.1334
7 5 2 9.1635 -0.0021
7 5 3 -11.9132 -0.0227
7 5 4 -11.0945 0.0509
7 5 5 7.2994 -0.1849
7 5 6 7.3191 -0.3307
7 5 7 -2.0699 0.3004
7 5 8 1.3653 0.3413
7 5 9 -2.5186 -0.2755
7 5 10 -10.6673 0.2225
7 5 11 4.9011 0.1700
7 5 12 14.9764 -0.8555
7 5 13 -3.9056 -0.0006
7 5 14 -10.8349 0.8646
7 5 15 0.9871 -0.1696
7 5 16 1.7419 -0.2307
7 5 17 0.9115 0.2069
7 5 18 3.6062 -0.4723
7 5 19 -1.3083 -0.0873
7 5 20 -1.3918 0.6891
7 5 21 2.7222 -0.0885
7 5 22 -2.7883 -0.2746
7 5 23 -6.2836 0.2239
7 5 24 2.0565 -0.3961
7 5 25 9.1235 -0.2317
7 5 26 3.4594 0.7040
7 5 27 -8.2961 0.0868
7 5 28 -8.7806 -0.4373
7 5 29 5.4321 0.0729
7 5 30 10.5415 0.0092
7 5 31 -4.2198 -0.1376
7 5 32 -8.7824 0.1519
7 5 33 4.4950 0.2147
7 5 34 4.7164 -0.0805
7 5 35 -3.0198 -0.3410
7 5 36 0.4434 -0.0187
7 5 37 -0.3885 0.2822
7 5 38 -4.5163 0.1066
7 5 39 2.3030 0.0610
7 5 40 4.8529 -0.1776
7 5 41 -1.4993 -0.3957
7 5 42 -1.6833 0.1679
7 5 43 0.4902 0.4608
7 5 44 -1.0968 -0.0975
7 5 45 -0.5678 -0.3605
7 5 46 0.8927 0.0300
7 5 47 0.0044 0.3562
7 5 48 0.2640 0.0639
7 5 49 1.7823 -0.6483
7 5 50 0.1613 -0.1796
7 5 51 -2.6346 1.2760
7 5 52 -1.1236 0.1863
7 7 0 12.0079 -0.1472
7 7 1 3.7170 -0.2520
7 7 2 -10.3562 -0.0272
7 7 3 -1.7961 -0.1030
7 7 4 6.4613 0.1242
7 7 5 -0.2461 0.1296
7 7 6 -5.7504 -0.0927
7 7 7 2.5623 0.1046
7 7 8 9.8948 -0.0731
7 7 9 -6.4405 -0.0801
7 7 10 -16.0028 0.2789
7 7 11 10.8781 -0.2985
7 7 12 19.1985 -0.3236
7 7 13 -11.3385 0.5473
7 7 14 -16.0239 0.1297
7 7 15 5.7238 -0.3393
7 7 16 7.6232 0.1389
7 7 17 0.7611 -0.1333
7 7 18 0.5626 -0.2745
7 7 19 -2.0762 0.4983
7 7 20 -3.7455 0.1601
7 7 21 -0.1245 -0.5034
7 7 22 2.0501 0.1957
7 7 23 0.2051 0.1275
7 7 24 0.5419 -0.5111
7 7 25 2.4630 0.3246
7 7 26 -0.5730 0.4011
7 7 27 -4.2364 -0.4654
7 7 28 -1.7709 0.0479
7 7 29 4.0141 0.2939
7 7 30 3.5667 -0.3123
7 7 31 -3.5107 -0.1197
7 7 32 -3.1225 0.2003
7 7 33 2.5943 0.0467
7 7 34 1.9041 0.0101
7 7 35 0.4601 0.0689
7 7 36 -1.6767 -0.2033
7 7 37 -4.4625 -0.2406
7 7 38 1.9617 0.4506
7 7 39 5.3203 0.3452
7 7 40 -1.9954 -0.5352
7 7 41 -1.6924 -0.3619
7 7 42 2.4363 0.2327
7 7 43 -2.5236 0.2901
7 7 44 -3.1311 0.1896
7 7 45 3.4187 -0.0667
7 7 46 2.2529 -0.4116
7 7 47 -2.0774 -0.1631
7 7 48 0.3568 0.5304
7 7 49 1.5448 0.0466
7 7 50 -2.0727 -0.5741
7 7 51 -1.6263 0.4197
7 9 0 3.2518 -0.0466
7 9 1 -6.7987 -0.0233
7 9 2 2.1787 -0.4903
7 9 3 3.9036 -0.0752
7 9 4 -7.2556 0.7321
7 9 5 -1.9759 0.0293
7 9 6 6.4359 -0.3268
7 9 7 3.4815 0.1410
7 9 8 0.1156 -0.2855
7 9 9 -8.8850 -0.2018
7 9 10 -6.3500 0.4588
7 9 11 14.9830 0.0579
7 9 12 7.8398 -0.1773
7 9 13 -15.9896 0.1436
7 9 14 -6.1538 -0.1350
7 9 15 9.6164 -0.2187
7 9 16 4.3326 0.2810
7 9 17 -0.9174 0.0572
7 9 18 -2.5432 -0.3112
7 9 19 -3.5303 0.2651
7 9 20 0.3412 0.2133
7 9 21 3.3022 -0.3900
7 9 22 1.2794 0.0076
7 9 23 -2.4646 0.0959
7 9 24 -2.2451 -0.1717
7 9 25 3.0365 0.2383
7 9 26 3.8106 0.1199
7 9 27 -3.8748 -0.1692
7 9 28 -5.2688 0.0882
7 9 29 3.8819 -0.0590
7 9 30 4.2606 -0.2562
7 9 31 -3.2467 -0.0082
7 9 32 -1.2889 0.2003
7 9 33 2.4891 0.2451
7 9 34 -0.1348 0.1119
7 9 35 -1.7277 -0.3339
7 9 36 -1.0848 -0.4275
7 9 37 0.7557 0.3044
7 9 38 1.8155 0.3850
7 9 39 0.1375 -0.1187
7 9 40 0.2355 0.0314
7 9 41 0.0189 -0.4104
7 9 42 -2.9316 -0.4651
7 9 43 -1.1791 0.9068
7 9 44 3.2479 0.7307
7 9 45 1.5914 -0.7504
7 9 46 -1.7448 -1.0042
7 9 47 -0.4368 0.3153
7 9 48 0.8320 1.3018
7 9 49 -0.5453 -0.5799
7 9 50 -0.5793 -1.2662
7 11 0 2.2586 -0.2638
7 11 1 -0.3244 -0.1102
7 11 2 -2.9975 -0.0547
7 11 3 -3.6691 0.3802
7 11 4 1.0856 0.2100
7 11 5 5.7159 -0.2915
7 11 6 -0.4656 0.0218
7 11 7 -2.1129 -0.0323
7 11 8 2.5400 -0.3533
7 11 9 -5.0977 0.1626
7 11 10 -4.3560 0.3865
7 11 11 9.8227 -0.0215
7 11 12 3.7479 -0.1153
7 11 13 -9.2954 -0.0224
7 11 14 -2.3813 -0.1899
7 11 15 6.7238 -0.1537
7 11 16 1.5954 0.2975
7 11 17 -6.0111 0.1858
7 11 18 0.0201 -0.1119
7 11 19 6.7316 0.0992
7 11 20 -2.6760 -0.1991
7 11 21 -5.7225 -0.3071
7 11 22 3.9027 0.2697
7 11 23 1.7277 0.1083
7 11 24 -2.8447 -0.0560
7 11 25 2.9540 0.1943
7 11 26 1.6549 -0.0747
7 11 27 -4.7250 -0.1208
7 11 28 -1.6425 0.0270
7 11 29 2.2891 -0.2574
7 11 30 1.7653 -0.0881
7 11 31 1.6002 0.4101
7 11 32 -1.1914 0.1989
7 11 33 -2.7710 -0.0463
7 11 34 0.4796 0.0012
7 11 35 0.5328 -0.5118
7 11 36 -0.3015 -0.3840
7 11 37 1.6894 0.6312
7 11 38 0.6508 0.5645
7 11 39 -1.3817 -0.0437
7 11 40 -1.0471 -0.6460
7 11 41 0.1296 -0.7519
7 11 42 1.0578 0.6723
7 11 43 -0.2663 0.9890
7 11 44 -0.9176 0.0161
7 11 45 1.0428 -0.6492
7 11 46 1.1663 -1.6061
7 11 47 -0.5442 0.5360
7 11 48 -1.5332 2.8038
7 13 0 -2.2250 -0.0328
7 13 1 -8.7481 -0.2618
7 13 2 2.4275 0.0281
7 13 3 6.3929 0.3466
7 13 4 -1.6095 0.0746
7 13 5 -2.5222 -0.1295
7 13 6 -0.1255 -0.1479
7 13 7 2.5799 -0.1837
7 13 8 2.0131 0.0407
7 13 9 -6.5444 0.2506
7 13 10 -3.6900 0.2145
7 13 11 9.4183 -0.0959
7 13 12 4.5058 -0.3036
7 13 13 -8.6774 0.0200
7 13 14 -2.7752 -0.0029
7 13 15 6.5405 -0.0856
7 13 16 -2.4818 0.4035
7 13 17 -4.7968 0.1078
7 13 18 8.6537 -0.3673
7 13 19 2.4235 -0.0175
7 13 20 -10.6387 -0.0756
7 13 21 1.0608 -0.1020
7 13 22 6.5911 0.3347
7 13 23 -3.9664 0.1396
7 13 24 -0.8855 -0.1588
7 13 25 4.7073 0.0171
7 13 26 -0.6228 -0.0407
7 13 27 -3.3104 -0.2864
7 13 28 -2.8580 -0.0457
7 13 29 0.9940 0.3456
7 13 30 6.8124 0.1461
7 13 31 0.6031 -0.1468
7 13 32 -6.9035 0.0420
7 13 33 -0.8003 0.0769
7 13 34 3.4615 -0.3432
7 13 35 0.6565 -0.2088
7 13 36 -0.4230 0.3795
7 13 37 -1.1099 0.0895
7 13 38 0.2937 -0.0091
7 13 39 1.2775 0.3370
7 13 40 -1.3718 -0.5140
7 13 41 -0.2677 -0.5715
7 13 42 0.9003 0.5908
7 13 43 -0.8090 0.6944
7 13 44 0.7286 0.1696
7 13 45 0.5665 -1.4456
7 13 46 -1.1911 -1.1828
7 13 47 0.3513 2.7276
7 15 0 0.4269 -0.0823
7 15 1 2.1614 0.3253
7 15 2 0.6992 0.0399
7 15 3 -2.1946 -0.0442
7 15 4 0.3624 0.1462
7 15 5 0.8534 -0.1751
7 15 6 -2.4297 -0.2413
7 15 7 2.6418 0.2231
7 15 8 3.0886 0.1096
7 15 9 -7.5158 -0.1468
7 15 10 -2.2147 0.0958
7 15 11 10.9175 -0.0132
7 15 12 0.9015 -0.1024
7 15 13 -10.2791 0.1498
7 15 14 1.4459 -0.0988
7 15 15 5.6984 -0.1086
7 15 16 -5.3199 0.2264
7 15 17 0.0132 -0.0300
7 15 18 7.7115 -0.1071
7 15 19 -3.1280 0.0097
7 15 20 -4.8720 -0.1292
7 15 21 2.0659 0.1416
7 15 22 -1.7475 0.2691
7 15 23 0.6160 -0.1365
7 15 24 6.0540 -0.2164
7 15 25 -0.8521 -0.0405
7 15 26 -4.2840 0.0192
7 15 27 -2.0778 0.1367
7 15 28 -0.9805 0.1576
7 15 29 5.0994 -0.1232
7 15 30 4.3048 -0.1918
7 15 31 -5.4579 0.1433
7 15 32 -3.5275 0.1318
7 15 33 3.4299 -0.1276
7 15 34 1.3621 0.0156
7 15 35 -1.3067 -0.0189
7 15 36 -0.9181 -0.3843
7 15 37 0.9752 0.1137
7 15 38 1.3501 0.8172
7 15 39 -2.1603 -0.0041
7 15 40 -0.0464 -0.7599
7 15 41 2.7792 -0.2288
7 15 42 -2.2584 0.0833
7 15 43 -1.5159 0.6168
7 15 44 2.2842 0.4772
7 15 45 -0.6140 -1.2338
7 15 46 0.2125 -0.2752
7 17 0 -0.9371 -0.0802
7 17 1 -4.2914 -0.0394
7 17 2 3.4951 0.0932
7 17 3 2.7622 0.3498
7 17 4 -4.9232 -0.0818
7 17 5 -3.6049 -0.3441
7 17 6 4.1253 0.0428
7 17 7 6.2458 -0.0242
7 17 8 -3.4326 -0.1356
7 17 9 -8.2942 0.3312
7 17 10 4.6043 0.2782
7 17 11 8.2068 -0.2874
7 17 12 -6.5393 -0.1880
7 17 13 -5.8638 0.0489
7 17 14 7.4876 -0.0842
7 17 15 1.6872 0.1166
7 17 16 -7.0001 0.1733
7 17 17 2.3789 -0.1607
7 17 18 5.5606 -0.0066
7 17 19 -2.6987 0.1696
7 17 20 -3.8932 -0.1491
7 17 21 -1.7506 -0.1768
7 17 22 2.5023 0.2174
7 17 23 6.3413 0.1552
7 17 24 -1.4307 -0.3323
7 17 25 -5.6369 -0.0766
7 17 26 0.7538 0.4196
7 17 27 0.1696 -0.0443
7 17 28 -0.7401 -0.2706
7 17 29 4.6224 0.1089
7 17 30 1.1730 -0.0950
7 17 31 -5.2249 -0.0449
7 17 32 -1.6106 0.4776
7 17 33 3.1681 0.0038
7 17 34 2.2388 -0.6749
7 17 35 -1.6312 -0.1604
7 17 36 -3.0234 0.4849
7 17 37 1.1294 0.2257
7 17 38 2.7832 0.0810
7 17 39 0.1445 0.3553
7 17 40 -0.9751 -0.5987
7 17 41 -2.3965 -1.4869
7 17 42 -0.6763 0.6846
7 19 0 -1.3719 0.3421
7 19 1 5.6161 0.0171
7 19 2 0.1263 -0.0572
7 19 3 -8.8258 0.3100
7 19 4 0.0262 -0.1493
7 19 5 6.7580 -0.5815
7 19 6 0.8378 -0.0227
7 19 7 -0.7332 0.4836
7 19 8 -1.8529 0.2243
7 19 9 -3.5719 0.0317
7 19 10 1.9727 -0.0752
7 19 11 3.1085 -0.4950
7 19 12 -1.3946 -0.1852
7 19 13 0.2319 0.4590
7 19 14 0.6379 0.1773
7 19 15 -3.2273 -0.0815
7 19 16 0.7157 0.0169
7 19 17 4.1974 -0.1629
7 19 18 -2.1623 -0.1409
7 19 19 -3.0757 0.1134
7 19 20 1.5196 0.1547
7 19 21 0.9524 0.0608
7 19 22 1.4092 -0.0711
7 19 23 0.5432 -0.2141
7 19 24 -3.3377 -0.1060
7 19 25 -0.3734 0.2861
7 19 26 2.0411 0.1729
7 19 27 -1.1934 -0.2156
7 19 28 0.5635 0.0439
7 19 29 2.8638 0.0131
7 19 30 -1.6128 -0.3035
7 19 31 -3.4662 0.1977
7 19 32 0.7686 0.3122
7 19 33 3.1357 -0.2628
7 19 34 0.6436 -0.2144
7 19 35 -2.7976 0.0779
7 19 36 -1.6942 0.1401
7 19 37 2.3381 0.2857
7 19 38 2.2371 0.2906
7 19 39 -0.7723 -0.5324
7 19 40 -2.3735 -1.2673
7 19 41 -1.4285 0.4479
7 21 0 -1.1719 0.0769
7 21 1 -3.6964 -0.2281
7 21 2 -1.6256 0.1343
7 21 3 2.1547 0.2071
7 21 4 2.5171 -0.3963
7 21 5 -0.7728 -0.1552
7 21 6 1.1173 0.5177
7 21 7 0.3214 0.1139
7 21 8 -6.3757 -0.2545
7 21 9 -0.8386 0.1553
7 21 10 8.2762 -0.2778
7 21 11 1.4935 -0.4521
7 21 12 -5.9888 0.6147
7 21 13 -1.0397 0.3116
7 21 14 2.4884 -0.4228
7 21 15 -0.0214 0.1883
7 21 16 -0.1432 -0.1050
7 21 17 -0.1133 -0.5751
7 21 18 -0.5684 0.4354
7 21 19 1.0159 0.6838
7 21 20 -0.1581 -0.3230
7 21 21 -0.4079 -0.5783
7 21 22 1.6310 0.1231
7 21 23 -1.4978 0.2444
7 21 24 -2.5977 -0.2766
7 21 25 2.1085 0.0818
7 21 26 2.2063 0.6110
7 21 27 -0.9544 0.0747
7 21 28 -0.7373 -0.5489
7 21 29 0.2402 -0.6038
7 21 30 -0.6720 -0.0072
7 21 31 -1.2498 0.7689
7 21 32 0.8768 0.5116
7 21 33 3.1604 -0.3892
7 21 34 0.2804 -0.5805
7 21 35 -4.6402 0.1550
7 21 36 -1.7946 0.4052
7 21 37 4.7653 -0.4029
7 21 38 2.6123 -0.2581
7 23 0 -7.0028 -0.0783
7 23 1 5.8469 -0.0767
7 23 2 4.3622 0.4710
7 23 3 -4.5157 0.1959
7 23 4 0.0266 -0.5199
7 23 5 4.0789 -0.1925
7 23 6 -3.4766 0.3365
7 23 7 -5.8650 0.0532
7 23 8 4.5777 0.0429
7 23 9 6.9492 0.1091
7 23 10 -3.9840 -0.4024
7 23 11 -4.7547 -0.0948
7 23 12 3.8705 0.3645
7 23 13 0.9188 -0.1039
7 23 14 -5.4324 -0.0148
7 23 15 1.7323 0.2114
7 23 16 6.9219 -0.1310
7 23 17 -2.5889 -0.1574
7 23 18 -6.2501 -0.0833
7 23 19 2.0752 0.2449
7 23 20 4.2544 0.3618
7 23 21 -0.3194 -0.4462
7 23 22 -2.6136 -0.5602
7 23 23 -1.8585 0.2041
7 23 24 0.7431 0.6744
7 23 25 2.9559 0.4838
7 23 26 2.1086 -0.5161
7 23 27 -2.3715 -0.6152
7 23 28 -4.2120 0.1553
7 23 29 0.9204 -0.3460
7 23 30 3.7133 -0.2355
7 23 31 -0.0615 1.3551
7 23 32 -1.4304 1.0244
7 23 33 0.8265 -1.1436
7 23 34 -0.5882 -1.6618
7 23 35 -2.6661 -0.0025
7 25 0 3.1573 0.5197
7 25 1 3.6224 0.1173
7 25 2 -3.3450 -0.2911
7 25 3 -0.5774 -0.4780
7 25 4 2.6774 -0.1130
7 25 5 -2.6392 0.3948
7 25 6 -3.1717 0.3075
7 25 7 3.8543 0.1226
7 25 8 4.3099 0.0783
7 25 9 -3.2011 -0.4980
7 25 10 -3.2375 -0.6899
7 25 11 2.6340 0.2122
7 25 12 -0.2099 0.7050
7 25 13 -3.8629 0.3853
7 25 14 3.1296 -0.0720
7 25 15 6.2207 -0.4894
7 25 16 -4.1271 -0.3908
7 25 17 -7.1676 0.0677
7 25 18 4.1328 0.2729
7 25 19 5.5472 0.0815
7 25 20 -3.4612 0.0981
7 25 21 -2.6637 0.4720
7 25 22 1.7267 -0.5920
7 25 23 -0.3135 -1.3013
7 25 24 0.2582 1.2533
7 25 25 3.3317 1.7974
7 25 26 -1.1220 -1.3804
7 25 27 -5.4967 -1.5891
7 25 28 0.6397 0.1588
7 25 29 5.3021 0.4781
7 25 30 0.3237 1.6453
7 27 0 1.2264 -0.4383
7 27 1 -2.1746 -0.6375
7 27 2 -0.1400 0.3008
7 27 3 1.0893 0.3343
7 27 4 -1.8476 -0.0088
7 27 5 0.2277 0.2618
7 27 6 2.5860 0.2857
7 27 7 0.4196 -0.2763
7 27 8 -1.5405 -0.7372
7 27 9 -1.7672 -0.3905
7 27 10 0.2833 0.4159
7 27 11 1.2997 0.5718
7 27 12 -0.3491 0.4306
7 27 13 0.5302 0.4388
7 27 14 1.7955 -0.5102
7 27 15 -1.8637 -1.5899
7 27 16 -3.4061 -0.4314
7 27 17 2.6801 1.4962
7 27 18 3.8650 0.9901
7 27 19 -3.4381 -0.2436
7 27 20 -2.8321 0.0042
7 27 21 3.2130 -1.1783
7 27 22 0.7579 -2.0450
7 27 23 -1.5195 2.2405
7 27 24 1.7373 3.7330
7 27 25 -0.3505 -2.6890
7 29 0 -2.0401 -0.5415
7 29 1 -2.0180 0.9335
7 29 2 1.6507 0.8597
7 29 3 -0.5673 -0.9346
7 29 4 0.3832 -0.1675
7 29 5 3.9814 0.6951
7 29 6 -1.6290 -0.4838
7 29 7 -5.2149 -0.7176
7 29 8 0.8445 0.1816
7 29 9 4.3438 0.3176
7 29 10 0.1010 0.1887
7 29 11 -3.2444 0.6177
7 29 12 0.3859 0.7539
7 29 13 2.8101 -0.7195
7 29 14 -1.2531 -2.5541
8 0 0 10.9429 5.7770
8 0 2 -22.7735 -5.7312
8 0 4 33.5351 2.9591
8 0 6 -36.5248 0.1730
8 0 8 30.1192 -1.6555
8 0 10 -19.9609 1.3161
8 0 12 13.2159 -0.4212
8 0 14 -10.4194 0.1387
8 0 16 7.5426 -0.5166
8 0 18 -4.2473 0.8826
8 0 20 3.7455 -0.8616
8 0 22 -5.9712 0.6877
8 0 24 7.2397 -0.6967
8 0 26 -6.4590 0.8749
8 0 28 6.7302 -0.9372
8 0 30 -9.8605 0.6983
8 0 32 12.6621 -0.3260
8 0 34 -10.8770 0.1918
8 0 36 5.0879 -0.4244
8 0 38 0.1265 0.7456
8 0 40 -2.1197 -0.8318
8 0 42 1.9802 0.6491
8 0 44 -1.1650 -0.3827
8 0 46 0.1670 0.3170
8 0 48 0.0775 -0.7735
8 0 50 0.9475 1.7546
8 0 52 -1.8565 -2.6418
8 2 0 -7.6934 0.9984
8 2 1 2.6177 -3.4492
8 2 2 2.3909 -0.8048
8 2 3 1.4246 2.4077
8 2 4 4.9680 -0.0285
8 2 5 -4.9107 -0.2957
8 2 6 -9.4966 0.5964
8 2 7 5.9195 -1.1254
8 2 8 8.7332 -0.4479
8 2 9 -4.9457 1.0862
8 2 10 -4.6497 0.0218
8 2 11 4.7116 -0.1759
8 2 12 1.0035 0.1404
8 2 13 -5.7348 -0.4703
8 2 14 1.2944 -0.0125
8 2 15 5.2929 0.2970
8 2 16 -4.0197 -0.1489
8 2 17 -2.7794 0.2775
8 2 18 7.2323 0.1482
8 2 19 1.3363 -0.5233
8 2 20 -8.2678 0.0379
8 2 21 -2.2136 0.2451
8 2 22 5.8098 -0.1977
8 2 23 2.4726 0.1838
8 2 24 -2.2176 0.0950
8 2 25 -0.2314 -0.4060
8 2 26 0.2996 0.1586
8 2 27 -2.0611 0.3992
8 2 28 0.4480 -0.2501
8 2 29 1.5362 -0.2866
8 2 30 -2.2810 0.1436
8 2 31 0.8614 0.0916
8 2 32 4.7315 -0.0513
8 2 33 -2.0336 0.2343
8 2 34 -4.6082 0.0640
8 2 35 1.0346 -0.6258
8 2 36 1.0502 -0.1459
8 2 37 0.4235 0.8516
8 2 38 2.4688 0.2863
8 2 39 -1.1905 -0.7084
8 2 40 -2.8058 -0.4044
8 2 41 1.7742 0.2411
8 2 42 1.0878 0.3262
8 2 43 -2.0428 0.2844
8 2 44 -0.0800 -0.0219
8 2 45 0.9843 -0.5781
8 2 46 0.2147 -0.2806
8 2 47 0.6551 0.4608
8 2 48 -0.3840 0.2838
8 2 49 -0.8624 0.0489
8 2 50 0.5148 0.0893
8 2 51 -0.1400 -0.6589
8 2 52 -1.1572 -0.5573
8 4 0 12.7354 0.0796
8 4 1 5.0449 -0.5994
8 4 2 -20.8505 -0.2225
8 4 3 -4.2746 0.1710
8 4 4 27.8427 0.7577
8 4 5 2.2054 0.4421
8 4 6 -30.2017 -1.0037
8 4 7 -0.7207 -0.5142
8 4 8 26.2338 0.6467
8 4 9 0.5137 0.0592
8 4 10 -17.2552 0.0303
8 4 11 -0.3329 0.3660
8 4 12 7.7366 -0.5147
8 4 13 -0.1317 -0.3839
8 4 14 -2.8014 0.5065
8 4 15 -1.0087 0.0332
8 4 16 3.0192 -0.1415
8 4 17 4.1084 0.3470
8 4 18 -3.9563 -0.1763
8 4 19 -6.0413 -0.3506
8 4 20 3.0413 0.2175
8 4 21 4.4055 -0.0567
8 4 22 -3.1172 -0.1135
8 4 23 -1.1795 0.4422
8 4 24 6.7676 0.0567
8 4 25 -0.0211 -0.5032
8 4 26 -11.5779 -0.0118
8 4 27 -1.2287 0.4015
8 4 28 14.0112 -0.1295
8 4 29 2.0837 -0.3040
8 4 30 -14.0711 0.2713
8 4 31 -0.8601 0.1197
8 4 32 13.1431 -0.2057
8 4 33 -0.4467 0.1537
8 4 34 -10.5411 -0.0545
8 4 35 -0.6116 -0.3559
8 4 36 5.5851 0.2201
8 4 37 2.9056 0.4627
8 4 38 -0.9479 -0.0638
8 4 39 -3.5418 -0.5045
8 4 40 0.1310 -0.2936
8 4 41 2.3642 0.3396
8 4 42 -2.2595 0.5075
8 4 43 -1.4013 0.1042
8 4 44 3.0929 -0.3552
8 4 45 1.0554 -0.6011
8 4 46 -1.3404 -0.0770
8 4 47 -0.3154 0.8777
8 4 48 -0.0329 0.4796
8 4 49 -0.3930 -0.8345
8 4 50 -0.5887 -0.5734
8 4 51 -0.1151 0.4977
8 6 0 0.3722 -0.2051
8 6 1 -2.5550 0.1267
8 6 2 -7.2761 0.2939
8 6 3 6.9919 0.1936
8 6 4 14.9155 0.0209
8 6 5 -11.6842 -0.3116
8 6 6 -19.4681 -0.2252
8 6 7 14.9444 0.0955
8 6 8 18.2017 0.0577
8 6 9 -14.7096 0.1527
8 6 10 -11.2839 0.2546
8 6 11 11.0948 -0.1217
8 6 12 2.8298 -0.4382
8 6 13 -7.3066 -0.1263
8 6 14 1.1678 0.3810
8 6 15 5.8600 0.2857
8 6 16 1.0203 -0.1091
8 6 17 -5.2417 -0.1842
8 6 18 -4.6123 -0.1307
8 6 19 3.2530 -0.0437
8 6 20 4.8053 0.1009
8 6 21 -1.6312 0.1083
8 6 22 -2.6074 0.0268
8 6 23 3.3716 0.1369
8 6 24 1.7423 0.0260
8 6 25 -7.3348 -0.5242
8 6 26 -3.0942 -0.0993
8 6 27 9.8984 0.6989
8 6 28 4.8216 -0.0575
8 6 29 -10.3825 -0.4853
8 6 30 -5.5472 0.2381
8 6 31 10.4118 0.1163
8 6 32 5.3105 -0.1820
8 6 33 -9.3427 0.0331
8 6 34 -4.4670 0.0539
8 6 35 5.2208 0.0590
8 6 36 3.0294 -0.0479
8 6 37 0.2086 -0.0635
8 6 38 -1.3123 0.0834
8 6 39 -2.3371 -0.1674
8 6 40 0.4785 -0.1672
8 6 41 0.2116 0.3562
8 6 42 -1.1371 0.4154
8 6 43 2.0629 -0.1757
8 6 44 1.8042 -0.6677
8 6 45 -1.6362 -0.3672
8 6 46 -0.7875 0.7299
8 6 47 0.4960 0.9563
8 6 48 -0.9056 -0.8125
8 6 49 -0.9705 -1.1987
8 6 50 1.0861 1.0919
8 6 51 1.8006 0.9235
8 8 0 2.3153 0.2237
8 8 1 1.3192 0.3732
8 8 2 -9.0842 -0.0127
8 8 3 3.5115 -0.0607
8 8 4 16.9518 -0.0478
8 8 5 -9.1379 -0.2534
8 8 6 -20.1459 -0.1707
8 8 7 12.8058 0.1592
8 8 8 15.8734 0.4151
8 8 9 -11.3664 0.1523
8 8 10 -7.2066 -0.3081
8 8 11 4.7479 -0.3119
8 8 12 -0.1172 -0.1183
8 8 13 1.9492 0.2645
8 8 14 2.7890 0.4021
8 8 15 -3.5435 -0.1203
8 8 16 -1.3859 -0.2293
8 8 17 1.3296 0.0005
8 8 18 -1.4740 -0.2004
8 8 19 -0.2267 -0.0344
8 8 20 3.2203 0.4966
8 8 21 1.0829 0.1102
8 8 22 -2.8601 -0.5181
8 8 23 -1.0177 0.0768
8 8 24 1.6636 0.3346
8 8 25 -0.5697 -0.4214
8 8 26 -1.5560 -0.0548
8 8 27 1.7623 0.4300
8 8 28 2.4164 -0.1198
8 8 29 -2.2779 -0.0517
8 8 30 -2.4323 0.0097
8 8 31 3.2437 -0.2395
8 8 32 1.4040 0.2141
8 8 33 -4.0520 0.2507
8 8 34 -1.2659 -0.1977
8 8 35 3.0137 -0.1840
8 8 36 2.4447 -0.0470
8 8 37 -0.5222 0.1005
8 8 38 -2.5941 0.1994
8 8 39 -0.9243 -0.0018
8 8 40 0.5493 -0.1672
8 8 41 0.0110 0.0621
8 8 42 1.3631 0.0868
8 8 43 1.5846 -0.1786
8 8 44 -1.0115 0.0215
8 8 45 -1.5365 -0.0498
8 8 46 -0.3166 -0.1228
8 8 47 0.1041 0.4200
8 8 48 0.6363 0.0005
8 8 49 0.6172 -0.1290
8 10 0 0.2890 0.1515
8 10 1 -2.1050 0.4588
8 10 2 -2.6232 0.0969
8 10 3 10.1381 -0.4079
8 10 4 7.4299 -0.3520
8 10 5 -17.8367 0.1561
8 10 6 -9.5627 0.1573
8 10 7 19.9104 0.1369
8 10 8 6.2675 0.2982
8 10 9 -14.6272 -0.2337
8 10 10 -1.1282 -0.3982
8 10 11 6.0724 0.0865
8 10 12 -0.9332 0.0392
8 10 13 -0.3709 0.0419
8 10 14 -0.2828 0.3118
8 10 15 -0.3397 0.0779
8 10 16 2.1446 -0.3216
8 10 17 -0.8855 -0.2466
8 10 18 -3.6501 0.0365
8 10 19 0.8161 0.1272
8 10 20 4.7389 0.2992
8 10 21 -0.2737 0.1364
8 10 22 -4.6341 -0.3809
8 10 23 1.9453 -0.1142
8 10 24 3.6973 0.1440
8 10 25 -5.7718 -0.1478
8 10 26 -3.7170 0.0562
8 10 27 8.6876 0.2209
8 10 28 4.6477 0.0499
8 10 29 -8.3742 -0.0735
8 10 30 -4.3836 -0.2284
8 10 31 5.7153 0.0295
8 10 32 2.6018 0.2258
8 10 33 -3.2982 -0.0903
8 10 34 -1.4361 -0.1689
8 10 35 2.1817 0.0137
8 10 36 1.8399 0.1458
8 10 37 -1.1050 0.1825
8 10 38 -2.3025 -0.0419
8 10 39 -0.8009 -0.3583
8 10 40 1.6183 -0.0201
8 10 41 2.1305 0.4335
8 10 42 -0.5639 -0.1305
8 10 43 -1.5116 -0.0861
8 10 44 0.2775 0.1011
8 10 45 0.1370 -0.9399
8 10 46 -0.5866 0.5245
8 10 47 0.1619 1.9698
8 12 0 -1.2417 -0.2559
8 12 1 6.4244 -0.0543
8 12 2 0.4783 0.3374
8 12 3 -0.2946 -0.0415
8 12 4 1.8235 -0.2633
8 12 5 -8.0805 -0.0505
8 12 6 -3.5164 0.0410
8 12 7 10.9673 0.3671
8 12 8 3.4174 0.1598
8 12 9 -6.4298 -0.4237
8 12 10 -2.3661 -0.1738
8 12 11 0.1481 -0.0258
8 12 12 1.4800 -0.0093
8 12 13 2.4922 0.5079
8 12 14 -0.8544 0.2730
8 12 15 -2.2155 -0.5148
8 12 16 0.7386 -0.3837
8 12 17 2.3334 0.1739
8 12 18 -1.7215 0.0881
8 12 19 -3.2954 0.0699
8 12 20 2.6335 0.4609
8 12 21 3.0874 -0.0332
8 12 22 -1.0288 -0.6378
8 12 23 -0.5903 -0.1158
8 12 24 -2.9170 0.1873
8 12 25 -3.2301 0.1049
8 12 26 5.6441 0.2810
8 12 27 6.2477 0.1165
8 12 28 -4.5706 -0.2005
8 12 29 -6.8823 -0.2601
8 12 30 1.1188 -0.1407
8 12 31 5.6292 0.0850
8 12 32 1.4609 0.2504
8 12 33 -4.2390 0.2236
8 12 34 -1.7768 -0.1652
8 12 35 3.1337 -0.3838
8 12 36 1.0810 0.0697
8 12 37 -1.3926 0.4450
8 12 38 -1.0044 0.0313
8 12 39 -0.5734 -0.4663
8 12 40 1.3282 -0.0625
8 12 41 0.9423 0.1895
8 12 42 -0.7253 0.1441
8 12 43 0.4268 0.4212
8 12 45 -1.4478 -0.7727
8 12 46 1.4925 2.3829
8 12 47 0.9951 0.3995
8 14 0 9.7312 -0.1169
8 14 1 -1.3920 0.3300
8 14 2 -10.3407 0.0859
8 14 3 5.8062 -0.3907
8 14 4 8.0407 0.0966
8 14 5 -11.3018 0.1677
8 14 6 -4.6913 -0.2128
8 14 7 13.4106 0.1379
8 14 8 2.3607 0.1745
8 14 9 -10.8519 -0.2230
8 14 10 -0.8811 -0.1172
8 14 11 6.9737 0.0594
8 14 12 -0.7374 0.0773
8 14 13 -4.8092 0.1302
8 14 14 1.4246 0.0631
8 14 15 3.6449 -0.2137
8 14 16 0.8775 -0.2603
8 14 17 -1.9347 0.1646
8 14 18 -5.1333 0.2668
8 14 19 0.3416 0.0360
8 14 20 7.0951 0.0058
8 14 21 -0.1325 -0.1869
8 14 22 -4.4557 -0.2899
8 14 23 1.1403 -0.0323
8 14 24 -0.1227 0.2398
8 14 25 -2.6090 0.4610
8 14 26 2.4180 0.1593
8 14 27 4.2312 -0.5457
8 14 28 -1.4493 -0.5329
8 14 29 -5.6708 0.2095
8 14 30 -0.3115 0.4997
8 14 31 6.1691 0.0766
8 14 32 0.6338 -0.0545
8 14 33 -5.0477 -0.0952
8 14 34 -0.2459 -0.4871
8 14 35 2.5817 -0.0036
8 14 36 1.2949 0.8157
8 14 37 -0.4002 0.1733
8 14 38 -3.5708 -0.7680
8 14 39 0.1968 -0.3245
8 14 40 4.2035 0.2703
8 14 41 -1.5881 0.1924
8 14 42 -1.9449 0.5977
8 14 43 2.3807 0.0128
8 14 44 -0.6564 -1.4706
8 14 45 -1.4200 0.3825
8 14 46 1.0211 1.8472
8 16 0 -4.7574 -0.1944
8 16 1 -5.5704 0.3259
8 16 2 2.7922 0.0942
8 16 3 7.2576 -0.3199
8 16 4 -1.7352 0.0538
8 16 5 -8.8718 -0.0370
8 16 6 2.4331 -0.1961
8 16 7 8.8111 0.4052
8 16 8 -3.3168 0.2604
8 16 9 -6.2017 -0.3905
8 16 10 3.8298 -0.1470
8 16 11 2.2109 0.0551
8 16 12 -4.8975 -0.1515
8 16 13 0.8887 0.2057
8 16 14 5.5847 0.3663
8 16 15 -1.5389 -0.2020
8 16 16 -3.4533 -0.2006
8 16 17 0.1470 0.0621
8 16 18 -0.7563 -0.1663
8 16 19 1.0437 0.1003
8 16 20 2.8231 0.2632
8 16 21 -0.3490 -0.2702
8 16 22 -0.6789 -0.0395
8 16 23 -0.9829 0.3386
8 16 24 -2.8988 -0.1438
8 16 25 0.3422 -0.1845
8 16 26 4.3002 0.1597
8 16 27 2.4760 -0.0757
8 16 28 -3.2375 -0.1570
8 16 29 -4.8806 0.1889
8 16 30 1.7056 0.1153
8 16 31 4.7091 -0.0546
8 16 32 -0.5135 0.0887
8 16 33 -2.4253 -0.2147
8 16 34 -1.3262 -0.3727
8 16 35 0.2221 0.3370
8 16 36 3.8241 0.5612
8 16 37 0.3603 0.0578
8 16 38 -4.5756 -0.5103
8 16 39 0.1115 -1.0407
8 16 40 1.7782 0.0578
8 16 41 -0.1193 2.0575
8 16 42 2.4662 0.6712
8 16 43 -0.4838 -2.3853
8 16 44 -4.2638 -1.0593
8 18 0 4.2596 0.0649
8 18 1 -0.9785 0.2350
8 18 2 -6.8310 -0.4284
8 18 3 7.2233 -0.2285
8 18 4 6.6802 0.4517
8 18 5 -10.5783 -0.0652
8 18 6 -2.9334 -0.0517
8 18 7 9.8533 0.4279
8 18 8 -1.5282 -0.3192
8 18 9 -7.4685 -0.4406
8 18 10 3.9356 0.2939
8 18 11 5.1941 -0.0495
8 18 12 -4.0746 -0.1289
8 18 13 -3.0131 0.6140
8 18 14 2.9075 0.1679
8 18 15 1.8449 -0.6423
8 18 16 -1.2269 -0.2236
8 18 17 -3.1201 0.0894
8 18 18 -0.3987 0.0226
8 18 19 5.5522 0.4336
8 18 20 1.6291 0.2093
8 18 21 -6.2902 -0.4119
8 18 22 -2.0755 -0.1361
8 18 23 5.2219 -0.0214
8 18 24 1.1561 -0.1588
8 18 25 -4.7184 0.4085
8 18 26 0.9776 0.4296
8 18 27 5.4867 -0.5118
8 18 28 -2.9975 -0.6075
8 18 29 -5.7647 0.3769
8 18 30 3.5548 0.6367
8 18 31 4.5302 -0.1360
8 18 32 -2.1863 -0.4122
8 18 33 -3.0560 -0.0769
8 18 34 -0.6907 -0.0417
8 18 35 2.7717 0.1180
8 18 37 -3.0243 0.1841
8 18 38 -4.2634 -1.5795
8 18 39 2.0406 -0.8987
8 18 40 2.3684 2.4358
8 18 41 0.2246 1.6700
8 20 0 -0.4925 0.2646
8 20 1 -7.9663 0.1772
8 20 2 3.7038 -0.2395
8 20 3 12.4479 0.1005
8 20 4 -6.5384 0.0963
8 20 5 -11.8360 -0.1891
8 20 6 7.1549 0.1649
8 20 7 5.9653 -0.0377
8 20 8 -6.3390 -0.3550
8 20 9 0.5911 0.1827
8 20 10 6.0360 0.2259
8 20 11 -4.1920 -0.0872
8 20 12 -5.8282 0.1047
8 20 13 4.6438 0.0493
8 20 14 4.1403 -0.2883
8 20 15 -3.3962 -0.1281
8 20 16 -1.9041 0.2244
8 20 17 1.7238 -0.0094
8 20 18 1.2090 -0.0638
8 20 19 -0.1988 0.3931
8 20 20 -1.7102 -0.0856
8 20 21 -1.1159 -0.6014
8 20 22 1.8572 0.1628
8 20 23 1.9507 0.3943
8 20 24 -1.8983 -0.1022
8 20 25 -1.7740 0.0547
8 20 26 2.7312 0.0176
8 20 27 0.7092 -0.4552
8 20 28 -3.5925 -0.1205
8 20 29 0.3106 0.4862
8 20 30 3.0689 0.2704
8 20 31 -0.4128 0.0998
8 20 32 -0.9991 -0.0244
8 20 33 -0.6847 -1.0453
8 20 34 -1.6583 -0.7080
8 20 35 2.3619 1.6498
8 20 36 3.6906 1.5333
8 20 37 -3.0175 -1.5727
8 20 38 -4.1981 -2.1447
8 22 0 4.9519 0.6479
8 22 1 -1.6297 0.2038
8 22 2 -2.0545 -0.3581
8 22 3 3.6161 -0.2313
8 22 4 -1.9408 -0.2889
8 22 5 -4.7289 -0.0114
8 22 6 2.8837 0.5295
8 22 7 4.6589 0.2223
8 22 8 -0.5319 -0.2803
8 22 9 -2.9720 -0.3051
8 22 10 -2.1146 -0.0075
8 22 11 0.1807 0.2199
8 22 12 3.0698 0.1217
8 22 13 1.2724 0.0432
8 22 14 -2.6935 -0.1904
8 22 15 -0.0808 -0.1483
8 22 16 2.0098 0.2478
8 22 17 -1.9096 -0.2179
8 22 18 -1.4652 -0.1773
8 22 19 2.9630 0.7027
8 22 20 0.9606 -0.0118
8 22 21 -3.6682 -0.7639
8 22 22 -0.3695 0.1463
8 22 23 4.3124 0.5255
8 22 24 -0.1619 -0.0915
8 22 25 -3.6040 -0.3582
8 22 26 0.6304 -0.0429
8 22 27 1.2840 0.1032
8 22 28 -1.4658 -0.1574
8 22 29 0.9076 0.3489
8 22 30 2.7439 1.0259
8 22 31 -1.4251 -0.3244
8 22 32 -3.6274 -2.1683
8 22 33 0.2314 -0.6948
8 22 34 3.2779 2.5794
8 22 35 1.5949 1.9555
8 24 0 3.3278 0.2317
8 24 1 -7.4455 -0.3000
8 24 2 -0.9341 -0.4607
8 24 3 5.9853 -0.1059
8 24 4 -2.4188 0.1032
8 24 5 -2.0392 0.4866
8 24 6 4.4062 0.3646
8 24 7 -0.7235 -0.4211
8 24 8 -3.9824 -0.5344
8 24 9 1.0663 -0.0598
8 24 10 1.1652 0.2743
8 24 11 -0.4497 0.5135
8 24 12 2.1213 0.3857
8 24 13 0.0402 -0.5126
8 24 14 -3.1862 -0.9277
8 24 15 0.1338 0.1097
8 24 16 2.0715 0.6527
8 24 17 -0.1746 0.2561
8 24 18 -1.2314 0.1642
8 24 19 0.0991 -0.3377
8 24 20 1.6205 -0.3857
8 24 21 -0.0539 0.2836
8 24 22 -2.2284 -0.3278
8 24 23 0.0156 -0.2610
8 24 24 2.6637 1.1013
8 24 25 0.4484 0.3371
8 24 26 -3.0916 -1.3453
8 24 27 -1.8217 -0.7901
8 24 28 2.8547 1.3356
8 24 29 3.8744 1.8730
8 24 31 -5.3160 -3.0392
8 26 0 1.8656 0.8836
8 26 1 -4.7204 -0.5245
8 26 2 0.8683 -0.5964
8 26 3 4.3028 0.7031
8 26 4 -0.6784 0.0309
8 26 5 -2.5310 -0.5450
8 26 6 -1.4168 0.3399
8 26 7 0.5236 0.2571
8 26 8 2.4423 -0.5369
8 26 9 0.5939 -0.1131
8 26 10 -2.1007 0.7497
8 26 11 -0.2957 0.3681
8 26 12 1.7199 -0.6285
8 26 13 -0.2104 -0.6015
8 26 14 -1.6241 -0.1653
8 26 15 -0.3238 -0.1736
8 26 16 1.7238 1.0655
8 26 17 0.8335 1.8876
8 26 18 -2.3765 -1.2224
8 26 19 0.4328 -2.8024
8 26 20 3.3836 0.7020
8 26 21 -3.1417 1.6037
8 26 22 -3.7714 -0.2191
8 26 23 5.5707 0.7460
8 26 24 3.1342 0.1056
8 26 25 -6.4432 -2.2931
8 28 0 0.7187 -0.3050
8 28 1 -0.2999 -1.2362
8 28 2 2.2514 -0.1067
8 28 3 -0.8799 0.8959
8 28 4 -3.3447 0.1775
8 28 5 -0.8267 -0.0793
8 28 6 2.1715 -0.2910
8 28 7 2.3285 -0.3808
8 28 8 0.3073 0.6278
8 28 9 -1.9530 0.5424
8 28 10 -2.3716 -0.6467
8 28 11 1.4273 -0.4118
8 28 12 3.0706 0.2632
8 28 13 -1.8080 -0.3563
8 28 14 -3.1541 -0.6757
8 28 15 2.1171 1.3735
8 28 16 3.4907 2.6695
8 28 17 -1.9691 -1.5383
8 28 18 -3.5439 -4.7958
9 1 0 8.0908 0.6763
9 1 1 -0.6670 0.8894
9 1 2 -5.3089 0.6602
9 1 3 -1.7162 -1.1937
9 1 4 -0.7478 -1.0005
9 1 5 2.7946 0.7096
9 1 6 5.6177 0.2431
9 1 7 -2.0866 0.2070
9 1 8 -6.1544 0.7568
9 1 9 0.3150 -0.7214
9 1 10 3.9382 -1.1022
9 1 11 0.6947 0.3868
9 1 12 -2.5951 0.5962
9 1 13 -0.1848 0.2935
9 1 14 2.1649 0.1791
9 1 15 -0.5944 -0.5241
9 1 16 0.2796 -0.4778
9 1 17 0.5349 0.2118
9 1 18 -5.1510 0.1560
9 1 19 0.0828 0.0724
9 1 20 9.6822 0.2970
9 1 21 -1.0091 0.1138
9 1 22 -12.1469 -0.4559
9 1 23 2.3126 -0.6330
9 1 24 12.8984 0.3375
9 1 25 -2.8657 0.9433
9 1 26 -11.7168 -0.1005
9 1 27 1.0666 -0.6145
9 1 28 7.6324 -0.1687
9 1 29 2.3910 -0.1896
9 1 30 -1.6852 0.3201
9 1 31 -4.6124 0.8035
9 1 32 -2.6887 -0.2016
9 1 33 3.9932 -0.7548
9 1 34 3.1886 -0.0791
9 1 35 -1.9960 0.2184
9 1 36 -1.3515 0.2319
9 1 37 0.7834 0.2700
9 1 38 0.4210 -0.1299
9 1 39 -0.5365 -0.3448
9 1 40 -1.3240 -0.0797
9 1 41 0.2878 0.0590
9 1 42 2.4916 0.1723
9 1 43 -0.1560 0.1957
9 1 44 -2.8732 -0.0580
9 1 45 0.8190 -0.0430
9 1 46 2.7632 -0.2076
9 1 47 -1.5495 -0.5026
9 1 48 -2.2378 0.5582
9 1 49 1.0903 1.0630
9 1 50 1.2073 -0.9056
9 3 0 1.6546 0.0172
9 3 1 -1.6081 0.6734
9 3 2 -2.8820 -0.2623
9 3 3 2.6588 -0.5766
9 3 4 -0.6939 0.2767
9 3 5 -2.3406 -0.0936
9 3 6 5.6847 -0.0189
9 3 7 2.1489 0.6495
9 3 8 -8.3501 -0.2406
9 3 9 -2.3890 -0.5000
9 3 10 7.6602 0.1523
9 3 11 1.4222 -0.2831
9 3 12 -5.2206 0.2348
9 3 13 0.7724 1.0127
9 3 14 2.7464 -0.5018
9 3 15 -1.2277 -0.9709
9 3 16 -0.1279 0.4176
9 3 17 -1.5266 0.1970
9 3 18 -3.3249 -0.1557
9 3 19 5.0369 0.4309
9 3 20 6.5413 -0.0193
9 3 21 -6.9211 -0.2230
9 3 22 -7.6651 -0.0082
9 3 23 7.6711 -0.4781
9 3 24 7.1618 0.1803
9 3 25 -7.9640 0.8484
9 3 26 -7.2932 -0.2810
9 3 27 6.7368 -0.5987
9 3 28 8.1378 0.1371
9 3 29 -3.5889 0.0405
9 3 30 -7.1205 0.1237
9 3 31 0.5438 0.4459
9 3 32 3.5416 -0.2075
9 3 33 0.2322 -0.6162
9 3 34 -0.5283 0.0120
9 3 35 0.7947 0.3755
9 3 36 0.5718 0.3117
9 3 37 -1.4405 0.1158
9 3 38 -1.7401 -0.5284
9 3 39 0.9785 -0.5488
9 3 40 0.9071 0.4618
9 3 41 -0.6915 0.7577
9 3 42 1.3002 -0.1626
9 3 43 1.1549 -0.7688
9 3 44 -1.9370 -0.0579
9 3 45 -1.2515 0.6603
9 3 46 0.7556 -0.0607
9 3 47 0.5794 -0.5138
9 3 48 -0.2197 0.4495
9 3 49 -0.2775 0.3905
9 3 50 1.0762 -0.8292
9 5 0 11.4644 0.1253
9 5 1 -0.4215 0.0171
9 5 2 -8.5199 -0.0825
9 5 3 0.9224 0.1432
9 5 4 2.0258 -0.2316
9 5 5 1.3084 -0.1472
9 5 6 4.9008 0.4940
9 5 7 -3.9874 -0.0483
9 5 8 -8.6558 -0.3305
9 5 9 5.1335 0.2603
9 5 10 6.9279 -0.2247
9 5 11 -4.8686 -0.3142
9 5 12 -0.8779 0.7451
9 5 13 4.2107 0.2106
9 5 14 -4.8694 -0.6980
9 5 15 -3.0036 0.0098
9 5 16 7.0289 -0.0589
9 5 17 0.4632 -0.2637
9 5 18 -7.0751 0.8950
9 5 19 2.6878 0.2943
9 5 20 7.5581 -0.9452
9 5 21 -4.4867 0.0517
9 5 22 -7.9515 0.1915
9 5 23 4.3394 -0.4739
9 5 24 6.9480 0.5081
9 5 25 -3.6412 0.5395
9 5 26 -5.5036 -0.5463
9 5 27 3.1658 -0.2062
9 5 28 4.6414 0.1295
9 5 29 -1.6395 -0.2535
9 5 30 -3.2186 0.2762
9 5 31 -1.5993 0.5722
9 5 32 0.4821 -0.4385
9 5 33 4.1279 -0.5748
9 5 34 1.6327 0.3112
9 5 35 -3.1443 0.3035
9 5 36 -1.1600 -0.0010
9 5 37 -0.1999 -0.0735
9 5 38 -0.5664 -0.2485
9 5 39 2.1019 0.0632
9 5 40 0.5910 0.3010
9 5 41 -1.3940 -0.0278
9 5 42 1.2880 -0.2068
9 5 43 0.3503 -0.2680
9 5 44 -2.2641 -0.0010
9 5 45 -0.2917 0.6592
9 5 46 0.9532 0.2720
9 5 47 -0.0463 -0.8698
9 5 48 0.6123 -0.3609
9 5 49 1.2587 0.8218
9 7 0 5.9305 -0.1605
9 7 1 -8.2784 0.1517
9 7 2 -5.0586 0.1859
9 7 3 9.0068 0.1558
9 7 4 1.3999 -0.2351
9 7 5 -6.0858 -0.1485
9 7 6 2.6293 0.2236
9 7 7 1.2369 -0.0005
9 7 8 -3.9860 -0.1325
9 7 9 2.2761 0.0895
9 7 10 1.3512 0.0006
9 7 11 -1.9715 -0.0661
9 7 12 3.4253 0.1493
9 7 13 -1.0913 -0.0051
9 7 14 -6.6475 -0.1713
9 7 15 3.7926 -0.0512
9 7 16 6.5152 -0.1295
9 7 17 -5.2407 0.2859
9 7 18 -4.9706 0.5485
9 7 19 6.7388 -0.4161
9 7 20 4.8424 -0.5701
9 7 21 -8.2055 0.2227
9 7 22 -6.3626 0.1335
9 7 23 8.4104 0.0252
9 7 24 7.8395 0.2476
9 7 25 -7.9137 0.0070
9 7 26 -8.4538 -0.2357
9 7 27 7.8733 -0.1420
9 7 28 8.7616 -0.0411
9 7 29 -7.0522 0.0026
9 7 30 -9.0724 0.3527
9 7 31 3.8704 0.3773
9 7 32 8.6390 -0.4590
9 7 33 -0.2400 -0.6408
9 7 34 -6.6970 0.1551
9 7 35 -0.4506 0.5724
9 7 36 3.8042 0.3071
9 7 37 -1.5384 -0.2437
9 7 38 -1.3873 -0.3571
9 7 39 2.5950 -0.1067
9 7 40 -0.0897 -0.0378
9 7 41 -1.0549 0.3053
9 7 42 1.2973 0.3244
9 7 43 -0.7913 -0.5065
9 7 44 -2.1458 -0.2620
9 7 45 0.5880 1.0054
9 7 46 1.5919 0.0875
9 7 47 0.8440 -1.6092
9 7 48 0.0686 0.1200
9 9 0 7.2002 0.0624
9 9 1 -4.3694 -0.2620
9 9 2 -4.1753 0.3272
9 9 3 4.9929 0.2270
9 9 4 -2.1417 -0.4080
9 9 5 -1.6804 0.0085
9 9 6 7.6929 0.2072
9 9 7 -3.1827 -0.2750
9 9 8 -7.7807 0.0519
9 9 9 5.5974 0.4293
9 9 10 2.5744 -0.2779
9 9 11 -3.8140 -0.3552
9 9 12 3.1911 0.3615
9 9 13 0.3109 0.0443
9 9 14 -5.6797 -0.1763
9 9 15 1.4929 0.2152
9 9 16 5.0062 -0.1624
9 9 17 -1.7784 -0.1658
9 9 18 -3.5508 0.3841
9 9 19 3.0716 0.0194
9 9 20 3.3242 -0.3720
9 9 21 -5.4904 -0.0537
9 9 22 -4.4336 0.1571
9 9 23 6.8192 0.0938
9 9 24 4.8928 0.2006
9 9 25 -6.5921 0.0499
9 9 26 -2.9242 -0.5101
9 9 27 6.3743 -0.1542
9 9 28 -0.1595 0.4833
9 9 29 -6.4159 0.0690
9 9 30 1.2775 -0.0957
9 9 31 5.3252 0.0352
9 9 32 0.0351 -0.2730
9 9 33 -2.9417 -0.1557
9 9 34 -1.1139 0.2310
9 9 35 0.9782 0.4008
9 9 36 0.3924 0.1891
9 9 37 -0.5325 -0.4841
9 9 38 0.6120 -0.5615
9 9 39 0.5614 0.1367
9 9 40 -0.2305 0.5182
9 9 41 0.5178 0.3094
9 9 42 -0.9874 -0.1882
9 9 43 -2.4200 -0.5749
9 9 44 1.8051 0.1269
9 9 45 3.2452 0.9962
9 9 46 -2.0881 -0.6452
9 11 0 7.5060 -0.2308
9 11 1 -12.3063 -0.0438
9 11 2 -5.7907 0.4186
9 11 3 10.1746 -0.0613
9 11 4 1.8729 -0.3237
9 11 5 -2.3356 -0.0367
9 11 6 0.3619 0.1277
9 11 7 -4.8709 0.0477
9 11 8 1.5377 0.0236
9 11 9 5.7655 0.0048
9 11 10 -5.4404 -0.1636
9 11 11 -1.4776 0.0858
9 11 12 7.4728 0.1961
9 11 13 -2.2367 -0.2350
9 11 14 -6.7573 0.0115
9 11 15 2.2830 0.1907
9 11 16 5.1407 -0.3080
9 11 17 -1.1270 0.0170
9 11 18 -3.9559 0.4812
9 11 19 2.5043 -0.1220
9 11 20 3.7214 -0.5015
9 11 21 -6.3921 0.0356
9 11 22 -5.0397 0.2965
9 11 23 9.3432 0.0715
9 11 24 7.0940 0.1618
9 11 25 -8.8118 -0.0646
9 11 26 -7.3487 -0.4865
9 11 27 5.8251 -0.0140
9 11 28 4.9963 0.3148
9 11 29 -3.1694 0.0828
9 11 30 -2.5496 0.0446
9 11 31 1.8892 -0.0846
9 11 32 2.3015 -0.1284
9 11 33 -0.7766 -0.0617
9 11 34 -3.3443 0.0371
9 11 35 -0.9682 0.3457
9 11 36 3.4893 0.0137
9 11 37 2.4533 -0.5258
9 11 38 -2.3774 -0.1324
9 11 39 -2.9790 0.3464
9 11 40 1.4328 0.2365
9 11 41 3.1824 0.1266
9 11 42 -1.6873 -0.0680
9 11 43 -3.3434 -0.5643
9 11 45 2.5620 0.6964
9 11 46 -2.8505 -0.6754
9 13 0 -1.8183 -0.0496
9 13 1 -10.6713 0.0040
9 13 2 3.0402 -0.0683
9 13 3 9.8048 -0.0690
9 13 4 -2.2494 -0.0914
9 13 5 -5.4234 -0.0073
9 13 6 -0.4414 0.1668
9 13 7 2.3591 -0.0288
9 13 8 3.0448 0.0556
9 13 9 -2.7793 0.0726
9 13 10 -3.6226 -0.3117
9 13 11 3.5233 0.0798
9 13 12 2.5994 0.2659
9 13 13 -1.3640 -0.2658
9 13 14 -2.1111 0.0286
9 13 15 -1.7839 0.2336
9 13 16 2.8143 -0.2621
9 13 17 1.7030 -0.0147
9 13 18 -2.9632 0.3130
9 13 19 2.3374 -0.2236
9 13 20 1.3660 -0.2931
9 13 21 -7.3787 0.3011
9 13 22 0.6361 0.2192
9 13 23 10.4706 -0.0672
9 13 24 -1.3116 0.0032
9 13 25 -10.4431 -0.2824
9 13 26 1.0298 -0.2694
9 13 27 7.7601 0.2846
9 13 28 -1.2120 0.3331
9 13 29 -4.3019 0.0559
9 13 30 1.8344 -0.1686
9 13 31 2.1796 -0.2025
9 13 32 -1.4801 -0.0593
9 13 33 -1.9716 -0.0315
9 13 34 -0.2980 0.2539
9 13 35 2.6486 0.2928
9 13 36 2.0695 -0.3030
9 13 37 -2.8958 -0.4124
9 13 38 -2.6146 0.0386
9 13 39 1.9952 0.4717
9 13 40 2.6635 0.4237
9 13 41 -0.2413 -0.3230
9 13 42 -3.2860 -0.7072
9 13 43 -1.0668 -0.0725
9 13 44 3.7697 0.7385
9 13 45 0.9182 0.1986
9 15 0 0.0607 0.1328
9 15 1 -2.1714 -0.3145
9 15 2 2.1334 -0.2341
9 15 3 3.3928 -0.0030
9 15 4 -4.0186 0.0675
9 15 5 -3.1052 0.3075
9 15 6 4.5109 0.0995
9 15 7 2.5458 -0.2943
9 15 8 -3.7448 -0.0142
9 15 9 -2.1423 -0.0195
9 15 10 1.3050 -0.1811
9 15 11 0.4594 0.2874
9 15 12 3.5455 0.2257
9 15 13 2.5723 -0.2294
9 15 14 -8.8876 -0.0584
9 15 15 -3.9439 0.0161
9 15 16 10.3430 -0.1811
9 15 17 1.3867 -0.0200
9 15 18 -6.3686 0.2416
9 15 19 3.2287 0.2223
9 15 20 0.8247 -0.0005
9 15 21 -6.3084 -0.2811
9 15 22 1.7106 -0.2814
9 15 23 6.5552 0.1256
9 15 24 -0.8139 0.2645
9 15 25 -5.0441 0.0259
9 15 26 -1.0733 -0.0617
9 15 27 2.9192 -0.1191
9 15 28 2.2602 0.0152
9 15 29 -0.6969 0.2424
9 15 30 -2.4771 -0.0978
9 15 31 -0.8543 -0.3559
9 15 32 1.7016 0.0775
9 15 33 0.7645 0.3994
9 15 34 0.0606 -0.0595
9 15 35 0.7597 -0.3488
9 15 36 -2.0990 0.3390
9 15 37 -1.9951 0.0286
9 15 38 2.8308 -0.9293
9 15 39 1.5824 0.6128
9 15 40 -1.0907 1.5885
9 15 41 -0.0633 -1.0964
9 15 42 -2.0534 -2.0361
9 15 43 -1.2087 0.9550
9 17 0 4.4939 -0.0742
9 17 1 -9.4079 0.0655
9 17 2 0.6958 -0.2171
9 17 3 7.1196 -0.0523
9 17 4 -5.1722 0.4449
9 17 5 -3.1261 0.1295
9 17 6 6.3864 -0.4328
9 17 7 0.2493 -0.1077
9 17 8 -5.3636 0.2201
9 17 9 0.3735 -0.1504
9 17 10 3.1389 -0.0258
9 17 11 0.9228 0.4766
9 17 12 0.6847 0.0794
9 17 13 -3.4478 -0.4857
9 17 14 -4.5410 -0.2978
9 17 15 5.6840 0.0567
9 17 16 4.5743 0.2580
9 17 17 -5.7306 0.3781
9 17 18 0.0995 0.1732
9 17 19 3.7979 -0.2962
9 17 20 -5.3111 -0.4936
9 17 21 -2.2693 -0.2108
9 17 22 6.8955 0.2910
9 17 23 2.4330 0.5459
9 17 24 -5.0840 0.1225
9 17 25 -3.3065 -0.4008
9 17 26 2.5081 -0.2621
9 17 27 3.8051 0.0441
9 17 28 -0.4548 0.1365
9 17 29 -3.7607 0.1918
9 17 30 -1.0010 0.0240
9 17 31 2.9785 -0.2811
9 17 32 0.9151 -0.1749
9 17 33 -1.2740 0.2621
9 17 34 1.8601 0.3428
9 17 35 -0.7316 0.0571
9 17 36 -5.9987 -0.5431
9 17 37 1.9681 -0.9485
9 17 38 7.9422 0.8091
9 17 39 -1.8213 2.3070
9 19 0 -6.6549 -0.1031
9 19 1 -3.5365 -0.0401
9 19 2 8.7614 -0.0377
9 19 3 -4.3897 -0.1000
9 19 4 -8.5305 0.0191
9 19 5 8.9109 0.1996
9 19 6 5.9810 0.0737
9 19 7 -8.3470 -0.2231
9 19 8 -2.8493 -0.1701
9 19 9 5.7483 0.2327
9 19 10 0.2683 0.3216
9 19 11 -3.2473 -0.2558
9 19 12 1.3470 -0.3603
9 19 13 0.3166 0.2341
9 19 14 -1.5549 0.0326
9 19 15 2.4863 -0.1927
9 19 16 0.8790 0.4283
9 19 17 -2.8764 0.2279
9 19 18 -0.7688 -0.4818
9 19 19 0.7908 -0.2465
9 19 20 1.5684 0.0962
9 19 21 0.8546 0.0746
9 19 22 -2.2895 0.2111
9 19 23 -0.0804 0.1363
9 19 24 2.3731 -0.1513
9 19 25 -2.3184 -0.0649
9 19 26 -2.0078 -0.0821
9 19 27 4.8788 -0.2541
9 19 28 1.3614 0.2630
9 19 29 -6.7186 0.5226
9 19 30 -0.6248 -0.3216
9 19 31 6.5805 -0.6770
9 19 32 -0.1580 0.1915
9 19 33 -3.2202 0.8453
9 19 34 1.4655 0.1625
9 19 35 -2.3033 -0.9747
9 19 36 -3.1898 -0.6980
9 19 37 6.3943 0.8649
9 21 0 -4.4296 -0.4863
9 21 1 -6.3247 -0.0406
9 21 2 0.0810 -0.1857
9 21 3 0.3612 0.0033
9 21 4 4.2637 0.6206
9 21 5 3.8989 0.1807
9 21 6 -5.2767 -0.3926
9 21 7 -4.5455 -0.0794
9 21 8 3.2734 -0.1810
9 21 9 2.9719 -0.1464
9 21 10 -0.9989 0.4628
9 21 11 -0.8473 0.1323
9 21 12 -0.5904 -0.1421
9 21 13 -0.8863 -0.0234
9 21 14 2.3154 -0.4491
9 21 15 1.8288 0.0900
9 21 16 -3.5333 0.6844
9 21 17 -2.3159 -0.1817
9 21 18 2.7856 -0.3333
9 21 19 2.6585 0.1448
9 21 20 -1.0390 -0.2051
9 21 21 -2.5048 -0.1756
9 21 22 0.9081 0.4026
9 21 23 1.9596 0.3474
9 21 24 -3.1809 -0.1944
9 21 25 -2.0225 -0.4396
9 21 26 6.3726 -0.0743
9 21 27 3.0015 0.4362
9 21 28 -8.7367 0.1798
9 21 29 -3.8343 -0.4781
9 21 30 9.1333 -0.2248
9 21 31 3.2932 0.3298
9 21 32 -7.1723 0.3080
9 21 33 -0.9585 0.3119
9 21 34 3.8423 -0.3061
9 23 0 -16.9621 -1.0359
9 23 1 -1.0778 0.7040
9 23 2 12.8082 0.6421
9 23 3 0.1368 -0.0487
9 23 4 -4.6474 0.1964
9 23 5 -0.0819 -0.1109
9 23 6 -2.3637 -0.4999
9 23 7 0.3045 -0.1337
9 23 8 5.4758 0.0498
9 23 9 -0.0270 0.4073
9 23 10 -4.9832 0.3851
9 23 11 -0.5351 -0.3528
9 23 12 2.5059 -0.2818
9 23 13 1.3559 -0.1279
9 23 14 0.0631 -0.0857
9 23 15 -2.1635 0.5566
9 23 16 -1.3799 0.3077
9 23 17 1.6473 -0.3363
9 23 18 1.1308 -0.2491
9 23 19 0.4827 -0.2991
9 23 20 0.3234 -0.0820
9 23 21 -2.2443 0.5012
9 23 22 -2.0232 0.4371
9 23 23 2.0081 -0.0824
9 23 24 2.4931 -0.3850
9 23 25 -0.4877 -0.2692
9 23 26 -1.1704 -0.0640
9 23 27 -0.9128 0.1741
9 23 28 -0.6604 0.3879
9 23 30 1.4613 -0.4258
9 23 31 -2.1122 0.0564
9 25 0 -5.2125 -0.3262
9 25 1 4.8676 -0.0183
9 25 2 1.8228 0.3109
9 25 3 -5.0231 0.5576
9 25 4 1.9755 0.1163
9 25 5 1.9119 -0.9484
9 25 6 -2.7978 -0.1270
9 25 7 1.9158 0.7915
9 25 8 1.7547 -0.5415
9 25 9 -3.8430 -0.3131
9 25 10 -0.7083 1.2112
9 25 11 3.1383 -0.0872
9 25 12 0.3048 -1.3556
9 25 13 -0.8741 0.2700
9 25 14 -0.8194 0.8933
9 25 15 -1.1590 -0.3153
9 25 16 1.6025 0.2438
9 25 17 1.7018 0.4612
9 25 18 -1.0285 -1.6655
9 25 19 -0.6356 -0.9851
9 25 20 -1.3049 2.2066
9 25 21 -1.2030 1.7243
9 25 22 4.0090 -1.2631
9 25 23 2.5834 -1.9615
9 25 24 -5.8329 -0.1372
9 25 25 -2.8293 1.2563
9 27 0 -12.6666 -0.7585
9 27 1 3.3404 0.9289
9 27 2 5.4436 0.5783
9 27 3 -0.5891 0.5050
9 27 4 0.6527 0.3219
9 27 5 -0.6592 -1.9288
9 27 6 -2.4118 -1.1187
9 27 7 0.6093 1.8900
9 27 8 1.2774 1.1319
9 27 9 -0.9790 -0.6975
9 27 10 0.2897 -0.6624
9 27 11 1.3878 -0.4493
9 27 12 -1.0322 0.3440
9 27 13 -1.0860 0.7593
9 27 14 0.6699 -0.2657
9 27 15 0.7275 0.1505
9 27 16 0.3009 0.3136
9 27 17 -0.5417 -2.0589
9 27 18 -0.8364 -0.7416
9 29 0 4.7584 0.4026
9 29 1 7.2700 0.0930
9 29 2 -5.1270 0.5689
10 0 0 -10.0393 -6.8352
10 0 2 9.3087 6.2070
10 0 4 -6.1918 -3.1070
10 0 6 2.7429 0.0155
10 0 8 -0.9614 1.0618
10 0 10 0.3506 -0.2589
10 0 12 1.1248 -0.8169
10 0 14 -3.5276 1.0209
10 0 16 4.7943 -0.5557
10 0 18 -3.8841 0.2123
10 0 20 1.5016 -0.3327
10 0 22 1.6695 0.6371
10 0 24 -4.8783 -0.7191
10 0 26 6.3304 0.4768
10 0 28 -4.7785 -0.1457
10 0 30 1.5877 0.0302
10 0 32 0.6359 -0.1961
10 0 34 -1.2350 0.4056
10 0 36 1.8837 -0.3889
10 0 38 -3.6949 0.1795
10 0 40 5.4429 -0.0911
10 0 42 -5.5580 0.3192
10 0 44 4.4309 -0.6939
10 0 46 -3.2354 0.9553
10 0 48 2.0024 -1.1037
10 2 0 -7.8911 -0.8578
10 2 1 0.4021 3.2400
10 2 2 10.0729 0.5129
10 2 3 0.1158 -2.0516
10 2 4 -8.4077 0.2265
10 2 5 -0.3988 0.0766
10 2 6 4.3916 -0.7119
10 2 7 0.0030 1.1541
10 2 8 -0.6490 0.5140
10 2 9 1.0605 -1.0025
10 2 10 -2.2019 0.1881
10 2 11 -1.7644 0.1492
10 2 12 5.2881 -0.6900
10 2 13 1.4293 0.3903
10 2 14 -8.5214 0.5092
10 2 15 -0.7775 -0.3300
10 2 16 10.0258 0.0351
10 2 17 0.5494 0.0491
10 2 18 -8.8708 -0.3113
10 2 19 -0.5921 0.1283
10 2 20 6.3477 0.1787
10 2 21 0.9637 -0.1964
10 2 22 -3.8600 0.0872
10 2 23 -1.8996 0.1901
10 2 24 1.2917 -0.2948
10 2 25 2.3838 -0.0421
10 2 26 1.6653 0.3567
10 2 27 -1.0477 -0.2602
10 2 28 -3.9705 -0.1985
10 2 29 -1.3410 0.5854
10 2 30 4.2977 -0.0406
10 2 31 2.4724 -0.7494
10 2 32 -3.0256 0.0576
10 2 33 -1.7868 0.6102
10 2 34 1.8355 0.1923
10 2 35 1.2459 -0.1569
10 2 36 -1.3297 -0.3927
10 2 37 -2.3003 -0.3839
10 2 38 0.4329 0.2423
10 2 39 3.7111 0.6468
10 2 40 1.3820 0.1836
10 2 41 -3.5571 -0.4952
10 2 42 -2.7503 -0.4209
10 2 43 2.1975 0.2063
10 2 44 2.2679 0.0408
10 2 45 -1.3687 -0.1353
10 2 46 -0.5052 0.8140
10 2 47 1.1883 0.2891
10 2 48 -0.8572 -1.5157
10 2 49 -0.5111 -0.3994
10 4 0 -10.8696 -0.2104
10 4 1 -2.5907 0.0696
10 4 2 12.3545 0.4791
10 4 3 0.2819 0.0886
10 4 4 -10.5380 -0.9058
10 4 5 -0.1238 -0.4240
10 4 6 6.5134 0.9841
10 4 7 1.2437 0.5082
10 4 8 -2.5427 -0.5174
10 4 9 -2.4531 -0.1153
10 4 10 -0.0474 -0.1318
10 4 11 4.2505 -0.3979
10 4 12 1.4635 0.4538
10 4 13 -7.1824 0.4503
10 4 14 -2.6277 -0.3638
10 4 15 9.8337 -0.0570
10 4 16 3.6658 0.1905
10 4 17 -10.4844 -0.2370
10 4 18 -3.7686 -0.1653
10 4 19 9.3822 0.2659
10 4 20 2.7971 0.1816
10 4 21 -7.5938 -0.3511
10 4 22 -1.5250 -0.0854
10 4 23 5.0792 0.5079
10 4 24 -0.1005 -0.0525
10 4 25 -1.5938 -0.3675
10 4 26 2.7501 0.0684
10 4 27 -1.7034 -0.1087
10 4 28 -5.2149 0.0538
10 4 29 3.1006 0.5308
10 4 30 4.8101 -0.1818
10 4 31 -2.3398 -0.6350
10 4 32 -1.3612 0.1792
10 4 33 0.7827 0.4635
10 4 34 -1.7123 0.0032
10 4 35 0.3674 -0.1653
10 4 36 1.7726 -0.2692
10 4 37 -1.2059 -0.1193
10 4 38 -0.4136 0.3801
10 4 39 2.1187 0.3680
10 4 40 0.7440 -0.1640
10 4 41 -2.5584 -0.6687
10 4 42 -2.7448 -0.2311
10 4 43 1.8732 0.9359
10 4 44 3.7374 0.4417
10 4 45 -0.6221 -0.9028
10 4 46 -2.7567 -0.2745
10 4 47 -0.1824 0.5641
10 4 48 1.5909 -0.1386
10 6 0 -10.4276 0.3996
10 6 1 3.3565 -0.3829
10 6 2 11.2788 -0.2971
10 6 3 -5.4589 0.0890
10 6 4 -9.5190 -0.0700
10 6 5 5.3449 -0.0050
10 6 6 6.3265 0.3196
10 6 7 -3.8602 0.2392
10 6 8 -3.0348 -0.1332
10 6 9 2.4460 -0.4680
10 6 10 0.8776 -0.3323
10 6 11 -1.7171 0.3646
10 6 12 -0.2414 0.4754
10 6 13 1.4146 0.0019
10 6 14 -0.0413 -0.0609
10 6 15 -1.1985 -0.2700
10 6 16 1.0735 -0.3436
10 6 17 1.0107 0.2119
10 6 18 -1.9579 0.2582
10 6 19 -0.6349 0.0541
10 6 20 1.2811 -0.0479
10 6 21 -0.1548 -0.2455
10 6 22 0.4565 0.1686
10 6 23 0.5742 0.2134
10 6 24 -1.8426 -0.3550
10 6 25 0.6724 -0.0396
10 6 26 2.6942 0.2039
10 6 27 -2.9620 -0.1238
10 6 28 -3.4024 0.0993
10 6 29 3.4284 0.2353
10 6 30 3.5611 -0.1420
10 6 31 -0.5570 -0.3097
10 6 32 -2.8374 -0.1578
10 6 33 -3.2848 0.2687
10 6 34 1.9809 0.5577
10 6 35 4.6841 -0.0200
10 6 36 -1.6379 -0.6691
10 6 37 -3.4721 -0.3615
10 6 38 1.0277 0.2725
10 6 39 2.2550 0.7130
10 6 40 0.9772 0.2793
10 6 41 -2.4285 -1.0057
10 6 42 -3.7228 -0.3850
10 6 43 2.8791 1.3289
10 6 44 4.9398 0.0421
10 6 45 -2.5139 -1.6826
10 6 46 -3.5245 0.2259
10 6 47 1.7829 1.8802
10 8 0 -8.2991 -0.2587
10 8 1 2.5472 -0.5675
10 8 2 7.6161 0.0989
10 8 3 -5.5555 0.0188
10 8 4 -5.0720 -0.0267
10 8 5 6.5238 0.5146
10 8 6 1.4226 0.1656
10 8 7 -5.1414 -0.5655
10 8 8 1.1551 -0.2655
10 8 9 2.0585 0.1082
10 8 10 -1.1987 0.0843
10 8 11 1.4503 0.3384
10 8 12 0.0458 0.2552
10 8 13 -4.6713 -0.2227
10 8 14 -0.5945 -0.4307
10 8 15 7.5849 -0.2257
10 8 16 3.6502 0.3243
10 8 17 -9.4391 0.2692
10 8 18 -6.5355 -0.0825
10 8 19 8.9625 0.1656
10 8 20 6.2585 -0.1159
10 8 21 -6.3982 -0.4270
10 8 22 -3.2727 0.1797
10 8 23 3.2124 0.2600
10 8 24 0.7535 -0.1270
10 8 25 0.1400 -0.0497
10 8 26 -0.5552 0.0833
10 8 27 -3.7216 -0.0066
10 8 28 1.4535 -0.0992
10 8 29 6.0015 0.1107
10 8 30 -1.5221 0.0335
10 8 31 -5.1915 -0.3487
10 8 32 0.7077 0.1456
10 8 33 2.2787 0.5448
10 8 34 -0.2698 -0.1820
10 8 35 0.0138 -0.4399
10 8 36 0.7785 -0.0091
10 8 37 -1.0623 -0.1420
10 8 38 -1.8029 0.0588
10 8 39 2.7561 0.9130
10 8 40 2.9269 0.2607
10 8 41 -5.9968 -1.1170
10 8 42 -3.8145 -0.5366
10 8 43 8.8248 0.5061
10 8 44 3.6957 0.2351
10 8 45 -8.7982 0.1234
10 10 0 -6.2823 0.0061
10 10 1 1.5287 -0.5932
10 10 2 5.1734 -0.1595
10 10 3 -2.9189 0.5222
10 10 4 -0.9451 0.2674
10 10 5 2.0611 -0.1487
10 10 6 -4.0643 -0.2085
10 10 7 0.4736 -0.1928
10 10 8 5.9658 0.0536
10 10 9 -1.6113 0.2275
10 10 10 -3.5549 0.0987
10 10 11 0.0198 -0.0558
10 10 12 -0.1165 -0.0324
10 10 13 1.5569 0.0048
10 10 14 1.3268 -0.3111
10 10 15 0.1970 -0.1446
10 10 16 0.4683 0.5084
10 10 17 -4.1813 0.2007
10 10 18 -2.8505 -0.2130
10 10 19 5.9920 -0.0147
10 10 20 3.1023 -0.2248
10 10 21 -3.8842 -0.2532
10 10 22 -0.5563 0.2968
10 10 23 0.6412 0.4050
10 10 24 -2.5811 -0.0725
10 10 25 0.8588 -0.3297
10 10 26 3.2736 -0.1159
10 10 27 -0.8151 -0.0169
10 10 28 -1.2931 0.2038
10 10 29 0.3749 0.4229
10 10 30 -0.5390 -0.2338
10 10 31 0.7440 -0.5305
10 10 32 0.4177 0.1591
10 10 33 -2.9339 0.3805
10 10 34 0.2034 0.0191
10 10 35 5.0346 -0.3128
10 10 36 0.5382 -0.2468
10 10 37 -5.7608 0.2271
10 10 38 -1.9076 0.4016
10 10 39 5.6258 0.2731
10 10 40 1.8149 -0.1170
10 10 41 -5.7966 -0.9612
10 10 42 0.2960 -0.8314
10 10 43 5.8185 1.1235
10 10 44 -2.9357 1.8170
10 12 0 -7.4205 -0.1377
10 12 1 2.8664 -0.2160
10 12 2 7.0655 0.1975
10 12 3 -2.6361 0.0156
10 12 4 -4.6482 -0.0472
10 12 5 -0.3647 0.4590
10 12 6 2.9024 -0.1120
10 12 7 3.0725 -0.6060
10 12 8 -2.8687 0.1335
10 12 9 -2.3404 0.3106
10 12 10 2.6401 -0.0189
10 12 11 -0.4069 0.0575
10 12 12 -0.3939 -0.0466
10 12 13 0.2609 -0.2651
10 12 14 -2.4992 -0.0805
10 12 15 4.7767 0.2753
10 12 16 3.5031 0.1907
10 12 17 -10.7661 -0.0707
10 12 18 -2.8208 0.0057
10 12 19 12.2224 -0.1857
10 12 20 2.4144 -0.3823
10 12 21 -7.8757 0.2089
10 12 22 -2.3523 0.5865
10 12 23 1.2746 -0.0027
10 12 24 1.3807 -0.4949
10 12 25 3.1120 -0.1679
10 12 26 -0.0504 0.1719
10 12 27 -3.7355 0.1837
10 12 28 -0.0522 0.2170
10 12 29 2.4216 -0.0937
10 12 30 -0.5546 -0.3242
10 12 31 -1.4689 -0.0786
10 12 32 -0.0936 0.0219
10 12 33 0.9969 0.2455
10 12 34 1.9903 0.2381
10 12 35 0.2477 -0.2176
10 12 36 -3.0302 -0.1226
10 12 37 -2.4230 -0.0634
10 12 38 2.3261 0.0461
10 12 39 4.2333 0.5015
10 12 40 -1.3992 -0.3580
10 12 41 -4.4729 -1.0200
10 12 42 1.5656 0.5833
10 12 43 2.9733 1.4583
10 14 0 -4.6765 -0.2155
10 14 1 7.3191 -0.1023
10 14 2 4.5277 0.3296
10 14 3 -7.4333 0.1315
10 14 4 -3.3187 0.0315
10 14 5 6.7042 0.0380
10 14 6 1.7136 -0.2943
10 14 7 -6.7344 -0.2152
10 14 8 0.3393 0.0958
10 14 9 7.3470 0.2168
10 14 10 -3.0316 0.2470
10 14 11 -5.4542 -0.0950
10 14 12 4.7768 -0.3063
10 14 13 -0.5309 -0.0716
10 14 14 -3.2730 0.0451
10 14 15 6.9682 0.1850
10 14 16 -0.8604 0.2734
10 14 17 -8.9282 -0.0754
10 14 18 3.9248 -0.3417
10 14 19 6.2367 -0.1660
10 14 20 -3.5729 0.0620
10 14 21 -2.4079 0.1592
10 14 22 1.4318 0.2904
10 14 23 -0.5126 0.1859
10 14 24 -0.5463 -0.3398
10 14 25 2.6677 -0.5276
10 14 26 1.7479 0.0742
10 14 27 -3.7471 0.5751
10 14 28 -3.2434 0.1995
10 14 29 3.0732 -0.2335
10 14 30 2.9842 -0.2944
10 14 31 -1.4487 -0.4645
10 14 32 -0.8817 0.2667
10 14 33 0.3746 1.1034
10 14 34 -1.3741 -0.1798
10 14 35 0.0572 -1.1117
10 14 36 2.3661 -0.0030
10 14 37 -0.7569 0.6505
10 14 38 -2.0905 0.2809
10 14 39 1.6700 -0.5066
10 14 40 1.2331 -0.4856
10 14 41 -1.7590 0.8382
10 14 42 -0.4781 0.3769
10 16 0 -1.2004 0.2168
10 16 1 6.7105 0.1601
10 16 2 1.2208 -0.0445
10 16 3 -7.5541 0.0226
10 16 4 0.9333 0.0412
10 16 5 6.5971 -0.0677
10 16 6 -3.5112 -0.2092
10 16 7 -5.4323 -0.1630
10 16 8 5.7341 0.2665
10 16 9 4.3550 0.3669
10 16 10 -6.3676 -0.1129
10 16 11 -1.9169 -0.2652
10 16 12 3.3572 -0.0990
10 16 13 -1.6823 -0.0889
10 16 14 2.5305 0.1828
10 16 15 3.7417 0.4180
10 16 16 -6.5159 -0.0064
10 16 17 -2.8473 -0.4025
10 16 18 5.3576 -0.3277
10 16 19 0.8526 -0.0125
10 16 20 -1.4548 0.4145
10 16 21 0.0848 0.3912
10 16 22 -1.2569 -0.0743
10 16 23 -0.3218 -0.2414
10 16 24 2.3666 -0.2836
10 16 25 1.4700 -0.3108
10 16 26 -3.2673 0.2433
10 16 27 -3.5526 0.6560
10 16 28 3.6038 0.0726
10 16 29 4.5601 -0.4582
10 16 30 -2.4541 -0.3679
10 16 31 -2.9203 -0.0444
10 16 32 0.8100 0.5400
10 16 33 -0.2962 0.4170
10 16 34 -0.3179 -0.4965
10 16 35 2.5298 -0.5096
10 16 36 0.8580 0.2203
10 16 37 -2.6709 0.5860
10 16 38 -1.0995 -0.0476
10 16 39 1.6316 -0.9164
10 18 0 -2.0529 -0.0728
10 18 1 7.7529 -0.1497
10 18 2 -1.3922 0.4655
10 18 3 -6.6635 0.0398
10 18 4 3.9123 -0.6110
10 18 5 4.5905 0.1963
10 18 6 -4.5181 0.3117
10 18 7 -3.0776 -0.3187
10 18 8 4.6659 0.0570
10 18 9 1.4735 0.2364
10 18 10 -4.5824 -0.1551
10 18 11 0.4788 -0.0277
10 18 12 2.7413 0.0406
10 18 13 -1.0549 -0.1666
10 18 14 0.4144 0.1089
10 18 15 -0.3857 0.2562
10 18 16 -2.0554 -0.1368
10 18 17 1.6768 -0.2040
10 18 18 1.1444 -0.0468
10 18 19 -1.1941 -0.0108
10 18 20 0.0937 0.2029
10 18 21 -0.0833 0.2538
10 18 22 0.2990 0.0433
10 18 23 1.1344 -0.1917
10 18 24 -1.4481 -0.5285
10 18 25 -2.2075 -0.2554
10 18 26 1.6226 0.6372
10 18 27 2.8517 0.5759
10 18 28 -1.1185 -0.1835
10 18 29 -2.0007 -0.2276
10 18 30 1.5690 -0.3719
10 18 31 0.4302 -0.6065
10 18 32 -2.8959 0.5913
10 18 35 1.4491 -1.2676
10 18 36 -0.9452 0.3527
10 18 37 -2.3598 0.8898
10 20 0 1.4296 0.0943
10 20 1 5.9735 -0.2629
10 20 2 -2.4096 0.4029
10 20 3 -1.8582 0.2121
10 20 4 2.9812 -0.3386
10 20 5 -0.1239 -0.1441
10 20 6 -3.2531 -0.0435
10 20 7 -0.2714 -0.0384
10 20 8 3.2682 0.1989
10 20 9 0.2321 0.2925
10 20 10 -2.2044 -0.0051
10 20 11 0.9994 -0.3007
10 20 12 0.1341 -0.2962
10 20 13 -1.4276 0.0127
10 20 14 1.3285 0.4427
10 20 15 0.2907 0.1703
10 20 16 -1.5734 -0.2278
10 20 17 0.7643 0.0162
10 20 18 1.6970 -0.3548
10 20 19 -0.6022 -0.4226
10 20 20 -2.0809 0.8638
10 20 21 0.0348 0.7729
10 20 22 2.0303 -0.7301
10 20 23 -0.1228 -0.7696
10 20 24 -1.6381 0.0433
10 20 25 0.9534 0.2090
10 20 26 1.4782 0.3701
10 20 27 -2.3466 0.5767
10 20 28 -1.3148 0.1040
10 20 29 4.2094 -0.8571
10 20 30 1.0185 -1.1505
10 20 31 -5.6032 0.4266
10 20 32 -1.2223 1.9312
10 20 33 4.8562 0.1287
10 22 0 3.8151 0.1571
10 22 1 5.2329 0.4570
10 22 2 -2.5107 0.4360
10 22 3 -2.6312 -0.6749
10 22 4 0.3518 -0.7065
10 22 5 0.8274 0.3771
10 22 6 1.3334 0.3323
10 22 7 -0.3834 -0.2151
10 22 8 -2.8129 0.4220
10 22 9 -0.1827 0.2181
10 22 10 4.7467 -0.8491
10 22 11 1.1754 0.0684
10 22 12 -6.0607 0.5182
10 22 13 -1.6596 -0.5675
10 22 14 5.1654 0.1411
10 22 15 0.9633 0.8111
10 22 16 -2.7682 -0.3499
10 22 17 0.8209 -0.7284
10 22 18 1.2211 -0.0272
10 22 19 -2.3684 0.4728
10 22 20 -1.3467 0.3612
10 22 21 1.7996 0.0265
10 22 22 1.7142 -0.0137
10 22 23 0.7423 -0.6082
10 22 24 -0.8331 -0.9702
10 22 25 -2.7321 0.6049
10 22 26 -1.2953 1.7956
10 22 30 -4.7169 0.4512
10 24 0 2.3621 0.1483
10 24 1 0.7401 0.3228
10 24 2 -2.0698 -0.0760
10 24 3 2.5651 -0.2593
10 24 4 1.2005 -0.4771
10 24 5 -3.8864 -0.2499
10 24 6 -1.8108 0.4703
10 24 7 2.0211 0.5324
10 24 8 2.4581 0.1992
10 24 9 1.2380 -0.2865
10 24 10 -1.1505 -0.3224
10 24 11 -3.6208 -0.2047
10 24 12 -1.3957 -0.6154
10 24 13 3.7521 0.5407
10 24 14 3.1213 1.5584
10 24 15 -1.8520 -0.4963
10 24 16 -3.0788 -1.4676
10 24 17 -0.2431 0.1589
10 24 18 2.0716 0.4740
10 24 19 0.9944 -0.0413
10 24 20 -1.8127 0.7908
10 24 21 -0.8494 0.7245
10 24 22 2.8936 -1.7609
10 26 0 11.1226 1.7667
10 26 1 9.0107 0.0262
10 26 2 -5.7973 -1.2032
10 26 3 -6.0429 -0.3493
10 26 4 -1.9730 -0.7290
10 26 5 0.9383 0.0616
10 26 6 5.9486 1.8750
10 26 7 3.9206 1.1121
10 26 8 -5.8413 -0.9731
10 26 9 -5.5734 -1.9504
10 26 10 4.3114 -0.7836
10 26 11 3.7893 1.3376
10 26 12 -3.0594 1.5344
10 26 13 -0.9284 0.0888
10 26 14 2.8896 -0.8206
10 26 15 -0.9483 -0.9342
10 26 16 -3.8912 -0.5704
10 26 17 1.4693 0.7865
10 28 2 -11.1425 -0.4485
10 28 3 8.0095 0.4850
10 28 4 4.9854 -0.1353
10 28 5 -3.3075 1.7306
10 28 6 1.2436 1.6054
11 1 0 3.2477 0.3165
11 1 1 0.9996 0.1179
11 1 2 -2.3817 -1.6312
11 1 3 -3.4795 0.8295
11 1 4 0.0051 1.6935
11 1 5 4.5038 -0.4322
11 1 6 1.6424 -0.5511
11 1 7 -3.5832 -0.6667
11 1 8 -1.3593 -0.5533
11 1 9 1.6892 1.2882
11 1 10 0.3167 0.6108
11 1 11 -0.1701 -0.9492
11 1 12 -0.7664 0.1030
11 1 13 -0.3334 0.1667
11 1 14 3.3641 -0.6157
11 1 15 0.0220 0.1923
11 1 16 -6.5362 0.5323
11 1 17 0.5671 0.2304
11 1 18 8.3746 -0.2344
11 1 19 -0.8254 -0.9560
11 1 20 -8.1290 0.0900
11 1 21 0.2344 1.1891
11 1 22 6.0506 -0.0872
11 1 23 1.1165 -0.6586
11 1 24 -2.9895 0.1254
11 1 25 -2.4207 -0.1633
11 1 26 0.2180 -0.1526
11 1 27 3.0371 0.6126
11 1 28 1.2332 0.0940
11 1 29 -3.1222 -0.4423
11 1 30 -1.3773 0.0270
11 1 31 3.0369 -0.0723
11 1 32 1.1753 -0.0413
11 1 33 -2.6500 0.4909
11 1 34 -1.4780 -0.1003
11 1 35 1.7082 -0.6195
11 1 36 2.1042 0.2079
11 1 37 -0.5834 0.5361
11 1 38 -2.2033 -0.1523
11 1 39 0.1153 -0.3558
11 1 40 1.4243 0.1253
11 1 41 -0.5522 0.2546
11 1 42 -0.1920 -0.4313
11 1 43 1.0467 -0.5568
11 1 44 -0.9597 1.0175
11 1 45 -0.7637 1.2798
11 1 46 1.5511 -1.3822
11 1 47 0.1406 -1.7537
11 3 0 -0.9931 0.1085
11 3 1 -2.5005 -0.2830
11 3 2 -2.4751 0.1892
11 3 3 2.5654 0.4194
11 3 4 3.7459 -0.1627
11 3 5 -2.3159 0.3064
11 3 6 -2.5445 -0.1003
11 3 7 2.5496 -1.1799
11 3 8 0.7821 0.2785
11 3 9 -3.4090 1.1334
11 3 10 0.2828 -0.1845
11 3 11 3.8427 -0.1137
11 3 12 -1.2875 -0.1251
11 3 13 -2.6834 -0.7750
11 3 14 2.9916 0.3837
11 3 15 0.1180 0.6549
11 3 16 -4.7531 -0.2670
11 3 17 2.5732 0.1424
11 3 18 5.5918 -0.2126
11 3 19 -4.2698 -0.7380
11 3 20 -5.5434 0.5596
11 3 21 4.5124 0.7447
11 3 22 4.9598 -0.3612
11 3 23 -3.5259 -0.3299
11 3 24 -3.6170 -0.1467
11 3 25 2.2056 -0.1722
11 3 26 1.7144 0.3931
11 3 27 -1.4392 0.3991
11 3 28 -0.7094 -0.1826
11 3 29 1.2213 -0.1642
11 3 30 1.6512 -0.1734
11 3 31 -0.8424 -0.2877
11 3 32 -3.2790 0.3138
11 3 33 -0.1488 0.5380
11 3 34 3.2694 -0.2140
11 3 35 1.4875 -0.5110
11 3 36 -1.2613 0.0972
11 3 37 -2.5665 0.4883
11 3 38 -0.6159 -0.0379
11 3 39 3.0133 -0.6966
11 3 40 0.4918 -0.1243
11 3 41 -2.7600 1.0563
11 3 42 0.9916 0.3640
11 3 43 1.7701 -1.2821
11 3 44 -1.8247 -0.3528
11 3 45 -0.3401 1.1871
11 3 46 1.2795 0.0351
11 5 0 0.5509 -0.1977
11 5 1 -2.8768 0.1467
11 5 2 -0.5490 0.2381
11 5 3 4.4710 -0.0970
11 5 4 -0.8867 0.0739
11 5 5 -4.3130 0.1314
11 5 6 2.9181 -0.4639
11 5 7 3.1053 -0.2416
11 5 8 -4.2879 0.3583
11 5 9 -2.7827 0.1955
11 5 10 4.6225 0.3453
11 5 11 3.5493 0.0211
11 5 12 -4.3215 -0.9241
11 5 13 -4.0902 -0.0698
11 5 14 3.8576 0.6414
11 5 15 3.8115 -0.1755
11 5 16 -3.3999 0.2347
11 5 17 -3.0681 0.3694
11 5 18 2.9338 -0.7666
11 5 19 1.9241 -0.2788
11 5 20 -2.5659 0.5430
11 5 21 -0.5336 0.1105
11 5 22 2.3038 0.0393
11 5 23 0.0258 -0.0113
11 5 24 -1.6389 -0.4749
11 5 25 -1.1212 -0.1840
11 5 26 0.2163 0.5550
11 5 27 2.4036 0.4983
11 5 28 1.1436 -0.2866
11 5 29 -1.7470 -0.6327
11 5 30 -1.2485 -0.1113
11 5 31 -0.7764 0.4001
11 5 32 0.3156 0.2853
11 5 33 2.8641 0.0136
11 5 34 0.2808 -0.0874
11 5 35 -2.8011 -0.2787
11 5 36 -0.0495 -0.2920
11 5 37 1.1380 0.2810
11 5 38 -0.0401 0.5525
11 5 39 0.4997 -0.2858
11 5 40 -0.7189 -0.4954
11 5 41 -1.1879 0.6479
11 5 42 1.4751 0.1520
11 5 43 0.9413 -1.2620
11 5 44 -1.0155 0.1583
11 5 45 -0.1291 1.6034
11 7 0 -2.4194 -0.2552
11 7 1 3.2927 0.1506
11 7 2 1.9479 0.2888
11 7 3 -2.7064 -0.1651
11 7 4 -2.3618 -0.1434
11 7 5 3.0058 -0.0289
11 7 6 2.4542 -0.1310
11 7 7 -2.9126 0.0652
11 7 8 -2.2810 0.1898
11 7 9 2.0256 0.1939
11 7 10 2.3449 0.1696
11 7 11 -1.4051 -0.4173
11 7 12 -2.9704 -0.5552
11 7 13 1.8631 0.1678
11 7 14 4.6593 0.4408
11 7 15 -2.9032 0.3957
11 7 16 -7.3981 -0.0029
11 7 17 3.6784 -0.5809
11 7 18 9.4808 -0.1483
11 7 19 -4.1373 0.1276
11 7 20 -9.0075 -0.0828
11 7 21 4.5391 0.3982
11 7 22 6.6231 0.3076
11 7 23 -4.3428 -0.4154
11 7 24 -4.7269 -0.3717
11 7 25 2.7328 0.0301
11 7 26 4.1355 0.3631
11 7 27 -0.3021 0.2968
11 7 28 -3.5988 -0.2350
11 7 29 -1.1153 -0.3479
11 7 30 2.3000 -0.0350
11 7 31 0.7916 0.2134
11 7 32 -0.7470 0.2529
11 7 33 -0.0509 -0.0325
11 7 34 -0.5841 -0.2685
11 7 35 0.2547 -0.1767
11 7 36 1.5735 0.1057
11 7 37 -1.0259 0.4483
11 7 38 -1.5600 0.1312
11 7 39 1.2368 -0.6372
11 7 40 -0.0391 -0.1718
11 7 41 -0.7779 0.4644
11 7 42 2.0498 -0.2851
11 7 43 0.4247 0.0014
11 7 44 -2.2399 1.0505
11 9 0 4.1878 0.2670
11 9 1 -4.4313 0.0867
11 9 2 -3.3739 -0.1857
11 9 3 3.0545 -0.2762
11 9 4 2.0607 -0.0320
11 9 5 -1.9526 0.1261
11 9 6 0.1297 0.2070
11 9 7 1.7210 0.1142
11 9 8 -2.2207 -0.2066
11 9 9 -2.2019 -0.1097
11 9 10 2.0888 0.0728
11 9 11 2.8218 -0.1258
11 9 12 0.4870 -0.0289
11 9 13 -2.5146 0.1568
11 9 14 -2.6896 0.1361
11 9 15 0.2499 0.1562
11 9 16 2.0362 -0.0939
11 9 17 3.2050 -0.3225
11 9 18 0.3836 -0.2772
11 9 19 -5.4057 0.0611
11 9 20 -1.6458 0.5897
11 9 21 5.3539 0.1797
11 9 22 1.0076 -0.3628
11 9 23 -4.7104 0.0053
11 9 24 -0.3427 -0.2419
11 9 25 4.7908 -0.3979
11 9 26 0.9666 0.5795
11 9 27 -4.7037 0.6393
11 9 28 -1.9500 -0.3365
11 9 29 3.6777 -0.6120
11 9 30 1.9505 -0.1411
11 9 31 -2.6625 0.2956
11 9 32 -1.1452 0.3528
11 9 33 2.2374 0.1797
11 9 34 0.5390 -0.2507
11 9 35 -1.3689 -0.5336
11 9 36 -0.4642 0.1659
11 9 37 -0.2760 0.7426
11 9 38 0.6226 -0.1838
11 9 39 0.9765 -0.9723
11 9 40 -0.7478 -0.0695
11 9 41 0.3950 0.9973
11 9 42 0.4586 0.7846
11 9 43 -2.1343 -0.4533
11 11 0 -5.6907 -0.1915
11 11 1 3.0153 0.1681
11 11 2 2.7866 0.0306
11 11 3 -4.1926 -0.2206
11 11 4 -2.0063 0.0633
11 11 5 4.9801 0.0919
11 11 6 2.9589 -0.0611
11 11 7 -5.2344 -0.0194
11 11 8 -3.5713 -0.0110
11 11 9 3.6397 0.0108
11 11 10 2.6236 -0.0174
11 11 11 0.1427 -0.0106
11 11 12 -1.2905 0.1165
11 11 13 -3.1090 0.0315
11 11 14 1.1756 -0.0476
11 11 15 1.6451 0.0112
11 11 16 -2.2127 -0.0772
11 11 17 3.3097 -0.2074
11 11 18 3.4685 -0.0904
11 11 19 -6.8644 0.3739
11 11 20 -4.2540 0.3964
11 11 21 6.4262 -0.2383
11 11 22 3.7843 -0.3575
11 11 23 -4.3586 -0.1091
11 11 24 -1.8371 -0.0132
11 11 25 3.6234 0.2501
11 11 26 0.0281 0.2737
11 11 27 -3.7854 0.0352
11 11 28 -0.1356 -0.1919
11 11 29 2.8811 -0.4513
11 11 30 1.2802 -0.1747
11 11 31 -0.9323 0.5142
11 11 32 -1.2370 0.5916
11 11 33 -0.4054 -0.1639
11 11 34 0.1466 -0.6261
11 11 35 0.4103 -0.1730
11 11 36 -0.1795 0.1142
11 11 37 0.2852 0.2605
11 11 38 1.7078 0.4252
11 11 39 -1.0764 -0.4448
11 11 40 -2.5659 -0.4991
11 11 41 1.5773 1.0365
11 11 42 1.4427 0.3893
11 13 0 5.0300 0.2620
11 13 1 -1.7372 0.1538
11 13 2 -6.9065 -0.1957
11 13 3 0.3557 -0.1600
11 13 4 6.3262 -0.1160
11 13 5 2.3282 -0.1118
11 13 6 -3.8939 0.2609
11 13 7 -3.9017 0.2328
11 13 8 1.2276 -0.2197
11 13 9 2.1561 -0.0871
11 13 10 1.2350 0.1768
11 13 11 1.5662 -0.0451
11 13 12 -3.1930 -0.0952
11 13 13 -3.1299 0.0865
11 13 14 2.9976 -0.0379
11 13 15 0.7932 -0.1378
11 13 16 -0.0718 0.0530
11 13 17 2.7855 0.0863
11 13 18 -2.6422 0.0426
11 13 19 -4.5317 0.1088
11 13 20 2.0448 -0.0313
11 13 21 4.2469 -0.1461
11 13 22 0.3758 -0.0954
11 13 23 -3.3329 -0.0984
11 13 24 -0.5791 0.0979
11 13 25 2.9123 0.2870
11 13 26 -2.0078 0.1219
11 13 27 -3.5931 -0.1425
11 13 28 3.8420 -0.3416
11 13 29 4.9108 -0.2556
11 13 30 -2.4163 0.2526
11 13 31 -5.1937 0.6615
11 13 32 -0.9244 0.1199
11 13 33 3.7715 -0.6572
11 13 34 3.6494 -0.2988
11 13 35 -2.4681 -0.1793
11 13 36 -4.9669 -0.0350
11 13 37 3.1413 1.5655
11 13 38 5.1872 0.4182
11 13 39 -4.8074 -2.4873
11 13 40 -4.2697 -0.1672
11 13 41 5.0005 2.3382
11 15 0 -3.1374 0.2399
11 15 1 1.1576 0.2230
11 15 2 0.9446 -0.3626
11 15 3 -2.2307 -0.2623
11 15 4 0.5683 0.1635
11 15 5 3.8611 -0.0049
11 15 6 -1.3842 0.0267
11 15 7 -4.4076 0.3718
11 15 8 1.0028 0.0293
11 15 9 3.0292 -0.3005
11 15 10 1.1736 -0.1511
11 15 11 -1.6158 -0.0963
11 15 12 -3.6125 0.1977
11 15 13 1.8833 0.2696
11 15 14 3.8548 -0.2652
11 15 15 -2.5782 -0.1327
11 15 16 -2.3689 0.3080
11 15 17 2.1869 -0.0390
11 15 18 2.0331 -0.1823
11 15 19 -2.0632 0.1568
11 15 20 -3.6548 0.0477
11 15 21 3.6761 -0.2165
11 15 22 5.1053 -0.1344
11 15 23 -4.9200 0.1324
11 15 24 -4.6647 0.2843
11 15 25 2.7562 0.0219
11 15 26 2.5330 -0.2302
11 15 27 1.7523 -0.0040
11 15 28 0.2855 0.0379
11 15 30 -2.4541 0.0858
11 15 31 2.4507 0.5571
11 15 32 2.7497 -0.0251
11 15 33 2.0015 -0.3616
11 15 34 -1.5997 -0.3839
11 15 35 -6.3424 -0.6729
11 15 36 0.9273 1.2065
11 15 37 9.1824 2.0804
11 15 38 -1.5849 -2.0172
11 15 39 -9.8993 -2.6978
11 17 0 5.3651 -0.1056
11 17 1 0.0795 -0.0584
11 17 2 -7.0446 0.0079
11 17 3 -1.1856 -0.0155
11 17 4 7.3985 0.0015
11 17 5 2.8701 -0.0893
11 17 6 -7.0554 0.3236
11 17 7 -3.0104 0.2418
11 17 8 5.3608 -0.4879
11 17 9 1.8865 -0.0615
11 17 10 -2.5474 0.1401
11 17 11 -1.7356 -0.3924
11 17 12 0.8385 0.2650
11 17 13 2.8141 0.5821
11 17 14 -1.2179 -0.2804
11 17 15 -3.2209 -0.2952
11 17 16 1.6320 0.0763
11 17 17 2.4881 -0.0871
11 17 18 -0.6228 0.0276
11 17 19 -2.1444 0.1946
11 17 20 -0.1552 0.0795
11 17 21 3.0235 0.0015
11 17 22 -0.5546 -0.3638
11 17 23 -4.3878 -0.3929
11 17 24 0.6833 0.5597
11 17 25 5.0288 0.7395
11 17 26 1.6848 -0.3120
11 17 27 -3.9864 -0.6143
11 17 28 -4.4483 -0.2908
11 17 29 1.4467 -0.1722
11 17 30 4.1449 0.6959
11 17 31 0.7130 1.2048
11 17 32 -0.7937 -0.4552
11 17 33 -0.8304 -1.8324
11 17 34 -2.5933 -0.4753
11 17 35 -0.4412 1.7734
11 17 36 4.1312 1.7149
11 19 0 -0.2616 0.1623
11 19 1 -2.2794 0.3154
11 19 2 0.6714 -0.1568
11 19 3 1.3004 0.0835
11 19 4 0.3304 -0.0646
11 19 5 -1.0612 -0.4929
11 19 6 -1.8250 0.4362
11 19 7 2.2705 0.4721
11 19 8 1.4589 -0.4257
11 19 9 -3.1582 -0.2518
11 19 10 0.6147 -0.1120
11 19 11 2.5102 0.0239
11 19 12 -1.9929 0.5290
11 19 13 -1.5338 0.2892
11 19 14 1.9148 -0.2664
11 19 15 1.2891 -0.5429
11 19 16 -1.7196 -0.4507
11 19 17 -0.9006 0.4421
11 19 18 2.0210 1.0186
11 19 19 -0.2016 -0.0222
11 19 20 -2.0003 -1.0032
11 19 21 1.0999 -0.3564
11 19 22 0.9913 0.3313
11 19 23 -1.6524 0.3193
11 19 24 0.6129 0.4910
11 19 25 2.8948 0.2405
11 19 26 -1.6081 -0.5419
11 19 27 -4.2138 -0.8986
11 19 28 1.0921 -0.5819
11 19 29 3.3081 0.9298
11 19 30 0.2601 2.1884
11 19 31 -0.0138 -0.1181
11 19 32 -0.9439 -3.1662
11 19 33 -2.7304 -0.9553
11 21 0 -2.1270 0.2722
11 21 1 6.2715 -0.4780
11 21 2 2.0962 -0.3937
11 21 3 -7.2382 0.0469
11 21 4 -0.9464 -0.0793
11 21 5 5.4546 0.3772
11 21 6 -0.7070 0.3197
11 21 7 -2.7013 -0.4519
11 21 8 1.8085 -0.0059
11 21 9 2.6400 0.0862
11 21 10 -2.0454 -0.3606
11 21 11 -5.3809 0.2146
11 21 12 1.4495 0.4261
11 21 13 7.3730 -0.0558
11 21 14 0.0192 -0.2999
11 21 15 -6.0319 -0.2613
11 21 16 -1.4398 0.0874
11 21 17 2.1195 0.3257
11 21 18 1.4223 0.1531
11 21 19 1.7761 -0.1563
11 21 20 -0.2471 -0.1107
11 21 21 -3.6553 -0.1020
11 21 22 -0.5982 -0.5646
11 21 23 3.3899 0.2770
11 21 24 0.8133 1.6819
11 21 25 -2.1901 0.0662
11 23 0 10.1088 -0.2154
11 23 1 4.5166 -0.8840
11 23 2 -8.7365 -0.0940
11 23 3 -5.4982 0.1360
11 23 4 5.7075 0.3795
11 23 5 2.8380 0.6996
11 23 6 -2.1150 -0.3627
11 23 7 2.8915 -0.2988
11 23 8 0.9653 0.0969
11 23 9 -7.1187 -0.7751
11 23 10 -3.7215 0.0188
11 23 11 6.7918 1.0020
11 23 12 7.5867 0.1305
11 23 13 -2.9991 -0.1824
11 23 14 -8.1904 0.0477
11 23 15 -0.8898 -0.5504
11 23 16 4.3028 -0.9847
11 23 17 2.1221 0.4159
11 23 18 1.2281 2.0569
11 23 19 -0.8037 0.4554
11 23 20 -4.6713 -2.2914
11 23 21 -0.4574 -1.6901
11 25 0 -1.2242 -1.3336
11 25 1 -8.8222 -0.8766
11 25 2 -0.4229 0.3347
11 25 3 4.3108 0.2428
11 25 4 1.7006 1.9056
11 25 5 1.3346 0.8744
11 25 6 0.8166 -2.6967
11 25 7 -4.2734 -1.3775
11 25 8 -4.6746 1.1006
11 25 9 2.9281 0.6545
11 25 10 5.2943 0.6954
11 25 11 1.1325 0.6607
11 25 12 -2.1213 -0.6948
11 25 13 -4.4822 -1.1372
11 25 14 -1.7715 -0.3008
11 25 15 4.7261 0.0055
11 27 0 -10.8186 -0.9774
11 27 1 4.1558 0.7652
11 27 2 10.3025 0.6588
11 27 3 -2.1894 1.0765
12 0 0 -7.8381 8.2477
12 0 2 5.3795 -5.4016
12 0 4 -0.0984 1.1323
12 0 6 -2.2991 1.8056
12 0 8 -0.3977 -2.2579
12 0 10 5.5135 1.1838
12 0 12 -8.9477 -0.2306
12 0 14 8.7914 0.1697
12 0 16 -6.0694 -0.6709
12 0 18 3.2120 1.0614
12 0 20 -1.9496 -0.9609
12 0 22 2.1371 0.4720
12 0 24 -2.5414 -0.0617
12 0 26 2.5243 0.0893
12 0 28 -2.2302 -0.3684
12 0 30 1.5406 0.4461
12 0 32 -0.2878 -0.2521
12 0 34 -0.6695 0.0881
12 0 36 0.1695 -0.1139
12 0 38 1.4918 0.3429
12 0 40 -2.7619 -0.9666
12 0 42 2.5970 2.0459
12 0 44 -1.2892 -2.9687
12 2 0 -1.4466 1.3923
12 2 1 4.9621 -3.7913
12 2 2 5.2065 -0.7090
12 2 3 0.2159 1.2572
12 2 4 -7.0975 -0.3959
12 2 5 -4.1878 0.8902
12 2 6 7.2169 0.9576
12 2 7 3.7907 -1.3259
12 2 8 -6.7634 -0.6267
12 2 9 -0.1412 0.4972
12 2 10 6.4821 -0.0833
12 2 11 -3.4071 0.2061
12 2 12 -5.7529 0.5225
12 2 13 4.5118 -0.0804
12 2 14 3.7417 -0.4844
12 2 15 -3.0362 -0.3896
12 2 16 -0.8769 0.0833
12 2 17 0.5320 0.4825
12 2 18 -1.4420 0.4126
12 2 19 1.0222 -0.1429
12 2 20 2.1504 -0.5785
12 2 21 -0.8845 -0.1669
12 2 22 -1.1364 0.1943
12 2 23 0.0953 0.0936
12 2 24 -0.8056 0.3476
12 2 25 0.1748 0.2852
12 2 26 2.1811 -0.4244
12 2 27 -0.1412 -0.5537
12 2 28 -1.6547 -0.0453
12 2 29 0.3800 0.3798
12 2 30 -0.5613 0.5281
12 2 31 -0.4093 0.0550
12 2 32 2.4854 -0.5202
12 2 33 -0.3151 -0.2661
12 2 34 -2.2236 0.0609
12 2 35 0.9897 0.1841
12 2 36 0.0240 0.4016
12 2 37 -0.4900 -0.2520
12 2 38 2.0000 -0.5713
12 2 39 -0.8984 0.6685
12 2 40 -2.1418 0.5425
12 2 41 1.8017 -1.0443
12 2 42 0.6079 -0.4053
12 2 43 -1.3445 1.0342
12 2 44 1.1182 0.0500
12 4 0 1.4318 0.7155
12 4 1 -0.7147 -0.7329
12 4 2 4.0019 -0.9706
12 4 3 -1.6523 -0.2735
12 4 4 -7.8913 1.0714
12 4 5 2.8107 0.8731
12 4 6 7.6443 -0.6418
12 4 7 -2.7922 -0.5411
12 4 8 -4.6778 -0.1550
12 4 9 2.7343 -0.1788
12 4 10 2.0910 0.6963
12 4 11 -2.9647 0.4596
12 4 12 -1.3672 -0.5754
12 4 13 2.4343 -0.2430
12 4 14 2.2750 0.1086
12 4 15 -0.4808 0.0336
12 4 16 -4.0725 0.0698
12 4 17 -1.9342 -0.0385
12 4 18 5.5598 0.1694
12 4 19 3.1779 0.1248
12 4 20 -5.5792 -0.3536
12 4 21 -2.4150 -0.2478
12 4 22 4.5601 0.1149
12 4 23 0.1405 0.3457
12 4 24 -4.0725 0.3131
12 4 25 1.9938 -0.1920
12 4 26 4.2214 -0.4041
12 4 27 -2.0737 -0.2061
12 4 28 -3.4154 0.0005
12 4 29 -0.4415 0.4356
12 4 30 1.3404 0.4392
12 4 31 3.8338 -0.1948
12 4 32 0.0841 -0.3262
12 4 33 -5.4431 -0.3184
12 4 34 0.3673 -0.3028
12 4 35 4.0924 0.6889
12 4 36 -1.3791 0.7128
12 4 37 -1.0092 -0.7905
12 4 38 1.1953 -0.3339
12 4 39 -1.5432 0.9240
12 4 40 0.0113 -0.5382
12 4 41 2.1362 -1.3656
12 4 42 -0.8027 1.1605
12 4 43 -0.9005 1.8228
12 4 44 0.5118 -1.2007
12 6 0 2.6780 -0.1951
12 6 1 1.3300 -0.0714
12 6 2 -0.1487 0.0161
12 6 3 -4.0569 -0.0496
12 6 4 -0.5928 0.1941
12 6 5 3.5700 0.1939
12 6 6 0.7066 -0.0927
12 6 7 -0.5584 -0.2542
12 6 8 -0.9956 -0.2342
12 6 9 -1.8388 0.2113
12 6 10 1.1969 0.3298
12 6 11 2.2384 -0.0990
12 6 12 -1.1333 -0.0855
12 6 13 -1.4631 -0.0238
12 6 14 1.2002 -0.0777
12 6 15 0.0706 0.0740
12 6 16 -1.5174 -0.0325
12 6 17 1.8019 -0.0402
12 6 18 1.5693 0.0896
12 6 19 -3.1200 0.0640
12 6 20 -0.8308 0.0764
12 6 21 3.1249 -0.2444
12 6 22 -0.6967 -0.2145
12 6 23 -2.9171 0.3724
12 6 24 2.3922 0.1772
12 6 25 3.5745 -0.1258
12 6 26 -3.2529 -0.0736
12 6 27 -3.9217 -0.4065
12 6 28 2.6213 -0.0610
12 6 29 2.4910 0.6673
12 6 30 -0.8457 0.2262
12 6 31 -0.3447 -0.2460
12 6 32 -1.0223 -0.2521
12 6 33 -0.4674 -0.6041
12 6 34 2.1031 0.0170
12 6 35 0.0502 1.1895
12 6 36 -2.0482 0.3010
12 6 37 0.0386 -1.0783
12 6 38 0.9283 -0.3463
12 6 39 0.4252 0.5136
12 6 40 0.6177 -0.1323
12 6 41 -0.4423 -0.1074
12 6 42 -1.3794 0.9642
12 8 0 -6.3447 0.4200
12 8 1 -4.4640 0.1268
12 8 2 6.4102 -0.3599
12 8 3 1.6358 -0.0464
12 8 4 -5.7048 0.3117
12 8 5 -0.8390 -0.0568
12 8 6 5.6962 -0.2761
12 8 7 0.2630 0.0824
12 8 8 -5.7549 0.1359
12 8 9 0.8750 -0.0771
12 8 10 5.6199 0.1035
12 8 11 -1.7614 0.1096
12 8 12 -6.2217 -0.2788
12 8 13 1.8334 -0.0335
12 8 14 7.2641 0.3084
12 8 15 -1.5575 -0.1841
12 8 16 -6.9879 -0.2572
12 8 17 1.4287 0.1677
12 8 18 5.2259 0.2080
12 8 19 -1.3244 0.2657
12 8 20 -3.7584 -0.2066
12 8 21 0.8595 -0.6164
12 8 22 3.0307 0.2117
12 8 23 0.1581 0.3828
12 8 24 -1.6260 -0.0834
12 8 25 -1.5046 0.2218
12 8 26 -0.5419 -0.1672
12 8 27 2.5943 -0.6491
12 8 28 1.7192 0.2476
12 8 29 -2.9406 0.6402
12 8 30 -1.4326 -0.0041
12 8 31 2.5227 -0.2589
12 8 32 1.0582 -0.2362
12 8 33 -1.5872 -0.2507
12 8 34 -0.9596 0.0681
12 8 35 0.4069 0.5804
12 8 36 0.0876 0.4704
12 8 37 0.5717 -0.6086
12 8 38 1.2351 -1.0246
12 8 39 -0.8287 0.4235
12 8 40 -1.1709 1.3243
12 8 41 0.4089 -0.0892
12 8 42 -0.3881 -1.2949
12 10 0 -4.0077 0.1427
12 10 1 8.6120 0.4168
12 10 2 3.0336 0.0573
12 10 3 -6.1049 -0.6044
12 10 4 -2.4168 -0.2086
12 10 5 3.0495 0.4777
12 10 6 1.5824 0.1403
12 10 7 -0.9959 -0.1112
12 10 8 -0.3699 0.0446
12 10 9 0.2463 -0.0892
12 10 10 0.0134 -0.0691
12 10 11 -1.2792 0.0440
12 10 12 -0.9388 -0.0320
12 10 13 3.7844 0.0207
12 10 14 1.3994 -0.0388
12 10 15 -5.7038 -0.0122
12 10 16 0.1306 0.2301
12 10 17 5.7432 -0.0517
12 10 18 -2.7058 -0.2212
12 10 19 -5.2609 0.1880
12 10 20 4.3097 0.1076
12 10 21 5.3889 -0.3221
12 10 22 -4.2005 -0.2605
12 10 23 -4.6006 0.3184
12 10 24 2.9880 0.5736
12 10 25 1.7365 -0.1572
12 10 26 -1.5360 -0.5727
12 10 27 1.1381 -0.1211
12 10 28 0.4670 0.1638
12 10 29 -1.7679 0.4227
12 10 30 0.0296 0.2734
12 10 31 1.1851 -0.4678
12 10 32 -0.2639 -0.3756
12 10 33 -1.3565 0.0750
12 10 34 0.5012 0.0784
12 10 35 1.6964 0.4466
12 10 36 -0.4589 0.3617
12 10 37 -0.8017 -0.6869
12 10 38 -0.1941 -0.5591
12 10 39 -0.4212 0.7380
12 10 40 1.0708 0.4222
12 10 41 0.3536 -0.9001
12 12 0 1.7367 -0.5889
12 12 1 1.4684 0.0040
12 12 2 3.2056 0.1929
12 12 3 -0.3826 -0.2697
12 12 4 -6.7883 0.1579
12 12 5 -1.1333 0.2233
12 12 6 6.8144 -0.1260
12 12 7 1.9368 0.1921
12 12 8 -4.7391 0.0088
12 12 9 -0.7367 -0.4366
12 12 10 3.0076 -0.0259
12 12 11 -2.3808 0.1821
12 12 12 -2.2346 -0.0758
12 12 13 4.4431 0.1632
12 12 14 2.0549 0.3331
12 12 15 -2.5811 -0.1831
12 12 16 -2.2785 -0.3769
12 12 17 -1.7035 0.0445
12 12 18 1.9489 0.1206
12 12 19 4.1987 0.0396
12 12 20 0.0217 0.1139
12 12 21 -3.4817 -0.1807
12 12 22 -2.2585 -0.1309
12 12 23 1.8805 0.3040
12 12 24 2.0432 0.0137
12 12 25 -1.4624 -0.0343
12 12 26 0.2313 0.0775
12 12 27 1.8387 -0.6073
12 12 28 -1.2039 -0.0324
12 12 29 -1.7914 1.0274
12 12 30 -0.1532 -0.0539
12 12 31 0.9348 -0.7785
12 12 32 1.1340 -0.0222
12 12 33 0.3318 0.0249
12 12 34 -0.1367 0.1039
12 12 35 -1.2576 0.7353
12 12 36 -0.8755 0.2093
12 12 37 1.1454 -1.1324
12 12 38 0.1405 -0.7571
12 12 39 -0.0530 1.1530
12 14 0 1.7631 -0.0739
12 14 1 7.7726 0.2700
12 14 2 0.1832 -0.2913
12 14 3 -10.9273 -0.0383
12 14 4 -2.1655 0.5101
12 14 5 9.7412 0.0212
12 14 6 2.9501 -0.1977
12 14 7 -5.4826 -0.0450
12 14 8 -2.3066 -0.1953
12 14 9 2.2048 -0.2004
12 14 10 0.3069 0.0856
12 14 11 -2.1037 0.3535
12 14 12 1.5953 0.1775
12 14 13 3.7250 0.0033
12 14 14 -0.8111 0.0106
12 14 15 -5.0803 -0.4452
12 14 16 -2.5647 -0.3682
12 14 17 5.6277 0.3504
12 14 18 4.4676 0.3075
12 14 19 -4.8866 0.1390
12 14 20 -2.0124 -0.0071
12 14 21 2.5148 -0.4511
12 14 22 -2.3684 -0.0416
12 14 23 -0.1538 0.3323
12 14 24 4.3382 -0.0556
12 14 25 -0.0866 0.0631
12 14 26 -3.0138 -0.0632
12 14 27 -0.9884 -0.4046
12 14 28 0.7993 0.2800
12 14 29 0.9340 0.4696
12 14 30 0.2751 -0.2199
12 14 31 0.2270 -0.3717
12 14 32 -0.1333 -0.1137
12 14 33 -0.5416 0.2454
12 14 34 -0.3718 0.3331
12 14 35 0.0767 0.1570
12 14 36 0.6081 -0.1853
12 14 37 -0.7229 -0.9564
12 16 0 1.8733 -0.1756
12 16 1 -0.7537 -0.0087
12 16 2 -2.7093 0.1690
12 16 3 1.0049 0.3402
12 16 4 3.1058 -0.1144
12 16 5 -1.9341 -0.1969
12 16 6 -1.8134 -0.0628
12 16 7 2.3770 -0.2713
12 16 8 -0.3856 0.0783
12 16 9 -1.7241 0.1943
12 16 10 1.1098 0.0972
12 16 11 1.0017 0.3807
12 16 12 0.1384 -0.0610
12 16 13 -0.5452 -0.4385
12 16 14 -1.6222 -0.2367
12 16 15 -0.8131 -0.1634
12 16 16 2.4852 0.3534
12 16 17 2.8184 0.4353
12 16 18 -3.1599 -0.1320
12 16 19 -2.9987 0.0186
12 16 20 3.1918 -0.1133
12 16 21 0.3495 -0.4909
12 16 22 -2.0209 0.1275
12 16 23 2.7255 0.4376
12 16 24 1.0776 0.0929
12 16 25 -3.4490 -0.0765
12 16 26 -1.8349 -0.4101
12 16 27 1.7469 -0.2706
12 16 28 3.0056 0.5724
12 16 29 0.4956 0.5888
12 16 30 -2.6324 -0.4253
12 16 31 -1.8083 -0.9018
12 16 32 1.2941 0.0949
12 16 33 2.0529 1.0317
12 16 34 -0.5348 0.3119
12 16 35 -1.7022 -0.7302
12 18 0 2.7277 0.2294
12 18 1 4.2313 -0.3408
12 18 2 -1.7396 -0.0408
12 18 3 -3.5539 0.0968
12 18 4 0.2652 -0.3153
12 18 5 1.3237 0.1821
12 18 6 1.6475 0.1337
12 18 7 -0.5702 -0.2015
12 18 8 -2.6849 0.2111
12 18 9 1.9139 0.0489
12 18 10 2.5113 0.0142
12 18 11 -3.0689 0.1348
12 18 12 -2.3700 -0.3931
12 18 13 2.6055 -0.2833
12 18 14 2.5035 0.2086
12 18 15 -1.2283 0.2669
12 18 16 -1.5228 0.1696
12 18 17 -0.2772 -0.0300
12 18 18 -0.8190 -0.0561
12 18 19 1.5009 -0.2580
12 18 20 2.6649 -0.3651
12 18 21 -1.7948 0.3752
12 18 22 -2.7298 0.5323
12 18 23 1.4981 -0.2149
12 18 24 2.0351 -0.3161
12 18 25 -2.0608 -0.1733
12 18 26 -2.1593 -0.1438
12 18 27 3.3585 0.5190
12 18 28 3.0369 0.7059
12 18 29 -3.3644 -0.4832
12 18 30 -3.3709 -1.1608
12 18 31 1.6008 0.0504
12 18 32 2.6299 1.3359
12 20 0 3.1326 -0.2908
12 20 1 -0.5068 -0.6596
12 20 2 -3.6475 0.0543
12 20 3 2.2004 0.1450
12 20 4 1.3371 0.3360
12 20 5 -3.2615 0.5363
12 20 6 2.5797 -0.3529
12 20 7 2.8526 -0.3967
12 20 8 -4.3106 0.0228
12 20 9 -2.0232 -0.1037
12 20 10 2.4427 0.1766
12 20 11 1.5002 0.2549
12 20 12 0.6302 -0.0524
12 20 13 -0.8023 -0.2174
12 20 14 -2.2571 -0.0861
12 20 15 -0.1125 0.2124
12 20 16 1.7596 -0.0251
12 20 17 0.3479 -0.0493
12 20 18 0.1224 0.2285
12 20 19 0.2563 -0.2177
12 20 20 -1.8727 -0.3021
12 20 21 -0.6632 0.2389
12 20 22 2.3261 0.3660
12 20 23 0.3900 0.0682
12 20 24 -2.0044 -0.6036
12 20 25 -0.2890 -0.5532
12 20 26 1.9281 0.7991
12 20 27 0.9573 1.0640
12 22 0 3.7198 -0.4947
12 22 1 -0.0993 0.0813
12 22 2 -3.3204 0.6118
12 22 3 1.1082 0.2479
12 22 4 1.2026 0.2245
12 22 5 1.0814 -0.1841
12 22 6 2.1393 -0.5495
12 22 7 -5.3869 -0.4442
12 22 8 -5.4285 -0.1316
12 22 9 7.0249 0.7741
12 22 10 7.2488 0.6757
12 22 11 -3.9793 -0.0257
12 22 12 -6.6453 -0.2674
12 22 13 -0.8558 -1.1940
12 22 14 3.7647 -0.6932
12 22 15 3.5244 1.5170
12 22 16 -0.2786 1.4954
12 22 17 -2.5787 -0.6536
12 22 18 -1.8167 -1.7232
12 22 19 -0.3869 -0.3497
12 22 20 2.2204 1.2491
12 22 21 2.5219 0.6947
12 24 1 -0.3242 1.0296
12 24 2 -1.6086 -0.1586
12 24 3 1.9529 -0.3456
12 24 4 -0.1390 -0.1973
12 24 5 -1.2122 -0.6732
12 24 6 -0.7871 -0.1595
12 24 7 -2.9077 0.1935
12 24 8 2.5843 0.9427
12 24 9 7.2962 1.1893
12 24 10 -1.9171 -0.8180
12 24 11 -8.4051 -1.3545
12 24 12 -1.1304 -0.5559
12 24 13 5.6629 -0.3172
12 24 14 3.5258 1.6236
12 24 15 -1.3484 2.3811
13 1 0 2.4512 -0.5217
13 1 1 -7.2324 1.0846
13 1 2 -4.6097 1.1303
13 1 3 5.2390 -1.1346
13 1 4 4.3308 -0.4243
13 1 5 -1.6606 0.5498
13 1 6 -4.3293 -0.7558
13 1 7 0.2586 0.1181
13 1 8 6.2710 1.1960
13 1 9 -1.5917 -0.2532
13 1 10 -9.1014 -0.6606
13 1 11 3.6712 -0.1126
13 1 12 10.7025 -0.0721
13 1 13 -4.7731 0.4914
13 1 14 -9.8077 0.2988
13 1 15 4.5260 -0.6267
13 1 16 6.6900 -0.0265
13 1 17 -3.5657 0.5950
13 1 18 -2.9860 -0.3227
13 1 19 2.8243 -0.4774
13 1 20 0.4432 0.3627
13 1 21 -2.3822 0.3346
13 1 22 0.6165 -0.0189
13 1 23 1.2896 -0.2800
13 1 24 -0.9760 -0.3498
13 1 25 0.6034 0.3031
13 1 26 0.8957 0.3043
13 1 27 -1.6988 -0.2890
13 1 28 -0.1583 0.0664
13 1 29 0.8745 0.2711
13 1 30 -0.6025 -0.2377
13 1 31 0.6289 -0.2821
13 1 32 0.4647 0.0337
13 1 33 -1.1193 0.1309
13 1 34 0.0723 0.1194
13 1 35 0.9235 0.1618
13 1 36 0.2335 0.1042
13 1 37 -1.3391 -0.0967
13 1 38 -1.2523 -0.3897
13 1 39 2.3336 -0.5091
13 1 40 1.7254 0.2612
13 1 41 -2.8012 1.0138
13 1 42 -1.2364 0.1643
13 3 0 -10.9744 0.0551
13 3 1 2.4217 0.4133
13 3 2 8.1284 -0.3459
13 3 3 -3.2862 -0.1093
13 3 4 -1.9386 0.4304
13 3 5 3.7397 -0.4743
13 3 6 -2.8209 -0.1541
13 3 7 -2.2305 0.5040
13 3 8 4.0565 -0.1283
13 3 9 -0.7374 0.2481
13 3 10 -3.2813 0.0549
13 3 11 3.2627 -1.0048
13 3 12 2.2654 0.2196
13 3 13 -3.5740 1.0049
13 3 14 -1.3313 -0.3182
13 3 15 1.0478 -0.4431
13 3 16 0.2835 0.2040
13 3 17 3.0126 0.0155
13 3 18 0.9549 -0.0924
13 3 19 -5.8930 -0.0209
13 3 20 -2.0790 0.0380
13 3 21 5.9626 0.2431
13 3 22 1.9037 0.0331
13 3 23 -4.2097 -0.3169
13 3 24 0.4429 -0.0679
13 3 25 2.4665 0.0258
13 3 26 -3.2752 -0.0532
13 3 27 -1.2783 0.4477
13 3 28 3.4738 0.3099
13 3 29 0.5773 -0.5894
13 3 30 -0.6334 -0.4991
13 3 31 -0.8060 0.1425
13 3 32 -2.1906 0.3750
13 3 33 1.8338 0.5297
13 3 34 2.6710 0.0177
13 3 35 -2.2361 -0.9436
13 3 36 -1.8299 -0.1830
13 3 37 1.1494 1.1457
13 3 38 1.6152 -0.2315
13 3 39 0.3566 -1.5409
13 3 40 -2.0617 0.7589
13 3 41 -0.8198 2.1741
13 5 0 2.6567 -0.2189
13 5 1 7.0217 -0.0360
13 5 2 -5.8412 0.1397
13 5 3 -2.9783 0.2359
13 5 4 8.6598 -0.3763
13 5 5 -1.0625 -0.1654
13 5 6 -9.0771 0.6366
13 5 7 2.3973 -0.1938
13 5 8 7.3825 -0.4133
13 5 9 -2.1665 0.4673
13 5 10 -5.1497 -0.1610
13 5 11 2.1648 -0.3404
13 5 12 3.5441 0.3724
13 5 13 -2.1121 -0.0164
13 5 14 -3.3774 0.0440
13 5 15 1.2431 0.2189
13 5 16 4.8850 -0.5559
13 5 17 0.0094 -0.1723
13 5 18 -6.6265 0.6196
13 5 19 -0.8448 0.0108
13 5 20 6.5465 -0.2919
13 5 21 0.6363 0.1940
13 5 22 -4.7680 -0.0134
13 5 23 1.3056 -0.3455
13 5 24 3.3982 0.0300
13 5 25 -4.4299 0.2518
13 5 26 -3.3037 0.1380
13 5 27 6.0565 0.0471
13 5 28 3.3265 -0.1786
13 5 29 -4.1799 -0.1597
13 5 30 -2.8376 -0.0162
13 5 31 0.4734 -0.2016
13 5 32 2.5361 0.1913
13 5 33 1.7570 0.7982
13 5 34 -2.4053 -0.1256
13 5 35 -1.7489 -1.0252
13 5 36 1.3499 0.0106
13 5 37 1.2173 0.5395
13 5 38 0.6266 -0.2079
13 5 39 -1.1327 0.2314
13 5 40 -1.9010 0.7277
13 7 0 1.4036 -0.1666
13 7 1 0.5548 -0.4320
13 7 2 -1.8737 -0.1388
13 7 3 2.6566 0.5751
13 7 4 1.1030 0.2887
13 7 5 -3.8490 -0.2291
13 7 6 -1.2378 -0.1854
13 7 7 2.9230 -0.2041
13 7 8 1.9596 0.0911
13 7 9 -1.8043 0.2834
13 7 10 -1.5326 -0.1418
13 7 11 1.1183 -0.0650
13 7 12 0.1291 0.1566
13 7 13 -0.3762 -0.1096
13 7 14 0.7162 -0.0015
13 7 15 0.0937 0.1152
13 7 16 -0.7855 -0.2543
13 7 17 -0.8724 -0.0667
13 7 18 0.8581 0.4812
13 7 19 1.5829 0.0506
13 7 20 -0.9725 -0.5223
13 7 21 -1.0394 -0.0566
13 7 22 1.0027 0.3181
13 7 23 0.1920 0.0891
13 7 24 -1.4744 -0.1052
13 7 25 -0.3975 -0.2136
13 7 26 2.2295 0.1219
13 7 27 1.0348 0.4361
13 7 28 -2.0197 -0.1713
13 7 29 -0.9284 -0.5424
13 7 30 0.6836 -0.0615
13 7 31 0.4514 0.2368
13 7 32 0.2107 0.4020
13 7 33 -0.2203 0.4215
13 7 34 0.0806 -0.3547
13 7 35 -0.5388 -0.9200
13 7 36 -0.3634 -0.2302
13 7 37 2.3146 0.8233
13 7 38 -0.1473 0.9366
13 7 39 -3.5977 -0.2448
13 7 40 0.5567 -1.1674
13 9 0 3.1812 -0.4523
13 9 1 -2.5246 -0.1281
13 9 2 -1.4560 0.1932
13 9 3 3.9714 0.3658
13 9 4 0.1266 0.1999
13 9 5 -4.1138 -0.1619
13 9 6 -0.6298 -0.3099
13 9 7 4.1508 -0.3349
13 9 8 1.5697 0.1613
13 9 9 -3.6309 0.5027
13 9 10 -1.8231 -0.0575
13 9 11 2.2178 -0.1954
13 9 12 2.0714 0.0475
13 9 13 -1.0631 -0.1750
13 9 14 -2.3259 0.0550
13 9 15 0.9563 0.2913
13 9 16 1.3742 -0.2571
13 9 17 -1.1906 -0.1651
13 9 18 0.3671 0.3802
13 9 19 1.2583 -0.0051
13 9 20 -0.7330 -0.3557
13 9 21 -1.5495 -0.0140
13 9 22 -0.7410 0.2385
13 9 23 1.8563 0.2049
13 9 24 2.2345 -0.0702
13 9 25 -1.4514 -0.2621
13 9 26 -2.7151 -0.1064
13 9 27 0.8104 0.0812
13 9 28 2.6915 0.2617
13 9 29 -0.9557 0.1011
13 9 30 -2.1031 -0.4337
13 9 31 1.2656 -0.2608
13 9 32 0.4977 0.5867
13 9 33 -0.3250 0.7146
13 9 34 0.8879 -0.5281
13 9 35 -1.3760 -1.5054
13 9 36 -0.2263 0.1758
13 9 37 2.0078 2.1885
13 9 38 -1.7507 0.2576
13 9 39 -1.3120 -2.3317
13 11 0 -2.9242 0.0261
13 11 1 -5.7037 0.1475
13 11 2 3.5263 -0.1915
13 11 3 3.1854 0.4851
13 11 4 -2.2899 0.2152
13 11 5 -0.8708 -0.5013
13 11 6 1.0808 -0.2155
13 11 7 0.3257 -0.1219
13 11 8 -0.4367 0.0852
13 11 9 -0.9948 0.4555
13 11 10 -0.5548 0.1432
13 11 11 2.1918 -0.1005
13 11 12 1.5725 -0.1571
13 11 13 -3.0185 -0.3354
13 11 14 -1.0341 -0.1057
13 11 15 1.9869 0.4054
13 11 16 -1.0652 0.3259
13 11 17 0.6326 -0.3549
13 11 18 2.9011 -0.2715
13 11 19 -2.0308 0.3600
13 11 20 -3.4153 -0.0020
13 11 21 0.7111 -0.2568
13 11 22 2.8758 0.2504
13 11 23 1.2450 0.1030
13 11 24 -1.5080 -0.1520
13 11 25 -1.7253 -0.1910
13 11 26 -0.1132 -0.2971
13 11 27 1.5267 0.4674
13 11 28 0.4068 0.5349
13 11 29 -1.7322 -0.4808
13 11 30 1.1014 -0.1099
13 11 31 1.2202 -0.0972
13 11 32 -2.2688 -0.5933
13 11 33 0.8205 1.1055
13 11 34 1.1637 0.8548
13 11 35 -2.5227 -1.9613
13 11 36 1.0015 -0.5400
13 11 37 1.9902 2.1243
13 13 0 -7.1155 0.0729
13 13 1 2.1277 -0.0095
13 13 2 4.3349 0.1172
13 13 3 -0.0802 0.1992
13 13 4 0.1457 -0.1175
13 13 5 -0.7453 -0.1030
13 13 6 -2.5440 -0.4356
13 13 7 0.1217 -0.2765
13 13 8 1.9077 0.7800
13 13 9 -0.0335 0.6231
13 13 10 0.2456 -0.2820
13 13 11 1.7173 -0.5173
13 13 12 -1.9243 -0.2747
13 13 13 -3.1396 -0.0204
13 13 14 1.4296 0.0461
13 13 15 1.9771 0.4873
13 13 16 1.3285 0.3609
13 13 17 0.5308 -0.5221
13 13 18 -3.7260 -0.0684
13 13 19 -1.6123 0.2038
13 13 20 3.1948 -0.5369
13 13 21 1.0322 0.1599
13 13 22 -0.9485 0.6245
13 13 23 -0.3299 -0.1683
13 13 24 0.0707 -0.2744
13 13 25 0.0328 -0.3623
13 13 26 -0.6002 0.0716
13 13 27 -0.1651 0.8541
13 13 28 0.0401 -0.0512
13 13 29 1.3490 -0.3383
13 13 30 1.7731 -0.2852
13 13 31 -3.2212 -1.2463
13 13 32 -2.1844 1.1921
13 13 33 3.8922 2.7525
13 13 34 0.3163 -2.2095
13 13 35 -2.6440 -3.1174
13 15 0 1.2781 0.3088
13 15 1 1.9610 0.2049
13 15 2 0.0070 -0.1629
13 15 3 0.1710 -0.1534
13 15 4 0.1367 0.0656
13 15 5 -1.7656 -0.1745
13 15 6 -1.8478 -0.1771
13 15 7 1.3851 0.4900
13 15 8 3.8232 0.3024
13 15 9 -0.0047 0.0092
13 15 10 -3.7684 -0.1600
13 15 11 -0.8174 -0.8892
13 15 12 1.6603 -0.0815
13 15 13 0.3644 0.7548
13 15 14 -0.3513 0.0162
13 15 15 1.4632 0.3301
13 15 16 1.1642 0.2697
13 15 17 -3.7669 -0.8028
13 15 18 -1.9042 -0.3343
13 15 19 4.5334 0.1575
13 15 20 0.9602 0.1627
13 15 21 -2.8494 0.4447
13 15 22 0.1843 -0.0556
13 15 23 0.3974 -0.2045
13 15 24 -0.1546 -0.0554
13 15 25 1.0182 -0.3138
13 15 26 -0.2155 0.3333
13 15 27 -2.0269 0.3163
13 15 28 0.2855 -0.3473
13 15 30 -0.7956 -0.4387
13 15 31 -5.0307 -0.4573
13 15 32 1.8165 1.6649
13 15 33 3.9513 0.1786
13 17 0 -0.6872 0.3164
13 17 1 -0.1058 0.2755
13 17 2 -1.2282 0.0375
13 17 3 1.4159 -0.1539
13 17 4 1.8970 -0.1306
13 17 5 -2.4603 0.1264
13 17 6 -2.0419 0.4219
13 17 7 3.5755 -0.0819
13 17 8 2.3434 -0.6046
13 17 9 -4.6041 0.1734
13 17 10 -2.5128 0.0672
13 17 11 4.2343 -0.3478
13 17 12 2.3627 0.5744
13 17 13 -2.5616 0.1765
13 17 14 -2.0372 -0.4487
13 17 15 1.4642 0.2896
13 17 16 1.2743 0.0522
13 17 17 -1.4722 -0.3715
13 17 18 -0.0369 -0.2148
13 17 19 1.2857 -0.0588
13 17 20 -0.5893 0.5247
13 17 21 -0.5702 0.2386
13 17 22 -0.2949 -0.1645
13 17 23 0.1164 0.2316
13 17 24 1.9187 -0.6450
13 17 25 0.2968 -0.7666
13 17 26 -3.0972 1.0186
13 17 27 -1.3012 0.7902
13 17 28 3.8934 -0.5630
13 17 29 2.1401 -0.5107
13 17 30 -4.5730 -0.3152
13 19 0 1.9982 0.2566
13 19 1 -0.4572 -0.0646
13 19 2 1.3410 0.6484
13 19 3 1.5012 0.0197
13 19 4 -3.9395 -0.4890
13 19 5 -0.4450 -0.0827
13 19 6 4.1894 -0.1762
13 19 7 -1.1542 -0.5798
13 19 8 -3.3357 0.3974
13 19 9 1.4609 1.2274
13 19 10 2.4940 -0.1070
13 19 11 -0.3904 -0.9747
13 19 12 -1.1644 -0.3376
13 19 13 -1.1370 0.3254
13 19 14 -0.6015 0.5749
13 19 15 2.2221 -0.0294
13 19 16 1.6144 -0.2107
13 19 17 -2.1559 -0.0312
13 19 18 -1.4716 -0.5962
13 19 19 1.1613 0.0620
13 19 20 0.8506 0.8821
13 19 21 -0.6248 0.1940
13 19 22 -0.3065 -0.0473
13 19 23 1.2676 -0.7851
13 19 24 0.2012 -1.2540
13 19 25 -2.0298 1.2633
13 21 0 2.1084 0.2406
13 21 1 -0.8494 0.8472
13 21 2 0.2078 -0.0641
13 21 3 -2.3611 -1.2784
13 21 4 -1.4606 -0.5621
13 21 5 4.1142 -0.0129
13 21 6 -0.0747 0.3282
13 21 7 -3.3343 1.1489
13 21 8 2.4614 0.5453
13 21 9 1.6854 -0.8954
13 21 10 -3.1426 -0.3821
13 21 11 -0.3754 -0.2273
13 21 12 2.0084 -1.1410
13 21 13 -0.7920 1.0584
13 21 14 -0.5030 2.4480
13 21 15 1.7147 -0.8004
13 21 16 -0.2160 -2.4022
13 21 17 -1.7635 -0.4009
13 21 18 -0.0855 1.4957
13 21 19 0.9773 1.3856
13 21 20 0.5014 -0.6752
13 23 0 -0.2562 -0.3406
13 23 1 -4.3528 -0.5259
13 23 2 0.7411 -0.7308
13 23 3 -0.7073 -0.2963
13 23 4 -0.2903 0.1728
13 23 5 4.0813 0.7355
13 23 6 -0.1711 1.0086
13 23 7 -3.4305 -0.0355
13 23 8 0.5684 -1.1669
13 23 12 1.1201 0.6307
13 23 13 0.4722 4.2490
13 23 14 -0.5188 -0.7365
14 0 0 7.4612 -7.5998
14 0 2 -4.6393 5.2206
14 0 4 5.2647 -1.8950
14 0 6 -7.0807 -0.0629
14 0 8 7.2484 0.1200
14 0 10 -5.3376 0.7404
14 0 12 2.2570 -1.4462
14 0 14 0.9267 1.4683
14 0 16 -3.1113 -0.8929
14 0 18 4.0170 0.3864
14 0 20 -4.2725 -0.4811
14 0 22 3.7884 0.8382
14 0 24 -1.9430 -0.8590
14 0 26 -0.1092 0.6430
14 0 28 0.1755 -0.5421
14 0 30 1.4140 0.4212
14 0 32 -2.1344 -0.2969
14 0 34 1.4025 0.8857
14 0 36 -1.0755 -2.4390
14 0 38 1.8199 3.8061
14 2 0 7.4289 -0.7627
14 2 1 1.2238 2.9684
14 2 2 -8.9670 0.3197
14 2 3 -1.5455 -0.9271
14 2 4 7.4292 0.3644
14 2 5 -1.1859 -0.7380
14 2 6 -4.2350 -0.8517
14 2 7 3.3183 0.9588
14 2 8 1.1441 0.7567
14 2 9 -3.0160 -0.2686
14 2 10 1.2520 -0.1196
14 2 11 0.9885 -0.3794
14 2 12 -3.0350 -0.5726
14 2 13 1.4339 0.5753
14 2 14 3.9013 0.7949
14 2 15 -3.0408 -0.2818
14 2 16 -3.2902 -0.4421
14 2 17 3.3421 -0.2863
14 2 18 1.2470 -0.1131
14 2 19 -3.2061 0.6343
14 2 20 1.2832 0.3736
14 2 21 3.2854 -0.5132
14 2 22 -2.9831 -0.1162
14 2 23 -2.5221 0.2219
14 2 24 3.0452 -0.4337
14 2 25 0.3893 -0.0198
14 2 26 -1.8640 0.7595
14 2 27 1.0370 -0.1516
14 2 28 0.7703 -0.5252
14 2 29 -0.0625 0.1276
14 2 30 -0.6364 -0.0795
14 2 31 -1.5028 0.4051
14 2 32 0.8860 0.5621
14 2 33 1.1809 -1.0791
14 2 34 -0.4541 -0.5610
14 2 35 0.2718 1.0802
14 2 36 -0.5265 0.0006
14 2 37 -0.6370 -0.3923
14 2 38 0.9026 0.8074
14 2 39 -0.1295 -0.1386
14 4 0 5.0474 -0.4212
14 4 1 -9.1677 0.0300
14 4 2 -6.4875 1.1060
14 4 3 8.7015 0.3419
14 4 4 3.7216 -1.5048
14 4 5 -6.3365 -0.7046
14 4 6 -0.0048 0.9422
14 4 7 3.7047 0.6923
14 4 8 -1.8332 -0.0324
14 4 9 -1.1897 -0.3147
14 4 10 1.8153 -0.2336
14 4 11 -1.5347 -0.1849
14 4 12 -0.7983 -0.0852
14 4 13 3.7678 0.5025
14 4 14 -0.5504 0.2013
14 4 15 -4.0900 -0.3607
14 4 16 1.3785 0.1477
14 4 17 2.3306 -0.2184
14 4 18 -1.6508 -0.5279
14 4 19 -0.0472 0.7739
14 4 20 2.2011 0.5476
14 4 21 -1.0689 -0.7927
14 4 22 -2.4081 -0.2355
14 4 23 0.5283 0.2188
14 4 24 0.4591 -0.0818
14 4 25 0.9737 0.4772
14 4 26 2.8559 0.0650
14 4 27 -2.0781 -0.6885
14 4 28 -4.1011 0.2339
14 4 29 1.5738 0.1868
14 4 30 2.3077 -0.3160
14 4 31 0.3887 0.6795
14 4 32 -0.4933 -0.1271
14 4 33 -2.1299 -1.2993
14 4 34 0.8237 0.7854
14 4 35 2.2496 1.2674
14 4 36 -1.8730 -1.2462
14 4 37 -1.1814 -0.6412
14 4 38 1.8624 1.5024
14 6 0 -0.7031 0.2235
14 6 1 -1.5496 0.0017
14 6 2 -0.2991 0.2739
14 6 3 -0.0623 -0.1694
14 6 4 1.4388 -0.5059
14 6 5 2.4431 -0.1273
14 6 6 -1.4118 0.0701
14 6 7 -3.3136 0.6099
14 6 8 0.2425 0.4832
14 6 9 3.4073 -0.6160
14 6 10 0.4935 -0.4410
14 6 11 -3.6595 0.0415
14 6 12 0.0519 -0.0347
14 6 13 3.1910 0.4113
14 6 14 -0.7235 0.2873
14 6 15 -1.7111 -0.1605
14 6 16 0.3037 -0.1506
14 6 17 0.4082 -0.4856
14 6 18 0.5116 -0.0038
14 6 19 0.3977 0.7808
14 6 20 -0.3011 -0.0738
14 6 21 -1.1687 -0.4579
14 6 22 -0.9728 0.2109
14 6 23 0.9149 -0.1069
14 6 24 2.2642 -0.1339
14 6 25 1.3617 0.4326
14 6 26 -2.9150 -0.0966
14 6 27 -3.6966 -0.3553
14 6 28 2.7336 0.1458
14 6 29 3.3065 0.0139
14 6 30 -1.5791 0.0735
14 6 31 -0.8082 0.3677
14 6 32 -0.0614 -0.2103
14 6 33 -1.0296 -0.6357
14 6 34 0.9703 -0.0500
14 6 35 1.4587 0.7010
14 6 36 -0.6007 0.5822
14 8 0 0.6758 0.0846
14 8 1 0.2918 -0.0504
14 8 2 -2.1326 0.0223
14 8 3 1.1629 -0.4480
14 8 4 3.9607 -0.1389
14 8 5 -2.3746 0.3186
14 8 6 -3.4809 -0.0709
14 8 7 2.2474 0.2492
14 8 8 1.3795 0.4188
14 8 9 -1.0186 -0.4182
14 8 10 -0.2444 -0.5041
14 8 11 0.1637 -0.0603
14 8 12 0.2038 0.2983
14 8 13 -0.1248 0.4837
14 8 14 0.0532 -0.0614
14 8 15 -0.2157 -0.2491
14 8 16 -0.0502 -0.0330
14 8 17 1.3018 -0.3421
14 8 18 -1.0043 -0.0488
14 8 19 -2.0552 0.5595
14 8 20 1.7665 0.2295
14 8 21 1.8255 -0.1882
14 8 22 -0.9627 -0.3041
14 8 23 -1.2915 -0.2639
14 8 24 -0.2747 0.1634
14 8 25 0.9580 0.2776
14 8 26 0.7431 0.0206
14 8 27 -0.5765 0.0459
14 8 28 -1.2352 -0.0539
14 8 29 0.2796 -0.3439
14 8 30 2.3170 -0.0191
14 8 31 -0.4603 0.6852
14 8 32 -2.8469 0.1019
14 8 33 0.4962 -1.3732
14 8 34 2.3290 -0.2472
14 8 35 0.5509 2.2419
14 8 37 -2.0229 -2.7011
14 10 0 4.1213 0.0067
14 10 1 0.9810 -0.4079
14 10 2 -4.1830 0.1258
14 10 3 0.9004 -0.0615
14 10 4 3.4159 -0.1388
14 10 5 -2.8120 0.0700
14 10 6 -2.0352 -0.0015
14 10 7 2.6179 0.3742
14 10 8 0.8433 0.1912
14 10 9 -1.4452 -0.4038
14 10 10 0.2052 -0.2832
14 10 11 0.7376 -0.2126
14 10 12 -1.3994 0.1731
14 10 13 -0.1104 0.6643
14 10 14 1.7946 0.1281
14 10 15 -0.4429 -0.4396
14 10 16 -0.5126 -0.4400
14 10 17 -0.1539 -0.0399
14 10 18 -1.2757 0.4189
14 10 19 1.4499 0.2625
14 10 20 1.8700 0.1536
14 10 21 -1.5061 -0.1811
14 10 22 -1.4850 -0.9045
14 10 23 0.0936 -0.0769
14 10 24 1.1929 1.0631
14 10 25 1.2272 0.3899
14 10 26 -0.9461 -0.4496
14 10 27 -2.0445 -0.6021
14 10 28 0.5618 -0.1877
14 10 29 2.9779 0.6275
14 10 30 -0.8577 0.2047
14 10 31 -3.2315 -0.4456
14 10 32 1.9039 0.0980
14 10 33 1.5468 -0.0028
14 10 34 -2.0151 -0.0634
14 10 35 0.9411 0.6435
14 12 0 2.8225 0.0404
14 12 1 1.2773 0.4621
14 12 2 -4.0270 -0.3174
14 12 3 -0.1219 -0.7175
14 12 4 1.8867 0.4570
14 12 5 -1.6905 0.3558
14 12 6 0.5335 -0.1329
14 12 7 3.0540 0.3055
14 12 8 -1.6692 -0.1611
14 12 9 -3.1487 -0.4588
14 12 10 2.2441 -0.1077
14 12 11 1.6971 0.0130
14 12 12 -2.4515 0.3980
14 12 13 -0.0229 0.3013
14 12 14 1.7351 -0.0469
14 12 15 0.0013 -0.1463
14 12 16 -0.7613 -0.4476
14 12 17 -1.1157 -0.0816
14 12 18 0.6422 0.2809
14 12 19 1.1006 0.2413
14 12 20 -0.9121 0.3240
14 12 21 0.0829 -0.5993
14 12 22 0.6206 -0.5817
14 12 23 -0.1841 0.8390
14 12 24 -0.1326 0.2768
14 12 25 -1.1781 -0.2242
14 12 26 -0.2093 0.1578
14 12 27 1.9383 -0.9668
14 12 28 1.3189 -0.2257
14 12 29 -1.4438 1.3783
14 12 30 -3.1892 -0.1840
14 12 31 1.2911 -0.3174
14 12 32 3.6657 0.6738
14 12 33 -1.9803 -1.3176
14 14 0 5.6400 0.0624
14 14 1 -4.6622 -0.2728
14 14 2 -6.2811 -0.1944
14 14 3 5.1747 0.2415
14 14 4 4.0011 0.0461
14 14 5 -4.1665 -0.0952
14 14 6 -0.6404 0.3595
14 14 7 3.2857 -0.2771
14 14 8 -1.7930 -0.3010
14 14 9 -2.3163 0.4249
14 14 10 2.0637 -0.5219
14 14 11 0.6878 -0.2442
14 14 12 -0.7036 1.0221
14 14 13 0.5421 0.2994
14 14 14 -0.0135 -0.2862
14 14 15 -0.4254 -0.6452
14 14 16 -0.9971 -0.7548
14 14 17 0.1186 0.5939
14 14 18 1.9222 0.7984
14 14 19 -0.9277 0.0066
14 14 20 -1.4133 -0.2629
14 14 21 2.0463 -0.4064
14 14 22 1.3049 0.2164
14 14 23 -2.1034 0.0339
14 14 24 -3.1636 -0.3091
14 14 25 1.1345 0.8289
14 14 27 0.3975 -1.4146
14 14 28 -3.6572 1.6769
14 14 29 -2.4106 1.1436
14 14 30 0.8227 -1.9426
14 14 31 3.9401 -0.1680
14 16 0 -0.1192 0.1569
14 16 1 -4.2401 0.2003
14 16 2 1.9017 -0.4210
14 16 3 4.7999 -0.4243
14 16 4 -3.4337 0.0913
14 16 5 -3.5839 0.3820
14 16 6 4.1190 0.1631
14 16 7 2.0451 -0.2369
14 16 8 -3.8549 -0.0120
14 16 9 -1.2151 -0.3187
14 16 10 2.4244 -0.0492
14 16 11 1.6032 1.0196
14 16 12 -0.6758 -0.2001
14 16 13 -2.4521 -0.8200
14 16 14 0.4844 0.4003
14 16 15 2.1751 -0.1276
14 16 16 -1.9191 -0.3572
14 16 17 -0.6584 0.2679
14 16 18 2.5929 0.1794
14 16 19 -0.6358 0.7036
14 16 20 -1.2755 0.0954
14 16 21 1.3474 -1.1618
14 16 22 -0.3154 -0.4572
14 16 23 -2.4045 0.2820
14 16 24 0.4761 0.7825
14 16 25 3.2817 0.6433
14 16 26 0.3645 -0.9289
14 16 27 -2.1791 -0.3323
14 18 0 -0.1727 -0.0580
14 18 1 -5.2623 -0.4516
14 18 2 0.6090 -0.9634
14 18 3 1.5610 -0.0017
14 18 4 -0.1691 0.3459
14 18 5 1.3918 0.4850
14 18 6 -0.4551 0.7253
14 18 7 -2.0172 -0.2640
14 18 8 0.9896 -0.8077
14 18 9 1.1455 -0.1374
14 18 10 -1.1805 0.1746
14 18 11 0.0371 -0.1184
14 18 12 0.5467 0.5630
14 18 13 -0.2417 0.8272
14 18 14 0.6067 -1.1978
14 18 15 -1.4686 -1.1063
14 18 16 -1.2063 1.0890
14 18 17 3.9071 0.5779
14 18 18 0.8293 0.0954
14 18 19 -4.6661 0.2916
14 18 20 0.0257 -1.1090
14 18 21 3.4112 -0.7556
14 18 22 -0.8535 0.5574
14 18 23 -1.9254 0.4928
14 20 0 -5.0244 -0.2170
14 20 1 0.0805 -2.1833
14 20 2 2.4749 -0.8857
14 20 3 1.0070 1.8906
14 20 4 1.3458 1.1423
14 20 5 -1.4276 0.5700
14 20 6 -2.4810 0.1439
14 20 10 0.3306 1.4038
14 20 11 1.7891 -0.0792
14 20 12 -1.1935 0.1671
14 20 13 -1.0979 -0.9892
14 20 14 1.1586 -1.3259
14 20 15 0.1262 1.4506
14 20 16 0.0022 0.8532
14 20 17 0.3007 -1.1550
14 22 1 -1.1181 -0.5093
14 22 2 0.6965 1.5792
14 22 3 2.8345 1.5693
14 22 4 1.0053 -0.0609
14 22 5 -3.5937 -0.2736
14 22 6 -2.4217 -1.7448
14 22 7 2.1852 -2.0501
15 1 0 2.0349 1.2624
15 1 1 0.9544 -0.4851
15 1 2 -3.2245 -2.0010
15 1 3 0.1080 0.4277
15 1 4 2.4645 1.0328
15 1 5 1.3445 0.2737
15 1 6 -0.1991 0.3689
15 1 7 -3.3902 -0.8311
15 1 8 -1.9006 -0.7698
15 1 9 4.1834 0.9836
15 1 10 2.6445 0.1155
15 1 11 -3.5117 -0.7103
15 1 12 -1.5891 0.6844
15 1 13 2.0048 0.1714
15 1 14 -0.6946 -0.8503
15 1 15 -0.6238 0.0482
15 1 16 2.6044 0.3199
15 1 17 0.0887 0.3513
15 1 18 -3.0987 0.2698
15 1 19 0.0091 -0.7374
15 1 20 2.6631 -0.2685
15 1 21 -0.3640 0.5480
15 1 22 -1.8493 -0.1930
15 1 23 0.4347 -0.2298
15 1 24 0.4635 0.4608
15 1 25 0.4254 0.2252
15 1 26 1.0007 -0.3460
15 1 27 -1.1090 -0.0847
15 1 28 -1.3148 0.2408
15 1 29 0.3660 -0.3952
15 1 30 0.6490 -0.3181
15 1 31 0.7220 0.4169
15 1 32 -0.4518 0.3398
15 1 33 -0.3650 0.4092
15 1 34 0.8556 -0.2812
15 1 35 -0.9255 -1.1978
15 1 36 -0.6516 0.4403
15 3 0 2.6772 -0.1928
15 3 1 -2.4292 -0.4884
15 3 2 -0.1488 -0.2411
15 3 3 2.3441 0.1817
15 3 4 -0.0683 0.6789
15 3 5 -0.3382 0.8672
15 3 6 -1.2892 -0.5119
15 3 7 -2.0298 -1.2688
15 3 8 2.1497 0.0335
15 3 9 2.9490 0.6912
15 3 10 -2.2942 0.0845
15 3 11 -1.8217 0.0844
15 3 12 2.4534 0.1663
15 3 13 -0.5255 -0.3777
15 3 14 -2.7802 -0.2990
15 3 15 2.1784 0.0735
15 3 16 3.1407 0.1212
15 3 17 -1.8724 0.5203
15 3 18 -3.1768 0.1909
15 3 19 0.5387 -0.8328
15 3 20 2.2784 -0.3813
15 3 21 0.3071 0.5334
15 3 22 -0.8978 0.1851
15 3 23 -0.8863 0.0395
15 3 24 0.6186 0.3387
15 3 25 1.8994 -0.3517
15 3 26 -1.4920 -0.5052
15 3 27 -2.4042 0.3354
15 3 28 1.3190 -0.1906
15 3 29 1.4362 -0.1544
15 3 30 0.8031 1.0908
15 3 31 -0.1915 -0.2744
15 3 32 -2.5574 -1.1471
15 3 33 0.1494 1.0088
15 3 34 1.8155 0.4322
15 3 35 -0.6708 -1.6764
15 5 0 2.7695 -0.5718
15 5 1 -0.0526 -0.0154
15 5 2 -0.7559 0.3743
15 5 3 -0.8364 0.2911
15 5 4 0.0307 0.1854
15 5 5 0.9649 -0.1102
15 5 6 -0.7155 -0.0685
15 5 7 -1.5185 -0.2980
15 5 8 1.5142 -0.6914
15 5 9 1.7609 0.3978
15 5 10 -1.5005 0.9417
15 5 11 -0.4970 -0.0500
15 5 12 0.5133 -0.2708
15 5 13 -1.1800 -0.3142
15 5 14 0.5662 -0.4387
15 5 15 1.4503 0.2320
15 5 16 -0.4548 0.4249
15 5 17 -0.4025 0.2461
15 5 18 -0.4697 0.0635
15 5 19 -0.8642 -0.6022
15 5 20 0.3414 -0.4048
15 5 21 1.8064 0.3666
15 5 22 1.0476 0.3597
15 5 23 -1.7665 0.3683
15 5 24 -1.7573 -0.0657
15 5 25 0.0788 -0.8933
15 5 26 1.1993 -0.2811
15 5 27 2.0749 0.5648
15 5 28 -1.0725 0.6173
15 5 29 -2.3071 0.3353
15 5 30 1.9607 -0.9986
15 5 31 0.3599 -0.8189
15 5 32 -2.2324 1.4075
15 5 33 1.4346 0.4591
15 5 34 1.1320 -1.6384
15 7 0 1.5251 -0.2270
15 7 1 -1.3411 0.2896
15 7 2 -0.3525 -0.1196
15 7 3 -0.4511 0.0068
15 7 4 -1.8800 0.4084
15 7 5 1.4503 0.0634
15 7 6 2.4001 -0.2172
15 7 7 -1.7285 -0.6081
15 7 8 -0.8569 -0.2047
15 7 9 1.0846 0.8237
15 7 10 -0.2950 0.2491
15 7 11 -0.0177 -0.1417
15 7 12 0.2104 0.1003
15 7 13 -0.3462 -0.7411
15 7 14 -0.6662 -0.2774
15 7 15 0.2221 0.7442
15 7 16 2.2966 -0.0044
15 7 17 -0.6508 0.0865
15 7 18 -3.4675 0.4716
15 7 19 0.9956 -0.7086
15 7 20 3.3120 -0.7874
15 7 21 0.2289 0.5415
15 7 22 -2.6511 0.8600
15 7 23 -2.4897 -0.0646
15 7 24 1.7279 -0.6553
15 7 25 4.0609 -0.1178
15 7 26 -0.0016 0.0861
15 7 27 -4.8143 0.1489
15 7 28 -1.7642 0.6986
15 7 29 5.4999 -0.4932
15 7 30 1.8912 -1.1289
15 7 31 -5.5930 1.0728
15 7 32 -0.3301 0.7263
15 7 33 4.4103 -1.3340
15 9 0 -1.0726 -0.3250
15 9 1 -1.3621 -0.1583
15 9 2 0.5135 -0.0053
15 9 3 -1.5665 0.2572
15 9 4 -1.1167 0.1830
15 9 5 4.7272 0.0601
15 9 6 1.4852 -0.0651
15 9 7 -5.1078 -0.6325
15 9 8 -1.3126 -0.0849
15 9 9 3.2861 0.6429
15 9 10 1.1917 0.0716
15 9 11 -1.6418 0.1428
15 9 12 -0.6885 -0.0254
15 9 13 0.5182 -0.8271
15 9 14 -0.4185 0.0340
15 9 15 0.9619 0.6258
15 9 16 0.6204 -0.0074
15 9 17 -2.1504 0.0856
15 9 18 0.9651 0.0744
15 9 19 1.9839 -0.4519
15 9 20 -2.6217 -0.4706
15 9 21 -1.2813 0.2397
15 9 22 2.4923 0.8256
15 9 23 1.2434 0.1813
15 9 24 -0.9103 -0.3588
15 9 25 -1.1825 -0.5662
15 9 26 -1.0541 -0.8987
15 9 27 0.1243 1.0391
15 9 28 2.9473 1.8760
15 9 29 0.9324 -1.6088
15 9 30 -3.9985 -1.8079
15 9 31 -0.6095 1.8269
15 11 0 -0.9269 -0.1936
15 11 1 0.3002 -0.2777
15 11 2 0.9629 0.1393
15 11 3 -0.0954 0.6342
15 11 4 0.5307 -0.1286
15 11 5 1.3484 -0.2746
15 11 6 -1.6428 0.1346
15 11 7 -2.0716 -0.4306
15 11 8 1.3461 -0.1156
15 11 9 2.0688 0.4841
15 11 10 -0.8773 0.1940
15 11 11 -1.6342 0.1485
15 11 12 1.0724 -0.3000
15 11 13 0.5344 -0.4572
15 11 14 -0.9169 0.2136
15 11 15 0.6542 0.1250
15 11 16 -0.0007 -0.0307
15 11 17 -0.8262 0.1133
15 11 18 0.3288 0.0598
15 11 19 0.2937 -0.0173
15 11 20 0.3854 -0.2417
15 11 21 -0.1510 0.1146
15 11 22 -0.6440 0.0653
15 11 23 0.2643 -0.2767
15 11 24 -0.1123 0.8158
15 11 25 -0.0783 -0.3384
15 11 26 0.3803 -1.9957
15 11 27 0.1953 1.7078
15 11 28 0.5001 2.5487
15 11 29 -1.0127 -2.6781
15 11 30 -1.1315 -2.0105
15 13 0 0.4942 -0.0590
15 13 1 -0.9631 -0.1337
15 13 2 1.8607 0.1224
15 13 3 0.4458 -0.0732
15 13 4 -2.0940 -0.0318
15 13 5 -0.2921 0.6274
15 13 6 1.4820 -0.3606
15 13 7 0.2042 -0.7876
15 13 8 -0.7036 0.5777
15 13 9 -0.5612 0.1186
15 13 10 -0.4306 -0.1845
15 13 11 1.7387 0.7199
15 13 12 1.3795 -0.1223
15 13 13 -2.5261 -0.8041
15 13 14 -1.2822 -0.2723
15 13 15 1.6586 0.1215
15 13 16 0.2111 0.4066
15 13 17 -0.5257 0.5158
15 13 18 1.3513 0.6461
15 13 19 1.3248 -0.5305
15 13 20 -3.0137 -1.7686
15 13 21 -3.0849 0.0120
15 13 22 3.7871 1.3993
15 13 23 3.0031 0.9059
15 13 24 -2.7885 -0.0580
15 13 25 -1.1083 -2.3217
15 13 26 1.0362 -0.5558
15 13 27 -0.0237 3.8672
15 13 28 -0.4500 0.0697
15 15 0 -3.1354 0.1205
15 15 1 -0.9643 -0.5587
15 15 2 2.6684 0.1549
15 15 3 0.3766 0.5404
15 15 4 -1.8103 0.2266
15 15 5 0.0627 0.0929
15 15 6 1.7255 -0.6017
15 15 7 -0.3016 -0.3594
15 15 8 -2.7320 0.0794
15 15 9 -0.1910 0.1381
15 15 10 4.5359 0.9658
15 15 11 1.1275 0.1348
15 15 12 -5.8682 -1.1128
15 15 13 -1.1464 -0.5006
15 15 14 4.8199 -0.0867
15 15 15 -0.3951 0.6616
15 15 16 -1.6433 1.1840
15 15 17 2.5174 0.1993
15 15 18 -0.4557 -0.7299
15 15 19 -3.8124 -1.5944
15 15 20 -0.3249 -0.6779
15 15 21 3.5677 1.6648
15 15 22 1.6128 1.3876
15 15 23 -1.9505 0.1270
15 15 24 -0.9096 -1.1012
15 15 25 0.0936 -2.0529
15 17 0 -4.2454 -0.2800
15 17 1 -1.5362 0.7981
15 17 2 4.1108 1.0580
15 17 3 3.7097 -0.5679
15 17 4 -2.1816 0.1379
15 17 5 -4.8385 0.3626
15 17 6 0.0862 -1.5728
15 17 7 3.5459 -0.3648
15 17 8 0.7168 1.2139
15 17 9 -0.7222 0.3228
15 17 10 -0.1398 0.3294
15 17 11 -2.0823 0.3030
15 17 12 -0.2729 -1.4199
15 17 13 3.1742 -1.6615
15 17 14 -1.1234 1.5080
15 17 15 -1.4201 2.6521
15 17 16 3.9842 -0.7332
15 17 17 -1.7964 -1.7688
15 17 18 -6.0409 -0.4523
15 17 19 3.4928 -0.6593
15 19 0 -1.2717 0.1116
15 19 1 4.0817 2.9876
15 19 2 4.6011 1.1668
15 19 3 -2.0238 -1.8126
15 19 4 -7.5182 -0.8772
15 19 5 -1.1111 -0.9313
15 19 6 7.5303 -0.5657
15 19 10 3.2061 0.3371
15 19 11 0.1864 -1.1325
15 19 12 -1.5855 -2.5004
15 19 13 0.7324 1.7367
15 19 14 0.8059 3.8707
16 0 0 2.4985 5.4709
16 0 2 0.8215 -2.0880
16 0 4 -1.9992 -0.5760
16 0 6 0.5690 1.7227
16 0 8 1.4123 -1.5953
16 0 10 -2.3385 0.8396
16 0 12 1.7859 -0.3870
16 0 14 -0.3309 0.5746
16 0 16 -0.5461 -0.7500
16 0 18 0.1341 0.5940
16 0 20 0.4385 -0.6741
16 0 22 -0.3952 0.9762
16 0 24 0.7388 -0.6361
16 0 26 -1.8005 -0.1246
16 0 28 2.0235 -0.1895
16 0 30 -0.8766 1.8390
16 0 32 -0.0213 -3.1438
16 2 0 -1.4921 1.0707
16 2 1 -0.1443 -1.4900
16 2 2 2.2376 0.0264
16 2 3 -1.9966 -0.2832
16 2 4 -2.7397 -0.6292
16 2 5 0.8686 0.7372
16 2 6 2.7437 0.5384
16 2 7 1.6828 -0.5071
16 2 8 -2.0423 -0.3306
16 2 9 -3.0060 0.2504
16 2 10 1.1332 0.2278
16 2 11 2.4234 -0.1536
16 2 12 -0.7662 0.0399
16 2 13 -0.7762 0.2298
16 2 14 1.0338 -0.4027
16 2 15 -0.4603 -0.1382
16 2 16 -1.4120 0.3799
16 2 17 0.3565 -0.4022
16 2 18 1.4806 0.0749
16 2 19 0.0992 0.8001
16 2 20 -1.1527 -0.4111
16 2 21 0.5434 -0.3816
16 2 22 0.4819 0.3179
16 2 23 -1.4250 -0.3037
16 2 24 0.2874 -0.0764
16 2 25 0.7734 0.4328
16 2 26 -0.7894 -0.0261
16 2 27 0.5793 -0.5341
16 2 28 1.0422 -0.0266
16 2 29 -0.4630 1.4862
16 2 30 -1.4221 0.3205
16 2 31 -0.7660 -2.6410
16 4 0 -1.4017 0.7476
16 4 1 2.6719 0.1833
16 4 2 -0.8796 -0.9728
16 4 3 -3.9387 -0.7353
16 4 4 0.9554 0.3503
16 4 5 3.2894 0.2755
16 4 6 0.7447 0.2277
16 4 7 -1.3452 0.2682
16 4 8 -1.7336 -0.0909
16 4 9 0.0481 -0.1971
16 4 10 1.3185 -0.2554
16 4 11 -0.6698 -0.0972
16 4 12 -0.3568 0.2611
16 4 13 2.1551 0.0366
16 4 14 -0.3768 -0.0833
16 4 15 -2.4330 0.3459
16 4 16 0.4045 -0.0246
16 4 17 1.1769 -0.6974
16 4 18 -0.1604 0.0543
16 4 19 0.0302 0.7642
16 4 20 1.0513 -0.0129
16 4 21 -0.2260 -0.3922
16 4 22 -2.9684 0.0447
16 4 23 0.1411 -0.3565
16 4 24 3.4311 -0.3924
16 4 25 -0.4763 0.9802
16 4 26 -1.3402 0.7886
16 4 27 0.8260 -0.9157
16 4 28 -0.8708 -0.6276
16 4 29 -0.8580 0.2983
16 4 30 1.0060 0.0655
16 6 0 -1.2146 0.1920
16 6 1 0.0970 0.0099
16 6 2 -0.2580 -0.1495
16 6 3 0.0120 -0.1692
16 6 4 0.4588 -0.5523
16 6 5 0.3106 0.3239
16 6 6 1.1273 0.9975
16 6 7 0.3747 -0.1091
16 6 8 -2.9428 -0.5576
16 6 9 -1.4833 -0.2183
16 6 10 2.8067 -0.1080
16 6 11 1.4689 0.1746
16 6 12 -0.7673 0.2462
16 6 13 -0.8046 0.0886
16 6 14 -0.6509 -0.1192
16 6 15 0.7265 -0.0093
16 6 16 -0.1784 0.2392
16 6 17 -0.9459 -0.4637
16 6 18 1.6859 -0.4308
16 6 19 1.0449 0.7530
16 6 20 -1.5642 0.3275
16 6 21 -1.7043 -0.4312
16 6 22 0.1565 -0.0800
16 6 23 2.7204 -0.2412
16 6 24 0.5942 -0.0857
16 6 25 -2.4925 0.6072
16 6 26 -0.3955 0.4895
16 6 27 0.7507 -0.3616
16 6 28 0.4368 -1.4678
16 6 29 0.8353 -0.0249
16 8 0 0.8160 0.5806
16 8 1 2.5079 -0.0109
16 8 2 -1.0035 -0.2923
16 8 3 -3.2853 -0.1799
16 8 4 2.4889 0.1516
16 8 5 3.8370 0.3194
16 8 6 -2.8073 -0.3550
16 8 7 -4.7481 -0.1665
16 8 8 1.2110 0.5832
16 8 9 5.3623 -0.0256
16 8 10 0.0865 -0.4997
16 8 11 -4.4565 -0.1301
16 8 12 -0.1120 0.2540
16 8 13 2.2871 0.3045
16 8 14 0.3311 -0.1306
16 8 15 -0.6709 0.0784
16 8 16 -1.0064 0.0550
16 8 17 0.4599 -0.6801
16 8 18 0.5939 0.1066
16 8 19 -0.5092 0.5608
16 8 20 0.7474 -0.1875
16 8 21 -0.0864 0.3420
16 8 22 -0.8681 0.1644
16 8 23 0.6533 -1.0268
16 8 24 -0.8256 -0.5128
16 8 25 -0.7455 0.9583
16 8 26 2.5845 1.5357
16 8 27 1.1016 -0.8573
16 8 28 -3.0270 -2.6289
16 10 0 0.0153 0.1664
16 10 1 -0.8593 0.5066
16 10 2 -1.4966 0.2426
16 10 3 1.7589 -0.5561
16 10 4 2.1570 -0.5276
16 10 5 -3.6774 0.2228
16 10 6 -2.4509 0.2230
16 10 7 3.6032 0.1284
16 10 8 2.9661 0.2503
16 10 9 -1.8257 0.0192
16 10 10 -3.2265 -0.3520
16 10 11 0.6030 -0.4347
16 10 12 2.2507 0.1064
16 10 13 -0.2293 0.2562
16 10 14 -0.3932 0.1922
16 10 15 -0.1408 0.5541
16 10 16 -0.9051 -0.3189
16 10 17 -0.1150 -0.9676
16 10 18 1.2533 -0.0003
16 10 19 1.6384 0.5516
16 10 20 -1.4302 0.8404
16 10 21 -2.8835 -0.1054
16 10 22 1.6526 -1.5068
16 10 23 2.0780 0.1611
16 10 24 -1.6956 1.0451
16 10 25 0.1004 -0.1044
16 10 26 2.0709 0.3376
16 10 27 -1.7318 -0.6526
16 12 0 1.0956 0.3293
16 12 1 -1.5534 -0.1217
16 12 2 -1.3654 0.3335
16 12 3 1.5730 -0.1477
16 12 4 0.2319 -0.7097
16 12 5 -0.9582 -0.0737
16 12 6 0.1401 0.3584
16 12 7 -0.0401 0.3851
16 12 8 1.0930 0.3248
16 12 9 0.6725 0.0843
16 12 10 -2.1552 -0.6766
16 12 11 -0.8438 -1.0083
16 12 12 1.8937 0.1737
16 12 13 0.8217 1.1193
16 12 14 -1.3917 0.8850
16 12 15 -0.4962 -0.2906
16 12 16 1.4180 -1.1661
16 12 17 0.1846 -0.1903
16 12 18 -1.0848 -0.0930
16 12 19 -0.8455 -0.2652
16 12 20 -0.0101 1.6617
16 12 22 0.7894 -1.7589
16 12 23 -2.7827 -0.9657
16 12 24 -0.6471 0.4152
16 14 0 0.4715 -0.2349
16 14 1 0.9484 0.6065
16 14 2 1.4289 0.5316
16 14 3 -0.9285 -1.6219
16 14 4 -2.6501 -0.5157
16 14 5 0.1621 0.9191
16 14 6 1.9829 0.0645
16 14 7 1.2152 0.3160
16 14 8 -0.2989 0.8914
16 14 9 -1.9300 -0.5813
16 14 10 -0.8562 -1.7754
16 14 11 1.1568 -0.0255
16 14 12 0.9679 1.2025
16 14 13 -0.2146 0.3965
16 14 14 -0.2603 1.0491
16 14 15 0.8511 0.3097
16 14 16 -0.6084 -2.6904
16 14 17 -2.4315 -2.0079
16 14 18 0.3884 1.5910
16 14 19 2.8857 3.5678
16 14 20 1.2447 1.0275
16 14 21 -1.8676 -3.7059
16 16 0 5.6460 -0.1566
16 16 1 -2.8205 0.6412
16 16 2 -5.0148 -1.1707
16 16 3 -0.3898 -0.9757
16 16 4 2.4002 0.6140
16 16 5 1.7966 -0.0662
16 16 6 0.2861 0.9659
16 16 7 -1.2734 1.3484
16 16 8 -1.3245 -1.3374
16 16 9 0.5403 -1.5914
16 16 10 0.2634 0.4513
16 16 11 -0.5357 0.3808
16 16 12 1.5958 -0.2499
16 16 13 0.8566 1.9530
16 16 14 -1.9856 1.6880
16 16 15 -1.0704 -3.8604
16 18 0 -1.0216 -0.3870
16 18 1 -4.6785 -0.0946
16 18 2 -1.0732 -1.0638
16 18 3 2.0261 -0.0372
16 18 4 1.7025 0.2094
16 18 5 1.3129 1.1040
16 18 6 -0.4646 1.8827
16 18 9 2.6148 0.3281
17 1 0 -0.7931 -0.6116
17 1 1 0.9089 0.7078
17 1 2 -0.5845 0.6034
17 1 3 0.2502 -0.1170
17 1 4 1.4094 -0.1051
17 1 5 0.3418 0.0976
17 1 6 -1.2636 -0.6504
17 1 7 -1.9819 -0.4568
17 1 8 0.7936 1.1922
17 1 9 3.1435 0.8014
17 1 10 -0.4474 -0.8352
17 1 11 -3.3420 -0.6189
17 1 12 0.4252 -0.2126
17 1 13 2.8929 -0.2149
17 1 14 -0.8718 0.7698
17 1 15 -2.3877 0.5916
17 1 16 1.4790 -0.2016
17 1 17 2.3001 0.5341
17 1 18 -1.9264 -0.8409
17 1 19 -2.1901 -1.9390
17 1 20 2.4863 1.3373
17 1 21 1.2072 1.3999
17 1 22 -3.0679 -0.7910
17 1 23 0.1668 0.8732
17 1 24 2.7040 -0.6069
17 1 25 -0.5144 -2.5034
17 1 26 -1.2587 1.9529
17 1 27 -0.1605 2.4782
17 3 0 1.0993 0.5036
17 3 1 -1.2586 -0.4453
17 3 2 0.1802 0.0292
17 3 3 2.4276 0.6887
17 3 4 -0.1555 -0.2264
17 3 5 -1.2989 0.0479
17 3 6 -1.4067 0.0340
17 3 7 -0.8108 -0.6752
17 3 8 2.6881 0.3024
17 3 9 1.6754 0.5392
17 3 10 -2.8460 -0.5205
17 3 11 -0.7862 -0.2017
17 3 12 2.4617 0.3019
17 3 13 -0.6531 0.2007
17 3 14 -2.1438 0.2233
17 3 15 1.1928 -0.4606
17 3 16 2.2181 -0.3270
17 3 17 -0.6619 0.7529
17 3 18 -2.5980 -0.1656
17 3 19 0.5214 -0.7346
17 3 20 2.3734 0.3760
17 3 21 -1.7798 -0.0238
17 3 22 -0.9573 0.1293
17 3 23 2.9994 1.3375
17 3 24 -0.5131 -0.4709
17 3 25 -2.2368 -2.3288
17 3 26 0.5952 0.0176
17 5 0 0.1214 -0.0497
17 5 1 -1.3102 -0.3625
17 5 2 1.4961 0.9237
17 5 3 1.3637 -0.0170
17 5 4 -0.8894 -0.5849
17 5 5 -0.8746 0.7001
17 5 6 -1.6446 -0.3395
17 5 7 -0.7782 -0.9525
17 5 8 3.3045 0.5584
17 5 9 2.5289 0.3691
17 5 10 -2.6237 -0.1524
17 5 11 -2.6081 0.5225
17 5 12 0.8744 -0.0378
17 5 13 1.5030 -0.8260
17 5 14 -0.2787 -0.0811
17 5 15 -1.1336 0.3335
17 5 16 1.6654 0.1179
17 5 17 1.5931 0.3795
17 5 18 -3.3863 -0.0425
17 5 19 -1.4420 -0.6793
17 5 20 2.9718 -0.0807
17 5 21 0.5424 0.2203
17 5 22 -0.4867 0.4655
17 5 23 -0.0256 1.0362
17 5 24 -1.2799 -1.1384
17 7 0 -0.8358 -0.3549
17 7 1 0.1129 -0.3532
17 7 2 1.5790 0.4945
17 7 3 -0.3373 -0.3883
17 7 4 -2.2002 -0.2087
17 7 5 -0.0757 0.6890
17 7 6 0.9298 -0.0565
17 7 7 -0.0344 -0.6732
17 7 8 1.9566 -0.1082
17 7 9 0.9863 0.5522
17 7 10 -3.5426 0.4032
17 7 11 -1.7462 -0.2258
17 7 12 2.5590 -0.3598
17 7 13 1.5257 -0.0943
17 7 14 -1.3823 0.0902
17 7 15 -0.2719 -0.0944
17 7 16 1.8909 0.0457
17 7 17 -1.6854 0.5852
17 7 18 -2.3912 -0.0233
17 7 19 3.3167 -0.4273
17 7 20 0.8685 -0.1240
17 7 21 -3.4440 -0.6822
17 7 22 1.4504 0.6429
17 7 23 2.2841 1.7612
17 9 0 -0.7813 -0.0168
17 9 1 -0.6002 -0.6279
17 9 2 1.3209 -0.4131
17 9 3 -0.5379 -0.0467
17 9 4 -1.9937 0.7633
17 9 5 2.4094 0.7640
17 9 6 1.7583 -0.4972
17 9 7 -2.1233 -0.8376
17 9 8 -0.3977 -0.0128
17 9 9 -0.1832 0.1483
17 9 10 -0.7425 0.1163
17 9 11 1.8088 0.7683
17 9 12 0.9320 0.1711
17 9 13 -1.8633 -1.0115
17 9 14 -0.8543 -0.4333
17 9 15 1.8563 0.3329
17 9 16 0.6853 0.4643
17 9 17 -2.1855 0.2800
17 9 18 0.3367 -0.0484
17 9 19 1.4929 0.2048
17 9 20 -2.0989 -1.1115
17 9 21 0.2505 -1.3544
17 9 22 3.3077 2.5687
17 11 0 -2.0042 -1.4187
17 11 1 1.5963 -0.6661
17 11 2 2.2574 0.7511
17 11 3 -3.5663 -0.2316
17 11 4 0.0393 0.3897
17 11 5 5.0372 1.3802
17 11 6 -1.9975 -0.3537
17 11 7 -4.3597 -1.9472
17 11 8 1.1417 -0.8187
17 11 9 2.1496 1.2230
17 11 10 1.4068 1.7167
17 11 11 -0.2245 0.1769
17 11 12 -3.0991 -1.2833
17 11 13 -0.9561 -0.6668
17 11 14 3.4798 -0.1730
17 11 15 1.8954 -0.1069
17 11 16 -3.5384 1.2675
17 11 17 -2.3890 0.7649
17 11 19 1.9874 -0.5068
17 11 20 -2.1876 -0.7928
17 13 0 -0.0674 -1.4510
17 13 1 1.5197 0.0295
17 13 2 -2.0801 -0.0178
17 13 3 -1.5350 1.0072
17 13 4 4.0976 1.3598
17 13 5 0.5536 -1.0142
17 13 6 -3.5753 -1.0412
17 13 7 -0.2048 0.0429
17 13 8 0.4728 -0.8620
17 13 9 1.0368 0.3581
17 13 10 2.7927 2.8566
17 13 11 -1.9253 0.3476
17 13 12 -4.3949 -2.9935
17 13 13 2.1391 -1.0067
17 13 14 4.5839 0.8749
17 13 15 -2.2888 0.6299
17 15 0 -3.0238 0.0198
17 15 1 -0.1875 0.5490
17 15 2 1.8507 0.5885
17 15 3 2.2474 0.6033
17 15 4 -0.6390 -0.6715
17 15 8 -0.1609 -0.8409
17 15 9 2.2482 5.2989
18 0 0 -2.3747 -3.1411
18 0 2 3.1690 0.7086
18 0 4 -4.0680 0.8270
18 0 6 4.2769 -0.4198
18 0 8 -3.5267 -0.8432
18 0 10 1.5122 0.9902
18 0 12 1.3266 -0.1512
18 0 14 -3.4661 0.1269
18 0 16 3.9411 -1.1865
18 0 18 -3.0854 1.9027
18 0 20 1.4624 -1.8088
18 2 0 -3.3909 -0.5307
18 2 1 1.6902 1.1827
18 2 2 2.4815 -0.4201
18 2 3 -3.6991 -0.5717
18 2 4 -1.3644 0.7386
18 2 5 4.3801 -0.3487
18 2 6 1.0862 -0.1116
18 2 7 -3.6538 0.6822
18 2 8 -1.1516 -0.6745
18 2 9 2.6445 -0.2796
18 2 10 0.5801 0.6076
18 2 11 -1.8081 -0.2870
18 2 12 0.6920 0.3805
18 2 13 1.1346 0.8259
18 2 14 -1.7583 -1.0439
18 2 15 -0.5423 -1.0612
18 2 16 1.6924 0.1112
18 2 17 -0.1568 0.2453
18 2 18 -0.3913 1.9217
18 2 19 0.6040 1.3175
18 2 20 -1.2116 -3.0656
18 4 0 -1.7522 -0.6786
18 4 1 0.0798 0.8408
18 4 2 -0.3631 0.2505
18 4 3 0.3269 -0.9125
18 4 4 1.3605 -0.0992
18 4 5 -1.0280 -0.0198
18 4 6 -0.2544 0.2035
18 4 7 1.7624 0.8483
18 4 8 -0.7865 -0.0878
18 4 9 -1.9536 -0.6677
18 4 10 0.1672 -0.0477
18 4 11 1.3310 -0.1082
18 4 12 1.4649 -0.1117
18 4 13 -0.6121 0.5811
18 4 14 -2.7137 0.3207
18 4 15 0.7772 -0.5133
18 4 16 2.6651 -0.4010
18 4 17 -1.5145 0.0936
18 4 18 -1.4261 0.4606
18 4 19 1.4369 0.6144
18 6 0 -2.5993 -0.2958
18 6 1 1.6353 0.8518
18 6 2 1.1321 -0.1112
18 6 3 -2.2303 -0.7156
18 6 4 -0.0710 -0.0505
18 6 5 4.0167 -0.0237
18 6 6 0.4925 0.5366
18 6 7 -5.1060 0.7039
18 6 8 -1.5100 -0.4386
18 6 9 4.4225 -0.6745
18 6 10 1.3042 -0.1429
18 6 11 -3.1662 -0.1865
18 6 12 0.2708 0.2897
18 6 13 2.2604 1.1094
18 6 14 -1.1527 0.1293
18 6 15 -1.2158 -1.1258
18 6 16 -0.1005 -0.3862
18 6 17 0.0171 0.1561
18 8 0 -1.1800 -0.4260
18 8 1 2.4911 1.0055
18 8 2 0.5969 0.1970
18 8 3 -0.5244 -0.7698
18 8 4 1.5434 -0.2460
18 8 5 -0.9491 -0.0178
18 8 6 -3.0651 0.2579
18 8 7 0.9847 0.6139
18 8 8 2.2641 -0.0811
18 8 9 -0.1429 -0.5959
18 8 10 -0.6900 0.0092
18 8 11 -0.2362 -0.1647
18 8 12 0.4088 -0.2693
18 8 13 -0.1334 1.1117
18 8 14 -0.6405 0.6615
18 8 15 0.2505 -1.1882
18 8 16 -0.2203 -0.8830
18 10 0 2.4842 0.4028
18 10 1 4.9464 1.1733
18 10 2 -2.4013 -0.6284
18 10 3 -4.0457 -0.3528
18 10 4 1.3713 0.1403
18 10 5 1.5708 -1.2754
18 10 6 -0.5297 -0.1768
18 10 7 -0.6242 2.2437
18 10 8 0.8706 1.0287
18 10 9 1.9110 -1.5630
18 10 10 -1.9656 -1.7699
18 10 11 -2.9951 -0.3304
18 12 0 4.8963 0.8500
18 12 1 -0.1455 0.1361
18 12 2 -5.4056 0.1846
18 12 3 0.7160 0.3651
19 1 0 -1.8293 1.2185
19 1 1 2.4683 -0.3419
19 1 2 1.4434 0.5697
19 1 3 -0.8941 0.4002
19 1 4 0.5478 -1.1735
19 1 5 -1.1844 0.7551
19 1 6 -3.4345 -0.1538
19 1 7 2.4918 -1.7115
19 1 8 5.6762 1.7088
19 3 0 0.3730 0.0459
19 3 1 0.6311 0.4708
19 3 2 1.6018 -0.0134
19 3 3 1.1299 -0.3940
19 3 4 -3.1734 0.4435
19 3 5 -2.5274 0.4490
19 3 6 2.4763 -0.9728
19 3 7 2.9936 -0.4145
19 3 8 -0.4617 0.6995
19 3 9 -2.6256 0.2418
19 5 4 -3.2493 0.6913
19 5 5 3.9838 0.1279
19 5 6 1.7952 -0.9343
19 5 7 -1.9131 -1.3586
19 5 8 0.3057 0.5339
0 0 0 0.0 0.0
;
_shelx_fab_checksum              23397
_olex2_submission_special_instructions 'No special instructions were received'
_oxdiff_exptl_absorpt_empirical_details
;
Empirical correction (ABSPACK) includes:
- Absorption correction using spherical harmonics
- Frame scaling
;
_oxdiff_exptl_absorpt_empirical_full_max 1.489
_oxdiff_exptl_absorpt_empirical_full_min 0.595
loop_
_space_group_symop_operation_xyz
'x, y, z'
'-x, y, -z+1/2'
'x+1/2, y+1/2, z'
'-x+1/2, y+1/2, -z+1/2'
'-x, -y, -z'
'x, -y, z-1/2'
'-x+1/2, -y+1/2, -z'
'x+1/2, -y+1/2, z-1/2'
loop_
_atom_site_label
_atom_site_type_symbol
_atom_site_fract_x
_atom_site_fract_y
_atom_site_fract_z
_atom_site_U_iso_or_equiv
_atom_site_adp_type
_atom_site_occupancy
_atom_site_site_symmetry_order
_atom_site_calc_flag
_atom_site_refinement_flags_posn
_atom_site_refinement_flags_adp
_atom_site_refinement_flags_occupancy
_atom_site_disorder_assembly
_atom_site_disorder_group
Sb1 Sb 0.27522(2) 0.44598(2) 0.36227(2) 0.02589(6) Uani 1 1 d . . . . .
O1 O 0.2524(2) 0.13183(10) 0.38643(7) 0.0523(7) Uani 1 1 d . . . . .
O2 O 0.04726(19) 0.17347(10) 0.31341(6) 0.0448(6) Uani 1 1 d . . . . .
O3 O 0.64765(17) 0.37703(15) 0.24525(6) 0.0583(9) Uani 1 1 d . . . . .
O4 O 0.79045(15) 0.39450(11) 0.34084(5) 0.0414(6) Uani 1 1 d . . . . .
O5 O 0.2628(2) 0.76253(11) 0.33995(8) 0.0578(8) Uani 1 1 d . . . . .
O6 O 0.49511(18) 0.72220(9) 0.40330(6) 0.0425(6) Uani 1 1 d . . . . .
O7 O -0.2369(2) 0.50007(14) 0.40281(10) 0.0766(12) Uani 1 1 d . . . . .
O8 O -0.0772(2) 0.45800(14) 0.49048(8) 0.0628(9) Uani 1 1 d . . . . .
O9 O 0.22820(15) 0.45667(9) 0.32258(5) 0.0350(5) Uani 1 1 d . . . . .
O10 O 0.32618(15) 0.44041(9) 0.40206(5) 0.0341(5) Uani 1 1 d D . . . .
N1 N 0.16977(17) 0.40015(10) 0.37456(6) 0.0289(5) Uani 1 1 d . . . . .
N2 N 0.33991(16) 0.38037(9) 0.34740(6) 0.0241(5) Uani 1 1 d . . . . .
N3 N 0.38050(16) 0.49140(9) 0.34958(6) 0.0277(5) Uani 1 1 d . . . . .
N4 N 0.21033(17) 0.51140(10) 0.37768(6) 0.0303(6) Uani 1 1 d . . . . .
C1 C 0.0975(2) 0.41725(12) 0.38963(8) 0.0298(6) Uani 1 1 d . . . . .
C2 C 0.0412(2) 0.37357(12) 0.39427(8) 0.0321(7) Uani 1 1 d . . . . .
H2 H -0.013881 0.374258 0.403975 0.038 Uiso 1 1 calc R U . . .
C3 C 0.0797(2) 0.33114(12) 0.38249(7) 0.0314(6) Uani 1 1 d . . . . .
H3 H 0.056800 0.296887 0.382448 0.038 Uiso 1 1 calc R U . . .
C4 C 0.1620(2) 0.34752(11) 0.37003(7) 0.0272(6) Uani 1 1 d . . . . .
C5 C 0.2237(2) 0.31501(11) 0.35692(7) 0.0267(6) Uani 1 1 d . . . . .
C6 C 0.3069(2) 0.33017(11) 0.34725(7) 0.0265(6) Uani 1 1 d . . . . .
C7 C 0.3725(2) 0.29699(13) 0.33511(7) 0.0324(7) Uani 1 1 d . . . . .
H7 H 0.367398 0.260635 0.332208 0.039 Uiso 1 1 calc R U . . .
C8 C 0.4431(2) 0.32649(13) 0.32846(7) 0.0311(6) Uani 1 1 d . . . . .
H8 H 0.496685 0.314337 0.320391 0.037 Uiso 1 1 calc R U . . .
C9 C 0.42323(19) 0.37891(12) 0.33565(7) 0.0256(6) Uani 1 1 d . . . . .
C10 C 0.4773(2) 0.42195(13) 0.33066(7) 0.0295(6) Uani 1 1 d . . . . .
C11 C 0.45545(19) 0.47366(12) 0.33619(7) 0.0288(6) Uani 1 1 d . . . . .
C12 C 0.5068(2) 0.51790(13) 0.32840(8) 0.0349(7) Uani 1 1 d . . . . .
H12 H 0.562370 0.517078 0.319023 0.042 Uiso 1 1 calc R U . . .
C13 C 0.4629(2) 0.56124(13) 0.33663(8) 0.0364(7) Uani 1 1 d . . . . .
H13 H 0.481460 0.596006 0.333702 0.044 Uiso 1 1 calc R U . . .
C14 C 0.3828(2) 0.54478(12) 0.35067(7) 0.0308(6) Uani 1 1 d . . . . .
C15 C 0.3200(2) 0.57779(12) 0.36314(8) 0.0315(7) Uani 1 1 d . . . . .
C16 C 0.2406(2) 0.56178(12) 0.37583(8) 0.0300(6) Uani 1 1 d . . . . .
C17 C 0.1775(2) 0.59463(12) 0.39004(8) 0.0338(7) Uani 1 1 d . . . . .
H17 H 0.180973 0.631240 0.391990 0.041 Uiso 1 1 calc R U . . .
C18 C 0.1118(2) 0.56382(13) 0.40021(9) 0.0369(7) Uani 1 1 d . . . . .
H18 H 0.061439 0.575190 0.410601 0.044 Uiso 1 1 calc R U . . .
C19 C 0.1317(2) 0.51149(12) 0.39256(8) 0.0326(7) Uani 1 1 d . . . . .
C20 C 0.0800(2) 0.46823(13) 0.39851(8) 0.0342(7) Uani 1 1 d . . . . .
C21 C 0.1997(2) 0.25890(12) 0.35401(7) 0.0288(6) Uani 1 1 d . . . . .
C22 C 0.2433(2) 0.22254(13) 0.37145(8) 0.0335(7) Uani 1 1 d . . . . .
H22 H 0.289230 0.232858 0.384580 0.040 Uiso 1 1 calc R U . . .
C23 C 0.2184(3) 0.17060(13) 0.36939(8) 0.0373(7) Uani 1 1 d . . . . .
C24 C 0.1536(3) 0.15557(13) 0.34920(8) 0.0391(8) Uani 1 1 d . . . . .
H24 H 0.138791 0.119964 0.347196 0.047 Uiso 1 1 calc R U . . .
C25 C 0.1105(2) 0.19240(13) 0.33194(8) 0.0351(7) Uani 1 1 d . . . . .
C26 C 0.1330(2) 0.24455(12) 0.33414(7) 0.0310(6) Uani 1 1 d . . . . .
H26 H 0.103663 0.269852 0.322383 0.037 Uiso 1 1 calc R U . . .
C27 C 0.5645(2) 0.41055(12) 0.31720(7) 0.0294(6) Uani 1 1 d . . . . .
C28 C 0.5692(2) 0.39999(15) 0.28723(8) 0.0374(7) Uani 1 1 d . . . . .
H28 H 0.517623 0.401503 0.275193 0.045 Uiso 1 1 calc R U . . .
C29 C 0.6495(2) 0.38711(15) 0.27472(7) 0.0374(7) Uani 1 1 d . . . . .
C30 C 0.7258(2) 0.38527(13) 0.29180(7) 0.0311(6) Uani 1 1 d . . . . .
H30 H 0.780713 0.377079 0.283128 0.037 Uiso 1 1 calc R U . . .
C31 C 0.7200(2) 0.39574(12) 0.32204(7) 0.0294(6) Uani 1 1 d . . . . .
C32 C 0.6402(2) 0.40837(13) 0.33491(7) 0.0310(6) Uani 1 1 d . . . . .
H32 H 0.637306 0.415441 0.355525 0.037 Uiso 1 1 calc R U . . .
C33 C 0.3414(2) 0.63444(12) 0.36488(8) 0.0330(7) Uani 1 1 d . . . . .
C34 C 0.2893(2) 0.67106(13) 0.35019(9) 0.0379(7) Uani 1 1 d . . . . .
H34 H 0.241452 0.660270 0.337990 0.045 Uiso 1 1 calc R U . . .
C35 C 0.3081(2) 0.72342(14) 0.35361(9) 0.0419(8) Uani 1 1 d . . . . .
C36 C 0.3778(2) 0.73923(12) 0.37161(9) 0.0392(8) Uani 1 1 d . . . . .
H36 H 0.390256 0.775077 0.374053 0.047 Uiso 1 1 calc R U . . .
C37 C 0.4290(2) 0.70249(13) 0.38594(8) 0.0349(7) Uani 1 1 d . . . . .
C38 C 0.4118(2) 0.65003(12) 0.38277(8) 0.0317(7) Uani 1 1 d . . . . .
H38 H 0.447382 0.625067 0.392664 0.038 Uiso 1 1 calc R U . . .
C39 C -0.0031(2) 0.47551(12) 0.41562(9) 0.0375(8) Uani 1 1 d . . . . .
C40 C -0.0793(3) 0.48774(14) 0.40010(10) 0.0456(9) Uani 1 1 d . . . . .
H40 H -0.077881 0.494909 0.379480 0.055 Uiso 1 1 calc R U . . .
C41 C -0.1584(2) 0.48926(14) 0.41559(11) 0.0494(10) Uani 1 1 d . . . . .
C42 C -0.1597(2) 0.47841(14) 0.44591(12) 0.0496(11) Uani 1 1 d . . . . .
H42 H -0.213846 0.478468 0.456150 0.059 Uiso 1 1 calc R U . . .
C43 C -0.0832(2) 0.46772(14) 0.46090(10) 0.0432(9) Uani 1 1 d . . . . .
C44 C -0.0034(2) 0.46574(14) 0.44577(9) 0.0411(8) Uani 1 1 d . . . . .
H44 H 0.049702 0.457800 0.456056 0.049 Uiso 1 1 calc R U . . .
C45 C 0.3175(3) 0.14512(17) 0.40829(11) 0.0615(12) Uani 1 1 d . . . . .
H45A H 0.368083 0.161036 0.398590 0.092 Uiso 1 1 calc R U . . .
H45B H 0.336503 0.113740 0.418780 0.092 Uiso 1 1 calc R U . . .
H45C H 0.292509 0.169677 0.422447 0.092 Uiso 1 1 calc R U . . .
C46 C -0.0019(3) 0.20992(16) 0.29626(10) 0.0519(10) Uani 1 1 d . . . . .
H46A H -0.047267 0.191671 0.284756 0.078 Uiso 1 1 calc R U . . .
H46B H 0.037515 0.228140 0.282758 0.078 Uiso 1 1 calc R U . . .
H46C H -0.029727 0.235029 0.309466 0.078 Uiso 1 1 calc R U . . .
C47 C 0.7291(3) 0.3641(3) 0.23158(9) 0.0672(15) Uani 1 1 d . . . . .
H47A H 0.718364 0.354716 0.210833 0.101 Uiso 1 1 calc R U . . .
H47B H 0.756141 0.334755 0.242021 0.101 Uiso 1 1 calc R U . . .
H47C H 0.768751 0.394033 0.232541 0.101 Uiso 1 1 calc R U . . .
C48 C 0.8730(2) 0.37776(18) 0.32952(9) 0.0452(9) Uani 1 1 d . . . . .
H48A H 0.891149 0.401084 0.313596 0.068 Uiso 1 1 calc R U . . .
H48B H 0.867181 0.342441 0.321754 0.068 Uiso 1 1 calc R U . . .
H48C H 0.917229 0.378255 0.345454 0.068 Uiso 1 1 calc R U . . .
C49 C 0.1849(3) 0.74947(17) 0.32401(13) 0.0639(13) Uani 1 1 d . . . . .
H49A H 0.199716 0.727269 0.307176 0.096 Uiso 1 1 calc R U . . .
H49B H 0.156514 0.781190 0.316752 0.096 Uiso 1 1 calc R U . . .
H49C H 0.144686 0.730937 0.337095 0.096 Uiso 1 1 calc R U . . .
C50 C 0.5483(3) 0.68616(15) 0.41961(9) 0.0467(9) Uani 1 1 d . . . . .
H50A H 0.578840 0.663276 0.405788 0.070 Uiso 1 1 calc R U . . .
H50B H 0.510924 0.665399 0.432562 0.070 Uiso 1 1 calc R U . . .
H50C H 0.591581 0.705138 0.431633 0.070 Uiso 1 1 calc R U . . .
C51 C -0.2372(4) 0.5122(2) 0.37082(14) 0.0807(19) Uani 1 1 d . . . . .
H51A H -0.218157 0.481614 0.359700 0.121 Uiso 1 1 calc R U . . .
H51B H -0.196854 0.540992 0.367089 0.121 Uiso 1 1 calc R U . . .
H51C H -0.296686 0.521909 0.364450 0.121 Uiso 1 1 calc R U . . .
C52 C -0.1542(3) 0.44989(16) 0.50683(13) 0.0622(14) Uani 1 1 d . . . . .
H52A H -0.191210 0.424182 0.496700 0.093 Uiso 1 1 calc R U . . .
H52B H -0.186469 0.482606 0.508512 0.093 Uiso 1 1 calc R U . . .
H52C H -0.138559 0.437219 0.526659 0.093 Uiso 1 1 calc R U . . .
C53 C 0.1386(3) 0.4550(2) 0.31537(11) 0.0690(14) Uani 1 1 d . . . . .
H53A H 0.129330 0.468866 0.295376 0.103 Uiso 1 1 calc R U . . .
H53B H 0.105774 0.475901 0.329592 0.103 Uiso 1 1 calc R U . . .
H53C H 0.117989 0.419039 0.316092 0.103 Uiso 1 1 calc R U . . .
C54 C 0.3979(4) 0.4055(2) 0.40968(12) 0.0437(11) Uani 0.678(6) 1 d . . P A 1
H54A H 0.378428 0.369526 0.407014 0.066 Uiso 0.678(6) 1 calc R U P A 1
H54B H 0.415554 0.410957 0.430372 0.066 Uiso 0.678(6) 1 calc R U P A 1
H54C H 0.447893 0.412317 0.396781 0.066 Uiso 0.678(6) 1 calc R U P A 1
Sb1A Sb 0.250000 0.250000 0.500000 0.02203(7) Uani 1 2 d S . P . .
O1A O 0.37567(17) 0.55739(9) 0.47556(6) 0.0402(6) Uani 1 1 d . . . . .
O2A O 0.43469(18) 0.51157(11) 0.57379(6) 0.0487(7) Uani 1 1 d D . . . .
O3A O 0.78162(13) 0.18102(10) 0.47999(5) 0.0363(5) Uani 1 1 d . . . . .
O4A O 0.66666(16) 0.15740(11) 0.57648(6) 0.0434(6) Uani 1 1 d . . . . .
O5A O 0.26180(16) 0.24658(9) 0.54308(6) 0.0360(5) Uani 1 1 d . . . . .
N1A N 0.31343(14) 0.17951(9) 0.49537(6) 0.0242(5) Uani 1 1 d . . . . .
N2A N 0.36962(14) 0.28870(9) 0.50044(6) 0.0246(5) Uani 1 1 d . . . . .
C1A C 0.40327(18) 0.17287(11) 0.49674(7) 0.0256(6) Uani 1 1 d . . . . .
C2A C 0.4216(2) 0.11900(12) 0.49301(8) 0.0328(7) Uani 1 1 d . . . . .
H2A H 0.478056 0.103355 0.492906 0.039 Uiso 1 1 calc R U . . .
C3A C 0.3428(2) 0.09405(12) 0.48960(8) 0.0322(7) Uani 1 1 d . . . . .
H3A H 0.334945 0.057971 0.486334 0.039 Uiso 1 1 calc R U . . .
C4A C 0.27439(18) 0.13188(11) 0.49183(7) 0.0268(6) Uani 1 1 d . . . . .
C5A C 0.31585(19) 0.37811(11) 0.50825(7) 0.0267(6) Uani 1 1 d . . . . .
C6A C 0.38156(18) 0.34101(11) 0.50453(7) 0.0253(6) Uani 1 1 d . . . . .
C7A C 0.47461(18) 0.35069(11) 0.50587(7) 0.0267(6) Uani 1 1 d . . . . .
H7A H 0.501909 0.383670 0.507688 0.032 Uiso 1 1 calc R U . . .
C8A C 0.51633(18) 0.30457(11) 0.50409(7) 0.0259(6) Uani 1 1 d . . . . .
H8A H 0.578099 0.299278 0.504660 0.031 Uiso 1 1 calc R U . . .
C9A C 0.45041(17) 0.26499(11) 0.50118(7) 0.0239(6) Uani 1 1 d . . . . .
C10A C 0.46664(18) 0.21164(11) 0.50054(7) 0.0254(6) Uani 1 1 d . . . . .
C11A C 0.34581(18) 0.43292(11) 0.51361(8) 0.0280(6) Uani 1 1 d . . . . .
C12A C 0.34558(19) 0.46836(11) 0.49051(8) 0.0288(6) Uani 1 1 d . . . . .
H12A H 0.326154 0.458480 0.471254 0.035 Uiso 1 1 calc R U . . .
C13A C 0.37431(19) 0.51858(11) 0.49606(8) 0.0305(6) Uani 1 1 d . . . . .
C14A C 0.40257(19) 0.53295(11) 0.52429(8) 0.0315(7) Uani 1 1 d . . . . .
H14A H 0.420688 0.567573 0.528098 0.038 Uiso 1 1 calc R U . . .
C15A C 0.4042(2) 0.49654(12) 0.54682(8) 0.0318(7) Uani 1 1 d . . . . .
C16A C 0.3748(2) 0.44606(12) 0.54166(8) 0.0311(7) Uani 1 1 d . . . . .
H16A H 0.374759 0.421210 0.557186 0.037 Uiso 1 1 calc R U . . .
C17A C 0.55813(18) 0.19498(11) 0.50852(7) 0.0256(6) Uani 1 1 d . . . . .
C18A C 0.62576(18) 0.19495(11) 0.48784(7) 0.0256(6) Uani 1 1 d . . . . .
H18A H 0.614637 0.203181 0.467638 0.031 Uiso 1 1 calc R U . . .
C19A C 0.70970(18) 0.18251(12) 0.49781(7) 0.0266(6) Uani 1 1 d . . . . .
C20A C 0.72709(19) 0.16950(12) 0.52742(8) 0.0294(6) Uani 1 1 d . . . . .
H20A H 0.785058 0.160984 0.533745 0.035 Uiso 1 1 calc R U . . .
C21A C 0.6590(2) 0.16925(12) 0.54722(7) 0.0299(6) Uani 1 1 d . . . . .
C22A C 0.5734(2) 0.18216(12) 0.53774(8) 0.0307(6) Uani 1 1 d . . . . .
H22A H 0.526376 0.182041 0.551412 0.037 Uiso 1 1 calc R U . . .
C23A C 0.3488(3) 0.54522(14) 0.44619(9) 0.0430(8) Uani 1 1 d . . . . .
H23A H 0.354675 0.576007 0.433654 0.065 Uiso 1 1 calc R U . . .
H23B H 0.287328 0.533909 0.446139 0.065 Uiso 1 1 calc R U . . .
H23C H 0.385830 0.517343 0.438489 0.065 Uiso 1 1 calc R U . . .
C24A C 0.4416(4) 0.4788(2) 0.59525(14) 0.0479(14) Uani 0.678(6) 1 d . . P A 1
H24A H 0.384970 0.461558 0.598154 0.072 Uiso 0.678(6) 1 calc R U P A 1
H24B H 0.458840 0.497040 0.613441 0.072 Uiso 0.678(6) 1 calc R U P A 1
H24C H 0.486292 0.452841 0.590465 0.072 Uiso 0.678(6) 1 calc R U P A 1
C25A C 0.7688(2) 0.19320(16) 0.44953(8) 0.0410(8) Uani 1 1 d . . . . .
H25A H 0.741899 0.227567 0.447713 0.061 Uiso 1 1 calc R U . . .
H25B H 0.730158 0.167276 0.440345 0.061 Uiso 1 1 calc R U . . .
H25C H 0.825669 0.193147 0.439533 0.061 Uiso 1 1 calc R U . . .
C26A C 0.7528(3) 0.14565(19) 0.58788(9) 0.0511(10) Uani 1 1 d . . . . .
H26A H 0.749500 0.138945 0.609198 0.077 Uiso 1 1 calc R U . . .
H26B H 0.791972 0.175100 0.584371 0.077 Uiso 1 1 calc R U . . .
H26C H 0.775673 0.114875 0.577848 0.077 Uiso 1 1 calc R U . . .
C27A C 0.2464(3) 0.20106(17) 0.55856(10) 0.0543(10) Uani 1 1 d . . . . .
H27A H 0.253141 0.207543 0.579846 0.081 Uiso 1 1 calc R U . . .
H27B H 0.288698 0.174589 0.552451 0.081 Uiso 1 1 calc R U . . .
H27C H 0.186600 0.188917 0.554300 0.081 Uiso 1 1 calc R U . . .
P1 P 0.53201(9) 0.24922(6) 0.40390(3) 0.0720(4) Uani 1 1 d . . . . .
F1 F 0.5658(2) 0.27626(15) 0.43337(7) 0.0886(10) Uani 1 1 d . . . . .
F2 F 0.6305(2) 0.22965(17) 0.39867(10) 0.1026(12) Uani 1 1 d . . . . .
F3 F 0.5018(3) 0.22029(17) 0.37410(9) 0.1105(14) Uani 1 1 d . . . . .
F4 F 0.4351(2) 0.2652(2) 0.40727(12) 0.1250(16) Uani 1 1 d . . . . .
F5 F 0.5539(2) 0.30016(14) 0.38558(7) 0.0848(10) Uani 1 1 d . . . . .
F6 F 0.5142(3) 0.19701(19) 0.42195(10) 0.134(2) Uani 1 1 d . . . . .
P2 P 0.000000 0.34689(5) 0.250000 0.0386(3) Uani 1 2 d S T P . .
F7 F 0.07045(16) 0.30315(11) 0.24239(6) 0.0611(7) Uani 1 1 d . . . . .
F8 F 0.03384(17) 0.34663(11) 0.28363(5) 0.0584(6) Uani 1 1 d . . . . .
F9 F 0.07029(15) 0.39084(10) 0.24246(6) 0.0569(6) Uani 1 1 d . . . . .
C24B C 0.4601(7) 0.5571(4) 0.5846(3) 0.043(3) Uani 0.322(6) 1 d D . P A 2
H24D H 0.512867 0.568771 0.574335 0.064 Uiso 0.322(6) 1 calc R U P A 2
H24E H 0.473141 0.553615 0.605835 0.064 Uiso 0.322(6) 1 calc R U P A 2
H24F H 0.412950 0.582551 0.581709 0.064 Uiso 0.322(6) 1 calc R U P A 2
C54C C 0.3160(8) 0.3957(4) 0.4168(2) 0.0437(11) Uani 0.322(6) 1 d D . P A 2
H54D H 0.254905 0.392593 0.423244 0.066 Uiso 0.322(6) 1 calc R U P A 2
H54E H 0.355217 0.395264 0.434148 0.066 Uiso 0.322(6) 1 calc R U P A 2
H54F H 0.330262 0.366590 0.403774 0.066 Uiso 0.322(6) 1 calc R U P A 2
loop_
_atom_site_aniso_label
_atom_site_aniso_U_11
_atom_site_aniso_U_22
_atom_site_aniso_U_33
_atom_site_aniso_U_23
_atom_site_aniso_U_13
_atom_site_aniso_U_12
Sb1 0.02182(10) 0.02189(10) 0.03401(11) -0.00330(7) 0.00254(7) -0.00667(7)
O1 0.0688(19) 0.0262(12) 0.0614(17) 0.0038(12) -0.0216(15) -0.0015(12)
O2 0.0550(16) 0.0311(12) 0.0481(14) 0.0025(11) -0.0146(12) -0.0186(11)
O3 0.0300(13) 0.117(3) 0.0274(12) -0.0117(14) -0.0001(10) 0.0012(15)
O4 0.0252(11) 0.0665(17) 0.0325(12) -0.0068(11) -0.0038(9) 0.0058(11)
O5 0.0476(16) 0.0319(13) 0.094(2) 0.0150(14) -0.0098(16) -0.0019(12)
O6 0.0485(15) 0.0300(12) 0.0490(14) -0.0019(10) -0.0028(12) -0.0149(11)
O7 0.0374(16) 0.073(2) 0.119(3) -0.035(2) -0.0214(18) 0.0171(15)
O8 0.0478(17) 0.076(2) 0.065(2) 0.0172(17) 0.0258(15) 0.0246(15)
O9 0.0277(11) 0.0406(13) 0.0366(12) 0.0026(10) -0.0040(9) -0.0032(9)
O10 0.0290(11) 0.0377(12) 0.0356(12) -0.0082(10) -0.0045(9) -0.0006(9)
N1 0.0243(12) 0.0227(12) 0.0399(14) -0.0018(10) 0.0073(10) -0.0116(10)
N2 0.0206(11) 0.0206(11) 0.0311(12) -0.0044(9) 0.0025(9) -0.0018(9)
N3 0.0231(12) 0.0214(12) 0.0388(14) -0.0030(10) 0.0060(10) -0.0118(9)
N4 0.0245(12) 0.0210(12) 0.0457(15) -0.0073(11) 0.0072(11) -0.0041(10)
C1 0.0224(14) 0.0252(15) 0.0420(17) -0.0007(12) 0.0058(12) -0.0046(11)
C2 0.0259(15) 0.0244(14) 0.0460(18) 0.0004(13) 0.0045(13) -0.0069(12)
C3 0.0280(15) 0.0256(15) 0.0405(17) 0.0023(13) 0.0008(13) -0.0076(12)
C4 0.0272(14) 0.0202(13) 0.0342(15) 0.0001(11) 0.0012(12) -0.0064(11)
C5 0.0265(14) 0.0218(14) 0.0320(15) -0.0016(11) 0.0009(12) -0.0054(11)
C6 0.0264(14) 0.0234(14) 0.0297(14) -0.0020(11) 0.0000(11) -0.0063(11)
C7 0.0323(16) 0.0286(15) 0.0363(16) -0.0039(13) 0.0035(13) -0.0044(13)
C8 0.0273(15) 0.0322(16) 0.0340(16) -0.0017(13) 0.0054(12) -0.0024(12)
C9 0.0209(13) 0.0285(15) 0.0275(14) -0.0008(11) 0.0014(11) -0.0027(11)
C10 0.0257(14) 0.0339(16) 0.0289(15) -0.0018(12) -0.0021(12) -0.0056(12)
C11 0.0219(14) 0.0308(15) 0.0337(15) -0.0009(12) 0.0015(11) -0.0059(12)
C12 0.0274(15) 0.0326(16) 0.0448(18) -0.0007(14) 0.0042(13) -0.0099(13)
C13 0.0332(17) 0.0294(16) 0.0467(19) 0.0035(14) 0.0049(14) -0.0110(13)
C14 0.0295(15) 0.0249(14) 0.0379(17) 0.0006(12) -0.0013(13) -0.0096(12)
C15 0.0294(15) 0.0254(15) 0.0395(17) -0.0004(13) -0.0019(13) -0.0063(12)
C16 0.0304(15) 0.0204(14) 0.0393(17) -0.0029(12) 0.0012(13) -0.0055(12)
C17 0.0315(16) 0.0227(14) 0.0474(19) -0.0040(13) 0.0016(14) -0.0043(12)
C18 0.0298(16) 0.0272(15) 0.054(2) -0.0047(14) 0.0082(15) -0.0063(13)
C19 0.0263(15) 0.0263(15) 0.0452(18) -0.0051(13) 0.0046(13) -0.0042(12)
C20 0.0295(16) 0.0262(15) 0.0469(19) -0.0038(13) 0.0048(14) -0.0045(12)
C21 0.0293(15) 0.0220(14) 0.0351(16) -0.0020(12) 0.0056(12) -0.0061(11)
C22 0.0339(16) 0.0282(16) 0.0382(17) -0.0029(13) -0.0031(13) -0.0060(13)
C23 0.048(2) 0.0237(15) 0.0402(18) -0.0001(13) -0.0031(15) -0.0045(14)
C24 0.048(2) 0.0220(15) 0.047(2) -0.0008(13) -0.0018(16) -0.0111(14)
C25 0.0399(18) 0.0302(16) 0.0351(16) -0.0020(13) -0.0015(14) -0.0136(14)
C26 0.0325(16) 0.0285(15) 0.0321(16) 0.0016(12) 0.0008(13) -0.0061(12)
C27 0.0262(15) 0.0288(15) 0.0333(16) -0.0021(12) 0.0024(12) -0.0067(12)
C28 0.0248(15) 0.054(2) 0.0328(17) 0.0001(15) -0.0031(13) -0.0036(14)
C29 0.0299(16) 0.054(2) 0.0284(16) -0.0002(14) 0.0001(13) -0.0062(15)
C30 0.0255(15) 0.0373(17) 0.0305(15) -0.0007(13) 0.0031(12) -0.0031(12)
C31 0.0249(14) 0.0322(15) 0.0312(15) -0.0019(12) -0.0019(12) -0.0037(12)
C32 0.0286(15) 0.0369(17) 0.0276(15) -0.0035(12) -0.0005(12) -0.0008(13)
C33 0.0287(15) 0.0242(15) 0.0462(18) 0.0017(13) 0.0048(13) -0.0076(12)
C34 0.0347(17) 0.0279(16) 0.051(2) 0.0046(14) 0.0018(15) -0.0099(13)
C35 0.0392(19) 0.0294(17) 0.057(2) 0.0092(15) 0.0043(16) -0.0009(14)
C36 0.045(2) 0.0181(14) 0.055(2) 0.0000(14) 0.0059(16) -0.0085(13)
C37 0.0329(16) 0.0319(16) 0.0399(17) -0.0024(13) 0.0072(13) -0.0101(13)
C38 0.0305(15) 0.0255(15) 0.0393(17) 0.0012(12) 0.0058(13) -0.0067(12)
C39 0.0291(16) 0.0218(14) 0.062(2) -0.0064(14) 0.0060(15) -0.0030(12)
C40 0.0396(19) 0.0298(17) 0.067(3) -0.0102(17) -0.0058(18) 0.0013(15)
C41 0.0322(18) 0.0301(18) 0.086(3) -0.0178(19) -0.0058(19) 0.0032(14)
C42 0.0223(16) 0.0257(16) 0.101(4) -0.0188(19) -0.0001(18) 0.0045(13)
C43 0.0351(18) 0.0282(16) 0.067(3) 0.0005(16) 0.0147(17) 0.0042(14)
C44 0.0265(16) 0.0385(18) 0.058(2) 0.0031(16) 0.0079(15) 0.0041(14)
C45 0.074(3) 0.040(2) 0.070(3) 0.007(2) -0.029(2) 0.002(2)
C46 0.055(2) 0.044(2) 0.057(2) 0.0035(18) -0.0210(19) -0.0181(18)
C47 0.044(2) 0.128(5) 0.0301(19) -0.015(2) 0.0058(16) -0.001(3)
C48 0.0246(16) 0.068(3) 0.043(2) 0.0001(18) -0.0001(14) 0.0083(16)
C49 0.050(3) 0.044(2) 0.097(4) 0.018(2) -0.020(2) -0.0002(19)
C50 0.053(2) 0.043(2) 0.045(2) -0.0006(16) -0.0038(17) -0.0165(17)
C51 0.060(3) 0.078(4) 0.103(4) -0.043(3) -0.045(3) 0.028(3)
C52 0.057(3) 0.039(2) 0.091(4) 0.014(2) 0.040(3) 0.0124(19)
C53 0.042(2) 0.109(4) 0.056(3) 0.004(3) -0.013(2) -0.003(3)
C54 0.047(3) 0.048(3) 0.036(2) 0.004(2) -0.008(2) 0.004(2)
Sb1A 0.01137(11) 0.01565(12) 0.03909(15) -0.00378(9) 0.00045(9) -0.00100(8)
O1A 0.0438(14) 0.0245(11) 0.0522(15) 0.0011(10) -0.0020(11) -0.0089(10)
O2A 0.0421(14) 0.0515(16) 0.0523(16) -0.0200(13) -0.0057(12) -0.0096(12)
O3A 0.0149(9) 0.0541(15) 0.0401(12) -0.0008(11) 0.0052(9) 0.0048(9)
O4A 0.0325(12) 0.0586(16) 0.0390(13) 0.0123(12) -0.0006(10) 0.0003(11)
O5A 0.0335(12) 0.0330(12) 0.0414(13) -0.0056(10) -0.0033(10) -0.0007(9)
N1A 0.0108(10) 0.0122(10) 0.0497(15) -0.0075(10) 0.0008(9) 0.0025(8)
N2A 0.0099(10) 0.0160(11) 0.0480(15) -0.0024(10) 0.0012(9) -0.0030(8)
C1A 0.0137(12) 0.0206(13) 0.0426(16) -0.0030(12) 0.0016(11) 0.0028(10)
C2A 0.0171(13) 0.0215(14) 0.060(2) -0.0042(14) 0.0021(13) 0.0015(11)
C3A 0.0214(14) 0.0186(13) 0.057(2) -0.0054(13) 0.0006(13) -0.0007(11)
C4A 0.0148(12) 0.0221(14) 0.0434(17) -0.0050(12) 0.0022(11) -0.0007(10)
C5A 0.0203(13) 0.0161(13) 0.0436(17) -0.0034(11) -0.0001(12) -0.0025(10)
C6A 0.0161(13) 0.0193(13) 0.0407(16) -0.0049(11) 0.0018(11) -0.0010(10)
C7A 0.0174(13) 0.0225(14) 0.0402(16) 0.0001(12) 0.0012(11) -0.0037(10)
C8A 0.0137(12) 0.0242(14) 0.0399(16) -0.0020(12) 0.0010(11) -0.0036(10)
C9A 0.0105(11) 0.0221(13) 0.0392(16) -0.0033(11) 0.0024(10) -0.0018(10)
C10A 0.0168(12) 0.0221(13) 0.0375(16) 0.0004(11) 0.0022(11) 0.0005(10)
C11A 0.0150(12) 0.0193(13) 0.0498(18) -0.0056(12) 0.0034(12) -0.0013(10)
C12A 0.0201(13) 0.0235(14) 0.0428(17) -0.0048(12) 0.0002(12) -0.0010(11)
C13A 0.0207(14) 0.0206(14) 0.0503(19) -0.0015(13) 0.0033(13) -0.0038(11)
C14A 0.0220(14) 0.0179(13) 0.055(2) -0.0076(13) 0.0023(13) -0.0103(11)
C15A 0.0200(13) 0.0265(15) 0.0490(19) -0.0082(13) 0.0008(13) -0.0041(11)
C16A 0.0222(14) 0.0256(15) 0.0455(18) -0.0008(13) 0.0027(13) 0.0000(11)
C17A 0.0162(12) 0.0188(13) 0.0418(16) 0.0001(11) 0.0021(11) -0.0025(10)
C18A 0.0151(12) 0.0238(13) 0.0380(16) 0.0004(12) -0.0007(11) 0.0005(10)
C19A 0.0143(12) 0.0264(14) 0.0391(16) -0.0023(12) 0.0047(11) -0.0008(10)
C20A 0.0181(13) 0.0255(14) 0.0445(17) 0.0011(13) -0.0033(12) 0.0032(11)
C21A 0.0248(14) 0.0263(15) 0.0387(17) 0.0026(12) -0.0007(12) 0.0015(11)
C22A 0.0199(14) 0.0291(15) 0.0432(17) 0.0039(13) 0.0044(12) -0.0010(11)
C23A 0.048(2) 0.0320(17) 0.050(2) 0.0035(15) 0.0031(17) -0.0068(15)
C24A 0.047(3) 0.048(3) 0.048(3) -0.008(3) -0.007(3) -0.004(3)
C25A 0.0235(15) 0.058(2) 0.0416(19) -0.0049(16) 0.0101(13) 0.0012(15)
C26A 0.0362(19) 0.071(3) 0.045(2) 0.016(2) -0.0077(16) -0.0011(19)
C27A 0.070(3) 0.046(2) 0.047(2) 0.0045(18) 0.003(2) -0.001(2)
P1 0.0488(7) 0.0990(11) 0.0676(8) 0.0320(7) -0.0221(6) -0.0202(6)
F1 0.097(2) 0.108(3) 0.0599(18) 0.0124(18) -0.0066(17) -0.012(2)
F2 0.076(2) 0.108(3) 0.122(3) 0.008(2) -0.028(2) 0.008(2)
F3 0.117(3) 0.118(3) 0.096(3) 0.020(2) -0.049(2) -0.033(3)
F4 0.0494(19) 0.160(4) 0.166(4) 0.009(3) 0.001(2) -0.006(2)
F5 0.079(2) 0.099(2) 0.076(2) 0.0360(18) -0.0230(16) -0.0136(18)
F6 0.139(4) 0.137(4) 0.123(3) 0.074(3) -0.068(3) -0.075(3)
P2 0.0281(6) 0.0461(7) 0.0416(7) 0.000 0.0039(5) 0.000
F7 0.0465(13) 0.0629(16) 0.0737(17) -0.0132(13) -0.0013(12) 0.0152(12)
F8 0.0547(14) 0.0755(17) 0.0449(13) -0.0001(12) -0.0033(11) -0.0029(12)
F9 0.0397(12) 0.0628(15) 0.0686(16) 0.0022(12) 0.0138(11) -0.0093(11)
C24B 0.034(6) 0.038(6) 0.056(7) -0.020(5) -0.010(5) 0.001(4)
C54C 0.047(3) 0.048(3) 0.036(2) 0.004(2) -0.008(2) 0.004(2)
loop_
_atom_type_symbol
_atom_type_description
_atom_type_scat_dispersion_real
_atom_type_scat_dispersion_imag
_atom_type_scat_source
C C 0.0181 0.0091 'International Tables Vol C Tables 4.2.6.8 and 6.1.1.4'
F F 0.0727 0.0534 'International Tables Vol C Tables 4.2.6.8 and 6.1.1.4'
H H 0.0000 0.0000 'International Tables Vol C Tables 4.2.6.8 and 6.1.1.4'
N N 0.0311 0.0180 'International Tables Vol C Tables 4.2.6.8 and 6.1.1.4'
O O 0.0492 0.0322 'International Tables Vol C Tables 4.2.6.8 and 6.1.1.4'
P P 0.2955 0.4335 'International Tables Vol C Tables 4.2.6.8 and 6.1.1.4'
Sb Sb -0.0562 5.8946 'International Tables Vol C Tables 4.2.6.8 and 6.1.1.4'
loop_
_geom_angle_atom_site_label_1
_geom_angle_atom_site_label_2
_geom_angle_atom_site_label_3
_geom_angle
_geom_angle_site_symmetry_1
_geom_angle_site_symmetry_3
_geom_angle_publ_flag
O9 Sb1 O10 175.74(10) . . ?
O9 Sb1 N1 92.84(10) . . ?
O9 Sb1 N2 89.34(10) . . ?
O9 Sb1 N3 86.70(10) . . ?
O9 Sb1 N4 91.25(11) . . ?
O10 Sb1 N1 90.72(11) . . ?
O10 Sb1 N2 93.03(10) . . ?
O10 Sb1 N3 89.75(10) . . ?
O10 Sb1 N4 86.40(11) . . ?
N1 Sb1 N4 90.08(10) . . ?
N2 Sb1 N1 89.59(10) . . ?
N2 Sb1 N4 179.33(11) . . ?
N3 Sb1 N1 179.41(11) . . ?
N3 Sb1 N2 90.04(10) . . ?
N3 Sb1 N4 90.29(10) . . ?
C23 O1 C45 118.0(3) . . ?
C25 O2 C46 117.5(3) . . ?
C29 O3 C47 117.3(3) . . ?
C31 O4 C48 118.3(3) . . ?
C35 O5 C49 117.9(3) . . ?
C37 O6 C50 117.5(3) . . ?
C41 O7 C51 117.0(4) . . ?
C43 O8 C52 119.6(4) . . ?
C53 O9 Sb1 124.0(3) . . ?
C54 O10 Sb1 123.5(3) . . ?
C54C O10 Sb1 118.2(5) . . ?
C1 N1 Sb1 125.2(2) . . ?
C1 N1 C4 108.8(2) . . ?
C4 N1 Sb1 126.0(2) . . ?
C6 N2 Sb1 126.11(19) . . ?
C9 N2 Sb1 126.02(19) . . ?
C9 N2 C6 107.9(2) . . ?
C11 N3 Sb1 125.6(2) . . ?
C11 N3 C14 109.1(2) . . ?
C14 N3 Sb1 125.1(2) . . ?
C16 N4 Sb1 125.7(2) . . ?
C19 N4 Sb1 125.6(2) . . ?
C19 N4 C16 108.7(3) . . ?
N1 C1 C2 107.7(3) . . ?
N1 C1 C20 126.8(3) . . ?
C20 C1 C2 125.5(3) . . ?
C1 C2 H2 125.8 . . ?
C3 C2 C1 108.4(3) . . ?
C3 C2 H2 125.8 . . ?
C2 C3 H3 126.3 . . ?
C2 C3 C4 107.4(3) . . ?
C4 C3 H3 126.3 . . ?
N1 C4 C3 107.7(3) . . ?
N1 C4 C5 126.7(3) . . ?
C5 C4 C3 125.5(3) . . ?
C4 C5 C6 125.4(3) . . ?
C4 C5 C21 117.0(3) . . ?
C6 C5 C21 117.6(3) . . ?
N2 C6 C5 126.0(3) . . ?
N2 C6 C7 107.8(3) . . ?
C5 C6 C7 126.2(3) . . ?
C6 C7 H7 126.0 . . ?
C8 C7 C6 107.9(3) . . ?
C8 C7 H7 126.0 . . ?
C7 C8 H8 125.9 . . ?
C7 C8 C9 108.2(3) . . ?
C9 C8 H8 125.9 . . ?
N2 C9 C8 108.2(3) . . ?
N2 C9 C10 125.7(3) . . ?
C10 C9 C8 126.1(3) . . ?
C9 C10 C27 115.8(3) . . ?
C11 C10 C9 125.9(3) . . ?
C11 C10 C27 118.3(3) . . ?
N3 C11 C10 126.6(3) . . ?
N3 C11 C12 107.5(3) . . ?
C10 C11 C12 125.9(3) . . ?
C11 C12 H12 125.7 . . ?
C13 C12 C11 108.6(3) . . ?
C13 C12 H12 125.7 . . ?
C12 C13 H13 126.3 . . ?
C12 C13 C14 107.4(3) . . ?
C14 C13 H13 126.3 . . ?
N3 C14 C13 107.4(3) . . ?
N3 C14 C15 127.1(3) . . ?
C15 C14 C13 125.5(3) . . ?
C14 C15 C16 125.3(3) . . ?
C14 C15 C33 117.6(3) . . ?
C16 C15 C33 116.9(3) . . ?
N4 C16 C15 126.2(3) . . ?
N4 C16 C17 107.6(3) . . ?
C15 C16 C17 126.2(3) . . ?
C16 C17 H17 126.2 . . ?
C18 C17 C16 107.7(3) . . ?
C18 C17 H17 126.2 . . ?
C17 C18 H18 125.9 . . ?
C17 C18 C19 108.2(3) . . ?
C19 C18 H18 125.9 . . ?
N4 C19 C18 107.9(3) . . ?
N4 C19 C20 126.0(3) . . ?
C20 C19 C18 126.2(3) . . ?
C1 C20 C39 115.4(3) . . ?
C19 C20 C1 126.0(3) . . ?
C19 C20 C39 118.7(3) . . ?
C22 C21 C5 119.3(3) . . ?
C22 C21 C26 121.6(3) . . ?
C26 C21 C5 119.1(3) . . ?
C21 C22 H22 120.5 . . ?
C21 C22 C23 118.9(3) . . ?
C23 C22 H22 120.5 . . ?
O1 C23 C22 124.6(3) . . ?
O1 C23 C24 115.3(3) . . ?
C24 C23 C22 120.1(3) . . ?
C23 C24 H24 119.9 . . ?
C25 C24 C23 120.3(3) . . ?
C25 C24 H24 119.9 . . ?
O2 C25 C24 115.2(3) . . ?
O2 C25 C26 124.3(3) . . ?
C24 C25 C26 120.5(3) . . ?
C21 C26 H26 120.7 . . ?
C25 C26 C21 118.6(3) . . ?
C25 C26 H26 120.7 . . ?
C28 C27 C10 119.4(3) . . ?
C28 C27 C32 120.1(3) . . ?
C32 C27 C10 120.4(3) . . ?
C27 C28 H28 120.1 . . ?
C27 C28 C29 119.9(3) . . ?
C29 C28 H28 120.1 . . ?
O3 C29 C28 115.8(3) . . ?
O3 C29 C30 123.2(3) . . ?
C30 C29 C28 121.1(3) . . ?
C29 C30 H30 120.8 . . ?
C29 C30 C31 118.3(3) . . ?
C31 C30 H30 120.8 . . ?
O4 C31 C30 123.2(3) . . ?
O4 C31 C32 115.5(3) . . ?
C32 C31 C30 121.4(3) . . ?
C27 C32 H32 120.4 . . ?
C31 C32 C27 119.2(3) . . ?
C31 C32 H32 120.4 . . ?
C34 C33 C15 120.8(3) . . ?
C38 C33 C15 118.5(3) . . ?
C38 C33 C34 120.6(3) . . ?
C33 C34 H34 120.3 . . ?
C35 C34 C33 119.3(3) . . ?
C35 C34 H34 120.3 . . ?
O5 C35 C34 124.5(4) . . ?
O5 C35 C36 115.2(3) . . ?
C34 C35 C36 120.3(3) . . ?
C35 C36 H36 120.2 . . ?
C37 C36 C35 119.6(3) . . ?
C37 C36 H36 120.2 . . ?
O6 C37 C36 114.9(3) . . ?
O6 C37 C38 124.1(3) . . ?
C36 C37 C38 121.1(3) . . ?
C33 C38 H38 120.5 . . ?
C37 C38 C33 119.0(3) . . ?
C37 C38 H38 120.5 . . ?
C40 C39 C20 118.3(4) . . ?
C44 C39 C20 119.8(3) . . ?
C44 C39 C40 121.8(3) . . ?
C39 C40 H40 120.8 . . ?
C39 C40 C41 118.3(4) . . ?
C41 C40 H40 120.8 . . ?
O7 C41 C40 123.7(5) . . ?
O7 C41 C42 116.0(4) . . ?
C42 C41 C40 120.3(4) . . ?
C41 C42 H42 119.8 . . ?
C43 C42 C41 120.3(4) . . ?
C43 C42 H42 119.8 . . ?
O8 C43 C42 124.8(4) . . ?
O8 C43 C44 115.0(4) . . ?
C42 C43 C44 120.2(4) . . ?
C39 C44 C43 119.1(4) . . ?
C39 C44 H44 120.5 . . ?
C43 C44 H44 120.5 . . ?
O1 C45 H45A 109.5 . . ?
O1 C45 H45B 109.5 . . ?
O1 C45 H45C 109.5 . . ?
H45A C45 H45B 109.5 . . ?
H45A C45 H45C 109.5 . . ?
H45B C45 H45C 109.5 . . ?
O2 C46 H46A 109.5 . . ?
O2 C46 H46B 109.5 . . ?
O2 C46 H46C 109.5 . . ?
H46A C46 H46B 109.5 . . ?
H46A C46 H46C 109.5 . . ?
H46B C46 H46C 109.5 . . ?
O3 C47 H47A 109.5 . . ?
O3 C47 H47B 109.5 . . ?
O3 C47 H47C 109.5 . . ?
H47A C47 H47B 109.5 . . ?
H47A C47 H47C 109.5 . . ?
H47B C47 H47C 109.5 . . ?
O4 C48 H48A 109.5 . . ?
O4 C48 H48B 109.5 . . ?
O4 C48 H48C 109.5 . . ?
H48A C48 H48B 109.5 . . ?
H48A C48 H48C 109.5 . . ?
H48B C48 H48C 109.5 . . ?
O5 C49 H49A 109.5 . . ?
O5 C49 H49B 109.5 . . ?
O5 C49 H49C 109.5 . . ?
H49A C49 H49B 109.5 . . ?
H49A C49 H49C 109.5 . . ?
H49B C49 H49C 109.5 . . ?
O6 C50 H50A 109.5 . . ?
O6 C50 H50B 109.5 . . ?
O6 C50 H50C 109.5 . . ?
H50A C50 H50B 109.5 . . ?
H50A C50 H50C 109.5 . . ?
H50B C50 H50C 109.5 . . ?
O7 C51 H51A 109.5 . . ?
O7 C51 H51B 109.5 . . ?
O7 C51 H51C 109.5 . . ?
H51A C51 H51B 109.5 . . ?
H51A C51 H51C 109.5 . . ?
H51B C51 H51C 109.5 . . ?
O8 C52 H52A 109.5 . . ?
O8 C52 H52B 109.5 . . ?
O8 C52 H52C 109.5 . . ?
H52A C52 H52B 109.5 . . ?
H52A C52 H52C 109.5 . . ?
H52B C52 H52C 109.5 . . ?
O9 C53 H53A 109.5 . . ?
O9 C53 H53B 109.5 . . ?
O9 C53 H53C 109.5 . . ?
H53A C53 H53B 109.5 . . ?
H53A C53 H53C 109.5 . . ?
H53B C53 H53C 109.5 . . ?
O10 C54 H54A 109.5 . . ?
O10 C54 H54B 109.5 . . ?
O10 C54 H54C 109.5 . . ?
H54A C54 H54B 109.5 . . ?
H54A C54 H54C 109.5 . . ?
H54B C54 H54C 109.5 . . ?
O5A Sb1A O5A 180.00(14) . 7_556 ?
O5A Sb1A N1A 91.33(10) 7_556 7_556 ?
O5A Sb1A N1A 88.67(10) . 7_556 ?
O5A Sb1A N1A 91.33(10) . . ?
O5A Sb1A N1A 88.67(10) 7_556 . ?
O5A Sb1A N2A 93.37(10) . 7_556 ?
O5A Sb1A N2A 86.63(10) . . ?
O5A Sb1A N2A 93.37(10) 7_556 . ?
O5A Sb1A N2A 86.63(10) 7_556 7_556 ?
N1A Sb1A N1A 180.0 . 7_556 ?
N1A Sb1A N2A 89.22(9) . 7_556 ?
N1A Sb1A N2A 90.78(9) 7_556 7_556 ?
N1A Sb1A N2A 89.22(9) 7_556 . ?
N1A Sb1A N2A 90.78(9) . . ?
N2A Sb1A N2A 180.0 7_556 . ?
C13A O1A C23A 117.7(3) . . ?
C24A O2A C15A 120.8(4) . . ?
C24B O2A C15A 132.8(7) . . ?
C19A O3A C25A 117.5(2) . . ?
C21A O4A C26A 117.6(3) . . ?
C27A O5A Sb1A 121.7(2) . . ?
C1A N1A Sb1A 124.61(18) . . ?
C4A N1A Sb1A 126.59(18) . . ?
C4A N1A C1A 108.7(2) . . ?
C6A N2A Sb1A 126.04(18) . . ?
C9A N2A Sb1A 124.80(18) . . ?
C9A N2A C6A 108.5(2) . . ?
N1A C1A C2A 108.1(2) . . ?
N1A C1A C10A 126.8(3) . . ?
C10A C1A C2A 125.1(3) . . ?
C1A C2A H2A 126.3 . . ?
C3A C2A C1A 107.4(3) . . ?
C3A C2A H2A 126.3 . . ?
C2A C3A H3A 126.0 . . ?
C2A C3A C4A 108.0(3) . . ?
C4A C3A H3A 126.0 . . ?
N1A C4A C3A 107.7(2) . . ?
N1A C4A C5A 126.1(3) . 7_556 ?
C5A C4A C3A 126.1(3) 7_556 . ?
C4A C5A C11A 118.0(3) 7_556 . ?
C6A C5A C4A 125.4(3) . 7_556 ?
C6A C5A C11A 116.6(2) . . ?
N2A C6A C5A 126.6(3) . . ?
N2A C6A C7A 107.8(2) . . ?
C5A C6A C7A 125.6(3) . . ?
C6A C7A H7A 126.0 . . ?
C8A C7A C6A 107.9(2) . . ?
C8A C7A H7A 126.0 . . ?
C7A C8A H8A 126.2 . . ?
C7A C8A C9A 107.7(2) . . ?
C9A C8A H8A 126.2 . . ?
N2A C9A C8A 108.1(2) . . ?
N2A C9A C10A 126.6(2) . . ?
C10A C9A C8A 125.3(3) . . ?
C1A C10A C9A 125.8(3) . . ?
C1A C10A C17A 117.5(2) . . ?
C9A C10A C17A 116.2(2) . . ?
C12A C11A C5A 120.0(3) . . ?
C16A C11A C5A 118.2(3) . . ?
C16A C11A C12A 121.8(3) . . ?
C11A C12A H12A 120.6 . . ?
C11A C12A C13A 118.7(3) . . ?
C13A C12A H12A 120.6 . . ?
O1A C13A C12A 124.7(3) . . ?
O1A C13A C14A 114.8(3) . . ?
C12A C13A C14A 120.5(3) . . ?
C13A C14A H14A 120.2 . . ?
C15A C14A C13A 119.7(3) . . ?
C15A C14A H14A 120.2 . . ?
O2A C15A C14A 118.0(3) . . ?
O2A C15A C16A 121.5(3) . . ?
C14A C15A C16A 120.5(3) . . ?
C11A C16A C15A 118.8(3) . . ?
C11A C16A H16A 120.6 . . ?
C15A C16A H16A 120.6 . . ?
C18A C17A C10A 122.0(3) . . ?
C22A C17A C10A 116.5(3) . . ?
C22A C17A C18A 121.5(3) . . ?
C17A C18A H18A 121.1 . . ?
C19A C18A C17A 117.8(3) . . ?
C19A C18A H18A 121.1 . . ?
O3A C19A C18A 123.8(3) . . ?
O3A C19A C20A 114.3(3) . . ?
C18A C19A C20A 121.9(3) . . ?
C19A C20A H20A 120.5 . . ?
C21A C20A C19A 119.1(3) . . ?
C21A C20A H20A 120.5 . . ?
O4A C21A C20A 125.1(3) . . ?
O4A C21A C22A 114.7(3) . . ?
C20A C21A C22A 120.2(3) . . ?
C17A C22A C21A 119.6(3) . . ?
C17A C22A H22A 120.2 . . ?
C21A C22A H22A 120.2 . . ?
O1A C23A H23A 109.5 . . ?
O1A C23A H23B 109.5 . . ?
O1A C23A H23C 109.5 . . ?
H23A C23A H23B 109.5 . . ?
H23A C23A H23C 109.5 . . ?
H23B C23A H23C 109.5 . . ?
O2A C24A H24A 109.5 . . ?
O2A C24A H24B 109.5 . . ?
O2A C24A H24C 109.5 . . ?
H24A C24A H24B 109.5 . . ?
H24A C24A H24C 109.5 . . ?
H24B C24A H24C 109.5 . . ?
O3A C25A H25A 109.5 . . ?
O3A C25A H25B 109.5 . . ?
O3A C25A H25C 109.5 . . ?
H25A C25A H25B 109.5 . . ?
H25A C25A H25C 109.5 . . ?
H25B C25A H25C 109.5 . . ?
O4A C26A H26A 109.5 . . ?
O4A C26A H26B 109.5 . . ?
O4A C26A H26C 109.5 . . ?
H26A C26A H26B 109.5 . . ?
H26A C26A H26C 109.5 . . ?
H26B C26A H26C 109.5 . . ?
O5A C27A H27A 109.5 . . ?
O5A C27A H27B 109.5 . . ?
O5A C27A H27C 109.5 . . ?
H27A C27A H27B 109.5 . . ?
H27A C27A H27C 109.5 . . ?
H27B C27A H27C 109.5 . . ?
F1 P1 F2 88.1(2) . . ?
F1 P1 F3 177.4(3) . . ?
F1 P1 F5 90.3(2) . . ?
F1 P1 F6 89.9(2) . . ?
F2 P1 F3 89.4(3) . . ?
F4 P1 F1 95.8(3) . . ?
F4 P1 F2 175.9(3) . . ?
F4 P1 F3 86.7(3) . . ?
F4 P1 F5 92.0(2) . . ?
F4 P1 F6 90.4(3) . . ?
F5 P1 F2 89.0(2) . . ?
F5 P1 F3 90.4(2) . . ?
F5 P1 F6 177.5(3) . . ?
F6 P1 F2 88.5(3) . . ?
F6 P1 F3 89.3(2) . . ?
F7 P2 F7 90.1(2) . 2 ?
F7 P2 F8 89.52(14) . . ?
F7 P2 F8 90.14(14) 2 . ?
F7 P2 F8 90.14(14) . 2 ?
F7 P2 F8 89.51(14) 2 2 ?
F7 P2 F9 179.77(18) 2 . ?
F7 P2 F9 90.17(14) 2 2 ?
F7 P2 F9 179.77(18) . 2 ?
F7 P2 F9 90.16(14) . . ?
F8 P2 F8 179.5(2) . 2 ?
F9 P2 F8 89.78(14) 2 2 ?
F9 P2 F8 89.78(14) . . ?
F9 P2 F8 90.56(14) . 2 ?
F9 P2 F8 90.57(14) 2 . ?
F9 P2 F9 89.6(2) 2 . ?
O2A C24B H24D 109.5 . . ?
O2A C24B H24E 109.5 . . ?
O2A C24B H24F 109.5 . . ?
H24D C24B H24E 109.5 . . ?
H24D C24B H24F 109.5 . . ?
H24E C24B H24F 109.5 . . ?
O10 C54C H54D 109.5 . . ?
O10 C54C H54E 109.5 . . ?
O10 C54C H54F 109.5 . . ?
H54D C54C H54E 109.5 . . ?
H54D C54C H54F 109.5 . . ?
H54E C54C H54F 109.5 . . ?
loop_
_geom_bond_atom_site_label_1
_geom_bond_atom_site_label_2
_geom_bond_distance
_geom_bond_site_symmetry_2
_geom_bond_publ_flag
Sb1 O9 1.942(2) . ?
Sb1 O10 1.954(2) . ?
Sb1 N1 2.074(2) . ?
Sb1 N2 2.074(2) . ?
Sb1 N3 2.071(2) . ?
Sb1 N4 2.079(3) . ?
O1 C23 1.361(4) . ?
O1 C45 1.433(5) . ?
O2 C25 1.359(4) . ?
O2 C46 1.425(5) . ?
O3 C29 1.356(4) . ?
O3 C47 1.431(5) . ?
O4 C31 1.361(4) . ?
O4 C48 1.428(4) . ?
O5 C35 1.365(5) . ?
O5 C49 1.421(5) . ?
O6 C37 1.366(4) . ?
O6 C50 1.431(5) . ?
O7 C41 1.350(5) . ?
O7 C51 1.478(8) . ?
O8 C43 1.361(5) . ?
O8 C52 1.408(5) . ?
O9 C53 1.399(5) . ?
O10 C54 1.454(6) . ?
O10 C54C 1.342(8) . ?
N1 C1 1.373(4) . ?
N1 C4 1.378(4) . ?
N2 C6 1.389(4) . ?
N2 C9 1.381(4) . ?
N3 C11 1.375(4) . ?
N3 C14 1.379(4) . ?
N4 C16 1.382(4) . ?
N4 C19 1.379(4) . ?
C1 C2 1.433(4) . ?
C1 C20 1.401(5) . ?
C2 H2 0.9500 . ?
C2 C3 1.354(5) . ?
C3 H3 0.9500 . ?
C3 C4 1.442(4) . ?
C4 C5 1.396(4) . ?
C5 C6 1.400(4) . ?
C5 C21 1.498(4) . ?
C6 C7 1.429(4) . ?
C7 H7 0.9500 . ?
C7 C8 1.354(4) . ?
C8 H8 0.9500 . ?
C8 C9 1.424(4) . ?
C9 C10 1.402(4) . ?
C10 C11 1.398(5) . ?
C10 C27 1.496(4) . ?
C11 C12 1.430(4) . ?
C12 H12 0.9500 . ?
C12 C13 1.357(5) . ?
C13 H13 0.9500 . ?
C13 C14 1.444(5) . ?
C14 C15 1.403(5) . ?
C15 C16 1.404(5) . ?
C15 C33 1.500(4) . ?
C16 C17 1.438(5) . ?
C17 H17 0.9500 . ?
C17 C18 1.361(5) . ?
C18 H18 0.9500 . ?
C18 C19 1.427(5) . ?
C19 C20 1.393(4) . ?
C20 C39 1.501(5) . ?
C21 C22 1.388(5) . ?
C21 C26 1.397(5) . ?
C22 H22 0.9500 . ?
C22 C23 1.395(4) . ?
C23 C24 1.390(5) . ?
C24 H24 0.9500 . ?
C24 C25 1.389(5) . ?
C25 C26 1.392(4) . ?
C26 H26 0.9500 . ?
C27 C28 1.383(5) . ?
C27 C32 1.396(4) . ?
C28 H28 0.9500 . ?
C28 C29 1.393(5) . ?
C29 C30 1.388(5) . ?
C30 H30 0.9500 . ?
C30 C31 1.396(4) . ?
C31 C32 1.390(4) . ?
C32 H32 0.9500 . ?
C33 C34 1.397(5) . ?
C33 C38 1.393(5) . ?
C34 H34 0.9500 . ?
C34 C35 1.389(5) . ?
C35 C36 1.391(5) . ?
C36 H36 0.9500 . ?
C36 C37 1.383(5) . ?
C37 C38 1.386(4) . ?
C38 H38 0.9500 . ?
C39 C40 1.385(5) . ?
C39 C44 1.385(6) . ?
C40 H40 0.9500 . ?
C40 C41 1.401(6) . ?
C41 C42 1.398(7) . ?
C42 H42 0.9500 . ?
C42 C43 1.368(6) . ?
C43 C44 1.401(5) . ?
C44 H44 0.9500 . ?
C45 H45A 0.9800 . ?
C45 H45B 0.9800 . ?
C45 H45C 0.9800 . ?
C46 H46A 0.9800 . ?
C46 H46B 0.9800 . ?
C46 H46C 0.9800 . ?
C47 H47A 0.9800 . ?
C47 H47B 0.9800 . ?
C47 H47C 0.9800 . ?
C48 H48A 0.9800 . ?
C48 H48B 0.9800 . ?
C48 H48C 0.9800 . ?
C49 H49A 0.9800 . ?
C49 H49B 0.9800 . ?
C49 H49C 0.9800 . ?
C50 H50A 0.9800 . ?
C50 H50B 0.9800 . ?
C50 H50C 0.9800 . ?
C51 H51A 0.9800 . ?
C51 H51B 0.9800 . ?
C51 H51C 0.9800 . ?
C52 H52A 0.9800 . ?
C52 H52B 0.9800 . ?
C52 H52C 0.9800 . ?
C53 H53A 0.9800 . ?
C53 H53B 0.9800 . ?
C53 H53C 0.9800 . ?
C54 H54A 0.9800 . ?
C54 H54B 0.9800 . ?
C54 H54C 0.9800 . ?
Sb1A O5A 1.954(2) . ?
Sb1A O5A 1.954(2) 7_556 ?
Sb1A N1A 2.071(2) . ?
Sb1A N1A 2.071(2) 7_556 ?
Sb1A N2A 2.076(2) 7_556 ?
Sb1A N2A 2.076(2) . ?
O1A C13A 1.364(4) . ?
O1A C23A 1.418(5) . ?
O2A C15A 1.355(4) . ?
O2A C24A 1.290(7) . ?
O2A C24B 1.329(7) . ?
O3A C19A 1.366(3) . ?
O3A C25A 1.422(4) . ?
O4A C21A 1.360(4) . ?
O4A C26A 1.435(4) . ?
O5A C27A 1.388(5) . ?
N1A C1A 1.379(3) . ?
N1A C4A 1.373(4) . ?
N2A C6A 1.374(4) . ?
N2A C9A 1.373(3) . ?
C1A C2A 1.428(4) . ?
C1A C10A 1.399(4) . ?
C2A H2A 0.9500 . ?
C2A C3A 1.367(4) . ?
C3A H3A 0.9500 . ?
C3A C4A 1.432(4) . ?
C4A C5A 1.397(4) 7_556 ?
C5A C6A 1.396(4) . ?
C5A C11A 1.505(4) . ?
C6A C7A 1.439(4) . ?
C7A H7A 0.9500 . ?
C7A C8A 1.352(4) . ?
C8A H8A 0.9500 . ?
C8A C9A 1.437(4) . ?
C9A C10A 1.399(4) . ?
C10A C17A 1.497(4) . ?
C11A C12A 1.387(5) . ?
C11A C16A 1.379(5) . ?
C12A H12A 0.9500 . ?
C12A C13A 1.389(4) . ?
C13A C14A 1.391(5) . ?
C14A H14A 0.9500 . ?
C14A C15A 1.384(5) . ?
C15A C16A 1.396(4) . ?
C16A H16A 0.9500 . ?
C17A C18A 1.397(4) . ?
C17A C22A 1.378(5) . ?
C18A H18A 0.9500 . ?
C18A C19A 1.387(4) . ?
C19A C20A 1.401(5) . ?
C20A H20A 0.9500 . ?
C20A C21A 1.376(5) . ?
C21A C22A 1.407(4) . ?
C22A H22A 0.9500 . ?
C23A H23A 0.9800 . ?
C23A H23B 0.9800 . ?
C23A H23C 0.9800 . ?
C24A H24A 0.9800 . ?
C24A H24B 0.9800 . ?
C24A H24C 0.9800 . ?
C25A H25A 0.9800 . ?
C25A H25B 0.9800 . ?
C25A H25C 0.9800 . ?
C26A H26A 0.9800 . ?
C26A H26B 0.9800 . ?
C26A H26C 0.9800 . ?
C27A H27A 0.9800 . ?
C27A H27B 0.9800 . ?
C27A H27C 0.9800 . ?
P1 F1 1.583(4) . ?
P1 F2 1.602(4) . ?
P1 F3 1.602(4) . ?
P1 F4 1.542(4) . ?
P1 F5 1.590(3) . ?
P1 F6 1.599(4) . ?
P2 F7 1.597(3) . ?
P2 F7 1.597(3) 2 ?
P2 F8 1.598(2) 2 ?
P2 F8 1.598(2) . ?
P2 F9 1.598(2) 2 ?
P2 F9 1.598(3) . ?
C24B H24D 0.9800 . ?
C24B H24E 0.9800 . ?
C24B H24F 0.9800 . ?
C54C H54D 0.9800 . ?
C54C H54E 0.9800 . ?
C54C H54F 0.9800 . ?
loop_
_geom_torsion_atom_site_label_1
_geom_torsion_atom_site_label_2
_geom_torsion_atom_site_label_3
_geom_torsion_atom_site_label_4
_geom_torsion
_geom_torsion_site_symmetry_1
_geom_torsion_site_symmetry_2
_geom_torsion_site_symmetry_3
_geom_torsion_site_symmetry_4
_geom_torsion_publ_flag
Sb1 N1 C1 C2 -178.8(2) . . . . ?
Sb1 N1 C1 C20 2.4(5) . . . . ?
Sb1 N1 C4 C3 178.8(2) . . . . ?
Sb1 N1 C4 C5 1.3(5) . . . . ?
Sb1 N2 C6 C5 0.5(4) . . . . ?
Sb1 N2 C6 C7 179.7(2) . . . . ?
Sb1 N2 C9 C8 179.6(2) . . . . ?
Sb1 N2 C9 C10 -2.7(4) . . . . ?
Sb1 N3 C11 C10 -5.0(5) . . . . ?
Sb1 N3 C11 C12 174.0(2) . . . . ?
Sb1 N3 C14 C13 -173.2(2) . . . . ?
Sb1 N3 C14 C15 7.1(5) . . . . ?
Sb1 N4 C16 C15 0.4(5) . . . . ?
Sb1 N4 C16 C17 -177.9(2) . . . . ?
Sb1 N4 C19 C18 177.7(2) . . . . ?
Sb1 N4 C19 C20 -3.5(5) . . . . ?
O1 C23 C24 C25 176.0(4) . . . . ?
O2 C25 C26 C21 -179.7(3) . . . . ?
O3 C29 C30 C31 -179.2(4) . . . . ?
O4 C31 C32 C27 180.0(3) . . . . ?
O5 C35 C36 C37 -178.6(3) . . . . ?
O6 C37 C38 C33 178.8(3) . . . . ?
O7 C41 C42 C43 -179.1(3) . . . . ?
O8 C43 C44 C39 -179.5(3) . . . . ?
N1 C1 C2 C3 0.7(4) . . . . ?
N1 C1 C20 C19 2.7(6) . . . . ?
N1 C1 C20 C39 -178.1(3) . . . . ?
N1 C4 C5 C6 3.2(5) . . . . ?
N1 C4 C5 C21 -179.1(3) . . . . ?
N2 C6 C7 C8 0.6(4) . . . . ?
N2 C9 C10 C11 -1.3(5) . . . . ?
N2 C9 C10 C27 -179.0(3) . . . . ?
N3 C11 C12 C13 -0.7(4) . . . . ?
N3 C14 C15 C16 -2.8(6) . . . . ?
N3 C14 C15 C33 173.1(3) . . . . ?
N4 C16 C17 C18 0.5(4) . . . . ?
N4 C19 C20 C1 -2.1(6) . . . . ?
N4 C19 C20 C39 178.7(3) . . . . ?
C1 N1 C4 C3 1.1(4) . . . . ?
C1 N1 C4 C5 -176.5(3) . . . . ?
C1 C2 C3 C4 -0.1(4) . . . . ?
C1 C20 C39 C40 -91.9(4) . . . . ?
C1 C20 C39 C44 82.7(4) . . . . ?
C2 C1 C20 C19 -175.9(4) . . . . ?
C2 C1 C20 C39 3.4(5) . . . . ?
C2 C3 C4 N1 -0.6(4) . . . . ?
C2 C3 C4 C5 176.9(3) . . . . ?
C3 C4 C5 C6 -173.9(3) . . . . ?
C3 C4 C5 C21 3.8(5) . . . . ?
C4 N1 C1 C2 -1.1(4) . . . . ?
C4 N1 C1 C20 -179.9(3) . . . . ?
C4 C5 C6 N2 -4.2(5) . . . . ?
C4 C5 C6 C7 176.8(3) . . . . ?
C4 C5 C21 C22 -109.7(4) . . . . ?
C4 C5 C21 C26 69.2(4) . . . . ?
C5 C6 C7 C8 179.8(3) . . . . ?
C5 C21 C22 C23 177.7(3) . . . . ?
C5 C21 C26 C25 -179.1(3) . . . . ?
C6 N2 C9 C8 -0.9(3) . . . . ?
C6 N2 C9 C10 176.8(3) . . . . ?
C6 C5 C21 C22 68.1(4) . . . . ?
C6 C5 C21 C26 -112.9(3) . . . . ?
C6 C7 C8 C9 -1.2(4) . . . . ?
C7 C8 C9 N2 1.3(4) . . . . ?
C7 C8 C9 C10 -176.4(3) . . . . ?
C8 C9 C10 C11 176.1(3) . . . . ?
C8 C9 C10 C27 -1.6(5) . . . . ?
C9 N2 C6 C5 -179.0(3) . . . . ?
C9 N2 C6 C7 0.2(3) . . . . ?
C9 C10 C11 N3 5.5(5) . . . . ?
C9 C10 C11 C12 -173.3(3) . . . . ?
C9 C10 C27 C28 77.0(4) . . . . ?
C9 C10 C27 C32 -100.2(4) . . . . ?
C10 C11 C12 C13 178.3(3) . . . . ?
C10 C27 C28 C29 -177.2(3) . . . . ?
C10 C27 C32 C31 177.5(3) . . . . ?
C11 N3 C14 C13 1.2(4) . . . . ?
C11 N3 C14 C15 -178.5(3) . . . . ?
C11 C10 C27 C28 -100.9(4) . . . . ?
C11 C10 C27 C32 81.9(4) . . . . ?
C11 C12 C13 C14 1.4(4) . . . . ?
C12 C13 C14 N3 -1.6(4) . . . . ?
C12 C13 C14 C15 178.0(3) . . . . ?
C13 C14 C15 C16 177.6(3) . . . . ?
C13 C14 C15 C33 -6.6(5) . . . . ?
C14 N3 C11 C10 -179.3(3) . . . . ?
C14 N3 C11 C12 -0.3(4) . . . . ?
C14 C15 C16 N4 -1.3(6) . . . . ?
C14 C15 C16 C17 176.6(3) . . . . ?
C14 C15 C33 C34 119.0(4) . . . . ?
C14 C15 C33 C38 -64.4(4) . . . . ?
C15 C16 C17 C18 -177.8(3) . . . . ?
C15 C33 C34 C35 176.4(3) . . . . ?
C15 C33 C38 C37 -176.2(3) . . . . ?
C16 N4 C19 C18 0.2(4) . . . . ?
C16 N4 C19 C20 179.0(3) . . . . ?
C16 C15 C33 C34 -64.8(5) . . . . ?
C16 C15 C33 C38 111.8(4) . . . . ?
C16 C17 C18 C19 -0.3(4) . . . . ?
C17 C18 C19 N4 0.1(4) . . . . ?
C17 C18 C19 C20 -178.7(4) . . . . ?
C18 C19 C20 C1 176.5(4) . . . . ?
C18 C19 C20 C39 -2.7(6) . . . . ?
C19 N4 C16 C15 177.9(3) . . . . ?
C19 N4 C16 C17 -0.4(4) . . . . ?
C19 C20 C39 C40 87.4(4) . . . . ?
C19 C20 C39 C44 -98.0(4) . . . . ?
C20 C1 C2 C3 179.5(3) . . . . ?
C20 C39 C40 C41 173.5(3) . . . . ?
C20 C39 C44 C43 -173.7(3) . . . . ?
C21 C5 C6 N2 178.2(3) . . . . ?
C21 C5 C6 C7 -0.9(5) . . . . ?
C21 C22 C23 O1 -176.1(4) . . . . ?
C21 C22 C23 C24 2.7(5) . . . . ?
C22 C21 C26 C25 -0.2(5) . . . . ?
C22 C23 C24 C25 -2.9(6) . . . . ?
C23 C24 C25 O2 -178.7(3) . . . . ?
C23 C24 C25 C26 1.5(6) . . . . ?
C24 C25 C26 C21 0.0(5) . . . . ?
C26 C21 C22 C23 -1.2(5) . . . . ?
C27 C10 C11 N3 -176.8(3) . . . . ?
C27 C10 C11 C12 4.3(5) . . . . ?
C27 C28 C29 O3 179.5(4) . . . . ?
C27 C28 C29 C30 -0.8(6) . . . . ?
C28 C27 C32 C31 0.3(5) . . . . ?
C28 C29 C30 C31 1.1(5) . . . . ?
C29 C30 C31 O4 179.3(3) . . . . ?
C29 C30 C31 C32 -0.8(5) . . . . ?
C30 C31 C32 C27 0.1(5) . . . . ?
C32 C27 C28 C29 0.0(5) . . . . ?
C33 C15 C16 N4 -177.2(3) . . . . ?
C33 C15 C16 C17 0.8(5) . . . . ?
C33 C34 C35 O5 178.7(4) . . . . ?
C33 C34 C35 C36 -0.4(6) . . . . ?
C34 C33 C38 C37 0.3(5) . . . . ?
C34 C35 C36 C37 0.5(6) . . . . ?
C35 C36 C37 O6 -179.3(3) . . . . ?
C35 C36 C37 C38 -0.3(6) . . . . ?
C36 C37 C38 C33 -0.2(5) . . . . ?
C38 C33 C34 C35 -0.1(5) . . . . ?
C39 C40 C41 O7 -179.2(3) . . . . ?
C39 C40 C41 C42 -0.3(5) . . . . ?
C40 C39 C44 C43 0.7(5) . . . . ?
C40 C41 C42 C43 1.9(5) . . . . ?
C41 C42 C43 O8 178.3(4) . . . . ?
C41 C42 C43 C44 -2.3(5) . . . . ?
C42 C43 C44 C39 1.0(5) . . . . ?
C44 C39 C40 C41 -1.1(5) . . . . ?
C45 O1 C23 C22 0.7(6) . . . . ?
C45 O1 C23 C24 -178.2(4) . . . . ?
C46 O2 C25 C24 177.0(4) . . . . ?
C46 O2 C25 C26 -3.3(6) . . . . ?
C47 O3 C29 C28 179.5(4) . . . . ?
C47 O3 C29 C30 -0.2(6) . . . . ?
C48 O4 C31 C30 -5.0(5) . . . . ?
C48 O4 C31 C32 175.1(3) . . . . ?
C49 O5 C35 C34 8.0(6) . . . . ?
C49 O5 C35 C36 -172.9(4) . . . . ?
C50 O6 C37 C36 177.7(3) . . . . ?
C50 O6 C37 C38 -1.3(5) . . . . ?
C51 O7 C41 C40 -1.6(6) . . . . ?
C51 O7 C41 C42 179.4(4) . . . . ?
C52 O8 C43 C42 10.7(6) . . . . ?
C52 O8 C43 C44 -168.8(4) . . . . ?
Sb1A N1A C1A C2A 179.1(2) . . . . ?
Sb1A N1A C1A C10A -2.0(5) . . . . ?
Sb1A N1A C4A C3A -179.8(2) . . . . ?
Sb1A N1A C4A C5A -2.4(5) . . . 7_556 ?
Sb1A N2A C6A C5A -2.0(5) . . . . ?
Sb1A N2A C6A C7A 175.0(2) . . . . ?
Sb1A N2A C9A C8A -174.6(2) . . . . ?
Sb1A N2A C9A C10A 2.8(5) . . . . ?
O1A C13A C14A C15A -179.8(3) . . . . ?
O2A C15A C16A C11A -179.0(3) . . . . ?
O3A C19A C20A C21A -179.3(3) . . . . ?
O4A C21A C22A C17A 179.8(3) . . . . ?
N1A C1A C2A C3A -0.3(4) . . . . ?
N1A C1A C10A C9A -5.7(5) . . . . ?
N1A C1A C10A C17A 165.9(3) . . . . ?
N2A C6A C7A C8A -3.0(4) . . . . ?
N2A C9A C10A C1A 5.2(5) . . . . ?
N2A C9A C10A C17A -166.5(3) . . . . ?
C1A N1A C4A C3A -2.6(4) . . . . ?
C1A N1A C4A C5A 174.8(3) . . . 7_556 ?
C1A C2A C3A C4A -1.3(4) . . . . ?
C1A C10A C17A C18A 104.2(3) . . . . ?
C1A C10A C17A C22A -79.0(4) . . . . ?
C2A C1A C10A C9A 173.0(3) . . . . ?
C2A C1A C10A C17A -15.4(5) . . . . ?
C2A C3A C4A N1A 2.4(4) . . . . ?
C2A C3A C4A C5A -175.0(3) . . . 7_556 ?
C4A N1A C1A C2A 1.8(4) . . . . ?
C4A N1A C1A C10A -179.3(3) . . . . ?
C4A C5A C6A N2A -0.6(6) 7_556 . . . ?
C4A C5A C6A C7A -177.1(3) 7_556 . . . ?
C4A C5A C11A C12A -81.8(4) 7_556 . . . ?
C4A C5A C11A C16A 99.6(4) 7_556 . . . ?
C5A C6A C7A C8A 174.1(3) . . . . ?
C5A C11A C12A C13A -179.5(3) . . . . ?
C5A C11A C16A C15A 178.9(3) . . . . ?
C6A N2A C9A C8A -3.5(4) . . . . ?
C6A N2A C9A C10A 173.9(3) . . . . ?
C6A C5A C11A C12A 99.9(4) . . . . ?
C6A C5A C11A C16A -78.7(4) . . . . ?
C6A C7A C8A C9A 0.8(4) . . . . ?
C7A C8A C9A N2A 1.7(4) . . . . ?
C7A C8A C9A C10A -175.8(3) . . . . ?
C8A C9A C10A C1A -177.7(3) . . . . ?
C8A C9A C10A C17A 10.6(5) . . . . ?
C9A N2A C6A C5A -173.0(3) . . . . ?
C9A N2A C6A C7A 4.0(4) . . . . ?
C9A C10A C17A C18A -83.4(4) . . . . ?
C9A C10A C17A C22A 93.4(3) . . . . ?
C10A C1A C2A C3A -179.2(3) . . . . ?
C10A C17A C18A C19A 175.4(3) . . . . ?
C10A C17A C22A C21A -176.1(3) . . . . ?
C11A C5A C6A N2A 177.6(3) . . . . ?
C11A C5A C6A C7A 1.1(5) . . . . ?
C11A C12A C13A O1A -178.5(3) . . . . ?
C11A C12A C13A C14A -0.1(4) . . . . ?
C12A C11A C16A C15A 0.3(5) . . . . ?
C12A C13A C14A C15A 1.7(5) . . . . ?
C13A C14A C15A O2A 178.0(3) . . . . ?
C13A C14A C15A C16A -2.2(5) . . . . ?
C14A C15A C16A C11A 1.2(5) . . . . ?
C16A C11A C12A C13A -0.9(4) . . . . ?
C17A C18A C19A O3A 180.0(3) . . . . ?
C17A C18A C19A C20A 1.0(4) . . . . ?
C18A C17A C22A C21A 0.7(5) . . . . ?
C18A C19A C20A C21A -0.2(5) . . . . ?
C19A C20A C21A O4A 180.0(3) . . . . ?
C19A C20A C21A C22A -0.3(5) . . . . ?
C20A C21A C22A C17A 0.1(5) . . . . ?
C22A C17A C18A C19A -1.2(4) . . . . ?
C23A O1A C13A C12A -2.4(5) . . . . ?
C23A O1A C13A C14A 179.2(3) . . . . ?
C24A O2A C15A C14A -176.7(4) . . . . ?
C24A O2A C15A C16A 3.5(6) . . . . ?
C25A O3A C19A C18A 0.2(5) . . . . ?
C25A O3A C19A C20A 179.3(3) . . . . ?
C26A O4A C21A C20A 1.9(5) . . . . ?
C26A O4A C21A C22A -177.8(3) . . . . ?
C24B O2A C15A C14A 5.1(9) . . . . ?
C24B O2A C15A C16A -174.7(8) . . . . ?
loop_
_smtbx_masks_void_nr
_smtbx_masks_void_average_x
_smtbx_masks_void_average_y
_smtbx_masks_void_average_z
_smtbx_masks_void_volume
_smtbx_masks_void_count_electrons
_smtbx_masks_void_content
1 -0.337 0.108 0.250 851.1 234.5 '3 C5H12;3 C5H12'
2 -0.464 -0.108 0.750 851.1 234.7 '3 C5H12;3 C5H12'
3 -0.211 0.392 0.750 851.1 234.7 '3 C5H12;3 C5H12'
4 -0.856 0.608 0.250 851.1 234.5 '3 C5H12;3 C5H12'
