#------------------------------------------------------------------------------
#$Date: 2022-08-16 01:54:01 +0300 (Tue, 16 Aug 2022) $
#$Revision: 277249 $
#$URL: file:///home/coder/svn-repositories/cod/cif/7/71/09/7710971.cif $
#------------------------------------------------------------------------------
#
# This file is available in the Crystallography Open Database (COD),
# http://www.crystallography.net/
#
# All data on this site have been placed in the public domain by the
# contributors.
#
data_7710971
loop_
_publ_author_name
'Chandel, Dolly'
'Pal, Chandrani'
'Saha, Bapan'
'Ikbal, Sk Asif'
'Rath, Sankar Prasad'
_publ_section_title
;
 Induction and Rationalization of Supramolecular Chirality in
 Highly-Flexible Zn(II)porphyrin Dimer: Structural, Spectroscopic and
 Theoretical Investigations
;
_journal_name_full               'Dalton Transactions'
_journal_paper_doi               10.1039/D2DT01745H
_journal_year                    2022
_chemical_formula_sum            'C91 H121 Cl3 N11 O2 Zn2'
_chemical_formula_weight         1638.07
_space_group_crystal_system      triclinic
_space_group_IT_number           2
_space_group_name_Hall           '-P 1'
_space_group_name_H-M_alt        'P -1'
_atom_sites_solution_hydrogens   geom
_audit_creation_method           SHELXL-2018/3
_audit_update_record
;
2022-08-03 deposited with the CCDC.	2022-08-15 downloaded from the CCDC.
;
_cell_angle_alpha                89.413(5)
_cell_angle_beta                 82.566(5)
_cell_angle_gamma                75.912(5)
_cell_formula_units_Z            2
_cell_length_a                   13.081(5)
_cell_length_b                   13.646(5)
_cell_length_c                   24.542(5)
_cell_measurement_reflns_used    999
_cell_measurement_temperature    100(2)
_cell_measurement_theta_max      27.5
_cell_measurement_theta_min      2.5
_cell_volume                     4212(2)
_computing_cell_refinement       'Bruker SAINT'
_computing_data_collection       'Bruker APEX'
_computing_data_reduction        'Bruker SAINT'
_computing_molecular_graphics    'SHELXL 5.1, XP (Sheldrick, 1994)'
_computing_publication_material  SHELXL-97
_computing_structure_refinement  'SHELXL-2018/3 (Sheldrick, 2018)'
_computing_structure_solution    'SHELXS-97 (Sheldrick, 2008)'
_diffrn_ambient_temperature      100(2)
_diffrn_measured_fraction_theta_full 0.986
_diffrn_measured_fraction_theta_max 0.982
_diffrn_measurement_device_type  'Bruker SMART APEX'
_diffrn_measurement_method       \w
_diffrn_radiation_type           MoK\a
_diffrn_radiation_wavelength     0.71069
_diffrn_reflns_av_R_equivalents  0.0562
_diffrn_reflns_av_unetI/netI     0.1202
_diffrn_reflns_Laue_measured_fraction_full 0.986
_diffrn_reflns_Laue_measured_fraction_max 0.982
_diffrn_reflns_limit_h_max       15
_diffrn_reflns_limit_h_min       -15
_diffrn_reflns_limit_k_max       14
_diffrn_reflns_limit_k_min       -16
_diffrn_reflns_limit_l_max       24
_diffrn_reflns_limit_l_min       -29
_diffrn_reflns_number            23176
_diffrn_reflns_point_group_measured_fraction_full 0.986
_diffrn_reflns_point_group_measured_fraction_max 0.982
_diffrn_reflns_theta_full        25.000
_diffrn_reflns_theta_max         25.500
_diffrn_reflns_theta_min         1.674
_diffrn_source                   'fine-focus sealed tube'
_exptl_absorpt_coefficient_mu    0.720
_exptl_absorpt_correction_T_max  0.917
_exptl_absorpt_correction_T_min  0.870
_exptl_absorpt_correction_type   multi-scan
_exptl_absorpt_process_details   'SADABS 2.05 (Sheldrick, 2002)'
_exptl_crystal_colour            'dark red'
_exptl_crystal_density_diffrn    1.291
_exptl_crystal_description       block
_exptl_crystal_F_000             1742
_exptl_crystal_size_max          0.220
_exptl_crystal_size_mid          0.160
_exptl_crystal_size_min          0.120
_refine_diff_density_max         0.737
_refine_diff_density_min         -0.911
_refine_diff_density_rms         0.106
_refine_ls_extinction_method     none
_refine_ls_goodness_of_fit_ref   1.035
_refine_ls_hydrogen_treatment    constr
_refine_ls_matrix_type           full
_refine_ls_number_parameters     1043
_refine_ls_number_reflns         15413
_refine_ls_number_restraints     12
_refine_ls_restrained_S_all      1.035
_refine_ls_R_factor_all          0.1268
_refine_ls_R_factor_gt           0.0724
_refine_ls_shift/su_max          0.001
_refine_ls_shift/su_mean         0.000
_refine_ls_structure_factor_coef Fsqd
_refine_ls_weighting_details
'w=1/[\s^2^(Fo^2^)+(0.0635P)^2^+8.3309P] where P=(Fo^2^+2Fc^2^)/3'
_refine_ls_weighting_scheme      calc
_refine_ls_wR_factor_gt          0.1512
_refine_ls_wR_factor_ref         0.1930
_reflns_Friedel_coverage         0.000
_reflns_number_gt                9534
_reflns_number_total             15413
_reflns_threshold_expression     'I > 2\s(I)'
_cod_data_source_file            d2dt01745h2.cif
_cod_data_source_block           shelx_CCDC2
_cod_database_code               7710971
_shelx_shelxl_version_number     2018/3
_shelx_space_group_comment
;
The symmetry employed for this shelxl refinement is uniquely defined
by the following loop, which should always be used as a source of
symmetry information in preference to the above space-group names.
They are only intended as comments.
;
_shelx_estimated_absorpt_t_min   0.858
_shelx_estimated_absorpt_t_max   0.919
_shelx_res_file
;
TITL 28sepbm in P -1
    shelx.res
    created by SHELXL-2018/3 at 21:31:33 on 31-Jul-2022
CELL  0.71069  13.0810  13.6460  24.5420   89.413   82.566   75.912
ZERR     2.00   0.0050   0.0050   0.0050    0.005    0.005    0.005
LATT   1
SFAC  C    H    N    O    ZN   CL
UNIT  182  242  22   4    4    6
MERG   2
omit -3 51.0
omit 6 2 4
omit 8 8 24
omit 7 2 4
omit -13 -2 13
omit -11 -10 14
omit 0 -3 9
omit -11 5 12
omit 0   0   1
omit     9  10  21
omit     5   1   3
omit    11  12  15
omit     9   8  23
omit    10  12  16
omit   -13  -4  13
omit    -7 -15   7
omit    -6 -15  10
omit    -4 -16   6
omit 4   2  29
omit      9  -8  17
omit    -4   2   8
omit     8 -10  14
BOND $H
acta 50
list 4
FMAP   2
TEMP -173.0
isor 0.005 C1S C7S
twin
bond $H
size 0.22 0.16 0.12 ! red block
PLAN   10
L.S.   20
WGHT    0.063500    8.330900
BASF   0.81804
FVAR       0.27345   0.56938   0.70853
ZN1   5    0.233178   -0.031982    0.682724    11.00000    0.01795    0.02413 =
         0.01644    0.00138   -0.00440   -0.00485
ZN2   5    0.163443    0.439615    0.760654    11.00000    0.01543    0.02532 =
         0.01696    0.00369   -0.00252   -0.00599
N1    3    0.153878    0.043567    0.755037    11.00000    0.01696    0.02008 =
         0.02005    0.00193   -0.00311   -0.00687
N2    3    0.116550    0.051875    0.639412    11.00000    0.01966    0.02454 =
         0.01500    0.00076   -0.00395   -0.00116
N3    3    0.329775   -0.060322    0.606756    11.00000    0.01909    0.02574 =
         0.01567    0.00050   -0.00447   -0.00542
N4    3    0.368836   -0.060031    0.721931    11.00000    0.01363    0.03121 =
         0.01274    0.00278   -0.00559   -0.00546
N5    3    0.269144    0.131377    0.901973    11.00000    0.01649    0.02799 =
         0.01444    0.00353   -0.00361   -0.00420
AFIX  43
H5A   2    0.245472    0.154002    0.871107    11.00000   -1.20000
AFIX   0
N6    3    0.074230    0.410376    0.833639    11.00000    0.01656    0.02960 =
         0.01646    0.00344   -0.00477   -0.00505
N7    3    0.022993    0.506370    0.728565    11.00000    0.01069    0.02502 =
         0.02117    0.00600   -0.00094   -0.00408
N8    3    0.239426    0.518071    0.701890    11.00000    0.01177    0.02607 =
         0.01567    0.00607   -0.00281   -0.00312
N9    3    0.291402    0.419459    0.805421    11.00000    0.01557    0.02328 =
         0.01957    0.00712   -0.00668   -0.00726
N10   3    0.191707   -0.174497    0.697659    11.00000    0.03801    0.02330 =
         0.04595    0.00486    0.00010   -0.01817
PART   1
C1S   1    0.095318   -0.203729    0.716100    21.00000    0.03004    0.02745 =
         0.02100   -0.00731   -0.00975   -0.01262
AFIX  13
H1SA  2    0.105943   -0.277349    0.707694    21.00000   -1.20000
AFIX   0
C2S   1    0.068656   -0.185635    0.778345    21.00000    0.02407    0.02317 =
         0.04144   -0.00492   -0.00380   -0.00932
AFIX  23
H2SA  2    0.032684   -0.113755    0.786707    21.00000   -1.20000
H2SB  2    0.134551   -0.202508    0.795939    21.00000   -1.20000
AFIX   0
C3S   1   -0.013216   -0.261169    0.802708    21.00000    0.05257    0.09970 =
         0.05034   -0.03118    0.03518   -0.01793
AFIX 137
H3SA  2   -0.020370   -0.261115    0.842954    21.00000   -1.50000
H3SB  2    0.017167   -0.330278    0.788297    21.00000   -1.50000
H3SC  2   -0.083351   -0.235389    0.790830    21.00000   -1.50000
AFIX   0
C4S   1    0.003596   -0.143673    0.687170    21.00000    0.02396    0.01908 =
         0.05387    0.01170   -0.01255   -0.01080
AFIX  23
H4SA  2   -0.060684   -0.169290    0.697570    21.00000   -1.20000
H4SB  2   -0.013196   -0.071420    0.698345    21.00000   -1.20000
AFIX   0
O1S   4    0.034688   -0.154749    0.629103    21.00000    0.06980    0.06783 =
         0.04144    0.01403   -0.03131   -0.04050
AFIX  83
H1SB  2   -0.014740   -0.121424    0.612775    21.00000   -1.50000
AFIX   0
PART   2
C1SA  1    0.082786   -0.162711    0.739096   -21.00000    0.02039
AFIX  13
H1SC  2    0.080614   -0.110155    0.767608   -21.00000   -1.20000
AFIX   0
C2SA  1    0.079539   -0.261880    0.768712   -21.00000    0.03351
AFIX  23
H2SC  2    0.140749   -0.284185    0.789573   -21.00000   -1.20000
H2SD  2    0.079087   -0.316297    0.742441   -21.00000   -1.20000
AFIX   0
C3SA  1   -0.027996   -0.231554    0.808239   -21.00000    0.03683
AFIX 137
H3SD  2   -0.045551   -0.292521    0.824144   -21.00000   -1.50000
H3SE  2   -0.084777   -0.196365    0.787504   -21.00000   -1.50000
H3SF  2   -0.020814   -0.186838    0.837753   -21.00000   -1.50000
AFIX   0
C4SA  1   -0.014639   -0.128118    0.710191   -21.00000    0.06041
AFIX  23
H4SC  2   -0.079417   -0.124970    0.736578   -21.00000   -1.20000
H4SD  2   -0.017806   -0.059561    0.695784   -21.00000   -1.20000
AFIX   0
O1SA  4   -0.010697   -0.197656    0.665333   -21.00000    0.04868
AFIX  83
H1SD  2   -0.064182   -0.177188    0.648905   -21.00000   -1.50000
AFIX   0
PART   0
N11   3    0.184291    0.288523    0.727912    11.00000    0.02531    0.03268 =
         0.03447    0.00133    0.00529   -0.00807
AFIX  23
H11A  2    0.198716    0.247058    0.756668    11.00000   -1.20000
H11B  2    0.118647    0.285277    0.720738    11.00000   -1.20000
AFIX   0
C5S   1    0.258584    0.237356    0.680189    11.00000    0.03868    0.03005 =
         0.03567   -0.00449    0.00451   -0.00142
PART   4
C6S   1    0.255430    0.296579    0.629095    31.00000    0.06262    0.02302 =
         0.03052   -0.00435    0.01196   -0.01317
AFIX  23
H6SA  2    0.311638    0.260569    0.600238    31.00000   -1.20000
H6SB  2    0.268995    0.363272    0.636206    31.00000   -1.20000
AFIX   0
C7S   1    0.146609    0.311167    0.609355    31.00000    0.06927    0.03247 =
         0.01519   -0.00308   -0.01723   -0.00178
AFIX 137
H7SA  2    0.146763    0.345941    0.574218    31.00000   -1.50000
H7SB  2    0.091799    0.351810    0.636659    31.00000   -1.50000
H7SC  2    0.131538    0.245099    0.604539    31.00000   -1.50000
AFIX   0
C8S   1    0.373908    0.224701    0.699960    31.00000    0.04381    0.05150 =
         0.06280   -0.03575    0.00779   -0.01286
AFIX  23
H8SA  2    0.429058    0.183974    0.672157    31.00000   -1.20000
H8SB  2    0.388731    0.292079    0.702926    31.00000   -1.20000
AFIX   0
O2S   4    0.379278    0.175808    0.752706    31.00000    0.07856    0.05715 =
         0.08108    0.00577   -0.05608   -0.00351
AFIX  83
H2SE  2    0.439663    0.170917    0.762277    31.00000   -1.50000
AFIX   0
PART   3
C6SA  1    0.357841    0.249157    0.669196   -31.00000    0.02669
AFIX  23
H6SC  2    0.356447    0.321992    0.670018   -31.00000   -1.20000
H6SD  2    0.389089    0.221595    0.631939   -31.00000   -1.20000
AFIX   0
C7SA  1    0.427681    0.193118    0.712549   -31.00000    0.04642
AFIX 137
H7SD  2    0.503019    0.181626    0.697803   -31.00000   -1.50000
H7SE  2    0.410474    0.128066    0.720665   -31.00000   -1.50000
H7SF  2    0.413312    0.234550    0.746344   -31.00000   -1.50000
AFIX   0
C8SA  1    0.175826    0.294858    0.633801   -31.00000    0.03274
AFIX  23
H8SC  2    0.102125    0.289759    0.645836   -31.00000   -1.20000
H8SD  2    0.175979    0.367240    0.630925   -31.00000   -1.20000
AFIX   0
O2SA  4    0.212732    0.246862    0.584882   -31.00000    0.04175
AFIX  83
H2SF  2    0.173790    0.273298    0.561349   -31.00000   -1.50000
AFIX   0
PART   0
C1    1    0.178179    0.018193    0.807576    11.00000    0.02531    0.02407 =
         0.01282    0.00027   -0.00750   -0.01182
C2    1    0.081323    0.051797    0.847252    11.00000    0.02319    0.03105 =
         0.01685   -0.00023   -0.00540   -0.01127
C3    1    0.004893    0.102338    0.817662    11.00000    0.01547    0.02428 =
         0.02033   -0.00399    0.00003   -0.00859
C4    1    0.049232    0.095626    0.761078    11.00000    0.01699    0.02019 =
         0.01965   -0.00053   -0.00347   -0.00786
C5    1   -0.010075    0.130805    0.717936    11.00000    0.02271    0.02597 =
         0.01721   -0.00081   -0.00271   -0.00705
AFIX  43
H5B   2   -0.079301    0.172641    0.728326    11.00000   -1.20000
AFIX   0
C6    1    0.020215    0.111844    0.661974    11.00000    0.01832    0.02363 =
         0.02252    0.00715   -0.00431   -0.00271
C7    1   -0.045640    0.148286    0.619163    11.00000    0.01889    0.02209 =
         0.03065    0.00699   -0.00371   -0.00739
C8    1    0.011660    0.110971    0.570930    11.00000    0.02009    0.02152 =
         0.02360    0.00237   -0.00628   -0.00998
C9    1    0.113414    0.050319    0.583534    11.00000    0.01399    0.02546 =
         0.01809    0.00385   -0.00809   -0.00900
C10   1    0.196117   -0.000976    0.545443    11.00000    0.02321    0.02678 =
         0.01385    0.00209   -0.00669   -0.00996
AFIX  43
H10A  2    0.182154   -0.001595    0.508428    11.00000   -1.20000
AFIX   0
C11   1    0.297958   -0.051940    0.555676    11.00000    0.02410    0.02455 =
         0.01422   -0.00142   -0.00119   -0.00989
C12   1    0.388552   -0.090445    0.514200    11.00000    0.02532    0.02596 =
         0.01476   -0.00300   -0.00170   -0.00243
C13   1    0.475907   -0.118697    0.541081    11.00000    0.02320    0.02608 =
         0.01842    0.00119   -0.00067   -0.00862
C14   1    0.438407   -0.097537    0.598795    11.00000    0.02396    0.02719 =
         0.01792   -0.00091   -0.00187   -0.00325
C15   1    0.502799   -0.107670    0.640418    11.00000    0.01559    0.02786 =
         0.02355   -0.00395   -0.00349   -0.00081
AFIX  43
H15A  2    0.576969   -0.132441    0.629472    11.00000   -1.20000
AFIX   0
C16   1    0.471372   -0.085826    0.696079    11.00000    0.01850    0.02425 =
         0.01903    0.00167   -0.00805   -0.00422
C17   1    0.545712   -0.089841    0.735175    11.00000    0.01658    0.03496 =
         0.02186    0.00627   -0.00611   -0.00293
C18   1    0.488074   -0.071189    0.786211    11.00000    0.01872    0.03084 =
         0.02533    0.00917   -0.01143   -0.00564
C19   1    0.374560   -0.051446    0.777638    11.00000    0.01690    0.02231 =
         0.02098    0.00336   -0.00729    0.00290
C20   1    0.283680   -0.026894    0.817877    11.00000    0.02483    0.02167 =
         0.02354    0.00222   -0.00712   -0.00755
C21   1    0.059015    0.032382    0.908032    11.00000    0.01981    0.03539 =
         0.02002   -0.00116   -0.00276   -0.01094
AFIX  23
H21A  2    0.122502    0.034132    0.925654    11.00000   -1.20000
H21B  2   -0.000457    0.087535    0.924840    11.00000   -1.20000
AFIX   0
C22   1    0.031027   -0.067752    0.919919    11.00000    0.04865    0.06188 =
         0.02703    0.01454   -0.01373   -0.03044
AFIX 137
H22A  2    0.018676   -0.075962    0.959760    11.00000   -1.50000
H22B  2    0.089777   -0.122945    0.903774    11.00000   -1.50000
H22C  2   -0.033482   -0.069139    0.903914    11.00000   -1.50000
AFIX   0
C23   1   -0.111084    0.150618    0.837563    11.00000    0.01980    0.03513 =
         0.01916   -0.00105   -0.00087    0.00177
AFIX  23
H23A  2   -0.132466    0.215877    0.819090    11.00000   -1.20000
H23B  2   -0.119221    0.164915    0.877568    11.00000   -1.20000
AFIX   0
C24   1   -0.184906    0.084534    0.826532    11.00000    0.02694    0.05381 =
         0.02675    0.00605   -0.00517   -0.01390
AFIX 137
H24A  2   -0.258506    0.119579    0.839883    11.00000   -1.50000
H24B  2   -0.165681    0.020604    0.845675    11.00000   -1.50000
H24C  2   -0.178074    0.070861    0.786933    11.00000   -1.50000
AFIX   0
C25   1   -0.154199    0.219087    0.629340    11.00000    0.01951    0.04170 =
         0.02674    0.00648   -0.00789    0.00120
AFIX  23
H25A  2   -0.195949    0.194233    0.660653    11.00000   -1.20000
H25B  2   -0.190696    0.217595    0.596557    11.00000   -1.20000
AFIX   0
C26   1   -0.153667    0.327419    0.641656    11.00000    0.03733    0.03795 =
         0.05150    0.00855    0.00946    0.00930
AFIX 137
H26A  2   -0.226651    0.369452    0.645668    11.00000   -1.50000
H26B  2   -0.110754    0.352266    0.611420    11.00000   -1.50000
H26C  2   -0.123251    0.330674    0.675853    11.00000   -1.50000
AFIX   0
C27   1   -0.017498    0.136366    0.514110    11.00000    0.02057    0.03518 =
         0.01890    0.00493   -0.01072   -0.00481
AFIX  23
H27A  2   -0.095436    0.147856    0.515164    11.00000   -1.20000
H27B  2    0.016648    0.078088    0.488911    11.00000   -1.20000
AFIX   0
C28   1    0.016180    0.229102    0.491783    11.00000    0.03847    0.05336 =
         0.03343    0.01619   -0.01721   -0.02005
AFIX 137
H28A  2   -0.001748    0.240555    0.454306    11.00000   -1.50000
H28B  2    0.093087    0.218792    0.491359    11.00000   -1.50000
H28C  2   -0.020992    0.288007    0.515226    11.00000   -1.50000
AFIX   0
C29   1    0.385793   -0.100153    0.453139    11.00000    0.02457    0.04473 =
         0.01233    0.00400   -0.00323   -0.00935
AFIX  23
H29A  2    0.442995   -0.072636    0.433123    11.00000   -1.20000
H29B  2    0.317050   -0.058749    0.444019    11.00000   -1.20000
AFIX   0
C30   1    0.399464   -0.208057    0.433391    11.00000    0.03553    0.03839 =
         0.02198   -0.00705   -0.00407   -0.00608
AFIX 137
H30A  2    0.392989   -0.208815    0.394068    11.00000   -1.50000
H30B  2    0.344445   -0.236654    0.453791    11.00000   -1.50000
H30C  2    0.469794   -0.248444    0.439549    11.00000   -1.50000
AFIX   0
C31   1    0.589972   -0.159921    0.516719    11.00000    0.02379    0.03149 =
         0.02339    0.00049    0.00416   -0.00800
AFIX  23
H31A  2    0.635007   -0.123187    0.533558    11.00000   -1.20000
H31B  2    0.596880   -0.146649    0.476844    11.00000   -1.20000
AFIX   0
C32   1    0.631290   -0.272312    0.524817    11.00000    0.02298    0.03777 =
         0.02575    0.00343    0.00540   -0.00168
AFIX 137
H32A  2    0.704279   -0.294640    0.506269    11.00000   -1.50000
H32B  2    0.585984   -0.309298    0.509236    11.00000   -1.50000
H32C  2    0.630295   -0.285595    0.564176    11.00000   -1.50000
AFIX   0
C33   1    0.662817   -0.101596    0.719663    11.00000    0.02443    0.04373 =
         0.02104    0.00458   -0.00942   -0.00945
AFIX  23
H33A  2    0.690820   -0.159492    0.693473    11.00000   -1.20000
H33B  2    0.698691   -0.117269    0.752950    11.00000   -1.20000
AFIX   0
C34   1    0.689984   -0.007234    0.693572    11.00000    0.02551    0.05267 =
         0.03276    0.01129   -0.00435   -0.01017
AFIX 137
H34A  2    0.767123   -0.019770    0.683579    11.00000   -1.50000
H34B  2    0.665395    0.049763    0.719892    11.00000   -1.50000
H34C  2    0.654832    0.008738    0.660535    11.00000   -1.50000
AFIX   0
C35   1    0.536991   -0.058031    0.836962    11.00000    0.01814    0.04945 =
         0.02276    0.00509   -0.01120   -0.01121
AFIX  23
H35A  2    0.610270   -0.101419    0.833391    11.00000   -1.20000
H35B  2    0.495561   -0.080635    0.869196    11.00000   -1.20000
AFIX   0
C36   1    0.540298    0.050669    0.846725    11.00000    0.03319    0.05721 =
         0.02173   -0.00325   -0.00405   -0.01648
AFIX 137
H36A  2    0.573820    0.055244    0.879773    11.00000   -1.50000
H36B  2    0.467716    0.093617    0.851710    11.00000   -1.50000
H36C  2    0.581493    0.073377    0.815000    11.00000   -1.50000
AFIX   0
C37   1    0.298009   -0.052993    0.876864    11.00000    0.01892    0.03763 =
         0.01383    0.00446   -0.00462   -0.00080
AFIX  23
H37A  2    0.238139   -0.081214    0.892871    11.00000   -1.20000
H37B  2    0.364016   -0.107104    0.876809    11.00000   -1.20000
AFIX   0
C38   1    0.303945    0.030656    0.913655    11.00000    0.01324    0.03096 =
         0.02049    0.00413   -0.00525   -0.00938
C39   1    0.333267    0.026100    0.966454    11.00000    0.01313    0.03269 =
         0.01112    0.00200   -0.00216   -0.00874
C40   1    0.369481   -0.070672    0.995992    11.00000    0.02250    0.03390 =
         0.01491    0.00176   -0.00428   -0.00263
AFIX  23
H40A  2    0.415942   -0.060126    1.023052    11.00000   -1.20000
H40B  2    0.411809   -0.123457    0.969165    11.00000   -1.20000
AFIX   0
C41   1    0.276094   -0.106889    1.025596    11.00000    0.03334    0.03733 =
         0.03389    0.01700   -0.00190   -0.00656
AFIX 137
H41A  2    0.302849   -0.167753    1.046076    11.00000   -1.50000
H41B  2    0.232948   -0.122459    0.998607    11.00000   -1.50000
H41C  2    0.232415   -0.053750    1.051147    11.00000   -1.50000
AFIX   0
C42   1    0.317524    0.127360    0.985496    11.00000    0.01449    0.02964 =
         0.00999    0.00148   -0.00092   -0.00816
C43   1    0.338262    0.161515    1.040388    11.00000    0.02585    0.02780 =
         0.02419    0.00435   -0.00503   -0.00681
AFIX  23
H43A  2    0.370713    0.219857    1.034793    11.00000   -1.20000
H43B  2    0.390259    0.106138    1.055480    11.00000   -1.20000
AFIX   0
C44   1    0.238870    0.191780    1.082290    11.00000    0.03294    0.04788 =
         0.01996   -0.00036   -0.00704   -0.00650
AFIX 137
H44A  2    0.257031    0.217787    1.115897    11.00000   -1.50000
H44B  2    0.210112    0.132672    1.090901    11.00000   -1.50000
H44C  2    0.185515    0.244354    1.067032    11.00000   -1.50000
AFIX   0
C45   1    0.276426    0.191396    0.944925    11.00000    0.00995    0.02602 =
         0.01616    0.00122    0.00007   -0.00879
C46   1    0.244130    0.303258    0.945059    11.00000    0.01172    0.03449 =
         0.02055    0.00488   -0.00139   -0.00988
AFIX  23
H46A  2    0.302065    0.329747    0.956804    11.00000   -1.20000
H46B  2    0.180693    0.326341    0.972723    11.00000   -1.20000
AFIX   0
C51   1    0.110253    0.368281    0.881019    11.00000    0.02117    0.02345 =
         0.01725    0.00095   -0.00051   -0.00758
C52   1    0.019070    0.349045    0.918038    11.00000    0.01504    0.02782 =
         0.01954   -0.00316   -0.00033   -0.00294
C53   1   -0.068147    0.383323    0.892541    11.00000    0.02075    0.02393 =
         0.02158    0.00069   -0.00095   -0.00651
C54   1   -0.032822    0.421000    0.839752    11.00000    0.01471    0.02430 =
         0.02399   -0.00192   -0.00068   -0.00410
C55   1   -0.101728    0.460759    0.801116    11.00000    0.01885    0.02669 =
         0.02031    0.00477   -0.00541   -0.00626
AFIX  43
H55A  2   -0.174142    0.459709    0.810843    11.00000   -1.20000
AFIX   0
C56   1   -0.076671    0.501365    0.750464    11.00000    0.02033    0.01596 =
         0.02149    0.00464   -0.00354   -0.00600
C57   1   -0.153790    0.547840    0.713992    11.00000    0.01441    0.02577 =
         0.02432    0.00552   -0.00545   -0.00661
C58   1   -0.097974    0.579670    0.669961    11.00000    0.02079    0.03082 =
         0.02055    0.00354   -0.00582   -0.00446
C59   1    0.013195    0.553635    0.679629    11.00000    0.01686    0.03150 =
         0.02106    0.01270   -0.00787   -0.00362
C60   1    0.096514    0.577724    0.645224    11.00000    0.02309    0.02153 =
         0.01393    0.00590   -0.00509   -0.00656
AFIX  43
H60A  2    0.080803    0.605960    0.610839    11.00000   -1.20000
AFIX   0
C61   1    0.200414    0.564411    0.656379    11.00000    0.02418    0.02102 =
         0.02252    0.00119   -0.00362   -0.00859
C62   1    0.282276    0.601990    0.622943    11.00000    0.02158    0.02601 =
         0.01618   -0.00115    0.00916   -0.01012
C63   1    0.369949    0.579645    0.649663    11.00000    0.01569    0.02204 =
         0.02092    0.00041   -0.00031   -0.00146
C64   1    0.342814    0.525434    0.698519    11.00000    0.01649    0.02400 =
         0.01436    0.00421    0.00089   -0.00935
C65   1    0.410260    0.484418    0.736163    11.00000    0.01400    0.03039 =
         0.01943    0.00254    0.00126   -0.00785
AFIX  43
H65A  2    0.480765    0.492506    0.728470    11.00000   -1.20000
AFIX   0
C66   1    0.388918    0.432532    0.784129    11.00000    0.01464    0.02488 =
         0.02196    0.00135   -0.00101   -0.00627
C67   1    0.467872    0.387838    0.819107    11.00000    0.01631    0.02831 =
         0.02176    0.00033   -0.00944   -0.00773
C68   1    0.417034    0.348404    0.862919    11.00000    0.01876    0.02953 =
         0.01768    0.00134   -0.00228   -0.00745
C69   1    0.303907    0.370957    0.854614    11.00000    0.01300    0.02406 =
         0.01856    0.00050    0.00124   -0.00784
C70   1    0.218695    0.348779    0.890211    11.00000    0.01994    0.02792 =
         0.01322    0.00422   -0.00550   -0.00346
C71   1    0.011852    0.297082    0.973798    11.00000    0.02088    0.04685 =
         0.02531    0.00963   -0.00797   -0.01238
AFIX  23
H71A  2   -0.045052    0.260327    0.975699    11.00000   -1.20000
H71B  2    0.079736    0.246633    0.976082    11.00000   -1.20000
AFIX   0
C72   1   -0.010868    0.369481    1.022978    11.00000    0.03662    0.04222 =
         0.03098    0.00570   -0.00042   -0.00533
AFIX 137
H72A  2   -0.014146    0.331391    1.056963    11.00000   -1.50000
H72B  2   -0.079018    0.418570    1.021716    11.00000   -1.50000
H72C  2    0.045909    0.405166    1.021966    11.00000   -1.50000
AFIX   0
C73   1   -0.182019    0.389645    0.913219    11.00000    0.01995    0.03659 =
         0.01431    0.00293   -0.00168   -0.00220
AFIX  23
H73A  2   -0.185444    0.339892    0.942622    11.00000   -1.20000
H73B  2   -0.216849    0.370546    0.882864    11.00000   -1.20000
AFIX   0
C74   1   -0.244449    0.494570    0.935845    11.00000    0.01757    0.05358 =
         0.03023   -0.00130   -0.00426   -0.00377
AFIX 137
H74A  2   -0.319157    0.494118    0.946524    11.00000   -1.50000
H74B  2   -0.239591    0.544856    0.907453    11.00000   -1.50000
H74C  2   -0.214465    0.511741    0.968007    11.00000   -1.50000
AFIX   0
C75   1   -0.272257    0.558935    0.725061    11.00000    0.01747    0.04576 =
         0.03612    0.01861   -0.00910   -0.01050
AFIX  23
H75A  2   -0.285783    0.493062    0.736708    11.00000   -1.20000
H75B  2   -0.303224    0.576732    0.690481    11.00000   -1.20000
AFIX   0
C76   1   -0.328348    0.638940    0.769062    11.00000    0.02861    0.04294 =
         0.06598    0.01208    0.00951   -0.00390
AFIX 137
H76A  2   -0.405480    0.649484    0.770452    11.00000   -1.50000
H76B  2   -0.308402    0.702524    0.760140    11.00000   -1.50000
H76C  2   -0.307208    0.616227    0.804870    11.00000   -1.50000
AFIX   0
C77   1   -0.137112    0.632092    0.619310    11.00000    0.01510    0.04043 =
         0.02388    0.00976   -0.00878   -0.00291
AFIX  23
H77A  2   -0.104665    0.690068    0.611827    11.00000   -1.20000
H77B  2   -0.215107    0.659090    0.626727    11.00000   -1.20000
AFIX   0
C78   1   -0.111271    0.563127    0.568350    11.00000    0.03534    0.03925 =
         0.02464    0.01407   -0.01396   -0.01448
AFIX 137
H78A  2   -0.132049    0.602858    0.536324    11.00000   -1.50000
H78B  2   -0.150399    0.510240    0.573647    11.00000   -1.50000
H78C  2   -0.034755    0.531947    0.562320    11.00000   -1.50000
AFIX   0
C79   1    0.267582    0.656103    0.569953    11.00000    0.02400    0.03419 =
         0.02044    0.00856   -0.00425   -0.01176
AFIX  23
H79A  2    0.325208    0.691298    0.560710    11.00000   -1.20000
H79B  2    0.199124    0.707786    0.574647    11.00000   -1.20000
AFIX   0
C80   1    0.268499    0.583366    0.522318    11.00000    0.04191    0.05481 =
         0.01901    0.01052    0.00218   -0.01398
AFIX 137
H80A  2    0.255813    0.621889    0.488901    11.00000   -1.50000
H80B  2    0.212509    0.547319    0.531630    11.00000   -1.50000
H80C  2    0.337761    0.534553    0.516077    11.00000   -1.50000
AFIX   0
C81   1    0.477328    0.600847    0.633279    11.00000    0.01987    0.03586 =
         0.02725    0.00909   -0.00078   -0.00934
AFIX  23
H81A  2    0.504877    0.618565    0.666607    11.00000   -1.20000
H81B  2    0.469384    0.659835    0.608971    11.00000   -1.20000
AFIX   0
C82   1    0.557108    0.511815    0.603824    11.00000    0.02895    0.04831 =
         0.04124    0.00290   -0.00207   -0.00777
AFIX 137
H82A  2    0.626369    0.528149    0.595836    11.00000   -1.50000
H82B  2    0.532875    0.497118    0.569349    11.00000   -1.50000
H82C  2    0.563710    0.452562    0.627225    11.00000   -1.50000
AFIX   0
C83   1    0.584449    0.384444    0.806503    11.00000    0.01570    0.04154 =
         0.02573    0.00918   -0.00355   -0.01015
AFIX  23
H83A  2    0.617989    0.368973    0.840520    11.00000   -1.20000
H83B  2    0.592500    0.451924    0.794449    11.00000   -1.20000
AFIX   0
C84   1    0.642132    0.306587    0.762393    11.00000    0.02022    0.04359 =
         0.05093    0.01628    0.00423   -0.00213
AFIX 137
H84A  2    0.717080    0.308554    0.755456    11.00000   -1.50000
H84B  2    0.609638    0.321625    0.728495    11.00000   -1.50000
H84C  2    0.637018    0.239183    0.774674    11.00000   -1.50000
AFIX   0
C85   1    0.477906    0.294304    0.907437    11.00000    0.01380    0.03223 =
         0.02383    0.00860   -0.00502   -0.00588
AFIX  23
H85A  2    0.548653    0.255082    0.890465    11.00000   -1.20000
H85B  2    0.439316    0.246095    0.925401    11.00000   -1.20000
AFIX   0
C86   1    0.492393    0.367794    0.951091    11.00000    0.03028    0.04944 =
         0.03037    0.00192   -0.01098   -0.01783
AFIX 137
H86A  2    0.529902    0.329512    0.979618    11.00000   -1.50000
H86B  2    0.422578    0.407453    0.967683    11.00000   -1.50000
H86C  2    0.533948    0.413334    0.933841    11.00000   -1.50000
AFIX   0
C9S   1    0.370300    0.632873    0.872470    11.00000    0.05905    0.02765 =
         0.06222   -0.00207   -0.00018    0.00603
AFIX  13
H9SA  2    0.381607    0.560687    0.860663    11.00000   -1.20000
AFIX   0
CL1   6    0.260770    0.664205    0.920525    11.00000    0.09147    0.09499 =
         0.17672    0.00993    0.07624   -0.01508
CL2   6    0.484017    0.647656    0.899666    11.00000    0.07383    0.10958 =
         0.05245    0.00648   -0.02354   -0.01112
CL3   6    0.357280    0.709859    0.813969    11.00000    0.06454    0.04695 =
         0.06580   -0.00494   -0.03088    0.00130

HKLF    4




REM  28sepbm in P -1
REM wR2 = 0.1930, GooF = S = 1.035, Restrained GooF = 1.035 for all data
REM R1 = 0.0724 for 9534 Fo > 4sig(Fo) and 0.1268 for all 15413 data
REM 1043 parameters refined using 12 restraints

END

WGHT      0.0636      8.3318

REM Highest difference peak  0.737,  deepest hole -0.911,  1-sigma level  0.106
Q1    1   0.2631  0.1680  0.6772  11.00000  0.05    0.74
Q2    1   0.2790  0.7013  0.8276  11.00000  0.05    0.67
Q3    1   0.2599 -0.1305  0.6895  11.00000  0.05    0.57
Q4    1   0.2430 -0.1778  0.6658  11.00000  0.05    0.57
Q5    1   0.4372  0.1561  0.7973  11.00000  0.05    0.57
Q6    1   0.1540  0.6359  0.8805  11.00000  0.05    0.56
Q7    1   0.2028 -0.1123  0.6983  11.00000  0.05    0.55
Q8    1   0.0198  0.3579  0.9835  11.00000  0.05    0.52
Q9    1   0.0815  0.3214  0.6213  11.00000  0.05    0.48
Q10   1   0.3994  0.6591  0.9188  11.00000  0.05    0.47
;
_shelx_res_checksum              36816
_shelx_hkl_file
;
   2   0   0   31.21    4.43   1
   3   0   0  452.94   17.73   1
   4   0   0  655.21   24.35   1
   5   0   0   87.46    9.46   1
  -5   0   0   91.49    9.31   3
  -6   0   0  255.28   15.98   3
   6   0   0  298.63   17.10   1
  -7   0   0    7.48    4.86   3
   7   0   0    1.64    5.67   1
  -8   0   0  459.27   24.23   3
   8   0   0  453.16   25.12   1
  -9   0   0   39.00    8.91   3
   9   0   0   33.00   10.20   1
  10   0   0    7.12    8.29   1
 -10   0   0    2.03    5.29   3
 -11   0   0   73.04   12.30   3
  11   0   0   65.36   13.53   1
 -12   0   0  117.25   15.82   3
  12   0   0   99.33   16.55   1
  13   0   0  109.04   18.04   1
  14   0   0    7.07    8.87   1
  15   0   0   58.35   15.21   1
  15  -1   0   -4.25    8.32   1
  14  -1   0   20.59   10.30   1
  13  -1   0   76.90   16.03   1
  12  -1   0   70.70   14.52   1
 -12   1   0   96.45   15.15   3
 -11   1   0   80.31   13.37   3
  11  -1   0   85.07   15.05   1
 -10   1   0   83.63   13.07   3
  10  -1   0   57.03   13.19   1
  -9   1   0  148.17   15.88   3
   9  -1   0  192.86   18.18   1
  -8   1   0  108.14   12.96   3
   8  -1   0  129.59   14.68   1
   7  -1   0   38.67    9.05   1
  -7   1   0   32.26    7.63   3
   6  -1   0   50.70    9.54   1
  -6   1   0   58.84    8.83   3
  -5   1   0   -0.56    3.30   3
   5  -1   0    4.05    4.90   1
   4  -1   0  243.91   13.89   1
  -4   1   0  226.18   12.97   3
  -3   1   0  396.11   16.55   3
  -2   1   0   74.55    5.90   3
   2  -1   0   69.04    5.83   1
   1  -1   0  104.21    5.61   1
  -1   1   0  100.29    5.50   3
  -1  -1   0  288.32    9.66   4
  -1  -1   0  270.14    9.87   1
   2   1   0   10.13    3.32   1
   3   1   0 1342.49   40.09   1
   4   1   0  247.97   13.10   1
   5   1   0   64.08    8.43   1
   6   1   0   56.94    8.97   1
   7   1   0  218.87   15.72   1
   8   1   0   31.77    9.14   1
  -9  -1   0  348.08   21.54   3
   9   1   0  319.95   21.83   1
  10   1   0   12.06    8.90   1
 -10  -1   0   16.01    7.26   3
 -11  -1   0   52.80   10.72   3
  11   1   0   44.70   11.60   1
 -12  -1   0   58.40   11.35   3
  12   1   0   50.73   12.71   1
  13   1   0   -0.09    7.77   1
  14   1   0   22.55   11.50   1
  15   1   0   13.91    9.44   1
  14  -2   0  163.61   22.50   1
  13  -2   0   55.00   14.63   1
  12  -2   0  121.77   18.67   1
 -12   2   0   92.66   15.21   3
 -11   2   0   35.10    9.19   3
  11  -2   0   30.62   11.10   1
  10  -2   0    2.11    7.88   1
 -10   2   0   -0.53    4.84   3
  -9   2   0   23.11    8.55   3
   9  -2   0   36.25   11.14   1
   8  -2   0   88.18   13.91   1
  -8   2   0  102.06   13.05   3
  -7   2   0    5.02    4.72   3
   7  -2   0   11.47    7.11   1
  -6   2   0    2.80    3.97   3
   6  -2   0   -1.40    6.00   1
   5  -2   0   10.65    6.14   1
  -5   2   0    2.16    4.15   3
   4  -2   0  342.89   17.03   1
  -4   2   0  304.12   16.10   3
  -3   2   0  427.80   13.55   2
  -3   2   0  426.13   18.11   3
   3  -2   0  413.83   17.82   1
   2  -2   0 1124.60   35.09   1
  -2   2   0 1146.70   35.39   3
   1  -2   0   89.22    6.25   1
  -1   2   0   89.62    5.93   3
   0  -2   0 3558.13   92.38   1
   0   2   0 3375.38   91.69   3
  -1  -2   0  297.39   11.90   1
  -2  -2   0   29.18    4.36   4
  -2  -2   0   26.76    4.45   1
   4   2   0  284.97   14.28   1
   5   2   0  263.77   14.81   1
   6   2   0   24.76    7.01   1
   7   2   0   22.89    7.58   1
   8   2   0   14.83    7.72   1
   9   2   0   -6.88    6.50   1
  10   2   0    8.62    8.11   1
  11   2   0   13.36    8.98   1
 -11  -2   0   11.17    6.83   3
 -12  -2   0   26.84    8.36   3
  12   2   0   24.17    9.54   1
  13   2   0  169.16   20.85   1
  14   2   0    5.17    9.72   1
  15   2   0  123.63   20.63   1
  14  -3   0   29.93   11.99   1
  13  -3   0   11.83    9.40   1
  12  -3   0   39.65   12.95   1
 -12   3   0   61.63   12.61   3
  11  -3   0  184.50   20.90   1
 -11   3   0  206.67   20.44   3
 -10   3   0    8.55    6.35   3
  10  -3   0    8.83    9.50   1
   9  -3   0   14.13    9.22   1
  -9   3   0    9.23    6.19   3
  -8   3   0  198.01   16.57   3
   8  -3   0  163.85   17.34   1
  -7   3   0    3.66    5.19   3
   7  -3   0    4.52    7.50   1
  -6   3   0  264.31   11.02   2
  -6   3   0  232.55   16.41   3
   6  -3   0  240.86   17.46   1
   5  -3   0 1438.32   51.00   1
  -5   3   0 1607.05   52.02   3
  -4   3   0  125.36   11.19   3
   4  -3   0  140.62   11.66   1
  -3   3   0   16.01    4.94   3
   3  -3   0   15.57    5.58   1
   2  -3   0    8.94    4.07   1
  -2   3   0    3.00    3.75   3
  -1   3   0 1294.12   38.00   3
   1  -3   0 1203.25   38.48   1
   0   3   0  637.92   21.06   3
   0  -3   0  606.64   21.53   1
  -1  -3   0  107.09    7.51   1
  -2  -3   0 4304.77  116.80   1
  -3  -3   0 1181.84   38.54   1
  -4  -3   0   38.34    6.60   4
  -4  -3   0   25.42    6.20   1
   6   3   0  652.17   26.99   1
   7   3   0  540.59   25.42   1
   8   3   0   36.85    9.53   1
   9   3   0  137.44   15.39   1
  10   3   0   -7.25    6.98   1
  11   3   0   57.45   13.30   1
  12   3   0    5.89    8.53   1
  13   3   0    1.34    8.35   1
  14   3   0   -0.15    8.41   1
  15   3   0   24.45   11.27   1
  14  -4   0   76.36   17.18   1
  13  -4   0   36.65   12.12   1
 -12   4   0   41.80   10.99   3
  12  -4   0   49.27   14.46   1
  11  -4   0   14.98   10.65   1
 -11   4   0   11.42    7.79   3
  10  -4   0  -18.71    6.04   1
 -10   4   0   -5.98    4.45   3
  -9   4   0    9.58    6.25   3
   9  -4   0    8.75    8.63   1
  -8   4   0   45.49   10.22   3
   8  -4   0   55.54   12.65   1
   7  -4   0    9.78    9.00   1
  -7   4   0   14.17    6.79   3
  -6   4   0   53.96    9.84   3
   6  -4   0   72.19   11.91   1
  -5   4   0  289.10   17.63   3
   5  -4   0  280.39   18.15   1
   4  -4   0    6.99    5.60   1
  -4   4   0    5.24    4.39   3
   3  -4   0   86.54    9.66   1
  -3   4   0   74.21    8.77   3
   2  -4   0   40.24    6.59   1
  -2   4   0   41.78    6.37   3
  -1   4   0  559.15   21.51   3
   1  -4   0  586.33   22.77   1
   0  -4   0  733.67   26.78   1
   0   4   0  790.80   26.36   3
  -1  -4   0 1557.65   47.60   1
  -2  -4   0 5801.41  156.34   1
  -3  -4   0  496.45   21.41   1
  -4  -4   0  583.54   25.00   1
  -5  -4   0   22.59    6.21   1
  -5  -4   0   25.54    6.32   4
  -6  -4   0  142.93   12.59   4
  -6  -4   0  113.08   11.96   1
  -7  -4   0  260.02   18.15   1
  -7  -4   0  273.82   17.77   4
   9   4   0  301.66   21.02   1
  10   4   0  584.55   31.10   1
  11   4   0  192.64   19.40   1
  12   4   0   13.50    9.80   1
  13   4   0   37.31   11.50   1
  14   4   0   76.71   16.23   1
  15   4   0   15.36   10.12   1
  14  -5   0   20.17   11.69   1
  13  -5   0   22.36   12.52   1
 -12   5   0   -3.27    5.81   3
  12  -5   0   19.89   10.91   1
  11  -5   0   92.68   18.07   1
 -11   5   0   61.54   12.68   3
  10  -5   0  106.06   18.12   1
 -10   5   0  103.81   15.53   3
   9  -5   0   22.47   10.71   1
  -9   5   0    6.04    6.01   3
   8  -5   0   40.21   11.79   1
  -8   5   0   36.19    9.36   3
   7  -5   0   76.08   13.36   1
  -7   5   0  101.50   13.28   3
   6  -5   0  374.04   23.34   1
  -6   5   0  351.02   21.19   3
   5  -5   0  240.68   17.60   1
  -5   5   0  204.85   15.32   3
  -4   5   0  128.65   12.29   3
   4  -5   0  124.43   12.41   1
   3  -5   0    3.39    4.73   1
  -3   5   0    3.24    4.62   3
   2  -5   0  127.89   11.44   1
  -2   5   0  148.26   10.87   3
   1  -5   0  124.90   10.15   1
  -1   5   0  129.22    9.63   3
   0   5   0   31.84    5.74   3
   0  -5   0   30.97    6.01   1
  -1  -5   0  216.53   12.79   1
  -2  -5   0 4330.60  121.05   1
  -3  -5   0 1218.28   42.14   1
  -4  -5   0   13.55    5.15   1
  -5  -5   0    0.50    3.90   1
  -6  -5   0   -1.28    3.67   1
  -6  -5   0    0.51    4.07   4
  -7  -5   0  115.45   13.41   1
  -7  -5   0   93.58   11.94   4
  -8  -5   0  794.82   36.66   1
  -8  -5   0  866.74   36.35   4
  -9  -5   0   32.74    8.41   4
  -9  -5   0   25.21    7.86   1
 -10  -5   0  550.32   31.28   1
 -10  -5   0  517.80   29.07   4
 -11  -5   0    4.23    4.79   4
 -11  -5   0    1.07    6.14   1
 -12  -5   0   25.33   10.16   1
 -12  -5   0   22.46    8.45   4
 -13  -5   0   -6.54    4.94   4
 -13  -5   0   -4.04    7.05   1
 -14  -5   0    1.79    8.56   1
 -14  -5   0    4.14    7.51   4
 -15  -5   0    9.79    9.95   1
 -15  -5   0    4.99    7.73   4
  14  -6   0   47.22   12.80   1
  13  -6   0   76.83   17.61   1
  12  -6   0  142.90   22.48   1
 -12   6   0  119.24   18.23   3
  11  -6   0   23.86   11.18   1
 -11   6   0    9.58    7.95   3
 -10   6   0   21.30    9.49   3
  10  -6   0   25.39   11.78   1
   9  -6   0   58.99   13.75   1
  -9   6   0   47.26   11.28   3
  -8   6   0   25.06    8.74   3
   8  -6   0   35.42   11.52   1
   7  -6   0   12.69    8.34   1
  -7   6   0   16.03    7.53   3
  -6   6   0  191.61   16.15   3
   6  -6   0  191.91   18.10   1
  -5   6   0    2.74    5.23   3
   5  -6   0   -1.77    6.85   1
  -4   6   0  776.61   33.01   3
   4  -6   0  804.74   34.46   1
  -3   6   0  295.34   17.39   3
   3  -6   0  287.88   17.98   1
   2  -6   0  254.94   16.49   1
  -2   6   0  276.45   15.99   3
  -1   6   0  339.03   17.27   3
   1  -6   0  284.50   16.80   1
   0  -6   0   70.78    9.08   1
   0   6   0   71.48    8.43   3
  -1  -6   0  469.89   21.70   1
  -2  -6   0  387.11   19.59   1
  -3  -6   0  227.17   15.36   1
  -4  -6   0   21.15    6.77   1
  -5  -6   0   32.63    7.66   1
  -6  -6   0   63.36   10.58   1
  -7  -6   0    6.38    5.05   1
  -8  -6   0  101.53   13.47   4
  -8  -6   0  100.57   13.75   1
  -9  -6   0  183.16   18.09   1
  -9  -6   0  167.55   16.83   4
 -10  -6   0   24.87    8.62   1
 -10  -6   0   39.69    9.11   4
 -11  -6   0  369.89   26.41   1
 -11  -6   0  394.69   25.91   4
 -12  -6   0   12.71    7.41   1
 -12  -6   0   13.63    6.82   4
 -13  -6   0    5.13    7.30   1
 -13  -6   0    2.71    6.15   4
 -14  -6   0   81.88   15.90   4
 -14  -6   0   48.91   14.17   1
 -15  -6   0   21.73   11.56   1
 -15  -6   0   13.02    9.11   4
  13  -7   0    4.70   10.46   1
 -12   7   0    4.64    7.34   3
  12  -7   0   20.05   12.50   1
 -11   7   0    5.71    7.65   3
  11  -7   0   30.79   12.58   1
 -10   7   0   83.79   15.51   3
  10  -7   0   99.41   18.37   1
  -9   7   0  105.94   16.04   3
   9  -7   0  137.24   19.77   1
   8  -7   0   89.21   15.53   1
  -8   7   0   51.22   11.16   3
   7  -7   0   69.92   14.00   1
  -7   7   0   32.87    9.40   3
   6  -7   0    7.09    8.07   1
  -6   7   0    2.81    5.50   3
   5  -7   0   24.44    9.28   1
  -5   7   0   19.66    7.88   3
   4  -7   0  263.36   18.96   1
  -4   7   0  222.78   16.76   3
   3  -7   0  174.29   15.99   1
  -3   7   0  170.09   14.06   3
  -2   7   0   90.66   11.10   3
   2  -7   0   86.07   11.26   1
   1  -7   0   87.48   10.89   1
  -1   7   0   88.20   10.48   3
   0  -7   0    1.57    3.53   1
  -1  -7   0  716.37   30.13   1
  -2  -7   0  389.74   20.44   1
  -3  -7   0  286.64   18.01   1
  -4  -7   0    9.94    5.39   1
  -5  -7   0  374.54   22.22   1
  -6  -7   0  353.51   22.24   1
  -7  -7   0   11.27    6.30   1
  -8  -7   0  438.50   26.82   1
  -9  -7   0   -3.99    4.46   1
 -10  -7   0  107.83   16.01   1
 -11  -7   0  111.12   16.32   4
 -11  -7   0  111.16   17.23   1
 -12  -7   0   12.58    6.75   4
 -12  -7   0   17.48    9.04   1
 -13  -7   0   11.07    8.43   1
 -13  -7   0    7.50    6.53   4
 -14  -7   0    6.04    6.97   4
 -14  -7   0   19.10    9.65   1
 -15  -7   0   25.23   10.01   4
 -15  -7   0   31.28   12.40   1
 -16  -7   0   16.73   10.70   1
 -16  -7   0   18.77   10.00   4
  13  -8   0   -1.69   12.88   1
  12  -8   0    9.09   10.89   1
 -12   8   0    1.82    7.01   3
 -11   8   0   16.91    8.88   3
  11  -8   0   31.49   13.17   1
  10  -8   0   -0.81    8.44   1
 -10   8   0   15.79    8.50   3
  -9   8   0   15.05    7.95   3
   9  -8   0    8.16   10.09   1
   8  -8   0    2.88    8.12   1
  -8   8   0   -1.23    5.09   3
  -7   8   0    0.94    5.95   3
   7  -8   0    4.90    7.97   1
   6  -8   0  164.57   19.06   1
  -6   8   0  179.19   18.12   3
  -5   8   0   45.81   10.56   3
   5  -8   0   42.32   10.94   1
  -4   8   0  205.75   17.08   3
   4  -8   0  223.11   18.87   1
  -3   8   0  294.80   19.52   3
   3  -8   0  296.40   21.05   1
  -2   8   0   85.20   11.99   3
   2  -8   0  117.20   13.73   1
   1  -8   0   32.92    7.93   1
  -1   8   0   21.21    7.78   3
   0  -8   0  183.78   14.28   1
  -1  -8   0    0.51    3.72   1
  -2  -8   0  217.43   15.74   1
  -3  -8   0   23.61    7.04   1
  -4  -8   0  443.59   24.87   1
  -5  -8   0   73.40   11.87   1
  -6  -8   0  113.97   14.75   1
  -7  -8   0   10.32    6.09   1
  -8  -8   0   15.95    6.93   1
  -9  -8   0  289.60   22.46   1
 -10  -8   0  364.17   26.65   1
 -11  -8   0   65.38   14.18   1
 -12  -8   0    6.73    6.55   1
 -13  -8   0   62.69   14.47   1
 -14  -8   0   87.56   17.59   1
 -15  -8   0  125.69   21.62   1
 -16  -8   0   13.86   10.75   1
  12  -9   0   59.27   16.84   1
 -12   9   0   65.92   14.92   3
  11  -9   0   14.17   11.37   1
 -11   9   0   15.67    9.46   3
  10  -9   0  -13.06    7.58   1
 -10   9   0    5.51    7.45   3
   9  -9   0  115.64   20.14   1
  -9   9   0  101.43   16.31   3
  -8   9   0    2.46    6.66   3
   8  -9   0    6.72   10.29   1
   7  -9   0  219.00   23.14   1
  -7   9   0  232.55   19.79   3
   6  -9   0   62.40   14.28   1
  -6   9   0   42.73   10.38   3
  -5   9   0   23.47    8.62   3
   5  -9   0   21.04    8.94   1
  -4   9   0   28.21    9.01   3
   4  -9   0   36.17   10.10   1
   3  -9   0    6.49    6.47   1
  -3   9   0    9.34    6.99   3
  -2   9   0  151.32   15.84   3
   2  -9   0  128.01   15.20   1
   1  -9   0   29.21    8.05   1
   0  -9   0   -1.19    4.30   1
  -1  -9   0  129.49   14.52   1
  -2  -9   0   32.14    8.07   1
  -3  -9   0  449.94   25.03   1
  -4  -9   0    5.57    5.07   1
  -5  -9   0  724.75   35.50   1
  -6  -9   0  159.22   17.40   1
  -7  -9   0   70.96   12.89   1
  -8  -9   0    8.50    6.75   1
  -9  -9   0   -3.09    4.78   1
 -10  -9   0    7.18    6.56   1
 -11  -9   0    9.23    7.34   1
 -12  -9   0   25.04    9.70   1
 -13  -9   0   16.89    9.57   1
 -14  -9   0   30.50   12.23   1
 -15  -9   0    1.89    8.43   1
 -16  -9   0  111.28   21.64   1
  11 -10   0    0.69   10.09   1
 -11  10   0    9.84    9.21   3
 -10  10   0   25.10   10.29   3
  10 -10   0   38.48   14.62   1
  -9  10   0   11.53    8.37   3
   9 -10   0   25.81   11.86   1
   8 -10   0    3.52    7.73   1
  -8  10   0   21.34    9.40   3
   7 -10   0    7.77    9.62   1
  -7  10   0    2.12    7.06   3
   6 -10   0    5.57    7.88   1
  -6  10   0   -0.32    5.81   3
  -5  10   0   62.42   12.65   3
   5 -10   0   66.80   13.81   1
  -4  10   0   68.36   13.05   3
   4 -10   0   69.97   13.99   1
  -3  10   0  137.86   16.63   3
   3 -10   0  192.99   20.08   1
   2 -10   0   55.95   11.56   1
  -2  10   0   70.04   12.99   3
   1 -10   0   38.80    9.70   1
   0 -10   0   66.55   11.48   1
  -1 -10   0  109.63   14.37   1
  -2 -10   0   33.03    8.73   1
  -3 -10   0   10.16    6.12   1
  -4 -10   0   -2.09    4.16   1
  -5 -10   0  168.75   18.34   1
  -6 -10   0   34.89   10.09   1
  -7 -10   0  252.57   21.44   1
  -8 -10   0   87.42   15.39   1
  -9 -10   0   21.24    9.48   1
 -10 -10   0  125.71   19.16   1
 -11 -10   0   46.07   13.20   1
 -12 -10   0   21.29    9.31   1
 -13 -10   0   52.51   14.15   1
 -14 -10   0    9.56    8.09   1
 -15 -10   0   19.04   10.96   1
 -16 -10   0   -1.73   10.58   1
 -10  11   0   -5.19    7.63   3
  10 -11   0   -5.76   10.47   1
   9 -11   0   29.54   13.26   1
  -9  11   0    6.57    8.07   3
   8 -11   0    8.85    9.43   1
  -8  11   0   -2.06    6.87   3
  -7  11   0   18.88    8.97   3
   7 -11   0   40.33   13.95   1
  -6  11   0   29.49   10.07   3
   6 -11   0   38.53   12.41   1
   5 -11   0   19.10   10.15   1
  -5  11   0   58.46   13.14   3
   4 -11   0   -1.34    5.99   1
  -4  11   0    2.57    6.60   3
   3 -11   0    4.73    7.11   1
  -3  11   0    5.53    7.52   3
   2 -11   0   -3.50    4.33   1
   1 -11   0  145.77   17.36   1
   0 -11   0    7.55    5.33   1
  -1 -11   0   25.18    8.00   1
  -2 -11   0   35.35    9.43   1
  -3 -11   0  124.69   16.67   1
  -4 -11   0  239.76   19.80   1
  -5 -11   0    9.58    6.91   1
  -6 -11   0  196.05   21.02   1
  -7 -11   0   37.78   10.76   1
  -8 -11   0   49.47   12.52   1
  -9 -11   0   32.09   10.93   1
 -10 -11   0   -2.31    6.39   1
 -11 -11   0   34.49   11.51   1
 -12 -11   0   15.98    8.99   1
 -13 -11   0   14.91    9.66   1
 -14 -11   0   37.03   12.90   1
 -15 -11   0   38.69   14.33   1
  -9  12   0   -4.74    8.22   3
   9 -12   0   -2.18   10.84   1
   8 -12   0    1.41    9.70   1
  -8  12   0    8.89    9.55   3
   7 -12   0   61.65   15.16   1
  -7  12   0   51.68   13.10   3
  -6  12   0   -0.96    6.62   3
   6 -12   0    5.93    8.44   1
  -5  12   0  129.34   18.86   3
   5 -12   0   84.70   16.60   1
  -4  12   0   10.09    8.40   3
   4 -12   0    2.68    6.99   1
   3 -12   0   15.16    8.79   1
   2 -12   0   36.16   10.10   1
   1 -12   0   20.94    8.70   1
   0 -12   0   74.85   14.11   1
  -1 -12   0   92.45   15.27   1
  -2 -12   0   12.27    7.25   1
  -3 -12   0   15.58    7.90   1
  -4 -12   0   28.94   10.22   1
  -5 -12   0  168.53   20.05   1
  -6 -12   0   29.99   10.23   1
  -7 -12   0  213.57   23.42   1
  -8 -12   0  329.20   26.83   1
  -9 -12   0   61.53   14.46   1
 -10 -12   0    8.34    6.92   1
 -11 -12   0   24.33   10.51   1
 -12 -12   0   38.50   12.56   1
 -13 -12   0   89.53   17.91   1
 -14 -12   0   10.96    9.69   1
 -15 -12   0    3.87    9.10   1
   8 -13   0   28.25   13.29   1
   7 -13   0   11.33    9.40   1
  -7  13   0   12.13   10.61   3
  -6  13   0   89.11   16.58   3
   6 -13   0   92.44   18.94   1
   5 -13   0    3.24    8.09   1
  -5  13   0    4.45    6.98   3
   4 -13   0   -6.45    7.15   1
   3 -13   0   27.47    9.58   1
   2 -13   0   54.68   13.42   1
   1 -13   0  161.71   20.35   1
   0 -13   0  147.57   19.58   1
  -1 -13   0   36.93   10.57   1
  -2 -13   0  283.68   23.30   1
  -3 -13   0   64.33   14.16   1
  -4 -13   0  257.45   24.69   1
  -5 -13   0   -5.50    5.55   1
  -6 -13   0   11.31    7.72   1
  -7 -13   0   -0.81    6.57   1
  -8 -13   0    7.48    6.85   1
  -9 -13   0    1.03    6.97   1
 -10 -13   0   17.46    9.75   1
 -11 -13   0    9.60    8.47   1
 -12 -13   0   21.94   10.13   1
 -13 -13   0   -3.84    8.17   1
 -14 -13   0   -3.05    8.59   1
   6 -14   0   -1.09    5.63   1
   5 -14   0   -4.24    6.26   1
   4 -14   0   55.60   14.78   1
   3 -14   0    4.41    7.19   1
   2 -14   0   20.94    9.90   1
   1 -14   0   25.53    9.63   1
   0 -14   0    4.42    7.16   1
  -1 -14   0   23.50    8.84   1
  -2 -14   0   14.95    8.72   1
  -3 -14   0   12.44    7.83   1
  -4 -14   0   29.16   10.99   1
  -5 -14   0   26.29   11.24   1
  -6 -14   0  111.54   18.89   1
  -7 -14   0    2.79    7.28   1
  -8 -14   0   40.63   12.76   1
  -9 -14   0   94.18   18.03   1
 -10 -14   0   46.95   13.67   1
 -11 -14   0   58.91   15.24   1
 -12 -14   0    9.37    8.71   1
 -13 -14   0   63.89   17.53   1
   5 -15   0    1.53    6.80   1
   4 -15   0   -5.51    4.93   1
   3 -15   0   -4.79    5.44   1
   2 -15   0   -3.13    7.74   1
   1 -15   0   28.89   11.49   1
   0 -15   0  231.31   25.47   1
  -1 -15   0   -2.35    5.56   1
  -2 -15   0   90.37   16.95   1
  -3 -15   0    6.20    6.93   1
  -4 -15   0   -1.80    6.34   1
  -5 -15   0   69.59   16.00   1
  -6 -15   0   15.67    8.35   1
  -7 -15   0   12.78    8.04   1
  -8 -15   0    4.67    7.93   1
  -9 -15   0   79.32   17.07   1
 -10 -15   0   15.23    9.94   1
 -11 -15   0   -0.05    8.24   1
 -12 -15   0    5.15   11.65   1
   2 -16   0  -17.36    4.91   1
   1 -16   0   -1.68    4.92   1
   0 -16   0    3.94    4.61   1
  -1 -16   0    0.01    5.81   1
  -2 -16   0   -2.54    6.40   1
  -3 -16   0    8.64    7.94   1
  -4 -16   0    8.19    8.84   1
  -5 -16   0   20.49   10.10   1
  -6 -16   0   33.20   12.09   1
  -7 -16   0    8.65    8.45   1
  -8 -16   0   -2.07    8.02   1
  -9 -16   0   41.40   14.18   1
 -10 -16   0   25.62   12.46   1
  -1 -17   0   -2.16    5.60   1
  -2 -17   0  -14.87    5.71   1
  -3 -17   0   94.18   19.29   1
  -4 -17   0    1.57    8.69   1
  -5 -17   0   17.21   10.76   1
  -6 -17   0   48.59   15.29   1
  -7 -17   0    8.32    9.91   1
  -7 -17   1   13.10   11.72   1
  -6 -17   1  -10.59    8.60   1
  -5 -17   1   17.00   11.55   1
  -4 -17   1   27.66   11.89   1
  -3 -17   1   -0.93    6.17   1
  -2 -17   1   -6.50    5.56   1
  -1 -17   1  -19.69    4.89   1
 -10 -16   1    1.47   10.07   1
  -9 -16   1    4.85    9.00   1
  -8 -16   1   27.55   12.24   1
  -7 -16   1   14.25    9.54   1
  -6 -16   1   17.91   10.73   1
  -5 -16   1   91.97   18.98   1
  -4 -16   1   58.85   14.76   1
  -3 -16   1   -7.31    5.06   1
  -2 -16   1   -9.79    5.54   1
  -1 -16   1    0.24    6.38   1
   0 -16   1   -5.98    3.83   1
   1 -16   1    5.56    5.72   1
   2 -16   1    5.90    6.33   1
   3 -16   1   -3.09    5.13   1
 -12 -15   1    9.45   11.47   1
 -11 -15   1   11.39    9.45   1
 -10 -15   1   36.96   12.83   1
  -9 -15   1   35.88   12.15   1
  -8 -15   1   56.55   14.55   1
  -7 -15   1   -9.25    6.20   1
  -6 -15   1    2.16    7.40   1
  -5 -15   1   -8.24    5.48   1
  -4 -15   1   76.41   16.78   1
  -3 -15   1   82.72   16.63   1
  -2 -15   1    8.37    7.35   1
  -1 -15   1   49.15   13.41   1
   0 -15   1    7.78    8.21   1
   1 -15   1   40.56   11.97   1
   2 -15   1    7.17    9.36   1
   3 -15   1    2.68    5.22   1
   4 -15   1  -13.33    5.54   1
   5 -15   1   -2.30    6.27   1
 -13 -14   1   -2.51    9.07   1
 -12 -14   1   35.27   13.22   1
 -11 -14   1   39.93   14.18   1
 -10 -14   1   39.08   13.08   1
  -9 -14   1   63.26   15.61   1
  -8 -14   1   27.94   10.79   1
  -7 -14   1   18.73    9.33   1
  -6 -14   1    9.52    8.85   1
  -5 -14   1  200.74   24.34   1
  -4 -14   1  200.21   23.87   1
  -3 -14   1   19.61    9.86   1
  -2 -14   1   10.98    7.74   1
  -1 -14   1   -5.77    5.37   1
   0 -14   1   13.05    8.01   1
   1 -14   1   30.87   10.58   1
   2 -14   1    9.40    7.30   1
   3 -14   1   26.10   10.33   1
   4 -14   1   -0.87    7.30   1
   5 -14   1   25.56   11.45   1
   6 -14   1   -2.20    9.57   1
   7 -14   1   15.36   12.73   1
 -14 -13   1    9.24   10.72   1
 -13 -13   1   32.36   12.93   1
 -12 -13   1   28.83   11.46   1
 -11 -13   1   -1.15    6.65   1
 -10 -13   1   13.04    8.81   1
  -9 -13   1   -1.24    7.42   1
  -8 -13   1   50.28   13.95   1
  -7 -13   1   16.27    9.34   1
  -6 -13   1   -2.03    6.49   1
  -5 -13   1   21.93    8.88   1
  -4 -13   1   -3.31    6.08   1
  -3 -13   1  325.51   25.71   1
  -2 -13   1   -1.48    4.47   1
  -1 -13   1  145.41   18.96   1
   0 -13   1   64.67   13.92   1
   1 -13   1   25.78    9.01   1
   2 -13   1   46.34   12.47   1
   3 -13   1  100.60   17.44   1
   4 -13   1    6.79    8.32   1
   5 -13   1    9.34    9.15   1
  -5  13  -1   10.17    9.44   3
   6 -13   1    9.50    8.53   1
  -6  13  -1   -5.03    7.82   3
   7 -13   1  -10.31    5.86   1
  -7  13  -1    0.19    9.27   3
   8 -13   1    9.03   11.88   1
 -15 -12   1   -4.13   10.02   1
 -14 -12   1   21.67   12.22   1
 -13 -12   1   -8.65    7.56   1
 -12 -12   1   17.49   10.38   1
 -11 -12   1   42.43   12.63   1
 -10 -12   1   -3.83    6.43   1
  -9 -12   1  238.85   26.12   1
  -8 -12   1    3.79    7.36   1
  -7 -12   1   18.65    9.43   1
  -6 -12   1  179.49   21.28   1
  -5 -12   1   20.03    9.25   1
  -4 -12   1  134.06   18.37   1
  -3 -12   1   31.82    9.65   1
  -2 -12   1    7.06    5.79   1
  -1 -12   1   20.41    7.50   1
   0 -12   1    4.67    6.12   1
   1 -12   1   14.75    8.27   1
   2 -12   1   13.44    7.43   1
  -3  12  -1   -6.04    5.21   3
   3 -12   1    4.13    6.99   1
   4 -12   1    9.22    8.35   1
  -4  12  -1    6.41    8.16   3
   5 -12   1    0.08    7.80   1
  -5  12  -1    9.41    8.87   3
  -6  12  -1   28.34   10.88   3
   6 -12   1   49.28   14.49   1
  -7  12  -1   27.62   10.61   3
   7 -12   1   57.48   14.54   1
  -8  12  -1   56.73   15.01   3
   8 -12   1   49.37   14.14   1
   9 -12   1   25.70   13.37   1
  -9  12  -1    9.68    9.61   3
 -15 -11   1  124.09   22.67   1
 -14 -11   1    6.54    9.15   1
 -13 -11   1    4.78    9.43   1
 -12 -11   1   14.55    8.51   1
 -11 -11   1   48.13   13.19   1
 -10 -11   1   14.49    9.27   1
  -9 -11   1   10.94    8.07   1
  -8 -11   1   47.05   12.13   1
  -7 -11   1   33.14   10.61   1
  -6 -11   1    5.21    5.96   1
  -5 -11   1    8.77    5.91   1
  -4 -11   1   64.58   12.69   1
  -3 -11   1   76.76   13.27   1
  -2 -11   1  119.76   15.84   1
  -1 -11   1   37.19    9.60   1
   0 -11   1  107.61   15.11   1
   1 -11   1    8.61    6.34   1
  -2  11  -1   47.14   11.27   3
   2 -11   1   33.29   10.06   1
   3 -11   1   -0.86    6.16   1
  -3  11  -1   14.12    8.84   3
  -4  11  -1    5.14    7.43   3
   4 -11   1   31.13    9.86   1
   5 -11   1   -0.80    6.73   1
  -5  11  -1   11.78    8.50   3
  -6  11  -1    0.77    6.28   3
   6 -11   1    3.39    8.75   1
  -7  11  -1    1.35    7.84   3
   7 -11   1   17.52   10.97   1
   8 -11   1   17.77   11.43   1
  -8  11  -1   22.86    9.81   3
   9 -11   1   20.10   12.77   1
  -9  11  -1   22.45    9.36   3
 -10  11  -1   56.12   13.90   3
  10 -11   1   38.86   13.39   1
 -16 -10   1   -5.92   10.57   1
 -15 -10   1   14.44    9.62   1
 -14 -10   1   19.72   10.24   1
 -13 -10   1    4.87    7.38   1
 -12 -10   1   12.64    7.88   1
 -11 -10   1  104.07   18.74   1
 -10 -10   1    5.61    8.57   1
  -9 -10   1   97.29   16.82   1
  -8 -10   1   60.68   12.83   1
  -7 -10   1   37.76   10.38   1
  -6 -10   1  489.23   30.13   1
  -5 -10   1   69.83   12.80   1
  -4 -10   1   26.59    8.26   1
  -3 -10   1    5.97    5.55   1
  -2 -10   1   51.56   10.24   1
  -1 -10   1   53.83   10.53   1
   0 -10   1   81.91   12.80   1
   1 -10   1    3.13    5.44   1
  -2  10  -1  176.93   18.22   3
   2 -10   1  194.00   18.74   1
   3 -10   1    8.60    7.01   1
  -3  10  -1   16.30    8.30   3
   4 -10   1  111.69   16.14   1
  -4  10  -1   95.06   14.59   3
  -5  10  -1   -6.99    5.39   3
   5 -10   1   10.80    7.96   1
  -6  10  -1  146.95   17.99   3
   6 -10   1  139.72   19.33   1
  -7  10  -1    0.20    7.42   3
   7 -10   1   18.05   10.50   1
  -8  10  -1    1.40    7.67   3
   8 -10   1    6.27    9.41   1
  -9  10  -1   71.19   14.52   3
   9 -10   1   78.11   17.55   1
 -10  10  -1    0.23    7.68   3
  10 -10   1    4.88   10.17   1
 -11  10  -1   10.41    8.38   3
  11 -10   1   -4.15    7.50   1
 -16  -9   1   15.20   10.73   1
 -15  -9   1   35.31   12.46   1
 -14  -9   1   -3.39    6.80   1
 -13  -9   1   -7.96    6.24   1
 -12  -9   1    6.83    7.69   1
 -11  -9   1    2.37    6.87   1
 -10  -9   1  125.99   18.54   1
  -9  -9   1    7.83    6.39   1
  -8  -9   1    5.73    6.70   1
  -7  -9   1   61.51   12.37   1
  -6  -9   1   90.23   14.63   1
  -5  -9   1    9.58    6.51   1
  -4  -9   1  213.92   17.71   1
  -3  -9   1   23.81    7.37   1
  -2  -9   1  969.50   40.93   1
  -1  -9   1    9.41    5.57   1
   0  -9   1    4.77    4.81   1
  -1   9  -1    5.50    5.89   3
   1  -9   1    0.17    4.34   1
   2  -9   1   54.66   10.52   1
  -2   9  -1   56.01   11.36   3
   3  -9   1   29.38    8.72   1
  -3   9  -1   35.24    9.24   3
   4  -9   1    8.47    7.59   1
  -4   9  -1   19.52    7.78   3
  -5   9  -1   44.58   11.04   3
   5  -9   1   17.99    8.87   1
  -6   9  -1   10.74    6.97   3
   6  -9   1   -7.39    6.37   1
  -7   9  -1   64.00   13.15   3
   7  -9   1   51.92   12.87   1
  -8   9  -1   43.79   11.41   3
   8  -9   1   31.44   12.01   1
  -9   9  -1    7.18    8.26   3
   9  -9   1    9.35   10.26   1
 -10   9  -1   18.49    8.84   3
  10  -9   1    7.72    9.98   1
  11  -9   1  144.14   23.06   1
 -11   9  -1  136.58   19.85   3
 -12   9  -1   -5.77    7.29   3
  12  -9   1   14.65    9.65   1
 -16  -8   1  -19.13    8.27   1
 -15  -8   1   32.85   11.89   1
 -14  -8   1    9.72    9.47   1
 -13  -8   1    9.85    8.24   1
 -12  -8   1   -0.41    5.24   1
 -11  -8   1   89.43   16.48   1
 -10  -8   1    5.76    6.65   1
  -9  -8   1   -2.96    4.13   1
  -8  -8   1  165.23   18.46   1
  -7  -8   1   15.69    7.63   1
  -6  -8   1   31.93    8.52   1
  -5  -8   1  406.44   24.55   1
  -4  -8   1  384.28   23.13   1
  -3  -8   1  312.01   19.97   1
  -2  -8   1  129.52   13.51   1
  -1  -8   1  203.56   15.12   1
   0  -8   1   25.00    7.07   1
  -1   8  -1   29.52    7.99   3
   1  -8   1   25.13    7.26   1
  -2   8  -1  300.44   19.03   3
   2  -8   1  292.44   19.02   1
  -3   8  -1  108.00   13.13   3
   3  -8   1  136.50   14.67   1
   4  -8   1   16.59    7.55   1
  -4   8  -1   19.62    7.42   3
  -5   8  -1  497.30   27.54   3
   5  -8   1  489.11   28.49   1
   6  -8   1   96.58   16.03   1
  -6   8  -1   97.91   14.29   3
   7  -8   1   -2.45    7.12   1
  -7   8  -1    4.79    6.06   3
  -8   8  -1   21.39    8.97   3
   8  -8   1   13.34    8.96   1
   9  -8   1   59.41   14.43   1
  -9   8  -1   68.43   13.99   3
 -10   8  -1   65.37   14.00   3
  10  -8   1   71.71   16.47   1
 -11   8  -1   -5.91    6.13   3
  11  -8   1   11.39   10.36   1
  12  -8   1   28.75   12.38   1
 -12   8  -1    2.07    7.59   3
 -13   8  -1    3.95    9.07   3
 -16  -7   1    2.88    7.74   4
 -16  -7   1   -8.91    8.00   1
 -15  -7   1    4.75    7.27   4
 -15  -7   1    5.05    8.29   1
 -14  -7   1   44.98   13.68   1
 -14  -7   1   22.63   10.23   4
 -13  -7   1   11.70    7.38   4
 -13  -7   1   14.77    8.77   1
 -12  -7   1    6.67    5.92   4
 -12  -7   1    0.24    6.33   1
 -11  -7   1   89.65   14.82   4
 -11  -7   1   87.24   15.66   1
 -10  -7   1    1.73    5.08   4
 -10  -7   1   -2.64    5.37   1
  -9  -7   1   99.76   14.99   1
  -8  -7   1    5.86    5.48   1
  -7  -7   1  267.64   20.20   1
  -6  -7   1  652.31   32.06   1
  -5  -7   1  178.34   16.67   1
  -4  -7   1  747.19   33.33   1
  -3  -7   1 1158.61   44.00   1
  -2  -7   1  947.10   37.08   1
  -1  -7   1  319.97   18.49   1
   0   7  -1    7.65    4.63   3
   0  -7   1    0.75    3.64   1
  -1   7  -1  389.05   20.06   3
   1  -7   1  395.56   21.10   1
  -2   7  -1    4.65    4.50   3
   2  -7   1    4.23    5.09   1
   3  -7   1   17.77    6.97   1
  -3   7  -1   17.85    7.17   3
   4  -7   1    0.84    6.29   1
  -4   7  -1    1.48    5.18   3
   5  -7   1   46.14   10.48   1
  -5   7  -1   14.28    7.25   3
   6  -7   1   10.83    8.29   1
  -6   7  -1    3.07    5.65   3
  -7   7  -1   30.43    9.57   3
   7  -7   1   51.75   11.86   1
  -8   7  -1   27.47    8.34   3
   8  -7   1    5.95    8.06   1
  -9   7  -1   30.44   10.11   3
   9  -7   1   37.75   12.72   1
  10  -7   1   89.49   17.54   1
 -10   7  -1   82.57   15.61   3
  11  -7   1  284.37   28.11   1
 -11   7  -1  226.16   23.29   3
 -12   7  -1   11.16    7.44   3
  12  -7   1   -2.14    9.24   1
  13  -7   1   18.39   12.14   1
 -13   7  -1   16.97   10.42   3
 -16  -6   1   14.72   11.12   1
 -16  -6   1   -9.32    6.86   4
 -15  -6   1   51.21   15.33   1
 -15  -6   1   68.45   15.35   4
 -14  -6   1    0.51    5.83   4
 -14  -6   1   13.70    8.82   1
 -13  -6   1   37.17   11.65   1
 -13  -6   1   26.98    9.06   4
 -12  -6   1   19.14    8.40   4
 -12  -6   1   23.26    9.35   1
 -11  -6   1    2.59    5.22   1
 -11  -6   1   -2.01    4.47   4
 -10  -6   1   96.57   14.38   4
 -10  -6   1   92.38   14.39   1
  -9  -6   1    5.36    5.75   1
  -9  -6   1    4.85    4.94   4
  -8  -6   1  449.43   25.32   4
  -8  -6   1  417.39   25.37   1
  -7  -6   1   89.99   12.94   1
  -6  -6   1   15.48    6.71   1
  -5  -6   1  197.05   15.05   1
  -4  -6   1  404.63   22.07   1
  -3  -6   1  273.61   17.00   1
  -2  -6   1  130.04   11.10   1
  -1  -6   1   98.72   10.17   1
   0   6  -1  716.39   27.66   3
   0  -6   1  704.87   28.72   1
   1  -6   1   22.82    5.94   1
  -1   6  -1   20.64    5.73   3
   2  -6   1  536.78   24.78   1
  -2   6  -1  569.95   24.73   3
  -3   6  -1  261.70   16.46   3
   3  -6   1  246.51   16.62   1
  -4   6  -1  127.78   13.53   3
   4  -6   1  168.86   15.36   1
   5  -6   1   90.11   13.14   1
  -5   6  -1  115.51   13.61   3
  -6   6  -1   34.81    9.20   3
   6  -6   1   19.95    9.09   1
   7  -6   1   97.38   14.93   1
  -7   6  -1   87.32   13.51   3
   8  -6   1   30.88   10.58   1
  -8   6  -1   33.87   10.03   3
   9  -6   1   16.56    8.88   1
  -9   6  -1    3.06    6.27   3
  10  -6   1   50.07   13.28   1
 -10   6  -1   57.80   12.26   3
  11  -6   1    3.53    9.20   1
 -11   6  -1    2.19    7.17   3
 -12   6  -1   12.54    8.97   3
  12  -6   1    2.74    9.64   1
 -13   6  -1   23.64   10.32   3
  13  -6   1   23.63   11.91   1
 -16  -5   1   14.12    9.23   4
 -16  -5   1    9.63   10.63   1
 -15  -5   1    3.13    7.18   4
 -15  -5   1    9.32   10.63   1
 -14  -5   1   12.57    7.19   4
 -14  -5   1    1.59    8.19   1
 -13  -5   1   15.20   10.05   1
 -13  -5   1   18.16    7.63   4
 -12  -5   1   15.99    8.86   1
 -12  -5   1   10.81    6.67   4
 -11  -5   1    1.38    5.82   1
 -11  -5   1    3.45    5.14   4
 -10  -5   1  130.49   17.55   1
 -10  -5   1  167.24   17.59   4
  -9  -5   1  537.14   29.94   1
  -9  -5   1  477.92   27.30   4
  -8  -5   1  156.48   16.22   1
  -8  -5   1  174.53   16.16   4
  -7  -5   1   25.32    7.28   1
  -7  -5   1   28.76    7.53   4
  -6  -5   1   29.79    7.31   1
  -6  -5   1   28.85    7.20   4
  -5  -5   1    0.09    3.46   1
  -4  -5   1  570.96   25.97   1
  -3  -5   1 1196.83   42.14   1
  -2  -5   1  187.94   12.91   1
  -1  -5   1  617.13   24.80   1
   0  -5   1   59.71    7.51   1
   0   5  -1   49.22    6.73   3
   1  -5   1    6.36    3.78   1
  -1   5  -1    0.46    3.42   3
  -2   5  -1  134.28   10.75   3
   2  -5   1  132.73   10.65   1
   3  -5   1   99.83   10.63   1
  -3   5  -1  117.75   11.25   3
  -4   5  -1    0.13    4.45   3
   4  -5   1   -0.86    5.01   1
   5  -5   1   17.77    7.52   1
  -5   5  -1    5.00    5.09   3
  -6   5  -1   96.59   12.83   3
   6  -5   1   94.91   13.26   1
  -7   5  -1   88.09   13.05   3
   7  -5   1  115.68   15.58   1
  -8   5  -1   -6.90    4.61   3
   8  -5   1    4.47    7.97   1
  -9   5  -1   31.39   10.21   3
   9  -5   1   62.41   14.37   1
  10  -5   1   15.72    9.80   1
 -10   5  -1   18.07    8.05   3
 -11   5  -1   65.11   13.18   3
  11  -5   1   88.27   16.77   1
  12  -5   1  242.34   26.00   1
 -12   5  -1  216.61   23.03   3
 -13   5  -1    0.96    7.34   3
  13  -5   1   12.21    9.45   1
  16   4  -1  -16.08    7.65   1
  15   4  -1    1.36    8.87   1
  14   4  -1   31.86   11.84   1
  13   4  -1   26.62   11.31   1
  12   4  -1   69.76   14.59   1
  11   4  -1    8.09    8.18   1
  10   4  -1  766.55   37.02   1
   9   4  -1   80.40   13.74   1
   8   4  -1  123.04   14.36   1
  -7  -4   1   52.56    9.30   4
  -7  -4   1   34.55    8.15   1
  -6  -4   1   82.13   10.64   4
  -6  -4   1   78.61   11.07   1
  -5  -4   1   18.30    5.91   1
  -5  -4   1   41.19    7.70   4
  -4  -4   1   16.81    5.33   1
  -4  -4   1    5.24    4.66   4
  -3  -4   1   59.15    7.87   1
  -2  -4   1    0.97    3.12   1
  -1  -4   1 1303.37   41.62   1
   0   4  -1   10.37    4.09   3
   0  -4   1   11.64    4.00   1
   1  -4   1  330.27   15.64   1
  -1   4  -1  363.71   15.86   3
  -2   4  -1   66.28    7.64   3
   2  -4   1   63.91    7.81   1
  -3   4  -1    0.04    3.93   3
   3  -4   1    3.23    4.41   1
   4  -4   1  102.89   10.65   1
  -4   4  -1  123.68   11.51   3
  -5   4  -1    8.36    5.65   3
   5  -4   1   11.83    6.23   1
   6  -4   1  213.50   16.83   1
  -6   4  -1  202.39   15.70   3
   7  -4   1   -1.73    7.72   1
  -7   4  -1   11.14    6.64   3
  -8   4  -1   10.60    6.52   3
   8  -4   1   -0.21    7.57   1
   9  -4   1  103.90   16.32   1
  -9   4  -1   74.20   12.83   3
  10  -4   1   30.36   11.30   1
 -10   4  -1   29.42    9.81   3
 -11   4  -1   70.81   13.64   3
  11  -4   1   66.19   14.97   1
 -12   4  -1   10.68    7.75   3
  12  -4   1   17.20   10.10   1
 -13   4  -1  137.23   19.68   3
  13  -4   1  141.82   21.04   1
  16   3  -1   39.27   13.98   1
  15   3  -1   21.20    9.84   1
  14   3  -1    8.43    9.00   1
  13   3  -1    3.67    9.03   1
  12   3  -1   19.62    9.77   1
  11   3  -1   16.68    9.70   1
  10   3  -1   13.18    9.03   1
   9   3  -1   17.91    8.70   1
   8   3  -1  922.73   38.30   1
   7   3  -1   52.25    9.75   1
   6   3  -1   32.48    7.86   1
   5   3  -1  175.31   12.18   1
  -4  -3   1  347.57   17.03   4
  -4  -3   1  347.17   17.83   1
  -3  -3   1  639.95   23.86   4
  -3  -3   1  633.49   24.67   1
  -2  -3   1 1909.18   56.52   1
  -1  -3   1 7732.78  202.83   1
   0  -3   1 1841.74   52.15   1
   0   3  -1 1769.13   50.95   3
  -1   3  -1   65.10    6.29   3
   1  -3   1   49.76    5.69   1
  -2   3  -1  224.25    7.97   2
  -2   3  -1  211.15   12.31   3
   2  -3   1  246.26   12.52   1
   3  -3   1    2.73    4.15   1
  -3   3  -1    9.25    4.62   3
   4  -3   1 1140.14   39.20   1
  -4   3  -1 1135.39   40.28   3
  -5   3  -1  207.32    8.57   2
  -5   3  -1  195.76   14.03   3
   5  -3   1  208.79   14.69   1
   6  -3   1    4.44    5.71   1
  -6   3  -1    1.31    4.56   3
  -6   3  -1   -0.38    2.06   2
   7  -3   1  386.18   23.00   1
  -7   3  -1  373.86   22.25   3
  -8   3  -1   13.97    7.29   3
   8  -3   1   11.15    8.77   1
   9  -3   1  141.73   17.00   1
  -9   3  -1  111.54   15.01   3
  10  -3   1   16.03    9.48   1
 -10   3  -1   15.57    7.93   3
  11  -3   1   12.32    8.97   1
 -11   3  -1    9.11    6.82   3
  12  -3   1   66.39   14.36   1
 -12   3  -1   73.77   14.20   3
 -13   3  -1    5.62    7.43   3
  13  -3   1    8.85    9.65   1
  14  -3   1   68.28   15.42   1
  16   2  -1    8.63    9.33   1
  15   2  -1   25.95   10.28   1
  14   2  -1  106.48   18.82   1
  13   2  -1   10.73    9.23   1
  12   2  -1  309.56   24.03   1
 -11  -2   1   40.89    9.32   3
  11   2  -1   15.63    8.43   1
  10   2  -1   54.83   11.89   1
 -10  -2   1   53.21   10.43   3
   9   2  -1  624.40   31.41   1
   8   2  -1  562.33   28.14   1
   7   2  -1   28.96    8.43   1
   6   2  -1   60.12    9.42   1
   5   2  -1  353.57   17.88   1
   4   2  -1   64.02    7.67   1
   3   2  -1  101.36    8.30   1
  -2  -2   1   10.35    3.59   1
  -2  -2   1    7.92    3.33   4
  -1  -2   1 1764.27   50.00   1
   0  -2   1   77.59    5.31   1
   0   2  -1   86.28    5.15   2
   0   2  -1  101.07    5.56   3
   1  -2   1  717.67   23.17   1
  -1   2  -1  723.43   21.27   2
  -1   2  -1  750.49   23.69   3
  -2   2  -1   91.43    7.49   3
   2  -2   1  103.64    7.84   1
  -2   2  -1  100.56    5.04   2
  -3   2  -1  229.24    8.55   2
  -3   2  -1  246.59   13.30   3
   3  -2   1  202.94   11.96   1
  -4   2  -1  184.47   12.24   3
  -4   2  -1  195.40    8.83   2
   4  -2   1  182.49   12.17   1
  -5   2  -1   15.13    5.66   3
  -5   2  -1   15.66    3.58   2
   5  -2   1    6.05    5.59   1
  -6   2  -1  386.76   20.84   3
   6  -2   1  386.02   20.66   1
  -6   2  -1  352.82   15.83   2
  -7   2  -1   16.88    6.51   3
  -7   2  -1   30.77    5.31   2
   7  -2   1   35.01    9.08   1
   8  -2   1  145.32   15.88   1
  -8   2  -1  146.83   15.34   3
  -9   2  -1   18.26    7.66   3
   9  -2   1   13.49    9.22   1
 -10   2  -1    3.33    5.15   3
  10  -2   1    3.13    8.13   1
 -11   2  -1   97.01   15.31   3
  11  -2   1   67.02   14.06   1
 -12   2  -1   56.74   13.33   3
  12  -2   1   63.87   14.83   1
  13  -2   1  144.64   20.22   1
 -13   2  -1  150.47   19.50   3
  14  -2   1   38.70   12.99   1
  16   1  -1    3.38    9.24   1
  15   1  -1   34.12   12.24   1
  14   1  -1   10.38   10.18   1
  13   1  -1    5.24    8.84   1
  12   1  -1   12.33    8.67   1
 -11  -1   1   44.46   10.07   3
  11   1  -1   24.09   10.22   1
  10   1  -1  229.48   19.60   1
 -10  -1   1  247.90   18.38   3
   9   1  -1   13.89    8.65   1
  -9  -1   1   31.00    8.05   3
   8   1  -1  109.31   13.68   1
  -8  -1   1   93.05   11.35   3
   7   1  -1    9.82    6.49   1
   6   1  -1    3.40    5.62   1
   5   1  -1 2570.63   75.96   1
   4   1  -1  235.69   13.58   1
   2   1  -1  396.72   14.66   1
   1   1  -1 1081.90   32.77   2
  -1  -1   1 1179.31   31.39   4
  -1  -1   1 1140.23   32.62   1
   0   1  -1  560.54   16.73   2
   0   1  -1  554.89   16.37   3
   0  -1   1  569.94   16.69   1
  -1   1  -1    4.90    1.50   2
   1  -1   1    8.97    2.04   1
  -1   1  -1    9.88    2.57   3
  -2   1  -1    0.85    1.84   2
   2  -1   1    0.86    2.78   1
  -2   1  -1    2.09    2.82   3
   3  -1   1   65.95    6.87   1
  -3   1  -1   65.48    7.04   3
   4  -1   1  261.08   13.97   1
  -4   1  -1  255.15   14.33   3
   5  -1   1   27.58    6.79   1
  -5   1  -1   22.35    5.87   3
  -6   1  -1    1.74    4.26   3
   6  -1   1   16.33    6.48   1
  -7   1  -1  393.36   21.84   3
   7  -1   1  408.77   22.15   1
  -8   1  -1  141.10   14.69   3
   8  -1   1  109.56   13.38   1
  -9   1  -1   21.43    7.64   3
   9  -1   1   13.00    8.62   1
 -10   1  -1   27.23    8.43   3
  10  -1   1   42.56   11.52   1
 -11   1  -1   54.28   12.05   3
  11  -1   1   40.10   11.18   1
 -12   1  -1  142.11   18.07   3
  12  -1   1  149.68   19.24   1
 -13   1  -1   38.23   10.74   3
  13  -1   1   21.72   10.95   1
  14  -1   1   25.82   10.93   1
  15   0  -1   -5.99    8.39   1
  14   0  -1   68.80   15.37   1
  13   0  -1   58.88   14.01   1
  12   0  -1   60.68   13.68   1
  11   0  -1   25.85   10.50   1
 -11   0   1   17.50    6.94   3
  10   0  -1   52.21   12.50   1
 -10   0   1   64.15   11.17   3
   9   0  -1  379.54   24.11   1
  -9   0   1  337.06   20.91   3
  -8   0   1   51.18    9.19   3
   8   0  -1   47.13   10.42   1
   7   0  -1    8.88    7.15   1
  -7   0   1   13.41    5.13   3
   6   0  -1  134.15   12.79   1
  -6   0   1  156.63   11.59   3
   5   0  -1  621.73   25.46   1
  -5   0   1  596.90   24.07   3
  -4   0   1  939.52   31.72   3
   4   0  -1  971.66   33.02   1
   3   0  -1  522.55   20.16   1
  -3   0   1  528.94   18.79   3
  -2   0   1   43.72    3.90   3
   2   0  -1   49.12    5.19   1
   1   0  -1 7277.62  194.45   1
  -1   0   1 7782.60  199.70   3
   0   0  -1   -5.77    0.29   2
   2   0   1    4.55    1.89   1
   3   0   1   19.86    5.31   1
   4   0   1  162.37   10.67   1
   5   0   1  108.39    9.86   1
   6   0   1  260.74   15.71   1
  -6   0  -1  286.43   16.95   3
  -7   0  -1   33.41    7.79   3
   7   0   1   20.65    7.33   1
   8   0   1   26.17    8.40   1
  -8   0  -1   18.05    6.81   3
   9   0   1   23.30    9.06   1
  -9   0  -1   30.05    8.66   3
  10   0   1  112.09   15.45   1
 -10   0  -1  122.91   15.42   3
  11   0   1   -2.88    7.34   1
 -11   0  -1    2.41    5.23   3
  12   0   1   -8.72    6.70   1
 -12   0  -1   -3.31    5.62   3
 -13   0  -1   13.85    7.82   3
  13   0   1   25.68   10.94   1
  14   0   1  110.12   18.58   1
  15  -1  -1   13.36    9.59   1
  14  -1  -1    0.71    9.60   1
  13  -1  -1   36.02   12.40   1
  12  -1  -1   -1.36    7.92   1
  11  -1  -1   20.71    9.70   1
 -11   1   1   51.76   10.61   3
 -10   1   1  138.10   15.39   3
  10  -1  -1  127.82   17.09   1
   9  -1  -1  151.74   16.83   1
  -9   1   1  157.02   15.50   3
   8  -1  -1   -2.16    7.06   1
  -8   1   1    0.21    4.21   3
   7  -1  -1 1545.85   54.99   1
  -7   1   1 1597.18   53.83   3
   6  -1  -1   66.52   10.24   1
  -6   1   1   80.00    9.38   3
   5  -1  -1   42.56    8.13   1
  -5   1   1   38.28    6.68   3
   4  -1  -1 1216.30   40.66   1
  -4   1   1 1242.40   39.69   3
  -3   1   1  162.11    9.51   3
   3  -1  -1  144.40   10.87   1
   2  -1  -1 1520.15   42.13   2
   2  -1  -1 1449.17   43.60   1
  -2   1   1 1527.51   43.00   3
  -1   1   1  238.60    8.76   3
   1  -1  -1  230.80    9.59   1
   1  -1  -1  250.29    7.87   2
  -1  -1  -1  207.51    7.61   1
   2   1   1   11.54    2.35   1
   3   1   1   25.35    4.98   1
   4   1   1  146.37   10.04   1
   5   1   1   -1.43    4.40   1
   6   1   1   20.97    6.56   1
   7   1   1   25.26    7.55   1
   8   1   1  449.01   23.77   1
   9   1   1  111.13   13.88   1
  -9  -1  -1  106.49   13.63   3
  10   1   1   18.58    9.22   1
 -10  -1  -1   34.02    9.69   3
 -11  -1  -1   61.08   11.82   3
  11   1   1   40.57   11.23   1
 -12  -1  -1   -4.70    4.74   3
  12   1   1    2.57    8.00   1
  13   1   1  112.56   17.51   1
 -13  -1  -1  114.92   16.39   3
  14   1   1    2.74    8.07   1
  15  -2  -1   15.76   10.71   1
  14  -2  -1   39.66   13.24   1
  13  -2  -1  115.15   19.08   1
 -12   2   1    1.87    5.29   3
  12  -2  -1    3.13    7.67   1
 -11   2   1   12.53    7.15   3
  11  -2  -1   -4.35    6.14   1
  10  -2  -1   13.89    9.16   1
 -10   2   1   14.92    7.31   3
   9  -2  -1   80.70   14.76   1
  -9   2   1  110.47   13.93   3
   8  -2  -1   40.40   11.30   1
  -8   2   1   39.72    8.96   3
  -7   2   1   38.68    8.36   3
   7  -2  -1   48.92   10.28   1
  -6   2   1   18.77    6.05   3
   6  -2  -1   32.05    8.70   1
   5  -2  -1    7.42    6.10   1
  -5   2   1   -0.59    3.69   3
  -4   2   1   18.21    5.20   3
   4  -2  -1   20.86    6.68   1
   3  -2  -1  934.50   32.38   1
  -3   2   1  965.83   31.85   3
  -2   2   1   50.92    5.62   3
   2  -2  -1   52.92    6.45   1
   1  -2  -1   44.41    4.92   1
  -1   2   1   46.43    4.49   3
   1  -2  -1   44.20    3.16   2
   0  -2  -1  682.43   21.58   1
  -1  -2  -1  927.33   27.81   1
  -2  -2  -1  703.12   23.21   1
  -3  -2  -1  242.62   11.89   1
  -3  -2  -1  217.22   11.01   4
   4   2   1  238.26   12.41   1
   5   2   1   46.90    7.32   1
   6   2   1   74.14    9.40   1
   7   2   1   21.08    7.18   1
   8   2   1  225.48   16.40   1
   9   2   1   -6.01    6.26   1
  10   2   1  105.43   14.60   1
  11   2   1   51.41   12.31   1
 -11  -2  -1   30.46    8.98   3
 -12  -2  -1  116.97   15.62   3
  12   2   1  107.16   16.64   1
  13   2   1    2.87    8.11   1
  14   2   1  148.12   20.71   1
  15   2   1  205.01   24.30   1
  15  -3  -1    9.10   10.06   1
  14  -3  -1   11.17    9.69   1
  13  -3  -1    9.70    9.00   1
  12  -3  -1   26.35   10.90   1
 -12   3   1   30.88    9.71   3
 -11   3   1  -13.55    3.67   3
  11  -3  -1    1.44    7.50   1
 -10   3   1    6.69    6.05   3
  10  -3  -1   -1.33    8.24   1
   9  -3  -1  338.00   24.60   1
  -9   3   1  296.50   20.78   3
  -8   3   1   36.89    9.20   3
   8  -3  -1    2.25    7.60   1
   7  -3  -1  559.59   29.08   1
  -7   3   1  555.73   27.18   3
  -6   3   1  342.25   19.23   3
   6  -3  -1  327.70   20.27   1
   5  -3  -1   49.01    9.05   1
  -5   3   1   50.22    8.19   3
  -4   3   1   15.12    5.10   3
   4  -3  -1   10.12    5.51   1
   3  -3  -1   93.60    9.68   1
  -3   3   1   88.67    8.17   3
  -2   3   1  642.82   23.68   3
   2  -3  -1  693.73   25.30   1
   1  -3  -1  521.41   19.96   1
   1  -3  -1  514.69   16.86   2
  -1   3   1  525.37   19.02   3
   0  -3  -1  765.95   25.52   1
  -1  -3  -1 2082.17   58.91   1
  -2  -3  -1 7606.85  199.86   1
  -3  -3  -1   33.86    5.78   1
  -4  -3  -1   34.86    6.33   1
  -4  -3  -1   31.91    6.00   4
  -5  -3  -1  931.72   34.17   1
  -5  -3  -1  905.16   32.48   4
   6   3   1  116.28   10.95   1
   7   3   1   12.23    6.74   1
   8   3   1  390.55   21.40   1
   9   3   1   76.21   12.74   1
  10   3   1   87.54   14.32   1
  11   3   1   97.49   15.20   1
  12   3   1   72.24   13.92   1
  13   3   1   -8.85    6.63   1
  14   3   1    2.35    9.20   1
  15   3   1    2.20    9.01   1
  15  -4  -1   87.26   17.71   1
  14  -4  -1   10.08   10.47   1
  13  -4  -1   22.02   11.36   1
  12  -4  -1   38.35   12.77   1
 -12   4   1   38.01   11.13   3
 -11   4   1   40.56   10.42   3
  11  -4  -1   72.83   16.59   1
 -10   4   1    5.25    6.53   3
  10  -4  -1   33.59   11.51   1
   9  -4  -1   10.08    8.51   1
  -9   4   1   -1.33    5.00   3
   8  -4  -1   22.69    9.50   1
  -8   4   1   12.93    6.80   3
  -7   4   1   99.37   12.49   3
   7  -4  -1   84.38   14.21   1
  -6   4   1  150.53   13.90   3
   6  -4  -1  156.93   15.98   1
   5  -4  -1   38.16    8.68   1
  -5   4   1   39.43    7.84   3
  -4   4   1    3.35    4.24   3
   4  -4  -1    0.86    4.53   1
  -3   4   1  247.42   14.16   3
   3  -4  -1  235.15   14.70   1
  -2   4   1  312.93   15.30   3
   2  -4  -1  307.17   16.07   1
   2  -4  -1  343.68   11.38   2
  -1   4   1    5.56    3.57   3
   1  -4  -1   12.50    4.77   1
   0  -4  -1 1458.11   45.14   1
  -1  -4  -1 3827.80  105.13   1
  -2  -4  -1  606.26   23.28   1
  -3  -4  -1  166.30   11.21   1
  -4  -4  -1   53.78    7.76   1
  -5  -4  -1  221.75   14.15   1
  -5  -4  -1  198.77   13.26   4
  -6  -4  -1  138.27   12.39   4
  -6  -4  -1  141.59   12.05   1
  -7  -4  -1   -4.78    3.16   1
  -7  -4  -1    2.29    4.40   4
  -8  -4  -1    2.88    5.00   1
  -8  -4  -1    3.77    4.62   4
  10   4   1   61.56   12.62   1
  11   4   1    7.30    8.24   1
  12   4   1    7.50    7.81   1
  13   4   1   94.49   16.09   1
  14   4   1    2.78    9.01   1
  14  -5  -1   17.34   11.62   1
  13  -5  -1   12.65   11.01   1
  12  -5  -1   20.55   11.65   1
 -12   5   1   -1.20    6.69   3
 -11   5   1    1.71    6.62   3
  11  -5  -1   -1.11    8.67   1
  10  -5  -1    6.95    9.55   1
 -10   5   1    3.74    5.69   3
   9  -5  -1  225.83   22.89   1
  -9   5   1  171.41   17.65   3
   8  -5  -1  184.36   19.75   1
  -8   5   1  180.08   17.17   3
   7  -5  -1  123.19   16.35   1
  -7   5   1  128.95   14.42   3
   6  -5  -1  452.92   25.98   1
  -6   5   1  457.49   24.50   3
   5  -5  -1   11.03    6.77   1
  -5   5   1    5.91    5.00   3
   4  -5  -1  407.84   22.32   1
  -4   5   1  406.19   20.68   3
  -3   5   1  249.09   15.05   3
   3  -5  -1  276.24   17.12   1
   2  -5  -1   61.19    8.50   1
  -2   5   1   47.92    7.34   3
   2  -5  -1   45.69    4.49   2
  -1   5   1   20.15    5.37   3
   1  -5  -1   17.16    5.16   1
   0  -5  -1   19.97    5.20   1
  -1  -5  -1   94.71    8.96   1
  -2  -5  -1  660.46   25.91   1
  -3  -5  -1  333.68   17.35   1
  -4  -5  -1  713.57   29.40   1
  -5  -5  -1   69.13    9.82   1
  -6  -5  -1  213.76   15.42   1
  -7  -5  -1   85.94   11.48   1
  -7  -5  -1  107.10   12.00   4
  -8  -5  -1  423.19   24.29   1
  -8  -5  -1  456.08   24.24   4
  -9  -5  -1  493.10   26.52   4
  -9  -5  -1  481.77   27.15   1
 -10  -5  -1   72.06   12.73   1
 -10  -5  -1   64.87   11.15   4
 -11  -5  -1   44.98   11.04   1
 -11  -5  -1   55.90   11.50   4
 -12  -5  -1  135.71   17.49   4
 -12  -5  -1  116.96   17.94   1
 -13  -5  -1   21.95    9.33   1
 -13  -5  -1   22.62    8.07   4
 -14  -5  -1    1.99    6.52   4
 -14  -5  -1   15.92    9.93   1
 -15  -5  -1  -10.04    5.39   4
 -15  -5  -1   -2.09    8.34   1
  14  -6  -1   55.00   16.09   1
  13  -6  -1   61.35   15.82   1
 -12   6   1   13.77    9.22   3
  12  -6  -1    8.38   10.13   1
  11  -6  -1    0.41    8.61   1
 -11   6   1    4.21    6.84   3
 -10   6   1    7.46    6.79   3
  10  -6  -1   18.98   10.73   1
   9  -6  -1    5.45    8.25   1
  -9   6   1    6.41    6.39   3
  -8   6   1    0.96    5.50   3
   8  -6  -1    4.52    8.26   1
  -7   6   1    5.79    6.07   3
   7  -6  -1   -2.35    7.99   1
  -6   6   1   24.87    7.61   3
   6  -6  -1   17.32    7.98   1
   5  -6  -1  621.89   31.32   1
  -5   6   1  574.31   27.85   3
   4  -6  -1    2.24    5.84   1
  -4   6   1   -0.25    4.77   3
  -3   6   1  140.93   11.94   3
   3  -6  -1  147.36   13.77   1
   2  -6  -1   56.19    9.02   1
  -2   6   1   76.82    9.34   3
   2  -6  -1   58.65    5.31   2
   1  -6  -1    7.00    4.63   1
  -1   6   1   -1.56    3.61   3
   0  -6  -1    8.50    4.21   1
  -1  -6  -1  721.24   28.63   1
  -2  -6  -1   37.99    7.16   1
  -3  -6  -1   23.81    6.35   1
  -4  -6  -1  460.65   22.86   1
  -5  -6  -1   20.91    6.52   1
  -6  -6  -1   20.15    6.27   1
  -7  -6  -1    2.27    4.33   1
  -8  -6  -1    8.56    5.76   1
  -9  -6  -1   94.18   13.70   1
  -9  -6  -1   81.51   12.66   4
 -10  -6  -1  179.28   18.65   1
 -10  -6  -1  151.95   16.75   4
 -11  -6  -1   58.68   11.40   4
 -11  -6  -1   98.23   15.34   1
 -12  -6  -1    3.87    5.12   4
 -12  -6  -1    8.54    6.20   1
 -13  -6  -1   31.61   10.21   1
 -13  -6  -1   23.24    8.68   4
 -14  -6  -1    0.19    7.12   1
 -14  -6  -1    3.75    6.91   4
 -15  -6  -1   20.39   10.09   4
 -15  -6  -1   44.10   13.10   1
  13  -7  -1   17.36   10.09   1
  12  -7  -1   -3.83    9.47   1
 -12   7   1   24.57    9.18   3
  11  -7  -1   39.39   13.74   1
 -11   7   1   45.84   12.14   3
  10  -7  -1   70.27   16.05   1
 -10   7   1   67.67   13.86   3
   9  -7  -1   -4.27    7.57   1
  -9   7   1   10.42    7.39   3
  -8   7   1  126.43   15.97   3
   8  -7  -1   92.66   16.70   1
   7  -7  -1   21.88    9.21   1
  -7   7   1   18.10    8.08   3
  -6   7   1  203.92   17.24   3
   6  -7  -1  244.83   21.89   1
   5  -7  -1   -3.26    6.79   1
  -5   7   1    7.02    6.27   3
   4  -7  -1  161.80   16.54   1
  -4   7   1  145.75   14.59   3
  -3   7   1  173.62   13.71   3
   3  -7  -1  136.59   14.41   1
   2  -7  -1   -2.83    3.55   1
  -2   7   1    7.24    5.70   3
   2  -7  -1    2.95    2.78   2
  -1   7   1   85.93   10.52   3
   1  -7  -1  120.04   12.62   1
   0  -7  -1  457.54   22.69   1
  -1  -7  -1   11.19    4.90   1
  -2  -7  -1  149.71   12.24   1
  -3  -7  -1   15.97    5.78   1
  -4  -7  -1 3235.04   98.18   1
  -5  -7  -1  750.25   33.26   1
  -6  -7  -1    8.43    5.12   1
  -7  -7  -1  329.71   21.58   1
  -8  -7  -1    3.87    4.23   1
  -9  -7  -1   87.05   14.05   1
 -10  -7  -1  431.51   27.69   1
 -11  -7  -1   -3.04    4.46   1
 -12  -7  -1   19.02    8.07   1
 -12  -7  -1    6.56    5.45   4
 -13  -7  -1    7.51    6.68   4
 -13  -7  -1   11.77    7.42   1
 -14  -7  -1   -2.78    7.00   1
 -14  -7  -1    0.35    5.90   4
 -15  -7  -1    4.37    7.62   1
 -15  -7  -1    9.91    7.61   4
  13  -8  -1   20.37   14.15   1
 -12   8   1   18.21    9.32   3
  12  -8  -1   19.34   11.85   1
  11  -8  -1   19.50   10.49   1
 -11   8   1   25.22    9.50   3
  10  -8  -1   16.94   10.52   1
 -10   8   1    5.75    7.06   3
   9  -8  -1   -7.27    8.30   1
  -9   8   1   -2.60    6.27   3
   8  -8  -1   46.87   13.45   1
  -8   8   1   34.96   10.26   3
   7  -8  -1  116.94   17.54   1
  -7   8   1   65.87   12.16   3
   6  -8  -1   37.32   11.96   1
  -6   8   1   36.54    9.71   3
   5  -8  -1  288.97   22.36   1
  -5   8   1  256.94   19.30   3
   4  -8  -1   25.68    9.36   1
  -4   8   1   19.11    7.95   3
  -3   8   1   95.36   12.67   3
   3  -8  -1   55.87   11.21   1
   2  -8  -1  231.74   17.52   1
  -2   8   1  204.53   15.93   3
   1  -8  -1  306.39   19.63   1
   0  -8  -1   25.07    6.84   1
  -1  -8  -1  448.95   23.63   1
  -2  -8  -1   11.43    5.51   1
  -3  -8  -1    7.90    4.71   1
  -4  -8  -1  187.34   15.25   1
  -5  -8  -1  136.28   14.99   1
  -6  -8  -1    3.06    4.77   1
  -7  -8  -1   35.27    8.88   1
  -8  -8  -1  141.23   16.91   1
  -9  -8  -1    9.23    6.22   1
 -10  -8  -1   83.66   14.70   1
 -11  -8  -1   90.21   16.09   1
 -12  -8  -1   44.31   12.09   1
 -13  -8  -1   80.83   16.16   1
 -14  -8  -1  104.20   19.08   1
 -15  -8  -1   26.36   11.80   1
  12  -9  -1    9.75   13.23   1
 -12   9   1   -3.06    7.94   3
  11  -9  -1   44.11   14.49   1
 -11   9   1   25.33    9.97   3
 -10   9   1   82.07   15.93   3
  10  -9  -1  136.12   22.11   1
  -9   9   1   15.76    8.51   3
   9  -9  -1   -3.86    8.00   1
   8  -9  -1  111.01   19.59   1
  -8   9   1   87.28   14.76   3
  -7   9   1   -1.39    5.90   3
   7  -9  -1   -9.23    7.08   1
   6  -9  -1    0.09    7.27   1
  -6   9   1    2.28    6.06   3
  -5   9   1   64.21   11.85   3
   5  -9  -1   19.58    9.01   1
  -4   9   1   23.56    8.65   3
   4  -9  -1   30.35    9.78   1
   3  -9  -1   10.15    7.08   1
  -3   9   1    7.74    7.30   3
   2  -9  -1    0.40    5.28   1
  -2   9   1    0.53    5.72   3
   1  -9  -1    4.74    5.06   1
   0  -9  -1   67.88   10.93   1
  -1  -9  -1  112.77   13.62   1
  -2  -9  -1   51.41    9.65   1
  -3  -9  -1   18.58    6.49   1
  -4  -9  -1  630.61   31.44   1
  -5  -9  -1  137.80   16.02   1
  -6  -9  -1   94.02   14.45   1
  -7  -9  -1   32.90    9.32   1
  -8  -9  -1   37.44   10.44   1
  -9  -9  -1    7.52    6.43   1
 -10  -9  -1   27.12    9.36   1
 -11  -9  -1    9.20    6.69   1
 -12  -9  -1    1.66    6.61   1
 -13  -9  -1   54.99   14.32   1
 -14  -9  -1   13.17    8.50   1
 -15  -9  -1   17.82   10.88   1
 -11  10   1   10.17    9.61   3
  11 -10  -1    1.46   13.15   1
 -10  10   1   52.16   13.15   3
  10 -10  -1   41.65   16.08   1
   9 -10  -1   36.78   13.37   1
  -9  10   1   10.86    8.38   3
   8 -10  -1   -2.52    8.65   1
  -8  10   1   -0.33    6.52   3
  -7  10   1    2.43    7.05   3
   7 -10  -1   13.45   10.12   1
  -6  10   1  215.49   21.15   3
   6 -10  -1  237.68   24.96   1
  -5  10   1   14.12    8.12   3
   5 -10  -1   17.90    9.14   1
  -4  10   1  113.49   15.58   3
   4 -10  -1  132.61   17.90   1
   3 -10  -1   -1.80    6.29   1
  -3  10   1   -1.97    6.14   3
   2 -10  -1    4.85    5.82   1
   1 -10  -1  568.49   30.15   1
   0 -10  -1    7.67    5.36   1
  -1 -10  -1  110.31   14.40   1
  -2 -10  -1    5.56    5.32   1
  -3 -10  -1   46.65   10.14   1
  -4 -10  -1   -3.55    4.39   1
  -5 -10  -1   62.52   12.16   1
  -6 -10  -1   52.35   11.54   1
  -7 -10  -1   43.24   11.17   1
  -8 -10  -1   11.98    7.20   1
  -9 -10  -1   44.85   11.35   1
 -10 -10  -1   65.17   13.79   1
 -11 -10  -1  171.99   22.02   1
 -12 -10  -1   67.56   14.34   1
 -13 -10  -1   -2.83    5.84   1
 -14 -10  -1   86.47   17.77   1
 -15 -10  -1   -0.22    8.63   1
  10 -11  -1   92.15   20.93   1
 -10  11   1   72.29   15.97   3
  -9  11   1   11.58    8.74   3
   9 -11  -1   11.79   10.43   1
  -8  11   1   23.41   10.09   3
   8 -11  -1   11.73   10.25   1
  -7  11   1   57.95   13.53   3
   7 -11  -1   26.66   11.51   1
  -6  11   1    3.68    6.45   3
   6 -11  -1    4.98    8.95   1
   5 -11  -1    3.39    7.86   1
  -5  11   1    8.91    8.09   3
   4 -11  -1   38.28   11.03   1
  -4  11   1    9.99    7.94   3
   3 -11  -1    9.74    7.75   1
   2 -11  -1   23.71    8.33   1
   1 -11  -1   86.04   13.97   1
   0 -11  -1    1.85    5.24   1
  -1 -11  -1   33.23    9.18   1
  -2 -11  -1  265.05   20.66   1
  -3 -11  -1  177.45   18.51   1
  -4 -11  -1    5.23    5.97   1
  -5 -11  -1  124.26   16.51   1
  -6 -11  -1   46.88   11.71   1
  -7 -11  -1  273.28   22.80   1
  -8 -11  -1   76.65   14.26   1
  -9 -11  -1    9.70    6.85   1
 -10 -11  -1   29.57   10.99   1
 -11 -11  -1   -2.61    6.87   1
 -12 -11  -1   30.89   12.13   1
 -13 -11  -1   54.46   14.54   1
 -14 -11  -1   -8.41    6.55   1
 -15 -11  -1   40.34   14.64   1
  -9  12   1   -1.44    8.17   3
   9 -12  -1   19.11   13.08   1
  -8  12   1    9.52    9.34   3
   8 -12  -1    0.39    8.84   1
   7 -12  -1    9.62    9.33   1
  -7  12   1   17.63    9.95   3
   6 -12  -1  108.25   19.74   1
  -6  12   1   74.97   15.52   3
   5 -12  -1   22.62   10.31   1
  -5  12   1   26.86   10.76   3
   4 -12  -1   15.10    9.15   1
   3 -12  -1   22.78    9.19   1
   2 -12  -1   -4.79    4.74   1
   1 -12  -1  245.35   22.88   1
   0 -12  -1    9.54    6.27   1
  -1 -12  -1   15.83    7.08   1
  -2 -12  -1    3.38    6.13   1
  -3 -12  -1   -4.82    5.63   1
  -4 -12  -1   12.93    7.48   1
  -5 -12  -1   74.45   13.76   1
  -6 -12  -1   92.35   15.73   1
  -7 -12  -1  129.91   18.87   1
  -8 -12  -1   10.90    7.27   1
  -9 -12  -1   29.67   10.77   1
 -10 -12  -1   29.78   10.64   1
 -11 -12  -1   16.49    8.93   1
 -12 -12  -1   32.47   12.08   1
 -13 -12  -1    3.16    8.33   1
 -14 -12  -1   48.00   15.16   1
 -15 -12  -1   -0.57    9.09   1
   8 -13  -1    3.35   11.73   1
  -8  13   1   20.54   10.78   3
   7 -13  -1   12.05    7.64   1
  -7  13   1   89.64   17.63   3
   6 -13  -1   20.17   11.67   1
   5 -13  -1   -1.91    7.77   1
   4 -13  -1   35.33   12.04   1
   3 -13  -1   57.27   13.63   1
   2 -13  -1   72.26   14.39   1
   1 -13  -1   48.89   12.50   1
   0 -13  -1   33.26    9.98   1
  -1 -13  -1  204.65   21.87   1
  -2 -13  -1    1.14    6.15   1
  -3 -13  -1   63.06   13.60   1
  -4 -13  -1   -4.77    5.76   1
  -5 -13  -1    4.09    6.25   1
  -6 -13  -1   15.10    8.91   1
  -7 -13  -1    2.19    6.94   1
  -8 -13  -1   36.66   11.49   1
  -9 -13  -1   29.74   11.21   1
 -10 -13  -1   -2.72    7.50   1
 -11 -13  -1   24.80   10.72   1
 -12 -13  -1    2.15    8.10   1
 -13 -13  -1    0.82    8.03   1
 -14 -13  -1   17.94   10.87   1
   6 -14  -1   -5.78    5.96   1
   5 -14  -1   -7.37    3.86   1
   4 -14  -1   -7.92    7.93   1
   3 -14  -1   22.95   10.23   1
   2 -14  -1    3.33    6.94   1
   1 -14  -1  -10.66    5.59   1
   0 -14  -1   43.55   11.62   1
  -1 -14  -1    1.78    6.70   1
  -2 -14  -1   -0.16    5.84   1
  -3 -14  -1    3.89    6.37   1
  -4 -14  -1   13.71    8.57   1
  -5 -14  -1   43.20   11.99   1
  -6 -14  -1   18.40    8.87   1
  -7 -14  -1   -2.61    5.57   1
  -8 -14  -1  100.46   18.05   1
  -9 -14  -1   54.37   14.01   1
 -10 -14  -1  112.77   20.11   1
 -11 -14  -1   -2.27    7.42   1
 -12 -14  -1   88.00   18.55   1
 -13 -14  -1   26.78   12.26   1
   4 -15  -1   -1.70    4.79   1
   3 -15  -1   -4.18    4.05   1
   2 -15  -1   -9.51    5.23   1
   1 -15  -1   72.14   15.89   1
   0 -15  -1    9.29    8.57   1
  -1 -15  -1  161.91   22.28   1
  -2 -15  -1   83.92   16.67   1
  -3 -15  -1    2.09    7.64   1
  -4 -15  -1   75.64   15.93   1
  -5 -15  -1    0.28    6.89   1
  -6 -15  -1  138.95   21.49   1
  -7 -15  -1   14.94    8.58   1
  -8 -15  -1   42.74   13.16   1
  -9 -15  -1   26.86   10.84   1
 -10 -15  -1   -1.74    7.38   1
 -11 -15  -1    7.13    8.31   1
 -12 -15  -1    2.02    8.54   1
   2 -16  -1    5.25    6.14   1
   1 -16  -1   -3.99    4.73   1
   0 -16  -1   -2.68    4.09   1
  -1 -16  -1   -9.90    4.93   1
  -2 -16  -1   -2.74    7.90   1
  -3 -16  -1    6.14    7.79   1
  -4 -16  -1    4.34    7.75   1
  -5 -16  -1   41.06   12.99   1
  -6 -16  -1   13.59    9.86   1
  -7 -16  -1   10.37    8.56   1
  -8 -16  -1   30.28   11.91   1
  -9 -16  -1   29.44   11.03   1
 -10 -16  -1  104.50   20.59   1
  -1 -17  -1   -7.27    4.94   1
  -2 -17  -1   56.65   16.37   1
  -3 -17  -1   29.21   12.66   1
  -4 -17  -1   44.12   14.05   1
  -5 -17  -1   11.79    9.70   1
  -6 -17  -1   -2.23    8.77   1
  -7 -17  -1    7.05    9.51   1
  -8 -17  -1    9.16    9.89   1
  -7 -17   2   15.85   11.27   1
  -6 -17   2   -3.45    8.56   1
  -5 -17   2   13.20   10.74   1
  -4 -17   2   -8.07    5.62   1
  -3 -17   2   -4.17    4.57   1
  -2 -17   2   -0.90    6.55   1
  -1 -17   2    6.38    5.37   1
 -10 -16   2    8.90   10.97   1
  -9 -16   2   70.81   17.80   1
  -8 -16   2   21.14   11.70   1
  -7 -16   2   -4.07    7.49   1
  -6 -16   2    2.79    8.61   1
  -5 -16   2   57.28   15.03   1
  -4 -16   2   13.78   10.19   1
  -3 -16   2    2.60    6.86   1
  -2 -16   2   -0.93    6.54   1
  -1 -16   2   -5.25    5.32   1
   0 -16   2   -5.79    4.13   1
   1 -16   2  -11.76    4.35   1
   2 -16   2   -4.13    4.99   1
   3 -16   2    2.68    5.87   1
 -11 -15   2   24.64   11.67   1
 -10 -15   2   80.72   18.26   1
  -9 -15   2  195.97   26.44   1
  -8 -15   2   26.24   11.73   1
  -7 -15   2   13.07    9.05   1
  -6 -15   2    2.63    8.22   1
  -5 -15   2   -9.70    6.60   1
  -4 -15   2   14.95    9.04   1
  -3 -15   2    5.75    6.41   1
  -2 -15   2  138.49   20.52   1
  -1 -15   2    4.79    7.07   1
   0 -15   2   54.02   13.57   1
   1 -15   2   29.98   11.35   1
   2 -15   2   10.13    8.71   1
   3 -15   2   10.01    7.73   1
   4 -15   2   -5.25    4.99   1
   5 -15   2   22.87   12.21   1
 -13 -14   2   -0.98    7.47   1
 -12 -14   2    4.88    9.62   1
 -11 -14   2   16.23   10.22   1
 -10 -14   2  132.49   21.96   1
  -9 -14   2    5.69    8.25   1
  -8 -14   2   81.41   17.04   1
  -7 -14   2    2.79    7.71   1
  -6 -14   2   64.72   14.87   1
  -5 -14   2   92.65   17.32   1
  -4 -14   2   10.46    8.44   1
  -3 -14   2   43.93   11.82   1
  -2 -14   2   -4.65    4.61   1
  -1 -14   2   37.90   10.82   1
   0 -14   2    9.07    6.82   1
   1 -14   2   -4.50    5.86   1
   2 -14   2   12.12    7.74   1
   3 -14   2   13.06    9.06   1
   4 -14   2    1.67    8.60   1
   5 -14   2   55.42   15.43   1
   6 -14   2   18.92   11.51   1
  -6  14  -2    8.53   10.64   3
   7 -14   2   69.02   18.47   1
 -14 -13   2   36.34   13.86   1
 -13 -13   2    7.81    8.51   1
 -12 -13   2  121.92   21.49   1
 -11 -13   2   28.96   11.05   1
 -10 -13   2   -5.29    6.87   1
  -9 -13   2   41.38   12.72   1
  -8 -13   2    6.94    8.39   1
  -7 -13   2    7.59    7.36   1
  -6 -13   2   -2.82    6.33   1
  -5 -13   2   26.81   10.20   1
  -4 -13   2   31.09   10.52   1
  -3 -13   2   79.74   14.91   1
  -2 -13   2   89.73   15.77   1
  -1 -13   2   12.31    7.30   1
   0 -13   2    1.31    4.90   1
   1 -13   2  180.32   21.37   1
   2 -13   2   57.75   13.32   1
   3 -13   2   69.93   14.47   1
  -4  13  -2   35.68   12.39   3
   4 -13   2   74.93   15.86   1
  -5  13  -2    1.95    8.02   3
   5 -13   2    9.27    8.76   1
   6 -13   2    0.26    7.58   1
  -6  13  -2    6.11    8.54   3
   7 -13   2   29.61   11.39   1
  -7  13  -2    9.21    9.46   3
   8 -13   2    5.13   11.19   1
 -14 -12   2   -2.72    8.83   1
 -13 -12   2   35.96   13.04   1
 -12 -12   2   53.32   15.52   1
 -11 -12   2    5.22    7.30   1
 -10 -12   2  250.82   27.45   1
  -9 -12   2   15.73    9.54   1
  -8 -12   2  177.15   22.96   1
  -7 -12   2   60.03   13.62   1
  -6 -12   2    4.77    6.38   1
  -5 -12   2  114.92   17.59   1
  -4 -12   2   35.63   10.07   1
  -3 -12   2   73.65   13.62   1
  -2 -12   2   33.77    9.42   1
  -1 -12   2   -1.53    4.77   1
   0 -12   2    8.86    6.31   1
   1 -12   2   83.16   14.70   1
   2 -12   2    1.13    6.58   1
  -3  12  -2   28.77   10.48   3
   3 -12   2   27.62    9.90   1
   4 -12   2   10.47    7.98   1
  -4  12  -2   -4.41    7.45   3
  -5  12  -2  181.00   21.54   3
   5 -12   2  175.11   21.48   1
   6 -12   2    9.75    9.04   1
  -6  12  -2    1.99    7.32   3
   7 -12   2   15.52   10.63   1
  -7  12  -2   78.54   15.98   3
   8 -12   2   46.10   14.50   1
  -8  12  -2   27.73   10.95   3
  -9  12  -2  -17.86    7.53   3
   9 -12   2    1.55    9.76   1
 -15 -11   2   -0.86    7.49   1
 -14 -11   2   22.90   11.79   1
 -13 -11   2    7.91    8.63   1
 -12 -11   2   -5.01    7.67   1
 -11 -11   2   66.04   16.06   1
 -10 -11   2    6.82    7.57   1
  -9 -11   2  124.03   19.43   1
  -8 -11   2   57.05   13.44   1
  -7 -11   2   12.40    7.92   1
  -6 -11   2   14.34    8.30   1
  -5 -11   2  132.13   17.96   1
  -4 -11   2   61.07   12.27   1
  -3 -11   2  296.79   22.30   1
  -2 -11   2    7.16    5.60   1
  -1 -11   2  258.44   20.30   1
   0 -11   2   51.66   11.35   1
   1 -11   2  362.95   24.63   1
   2 -11   2   13.80    7.50   1
  -2  11  -2   18.40    8.54   3
  -3  11  -2    5.00    7.74   3
   3 -11   2    4.41    5.42   1
  -4  11  -2   56.69   12.69   3
   4 -11   2   58.01   13.07   1
   5 -11   2    1.67    7.27   1
  -5  11  -2   30.33   10.25   3
  -6  11  -2    4.42    6.86   3
   6 -11   2    8.37    8.57   1
   7 -11   2   27.71   11.37   1
  -7  11  -2    8.62    7.76   3
  -8  11  -2   18.78    9.31   3
   8 -11   2   11.16    9.82   1
  -9  11  -2   59.40   14.09   3
   9 -11   2   53.12   15.08   1
 -10  11  -2   52.44   13.95   3
  10 -11   2   37.54   12.33   1
 -16 -10   2   16.98   11.32   1
 -15 -10   2   56.88   15.72   1
 -14 -10   2    5.40    7.98   1
 -13 -10   2   86.88   18.57   1
 -12 -10   2   47.50   13.81   1
 -11 -10   2    5.54    7.69   1
 -10 -10   2  351.15   27.95   1
  -9 -10   2  120.45   18.96   1
  -8 -10   2  264.22   25.20   1
  -7 -10   2  334.25   25.25   1
  -6 -10   2    9.58    7.29   1
  -5 -10   2   15.57    7.23   1
  -4 -10   2  150.33   17.25   1
  -3 -10   2   66.15   11.61   1
  -2 -10   2   -3.46    3.35   1
  -1 -10   2   24.17    7.63   1
   0 -10   2   -0.52    4.24   1
   1 -10   2   -2.25    3.78   1
  -1  10  -2    0.19    6.28   3
  -2  10  -2   76.95   13.06   3
   2 -10   2   56.00   11.23   1
  -3  10  -2  181.62   18.80   3
   3 -10   2  222.25   18.57   1
  -4  10  -2    0.98    5.99   3
   4 -10   2    6.24    5.30   1
  -5  10  -2   69.65   13.43   3
   5 -10   2   53.93   12.33   1
   6 -10   2   50.13   12.66   1
  -6  10  -2   33.90   10.45   3
   7 -10   2   26.37   11.52   1
  -7  10  -2   19.82    9.94   3
  -8  10  -2   61.07   13.16   3
   8 -10   2   72.56   16.15   1
  -9  10  -2   30.74   10.91   3
   9 -10   2   37.97   13.31   1
 -10  10  -2   43.71   12.83   3
  10 -10   2   32.58   12.98   1
 -11  10  -2   11.63    9.84   3
  11 -10   2   11.66    9.53   1
 -16  -9   2   43.14   14.81   1
 -15  -9   2  107.95   21.10   1
 -14  -9   2    1.62    7.68   1
 -13  -9   2  107.11   19.86   1
 -12  -9   2   -1.85    6.68   1
 -11  -9   2  159.84   21.83   1
 -10  -9   2   10.33    7.39   1
  -9  -9   2    3.71    6.02   1
  -8  -9   2   -2.38    4.51   1
  -7  -9   2    9.18    6.64   1
  -6  -9   2   33.31    8.92   1
  -5  -9   2   68.67   12.66   1
  -4  -9   2   49.00   10.17   1
  -3  -9   2  147.64   15.73   1
  -2  -9   2  135.26   14.79   1
  -1  -9   2  768.89   34.71   1
   0  -9   2   13.08    5.91   1
  -1   9  -2  108.36   13.67   3
   1  -9   2  114.38   13.94   1
   2  -9   2  294.41   20.31   1
  -2   9  -2  291.53   20.17   3
  -3   9  -2   -1.35    6.23   3
   3  -9   2    2.31    5.95   1
   4  -9   2    1.24    5.52   1
  -4   9  -2   -1.44    5.76   3
  -5   9  -2   11.67    6.92   3
   5  -9   2    0.43    6.77   1
   6  -9   2    9.23    7.76   1
  -6   9  -2   10.95    7.26   3
  -7   9  -2  103.49   15.95   3
   7  -9   2   83.09   15.60   1
  -8   9  -2   -8.19    4.59   3
   8  -9   2    4.25    9.08   1
  -9   9  -2    0.31    7.20   3
   9  -9   2   -0.82    7.45   1
  10  -9   2  106.41   19.55   1
 -10   9  -2   96.63   16.91   3
 -11   9  -2   -7.59    6.77   3
  11  -9   2    8.19   10.74   1
 -12   9  -2  133.35   20.96   3
 -16  -8   2    5.87    7.52   4
 -16  -8   2    0.83    9.46   1
 -15  -8   2   10.48    8.38   4
 -15  -8   2    6.48    8.68   1
 -14  -8   2   15.72    8.05   4
 -14  -8   2   12.91    8.11   1
 -13  -8   2   15.03    8.31   1
 -12  -8   2   19.60    9.16   1
 -11  -8   2   98.71   17.10   1
 -10  -8   2   99.17   16.81   1
  -9  -8   2  243.90   23.49   1
  -8  -8   2    7.86    6.29   1
  -7  -8   2   95.96   14.61   1
  -6  -8   2  310.85   22.25   1
  -5  -8   2   67.68   11.74   1
  -4  -8   2  237.27   18.26   1
  -3  -8   2  250.04   18.27   1
  -2  -8   2  251.29   17.29   1
  -1  -8   2  282.85   18.42   1
   0   8  -2   12.24    5.56   3
   0  -8   2   -1.38    3.26   1
   1  -8   2  218.64   15.92   1
  -1   8  -2  221.06   15.71   3
   2  -8   2  115.46   13.30   1
  -2   8  -2  116.95   13.29   3
  -3   8  -2   70.03   11.70   3
   3  -8   2   41.88    9.24   1
   4  -8   2  189.71   17.59   1
  -4   8  -2  221.29   17.30   3
   5  -8   2   19.92    8.13   1
  -5   8  -2   53.12   11.01   3
   6  -8   2  313.97   23.94   1
  -6   8  -2  349.38   23.49   3
   7  -8   2   -8.79    5.65   1
  -7   8  -2    8.45    7.27   3
  -8   8  -2   70.39   13.55   3
   8  -8   2   77.49   15.65   1
   9  -8   2   17.77    9.86   1
  -9   8  -2    1.32    6.71   3
  10  -8   2   17.84   10.77   1
 -10   8  -2    2.84    6.68   3
  11  -8   2   66.19   16.34   1
 -11   8  -2   52.55   13.43   3
  12  -8   2    4.97   10.37   1
 -12   8  -2  -12.50    5.99   3
 -13   8  -2    9.10   10.01   3
 -16  -7   2    9.48    9.20   4
 -16  -7   2   10.69   11.21   1
 -15  -7   2  228.76   28.97   1
 -15  -7   2  308.85   30.14   4
 -14  -7   2   14.39    9.22   1
 -14  -7   2    0.61    6.83   4
 -13  -7   2   76.76   16.41   1
 -13  -7   2   70.06   14.20   4
 -12  -7   2   30.37    9.44   4
 -12  -7   2   41.84   11.77   1
 -11  -7   2   11.15    6.64   4
 -11  -7   2    2.80    5.67   1
 -10  -7   2   -4.35    5.60   1
 -10  -7   2   14.23    6.81   4
  -9  -7   2   21.17    7.81   1
  -8  -7   2  127.06   16.53   1
  -7  -7   2   24.42    7.59   1
  -6  -7   2   86.23   12.78   1
  -5  -7   2 1097.68   44.98   1
  -4  -7   2  351.68   21.25   1
  -3  -7   2   10.42    5.55   1
  -2  -7   2 1098.36   41.55   1
  -1  -7   2 1171.59   42.83   1
   0   7  -2  196.09   13.57   3
   0  -7   2  165.10   13.11   1
   1  -7   2   10.72    4.90   1
  -1   7  -2   20.05    6.12   3
  -2   7  -2   32.30    8.01   3
   2  -7   2   61.08    9.80   1
   3  -7   2   16.77    6.14   1
  -3   7  -2   16.48    6.71   3
   4  -7   2  106.70   13.13   1
  -4   7  -2  124.88   13.60   3
  -5   7  -2   65.30   11.50   3
   5  -7   2   59.30   11.29   1
  -6   7  -2    8.33    5.87   3
   6  -7   2    8.62    7.76   1
   7  -7   2   39.22   10.94   1
  -7   7  -2   29.91    9.40   3
   8  -7   2  260.60   23.49   1
  -8   7  -2  237.72   20.67   3
   9  -7   2   18.25    9.75   1
  -9   7  -2   32.23   10.51   3
 -10   7  -2   15.36    8.48   3
  10  -7   2   19.73   10.56   1
 -11   7  -2   13.22    8.62   3
  11  -7   2    7.68    9.69   1
 -12   7  -2    2.57    7.45   3
  12  -7   2   22.31   11.14   1
 -13   7  -2   49.76   13.52   3
 -17  -6   2   -2.97    9.32   4
 -17  -6   2   16.06   13.02   1
 -16  -6   2  -10.67    8.22   1
 -16  -6   2    3.19    7.09   4
 -15  -6   2   -3.53    7.79   1
 -15  -6   2    3.42    6.46   4
 -14  -6   2   17.98    9.96   1
 -14  -6   2   23.93    8.76   4
 -13  -6   2   31.62   10.14   4
 -13  -6   2   42.63   12.63   1
 -12  -6   2   43.90   10.66   4
 -12  -6   2   26.15    9.90   1
 -11  -6   2   82.06   14.18   4
 -11  -6   2   90.86   16.13   1
 -10  -6   2    4.03    5.91   1
 -10  -6   2   -1.20    4.46   4
  -9  -6   2  209.71   20.14   1
  -9  -6   2  157.79   17.33   4
  -8  -6   2   45.55   10.48   1
  -8  -6   2   37.05    9.58   4
  -7  -6   2   12.90    6.04   4
  -7  -6   2   11.22    5.75   1
  -6  -6   2  307.35   20.38   1
  -5  -6   2  285.57   18.98   1
  -4  -6   2  282.60   18.09   1
  -3  -6   2  167.25   13.40   1
  -2  -6   2    8.44    4.57   1
  -1  -6   2  688.73   28.28   1
   0   6  -2   35.94    6.68   3
   0  -6   2   38.68    7.23   1
   1  -6   2   88.37    9.79   1
  -1   6  -2   99.98   10.13   3
  -2   6  -2  166.47   12.34   3
   2  -6   2  164.67   12.60   1
  -3   6  -2  288.65   17.52   3
   3  -6   2  259.44   16.76   1
  -4   6  -2  224.15   16.12   3
   4  -6   2  199.17   15.61   1
  -5   6  -2    5.56    6.04   3
   5  -6   2    7.36    6.39   1
   6  -6   2   79.89   13.06   1
  -6   6  -2  105.37   13.85   3
  -7   6  -2  196.29   18.65   3
   7  -6   2  234.25   19.50   1
  -8   6  -2  105.21   15.21   3
   8  -6   2   76.84   14.51   1
  -9   6  -2   41.84   10.70   3
   9  -6   2   43.58   12.15   1
  10  -6   2    8.40    9.63   1
 -10   6  -2   12.52    7.99   3
 -11   6  -2   34.78   10.90   3
  11  -6   2   46.14   13.51   1
 -12   6  -2   -4.53    6.06   3
  12  -6   2   -6.52    8.64   1
 -13   6  -2    6.97    8.39   3
 -17  -5   2   35.92   13.97   4
 -17  -5   2   18.74   14.72   1
 -16  -5   2  -17.69    7.71   1
 -16  -5   2   -5.50    6.44   4
 -15  -5   2  160.22   25.32   1
 -15  -5   2  117.55   20.60   4
 -14  -5   2   43.17   13.72   1
 -14  -5   2   22.46    9.58   4
 -13  -5   2  125.45   19.20   4
 -13  -5   2  161.64   22.21   1
 -12  -5   2   36.32   10.26   4
 -12  -5   2   50.91   12.57   1
 -11  -5   2   15.39    6.96   4
 -11  -5   2   26.65    9.53   1
 -10  -5   2    8.58    5.66   4
 -10  -5   2    0.06    5.24   1
  -9  -5   2   -5.96    3.84   1
  -9  -5   2    6.73    5.13   4
  -8  -5   2  142.70   16.29   1
  -8  -5   2  133.77   15.16   4
  -7  -5   2  149.86   15.08   4
  -7  -5   2  136.63   15.12   1
  -6  -5   2  107.90   12.40   4
  -6  -5   2  100.58   12.58   1
  -5  -5   2  203.60   15.03   1
  -4  -5   2  608.81   27.81   1
  -3  -5   2   13.21    5.26   1
  -2  -5   2  680.48   27.48   1
  -1  -5   2   99.64    9.62   1
   0  -5   2  454.50   20.00   1
   0   5  -2  427.23   18.49   3
   1  -5   2   52.29    7.27   1
  -1   5  -2   51.92    7.07   3
  -2   5  -2   28.82    6.32   3
   2  -5   2   26.71    6.21   1
  -3   5  -2   12.99    5.69   3
   3  -5   2   16.00    5.52   1
   4  -5   2   36.49    8.13   1
  -4   5  -2   44.47    8.58   3
  -5   5  -2   14.91    6.50   3
   5  -5   2   30.42    8.70   1
  -6   5  -2   12.19    7.15   3
   6  -5   2   15.46    7.70   1
  -7   5  -2    0.71    5.26   3
   7  -5   2    1.10    7.54   1
  -8   5  -2  200.16   19.46   3
   8  -5   2  164.77   18.48   1
  -9   5  -2    8.66    6.76   3
   9  -5   2   -0.78    7.68   1
 -10   5  -2  135.05   18.12   3
  10  -5   2  151.41   19.32   1
 -11   5  -2  153.85   19.72   3
  11  -5   2  171.63   21.06   1
  12  -5   2   17.63   10.54   1
 -12   5  -2    9.27    7.72   3
  13  -5   2  203.71   24.67   1
 -13   5  -2  229.09   24.60   3
  16   4  -2   32.86   13.34   1
  15   4  -2   -4.08    8.85   1
  14   4  -2   45.13   13.14   1
  13   4  -2   75.28   16.35   1
  12   4  -2   27.82   11.01   1
  11   4  -2  340.96   25.19   1
  10   4  -2  513.39   29.55   1
   9   4  -2    8.44    8.15   1
   8   4  -2  205.24   16.83   1
   7   4  -2    5.73    6.12   1
  -6  -4   2  120.07   12.54   4
  -6  -4   2  106.57   12.66   1
  -5  -4   2   80.61   10.13   4
  -5  -4   2   81.26   10.48   1
  -4  -4   2   47.73    7.99   1
  -4  -4   2   51.41    8.05   4
  -3  -4   2   34.95    6.94   1
  -2  -4   2  783.78   29.29   1
   1   4  -2  204.04   10.64   3
  -1  -4   2  227.01   12.48   1
   0   4  -2   23.02    4.74   3
   0   4  -2   11.14    5.14   2
   0  -4   2   15.05    4.21   1
  -1   4  -2  235.36   12.56   3
   1  -4   2  264.03   13.26   1
  -1   4  -2  222.80   10.65   2
  -2   4  -2  104.09    9.46   3
  -2   4  -2   95.88    6.16   2
   2  -4   2  115.66    9.12   1
  -3   4  -2   54.21    4.21   2
   3  -4   2   56.68    7.53   1
  -3   4  -2   54.16    8.04   3
   4  -4   2  467.39   21.91   1
  -4   4  -2  507.29   23.78   3
   5  -4   2 1028.70   38.61   1
  -5   4  -2 1017.50   40.08   3
   6  -4   2  102.10   12.05   1
  -6   4  -2   94.49   12.72   3
  -7   4  -2  265.80   19.93   3
   7  -4   2  294.42   20.42   1
  -8   4  -2   37.35    9.14   3
   8  -4   2   63.98   12.65   1
   9  -4   2    5.06    8.33   1
  -9   4  -2    6.75    6.28   3
 -10   4  -2   30.74   10.29   3
  10  -4   2   30.99   10.85   1
 -11   4  -2    5.32    7.35   3
  11  -4   2   30.43   10.82   1
  12  -4   2   45.20   13.11   1
 -12   4  -2   64.39   14.48   3
 -13   4  -2   56.27   14.02   3
  13  -4   2   45.95   12.86   1
  16   3  -2    3.20    9.85   1
  15   3  -2    7.22    9.78   1
  14   3  -2   31.96   12.34   1
  13   3  -2   31.12   11.60   1
  12   3  -2   -5.40    7.32   1
  11   3  -2   72.54   14.76   1
  10   3  -2   65.29   13.34   1
   9   3  -2   32.61   11.01   1
   8   3  -2  315.83   20.67   1
   7   3  -2  326.73   20.22   1
   6   3  -2   40.42    8.18   1
   5   3  -2   10.49    5.34   1
  -4  -3   2    6.95    4.46   4
  -4  -3   2   10.56    4.84   1
  -3  -3   2   63.51    7.81   1
  -3  -3   2   66.92    7.77   4
  -2  -3   2 1601.14   49.30   1
   1   3  -2 1434.13   42.73   2
  -1  -3   2 1346.87   42.21   1
   1   3  -2 1373.88   39.92   3
   0   3  -2 3269.76   89.50   3
   0   3  -2 3322.48   92.00   2
   0  -3   2 3329.22   90.36   1
  -1   3  -2  115.99    8.32   3
  -1   3  -2  134.48    7.76   2
   1  -3   2  133.45    8.48   1
  -2   3  -2  517.06   21.18   3
   2  -3   2  519.54   20.00   1
  -2   3  -2  533.43   16.80   2
  -3   3  -2    2.44    3.87   3
   3  -3   2   -1.30    3.48   1
  -3   3  -2    2.08    2.70   2
  -4   3  -2  176.53    7.85   2
   4  -3   2  185.28   12.25   1
  -4   3  -2  175.91   13.27   3
  -5   3  -2  102.26   11.50   3
   5  -3   2  104.90   10.76   1
  -5   3  -2  113.90    6.37   2
  -6   3  -2  222.46   10.61   2
  -6   3  -2  218.94   16.59   3
   6  -3   2  269.12   17.02   1
   7  -3   2   20.77    7.81   1
  -7   3  -2   15.17    7.15   3
  -8   3  -2  162.97   17.27   3
   8  -3   2  184.80   17.51   1
   9  -3   2   14.94    8.66   1
  -9   3  -2   20.56    8.26   3
  10  -3   2  272.82   22.16   1
 -10   3  -2  263.73   21.51   3
  11  -3   2  181.02   20.15   1
 -11   3  -2  186.64   20.37   3
  12  -3   2   15.27    9.10   1
 -12   3  -2    8.25    7.36   3
  13  -3   2    5.56    8.95   1
 -13   3  -2   14.35    7.67   3
  16   2  -2   -3.11    9.63   1
  15   2  -2   24.20   11.78   1
  14   2  -2   -0.79    8.99   1
  13   2  -2  113.54   18.27   1
  12   2  -2  159.06   19.74   1
  11   2  -2   85.65   15.16   1
  10   2  -2  635.56   33.91   1
 -10  -2   2  695.02   31.55   3
   9   2  -2  435.98   26.32   1
   8   2  -2  555.14   28.59   1
   7   2  -2  242.85   16.93   1
   6   2  -2   84.24   10.92   1
   5   2  -2   25.47    6.70   1
   4   2  -2 1175.88   39.04   1
   3   2  -2 1235.73   38.79   1
  -2  -2   2   15.86    4.13   4
  -2  -2   2   19.45    4.46   1
   2   2  -2    5.15    4.31   2
  -1  -2   2   38.09    4.93   1
   1   2  -2   38.19    4.87   2
   0   2  -2  631.01   19.53   3
   0   2  -2  617.25   19.77   2
   0  -2   2  601.41   19.97   1
  -1   2  -2  483.99   17.28   3
   1  -2   2  422.59   15.62   1
  -1   2  -2  466.30   14.93   2
   2  -2   2 1164.29   35.34   1
  -2   2  -2 1173.14   37.51   3
  -2   2  -2 1195.95   34.27   2
  -3   2  -2    5.33    3.88   3
   3  -2   2   12.06    4.50   1
  -3   2  -2    6.49    2.49   2
  -4   2  -2  220.35   14.16   3
  -4   2  -2  233.92   10.49   2
   4  -2   2  239.67   13.22   1
  -5   2  -2  274.11   12.43   2
   5  -2   2  250.74   15.20   1
  -5   2  -2  276.57   16.84   3
   6  -2   2  518.04   24.46   1
  -6   2  -2  542.75   21.23   2
  -6   2  -2  535.31   26.18   3
   7  -2   2   50.79    9.84   1
  -7   2  -2   68.60   11.26   3
  -7   2  -2   61.54    7.04   2
  -8   2  -2   24.01    8.27   3
   8  -2   2   47.47   10.76   1
   9  -2   2  111.67   15.34   1
  -9   2  -2  100.19   14.41   3
 -10   2  -2   13.00    6.44   3
  10  -2   2    2.47    7.66   1
  11  -2   2   25.23    9.76   1
 -11   2  -2   18.85    8.34   3
  12  -2   2  154.55   19.75   1
 -12   2  -2  214.68   22.10   3
  13  -2   2   45.98   12.95   1
 -13   2  -2   57.51   13.36   3
  16   1  -2   33.56   13.67   1
  15   1  -2   19.68   10.44   1
  14   1  -2   13.59   10.24   1
  13   1  -2    8.44    9.27   1
  12   1  -2    1.87    7.79   1
 -11  -1   2   12.53    6.61   3
  11   1  -2   11.27    8.90   1
  10   1  -2    5.77    8.34   1
 -10  -1   2   15.03    6.33   3
  -9  -1   2   71.77   10.72   3
   9   1  -2   81.80   13.98   1
   8   1  -2   23.90    8.65   1
  -8  -1   2   18.65    6.04   3
  -7  -1   2  113.34   10.82   3
   7   1  -2  107.83   12.75   1
   6   1  -2    8.10    6.46   1
   4   1  -2 4801.44  131.28   1
   3   1  -2  420.82   17.05   2
   2   1  -2   51.73    5.50   1
   2   1  -2   51.80    5.37   2
   1   1  -2  167.51    7.72   2
   1   1  -2  172.04    7.57   1
   0   1  -2    2.64    1.00   3
   0  -1   2    1.65    1.12   1
   0   1  -2    4.49    1.91   2
  -1   1  -2  327.97   11.17   2
  -1   1  -2  295.51   11.97   3
  -2   1  -2  334.34   14.43   3
  -2   1  -2  356.59   12.66   2
  -3   1  -2  251.42   13.48   3
  -3   1  -2  257.37   11.21   2
   3  -1   2  245.30   11.40   1
   4  -1   2   49.69    6.78   1
  -4   1  -2   49.32    5.62   2
  -4   1  -2   65.78    8.12   3
  -5   1  -2   16.33    4.38   2
   5  -1   2   17.95    5.80   1
  -5   1  -2    5.42    4.36   3
  -6   1  -2 1009.58   35.96   2
   6  -1   2 1033.83   37.10   1
  -6   1  -2 1011.35   39.21   3
  -7   1  -2   79.79    8.96   2
  -7   1  -2   86.80   11.82   3
   7  -1   2   83.64   11.35   1
  -8   1  -2   26.79    7.76   3
   8  -1   2   22.90    8.46   1
  -8   1  -2   29.73    6.88   2
   9  -1   2  525.24   27.64   1
  -9   1  -2  509.65   25.05   2
  -9   1  -2  515.62   28.64   3
  10  -1   2   17.71    9.20   1
 -10   1  -2   40.79    9.80   3
 -11   1  -2   16.05    7.64   3
  11  -1   2   14.96    8.30   1
  12  -1   2  133.89   18.15   1
 -12   1  -2  125.32   17.72   3
 -13   1  -2    7.60    7.24   3
  13  -1   2   22.19    9.85   1
  16   0  -2   15.77    9.55   1
  15   0  -2   37.89   12.97   1
  14   0  -2    1.63    8.33   1
  13   0  -2   44.18   12.98   1
  12   0  -2    9.19    8.77   1
 -11   0   2   18.92    7.65   3
  11   0  -2   17.44    9.03   1
 -10   0   2  435.05   24.59   3
  10   0  -2  419.73   27.35   1
  -9   0   2   77.08   11.12   3
   9   0  -2   58.99   12.56   1
   8   0  -2   81.77   13.12   1
  -8   0   2  115.09   11.89   3
   7   0  -2   -1.09    5.46   1
  -7   0   2    2.75    3.76   3
  -6   0   2    2.99    3.48   3
   6   0  -2    5.61    5.56   1
  -5   0   2    0.04    3.28   3
   5   0  -2   -2.87    5.16   1
  -4   0   2   33.93    5.10   3
   4   0  -2   32.33    6.71   1
  -3   0   2   13.01    3.25   3
   3   0  -2   16.93    5.86   1
   2   0  -2  347.75   14.35   1
  -2   0   2  357.36   11.91   3
   1   0  -2  241.59    8.87   2
   1   0  -2  239.41    9.52   1
  -1   0   2  242.53    7.34   3
   0   0  -2 3327.43   96.88   2
   0   0  -2 3780.42   94.35   1
  -1   0  -2  492.30   16.32   2
  -2   0  -2   88.79    6.22   2
   2   0   2   93.72    5.23   1
   4   0   2 1878.27   54.33   1
   5   0   2  475.94   20.19   1
   6   0   2  637.62   25.78   1
   7   0   2  147.55   13.16   1
  -7   0  -2  165.89   14.97   3
  -8   0  -2  344.30   21.73   3
   8   0   2  337.04   20.34   1
  -9   0  -2    7.85    6.35   3
   9   0   2   17.84    8.31   1
  10   0   2    4.33    7.76   1
 -10   0  -2    3.56    4.65   3
 -11   0  -2    7.13    5.35   3
  11   0   2    1.46    7.41   1
  12   0   2  112.14   16.78   1
 -12   0  -2  142.01   17.87   3
  13   0   2  205.40   21.95   1
 -13   0  -2  186.68   21.03   3
  14   0   2    3.23    9.09   1
  16  -1  -2  132.74   22.49   1
  15  -1  -2   14.21   11.32   1
  14  -1  -2   19.06   11.69   1
  13  -1  -2    0.93    8.39   1
  12  -1  -2    6.03    8.65   1
 -11   1   2   20.29    7.27   3
  11  -1  -2   35.02   11.50   1
 -10   1   2  369.63   23.27   3
  10  -1  -2  391.49   26.64   1
   9  -1  -2   13.02    8.53   1
  -9   1   2    0.66    5.44   3
   8  -1  -2 1371.90   52.64   1
  -8   1   2 1478.84   50.96   3
  -7   1   2    8.65    4.79   3
   7  -1  -2    0.50    6.60   1
   6  -1  -2   16.50    7.33   1
  -6   1   2    9.77    4.51   3
  -5   1   2   20.57    5.27   3
   5  -1  -2   20.74    7.03   1
  -4   1   2 1318.70   41.31   3
   4  -1  -2 1330.11   43.83   1
   3  -1  -2  207.75   12.98   1
  -3   1   2  232.86   10.71   3
   3  -1  -2  195.82    9.55   2
  -2   1   2   79.70    5.53   3
   2  -1  -2   63.33    6.63   1
   2  -1  -2   74.61    5.34   2
   1  -1  -2  238.33   10.05   1
  -1   1   2  243.86    8.62   3
   0  -1  -2 1321.67   40.04   2
   0  -1  -2 1464.26   38.24   1
  -1  -1  -2   18.31    3.13   2
  -1  -1  -2   23.03    2.20   1
  -2  -1  -2   22.70    2.95   4
  -2  -1  -2   15.16    2.82   1
   3   1   2    0.51    0.93   1
   4   1   2    7.85    3.65   1
   5   1   2   23.85    5.75   1
   6   1   2   57.36    8.28   1
   7   1   2  860.24   33.29   1
   8   1   2   59.16    9.97   1
   9   1   2  340.23   21.17   1
  10   1   2   14.50    9.04   1
 -10  -1  -2   12.96    7.53   3
  11   1   2    2.72    7.29   1
 -11  -1  -2    6.90    5.60   3
 -12  -1  -2   39.65   10.43   3
  12   1   2   46.70   11.99   1
 -13  -1  -2    2.08    4.99   3
  13   1   2   -1.30    7.30   1
  14   1   2   29.71   10.33   1
  16  -2  -2   26.41   14.06   1
  15  -2  -2   57.92   15.47   1
  14  -2  -2   12.17   10.17   1
  13  -2  -2   -1.28    8.10   1
  12  -2  -2   61.30   15.63   1
  11  -2  -2   15.75    9.38   1
 -11   2   2   17.98    7.07   3
 -10   2   2    3.86    4.68   3
  10  -2  -2    2.95    8.02   1
  -9   2   2  134.30   14.76   3
   9  -2  -2  172.40   19.15   1
   8  -2  -2   85.98   14.53   1
  -8   2   2   58.20   10.28   3
  -7   2   2  155.09   12.84   3
   7  -2  -2  128.34   14.99   1
  -6   2   2    2.86    4.15   3
   6  -2  -2   -4.26    6.28   1
   5  -2  -2   19.19    7.37   1
  -5   2   2   18.71    5.46   3
   4  -2  -2  343.16   18.31   1
  -4   2   2  335.41   16.07   3
  -3   2   2  211.36   10.99   3
   3  -2  -2  188.00   12.22   1
   3  -2  -2  198.04    8.13   2
  -2   2   2   24.75    4.33   3
   2  -2  -2   18.46    5.71   1
   2  -2  -2   22.86    3.46   2
  -1   2   2  121.55    6.69   3
   1  -2  -2  109.82    8.03   1
   1  -2  -2  132.40    6.35   2
  -1  -2  -2 4292.93  112.98   1
  -2  -2  -2  574.65   19.29   1
  -3  -2  -2 1113.78   34.89   1
  -3  -2  -2 1156.24   33.62   4
   4   2   2  212.70   10.96   1
   5   2   2  219.71   12.35   1
   6   2   2   21.23    6.62   1
   7   2   2   75.69   10.05   1
   8   2   2    7.11    6.33   1
   9   2   2   16.63    7.85   1
  10   2   2    4.89    6.89   1
  11   2   2   96.06   14.64   1
  12   2   2    4.60    7.40   1
 -12  -2  -2    8.36    5.66   3
 -13  -2  -2  275.65   22.49   3
  13   2   2  367.97   26.03   1
  14   2   2    5.86    9.20   1
  15  -3  -2   47.63   13.61   1
  14  -3  -2    0.16    8.97   1
  13  -3  -2   19.47   10.63   1
  12  -3  -2   17.18   10.57   1
  11  -3  -2   58.92   13.44   1
 -11   3   2   47.64   10.67   3
  10  -3  -2  166.33   20.41   1
 -10   3   2  176.73   17.39   3
  -9   3   2   67.77   11.94   3
   9  -3  -2   97.89   15.87   1
  -8   3   2  207.61   16.31   3
   8  -3  -2  172.14   18.36   1
  -7   3   2  162.76   14.61   3
   7  -3  -2  144.73   16.44   1
  -6   3   2   98.64   10.97   3
   6  -3  -2   99.33   12.82   1
   5  -3  -2   76.73   10.97   1
  -5   3   2  108.95   10.31   3
  -4   3   2    7.82    3.93   3
   4  -3  -2    5.27    5.70   1
   3  -3  -2  330.75   17.27   1
  -3   3   2  351.60   15.87   3
  -2   3   2   11.22    3.94   3
   2  -3  -2   17.61    2.84   2
   2  -3  -2   13.55    4.90   1
   1  -3  -2  120.73    6.74   2
  -1   3   2  116.45    8.15   3
   1  -3  -2  112.22    8.91   1
   0  -3  -2 7996.73  209.25   1
  -1  -3  -2 4962.28  131.92   1
  -2  -3  -2    6.75    3.39   1
  -3  -3  -2    8.90    3.77   1
  -4  -3  -2  302.10   14.96   1
  -4  -3  -2  305.88   14.53   4
  -5  -3  -2  153.49   11.23   1
  -5  -3  -2  192.40   11.80   4
   7   3   2  289.87   16.96   1
   8   3   2   74.63   11.03   1
   9   3   2    4.48    7.01   1
  10   3   2  152.91   16.28   1
  11   3   2   51.81   11.60   1
  12   3   2   96.30   15.23   1
  13   3   2   43.68   12.10   1
  14   3   2   61.71   14.82   1
  15  -4  -2   43.11   15.25   1
  14  -4  -2   92.98   19.58   1
  13  -4  -2   58.91   15.06   1
  12  -4  -2   70.87   16.28   1
  11  -4  -2  156.46   21.63   1
 -11   4   2  169.59   17.80   3
 -10   4   2    0.74    5.28   3
  10  -4  -2    9.64    9.19   1
   9  -4  -2  420.51   27.88   1
  -9   4   2  432.59   25.26   3
   8  -4  -2  184.33   19.86   1
  -8   4   2  139.31   14.89   3
  -7   4   2  200.76   15.49   3
   7  -4  -2  189.39   18.79   1
  -6   4   2   15.15    6.05   3
   6  -4  -2   33.42    9.39   1
   5  -4  -2    7.93    6.41   1
  -5   4   2   17.94    6.28   3
   4  -4  -2   53.82    9.68   1
  -4   4   2   49.41    7.71   3
   3  -4  -2  150.22   11.89   1
  -3   4   2  149.36   10.41   3
   2  -4  -2   92.69    5.38   2
   2  -4  -2   97.28    9.80   1
  -2   4   2   91.07    8.37   3
   1  -4  -2  226.20   12.91   1
  -1   4   2  217.03   11.91   3
   1  -4  -2  215.33   10.21   2
   0  -4  -2 1943.65   57.63   1
  -1  -4  -2 1904.20   56.13   1
  -2  -4  -2   15.18    4.24   1
  -3  -4  -2  266.64   14.04   1
  -4  -4  -2  357.20   17.27   1
  -5  -4  -2  132.22   10.80   1
  -6  -4  -2   44.64    7.96   1
  -6  -4  -2   38.15    7.25   4
  -7  -4  -2   42.59    8.22   1
  -7  -4  -2   30.93    7.08   4
  -8  -4  -2  159.09   14.46   4
  -8  -4  -2  214.36   15.96   1
  -9  -4  -2   31.73    8.56   1
  -9  -4  -2   52.98    9.92   4
  12   4   2  121.71   16.97   1
  14  -5  -2   -3.25    8.77   1
  13  -5  -2   14.87   10.05   1
  12  -5  -2   18.78   11.24   1
 -11   5   2   12.71    8.03   3
  11  -5  -2   26.61   11.79   1
 -10   5   2    7.26    6.77   3
  10  -5  -2   12.60    9.75   1
   9  -5  -2  213.68   22.45   1
  -9   5   2  204.49   17.69   3
  -8   5   2  463.37   26.33   3
   8  -5  -2  478.65   29.78   1
   7  -5  -2  644.06   33.75   1
  -7   5   2  589.62   29.40   3
   6  -5  -2  366.93   24.53   1
  -6   5   2  387.26   21.63   3
   5  -5  -2  413.81   23.75   1
  -5   5   2  415.96   21.81   3
   4  -5  -2  142.70   14.34   1
  -4   5   2  104.75   10.63   3
  -3   5   2   11.99    4.96   3
   3  -5  -2   20.70    6.58   1
   2  -5  -2   70.60    9.27   1
   2  -5  -2   93.44    6.09   2
  -2   5   2   80.65    8.54   3
   1  -5  -2    6.45    4.26   1
  -1   5   2    7.25    4.78   3
   1  -5  -2    3.69    2.94   2
   0  -5  -2   75.04    8.36   1
  -1  -5  -2   43.80    6.73   1
  -2  -5  -2  594.42   23.78   1
  -3  -5  -2  234.05   13.79   1
  -4  -5  -2   30.13    6.81   1
  -5  -5  -2  449.29   21.76   1
  -6  -5  -2  112.66   12.02   1
  -7  -5  -2   -1.68    3.33   4
  -7  -5  -2   -1.06    3.14   1
  -8  -5  -2  521.00   26.64   1
  -8  -5  -2  492.31   25.35   4
  -9  -5  -2   41.41    9.47   4
  -9  -5  -2   40.76    9.31   1
 -10  -5  -2  263.73   19.21   4
 -10  -5  -2  223.81   18.66   1
 -11  -5  -2   43.73    9.68   4
 -11  -5  -2   36.65    9.65   1
 -12  -5  -2   23.62    9.04   1
 -12  -5  -2    4.35    6.06   4
 -13  -5  -2    1.02    6.68   1
 -13  -5  -2   23.46    8.42   4
 -14  -5  -2   10.67    8.33   1
 -14  -5  -2    7.38    6.06   4
  14  -6  -2   29.52   14.73   1
  13  -6  -2   40.05   14.13   1
  12  -6  -2   24.77   12.02   1
 -11   6   2   63.91   13.31   3
  11  -6  -2   71.40   16.76   1
 -10   6   2   41.57   11.00   3
  10  -6  -2   39.62   13.73   1
  -9   6   2    6.97    6.60   3
   9  -6  -2   11.73    9.38   1
  -8   6   2   17.13    7.53   3
   8  -6  -2   19.73   10.24   1
   7  -6  -2   39.86   11.67   1
  -7   6   2   46.07    9.90   3
  -6   6   2   53.02    9.80   3
   6  -6  -2   70.23   13.59   1
   5  -6  -2   -1.51    6.97   1
  -5   6   2    1.50    5.30   3
  -4   6   2   19.54    6.99   3
   4  -6  -2   18.22    7.65   1
  -3   6   2  146.02   12.35   3
   3  -6  -2  172.18   14.34   1
  -2   6   2   57.25    8.64   3
   2  -6  -2   71.25    6.01   2
   2  -6  -2   66.06    9.85   1
  -1   6   2   57.25    8.29   3
   1  -6  -2   40.14    5.63   2
   1  -6  -2   34.31    7.25   1
   0  -6  -2  371.33   19.06   1
  -1  -6  -2   11.15    4.56   1
  -2  -6  -2  790.42   30.54   1
  -3  -6  -2   32.33    6.97   1
  -4  -6  -2  288.07   17.14   1
  -5  -6  -2   19.32    6.23   1
  -6  -6  -2    0.23    3.54   1
  -7  -6  -2   19.13    6.67   1
  -8  -6  -2  127.17   14.49   1
  -9  -6  -2   16.15    6.59   1
 -10  -6  -2   38.89    9.00   4
 -10  -6  -2   39.77   10.11   1
 -11  -6  -2  101.11   14.56   4
 -11  -6  -2   39.51   10.54   1
 -12  -6  -2  181.75   19.40   4
 -12  -6  -2  209.85   21.81   1
 -13  -6  -2   -0.47    6.04   1
 -13  -6  -2    4.59    5.86   4
 -14  -6  -2   50.44   11.91   4
 -14  -6  -2   43.49   12.25   1
  13  -7  -2    6.52   10.42   1
  12  -7  -2    0.19    9.20   1
  11  -7  -2    1.17    9.54   1
 -11   7   2   -2.74    6.44   3
  10  -7  -2   37.08   14.12   1
 -10   7   2   22.25    9.48   3
   9  -7  -2  277.60   27.01   1
  -9   7   2  286.13   21.85   3
  -8   7   2   34.45    9.41   3
   8  -7  -2   60.04   14.05   1
  -7   7   2  204.56   17.39   3
   7  -7  -2  182.48   20.97   1
  -6   7   2   -5.56    4.48   3
   6  -7  -2    3.07    7.37   1
  -5   7   2  359.83   21.67   3
   5  -7  -2  320.59   23.29   1
  -4   7   2  101.83   12.45   3
   4  -7  -2   91.08   13.28   1
   3  -7  -2   73.57   12.03   1
  -3   7   2   71.57   10.48   3
   2  -7  -2    4.32    3.10   2
  -2   7   2    3.39    4.81   3
   2  -7  -2    2.61    5.05   1
   1  -7  -2   60.94    9.67   1
   1  -7  -2   81.68    7.82   2
   0  -7  -2   72.70    9.88   1
  -1  -7  -2  200.90   14.39   1
  -2  -7  -2   14.53    5.19   1
  -3  -7  -2  160.22   12.88   1
  -4  -7  -2   58.48    9.63   1
  -5  -7  -2   53.52    9.33   1
  -6  -7  -2  451.65   24.92   1
  -7  -7  -2   56.42   10.40   1
  -8  -7  -2  182.42   17.38   1
  -9  -7  -2  169.08   17.85   1
 -10  -7  -2  119.83   16.26   1
 -11  -7  -2  327.28   24.21   1
 -12  -7  -2   -0.58    5.45   1
 -13  -7  -2   13.83    7.83   1
 -13  -7  -2   23.18    8.73   4
 -14  -7  -2   12.11    8.47   1
 -14  -7  -2    9.91    7.97   4
  13  -8  -2   90.83   22.25   1
  12  -8  -2   -2.10    8.63   1
  11  -8  -2   14.20   11.46   1
 -11   8   2    8.12    7.98   3
 -10   8   2   22.46    9.27   3
  10  -8  -2   31.05   12.63   1
   9  -8  -2   23.32   12.56   1
  -9   8   2   39.59   10.84   3
  -8   8   2    6.60    6.90   3
   8  -8  -2   11.77    9.39   1
   7  -8  -2  136.25   19.09   1
  -7   8   2  140.82   16.65   3
  -6   8   2  146.59   16.14   3
   6  -8  -2  163.39   19.83   1
   5  -8  -2   68.29   13.46   1
  -5   8   2   54.62   10.71   3
   4  -8  -2    1.25    6.09   1
  -4   8   2   -4.37    5.52   3
   3  -8  -2  299.04   21.02   1
  -3   8   2  276.27   18.64   3
  -2   8   2  343.84   20.91   3
   2  -8  -2  321.66   20.87   1
   1  -8  -2  210.45   16.25   1
   1  -8  -2  225.99   13.25   2
   0  -8  -2 1098.19   42.45   1
  -1  -8  -2   64.17   10.09   1
  -2  -8  -2   17.72    5.93   1
  -3  -8  -2  288.15   18.44   1
  -4  -8  -2   11.01    5.68   1
  -5  -8  -2    2.95    4.84   1
  -6  -8  -2   21.01    7.24   1
  -7  -8  -2   11.20    5.93   1
  -8  -8  -2    9.17    6.28   1
  -9  -8  -2  374.68   25.16   1
 -10  -8  -2   22.77    8.29   1
 -11  -8  -2   83.08   15.11   1
 -12  -8  -2  118.45   18.03   1
 -13  -8  -2  104.13   18.25   1
 -14  -8  -2   16.21    8.99   1
  12  -9  -2    2.42   12.18   1
  11  -9  -2   43.42   13.72   1
 -11   9   2   23.67    9.30   3
  10  -9  -2   10.60   11.58   1
 -10   9   2    3.52    6.95   3
  -9   9   2   28.16    9.65   3
   9  -9  -2   47.52   14.99   1
   8  -9  -2   30.93   12.58   1
  -8   9   2   10.59    7.78   3
  -7   9   2  117.02   15.91   3
   7  -9  -2   86.54   16.95   1
   6  -9  -2   31.48   11.18   1
  -6   9   2   58.70   11.67   3
   5  -9  -2   21.31   10.07   1
  -5   9   2   22.93    9.29   3
  -4   9   2   71.05   12.67   3
   4  -9  -2   51.38   11.89   1
  -3   9   2   -4.01    6.44   3
   3  -9  -2    5.94    6.86   1
   2  -9  -2  115.40   14.74   1
   1  -9  -2   18.79    6.90   1
   0  -9  -2   20.50    7.30   1
  -1  -9  -2   33.24    8.54   1
  -2  -9  -2    6.43    5.22   1
  -3  -9  -2   12.45    5.64   1
  -4  -9  -2   14.38    6.00   1
  -5  -9  -2    1.44    4.58   1
  -6  -9  -2  540.05   29.72   1
  -7  -9  -2   48.24   10.40   1
  -8  -9  -2   75.90   13.15   1
  -9  -9  -2  143.88   17.99   1
 -10  -9  -2   -4.32    5.88   1
 -11  -9  -2   65.05   13.60   1
 -12  -9  -2    7.24    7.51   1
 -13  -9  -2   23.62   10.81   1
 -14  -9  -2   37.55   12.60   1
  11 -10  -2   -3.54   12.63   1
 -11  10   2    6.04    8.22   3
  10 -10  -2   -2.92    8.87   1
 -10  10   2    8.19    7.84   3
  -9  10   2   16.22    9.00   3
   9 -10  -2   10.58   10.70   1
  -8  10   2   57.58   12.91   3
   8 -10  -2   41.56   13.67   1
  -7  10   2   13.03    8.38   3
   7 -10  -2    7.09    8.37   1
  -6  10   2   -7.93    5.76   3
   6 -10  -2    5.99    8.28   1
  -5  10   2  174.01   18.77   3
   5 -10  -2  189.67   21.42   1
   4 -10  -2    8.99    7.60   1
  -4  10   2    1.38    6.44   3
   3 -10  -2  126.10   17.18   1
  -3  10   2  117.64   15.81   3
   2 -10  -2  159.89   17.82   1
   1 -10  -2    3.19    5.53   1
   0 -10  -2   77.37   12.82   1
  -1 -10  -2   22.44    7.60   1
  -2 -10  -2  168.17   17.05   1
  -3 -10  -2   37.81    9.35   1
  -4 -10  -2    0.93    4.43   1
  -5 -10  -2   -9.93    3.46   1
  -6 -10  -2   45.80   10.51   1
  -7 -10  -2   -0.11    5.29   1
  -8 -10  -2   35.55    9.77   1
  -9 -10  -2    2.58    6.09   1
 -10 -10  -2  176.53   21.14   1
 -11 -10  -2   11.56    8.09   1
 -12 -10  -2   40.58   12.42   1
 -13 -10  -2  155.89   22.46   1
 -14 -10  -2   15.79    9.67   1
  10 -11  -2   30.94   15.11   1
 -10  11   2   22.91   11.39   3
  -9  11   2    0.65    7.86   3
   9 -11  -2   15.08   11.29   1
  -8  11   2   70.61   14.80   3
   8 -11  -2  115.83   20.62   1
   7 -11  -2    4.05    9.17   1
  -7  11   2   20.44    9.16   3
  -6  11   2   58.22   13.60   3
   6 -11  -2   49.41   14.00   1
   5 -11  -2    1.70    8.05   1
  -5  11   2    1.27    6.88   3
  -4  11   2  101.34   15.30   3
   4 -11  -2  102.21   16.97   1
   3 -11  -2   59.17   13.09   1
   2 -11  -2   -3.89    5.66   1
   1 -11  -2    3.03    5.97   1
   0 -11  -2   22.72    8.23   1
  -1 -11  -2  138.36   16.56   1
  -2 -11  -2    2.35    5.74   1
  -3 -11  -2   34.47    9.47   1
  -4 -11  -2  127.48   16.64   1
  -5 -11  -2    8.28    6.89   1
  -6 -11  -2  103.69   15.81   1
  -7 -11  -2  108.58   16.20   1
  -8 -11  -2    5.87    6.38   1
  -9 -11  -2   10.47    8.16   1
 -10 -11  -2    8.64    7.99   1
 -11 -11  -2    6.57    7.57   1
 -12 -11  -2   -0.57    7.61   1
 -13 -11  -2    8.06    8.61   1
 -14 -11  -2    9.76    8.66   1
   9 -12  -2   19.84   13.39   1
  -9  12   2    5.24    9.35   3
  -8  12   2   -0.67    6.77   3
   8 -12  -2    3.61    6.45   1
   7 -12  -2    0.72    8.65   1
  -7  12   2    0.93    7.53   3
   6 -12  -2    7.51    9.56   1
  -6  12   2    4.16    7.87   3
   5 -12  -2   97.97   18.09   1
   4 -12  -2   12.28    8.92   1
   3 -12  -2   37.97   11.56   1
   2 -12  -2  206.68   21.95   1
   1 -12  -2    0.18    5.64   1
   0 -12  -2   88.73   15.18   1
  -1 -12  -2   51.31   11.86   1
  -2 -12  -2   44.15   10.77   1
  -3 -12  -2   24.88    9.47   1
  -4 -12  -2   91.21   14.94   1
  -5 -12  -2   37.81   10.13   1
  -6 -12  -2    9.22    6.62   1
  -7 -12  -2    9.33    7.44   1
  -8 -12  -2  121.12   18.64   1
  -9 -12  -2   24.18   10.24   1
 -10 -12  -2   15.72    7.96   1
 -11 -12  -2  108.80   19.21   1
 -12 -12  -2   -4.61    6.46   1
 -13 -12  -2   27.67   11.81   1
 -14 -12  -2   33.64   12.84   1
  -8  13   2   27.80   12.44   3
   7 -13  -2    3.98    6.03   1
   6 -13  -2   -6.43    8.59   1
   5 -13  -2   13.42    8.75   1
   4 -13  -2    1.77    9.00   1
   3 -13  -2   -4.36    6.82   1
   2 -13  -2   28.95   10.23   1
   1 -13  -2   33.40   10.55   1
   0 -13  -2   89.00   15.45   1
  -1 -13  -2   14.44    8.25   1
  -2 -13  -2   90.38   15.76   1
  -3 -13  -2   -0.28    5.97   1
  -4 -13  -2   25.63    9.40   1
  -5 -13  -2  248.48   24.26   1
  -6 -13  -2    1.15    6.58   1
  -7 -13  -2  194.80   22.40   1
  -8 -13  -2   33.92   10.88   1
  -9 -13  -2   72.31   14.91   1
 -10 -13  -2    4.56    8.26   1
 -11 -13  -2   23.02   10.02   1
 -12 -13  -2    6.60    7.96   1
 -13 -13  -2    2.90    8.95   1
 -14 -13  -2    7.93    9.09   1
   6 -14  -2   -3.17    6.26   1
   5 -14  -2    1.10    5.10   1
   4 -14  -2    2.01    8.62   1
   3 -14  -2   30.03   11.26   1
   2 -14  -2    9.59    8.62   1
   1 -14  -2   29.12   10.16   1
   0 -14  -2   -3.95    6.34   1
  -1 -14  -2  128.48   19.47   1
  -2 -14  -2   -2.60    5.70   1
  -3 -14  -2   18.61    8.66   1
  -4 -14  -2   -3.38    5.82   1
  -5 -14  -2   -0.69    6.49   1
  -6 -14  -2   14.85    8.92   1
  -7 -14  -2    5.25    6.43   1
  -8 -14  -2   45.15   12.83   1
  -9 -14  -2  223.71   26.14   1
 -10 -14  -2   -4.27    5.66   1
 -11 -14  -2   79.35   16.64   1
 -12 -14  -2   22.53   11.09   1
 -13 -14  -2   22.84   11.48   1
 -14 -14  -2   21.16   10.95   1
   4 -15  -2    1.72    5.80   1
   3 -15  -2   -7.35    4.67   1
   2 -15  -2    4.07    7.11   1
   1 -15  -2   32.54   11.78   1
   0 -15  -2  114.01   18.99   1
  -1 -15  -2   -0.35    7.56   1
  -2 -15  -2   45.97   13.50   1
  -3 -15  -2   45.71   12.34   1
  -4 -15  -2    5.22    7.58   1
  -5 -15  -2  200.43   25.21   1
  -6 -15  -2   21.44    9.70   1
  -7 -15  -2   62.24   14.98   1
  -8 -15  -2   14.33    9.45   1
  -9 -15  -2    1.17    7.79   1
 -10 -15  -2    2.83    7.31   1
 -11 -15  -2   -5.91    6.78   1
 -12 -15  -2    9.16    9.15   1
   2 -16  -2   -1.56    5.07   1
   1 -16  -2  -12.43    4.64   1
   0 -16  -2   -2.48    4.20   1
  -1 -16  -2   17.03   10.66   1
  -2 -16  -2    0.66    7.05   1
  -3 -16  -2   -3.26    7.77   1
  -4 -16  -2    5.43    7.41   1
  -5 -16  -2    2.39    7.53   1
  -6 -16  -2   -1.60    5.99   1
  -7 -16  -2   40.45   13.19   1
  -8 -16  -2   11.02    8.54   1
  -9 -16  -2  146.43   22.91   1
 -10 -16  -2   10.00    9.99   1
 -11 -16  -2   -5.90    7.28   1
  -1 -17  -2   30.08   13.96   1
  -2 -17  -2    1.36    9.23   1
  -3 -17  -2   17.32   11.50   1
  -4 -17  -2   14.69   10.12   1
  -5 -17  -2    7.64   10.12   1
  -6 -17  -2   64.22   17.00   1
  -7 -17  -2   12.02   10.59   1
  -8 -17  -2   -7.90    8.15   1
  -6 -17   3    8.20   10.53   1
  -5 -17   3   -3.19    8.18   1
  -4 -17   3    5.08    5.90   1
  -3 -17   3   -2.01    5.43   1
  -2 -17   3   -5.07    4.66   1
  -1 -17   3    2.66    6.04   1
  -9 -16   3   23.96   12.63   1
  -8 -16   3   45.51   14.74   1
  -7 -16   3   46.51   14.21   1
  -6 -16   3   10.72    8.99   1
  -5 -16   3    3.31    7.48   1
  -4 -16   3    2.71    6.91   1
  -3 -16   3  -10.49    6.01   1
  -2 -16   3   -2.20    6.60   1
  -1 -16   3    2.39    6.31   1
   0 -16   3   -7.99    4.57   1
   1 -16   3   -6.18    3.86   1
   2 -16   3   -6.25    4.36   1
   3 -16   3  -12.50    4.57   1
 -11 -15   3   19.08   12.69   1
 -10 -15   3   53.38   16.11   1
  -9 -15   3   39.82   13.54   1
  -8 -15   3   88.83   18.90   1
  -7 -15   3    4.08    7.24   1
  -6 -15   3  -14.56    5.70   1
  -5 -15   3   -1.65    7.25   1
  -4 -15   3   36.77   11.26   1
  -3 -15   3   99.28   17.99   1
  -2 -15   3   13.51    7.86   1
  -1 -15   3   23.70    9.93   1
   0 -15   3   29.27   10.82   1
   1 -15   3    6.93    7.98   1
   2 -15   3   47.97   13.09   1
   3 -15   3    4.96    8.36   1
   4 -15   3  133.00   21.94   1
   5 -15   3   19.10   12.37   1
 -12 -14   3   -1.50    9.08   1
 -11 -14   3  105.17   21.35   1
 -10 -14   3   21.38   11.39   1
  -9 -14   3    5.03    8.38   1
  -8 -14   3   18.88   10.99   1
  -7 -14   3   93.09   17.69   1
  -6 -14   3    6.03    6.62   1
  -5 -14   3    7.14    7.94   1
  -4 -14   3  230.59   25.23   1
  -3 -14   3    2.40    6.05   1
  -2 -14   3  130.20   19.57   1
  -1 -14   3   35.33   10.80   1
   0 -14   3   22.09    9.12   1
   1 -14   3   44.86   11.82   1
   2 -14   3    2.03    7.92   1
   3 -14   3    3.85    6.84   1
   4 -14   3   18.75   10.25   1
   5 -14   3   18.55   11.06   1
  -5  14  -3    9.46    9.47   3
   6 -14   3   11.94    9.26   1
  -6  14  -3   12.13   11.61   3
   7 -14   3  -24.20    9.29   1
 -13 -13   3   93.63   20.04   1
 -12 -13   3   24.70   11.90   1
 -11 -13   3   21.28   11.55   1
 -10 -13   3    6.66    9.01   1
  -9 -13   3   26.88   10.97   1
  -8 -13   3   12.97    8.90   1
  -7 -13   3   12.16    6.94   1
  -6 -13   3    4.56    7.85   1
  -5 -13   3   14.37    8.02   1
  -4 -13   3   17.33    7.13   1
  -3 -13   3   74.05   14.72   1
  -2 -13   3   40.40   11.31   1
  -1 -13   3   15.34    8.18   1
   0 -13   3   50.47   12.24   1
   1 -13   3   51.54   12.10   1
   2 -13   3   54.45   12.79   1
  -3  13  -3   52.19   12.88   3
   3 -13   3   72.25   14.98   1
   4 -13   3   13.33    9.59   1
  -4  13  -3   16.52    9.84   3
  -5  13  -3   31.82   11.52   3
   5 -13   3   42.07   12.91   1
  -6  13  -3   -6.62    6.80   3
   6 -13   3   13.71    9.94   1
  -7  13  -3   -4.01    8.66   3
   7 -13   3    4.82   10.19   1
   8 -13   3    4.20    9.22   1
 -14 -12   3   14.47   10.05   1
 -13 -12   3   18.58    9.62   1
 -12 -12   3   -8.44    7.35   1
 -11 -12   3  236.20   28.51   1
 -10 -12   3   -3.85    6.47   1
  -9 -12   3  110.33   19.24   1
  -8 -12   3    9.49    9.10   1
  -7 -12   3   17.95    9.72   1
  -6 -12   3    7.59    8.22   1
  -5 -12   3   -0.73    5.50   1
  -4 -12   3  195.04   21.14   1
  -3 -12   3  152.88   19.21   1
  -2 -12   3   31.66    9.36   1
  -1 -12   3    7.76    6.04   1
   0 -12   3   13.61    6.68   1
   1 -12   3   15.75    7.43   1
   2 -12   3    3.86    5.88   1
  -2  12  -3    7.35    6.79   3
  -3  12  -3    9.06    7.79   3
   3 -12   3   17.98    9.10   1
  -4  12  -3  163.73   20.36   3
   4 -12   3  147.82   19.77   1
   5 -12   3   18.91   10.27   1
  -5  12  -3   25.20   10.27   3
  -6  12  -3   44.62   12.16   3
   6 -12   3   61.98   15.02   1
  -7  12  -3   -9.58    6.59   3
   7 -12   3   -0.97    8.23   1
   8 -12   3    0.07    8.42   1
  -8  12  -3    1.83    8.64   3
   9 -12   3   47.00   13.68   1
  -9  12  -3   26.06   11.95   3
 -15 -11   3   26.76   12.78   1
 -14 -11   3   39.18   13.68   1
 -13 -11   3   33.02   11.76   1
 -12 -11   3  150.90   23.30   1
 -11 -11   3    4.91    7.40   1
 -10 -11   3   20.93    9.46   1
  -9 -11   3   11.30    7.84   1
  -8 -11   3  108.32   18.40   1
  -7 -11   3   -4.31    5.34   1
  -6 -11   3   23.64   10.01   1
  -5 -11   3    1.77    6.00   1
  -4 -11   3   49.95   11.21   1
  -3 -11   3   74.52   13.12   1
  -2 -11   3  707.22   36.43   1
  -1 -11   3   -2.04    4.95   1
   0 -11   3  410.99   25.84   1
  -1  11  -3   35.68   10.03   3
   1 -11   3   33.61    8.98   1
  -2  11  -3   19.98    8.91   3
   2 -11   3   29.25    8.68   1
   3 -11   3   82.48   14.53   1
  -3  11  -3   82.61   14.16   3
   4 -11   3   -3.70    4.73   1
  -4  11  -3   -0.70    5.92   3
   5 -11   3   37.00   11.66   1
  -5  11  -3   38.75   11.16   3
  -6  11  -3    5.74    7.06   3
   6 -11   3   -1.41    7.68   1
   7 -11   3   34.06   12.28   1
  -7  11  -3   23.51    9.90   3
   8 -11   3   -7.35    7.74   1
  -8  11  -3   -4.98    6.29   3
  -9  11  -3    3.68    8.19   3
   9 -11   3    4.34    8.94   1
  10 -11   3    2.31    9.54   1
 -10  11  -3   11.11   10.11   3
 -15 -10   3   18.59   12.38   1
 -14 -10   3   30.84   12.26   1
 -13 -10   3   11.36    9.13   1
 -12 -10   3    3.80    7.32   1
 -11 -10   3   98.26   17.63   1
 -10 -10   3  114.50   19.07   1
  -9 -10   3  113.48   18.65   1
  -8 -10   3   25.39    9.29   1
  -7 -10   3   51.50   12.71   1
  -6 -10   3  127.63   17.58   1
  -5 -10   3   -0.80    5.18   1
  -4 -10   3    2.71    5.25   1
  -3 -10   3  247.29   19.53   1
  -2 -10   3   22.88    7.89   1
  -1 -10   3   14.45    6.61   1
   0 -10   3   25.65    7.74   1
  -1  10  -3   61.55   11.76   3
   1 -10   3   54.49   10.90   1
  -2  10  -3   -1.54    6.59   3
   2 -10   3    3.47    5.83   1
  -3  10  -3   53.18   11.49   3
   3 -10   3   31.24    9.49   1
   4 -10   3   -2.40    5.68   1
  -4  10  -3   12.75    7.28   3
   5 -10   3  181.36   19.96   1
  -5  10  -3  185.00   19.87   3
  -6  10  -3    1.05    6.11   3
   6 -10   3   -5.09    5.39   1
   7 -10   3  107.31   18.26   1
  -7  10  -3  140.87   19.13   3
  -8  10  -3   -3.91    7.07   3
   8 -10   3   12.75    9.10   1
   9 -10   3    6.87    9.10   1
  -9  10  -3   11.35    8.40   3
  10 -10   3    4.16   10.04   1
 -10  10  -3    8.04    8.36   3
 -11  10  -3    8.31   10.33   3
  11 -10   3   -5.60    9.93   1
 -16  -9   3  102.38   21.72   1
 -15  -9   3    7.76    8.81   1
 -14  -9   3  117.41   22.04   1
 -13  -9   3   54.03   14.86   1
 -12  -9   3   37.58   11.98   1
 -11  -9   3   -2.63    5.37   1
 -10  -9   3   75.74   15.19   1
  -9  -9   3    1.57    6.56   1
  -8  -9   3   34.13    9.90   1
  -7  -9   3    3.31    5.86   1
  -6  -9   3   42.04   10.55   1
  -5  -9   3  135.45   16.76   1
  -4  -9   3   70.92   12.42   1
  -3  -9   3   88.76   12.88   1
  -2  -9   3  426.94   24.45   1
  -1  -9   3   37.42    8.77   1
   0   9  -3   48.52    9.75   3
   0  -9   3   43.27    9.27   1
  -1   9  -3  323.47   20.64   3
   1  -9   3  319.61   20.60   1
   2  -9   3    5.55    5.75   1
  -2   9  -3    6.96    6.21   3
  -3   9  -3   21.60    7.96   3
   3  -9   3   29.07    8.56   1
   4  -9   3   -3.82    5.30   1
  -4   9  -3    0.37    5.81   3
   5  -9   3   36.81   10.55   1
  -5   9  -3    8.77    8.45   3
   6  -9   3   -3.18    6.22   1
  -6   9  -3    3.90    6.71   3
   7  -9   3   13.21    9.08   1
  -7   9  -3    8.57    7.28   3
  -8   9  -3    7.35    7.88   3
   8  -9   3    2.22    8.40   1
   9  -9   3   18.41   11.25   1
  -9   9  -3   20.70    9.39   3
 -10   9  -3   16.35    8.99   3
  10  -9   3    1.09    8.65   1
 -11   9  -3   72.02   15.48   3
  11  -9   3   47.06   14.76   1
 -12   9  -3   17.09   10.63   3
 -16  -8   3   24.61   13.00   1
 -16  -8   3   25.93   10.67   4
 -15  -8   3   15.36    9.89   1
 -15  -8   3   16.78    8.92   4
 -14  -8   3   -3.27    6.13   4
 -14  -8   3    3.36    7.86   1
 -13  -8   3   -1.25    6.10   4
 -13  -8   3   -2.39    6.42   1
 -12  -8   3   24.46    9.44   1
 -12  -8   3    8.50    7.05   4
 -11  -8   3  -11.67    4.84   1
 -10  -8   3   17.33    8.68   1
  -9  -8   3    3.94    6.04   1
  -8  -8   3  148.65   18.51   1
  -7  -8   3   44.42   10.37   1
  -6  -8   3  249.57   20.08   1
  -5  -8   3  346.58   23.09   1
  -4  -8   3    1.01    3.76   1
  -3  -8   3   23.86    7.37   1
  -2  -8   3    1.61    3.42   1
  -1  -8   3   55.09    9.79   1
   0   8  -3   51.46    9.46   3
   0  -8   3   38.61    8.45   1
  -1   8  -3   16.24    6.85   3
   1  -8   3   16.96    5.71   1
   2  -8   3    1.95    4.70   1
  -2   8  -3    5.73    5.60   3
   3  -8   3  153.39   15.48   1
  -3   8  -3  164.71   15.97   3
  -4   8  -3   10.70    6.46   3
   4  -8   3    5.66    6.08   1
  -5   8  -3  329.38   22.71   3
   5  -8   3  309.98   22.02   1
  -6   8  -3   13.15    7.32   3
   6  -8   3    7.34    6.75   1
  -7   8  -3  162.62   18.64   3
   7  -8   3  225.85   21.08   1
  -8   8  -3   18.70    8.41   3
   8  -8   3   14.38    9.19   1
  -9   8  -3   -1.32    5.27   3
   9  -8   3   11.15    9.53   1
 -10   8  -3   20.60    9.24   3
  10  -8   3    5.59    9.86   1
  11  -8   3   29.20   12.39   1
 -11   8  -3    6.06    8.48   3
 -12   8  -3   22.46   10.81   3
 -13   8  -3    5.45    9.89   3
 -16  -7   3   39.22   12.42   4
 -16  -7   3   12.19   11.84   1
 -15  -7   3    6.70    8.37   1
 -15  -7   3    7.41    8.28   4
 -14  -7   3   12.11    7.83   4
 -14  -7   3   11.26    8.64   1
 -13  -7   3   74.83   16.77   1
 -13  -7   3   83.79   16.23   4
 -12  -7   3    5.38    5.87   4
 -12  -7   3   -3.85    5.47   1
 -11  -7   3   62.17   12.72   4
 -11  -7   3   68.31   14.56   1
 -10  -7   3   74.09   14.17   1
 -10  -7   3   91.57   14.64   4
  -9  -7   3   -3.02    4.22   4
  -9  -7   3   -6.82    4.47   1
  -8  -7   3   74.70   13.21   1
  -7  -7   3   44.09   10.13   1
  -6  -7   3  358.32   23.36   1
  -5  -7   3   10.80    5.78   1
  -4  -7   3  115.08   13.65   1
  -3  -7   3   42.15    8.48   1
  -2  -7   3  129.87   13.28   1
  -1  -7   3  341.47   19.06   1
   0  -7   3    3.57    3.90   1
   0   7  -3    7.22    4.77   3
  -1   7  -3  231.24   14.91   3
   1  -7   3  242.16   15.71   1
  -2   7  -3  116.86   12.58   3
   2  -7   3  144.82   13.48   1
   3  -7   3    7.53    5.10   1
  -3   7  -3    4.49    5.16   3
   4  -7   3  129.29   13.97   1
  -4   7  -3  138.96   14.66   3
  -5   7  -3    7.79    6.11   3
   5  -7   3   25.51    8.67   1
   6  -7   3   38.20   10.38   1
  -6   7  -3   30.90    9.12   3
   7  -7   3    9.34    7.56   1
  -7   7  -3   -7.86    4.31   3
   8  -7   3   37.48   11.68   1
  -8   7  -3   54.84   12.03   3
  -9   7  -3   -0.46    6.34   3
   9  -7   3    5.69    7.18   1
  10  -7   3    2.35    8.21   1
 -10   7  -3   -7.96    6.11   3
  11  -7   3   66.51   15.76   1
 -11   7  -3   67.67   15.41   3
 -12   7  -3  101.15   17.99   3
 -13   7  -3   -1.69    7.36   3
 -16  -6   3    4.32    7.55   4
 -16  -6   3   -1.36    9.43   1
 -15  -6   3   12.51    9.74   1
 -15  -6   3   12.61    9.09   4
 -14  -6   3   32.24   11.94   1
 -14  -6   3   40.39   11.90   4
 -13  -6   3   37.95   11.17   4
 -13  -6   3   46.15   13.98   1
 -12  -6   3   -0.07    5.66   1
 -12  -6   3   -2.31    5.41   4
 -11  -6   3    7.64    6.74   1
 -11  -6   3   13.90    7.51   4
 -10  -6   3  111.60   16.82   1
 -10  -6   3   90.07   14.36   4
  -9  -6   3   12.98    7.27   1
  -9  -6   3   25.58    8.16   4
  -8  -6   3  183.58   17.56   4
  -8  -6   3  163.34   17.98   1
  -7  -6   3    5.60    4.91   1
  -7  -6   3   14.17    6.24   4
  -6  -6   3  139.50   15.16   1
  -5  -6   3  125.61   14.30   1
  -4  -6   3  730.10   32.32   1
  -3  -6   3  292.05   18.00   1
  -2  -6   3    5.50    4.25   1
  -1  -6   3   23.06    5.94   1
   1   6  -3   42.16    6.87   3
   0  -6   3    1.78    3.35   1
   0   6  -3    2.62    3.49   3
   1  -6   3   14.96    5.16   1
  -1   6  -3   17.60    5.48   3
  -2   6  -3    1.09    4.15   3
   2  -6   3    0.10    3.92   1
   3  -6   3  348.45   19.30   1
  -3   6  -3  326.24   19.36   3
  -4   6  -3  389.72   22.12   3
   4  -6   3  367.49   20.54   1
   5  -6   3   76.40   11.46   1
  -5   6  -3   63.71   10.86   3
  -6   6  -3   23.97    8.19   3
   6  -6   3   14.73    7.69   1
   7  -6   3   72.32   13.13   1
  -7   6  -3   83.73   13.72   3
   8  -6   3  326.16   23.73   1
  -8   6  -3  326.69   23.44   3
   9  -6   3    6.30    8.28   1
  -9   6  -3    8.65    7.15   3
 -10   6  -3  306.60   24.82   3
  10  -6   3  364.91   26.98   1
  11  -6   3    0.93    8.98   1
 -11   6  -3    0.96    6.84   3
  12  -6   3   16.98   10.23   1
 -12   6  -3    0.64    6.79   3
 -13   6  -3    0.79    7.58   3
 -14   6  -3    5.62    9.37   3
 -17  -5   3    5.69   12.67   1
 -16  -5   3   16.69   10.80   4
 -16  -5   3   21.07   13.39   1
 -15  -5   3   27.99   10.52   4
 -15  -5   3   30.60   13.34   1
 -10  -5   3   11.38    7.39   1
 -10  -5   3    3.22    5.55   4
  -9  -5   3   54.35   10.94   4
  -9  -5   3   48.94   11.59   1
  -8  -5   3  221.98   18.53   1
  -8  -5   3  229.95   18.09   4
  -7  -5   3    3.32    4.97   1
  -7  -5   3   13.66    6.74   4
  -6  -5   3  526.02   26.97   1
  -6  -5   3  485.18   25.36   4
  -5  -5   3  178.16   14.30   1
  -5  -5   3  193.07   14.44   4
  -4  -5   3  727.07   31.46   1
  -3  -5   3   95.32   10.71   1
  -2  -5   3   -3.94    2.86   1
   1   5  -3  928.07   31.75   3
   1   5  -3  958.31   33.73   2
  -1  -5   3  973.95   34.81   1
   0   5  -3   26.91    5.30   3
   0  -5   3   34.01    6.18   1
   0   5  -3   26.32    6.10   2
  -1   5  -3    7.43    4.15   3
   1  -5   3   16.27    5.09   1
  -1   5  -3   16.97    5.00   2
   2  -5   3  635.52   25.92   1
  -2   5  -3  631.01   26.43   3
  -2   5  -3  643.00   21.89   2
  -3   5  -3    0.94    3.23   2
  -3   5  -3    2.17    4.23   3
   3  -5   3    2.13    3.65   1
  -4   5  -3   41.94    8.48   3
   4  -5   3   35.62    7.33   1
   5  -5   3   50.62    9.32   1
  -5   5  -3   39.68    9.09   3
  -6   5  -3    7.70    6.17   3
   6  -5   3   -3.06    5.40   1
  -7   5  -3    7.45    6.50   3
   7  -5   3    8.86    8.10   1
  -8   5  -3    5.43    6.63   3
   8  -5   3    3.27    7.92   1
  -9   5  -3  118.01   16.97   3
   9  -5   3  118.07   16.45   1
  10  -5   3    2.61    8.03   1
 -10   5  -3    2.13    6.66   3
 -11   5  -3  100.99   17.29   3
  11  -5   3  124.98   18.62   1
  12  -5   3   87.37   17.18   1
 -12   5  -3   83.00   15.84   3
 -13   5  -3    1.27    7.44   3
 -14   5  -3   86.20   17.63   3
  16   4  -3    9.32    9.71   1
  15   4  -3   89.61   18.22   1
  14   4  -3   23.81   11.14   1
  13   4  -3   31.85   12.26   1
  12   4  -3    2.40    7.60   1
  11   4  -3  171.23   20.23   1
  10   4  -3   85.37   15.36   1
   9   4  -3  366.82   24.57   1
   8   4  -3    8.97    7.62   1
   7   4  -3  257.50   18.47   1
  -6  -4   3  688.46   31.36   1
  -6  -4   3  635.90   29.52   4
  -5  -4   3  477.64   24.48   1
  -5  -4   3  491.33   23.71   4
  -4  -4   3   56.74    8.96   1
  -4  -4   3   66.14    9.25   4
  -3  -4   3    0.68    3.59   1
  -2  -4   3 1047.10   37.25   1
   2   4  -3 1125.08   37.61   2
   1   4  -3   51.45    7.37   2
  -1  -4   3   70.10    7.80   1
   1   4  -3   60.08    5.97   3
   0   4  -3   99.13    7.90   3
   0  -4   3   77.99    7.68   1
   0   4  -3   91.50    7.98   2
  -1   4  -3  278.81   12.54   2
   1  -4   3  287.01   14.07   1
  -1   4  -3  275.59   14.07   3
  -2   4  -3   10.61    4.40   3
  -2   4  -3    9.90    3.80   2
   2  -4   3   10.10    3.92   1
  -3   4  -3  299.05   16.85   3
   3  -4   3  296.75   15.39   1
  -3   4  -3  275.96   11.15   2
  -4   4  -3  634.35   29.12   3
   4  -4   3  711.09   27.64   1
  -4   4  -3  693.80   21.27   2
   5  -4   3  407.31   20.84   1
  -5   4  -3  389.27   22.08   3
  -5   4  -3  396.15   13.94   2
   6  -4   3  282.87   17.93   1
  -6   4  -3  244.75   18.52   3
  -7   4  -3   57.01   11.10   3
   7  -4   3   53.45   10.81   1
  -8   4  -3   13.96    6.94   3
   8  -4   3   19.77    9.22   1
   9  -4   3   42.18   11.66   1
  -9   4  -3   40.22   10.38   3
 -10   4  -3   54.17   12.21   3
  10  -4   3   63.31   13.36   1
 -11   4  -3   18.31    7.96   3
  11  -4   3    8.58    8.41   1
 -12   4  -3    4.83    7.35   3
  12  -4   3   -1.67    7.73   1
 -13   4  -3   52.55   13.06   3
 -14   4  -3   21.42   10.08   3
  16   3  -3   29.91   12.83   1
  15   3  -3   16.73   10.19   1
  14   3  -3    7.12    8.57   1
  13   3  -3    3.26    9.40   1
  12   3  -3   50.58   13.23   1
  11   3  -3  124.16   17.99   1
  10   3  -3  124.92   17.68   1
   9   3  -3   10.88    8.99   1
   8   3  -3   59.10   11.99   1
   7   3  -3   36.06    9.54   1
   6   3  -3   64.70   10.31   1
   5   3  -3    1.69    5.33   1
   4   3  -3   86.33    9.38   1
  -3  -3   3 1586.54   50.45   1
  -3  -3   3 1552.89   48.19   4
   3   3  -3 1561.77   50.22   2
   2   3  -3   47.92    7.57   2
  -2  -3   3   42.68    6.47   1
   1   3  -3   -1.39    5.26   2
   1   3  -3    0.51    2.56   3
  -1  -3   3    1.95    3.23   1
   0  -3   3    2.96    3.11   1
   0   3  -3   14.60    5.12   2
   0   3  -3   13.83    3.93   3
  -1   3  -3 1450.67   45.24   3
  -1   3  -3 1534.40   44.15   2
   1  -3   3 1502.31   44.41   1
  -2   3  -3   63.39    5.61   2
  -2   3  -3   50.03    6.97   3
   2  -3   3   71.25    6.88   1
  -3   3  -3  205.01   13.57   3
  -3   3  -3  204.53    9.61   2
   3  -3   3  201.40   11.58   1
  -4   3  -3   11.74    3.38   2
   4  -3   3   15.19    5.18   1
  -4   3  -3   10.13    5.45   3
   5  -3   3    2.60    4.76   1
  -5   3  -3    8.22    5.03   3
  -5   3  -3    1.39    2.51   2
  -6   3  -3   31.12    4.50   2
   6  -3   3   39.52    8.53   1
  -6   3  -3   35.92    8.52   3
  -7   3  -3  284.84   19.94   3
   7  -3   3  314.23   19.59   1
   8  -3   3  254.22   19.23   1
  -8   3  -3  271.80   20.48   3
  -9   3  -3   43.10   10.24   3
   9  -3   3   38.31   11.20   1
  10  -3   3   12.54    8.62   1
 -10   3  -3   12.02    7.35   3
 -11   3  -3    4.34    6.50   3
  11  -3   3   13.29    8.74   1
 -12   3  -3   56.75   13.00   3
  12  -3   3   52.42   12.67   1
 -13   3  -3  266.17   26.16   3
 -14   3  -3   38.55   11.77   3
  16   2  -3   13.38   11.01   1
  15   2  -3    6.80   10.19   1
  14   2  -3   20.79   11.47   1
  13   2  -3   21.09   10.27   1
  12   2  -3   17.35    9.07   1
  11   2  -3  914.21   43.73   1
  10   2  -3   20.69   10.00   1
 -10  -2   3    8.57    5.90   3
   9   2  -3 2494.71   83.28   1
  -9  -2   3 2489.79   77.82   3
   8   2  -3  182.12   17.39   1
   7   2  -3  607.98   29.07   1
   6   2  -3  105.73   12.25   1
   5   2  -3  848.39   32.35   1
   4   2  -3  480.26   21.08   2
   4   2  -3  485.12   21.13   1
   3   2  -3   60.76    7.86   1
   3   2  -3   57.14    7.33   2
   2   2  -3  133.74    9.74   2
  -1  -2   3    2.36    2.81   4
  -1  -2   3    3.93    3.10   1
   1   2  -3    9.42    4.07   2
   1   2  -3    0.37    1.40   3
   0   2  -3  373.57   13.26   3
   0   2  -3  347.25   13.61   2
   0  -2   3  357.38   13.57   1
   1  -2   3   14.54    2.78   1
  -1   2  -3   29.15    4.72   2
  -1   2  -3   26.28    4.41   3
  -2   2  -3    3.08    3.83   2
  -2   2  -3    2.06    3.44   3
   2  -2   3    0.56    1.95   1
  -3   2  -3 1977.91   54.58   2
   3  -2   3 1795.48   53.70   1
  -3   2  -3 1886.53   58.21   3
  -4   2  -3 1032.50   31.69   2
  -4   2  -3  951.21   36.18   3
   4  -2   3  983.32   32.85   1
   5  -2   3    6.23    5.15   1
  -5   2  -3    0.95    4.35   3
  -5   2  -3    9.11    3.33   2
  -6   2  -3  331.52   15.73   2
  -6   2  -3  329.98   20.03   3
   6  -2   3  341.99   18.43   1
   7  -2   3  158.82   13.58   1
  -7   2  -3  158.21   10.84   2
  -7   2  -3  173.62   15.01   3
   8  -2   3    9.72    8.08   1
  -8   2  -3    0.39    3.36   2
  -8   2  -3    2.80    5.32   3
  -9   2  -3   46.87   10.82   3
   9  -2   3   57.99   12.16   1
  10  -2   3   17.10    8.63   1
 -10   2  -3    4.75    5.92   3
 -11   2  -3   14.57    7.34   3
  11  -2   3    8.17    7.59   1
 -12   2  -3   12.08    7.21   3
  12  -2   3   -3.77    7.19   1
  13  -2   3   33.48   11.14   1
 -13   2  -3   12.35    7.90   3
 -14   2  -3   19.11    8.88   3
  16   1  -3   17.81   10.56   1
  15   1  -3   20.41   10.62   1
  14   1  -3    8.09    9.92   1
  13   1  -3    8.05    8.71   1
  12   1  -3    2.31    8.21   1
  11   1  -3   21.07   10.15   1
  10   1  -3  128.12   17.20   1
 -10  -1   3  156.08   14.60   3
  -9  -1   3   -3.22    3.76   3
   9   1  -3    9.30    8.14   1
   8   1  -3    8.08    7.64   1
  -8  -1   3    6.05    4.54   3
  -7  -1   3  445.45   20.38   3
   7   1  -3  396.05   23.31   1
  -6  -1   3   34.54    5.89   3
   6   1  -3   37.64    8.94   1
   5   1  -3  400.96   20.42   1
   4   1  -3   42.87    7.82   1
   4   1  -3   44.49    6.78   2
   3   1  -3   18.16    5.15   2
   3   1  -3    7.97    5.80   1
   2   1  -3  552.07   19.52   1
   2   1  -3  498.89   18.86   2
   1   1  -3 1553.88   44.88   2
   1   1  -3 1543.55   43.17   1
   1   1  -3 1504.64   41.45   3
   0   1  -3    1.05    0.58   3
   0  -1   3   -1.07    0.45   4
   0   1  -3    6.66    2.74   2
   0  -1   3    0.59    0.66   1
   1  -1   3   34.64    2.87   1
  -1   1  -3   37.35    4.24   2
  -1   1  -3   32.93    4.16   3
   2  -1   3  489.29   15.78   1
  -2   1  -3  494.03   19.38   3
  -2   1  -3  504.22   17.46   2
  -3   1  -3  219.41   10.79   2
  -3   1  -3  210.16   12.81   3
  -4   1  -3   24.71    6.22   3
  -4   1  -3   29.59    5.01   2
  -5   1  -3  347.10   16.13   2
   5  -1   3  319.73   15.67   1
  -5   1  -3  358.59   19.21   3
  -6   1  -3   98.58   12.05   3
   6  -1   3   78.12    9.73   1
  -6   1  -3   95.83    8.57   2
  -7   1  -3   61.09   10.85   3
  -7   1  -3   69.04    8.49   2
   7  -1   3   62.39    9.82   1
  -8   1  -3  138.65   11.66   2
   8  -1   3  153.31   14.14   1
  -8   1  -3  129.38   15.26   3
  -9   1  -3   -4.14    3.36   2
  -9   1  -3   -1.27    4.98   3
   9  -1   3   -6.82    6.30   1
 -10   1  -3   44.19   10.88   3
  10  -1   3   32.97   10.75   1
 -11   1  -3  231.88   22.01   3
  11  -1   3  227.58   19.28   1
 -12   1  -3  118.65   17.36   3
  12  -1   3   87.52   15.15   1
  13  -1   3   67.45   14.27   1
 -13   1  -3   39.35   11.20   3
 -14   1  -3   12.72    8.17   3
  16   0  -3   27.85   12.34   1
  15   0  -3   22.92   11.80   1
  14   0  -3   81.73   17.04   1
  13   0  -3    5.80    9.27   1
  12   0  -3   -3.20    7.82   1
  11   0  -3  365.30   26.25   1
 -10   0   3  206.79   16.19   3
  10   0  -3  201.08   20.88   1
   9   0  -3  335.27   23.66   1
  -9   0   3  343.82   20.05   3
  -8   0   3  501.55   23.86   3
   8   0  -3  509.94   28.36   1
   7   0  -3   20.98    8.48   1
  -7   0   3   28.90    6.55   3
   6   0  -3  682.55   29.76   1
  -6   0   3  712.80   26.89   3
  -5   0   3  429.38   18.11   3
   5   0  -3  445.61   21.68   1
  -4   0   3  208.50   10.40   3
   4   0  -3  203.47   13.52   1
   3   0  -3  259.67   11.60   2
   3   0  -3  254.18   14.00   1
  -3   0   3  284.04   10.82   3
   2   0  -3   56.80    5.60   2
  -2   0   3   49.10    3.48   3
   2   0  -3   42.88    6.05   1
   1   0  -3  334.20   12.60   2
   1   0  -3  342.68   12.79   1
   0   0  -3  208.82    9.04   2
   0   0  -3  207.22    7.59   1
  -1   0  -3  388.23   14.35   2
  -2   0  -3 2971.24   85.58   2
   2   0   3 3071.07   79.92   1
  -3   0  -3  504.34   19.88   2
   3   0   3  521.08   17.42   1
  -4   0  -3 4565.66  129.28   2
  -6   0  -3  725.09   29.71   2
   6   0   3  725.07   27.69   1
  -7   0  -3   25.15    6.56   2
   7   0   3   26.24    7.36   1
  -8   0  -3   13.06    5.27   2
   8   0   3    9.80    6.64   1
  -8   0  -3    7.68    5.49   3
  -9   0  -3  163.41   14.46   2
  -9   0  -3  192.74   18.49   3
   9   0   3  190.20   16.06   1
 -10   0  -3   -1.36    4.20   2
 -10   0  -3   -2.72    4.08   3
  10   0   3    0.75    7.12   1
 -11   0  -3   10.10    7.02   3
  11   0   3   19.16    8.44   1
 -12   0  -3  152.93   18.78   3
  12   0   3  183.83   19.27   1
 -13   0  -3    3.38    5.59   3
  13   0   3    7.91    8.63   1
 -14   0  -3   93.61   16.68   3
  16  -1  -3   36.13   14.27   1
  15  -1  -3   -7.99    8.69   1
  14  -1  -3   34.27   13.37   1
  13  -1  -3    0.35    9.27   1
  12  -1  -3    2.07    8.14   1
  11  -1  -3   52.23   12.78   1
 -10   1   3   51.34   10.33   3
  10  -1  -3   34.08   11.46   1
   9  -1  -3  425.67   26.67   1
  -9   1   3  385.31   22.22   3
  -8   1   3  110.06   12.18   3
   8  -1  -3  134.80   15.92   1
   7  -1  -3  866.88   37.66   1
  -7   1   3  928.00   34.67   3
  -6   1   3   17.55    5.23   3
   6  -1  -3   23.09    7.78   1
   5  -1  -3   15.66    7.02   1
  -5   1   3    2.48    3.32   3
   4  -1  -3  131.69   11.64   1
   4  -1  -3  139.46    8.75   2
  -4   1   3  143.05    9.11   3
   3  -1  -3  138.06    8.23   2
  -3   1   3  130.91    7.85   3
   3  -1  -3  130.53   10.46   1
  -2   1   3 1177.47   33.88   3
   2  -1  -3 1201.08   35.38   2
   1  -1  -3   37.64    4.83   1
   0  -1  -3  128.83    6.30   1
   0  -1  -3  130.91    7.07   2
  -1  -1  -3  177.96    6.44   1
  -1  -1  -3  159.90    8.83   2
  -2  -1  -3  124.77    8.35   2
  -2  -1  -3  136.01    6.02   1
  -3  -1  -3  514.59   21.37   2
   3   1   3  540.46   17.26   1
   4   1   3    5.93    3.62   1
   5   1   3    0.86    1.28   1
   6   1   3  272.71   14.38   1
   7   1   3  165.71   12.51   1
   8   1   3  149.71   13.50   1
   9   1   3   22.71    8.24   1
 -10  -1  -3    6.82    5.87   3
  10   1   3    9.58    7.97   1
  11   1   3  304.11   22.11   1
 -11  -1  -3  324.61   24.03   2
 -11  -1  -3  320.32   23.38   3
 -12  -1  -3    4.07    6.48   3
  12   1   3    3.09    7.17   1
 -13  -1  -3   45.29   11.65   3
  13   1   3   57.71   12.97   1
 -14  -1  -3   31.09   10.14   3
  15  -2  -3    7.60    9.87   1
  14  -2  -3   52.24   14.51   1
  13  -2  -3   78.87   16.82   1
  12  -2  -3   -1.50    8.41   1
  11  -2  -3   -6.71    7.03   1
 -10   2   3   89.76   12.95   3
  10  -2  -3   83.18   15.64   1
   9  -2  -3  143.46   18.03   1
  -9   2   3  136.41   14.49   3
   8  -2  -3  782.83   37.14   1
  -8   2   3  706.66   31.50   3
  -7   2   3   -1.34    3.87   3
   7  -2  -3    3.67    6.79   1
  -6   2   3  230.47   14.45   3
   6  -2  -3  231.54   17.50   1
  -5   2   3    9.65    4.49   3
   5  -2  -3   13.13    6.63   1
   4  -2  -3  146.93    7.90   2
   4  -2  -3  138.45   11.80   1
  -4   2   3  129.07    9.46   3
   3  -2  -3    9.32    5.22   1
   3  -2  -3   15.70    3.54   2
  -3   2   3   11.96    3.76   3
   2  -2  -3  302.12   14.94   1
  -2   2   3  324.00   13.08   3
   2  -2  -3  332.25   12.27   2
   1  -2  -3   11.86    4.28   1
  -1   2   3   22.62    3.82   3
   1  -2  -3   22.20    3.41   2
   0  -2  -3 1279.42   37.33   1
  -1  -2  -3  884.14   26.37   1
  -1  -2  -3  870.46   29.40   2
  -2  -2  -3   65.77    7.14   2
  -2  -2  -3   77.29    5.49   1
  -3  -2  -3  180.41    9.43   1
  -4  -2  -3  243.72   12.23   1
  -4  -2  -3  231.62   11.62   4
   5   2   3    0.98    1.77   1
   6   2   3   11.99    5.13   1
   7   2   3  285.82   16.63   1
   8   2   3  164.47   13.35   1
   9   2   3    7.19    7.23   1
  10   2   3   16.95    8.87   1
  11   2   3    7.51    7.70   1
  12   2   3   23.90    9.11   1
 -12  -2  -3   27.20    8.73   3
  13   2   3   14.49    9.02   1
 -13  -2  -3    8.22    5.60   3
 -14  -2  -3   31.67   10.55   3
  15  -3  -3   12.03   10.55   1
  14  -3  -3   30.50   12.64   1
  13  -3  -3   11.34   10.15   1
  12  -3  -3   24.41   11.14   1
  11  -3  -3   -1.74    8.62   1
 -10   3   3   -0.20    5.12   3
  10  -3  -3    7.66    8.43   1
  -9   3   3   68.62   11.62   3
   9  -3  -3   58.10   13.57   1
   8  -3  -3  327.76   23.14   1
  -8   3   3  301.26   19.30   3
  -7   3   3  103.85   11.36   3
   7  -3  -3  107.81   14.97   1
  -6   3   3  498.81   23.31   3
   6  -3  -3  534.64   27.70   1
   5  -3  -3  114.76   13.05   1
  -5   3   3  126.52   10.38   3
   4  -3  -3   34.27    3.98   2
  -4   3   3   46.14    6.66   3
   4  -3  -3   29.19    7.40   1
   3  -3  -3   60.41    5.04   2
   3  -3  -3   44.56    8.08   1
  -3   3   3   58.09    6.52   3
   2  -3  -3   59.16    5.26   2
  -2   3   3   65.56    6.40   3
   2  -3  -3   63.69    7.97   1
  -1   3   3 2263.56   64.59   3
   1  -3  -3 2411.05   65.91   2
   1  -3  -3 2218.76   65.99   1
  -1  -3  -3 3823.12  105.94   1
  -1  -3  -3 4072.54  112.28   2
  -2  -3  -3  734.10   24.41   1
  -3  -3  -3   14.44    4.12   1
  -4  -3  -3   75.72    7.60   1
  -5  -3  -3  208.27   12.56   1
  -5  -3  -3  227.30   12.60   4
  -6  -3  -3  195.71   12.53   4
  -6  -3  -3  180.39   12.62   1
   8   3   3  138.23   13.07   1
   9   3   3  736.32   32.35   1
  10   3   3   -3.84    6.84   1
  11   3   3  141.38   16.62   1
  12   3   3   59.68   12.31   1
  13   3   3   39.88   11.73   1
 -14  -3  -3   15.43    6.82   3
  15  -4  -3    6.85   12.36   1
  14  -4  -3   10.61   12.16   1
  13  -4  -3  209.47   25.79   1
  12  -4  -3  129.63   20.62   1
  11  -4  -3   15.00   10.71   1
 -10   4   3   47.68   10.34   3
  10  -4  -3   58.87   14.44   1
  -9   4   3   81.77   12.22   3
   9  -4  -3   79.26   15.49   1
  -8   4   3  121.95   13.94   3
   8  -4  -3  144.84   18.51   1
   7  -4  -3    0.37    7.97   1
  -7   4   3    6.04    5.95   3
  -6   4   3   94.20   11.06   3
   6  -4  -3  119.13   14.79   1
  -5   4   3   62.24    8.73   3
   5  -4  -3   48.82   10.08   1
  -4   4   3  241.18   13.91   3
   4  -4  -3  190.54   14.78   1
   3  -4  -3  141.60   12.95   1
  -3   4   3  138.80   10.10   3
   3  -4  -3  126.15    6.33   2
   2  -4  -3  856.48   32.08   1
   2  -4  -3  876.72   26.76   2
  -2   4   3  845.59   29.57   3
   1  -4  -3  327.17   16.36   1
   1  -4  -3  320.74   13.83   2
   0  -4  -3  946.42   31.90   2
  -1  -4  -3 1407.89   43.67   1
  -2  -4  -3   33.65    5.13   1
  -3  -4  -3  292.73   14.62   1
  -4  -4  -3    6.66    3.70   1
  -5  -4  -3  149.81   11.32   1
  -6  -4  -3  149.14   11.58   1
  -6  -4  -3  142.48   11.13   4
  -7  -4  -3  108.41   11.10   4
  -7  -4  -3  117.64   11.81   1
  -8  -4  -3   27.61    7.32   4
  -8  -4  -3   28.99    7.17   1
  -9  -4  -3   -0.36    3.80   1
  -9  -4  -3   -1.40    4.05   4
 -10  -4  -3    2.98    5.31   1
 -10  -4  -3   -2.91    4.88   4
 -11  -4  -3  176.77   18.50   1
 -11  -4  -3  156.59   16.79   4
  14  -5  -3    5.21   10.23   1
  13  -5  -3   -1.17    9.22   1
  12  -5  -3   28.48   12.69   1
 -11   5   3    1.31    5.27   3
  11  -5  -3    3.08   10.04   1
 -10   5   3   13.09    7.36   3
  10  -5  -3   28.21   11.46   1
   9  -5  -3   21.54   11.37   1
  -9   5   3   29.56    8.43   3
  -8   5   3  650.50   30.80   3
   8  -5  -3  570.18   33.96   1
   7  -5  -3  214.40   21.03   1
  -7   5   3  206.01   16.38   3
   6  -5  -3  484.81   28.50   1
  -6   5   3  473.89   24.30   3
   5  -5  -3   60.88   11.66   1
  -5   5   3   32.17    7.83   3
   4  -5  -3   17.93    7.20   1
  -4   5   3   20.84    6.43   3
  -3   5   3  150.84   11.44   3
   3  -5  -3  152.24   12.89   1
   2  -5  -3   46.33    8.44   1
   2  -5  -3   62.73    5.41   2
  -2   5   3   40.62    6.90   3
   1  -5  -3  330.60   17.70   1
   1  -5  -3  373.15   15.68   2
   0  -5  -3   15.67    5.10   1
   0  -5  -3   10.75    4.25   2
  -1  -5  -3  754.88   28.22   1
  -2  -5  -3    3.74    3.58   1
  -3  -5  -3   17.81    5.05   1
  -4  -5  -3  195.48   12.95   1
  -5  -5  -3    2.14    3.73   1
  -6  -5  -3   -4.40    2.64   1
  -7  -5  -3  605.51   28.07   1
  -8  -5  -3  149.32   14.35   1
  -8  -5  -3  172.87   13.85   4
  -9  -5  -3  357.47   21.56   4
  -9  -5  -3  386.08   22.90   1
 -10  -5  -3   24.46    8.00   1
 -10  -5  -3   27.59    8.19   4
 -11  -5  -3    8.44    6.19   1
 -11  -5  -3    4.18    5.02   4
 -12  -5  -3  122.93   17.27   1
 -12  -5  -3  119.16   15.87   4
 -13  -5  -3    1.32    7.03   1
 -13  -5  -3   17.16    6.62   4
  14  -6  -3   92.62   21.09   1
  13  -6  -3   13.90   11.23   1
  12  -6  -3   36.78   13.24   1
  11  -6  -3   -0.98    9.46   1
 -11   6   3   -0.40    6.39   3
 -10   6   3    6.88    6.89   3
  10  -6  -3   23.33   11.82   1
  -9   6   3   39.18   10.03   3
   9  -6  -3   95.02   17.72   1
   8  -6  -3    7.66    9.75   1
  -8   6   3    1.09    5.68   3
  -7   6   3    7.28    6.05   3
   7  -6  -3   10.90    9.81   1
  -6   6   3   13.12    6.85   3
   6  -6  -3    5.28    7.64   1
   5  -6  -3  110.67   15.12   1
  -5   6   3   70.00   10.79   3
  -4   6   3    6.36    5.30   3
   4  -6  -3    3.84    6.48   1
  -3   6   3   -5.40    3.56   3
   3  -6  -3    7.48    5.92   1
   3  -6  -3   -1.28    2.53   2
   2  -6  -3  158.19    8.97   2
   2  -6  -3  128.42   12.90   1
  -2   6   3  160.63   12.14   3
   1  -6  -3   83.32   10.25   1
   1  -6  -3   68.32    7.32   2
   0  -6  -3  714.06   27.56   2
   0  -6  -3  707.74   28.91   1
  -1  -6  -3 1197.41   41.45   1
  -2  -6  -3   92.10    9.65   1
  -3  -6  -3  166.22   12.24   1
  -4  -6  -3   68.36    9.15   1
  -5  -6  -3  160.92   12.89   1
  -6  -6  -3   68.12   10.36   1
  -7  -6  -3    5.60    4.79   1
  -8  -6  -3  175.49   15.18   1
  -9  -6  -3   18.71    6.76   1
 -10  -6  -3   37.53    9.49   1
 -11  -6  -3   32.25    8.82   4
 -11  -6  -3   18.24    8.39   1
 -12  -6  -3    1.19    5.75   1
 -12  -6  -3    5.57    5.23   4
 -13  -6  -3  223.57   23.20   1
 -13  -6  -3  205.51   21.33   4
  13  -7  -3    1.33   11.39   1
  12  -7  -3    9.45   11.89   1
  11  -7  -3   16.16   11.44   1
 -11   7   3   10.66    7.65   3
 -10   7   3   -8.59    5.76   3
  10  -7  -3   -0.88    9.36   1
  -9   7   3    3.66    6.46   3
   9  -7  -3    3.22    9.36   1
   8  -7  -3   29.82   11.10   1
  -8   7   3   31.24    9.24   3
  -7   7   3   17.15    7.59   3
   7  -7  -3   41.18   12.27   1
  -6   7   3  421.98   24.24   3
   6  -7  -3  379.80   26.37   1
  -5   7   3  215.55   16.37   3
   5  -7  -3  185.67   19.14   1
  -4   7   3  349.14   20.47   3
   4  -7  -3  342.17   22.56   1
  -3   7   3  130.69   13.20   3
   3  -7  -3  102.61   13.72   1
   2  -7  -3   92.55    7.17   2
  -2   7   3   53.32    9.41   3
   2  -7  -3   67.42   10.85   1
   1  -7  -3   -0.55    3.24   2
   1  -7  -3    6.88    4.73   1
   0  -7  -3    2.95    3.61   2
   0  -7  -3    6.21    4.36   1
  -1  -7  -3   14.59    5.45   1
  -2  -7  -3    5.92    4.36   1
  -3  -7  -3   50.51    8.36   1
  -4  -7  -3    1.81    3.79   1
  -5  -7  -3  137.33   13.53   1
  -6  -7  -3  107.86   12.77   1
  -7  -7  -3  395.47   23.33   1
  -8  -7  -3   92.03   13.13   1
  -9  -7  -3  260.21   19.91   1
 -10  -7  -3  298.30   22.32   1
 -11  -7  -3   97.89   15.52   1
 -12  -7  -3  140.66   18.58   1
 -13  -7  -3   12.51    8.28   1
 -14  -7  -3   -2.16    6.69   1
  12  -8  -3  100.83   20.44   1
  11  -8  -3    2.97    9.38   1
 -11   8   3    7.88    7.38   3
 -10   8   3    0.39    6.09   3
  10  -8  -3   12.55   10.72   1
   9  -8  -3   -4.16    9.64   1
  -9   8   3   10.67    7.74   3
  -8   8   3    3.49    6.62   3
   8  -8  -3   -0.17    8.31   1
  -7   8   3   -0.62    5.24   3
   7  -8  -3   -0.56    6.77   1
   6  -8  -3  125.24   18.35   1
  -6   8   3   87.16   13.06   3
  -5   8   3   32.01    9.08   3
   5  -8  -3   26.73   10.62   1
   4  -8  -3  532.67   29.79   1
  -4   8   3  479.20   26.15   3
  -3   8   3   -1.82    5.66   3
   3  -8  -3   -2.47    5.93   1
   2  -8  -3   37.66    9.06   1
   1  -8  -3  211.44   13.12   2
   1  -8  -3  201.28   16.00   1
   0  -8  -3   23.67    6.95   1
   0  -8  -3   11.93    5.17   2
  -1  -8  -3   71.77   10.30   1
  -2  -8  -3   80.35   11.03   1
  -3  -8  -3   15.96    6.06   1
  -4  -8  -3   85.80   11.44   1
  -5  -8  -3  109.27   13.23   1
  -6  -8  -3    5.68    5.09   1
  -7  -8  -3   26.80    7.68   1
  -8  -8  -3    5.19    5.41   1
  -9  -8  -3   21.97    8.24   1
 -10  -8  -3  289.89   22.20   1
 -11  -8  -3   63.06   13.15   1
 -12  -8  -3  112.07   17.47   1
 -13  -8  -3   45.78   12.27   1
 -14  -8  -3   83.94   17.15   1
 -17  -8  -3   35.45   44.40   2
 -11   9   3    5.92    7.46   3
  11  -9  -3   11.32    8.84   1
 -10   9   3   87.24   15.38   3
  10  -9  -3   71.77   17.67   1
  -9   9   3   23.64    9.83   3
   9  -9  -3   21.69   13.31   1
   8  -9  -3   38.50   13.22   1
  -8   9   3   10.89    8.05   3
  -7   9   3    3.68    6.17   3
   7  -9  -3   33.84   11.94   1
   6  -9  -3  162.26   21.07   1
  -6   9   3  183.62   18.57   3
   5  -9  -3  339.18   25.93   1
  -5   9   3  373.79   24.15   3
   4  -9  -3   -0.14    7.32   1
  -4   9   3    5.37    7.25   3
  -3   9   3  290.79   20.39   3
   3  -9  -3  284.64   22.01   1
   2  -9  -3    8.72    6.44   1
   1  -9  -3   36.54    9.48   1
   0  -9  -3  134.34   14.84   1
   0  -9  -3  101.74   10.96   2
  -1  -9  -3   85.19   11.68   1
  -2  -9  -3  168.73   16.04   1
  -3  -9  -3   15.14    5.91   1
  -4  -9  -3   53.64   10.06   1
  -5  -9  -3  132.64   14.81   1
  -6  -9  -3  272.50   20.34   1
  -7  -9  -3  100.71   14.67   1
  -8  -9  -3  218.10   18.88   1
  -9  -9  -3  125.80   16.85   1
 -10  -9  -3  121.58   17.31   1
 -11  -9  -3    5.88    7.56   1
 -12  -9  -3    5.07    7.77   1
 -13  -9  -3    7.18    7.59   1
 -14  -9  -3   -1.03    6.88   1
 -11  10   3    4.71    9.38   3
  11 -10  -3   34.87   17.11   1
 -10  10   3   31.52   10.85   3
  10 -10  -3   45.63   14.44   1
   9 -10  -3  -19.46    6.99   1
  -9  10   3   -6.24    7.09   3
   8 -10  -3   13.21   10.07   1
  -8  10   3   -0.52    6.54   3
  -7  10   3   33.05   10.41   3
   7 -10  -3   79.98   17.26   1
   6 -10  -3   74.25   15.98   1
  -6  10   3   57.59   12.88   3
  -5  10   3    5.88    7.55   3
   5 -10  -3    3.86    7.47   1
   4 -10  -3  197.35   21.20   1
  -4  10   3  179.07   18.79   3
   3 -10  -3   14.09    8.67   1
   2 -10  -3   54.11   11.75   1
   1 -10  -3  119.61   15.76   1
   0 -10  -3   23.11    7.95   1
  -1 -10  -3   21.12    7.18   1
  -2 -10  -3  204.10   17.10   1
  -3 -10  -3    9.29    5.63   1
  -4 -10  -3  121.88   14.99   1
  -5 -10  -3  120.43   14.99   1
  -6 -10  -3    4.54    5.16   1
  -7 -10  -3   27.44    8.88   1
  -8 -10  -3   15.82    7.98   1
  -9 -10  -3   40.34   10.46   1
 -10 -10  -3   13.91    7.67   1
 -11 -10  -3  283.25   26.07   1
 -12 -10  -3   64.64   14.51   1
 -13 -10  -3    4.27    7.92   1
 -14 -10  -3   54.16   14.54   1
  10 -11  -3   51.30   18.09   1
 -10  11   3   59.44   15.35   3
  -9  11   3   69.99   14.71   3
   9 -11  -3    6.67    6.88   1
   8 -11  -3    5.10   10.88   1
  -8  11   3    3.46    7.77   3
  -7  11   3   76.72   14.97   3
   7 -11  -3   82.06   17.35   1
   6 -11  -3   30.77   12.59   1
  -6  11   3   40.60   11.72   3
   5 -11  -3  187.26   22.93   1
  -5  11   3  181.59   20.37   3
   4 -11  -3   28.21   10.56   1
   3 -11  -3   98.73   16.43   1
   2 -11  -3    0.78    6.52   1
   1 -11  -3   21.24    8.87   1
   0 -11  -3   43.49   10.74   1
  -1 -11  -3    9.41    6.28   1
  -1 -11  -3    3.50    5.01   2
  -2 -11  -3   11.81    6.33   1
  -3 -11  -3   82.63   13.52   1
  -4 -11  -3    1.82    4.28   1
  -5 -11  -3   23.31    8.02   1
  -6 -11  -3   23.42    8.79   1
  -7 -11  -3   11.83    7.66   1
  -8 -11  -3  193.52   21.16   1
  -9 -11  -3   -0.23    6.12   1
 -10 -11  -3   36.88   11.41   1
 -11 -11  -3    9.02    7.88   1
 -12 -11  -3    7.57    8.15   1
 -13 -11  -3    3.24    7.71   1
 -14 -11  -3   10.11    8.30   1
  -9  12   3   33.25   12.78   3
  -8  12   3    1.26    8.55   3
   8 -12  -3    0.89    5.06   1
  -7  12   3    6.04    8.23   3
   7 -12  -3    4.27    9.82   1
   6 -12  -3   60.07   14.45   1
   5 -12  -3   58.87   15.26   1
   4 -12  -3   34.54   11.63   1
   3 -12  -3  270.82   23.41   1
   2 -12  -3    0.62    7.01   1
   1 -12  -3  257.08   22.19   1
   0 -12  -3   34.87   10.45   1
  -1 -12  -3    6.98    7.30   1
  -2 -12  -3   77.64   13.80   1
  -3 -12  -3   48.59   11.09   1
  -4 -12  -3  186.87   20.19   1
  -5 -12  -3  121.65   17.22   1
  -6 -12  -3   11.47    8.20   1
  -7 -12  -3   56.46   12.42   1
  -8 -12  -3   56.80   12.76   1
  -9 -12  -3    6.11    6.80   1
 -10 -12  -3   38.92   11.36   1
 -11 -12  -3    0.08    7.07   1
 -12 -12  -3   94.76   17.55   1
 -13 -12  -3   27.41   11.21   1
 -14 -12  -3   62.14   16.22   1
   7 -13  -3    0.03    5.45   1
   6 -13  -3    0.47    7.53   1
   5 -13  -3    8.33    9.70   1
   4 -13  -3   -6.59    6.80   1
   3 -13  -3    5.66    8.16   1
   2 -13  -3    1.53    7.43   1
   1 -13  -3    4.98    6.14   1
   0 -13  -3    5.40    7.25   1
  -1 -13  -3   85.53   15.61   1
  -2 -13  -3    6.44    6.23   1
  -3 -13  -3   27.87    9.16   1
  -4 -13  -3  138.34   19.35   1
  -5 -13  -3   17.22    8.71   1
  -6 -13  -3  271.79   25.74   1
  -7 -13  -3    8.99    6.70   1
  -8 -13  -3   88.91   16.37   1
  -9 -13  -3   15.39    8.07   1
 -10 -13  -3   21.15    9.97   1
 -11 -13  -3   -4.96    6.52   1
 -12 -13  -3   -0.27    7.59   1
 -13 -13  -3   65.06   15.76   1
 -14 -13  -3   29.59   11.27   1
   6 -14  -3    1.83    6.26   1
   5 -14  -3  -10.13    4.84   1
   4 -14  -3   -2.29    6.84   1
   3 -14  -3   45.84   13.86   1
   2 -14  -3   18.01    9.44   1
   1 -14  -3   14.06    7.55   1
   0 -14  -3   64.39   14.78   1
  -1 -14  -3    8.99    8.47   1
  -2 -14  -3   94.55   16.72   1
  -3 -14  -3    5.24    7.01   1
  -4 -14  -3   -3.76    7.07   1
  -5 -14  -3   11.13    8.47   1
  -6 -14  -3   -2.61    5.83   1
  -7 -14  -3   15.70    8.37   1
  -8 -14  -3   18.86    9.76   1
  -9 -14  -3    5.75    7.20   1
 -10 -14  -3   89.13   17.37   1
 -11 -14  -3   61.03   14.71   1
 -12 -14  -3   14.44    9.19   1
 -13 -14  -3   12.65    9.60   1
 -14 -14  -3   -9.56    8.84   1
   4 -15  -3    2.75    4.98   1
   3 -15  -3   -6.70    5.08   1
   2 -15  -3    0.22    5.88   1
   1 -15  -3   21.01    9.97   1
   0 -15  -3    9.37    8.78   1
  -1 -15  -3   23.91   10.72   1
  -2 -15  -3   76.62   15.50   1
  -3 -15  -3   -0.96    6.31   1
  -4 -15  -3   84.20   16.05   1
  -5 -15  -3    2.30    7.39   1
  -6 -15  -3  106.77   18.92   1
  -7 -15  -3   48.69   13.03   1
  -8 -15  -3   20.24    9.75   1
  -9 -15  -3   -3.11    6.71   1
 -10 -15  -3    5.87    7.59   1
 -11 -15  -3   11.01    9.57   1
 -12 -15  -3    6.39    9.03   1
 -13 -15  -3   25.27   11.84   1
   2 -16  -3   -4.57    5.96   1
   1 -16  -3    0.05    4.66   1
   0 -16  -3   12.64    9.95   1
  -1 -16  -3    0.01    7.33   1
  -2 -16  -3    4.92    8.47   1
  -3 -16  -3    1.22    7.82   1
  -4 -16  -3    8.26    8.28   1
  -5 -16  -3   13.68    8.46   1
  -6 -16  -3    2.38    8.68   1
  -7 -16  -3   12.29    9.00   1
  -8 -16  -3   32.94   11.17   1
  -9 -16  -3    6.81    9.43   1
 -10 -16  -3   50.90   13.42   1
 -11 -16  -3   33.49   13.06   1
  -2 -17  -3   14.08   11.18   1
  -3 -17  -3   11.11   10.64   1
  -4 -17  -3   10.74    9.99   1
  -5 -17  -3   95.60   19.57   1
  -6 -17  -3   15.44   10.31   1
  -7 -17  -3   28.23   11.67   1
  -8 -17  -3   -7.40    9.25   1
  -6 -17   4   -4.61    9.42   1
  -5 -17   4   -2.17    5.49   1
  -4 -17   4   -0.41    5.76   1
  -3 -17   4   -4.24    5.12   1
  -2 -17   4    3.53    5.98   1
  -1 -17   4   -5.38    6.38   1
  -9 -16   4   26.31   14.37   1
  -8 -16   4   18.21   11.18   1
  -7 -16   4  -13.57    6.57   1
  -6 -16   4   93.34   18.92   1
  -5 -16   4    6.76    6.81   1
  -4 -16   4   -6.26    5.88   1
  -3 -16   4    2.32    6.33   1
  -2 -16   4    5.82    6.25   1
  -1 -16   4   -3.60    5.75   1
   0 -16   4  -10.89    4.33   1
   1 -16   4  -10.54    4.07   1
   2 -16   4   -4.70    5.46   1
   3 -16   4    2.02   10.00   1
 -11 -15   4   32.76   13.55   1
 -10 -15   4   51.68   16.01   1
  -9 -15   4   22.31   11.77   1
  -8 -15   4    4.05    8.86   1
  -7 -15   4   22.93   11.56   1
  -6 -15   4   15.92    9.72   1
  -5 -15   4    7.50    7.01   1
  -4 -15   4   18.54    8.86   1
  -3 -15   4   44.44   12.49   1
  -2 -15   4   24.21    9.11   1
  -1 -15   4   10.81    7.88   1
   0 -15   4   11.02    9.74   1
   1 -15   4   40.68   11.96   1
   2 -15   4    9.84    8.52   1
   3 -15   4   49.55   13.30   1
   4 -15   4   56.29   14.18   1
   5 -15   4   34.39   13.14   1
 -12 -14   4   32.47   12.60   1
 -11 -14   4   19.42   11.14   1
 -10 -14   4   37.76   13.57   1
  -9 -14   4   48.78   15.19   1
  -8 -14   4   71.39   16.32   1
  -7 -14   4   30.58   11.32   1
  -6 -14   4   41.90   12.40   1
  -5 -14   4   23.12    9.09   1
  -4 -14   4   23.21    9.43   1
  -3 -14   4  199.20   23.75   1
  -2 -14   4   96.86   16.99   1
  -1 -14   4   13.71    7.57   1
   0 -14   4   44.40   11.87   1
   1 -14   4   -5.82    5.47   1
   2 -14   4   25.66   10.72   1
   3 -14   4   15.42    8.40   1
  -4  14  -4    1.97    7.61   3
   4 -14   4    1.82    8.56   1
   5 -14   4   14.21   10.37   1
  -5  14  -4   23.60   11.51   3
   6 -14   4   16.97   10.15   1
  -6  14  -4   13.39   11.36   3
   7 -14   4   91.99   20.33   1
 -13 -13   4    2.89    8.96   1
 -12 -13   4   47.02   14.92   1
 -11 -13   4   71.36   17.90   1
 -10 -13   4   -0.67    6.94   1
  -9 -13   4  103.03   19.51   1
  -8 -13   4   57.45   15.50   1
  -7 -13   4   15.00    8.80   1
  -6 -13   4   22.83   10.13   1
  -5 -13   4   -3.92    5.38   1
  -4 -13   4   -0.32    4.62   1
  -3 -13   4   25.52    8.97   1
  -2 -13   4   16.13    8.05   1
  -1 -13   4   -1.59    5.08   1
   0 -13   4   64.52   13.13   1
   1 -13   4   96.90   16.57   1
   2 -13   4   27.29    9.58   1
   3 -13   4   46.11   13.03   1
  -3  13  -4   47.01   11.90   3
   4 -13   4   80.86   15.38   1
  -4  13  -4  102.20   17.47   3
  -5  13  -4   34.91   11.58   3
   5 -13   4   31.74   11.91   1
  -6  13  -4   28.91   11.20   3
   6 -13   4   29.83   11.74   1
   7 -13   4  169.96   25.02   1
  -7  13  -4  183.39   24.18   3
   8 -13   4   -2.61    8.62   1
 -14 -12   4   33.06   14.66   1
 -13 -12   4   49.70   15.87   1
 -12 -12   4   15.58   10.13   1
 -11 -12   4    0.61    8.02   1
 -10 -12   4  175.98   25.00   1
  -9 -12   4   93.43   18.07   1
  -8 -12   4    7.76    8.39   1
  -7 -12   4   78.24   16.11   1
  -6 -12   4   13.69    8.47   1
  -5 -12   4  274.24   23.71   1
  -4 -12   4  125.28   17.73   1
  -3 -12   4   78.47   14.63   1
  -2 -12   4   34.11    8.74   1
  -1 -12   4    0.02    5.41   1
   0 -12   4   88.81   14.85   1
   1 -12   4   -5.40    4.33   1
  -2  12  -4   16.86    8.30   3
   2 -12   4   13.14    7.33   1
  -3  12  -4    7.99    6.82   3
   3 -12   4    1.27    5.26   1
  -4  12  -4    6.19    7.42   3
   4 -12   4   -8.28    6.65   1
   5 -12   4   41.53   12.59   1
  -5  12  -4   52.97   12.85   3
  -6  12  -4   -3.50    7.10   3
   6 -12   4   11.21    8.39   1
   7 -12   4   -5.05    7.75   1
  -7  12  -4   12.73    8.69   3
   8 -12   4   24.61   11.86   1
  -8  12  -4    7.74    9.60   3
  -9  12  -4    9.10    9.43   3
   9 -12   4   32.06   11.49   1
 -15 -11   4   16.98   11.07   1
 -14 -11   4   13.76   10.55   1
 -13 -11   4   57.58   15.62   1
 -12 -11   4    4.37    7.15   1
 -11 -11   4  125.89   21.50   1
 -10 -11   4    9.55    9.13   1
  -9 -11   4  137.44   21.38   1
  -8 -11   4   55.95   13.66   1
  -7 -11   4    4.58    6.90   1
  -6 -11   4    6.24    6.45   1
  -5 -11   4   11.01    6.88   1
  -4 -11   4    2.90    4.67   1
  -3 -11   4  161.88   18.33   1
  -2 -11   4    9.50    6.38   1
  -1 -11   4  185.28   19.17   1
   0 -11   4   25.69    8.16   1
   1 -11   4   79.73   13.46   1
  -1  11  -4   81.51   13.68   3
   2 -11   4   87.51   14.06   1
  -2  11  -4   77.00   13.38   3
   3 -11   4    0.54    5.36   1
  -3  11  -4    2.42    6.54   3
   4 -11   4   35.34   10.61   1
  -4  11  -4   47.97   11.81   3
   5 -11   4    0.00    6.39   1
  -5  11  -4    6.60    7.11   3
   6 -11   4   22.67   10.36   1
  -6  11  -4   43.46   12.56   3
   7 -11   4   22.85   10.88   1
  -7  11  -4   27.76   11.08   3
   8 -11   4   -3.30    6.67   1
  -8  11  -4   14.07    9.15   3
  -9  11  -4   16.03    9.46   3
   9 -11   4   24.96   11.69   1
 -10  11  -4   -1.27    8.91   3
  10 -11   4   22.48   12.75   1
 -15 -10   4   11.78   12.05   1
 -14 -10   4   40.08   14.49   1
 -13 -10   4   19.81    9.01   1
 -12 -10   4    4.75    8.68   1
 -11 -10   4   13.74    9.16   1
 -10 -10   4   60.38   14.45   1
  -9 -10   4   61.12   14.88   1
  -8 -10   4   35.68   11.21   1
  -7 -10   4  142.14   19.67   1
  -6 -10   4  118.15   17.79   1
  -5 -10   4  216.31   21.80   1
  -4 -10   4  167.33   18.71   1
  -3 -10   4    0.69    4.66   1
  -2 -10   4   64.11   11.38   1
  -1 -10   4    5.50    4.60   1
   0  10  -4  111.33   14.27   3
   0 -10   4   76.92   12.60   1
  -1  10  -4    4.68    6.95   3
   1 -10   4    3.93    5.35   1
   2 -10   4   11.75    6.32   1
  -2  10  -4   10.99    7.45   3
  -3  10  -4   26.56    9.32   3
   3 -10   4   37.09    9.58   1
  -4  10  -4    0.36    5.81   3
   4 -10   4    0.72    5.78   1
   5 -10   4   55.92   12.19   1
  -5  10  -4   62.55   13.08   3
   6 -10   4  208.11   21.15   1
  -6  10  -4  238.01   23.02   3
  -7  10  -4   63.81   14.14   3
   7 -10   4   47.78   13.00   1
  -8  10  -4  109.48   18.10   3
   8 -10   4  137.43   19.86   1
   9 -10   4   21.20   11.80   1
  -9  10  -4   25.30   10.99   3
 -10  10  -4   -3.22    7.46   3
  10 -10   4    7.14    9.48   1
 -11  10  -4   52.35   14.36   3
 -16  -9   4   21.37   11.68   1
 -15  -9   4   25.29   12.71   1
 -14  -9   4   -3.60    8.11   1
 -13  -9   4   34.45   12.51   1
 -12  -9   4   40.36   12.36   1
 -11  -9   4   13.61    8.79   1
 -10  -9   4   19.08    8.96   1
  -9  -9   4   12.06    8.04   1
  -8  -9   4   83.93   14.72   1
  -7  -9   4   70.22   13.98   1
  -6  -9   4   -0.51    4.68   1
  -5  -9   4   -9.71    2.86   1
  -4  -9   4   78.82   13.09   1
  -3  -9   4  217.24   17.69   1
  -2  -9   4   51.85   10.19   1
  -1  -9   4   79.56   12.23   1
   0   9  -4  142.92   14.63   3
   0  -9   4   84.27   12.48   1
  -1   9  -4   -6.46    4.59   3
   1  -9   4    2.92    4.14   1
  -2   9  -4  421.81   24.40   3
   2  -9   4  437.90   25.19   1
   3  -9   4  101.67   13.91   1
  -3   9  -4   97.69   13.97   3
  -4   9  -4  171.61   17.85   3
   4  -9   4  178.25   18.23   1
   5  -9   4    5.42    6.97   1
  -5   9  -4   20.23    8.87   3
  -6   9  -4   11.33    7.19   3
   6  -9   4   15.53    8.15   1
   7  -9   4   18.50    9.28   1
  -7   9  -4   16.37    9.25   3
   8  -9   4   33.17   11.02   1
  -8   9  -4   41.00   12.11   3
  -9   9  -4   27.37   10.79   3
   9  -9   4   39.67   12.45   1
  10  -9   4   87.79   17.46   1
 -10   9  -4   58.63   14.60   3
 -11   9  -4    3.54    8.18   3
 -12   9  -4    4.55    7.85   3
 -16  -8   4    4.70   11.55   1
 -16  -8   4    4.73    8.70   4
 -15  -8   4   -5.16    8.59   1
 -15  -8   4   10.41    8.66   4
 -14  -8   4   37.46   11.64   4
 -14  -8   4   11.53    8.95   1
 -13  -8   4   -4.47    6.76   1
 -13  -8   4   -4.96    4.85   4
 -12  -8   4   -2.34    4.93   4
 -12  -8   4    4.75    7.11   1
 -11  -8   4   81.56   16.40   1
 -10  -8   4    3.36    6.29   1
  -9  -8   4  305.95   24.66   1
  -8  -8   4   23.63    8.82   1
  -7  -8   4   -0.92    5.46   1
  -6  -8   4  403.26   26.16   1
  -5  -8   4   20.56    7.71   1
  -4  -8   4  157.30   16.52   1
  -3  -8   4    9.10    5.43   1
  -2  -8   4   77.77   11.50   1
  -1  -8   4   23.89    6.80   1
   0  -8   4   71.91   10.70   1
   0   8  -4   63.38    9.79   3
  -1   8  -4  204.51   15.44   3
   1  -8   4  204.15   15.48   1
   2  -8   4   30.19    7.67   1
  -2   8  -4   23.41    7.79   3
  -3   8  -4   27.10    7.70   3
   3  -8   4   34.66    8.81   1
   4  -8   4  365.97   23.05   1
  -4   8  -4  335.47   22.55   3
  -5   8  -4   45.00   10.56   3
   5  -8   4   47.44   11.07   1
   6  -8   4  104.89   14.78   1
  -6   8  -4  116.17   15.96   3
  -7   8  -4   56.74   12.22   3
   7  -8   4   77.18   14.47   1
  -8   8  -4   10.16    8.06   3
   8  -8   4   25.91    9.98   1
   9  -8   4  208.36   22.65   1
  -9   8  -4  250.86   24.63   3
 -10   8  -4   36.53   11.48   3
  10  -8   4   31.74   11.96   1
  11  -8   4   66.72   15.57   1
 -11   8  -4   50.14   13.84   3
 -12   8  -4   -0.66    6.85   3
 -13   8  -4   -1.03    8.65   3
 -16  -7   4   11.80   10.84   4
 -16  -7   4   14.51   11.65   1
 -15  -7   4   68.44   17.89   1
 -15  -7   4   98.22   18.34   4
 -14  -7   4   11.85    9.38   1
 -14  -7   4   18.26    8.26   4
 -13  -7   4    7.28    7.23   4
 -13  -7   4   13.08    9.25   1
 -12  -7   4  218.90   24.64   1
 -12  -7   4  198.21   22.84   4
 -11  -7   4   -0.52    5.94   1
 -11  -7   4    4.55    5.97   4
 -10  -7   4  202.28   21.10   4
 -10  -7   4  201.85   22.20   1
  -9  -7   4    1.89    4.95   4
  -9  -7   4    7.02    6.80   1
  -8  -7   4    7.42    6.31   1
  -7  -7   4   54.71   11.62   1
  -6  -7   4   49.93   10.44   1
  -5  -7   4  153.37   16.10   1
  -4  -7   4   56.01   10.23   1
  -3  -7   4  180.83   14.75   1
  -2  -7   4 1307.76   48.15   1
  -1  -7   4  155.56   12.67   1
   1   7  -4  137.63   11.40   3
   0  -7   4  674.09   29.43   1
   0   7  -4  684.44   28.00   3
   1  -7   4   23.46    6.60   1
  -1   7  -4   29.64    7.18   3
   2  -7   4  245.41   16.10   1
  -2   7  -4  210.67   15.11   3
  -3   7  -4  947.00   38.78   3
   3  -7   4  946.55   37.85   1
   4  -7   4   10.45    6.32   1
  -4   7  -4    6.62    5.79   3
  -5   7  -4   65.38   11.97   3
   5  -7   4   58.26   11.10   1
  -6   7  -4    7.45    6.17   3
   6  -7   4    1.15    6.77   1
  -7   7  -4    5.40    6.87   3
   7  -7   4    4.53    7.34   1
  -8   7  -4   74.47   14.00   3
   8  -7   4   94.53   15.08   1
  -9   7  -4    9.95    7.43   3
   9  -7   4   12.03    8.80   1
  10  -7   4    0.18    8.09   1
 -10   7  -4   -1.31    6.07   3
  11  -7   4   34.50   12.11   1
 -11   7  -4   27.36   10.56   3
 -12   7  -4   35.70   11.84   3
 -13   7  -4   96.08   18.25   3
 -16  -6   4    1.64    9.53   1
 -16  -6   4   19.67   10.06   4
 -15  -6   4   52.24   15.36   1
 -15  -6   4   41.02   12.24   4
 -14  -6   4    7.91    7.26   4
 -14  -6   4   -4.73    6.52   1
 -13  -6   4    3.65    7.39   1
 -13  -6   4    0.35    6.09   4
 -12  -6   4   24.54    9.15   4
 -12  -6   4    5.65    6.91   1
 -11  -6   4   12.16    8.14   1
 -11  -6   4   10.06    7.13   4
 -10  -6   4    3.27    6.81   1
 -10  -6   4   10.35    6.76   4
  -9  -6   4  140.26   17.14   4
  -9  -6   4  146.79   18.43   1
  -8  -6   4   86.35   13.46   4
  -8  -6   4   76.53   13.54   1
  -7  -6   4  116.82   14.74   4
  -7  -6   4  153.87   16.71   1
  -6  -6   4  117.04   14.01   4
  -6  -6   4  123.94   14.73   1
  -5  -6   4  213.18   16.78   1
  -4  -6   4    3.62    4.67   1
  -3  -6   4  223.07   15.91   1
  -2  -6   4  122.19   12.04   1
  -1  -6   4  139.34   11.67   1
   1   6  -4  133.12   10.12   3
   1   6  -4  132.25   11.53   2
   0  -6   4   16.40    5.18   1
   0   6  -4   21.62    6.57   2
   0   6  -4    9.25    4.56   3
   1  -6   4   21.78    5.73   1
  -1   6  -4   14.40    5.90   2
  -1   6  -4   26.76    6.22   3
  -2   6  -4   75.08    7.67   2
  -2   6  -4   67.69    9.63   3
   2  -6   4   66.07    8.96   1
  -3   6  -4   56.38    6.39   2
   3  -6   4   51.53    8.62   1
  -3   6  -4   56.51    9.61   3
   4  -6   4  166.67   13.43   1
  -4   6  -4  139.82   14.44   3
  -5   6  -4  347.63   21.80   3
   5  -6   4  305.93   19.21   1
  -6   6  -4  329.67   22.19   3
   6  -6   4  294.08   20.83   1
   7  -6   4  257.39   19.72   1
  -7   6  -4  234.57   19.67   3
  -8   6  -4    5.98    7.15   3
   8  -6   4   20.16    9.50   1
   9  -6   4  295.50   23.07   1
  -9   6  -4  282.28   23.70   3
  10  -6   4    9.77    8.73   1
 -10   6  -4    3.14    7.37   3
  11  -6   4   16.45   10.69   1
 -11   6  -4    7.62    7.91   3
 -12   6  -4    9.82    7.96   3
 -13   6  -4    4.30    7.54   3
 -14   6  -4    6.17    9.29   3
 -16  -5   4   29.59   13.29   1
 -16  -5   4    9.18    9.23   4
 -15  -5   4  181.36   26.24   1
 -15  -5   4  159.70   23.55   4
  -9  -5   4   -0.81    4.61   1
  -9  -5   4    4.55    4.44   4
  -8  -5   4   95.42   14.73   1
  -8  -5   4   87.94   13.18   4
  -7  -5   4    7.73    6.11   4
  -7  -5   4    4.71    5.40   1
  -6  -5   4   15.02    6.62   4
  -6  -5   4    8.75    5.98   1
  -5  -5   4  400.68   22.35   4
  -5  -5   4  431.71   23.68   1
  -4  -5   4  550.93   26.73   1
   3   5  -4  318.51   18.17   2
  -3  -5   4  343.67   19.29   1
  -2  -5   4  628.21   27.12   1
   2   5  -4  656.92   26.84   2
   1   5  -4    4.46    5.29   2
   1   5  -4    7.78    3.73   3
  -1  -5   4   -0.58    3.14   1
   0  -5   4   13.77    4.63   1
   0   5  -4   12.48    5.39   2
   0   5  -4   22.04    5.00   3
   1  -5   4  412.19   18.61   1
  -1   5  -4  376.97   18.33   3
  -1   5  -4  361.03   16.45   2
   2  -5   4   69.18    8.26   1
  -2   5  -4   77.59    9.17   3
  -2   5  -4   60.90    6.42   2
  -3   5  -4  802.10   25.96   2
  -3   5  -4  775.37   32.14   3
   3  -5   4  793.21   30.56   1
  -4   5  -4   67.65   10.63   3
  -4   5  -4   49.89    5.39   2
   4  -5   4   54.85    8.48   1
  -5   5  -4   -0.70    5.27   3
   5  -5   4    0.14    4.84   1
  -6   5  -4   -0.55    4.88   3
   6  -5   4    2.59    6.35   1
  -7   5  -4   63.57   12.16   3
   7  -5   4   33.83    9.68   1
  -8   5  -4   89.20   15.10   3
   8  -5   4   84.43   13.85   1
  -9   5  -4   33.52   10.48   3
   9  -5   4   39.51   10.80   1
 -10   5  -4   14.64    8.07   3
  10  -5   4   11.01    9.50   1
  11  -5   4  126.40   18.29   1
 -11   5  -4  111.24   19.02   3
 -12   5  -4   34.56   11.71   3
 -13   5  -4    8.31    9.12   3
 -14   5  -4   41.73   13.80   3
 -15   5  -4    2.25    9.71   3
  16   4  -4   10.74    9.45   1
  15   4  -4    4.49    9.07   1
  14   4  -4   16.90   11.14   1
  13   4  -4    1.70    9.35   1
  12   4  -4   11.30    9.35   1
  11   4  -4    4.77    8.24   1
  10   4  -4  259.65   21.51   1
   9   4  -4    3.52    8.51   1
   8   4  -4  766.91   35.99   1
   7   4  -4    9.71    7.50   1
  -5  -4   4  643.31   30.45   1
  -5  -4   4  690.84   29.72   4
   4   4  -4    3.14    5.19   2
  -4  -4   4   -0.03    4.18   1
  -4  -4   4   -1.90    4.05   4
  -3  -4   4    2.73    3.85   1
   3   4  -4    1.18    5.58   2
  -3  -4   4    3.60    3.89   4
  -2  -4   4  124.00   10.58   1
   2   4  -4  114.68   10.59   2
   1   4  -4  506.01   18.68   3
   1   4  -4  537.17   21.63   2
  -1  -4   4  511.72   21.66   1
   0   4  -4    6.16    5.11   2
   0   4  -4    7.94    3.72   3
   0  -4   4    0.45    3.09   1
  -1   4  -4    5.42    3.65   3
  -1   4  -4   -2.80    4.10   2
   1  -4   4    0.24    2.89   1
   2  -4   4    2.95    3.42   1
  -2   4  -4    7.80    4.29   2
  -2   4  -4    9.98    4.71   3
  -3   4  -4 1193.25   42.74   3
  -3   4  -4 1194.65   36.34   2
   3  -4   4 1215.33   39.78   1
   4  -4   4  490.14   22.05   1
  -4   4  -4  534.62   18.21   2
  -4   4  -4  474.88   24.39   3
  -5   4  -4  728.27   24.27   2
   5  -4   4  721.89   29.88   1
  -5   4  -4  725.53   32.60   3
  -6   4  -4  194.51   16.50   3
   6  -4   4  213.68   15.30   1
   7  -4   4   56.08   10.80   1
  -7   4  -4   37.09    9.51   3
  -8   4  -4  108.19   15.65   3
   8  -4   4  101.69   14.32   1
   9  -4   4    2.57    7.18   1
  -9   4  -4   11.90    7.08   3
 -10   4  -4  153.13   19.15   3
  10  -4   4  112.73   15.74   1
 -11   4  -4   71.50   14.62   3
  11  -4   4   77.36   14.76   1
 -12   4  -4   11.06    7.98   3
 -13   4  -4    4.25    7.71   3
 -14   4  -4   10.46    9.33   3
 -15   4  -4   -7.73    7.34   3
  16   3  -4   60.72   14.44   1
  15   3  -4   59.01   15.09   1
  14   3  -4   45.80   13.78   1
  13   3  -4   30.46   12.65   1
  12   3  -4  171.47   21.57   1
  11   3  -4  570.64   33.87   1
  10   3  -4   35.04   11.18   1
   9   3  -4   31.79   10.90   1
   8   3  -4  108.99   14.60   1
   7   3  -4  505.63   26.59   1
   6   3  -4   28.71    8.34   1
   5   3  -4  145.75   13.05   1
   4   3  -4  280.88   15.80   1
   4   3  -4  291.31   16.24   2
  -3  -3   4 1165.97   39.12   4
   3   3  -4 1173.85   40.06   2
  -3  -3   4 1184.94   41.12   1
   2   3  -4    2.96    5.54   2
  -2  -3   4   28.84    5.53   4
  -2  -3   4   23.80    5.53   1
  -1  -3   4   27.91    5.28   1
   1   3  -4   23.60    5.98   2
   0  -3   4   65.27    6.62   1
   0   3  -4   66.91    6.27   3
   0   3  -4   74.14    7.74   2
  -1   3  -4  658.36   24.77   3
  -1   3  -4  698.15   23.51   2
   1  -3   4  697.29   23.63   1
  -2   3  -4   75.94    6.96   2
   2  -3   4   66.17    6.50   1
  -2   3  -4   80.64    8.46   3
   3  -3   4   43.62    5.86   1
  -3   3  -4   34.76    6.86   3
  -3   3  -4   35.27    5.26   2
  -4   3  -4   65.73    9.64   3
  -4   3  -4   42.90    5.34   2
   4  -3   4   45.88    6.63   1
   5  -3   4  857.78   30.92   1
  -5   3  -4  816.52   27.29   2
  -5   3  -4  780.71   33.93   3
  -6   3  -4   18.55    7.00   3
   6  -3   4    8.41    5.75   1
  -6   3  -4   13.10    3.73   2
  -7   3  -4   15.46    6.74   3
   7  -3   4   14.02    7.56   1
  -8   3  -4   36.85    9.61   3
   8  -3   4   30.12    9.85   1
   9  -3   4  237.55   18.91   1
  -9   3  -4  239.38   21.85   3
  10  -3   4   10.41    8.51   1
 -10   3  -4    1.00    6.23   3
  11  -3   4   41.24   11.67   1
 -11   3  -4   69.95   14.17   3
 -12   3  -4  208.82   23.34   3
  12  -3   4  197.47   21.07   1
 -13   3  -4   48.59   12.54   3
 -14   3  -4   45.41   13.26   3
 -15   3  -4   10.70    9.94   3
  16   2  -4   16.68    9.53   1
  15   2  -4   -6.34    9.25   1
  14   2  -4    3.47    9.48   1
  13   2  -4   86.19   17.23   1
  12   2  -4  173.90   21.33   1
  11   2  -4   -7.27    7.34   1
  10   2  -4 1685.14   64.55   1
   9   2  -4   10.14    9.20   1
  -9  -2   4   17.27    6.20   3
   8   2  -4  876.00   39.11   1
  -8  -2   4  911.53   33.65   3
   7   2  -4    1.50    5.78   1
   6   2  -4   47.68    9.54   1
   5   2  -4  284.47   16.81   1
   5   2  -4  276.38   15.83   2
   4   2  -4  168.80   12.01   1
   4   2  -4  166.16   11.99   2
   3   2  -4  675.36   26.19   2
   3   2  -4  715.32   26.23   1
   2   2  -4  134.96   10.36   2
   2   2  -4  167.96   10.60   1
  -1  -2   4 1145.88   33.85   4
  -1  -2   4 1131.23   35.23   1
   1   2  -4 1064.88   35.57   2
   1   2  -4 1138.10   31.49   3
   0  -2   4  236.64   10.49   1
   0   2  -4  198.74    9.59   3
   0   2  -4  238.48   11.21   2
  -1   2  -4    9.60    3.89   3
  -1   2  -4   11.72    5.08   2
  -2   2  -4  583.72   22.76   3
  -2   2  -4  577.20   20.62   2
  -3   2  -4  279.01   12.05   2
  -3   2  -4  252.77   14.93   3
  -4   2  -4   10.60    4.99   3
  -4   2  -4   -0.54    2.72   2
   4  -2   4   -1.24    1.54   1
  -5   2  -4 1091.72   35.39   2
  -5   2  -4 1011.79   39.97   3
   6  -2   4  572.56   24.92   1
  -6   2  -4  623.24   24.05   2
  -6   2  -4  623.28   29.51   3
   7  -2   4   66.22   10.06   1
  -7   2  -4   63.62   11.22   3
  -7   2  -4   63.52    7.63   2
   8  -2   4  150.07   14.99   1
  -8   2  -4  171.29   17.86   3
  -8   2  -4  151.58   11.43   2
   9  -2   4    9.20    8.41   1
  -9   2  -4   -7.45    4.10   3
 -10   2  -4  423.24   28.10   3
  10  -2   4  423.78   25.70   1
  11  -2   4   65.60   12.73   1
 -11   2  -4   63.55   13.93   3
  12  -2   4    8.40    8.35   1
 -12   2  -4    4.13    5.81   3
 -13   2  -4   22.00    9.30   3
 -14   2  -4    2.98    7.59   3
 -15   2  -4   22.35   10.15   3
  16   1  -4   16.90   12.24   1
  15   1  -4   41.17   12.93   1
  14   1  -4   21.57   11.86   1
  13   1  -4   -3.44    8.35   1
  12   1  -4   31.82   11.86   1
  11   1  -4   76.11   14.88   1
  10   1  -4  171.66   19.35   1
   9   1  -4    3.84    7.52   1
  -9  -1   4   10.10    5.09   3
   8   1  -4   -5.13    6.15   1
  -8  -1   4    3.06    4.04   3
  -7  -1   4  357.86   17.24   3
   7   1  -4  335.79   21.57   1
  -6  -1   4  179.17   10.90   3
   6   1  -4  193.74   15.48   1
  -5  -1   4   42.82    5.26   3
   5   1  -4   55.86    9.09   1
   5   1  -4   60.60    8.04   2
  -4  -1   4  128.04    7.11   3
   4   1  -4  117.42    9.74   2
   4   1  -4  130.16   11.38   1
   3   1  -4   38.25    6.71   1
   3   1  -4   32.97    6.37   2
   2   1  -4  117.03    9.18   2
   2   1  -4  106.23    8.60   1
   1   1  -4 1576.44   47.56   2
   1   1  -4 1577.95   45.57   1
   1   1  -4 1656.38   43.62   3
  -1   1  -4  149.60    8.52   3
  -1   1  -4  158.79    8.83   2
   1  -1   4  148.08    6.28   1
  -2   1  -4  224.37   12.42   3
   2  -1   4  225.97    8.81   1
  -2   1  -4  244.24   11.30   2
  -3   1  -4  106.56    7.62   2
   3  -1   4  119.58    7.32   1
  -3   1  -4  107.84    9.75   3
   4  -1   4  432.33   16.90   1
  -4   1  -4  416.36   20.85   3
  -4   1  -4  429.85   18.22   2
   5  -1   4    2.38    3.72   1
  -5   1  -4   11.26    4.28   2
  -5   1  -4   10.86    5.67   3
  -6   1  -4    3.04    3.30   2
  -6   1  -4    0.52    4.47   3
   6  -1   4    0.38    2.07   1
  -7   1  -4   52.25   10.66   3
  -7   1  -4   52.23    8.15   2
   7  -1   4   36.53    7.60   1
   8  -1   4   59.52   10.12   1
  -8   1  -4   60.11   11.51   3
  -8   1  -4   67.23    9.35   2
  -9   1  -4  154.94   17.61   3
  -9   1  -4  149.19   13.13   2
   9  -1   4  167.86   15.58   1
 -10   1  -4    2.88    6.18   3
  10  -1   4   13.76    9.64   1
  11  -1   4  191.18   18.62   1
 -11   1  -4  192.93   21.00   3
  12  -1   4  306.62   22.87   1
 -12   1  -4  295.78   24.34   3
 -13   1  -4   10.26    7.17   3
 -14   1  -4   34.98   12.37   3
  16   0  -4   14.50   12.04   1
  15   0  -4   -5.07    9.15   1
  14   0  -4   -3.72    8.57   1
  13   0  -4   13.63   10.28   1
  12   0  -4  101.90   17.46   1
  11   0  -4    4.78    7.67   1
  10   0  -4  242.44   22.55   1
   9   0  -4  565.34   31.16   1
  -9   0   4  590.91   26.86   3
  -8   0   4   32.92    7.28   3
   8   0  -4   34.66   10.31   1
   7   0  -4  366.47   22.64   1
  -7   0   4  363.84   17.86   3
  -6   0   4   25.59    5.33   3
   6   0  -4   20.35    7.30   1
   5   0  -4    6.82    5.84   1
  -5   0   4    6.53    3.28   3
   5   0  -4    1.05    1.55   2
  -4   0   4  138.27    8.00   3
   4   0  -4  151.64    9.22   2
   4   0  -4  140.40   11.39   1
   3   0  -4  503.84   19.24   2
  -3   0   4  520.27   16.35   3
   3   0  -4  479.71   20.56   1
   2   0  -4   20.95    5.80   2
   2   0  -4   28.83    5.92   1
  -2   0   4   25.05    2.43   3
   1   0  -4  371.48   14.37   1
   1   0  -4  374.73   14.69   2
   0   0  -4    0.96    2.72   2
   0   0  -4    2.11    2.36   1
  -1   0  -4  240.07   11.19   2
  -2   0  -4   68.73    6.24   2
   2   0   4   65.02    3.54   1
  -3   0  -4 1139.03   38.47   2
   3   0   4 1199.30   33.34   1
  -4   0  -4 1317.01   44.78   2
   4   0   4 1392.33   39.96   1
   5   0   4 3654.03   98.54   1
  -5   0  -4 3525.91  105.46   2
  -6   0  -4 1205.77   43.28   2
  -7   0  -4   66.86    9.32   2
  -8   0  -4   94.78   11.53   2
   8   0   4   88.32   10.77   1
  -8   0  -4   79.71   12.77   3
   9   0   4    7.30    7.42   1
  -9   0  -4    2.58    5.11   3
  -9   0  -4    5.58    4.55   2
  10   0   4  111.69   14.20   1
 -10   0  -4   81.35   13.85   3
 -10   0  -4   93.82   12.71   2
 -11   0  -4  131.15   17.78   3
  11   0   4  176.19   17.90   1
  12   0   4   80.32   13.60   1
 -12   0  -4   60.43   13.14   3
 -13   0  -4  165.81   20.96   3
 -14   0  -4    1.18    6.08   3
  16  -1  -4   72.36   19.55   1
  15  -1  -4   27.13   12.51   1
  14  -1  -4  -11.86    7.58   1
  13  -1  -4    8.18    9.47   1
  12  -1  -4    8.29    9.61   1
  11  -1  -4   30.69   11.57   1
  10  -1  -4    3.20    7.95   1
  -9   1   4   -2.52    4.56   3
   9  -1  -4   -6.51    7.68   1
   8  -1  -4  139.84   16.49   1
  -8   1   4  165.57   13.05   3
  -7   1   4   66.83    8.71   3
   7  -1  -4   74.87   12.43   1
  -6   1   4    3.30    3.67   3
   6  -1  -4    4.84    6.75   1
  -5   1   4  311.40   14.63   3
   5  -1  -4  304.69   18.72   1
   5  -1  -4  296.70   14.24   2
   4  -1  -4    5.07    5.08   1
   4  -1  -4    8.71    4.20   2
  -4   1   4    3.85    3.16   3
  -3   1   4 1141.61   34.37   3
   3  -1  -4 1215.02   39.62   1
   3  -1  -4 1179.61   36.22   2
  -2   1   4   35.13    3.86   3
   2  -1  -4   38.32    6.68   1
   1  -1  -4  729.30   23.89   1
   1  -1  -4  699.59   23.68   2
   0  -1  -4   12.00    3.53   2
   0  -1  -4   13.18    3.04   1
  -1  -1  -4 1077.18   29.57   1
  -1  -1  -4 1054.12   34.36   2
  -2  -1  -4  190.55   11.04   2
  -2  -1  -4  188.47    6.88   1
  -3  -1  -4   10.08    2.86   1
  -3  -1  -4    9.70    4.19   2
  -3  -1  -4    7.92    2.62   4
   4   1   4   77.69    6.44   1
  -4  -1  -4   82.95    8.99   2
   5   1   4  120.31    8.78   1
  -5  -1  -4  144.24   11.49   2
  -6  -1  -4   -1.18    3.98   2
   6   1   4    1.91    3.66   1
   8   1   4    4.82    4.24   1
  -8  -1  -4   -3.16    3.93   2
  -9  -1  -4   12.15    6.59   2
   9   1   4   23.60    7.92   1
  10   1   4    4.28    7.10   1
 -10  -1  -4    3.46    5.19   2
  11   1   4    7.59    7.88   1
 -11  -1  -4    0.08    4.94   3
 -11  -1  -4    5.08    5.80   2
 -12  -1  -4  369.91   26.64   3
  12   1   4  395.15   25.26   1
 -13  -1  -4  100.51   16.48   3
 -14  -1  -4   81.25   15.23   3
  15  -2  -4    3.65    8.96   1
  14  -2  -4   46.70   14.65   1
  13  -2  -4    7.92    9.46   1
  12  -2  -4   87.94   17.75   1
  11  -2  -4   13.48    9.69   1
 -10   2   4    8.22    6.54   3
  10  -2  -4    7.13    8.23   1
   9  -2  -4 1180.00   50.27   1
  -9   2   4 1144.44   44.20   3
  -8   2   4   36.78    8.43   3
   8  -2  -4   48.91   12.50   1
   7  -2  -4  354.81   23.68   1
  -7   2   4  377.42   19.62   3
   6  -2  -4   74.71   11.74   1
  -6   2   4   83.44    9.01   3
   5  -2  -4   52.22    9.85   1
  -5   2   4   77.18    7.94   3
   5  -2  -4   78.20    6.96   2
  -4   2   4   42.57    5.77   3
   4  -2  -4   61.18    9.54   1
   4  -2  -4   44.12    5.17   2
   3  -2  -4  184.55   13.07   1
   3  -2  -4  189.62    9.48   2
  -3   2   4  179.13    9.59   3
   2  -2  -4  267.91   11.60   2
  -2   2   4  253.07   11.18   3
   2  -2  -4  277.90   14.51   1
   1  -2  -4  442.03   18.25   1
   0  -2  -4   62.91    6.03   2
   0  -2  -4   65.68    5.90   1
  -1  -2  -4   74.03    7.38   2
  -1  -2  -4   74.41    5.55   1
  -2  -2  -4   67.84    7.66   2
  -2  -2  -4   60.42    4.59   1
  -3  -2  -4  296.12   16.03   2
  -3  -2  -4  286.04   11.81   1
  -4  -2  -4  223.31   10.67   4
  -4  -2  -4  227.40   11.12   1
  -4  -2  -4  217.16   14.68   2
   6   2   4   -2.16    2.05   1
   7   2   4    0.42    1.93   1
   8   2   4  214.48   14.46   1
   9   2   4   92.94   12.09   1
  10   2   4  117.69   14.32   1
  11   2   4   19.85    9.42   1
 -11  -2  -4    8.69    7.37   2
 -12  -2  -4   -1.91    5.60   2
  12   2   4    1.77    7.00   1
 -13  -2  -4   36.24   10.24   3
 -14  -2  -4  107.73   17.98   3
  15  -3  -4   30.91   13.88   1
  14  -3  -4    0.65    9.53   1
  13  -3  -4   71.98   16.31   1
  12  -3  -4   -8.76    6.29   1
  11  -3  -4   35.42   12.10   1
 -10   3   4   66.09   10.94   3
  10  -3  -4   91.79   16.43   1
  -9   3   4   64.16   11.04   3
   9  -3  -4   79.14   15.44   1
  -8   3   4    7.62    5.79   3
   8  -3  -4    6.90    8.75   1
   7  -3  -4  350.91   24.05   1
  -7   3   4  417.74   20.89   3
  -6   3   4   20.90    6.06   3
   6  -3  -4   15.02    8.86   1
   5  -3  -4  497.16   25.65   1
   5  -3  -4  504.78   18.25   2
  -5   3   4  512.90   21.93   3
   4  -3  -4   23.33    3.91   2
  -4   3   4   20.20    5.04   3
   4  -3  -4   11.23    6.23   1
  -3   3   4  167.02   10.30   3
   3  -3  -4  192.69   13.73   1
   3  -3  -4  188.65    8.94   2
  -2   3   4   10.24    3.82   3
   2  -3  -4    4.25    4.71   1
   2  -3  -4   12.59    3.87   2
   1  -3  -4    0.26    3.01   2
   1  -3  -4    1.79    4.19   1
   0  -3  -4 9999.99  260.54   1
  -1  -3  -4  974.21   33.91   2
  -1  -3  -4  973.52   30.66   1
  -2  -3  -4  169.66    9.05   1
  -2  -3  -4  170.68   11.93   2
  -3  -3  -4  101.60   10.49   2
  -3  -3  -4  103.66    7.33   1
  -4  -3  -4    5.82    3.39   1
  -5  -3  -4  256.09   13.45   4
  -5  -3  -4  288.53   14.31   1
  -6  -3  -4  108.71    9.54   4
  -6  -3  -4  106.56    9.76   1
  -7  -3  -4  337.65   18.50   1
  -7  -3  -4  353.99   18.06   4
   9   3   4  202.86   15.78   1
  10   3   4  186.77   16.83   1
  11   3   4   23.78    9.52   1
  12   3   4  225.94   18.65   1
 -13  -3  -4  194.21   25.70   2
  13   3   4  119.38   16.96   1
 -14  -3  -4   10.75    7.56   3
  14  -4  -4   44.38   13.79   1
  13  -4  -4   25.71   11.95   1
  12  -4  -4   22.71   10.55   1
  11  -4  -4   62.72   15.50   1
  10  -4  -4   90.35   17.31   1
 -10   4   4   75.50   12.01   3
  -9   4   4  205.14   16.49   3
   9  -4  -4  209.91   21.98   1
  -8   4   4   18.40    7.39   3
   8  -4  -4    5.57    9.36   1
   7  -4  -4    0.36    7.75   1
  -7   4   4   -1.19    4.68   3
   6  -4  -4   13.89    9.52   1
  -6   4   4   18.97    6.47   3
  -5   4   4    3.32    4.05   3
   5  -4  -4    8.02    6.94   1
   4  -4  -4   13.97    7.01   1
   4  -4  -4   16.79    3.39   2
  -4   4   4   13.58    5.04   3
  -3   4   4  156.59   10.38   3
   3  -4  -4  154.86    8.00   2
   3  -4  -4  162.43   13.60   1
  -2   4   4    4.97    4.06   3
   2  -4  -4    4.81    3.08   2
   2  -4  -4    3.09    4.61   1
   1  -4  -4  181.11   10.25   2
   1  -4  -4  169.94   11.61   1
   0  -4  -4 2766.38   79.13   1
  -1  -4  -4 1521.79   45.45   1
  -1  -4  -4 1428.55   48.01   2
  -2  -4  -4   73.90    7.06   1
  -2  -4  -4   74.52    9.10   2
  -3  -4  -4  493.61   19.93   1
  -4  -4  -4  415.99   18.39   1
  -5  -4  -4   68.49    7.92   1
  -6  -4  -4  465.82   21.76   1
  -7  -4  -4   56.86    8.60   1
  -7  -4  -4   44.36    7.85   4
  -8  -4  -4   10.68    5.06   1
  -8  -4  -4   21.01    6.15   4
  -9  -4  -4    1.72    4.14   1
  -9  -4  -4    7.99    5.18   4
 -10  -4  -4   13.13    6.42   4
 -10  -4  -4    8.13    5.31   1
 -11  -4  -4   13.40    6.59   4
 -11  -4  -4   18.51    7.69   1
 -12  -4  -4   22.55    8.78   1
 -12  -4  -4   24.30    7.85   4
 -13  -4  -4   -3.78    5.18   4
 -13  -4  -4    5.89    7.84   1
 -14  -4  -4  214.66   31.59   2
  14  -5  -4   52.50   16.15   1
  13  -5  -4   25.78   11.79   1
  12  -5  -4    2.88    9.80   1
  11  -5  -4    7.36   10.02   1
 -10   5   4   30.24    9.12   3
  10  -5  -4   43.18   13.70   1
   9  -5  -4   43.60   13.19   1
  -9   5   4   52.62   10.13   3
  -8   5   4  104.95   13.34   3
   8  -5  -4   96.90   16.84   1
   7  -5  -4  495.35   30.14   1
  -7   5   4  483.95   25.16   3
  -6   5   4    2.18    5.29   3
   6  -5  -4   22.26    9.30   1
   5  -5  -4  200.88   18.40   1
  -5   5   4  192.09   14.12   3
  -4   5   4  231.93   14.58   3
   4  -5  -4  223.46   17.72   1
  -3   5   4   68.86    8.73   3
   3  -5  -4   72.67    5.93   2
   3  -5  -4   94.35   11.85   1
  -2   5   4  727.98   27.74   3
   2  -5  -4  691.87   30.00   1
   2  -5  -4  739.11   24.76   2
   1  -5  -4    1.22    3.09   2
   1  -5  -4   -2.21    3.43   1
   0  -5  -4  952.61   34.58   2
   0  -5  -4 1012.13   35.11   1
  -1  -5  -4  901.77   31.58   1
  -1  -5  -4  855.84   32.99   2
  -2  -5  -4  269.12   14.30   1
  -3  -5  -4   93.01    8.89   1
  -4  -5  -4  148.40   10.97   1
  -5  -5  -4    7.53    4.22   1
  -6  -5  -4  287.31   16.84   1
  -7  -5  -4   47.38    8.65   1
  -8  -5  -4  567.12   27.40   1
  -9  -5  -4    0.83    4.36   4
  -9  -5  -4   -1.11    3.52   1
 -10  -5  -4  110.69   14.11   1
 -10  -5  -4   68.60   11.74   4
 -11  -5  -4   59.78   10.58   4
 -11  -5  -4   47.98   10.48   1
 -12  -5  -4    1.83    5.22   4
 -12  -5  -4    8.45    6.52   1
 -13  -5  -4  266.58   23.31   4
 -13  -5  -4  275.15   25.12   1
 -15  -5  -4    8.60   12.92   2
  13  -6  -4   88.59   18.81   1
  12  -6  -4   20.69   12.28   1
  11  -6  -4   50.04   14.99   1
  10  -6  -4   66.02   16.22   1
 -10   6   4   58.57   11.68   3
  -9   6   4    9.64    6.54   3
   9  -6  -4    4.96    9.43   1
  -8   6   4  113.30   14.35   3
   8  -6  -4  126.25   19.00   1
  -7   6   4   21.68    8.25   3
   7  -6  -4    8.89    9.68   1
   6  -6  -4   53.56   12.96   1
  -6   6   4   60.13   10.53   3
  -5   6   4   76.36   10.82   3
   5  -6  -4   89.63   13.92   1
  -4   6   4    7.74    5.80   3
   4  -6  -4   11.93    7.71   1
  -3   6   4   74.48    9.92   3
   3  -6  -4   79.88   11.51   1
   3  -6  -4   73.63    6.34   2
   2  -6  -4    6.25    5.61   1
   2  -6  -4    3.84    3.18   2
  -2   6   4    5.14    5.33   3
   1  -6  -4   48.38    6.63   2
   1  -6  -4   45.63    8.36   1
   0  -6  -4  198.54   13.61   1
   0  -6  -4  200.71   12.73   2
  -1  -6  -4  578.77   24.83   1
  -1  -6  -4  601.03   25.87   2
  -2  -6  -4  645.89   26.49   1
  -3  -6  -4  430.00   20.38   1
  -4  -6  -4   64.08    8.84   1
  -5  -6  -4  231.42   15.29   1
  -6  -6  -4   17.52    5.91   1
  -7  -6  -4    6.51    4.46   1
  -8  -6  -4   43.57    9.03   1
  -9  -6  -4   12.41    5.96   1
 -10  -6  -4  159.10   16.83   1
 -11  -6  -4   -0.44    4.76   1
 -12  -6  -4    1.24    5.26   4
 -12  -6  -4    9.29    6.96   1
 -13  -6  -4   65.52   12.63   4
 -13  -6  -4   52.27   12.13   1
 -15  -6  -4   84.12   25.99   2
  13  -7  -4   23.78   13.81   1
  12  -7  -4   13.17   11.50   1
  11  -7  -4    8.92    9.47   1
 -10   7   4    4.52    6.13   3
  10  -7  -4   15.03   11.19   1
   9  -7  -4   22.70   11.40   1
  -9   7   4   15.16    7.98   3
   8  -7  -4   11.31   10.96   1
  -8   7   4    3.38    6.10   3
   7  -7  -4  343.23   26.52   1
  -7   7   4  345.25   22.29   3
  -6   7   4  149.74   15.24   3
   6  -7  -4  133.76   18.35   1
  -5   7   4  146.95   14.78   3
   5  -7  -4  161.94   18.63   1
   4  -7  -4  300.35   21.91   1
  -4   7   4  328.29   20.14   3
   3  -7  -4   29.05    9.14   1
  -3   7   4   23.36    8.11   3
   2  -7  -4    0.80    3.11   2
   2  -7  -4    2.73    5.54   1
   1  -7  -4   35.82    8.17   1
   1  -7  -4   39.36    6.44   2
   0  -7  -4   27.43    7.15   1
   0  -7  -4   17.37    5.52   2
  -1  -7  -4  365.70   19.61   1
  -2  -7  -4   92.09   10.72   1
  -3  -7  -4    0.22    3.12   1
  -4  -7  -4   12.78    4.78   1
  -5  -7  -4    8.96    4.71   1
  -6  -7  -4  437.15   23.48   1
  -7  -7  -4  115.07   13.36   1
  -8  -7  -4  769.96   35.61   1
  -9  -7  -4  163.11   16.49   1
 -10  -7  -4  144.16   16.66   1
 -11  -7  -4   32.76    9.32   1
 -12  -7  -4   10.52    7.26   1
 -13  -7  -4    9.85    7.77   1
 -16  -7  -4    2.92   20.83   2
  12  -8  -4   23.75   12.87   1
  11  -8  -4   91.30   20.17   1
 -10   8   4   65.50   13.37   3
  10  -8  -4   49.81   16.01   1
  -9   8   4    8.73    7.46   3
   9  -8  -4   20.19   11.36   1
   8  -8  -4    4.27    9.58   1
  -8   8   4   13.68    8.15   3
  -7   8   4   -4.93    5.47   3
   7  -8  -4   -1.00    8.31   1
  -6   8   4   64.07   12.14   3
   6  -8  -4   58.47   13.86   1
  -5   8   4   -2.60    5.94   3
   5  -8  -4  -14.48    6.54   1
  -4   8   4   -1.90    6.18   3
   4  -8  -4   11.20    7.94   1
   3  -8  -4  148.24   16.97   1
  -3   8   4  191.14   15.86   3
   2  -8  -4   89.03   12.95   1
   1  -8  -4    5.83    5.79   1
   1  -8  -4   -0.67    3.71   2
   0  -8  -4   76.87    9.51   2
   0  -8  -4   58.58   10.08   1
  -1  -8  -4   -3.82    2.19   2
  -1  -8  -4   15.45    5.90   1
  -2  -8  -4  172.89   14.16   1
  -3  -8  -4  444.16   23.11   1
  -4  -8  -4   47.14    8.73   1
  -5  -8  -4  160.18   15.01   1
  -6  -8  -4    8.76    5.30   1
  -7  -8  -4    5.08    5.08   1
  -8  -8  -4    9.90    6.15   1
  -9  -8  -4  110.86   15.04   1
 -10  -8  -4   29.97    8.90   1
 -11  -8  -4   52.31   11.44   1
 -12  -8  -4   46.02   11.32   1
 -13  -8  -4   62.66   13.56   1
 -16  -8  -4   11.92   26.56   2
 -17  -8  -4   39.51   37.57   2
  11  -9  -4   11.64   12.63   1
 -10   9   4    5.60    7.47   3
  10  -9  -4    7.93   10.13   1
  -9   9   4   61.75   13.15   3
   9  -9  -4   51.72   15.86   1
  -8   9   4   79.02   13.91   3
   8  -9  -4   63.23   16.58   1
  -7   9   4   84.64   14.08   3
   7  -9  -4   65.00   15.73   1
   6  -9  -4   79.94   15.85   1
  -6   9   4   71.77   12.86   3
  -5   9   4   62.09   12.23   3
   5  -9  -4   93.55   16.75   1
   4  -9  -4  178.03   19.80   1
  -4   9   4  199.96   18.68   3
   3  -9  -4   -7.23    5.54   1
   2  -9  -4    2.35    6.39   1
   1  -9  -4   29.48    9.19   1
   0  -9  -4   22.54    7.33   1
   0  -9  -4   15.63    5.85   2
  -1  -9  -4   28.42    6.80   2
  -1  -9  -4   50.49    9.58   1
  -2  -9  -4   24.93    7.57   1
  -3  -9  -4    3.95    4.82   1
  -4  -9  -4    1.10    4.45   1
  -5  -9  -4  132.98   14.46   1
  -6  -9  -4  131.89   15.23   1
  -7  -9  -4  107.58   14.55   1
  -8  -9  -4  204.50   19.54   1
  -9  -9  -4  219.38   20.48   1
 -10  -9  -4    6.60    5.64   1
 -11  -9  -4  108.81   16.65   1
 -12  -9  -4    3.95    6.93   1
 -13  -9  -4    9.96    7.25   1
 -10  10   4   28.13   10.88   3
  10 -10  -4    5.22    7.15   1
  -9  10   4   89.00   15.83   3
   9 -10  -4  101.39   21.50   1
  -8  10   4   18.21    9.11   3
   8 -10  -4   59.73   15.54   1
  -7  10   4    5.04    7.50   3
   7 -10  -4    3.48    8.49   1
  -6  10   4    3.15    7.52   3
   6 -10  -4   -3.05    8.32   1
  -5  10   4   66.28   12.96   3
   5 -10  -4   62.48   14.66   1
   4 -10  -4    7.28    8.17   1
   3 -10  -4   48.57   11.93   1
   2 -10  -4  177.52   18.71   1
   1 -10  -4   97.43   14.74   1
   0 -10  -4   60.10   11.54   1
  -1 -10  -4  178.83   17.47   1
  -1 -10  -4  193.39   15.67   2
  -2 -10  -4    1.31    4.98   1
  -3 -10  -4  181.73   17.56   1
  -4 -10  -4   15.82    6.65   1
  -5 -10  -4   54.97   10.73   1
  -6 -10  -4   26.03    7.91   1
  -7 -10  -4    1.56    4.44   1
  -8 -10  -4    2.63    5.85   1
  -9 -10  -4   -5.92    4.88   1
 -10 -10  -4    9.93    6.76   1
 -11 -10  -4    0.69    6.75   1
 -12 -10  -4   95.79   16.93   1
 -13 -10  -4  173.30   22.31   1
 -10  11   4   14.09   10.12   3
  -9  11   4   33.39   11.75   3
   9 -11  -4    2.80    5.75   1
  -8  11   4   85.17   15.84   3
   8 -11  -4   93.14   20.10   1
  -7  11   4   16.50    9.06   3
   7 -11  -4    4.08    9.12   1
   6 -11  -4   52.68   15.26   1
  -6  11   4   97.20   16.03   3
   5 -11  -4    4.20    8.07   1
   4 -11  -4   53.04   13.47   1
   3 -11  -4   26.72    9.73   1
   2 -11  -4   27.39    9.38   1
   1 -11  -4    4.83    7.56   1
   0 -11  -4  120.06   16.25   1
  -1 -11  -4   -3.97    5.45   1
  -2 -11  -4   11.97    6.85   2
  -2 -11  -4   15.60    7.23   1
  -3 -11  -4   -3.62    4.65   1
  -4 -11  -4  125.59   16.02   1
  -5 -11  -4  169.40   18.40   1
  -6 -11  -4    5.24    5.80   1
  -7 -11  -4   81.07   13.97   1
  -8 -11  -4    3.08    5.68   1
  -9 -11  -4  199.41   21.54   1
 -10 -11  -4   83.73   15.48   1
 -11 -11  -4  167.85   20.92   1
 -12 -11  -4    8.70    7.76   1
 -13 -11  -4    6.51    7.72   1
   8 -12  -4   -6.11    5.32   1
   7 -12  -4   -3.21    8.33   1
   6 -12  -4    4.62    9.41   1
   5 -12  -4   84.06   17.74   1
   4 -12  -4   79.89   15.85   1
   3 -12  -4   12.82    8.66   1
   2 -12  -4   70.33   14.00   1
   1 -12  -4   58.34   12.77   1
   0 -12  -4    3.17    6.55   1
  -1 -12  -4  194.96   20.83   1
  -2 -12  -4   13.80    6.74   1
  -3 -12  -4   82.09   13.73   1
  -4 -12  -4    3.95    6.67   1
  -5 -12  -4   52.04   11.97   1
  -6 -12  -4   59.20   12.53   1
  -7 -12  -4    5.38    6.31   1
  -8 -12  -4   -2.50    6.32   1
  -9 -12  -4   19.75    8.12   1
 -10 -12  -4   22.71    9.12   1
 -11 -12  -4   81.25   16.34   1
 -12 -12  -4    5.15    7.73   1
 -13 -12  -4   71.05   16.02   1
   7 -13  -4    2.00    5.71   1
   6 -13  -4   -3.54    5.26   1
   5 -13  -4   70.21   17.30   1
   4 -13  -4   10.38    8.85   1
   3 -13  -4    9.16    8.19   1
   2 -13  -4    5.48    6.82   1
   1 -13  -4    9.57    8.12   1
   0 -13  -4   20.46    9.45   1
  -1 -13  -4   -0.99    6.48   1
  -2 -13  -4   62.01   13.48   1
  -3 -13  -4    4.31    6.41   1
  -4 -13  -4   13.99    7.89   1
  -5 -13  -4   46.74   12.13   1
  -6 -13  -4   43.31   11.95   1
  -7 -13  -4  131.44   18.85   1
  -8 -13  -4   75.60   15.12   1
  -9 -13  -4   27.29   10.40   1
 -10 -13  -4    4.06    7.98   1
 -11 -13  -4   13.90   10.26   1
 -12 -13  -4   -1.98    7.33   1
 -13 -13  -4    0.29    8.73   1
   5 -14  -4    1.38    5.53   1
   4 -14  -4   -8.29    6.20   1
   3 -14  -4   -7.92    6.87   1
   2 -14  -4    9.83    8.12   1
   1 -14  -4  142.58   20.69   1
   0 -14  -4    8.67    7.91   1
  -1 -14  -4   83.10   15.95   1
  -2 -14  -4    3.50    6.46   1
  -3 -14  -4   32.22   11.11   1
  -4 -14  -4    9.53    7.52   1
  -5 -14  -4   -7.77    5.27   1
  -6 -14  -4   14.88    8.55   1
  -7 -14  -4   -2.32    6.33   1
  -8 -14  -4   19.08    9.48   1
  -9 -14  -4   16.34    8.62   1
 -10 -14  -4  -10.16    6.51   1
 -11 -14  -4  127.89   20.89   1
 -12 -14  -4   32.26   10.97   1
 -13 -14  -4   -0.59    7.92   1
   4 -15  -4   -4.60    5.24   1
   3 -15  -4   -9.09    4.74   1
   2 -15  -4   -8.88    4.27   1
   1 -15  -4    8.86    9.68   1
   0 -15  -4   24.97   11.34   1
  -1 -15  -4    8.35    8.65   1
  -2 -15  -4   -7.45    5.51   1
  -3 -15  -4   -3.63    5.93   1
  -4 -15  -4    0.99    6.34   1
  -5 -15  -4   39.24   12.04   1
  -6 -15  -4   29.10   11.23   1
  -7 -15  -4    8.93    8.08   1
  -8 -15  -4  160.19   23.39   1
  -9 -15  -4   19.45    9.87   1
 -10 -15  -4   16.73    9.54   1
 -11 -15  -4   29.99   11.50   1
 -12 -15  -4    3.79    9.48   1
 -13 -15  -4   24.95   12.65   1
   1 -16  -4   79.24   18.01   1
   0 -16  -4    6.52    9.44   1
  -1 -16  -4    9.78    9.29   1
  -2 -16  -4   58.76   14.54   1
  -3 -16  -4   -3.33    8.04   1
  -4 -16  -4   15.38    9.95   1
  -5 -16  -4    6.17    8.15   1
  -6 -16  -4   12.05    8.81   1
  -7 -16  -4    3.08    6.80   1
  -8 -16  -4   16.54    9.05   1
  -9 -16  -4   42.69   13.56   1
 -10 -16  -4    7.68    8.99   1
 -11 -16  -4   -4.68    8.69   1
  -2 -17  -4   -7.66    9.00   1
  -3 -17  -4   14.39   11.28   1
  -4 -17  -4   13.18   11.73   1
  -5 -17  -4   12.51   10.85   1
  -6 -17  -4   15.88   11.13   1
  -7 -17  -4   10.13    9.78   1
  -8 -17  -4   68.87   17.22   1
  -8 -17  -4   53.54   13.90   2
  -9 -17  -4   76.19   20.78   2
  -5 -17   5   -2.38    5.55   1
  -4 -17   5   -2.28    5.67   1
  -3 -17   5  -13.25    5.21   1
  -2 -17   5    8.52    5.48   1
  -1 -17   5   -4.04    5.84   1
  -9 -16   5   -7.60    8.78   1
  -8 -16   5    9.67   10.20   1
  -7 -16   5  105.71   20.77   1
  -6 -16   5    6.61    5.31   1
  -5 -16   5   -2.03    5.32   1
  -4 -16   5   -3.00    6.41   1
  -3 -16   5   -0.28    6.15   1
  -2 -16   5    5.97    6.59   1
  -1 -16   5  -13.06    5.05   1
   0 -16   5   -5.48    4.91   1
   1 -16   5    0.87    5.16   1
   2 -16   5    2.64    9.54   1
   3 -16   5   22.86   12.82   1
 -10 -15   5   17.42   13.32   1
  -9 -15   5  -10.54    7.36   1
  -8 -15   5   35.86   13.69   1
  -7 -15   5    9.32    8.54   1
  -6 -15   5    3.47    6.07   1
  -5 -15   5   40.54   11.98   1
  -4 -15   5   -3.41    6.03   1
  -3 -15   5    0.45    5.43   1
  -2 -15   5    7.24    7.38   1
  -1 -15   5   22.41   10.21   1
   0 -15   5   24.33    9.44   1
   1 -15   5   -6.36    6.21   1
   2 -15   5   72.11   15.05   1
   3 -15   5  107.64   18.99   1
   4 -15   5   31.99   10.35   1
   5 -15   5   18.48   12.26   1
 -12 -14   5   -3.78    9.16   1
 -11 -14   5   -3.46    7.45   1
 -10 -14   5   -6.38    7.73   1
  -9 -14   5    0.09    8.03   1
  -8 -14   5   -2.61    6.91   1
  -7 -14   5   39.31   13.22   1
  -6 -14   5   80.88   16.15   1
  -5 -14   5   13.67    7.12   1
  -4 -14   5   62.49   13.83   1
  -3 -14   5   52.06   12.84   1
  -2 -14   5  146.16   21.12   1
  -1 -14   5   58.08   13.26   1
   0 -14   5   16.21    8.47   1
   1 -14   5    0.46    7.15   1
   2 -14   5    4.03    6.59   1
   3 -14   5   15.20    9.65   1
  -4  14  -5    4.46    7.48   3
   4 -14   5   37.43   12.17   1
  -5  14  -5    1.65    4.85   3
   5 -14   5   -0.77    8.06   1
   6 -14   5    9.47    8.31   1
  -6  14  -5   -5.89    8.29   3
   7 -14   5    1.68   11.70   1
 -13 -13   5   27.52   13.11   1
 -12 -13   5   98.84   20.69   1
 -11 -13   5    5.76    9.64   1
 -10 -13   5   65.45   15.95   1
  -9 -13   5   -6.95    5.54   1
  -8 -13   5  173.80   24.17   1
  -7 -13   5  100.28   18.71   1
  -6 -13   5   39.22   12.18   1
  -5 -13   5   12.39    7.87   1
  -4 -13   5   15.66    8.30   1
  -3 -13   5   -5.19    4.99   1
  -2 -13   5    5.91    5.67   1
  -1 -13   5   10.48    6.44   1
   0 -13   5   42.51   11.03   1
   1 -13   5  101.55   17.12   1
  -2  13  -5   13.36    8.68   3
   2 -13   5    3.55    6.80   1
   3 -13   5  100.31   16.61   1
  -3  13  -5   99.26   16.96   3
  -4  13  -5   16.73    9.00   3
   4 -13   5   -8.96    5.59   1
  -5  13  -5   55.56   13.46   3
   5 -13   5  113.86   18.93   1
  -6  13  -5  125.51   20.40   3
   6 -13   5  160.33   21.83   1
   7 -13   5   54.30   15.38   1
  -7  13  -5   36.14   12.89   3
   8 -13   5   44.44   14.01   1
 -14 -12   5   -5.56    9.72   1
 -13 -12   5    5.29   10.15   1
 -12 -12   5   -1.30    8.22   1
 -11 -12   5   26.22   11.67   1
 -10 -12   5    2.40    9.51   1
  -9 -12   5   31.18   11.58   1
  -8 -12   5    3.70    7.52   1
  -7 -12   5    2.89    8.11   1
  -6 -12   5  196.26   24.04   1
  -5 -12   5   19.36    8.04   1
  -4 -12   5  177.78   21.07   1
  -3 -12   5   78.69   14.25   1
  -2 -12   5   -2.55    4.16   1
  -1 -12   5   52.20   11.75   1
   0 -12   5  101.14   15.76   1
  -1  12  -5    8.90    7.34   3
   1 -12   5   15.31    7.18   1
  -2  12  -5    5.19    6.62   3
   2 -12   5    8.33    7.15   1
   3 -12   5   -3.74    6.11   1
  -3  12  -5   -0.49    5.88   3
   4 -12   5   68.53   13.77   1
  -4  12  -5   23.25    9.59   3
  -5  12  -5    1.98    7.43   3
   5 -12   5  -10.06    6.13   1
   6 -12   5   -2.69    7.17   1
  -6  12  -5    6.78    8.20   3
  -7  12  -5   11.38    9.27   3
   7 -12   5   25.03   11.87   1
   8 -12   5    6.72    9.91   1
  -8  12  -5   -7.26    5.87   3
 -14 -11   5   -0.64    9.63   1
 -13 -11   5   12.59    9.41   1
 -12 -11   5   81.03   18.36   1
 -11 -11   5  108.40   19.93   1
 -10 -11   5   45.77   13.78   1
  -9 -11   5   -1.00    6.91   1
  -8 -11   5   29.79   11.15   1
  -7 -11   5   49.95   12.96   1
  -6 -11   5   13.20    8.64   1
  -5 -11   5    7.35    5.32   1
  -4 -11   5   13.25    6.86   1
  -3 -11   5    9.51    6.14   1
  -2 -11   5  101.18   14.97   1
  -1 -11   5   26.74    8.53   1
   0 -11   5   29.48    8.47   1
  -1  11  -5  181.33   19.04   3
   1 -11   5  193.58   19.18   1
   2 -11   5   84.37   14.34   1
  -2  11  -5   91.88   14.59   3
  -3  11  -5  116.08   16.63   3
   3 -11   5  117.35   16.42   1
   4 -11   5   -0.03    5.94   1
  -4  11  -5    3.61    6.77   3
  -5  11  -5  150.21   19.51   3
   5 -11   5  162.54   19.48   1
   6 -11   5   97.31   17.04   1
  -6  11  -5  114.85   18.34   3
  -7  11  -5   -0.43    7.29   3
   7 -11   5   -0.35    8.07   1
   8 -11   5   20.96   10.42   1
  -8  11  -5    5.82    8.70   3
  -9  11  -5    6.64    8.98   3
   9 -11   5    5.62    9.64   1
 -10  11  -5   -1.91    9.40   3
 -15 -10   5   37.59   13.28   1
 -14 -10   5   70.82   17.82   1
 -13 -10   5  118.44   22.23   1
 -12 -10   5    5.43    8.42   1
 -11 -10   5    0.96    7.05   1
 -10 -10   5  172.45   23.07   1
  -9 -10   5   -5.40    5.07   1
  -8 -10   5  122.59   19.32   1
  -7 -10   5  174.98   21.47   1
  -6 -10   5  201.02   22.05   1
  -5 -10   5   25.57    8.45   1
  -4 -10   5  167.06   18.86   1
  -3 -10   5  148.42   17.30   1
  -2 -10   5   27.51    7.93   1
  -1 -10   5   40.26    9.39   1
   0  10  -5   15.33    8.04   3
   0 -10   5   15.11    6.68   1
   1 -10   5    7.80    5.58   1
  -1  10  -5    2.67    5.83   3
   2 -10   5   12.51    6.40   1
  -2  10  -5    5.76    6.58   3
  -3  10  -5   -3.40    5.68   3
   3 -10   5    3.14    5.78   1
  -4  10  -5   61.41   12.23   3
   4 -10   5   30.68    8.95   1
  -5  10  -5   86.57   14.70   3
   5 -10   5   40.10   10.91   1
  -6  10  -5   14.79    8.51   3
   6 -10   5  -10.02    5.99   1
   7 -10   5   -0.35    7.73   1
  -7  10  -5   -0.93    6.92   3
  -8  10  -5    3.65    7.85   3
   8 -10   5   10.42    9.40   1
  -9  10  -5    7.51    7.79   3
   9 -10   5   14.39    9.85   1
 -10  10  -5   76.69   16.42   3
 -11  10  -5   16.07   10.40   3
 -15  -9   5   20.38   12.07   1
 -14  -9   5   75.96   17.40   1
 -13  -9   5   36.83   12.27   1
 -12  -9   5   99.31   19.28   1
 -11  -9   5  348.08   28.88   1
 -10  -9   5    9.24    7.80   1
  -9  -9   5  239.57   25.10   1
  -8  -9   5   15.36    8.51   1
  -7  -9   5    9.60    6.90   1
  -6  -9   5    1.46    5.45   1
  -5  -9   5   83.41   13.88   1
  -4  -9   5   -2.99    4.23   1
  -3  -9   5   17.88    7.15   1
  -2  -9   5   78.15   12.22   1
  -1  -9   5  156.03   15.73   1
   0  -9   5    3.28    5.01   1
   0   9  -5    0.26    5.75   3
   1  -9   5  394.89   23.31   1
  -1   9  -5  414.07   23.27   3
  -2   9  -5   13.54    7.10   3
   2  -9   5    7.16    5.37   1
  -3   9  -5  169.53   17.24   3
   3  -9   5  186.48   17.15   1
  -4   9  -5  212.42   17.96   3
   4  -9   5  208.09   17.27   1
   5  -9   5    2.23    6.33   1
  -5   9  -5   -2.85    5.14   3
   6  -9   5   10.42    6.96   1
  -6   9  -5   15.89    8.31   3
  -7   9  -5   32.20   10.89   3
   7  -9   5   27.79   10.05   1
   8  -9   5  129.08   18.05   1
  -8   9  -5  121.34   18.82   3
  -9   9  -5   -7.94    6.30   3
   9  -9   5   -5.16    7.08   1
  10  -9   5   13.05   10.02   1
 -10   9  -5    6.42    8.41   3
 -11   9  -5   55.81   14.84   3
 -12   9  -5    6.89    9.64   3
 -16  -8   5    9.17    9.75   4
 -16  -8   5    4.46   10.42   1
 -15  -8   5   43.69   12.35   4
 -15  -8   5   22.65   11.62   1
 -14  -8   5   23.48   11.09   1
 -14  -8   5   10.22    7.21   4
 -13  -8   5   -5.76    6.16   1
 -13  -8   5    0.79    5.40   4
 -12  -8   5   17.87    9.90   1
 -12  -8   5   17.01    9.06   4
 -11  -8   5   25.93   10.65   1
 -11  -8   5   20.53    8.76   4
 -10  -8   5  179.87   22.12   1
  -9  -8   5   -2.60    5.10   1
  -8  -8   5   39.00   11.48   1
  -7  -8   5  164.67   19.38   1
  -6  -8   5   78.61   13.37   1
  -5  -8   5  137.83   16.79   1
  -4  -8   5   13.39    6.17   1
  -3  -8   5   47.52    9.86   1
  -2  -8   5   42.95    9.08   1
  -1  -8   5   15.75    5.94   1
   1   8  -5   22.20    6.61   3
   0  -8   5  425.30   23.57   1
   0   8  -5  485.86   23.54   3
   1  -8   5   14.35    5.88   1
  -1   8  -5   26.49    7.84   3
   2  -8   5  264.41   17.78   1
  -2   8  -5  225.89   17.24   3
  -3   8  -5   71.02   11.66   3
   3  -8   5   56.02    9.98   1
  -4   8  -5   -2.14    5.15   3
   4  -8   5    7.37    5.41   1
  -5   8  -5   44.73   11.23   3
   5  -8   5   43.40   10.06   1
   6  -8   5    5.34    6.52   1
  -6   8  -5    8.29    7.00   3
  -7   8  -5   26.72    9.84   3
   7  -8   5   45.07   11.01   1
  -8   8  -5  224.51   23.26   3
   8  -8   5  287.92   22.64   1
   9  -8   5   50.71   13.23   1
  -9   8  -5   55.92   13.45   3
 -10   8  -5  221.04   24.85   3
  10  -8   5  240.29   24.79   1
 -11   8  -5    1.54    7.54   3
 -12   8  -5    3.33    7.57   3
 -13   8  -5   20.95   10.96   3
 -16  -7   5   39.73   14.23   1
 -16  -7   5   30.16   12.82   4
 -15  -7   5   -4.93    8.66   1
 -15  -7   5   -3.64    6.06   4
 -14  -7   5   71.96   16.63   1
 -14  -7   5   30.39   10.98   4
 -13  -7   5  189.85   23.95   4
 -13  -7   5  230.14   26.99   1
 -12  -7   5   -1.25    6.99   1
 -12  -7   5    0.68    5.87   4
 -11  -7   5  132.47   18.95   4
 -11  -7   5  170.91   21.79   1
 -10  -7   5    4.24    6.38   1
 -10  -7   5   -1.21    5.42   4
  -9  -7   5   28.16    9.40   4
  -9  -7   5   28.84    9.71   1
  -8  -7   5   44.88   10.55   1
  -8  -7   5   31.81    8.79   4
  -7  -7   5   12.89    6.63   1
  -6  -7   5   -3.40    4.42   1
  -5  -7   5   22.85    7.74   1
  -4  -7   5  126.12   14.83   1
  -3  -7   5  253.06   18.05   1
  -2  -7   5   17.04    5.85   1
   1   7  -5  272.72   17.37   2
   1   7  -5  278.91   15.86   3
  -1  -7   5  276.84   17.41   1
   0   7  -5    3.25    4.55   3
   0  -7   5    5.28    4.25   1
   0   7  -5   15.78    6.89   2
   1  -7   5  189.77   14.07   1
  -1   7  -5  203.13   13.30   2
  -1   7  -5  154.99   13.02   3
   2  -7   5  321.84   18.72   1
  -2   7  -5  298.80   18.77   3
  -2   7  -5  322.43   16.11   2
   3  -7   5   50.56    8.94   1
  -3   7  -5   70.43   11.13   3
  -3   7  -5   57.83    7.48   2
  -4   7  -5  333.64   21.52   3
   4  -7   5  300.05   19.45   1
  -5   7  -5   52.93   10.92   3
   5  -7   5   50.25   10.15   1
   6  -7   5    5.15    6.15   1
  -6   7  -5   -2.89    4.90   3
   7  -7   5   66.88   12.49   1
  -7   7  -5   49.30   11.41   3
   8  -7   5   -4.80    5.85   1
  -8   7  -5    0.02    5.80   3
   9  -7   5   23.75    9.56   1
  -9   7  -5   23.80    9.45   3
  10  -7   5   36.50   12.10   1
 -10   7  -5   49.41   12.79   3
 -11   7  -5   48.98   12.78   3
 -12   7  -5   52.51   13.47   3
 -13   7  -5   -6.51    7.34   3
 -16  -6   5   10.55   11.58   1
 -16  -6   5   -0.73    7.22   4
 -15  -6   5    7.77    6.81   4
 -15  -6   5   -2.05    8.42   1
 -14  -6   5   33.25   11.48   4
 -14  -6   5   12.47    9.66   1
 -13  -6   5    9.84    7.38   4
 -13  -6   5   51.62   14.05   1
 -12  -6   5   10.89    8.14   1
 -12  -6   5   11.45    7.22   4
 -11  -6   5   28.75   10.54   1
 -11  -6   5   36.87   10.15   4
 -10  -6   5    1.04    4.26   4
 -10  -6   5   -2.23    5.25   1
  -9  -6   5  109.71   16.52   1
  -9  -6   5   75.30   13.19   4
  -8  -6   5  101.04   14.79   4
  -8  -6   5   71.93   13.28   1
  -7  -6   5  299.32   21.94   1
  -7  -6   5  301.42   21.18   4
  -6  -6   5  170.04   16.70   4
  -6  -6   5  189.98   16.32   1
  -5  -6   5   23.00    7.54   1
  -4  -6   5  442.31   24.70   1
   3   6  -5   45.89    9.55   2
  -3  -6   5   77.90   11.07   1
   2   6  -5  113.90   12.15   2
  -2  -6   5  124.06   12.55   1
   1   6  -5   12.99    6.41   2
  -1  -6   5    8.53    4.87   1
   1   6  -5    8.32    4.17   3
   0   6  -5  179.08   12.28   3
   0  -6   5  163.56   12.07   1
   0   6  -5  185.91   12.68   2
  -1   6  -5  345.89   18.33   3
   1  -6   5  365.39   18.53   1
  -1   6  -5  326.54   16.73   2
  -2   6  -5   26.73    6.37   2
  -2   6  -5   20.32    6.45   3
   2  -6   5   17.54    5.58   1
   3  -6   5    2.82    3.81   1
  -3   6  -5   11.67    5.59   3
  -3   6  -5   11.75    4.94   2
  -4   6  -5  206.80   16.50   3
   4  -6   5  221.27   15.70   1
   5  -6   5  104.42   12.23   1
  -5   6  -5   68.24   11.95   3
   6  -6   5   64.15   11.58   1
  -6   6  -5   45.67   10.77   3
  -7   6  -5   32.68    9.96   3
   7  -6   5   36.42   10.17   1
   8  -6   5  373.34   24.66   1
  -8   6  -5  363.69   25.98   3
   9  -6   5    1.22    7.81   1
  -9   6  -5   -6.52    4.55   3
 -10   6  -5   10.86    7.74   3
  10  -6   5   14.47    9.60   1
 -11   6  -5  121.47   19.12   3
 -12   6  -5   20.38   10.68   3
 -13   6  -5   19.91   10.91   3
 -14   6  -5   -1.74    8.49   3
 -16  -5   5    7.94   10.47   1
 -16  -5   5   -6.46    6.78   4
  13   5  -5   36.60   13.51   1
  12   5  -5  115.42   18.84   1
  11   5  -5   99.72   17.20   1
  -8  -5   5    3.83    5.53   1
  -8  -5   5    1.75    4.09   4
  -7  -5   5   42.51    9.90   4
  -7  -5   5   30.09    9.25   1
  -6  -5   5   24.77    8.10   1
  -6  -5   5   20.50    7.26   4
  -5  -5   5   38.54    8.27   4
  -5  -5   5   29.28    7.49   1
   4   5  -5   31.75    8.50   2
  -4  -5   5   49.42    9.09   1
  -3  -5   5  305.69   18.70   1
   3   5  -5  309.48   18.13   2
  -2  -5   5  439.55   22.15   1
   2   5  -5  454.05   21.52   2
   1   5  -5  195.76   12.76   2
  -1  -5   5  204.39   13.41   1
   1   5  -5  191.11   10.90   3
   0   5  -5  714.14   27.52   2
   0   5  -5  759.49   27.35   3
   0  -5   5  759.28   28.73   1
  -1   5  -5    2.38    3.51   3
   1  -5   5    2.23    3.18   1
  -1   5  -5   -1.83    4.47   2
   2  -5   5  965.60   34.66   1
  -2   5  -5 1001.25   32.96   2
  -2   5  -5  993.93   36.73   3
   3  -5   5   57.69    7.86   1
  -3   5  -5   38.55    6.25   2
  -3   5  -5   51.48    9.00   3
  -4   5  -5    4.31    5.08   3
  -4   5  -5    2.89    4.05   2
   4  -5   5   -1.22    3.57   1
  -5   5  -5   29.90    8.36   3
   5  -5   5   37.82    8.12   1
   6  -5   5   22.33    7.87   1
  -6   5  -5   21.36    8.32   3
  -7   5  -5    2.35    6.07   3
   7  -5   5   11.58    7.41   1
  -8   5  -5   56.34   12.11   3
   8  -5   5   77.01   13.26   1
  -9   5  -5    8.81    7.60   3
   9  -5   5    2.77    7.44   1
 -10   5  -5   92.61   16.61   3
  10  -5   5  124.82   17.21   1
 -11   5  -5   16.98    8.71   3
  11  -5   5   -7.29    7.55   1
 -12   5  -5   29.55   12.14   3
 -13   5  -5   34.89   12.18   3
 -14   5  -5   25.98   11.38   3
 -15   5  -5   44.01   14.64   3
  16   4  -5    0.51   10.01   1
  15   4  -5    9.49   10.70   1
  14   4  -5    6.70    9.64   1
  13   4  -5   32.98   12.00   1
  12   4  -5   18.61   10.33   1
  11   4  -5  176.66   21.08   1
  10   4  -5   -2.81    8.15   1
   9   4  -5  258.77   21.62   1
   8   4  -5   17.86    8.75   1
   7   4  -5  202.53   16.80   1
   6   4  -5  427.56   23.14   1
  -5  -4   5   -1.20    3.67   4
   5   4  -5   -5.34    5.40   2
  -5  -4   5   -0.39    3.99   1
   4   4  -5  274.53   16.78   2
  -4  -4   5  277.81   16.88   4
  -4  -4   5  295.36   18.06   1
  -3  -4   5  365.60   18.58   4
  -3  -4   5  358.28   19.21   1
   3   4  -5  365.05   19.05   2
   2   4  -5   50.41    7.96   2
  -2  -4   5   74.59    9.06   1
   1   4  -5   12.43    5.48   2
   1   4  -5   12.13    3.49   3
  -1  -4   5   11.64    4.54   1
   0  -4   5   69.96    7.74   1
   0   4  -5   79.32    8.39   2
   0   4  -5   73.83    7.18   3
  -1   4  -5   24.02    5.76   2
  -1   4  -5   20.55    5.32   3
   1  -4   5   22.67    5.04   1
  -2   4  -5  285.34   16.48   3
  -2   4  -5  317.58   14.29   2
   2  -4   5  273.35   14.02   1
   3  -4   5  163.13   10.96   1
  -3   4  -5  180.93   13.35   3
  -3   4  -5  165.72   10.06   2
   4  -4   5  743.81   28.23   1
  -4   4  -5  694.89   31.43   3
  -4   4  -5  751.51   25.32   2
   5  -4   5  223.83   14.39   1
  -5   4  -5  200.20   16.28   3
  -5   4  -5  214.43   11.76   2
  -6   4  -5   77.65   12.73   3
   6  -4   5   73.70   10.24   1
   7  -4   5   31.19    9.12   1
  -7   4  -5   16.74    7.92   3
   8  -4   5    4.84    7.32   1
  -8   4  -5    2.59    5.58   3
  -9   4  -5  138.86   18.22   3
   9  -4   5  215.20   19.28   1
  10  -4   5  169.97   17.95   1
 -10   4  -5  258.40   24.50   3
  11  -4   5  383.21   26.65   1
 -11   4  -5  390.29   29.00   3
 -12   4  -5    0.01    6.82   3
 -13   4  -5    6.58    7.22   3
 -14   4  -5   -5.54    7.87   3
 -15   4  -5   -3.45    7.95   3
  16   3  -5   22.78   12.73   1
  15   3  -5  200.78   25.90   1
  14   3  -5   15.20   11.17   1
  13   3  -5  186.03   23.53   1
  12   3  -5    4.01    7.92   1
  11   3  -5   89.20   16.96   1
  10   3  -5   69.84   14.48   1
   9   3  -5    0.84    7.73   1
   8   3  -5   15.48    8.94   1
   7   3  -5   27.61    8.83   1
   6   3  -5   73.13   11.26   1
   5   3  -5   -0.17    5.54   1
   5   3  -5    0.61    5.60   2
   4   3  -5    5.09    5.71   2
   4   3  -5    6.01    5.16   1
   3   3  -5 1497.97   49.99   2
  -3  -3   5 1577.79   49.07   4
  -3  -3   5 1504.77   50.72   1
  -2  -3   5  161.59   11.07   4
   2   3  -5  152.04   11.83   2
  -2  -3   5  174.73   11.83   1
  -1  -3   5  335.54   16.02   1
   1   3  -5  341.13   16.62   2
   0   3  -5   75.47    6.61   3
   0  -3   5   67.67    6.76   1
   0   3  -5   59.49    7.41   2
  -1   3  -5  291.89   14.58   3
   1  -3   5  312.48   13.12   1
  -1   3  -5  298.61   13.99   2
  -2   3  -5  206.90   12.93   3
  -2   3  -5  214.09   11.48   2
  -3   3  -5  566.47   24.93   3
  -3   3  -5  578.90   21.56   2
  -4   3  -5   38.15    7.99   3
  -4   3  -5   45.74    6.19   2
  -5   3  -5    5.29    4.95   3
   5  -3   5   -0.32    2.08   1
  -5   3  -5    4.31    3.61   2
  -6   3  -5   54.33   10.42   3
   6  -3   5   44.08    7.88   1
  -6   3  -5   50.81    6.27   2
  -7   3  -5   86.50   13.75   3
   7  -3   5   83.03   11.29   1
  -7   3  -5   89.00    8.16   2
   8  -3   5    5.65    7.32   1
  -8   3  -5   -1.28    4.73   3
  -9   3  -5  317.34   23.74   3
   9  -3   5  322.38   21.43   1
 -10   3  -5    1.59    5.81   3
  10  -3   5    1.66    7.32   1
 -11   3  -5  136.69   19.73   3
  11  -3   5  144.21   16.98   1
 -12   3  -5   49.36   12.64   3
 -13   3  -5   60.60   14.07   3
 -14   3  -5   16.21   10.09   3
 -15   3  -5  103.15   18.77   3
  16   2  -5   29.43   13.38   1
  15   2  -5   12.34   11.52   1
  14   2  -5   37.34   13.34   1
  13   2  -5   41.07   12.79   1
  12   2  -5    6.21    8.07   1
  11   2  -5  119.33   18.29   1
  10   2  -5    4.44    8.86   1
   9   2  -5  139.64   17.35   1
  -8  -2   5   88.79    9.13   3
   8   2  -5  115.25   15.72   1
   7   2  -5   77.56   12.61   1
  -7  -2   5   68.89    7.48   3
   6   2  -5   62.96   10.67   1
   5   2  -5  497.91   22.63   2
   5   2  -5  496.47   24.02   1
   4   2  -5  258.33   15.13   2
   4   2  -5  255.90   15.49   1
   3   2  -5 2709.54   79.96   1
   3   2  -5 2852.38   82.31   2
   2   2  -5 1222.85   40.10   2
   2   2  -5 1211.63   38.41   1
  -1  -2   5    4.87    3.73   1
  -1  -2   5    0.85    3.15   4
   1   2  -5    5.02    6.18   2
   1   2  -5    1.80    2.39   3
   0   2  -5   21.64    6.57   2
   0  -2   5   10.87    2.98   1
  -1   2  -5  636.86   23.06   2
  -1   2  -5  644.47   23.38   3
   2  -2   5  122.93    7.10   1
  -2   2  -5  119.79    8.95   2
  -2   2  -5  108.88    9.32   3
  -3   2  -5  406.71   20.07   3
  -3   2  -5  472.62   18.23   2
   3  -2   5  443.10   16.39   1
  -4   2  -5 1275.08   39.97   2
  -4   2  -5 1249.02   44.47   3
   4  -2   5 1197.04   38.12   1
  -5   2  -5  569.15   27.52   3
   5  -2   5  587.98   22.93   1
  -5   2  -5  599.78   23.16   2
  -6   2  -5  704.49   32.96   3
  -6   2  -5  752.02   28.15   2
  -7   2  -5  126.33   10.23   2
  -7   2  -5  114.96   14.55   3
  -8   2  -5    4.06    3.92   2
   8  -2   5   -0.74    4.14   1
  -8   2  -5    3.42    5.29   3
   9  -2   5   82.28   12.87   1
  -9   2  -5   66.71   12.87   3
  10  -2   5   46.98   11.81   1
 -10   2  -5   46.03   11.81   3
 -11   2  -5  327.63   25.41   3
  11  -2   5  326.45   22.69   1
 -12   2  -5   23.32    9.87   3
 -13   2  -5    1.46    7.57   3
 -14   2  -5   10.55    7.75   3
 -15   2  -5   10.06    9.04   3
  16   1  -5    2.09   11.32   1
  15   1  -5   66.13   16.82   1
  14   1  -5   19.74   10.80   1
  13   1  -5   51.92   15.40   1
  12   1  -5   16.71   10.19   1
  11   1  -5   31.54   11.63   1
  10   1  -5   12.67    8.56   1
   9   1  -5   31.51   10.64   1
  -8  -1   5  114.74   10.37   3
   8   1  -5  109.28   15.46   1
  -7  -1   5   24.50    5.17   3
   7   1  -5   23.97    9.35   1
   6   1  -5   15.95    7.31   1
  -6  -1   5   20.99    4.38   3
   6   1  -5   19.50    6.70   2
  -5  -1   5  304.19   12.62   3
   5   1  -5  290.55   18.18   1
   5   1  -5  310.32   16.40   2
   4   1  -5  225.32   13.74   2
  -4  -1   5  238.42    9.46   3
   4   1  -5  249.75   15.06   1
   3   1  -5   19.91    6.23   1
   3   1  -5   34.80    6.62   2
   2   1  -5   16.11    5.33   1
   2   1  -5   19.44    5.89   2
   1   1  -5   72.93    6.59   1
   1   1  -5   99.63    8.30   2
   1   1  -5   98.94    4.65   3
   0   1  -5  126.45    9.02   2
  -1   1  -5   10.99    4.91   2
   1  -1   5    2.19    2.00   1
   2  -1   5   43.48    3.72   1
  -2   1  -5   43.78    5.78   2
  -3   1  -5    7.00    3.63   2
   3  -1   5   11.89    3.22   1
  -4   1  -5    9.90    4.27   2
   4  -1   5    8.63    4.05   1
  -5   1  -5  295.67   18.38   3
  -5   1  -5  312.97   16.03   2
   5  -1   5  311.19   14.57   1
  -6   1  -5   77.00   11.71   3
  -6   1  -5   94.10    9.71   2
   6  -1   5   95.26    9.55   1
   7  -1   5   30.62    6.88   1
  -7   1  -5   27.10    7.99   3
  -7   1  -5   45.60    7.63   2
  -8   1  -5  363.51   19.79   2
  -8   1  -5  319.78   22.66   3
  -9   1  -5   17.88    6.29   2
  -9   1  -5    9.09    6.45   3
   9  -1   5    0.84    3.64   1
  10  -1   5   14.12    8.65   1
 -10   1  -5   13.64    7.67   3
  11  -1   5  155.06   16.89   1
 -11   1  -5  206.30   21.53   3
 -12   1  -5    1.89    5.71   3
 -13   1  -5  208.77   23.79   3
 -14   1  -5   23.88   11.00   3
 -15   1  -5    0.79    6.76   3
  16   0  -5  -22.92    9.80   1
  15   0  -5   -5.73    9.34   1
  14   0  -5    7.17    9.14   1
  13   0  -5   72.04   15.54   1
  12   0  -5    5.03    9.06   1
  11   0  -5   92.76   16.89   1
  10   0  -5   41.62   12.72   1
   9   0  -5   61.41   13.17   1
  -9   0   5   86.24   10.38   3
  -8   0   5 1267.68   42.88   3
   8   0  -5 1205.18   49.47   1
  -7   0   5   42.22    6.80   3
   7   0  -5   40.86   10.26   1
  -6   0   5  418.46   17.44   3
   6   0  -5  369.40   21.64   1
   5   0  -5    5.89    5.73   1
  -5   0   5    4.49    2.84   3
   5   0  -5   10.76    4.22   2
  -4   0   5  570.03   18.69   3
   4   0  -5  537.29   24.03   1
   4   0  -5  565.18   21.90   2
  -3   0   5   54.91    3.92   3
   3   0  -5   52.23    7.74   1
   3   0  -5   55.01    6.86   2
   2   0  -5  118.42    9.43   2
   2   0  -5  110.18    9.43   1
   1   0  -5    8.38    5.23   2
   1   0  -5    4.10    4.34   1
   0   0  -5  580.70   21.60   2
   0   0  -5  613.61   18.96   1
  -1   0  -5    8.71    2.09   1
  -1   0  -5    9.87    3.90   2
  -2   0  -5 2511.20   73.97   2
  -3   0  -5   24.60    5.46   2
   3   0   5   22.55    3.42   1
  -4   0  -5 4721.79  137.11   2
   4   0   5 4884.73  126.68   1
   5   0   5  503.77   19.07   1
  -5   0  -5  488.02   22.59   2
  -6   0  -5  106.88   11.21   2
   6   0   5  105.80    9.43   1
   7   0   5 1172.00   39.16   1
  -7   0  -5 1095.06   42.80   2
  -8   0  -5   88.32   11.27   2
  -9   0  -5   18.65    6.66   2
  -9   0  -5   25.48    8.58   3
 -10   0  -5   87.39   14.38   3
 -10   0  -5   82.32   11.99   2
  10   0   5   58.33   10.22   1
  11   0   5   20.46    9.09   1
 -11   0  -5   15.82    6.91   3
 -12   0  -5   21.59    8.58   3
 -13   0  -5    6.28    6.71   3
 -14   0  -5   12.48    8.13   3
 -15   0  -5   -0.28    6.26   3
  15  -1  -5    4.54    8.85   1
  14  -1  -5   69.46   17.39   1
  13  -1  -5    4.41    8.61   1
  12  -1  -5   13.15    9.54   1
  11  -1  -5   19.95    9.94   1
  10  -1  -5   53.22   13.37   1
  -9   1   5    6.50    5.65   3
   9  -1  -5   11.00    8.72   1
  -8   1   5  167.30   12.93   3
   8  -1  -5  156.97   17.68   1
  -7   1   5    6.77    4.32   3
   7  -1  -5    1.33    6.75   1
  -6   1   5  351.66   16.40   3
   6  -1  -5  350.86   16.96   2
   6  -1  -5  309.40   20.42   1
   5  -1  -5   62.24   10.22   1
  -5   1   5   51.56    5.98   3
   5  -1  -5   57.73    7.09   2
  -4   1   5  149.85    8.21   3
   4  -1  -5  141.08    9.41   2
   4  -1  -5  124.38   11.93   1
   3  -1  -5  542.87   23.21   1
  -3   1   5  548.83   17.94   3
   2  -1  -5 1125.91   35.49   2
   2  -1  -5 1129.64   36.97   1
   1  -1  -5  332.36   14.69   1
   1  -1  -5  311.88   14.70   2
   0  -1  -5   81.22    6.62   1
   0  -1  -5   89.80    7.47   2
  -1  -1  -5   17.03    4.67   2
  -1  -1  -5   25.36    3.08   1
  -2  -1  -5  436.51   19.03   2
  -2  -1  -5  444.93   13.14   1
  -3  -1  -5  244.59    9.13   1
  -3  -1  -5  246.21   14.10   2
   4   1   5  200.61    9.15   1
  -4  -1  -5  234.14   14.42   2
  -5  -1  -5   18.64    5.76   2
   5   1   5   16.04    4.57   1
   6   1   5  557.11   21.43   1
  -6  -1  -5  522.14   25.71   2
  -7  -1  -5   45.52    8.87   2
   7   1   5   55.10    8.03   1
  -8  -1  -5   49.86    9.71   2
   8   1   5   26.20    7.24   1
  -9  -1  -5  150.20   15.81   2
  10   1   5    9.27    4.49   1
 -10  -1  -5   13.66    6.42   2
 -11  -1  -5  129.89   16.51   2
  11   1   5  150.17   15.73   1
 -11  -1  -5  117.83   17.38   3
  12   1   5   78.30   12.98   1
 -12  -1  -5   73.88   14.34   3
 -13  -1  -5  412.03   29.63   3
 -14  -1  -5   63.10   14.21   3
 -15  -1  -5    3.00    6.89   3
  15  -2  -5   72.17   17.72   1
  14  -2  -5   17.13   11.37   1
  13  -2  -5   39.76   12.88   1
  12  -2  -5    8.99    9.42   1
  11  -2  -5   89.79   17.13   1
  10  -2  -5  282.10   24.09   1
  -9   2   5   43.12    9.13   3
   9  -2  -5   48.01   12.50   1
   8  -2  -5  377.66   25.66   1
  -8   2   5  383.35   20.33   3
  -7   2   5   18.37    5.91   3
   7  -2  -5   23.72   10.59   1
   6  -2  -5   38.98   10.08   1
  -6   2   5   34.52    6.50   3
   6  -2  -5   42.92    6.59   2
   5  -2  -5   21.37    5.13   2
   5  -2  -5   17.72    7.64   1
  -5   2   5   23.62    5.19   3
  -4   2   5  178.79    9.96   3
   4  -2  -5  172.45   10.10   2
   4  -2  -5  151.33   13.04   1
   3  -2  -5   41.18    5.62   2
  -3   2   5   45.80    5.14   3
   3  -2  -5   53.07    8.34   1
   2  -2  -5  670.96   22.65   2
   2  -2  -5  615.83   24.86   1
   1  -2  -5  503.85   20.00   1
   0  -2  -5  124.94    8.56   2
   0  -2  -5  121.26    8.36   1
  -1  -2  -5   34.78    4.24   1
  -1  -2  -5   29.70    5.57   2
  -2  -2  -5  311.78   16.08   2
  -2  -2  -5  309.18   11.39   1
  -3  -2  -5  297.45   11.62   1
  -3  -2  -5  311.67   16.63   2
  -4  -2  -5    4.52    4.49   2
  -4  -2  -5   11.40    3.45   1
  -5  -2  -5  837.93   26.69   4
  -5  -2  -5  798.09   27.52   1
  -5  -2  -5  793.52   33.64   2
  -6  -2  -5  149.54   14.23   2
   6   2   5  136.68    9.56   1
  -7  -2  -5 1544.48   57.36   2
   7   2   5 1523.46   48.45   1
  -8  -2  -5  163.20   16.75   2
   9   2   5    1.64    2.70   1
  -9  -2  -5   12.91    6.46   2
 -10  -2  -5   13.70    7.16   2
  10   2   5   -2.94    3.61   1
 -11  -2  -5   29.01    8.96   2
  11   2   5   14.31    8.34   1
  12   2   5    4.04    7.12   1
 -12  -2  -5   11.98    7.20   2
 -13  -2  -5   49.05   12.36   3
 -14  -2  -5   12.47    6.99   3
 -15  -2  -5   19.55    8.94   3
  15  -3  -5    8.99   11.84   1
  14  -3  -5   74.70   17.22   1
  13  -3  -5   -4.67    7.98   1
  12  -3  -5   11.77   10.73   1
  11  -3  -5   13.41   10.65   1
  10  -3  -5   16.81    9.94   1
  -9   3   5    6.44    6.04   3
   9  -3  -5   -1.14    8.48   1
   8  -3  -5   15.48    9.53   1
  -8   3   5   -5.10    4.36   3
   7  -3  -5   63.52   13.05   1
  -7   3   5   55.64    9.01   3
  -6   3   5  641.56   26.10   3
   6  -3  -5  591.50   31.14   1
   5  -3  -5   18.86    7.90   1
  -5   3   5   15.24    5.07   3
   5  -3  -5   18.45    4.53   2
   4  -3  -5  411.50   15.77   2
   4  -3  -5  376.36   21.18   1
  -4   3   5  393.64   17.39   3
  -3   3   5    0.32    3.04   3
   3  -3  -5    3.26    3.77   2
   3  -3  -5    6.05    5.44   1
   2  -3  -5  168.61    9.91   2
   2  -3  -5  168.17   12.58   1
   1  -3  -5  553.47   22.12   2
   1  -3  -5  715.61   24.85   1
   0  -3  -5   71.07    7.23   1
   0  -3  -5   89.59    7.80   2
  -1  -3  -5  171.41   11.77   2
  -1  -3  -5  183.52   10.02   1
  -2  -3  -5  108.08   10.39   2
  -2  -3  -5   97.29    6.92   1
  -3  -3  -5  167.55   12.99   2
  -3  -3  -5  183.00    9.53   1
  -4  -3  -5   25.60    4.70   1
  -4  -3  -5   28.43    7.22   2
  -5  -3  -5  339.85   15.91   1
  -5  -3  -5  342.32   20.71   2
  -6  -3  -5  102.32    9.31   1
  -6  -3  -5  107.51    8.89   4
  -7  -3  -5  284.49   15.70   1
  -7  -3  -5  242.08   14.43   4
  -8  -3  -5   97.99   11.07   1
  -8  -3  -5  113.85   11.15   4
  10   3   5    6.53    6.32   1
 -10  -3  -5    3.28    5.98   2
  11   3   5   83.44   13.30   1
 -11  -3  -5   86.20   15.93   2
  12   3   5  444.64   26.02   1
 -12  -3  -5  400.87   30.57   2
 -13  -3  -5    2.10    7.16   2
 -14  -3  -5   52.67   11.87   3
 -15  -3  -5    1.43    5.84   3
  14  -4  -5   26.72   13.08   1
  13  -4  -5   41.53   13.65   1
  12  -4  -5   67.96   16.67   1
  11  -4  -5    4.05    8.20   1
  10  -4  -5   69.97   15.72   1
   9  -4  -5  219.93   23.08   1
  -9   4   5  178.28   14.98   3
  -8   4   5   -2.50    5.79   3
   8  -4  -5   12.95    9.76   1
   7  -4  -5  836.38   40.71   1
  -7   4   5  835.49   33.88   3
  -6   4   5    1.87    4.81   3
   6  -4  -5   12.88    8.45   1
   5  -4  -5  182.26    9.54   2
  -5   4   5  170.88   12.43   3
   5  -4  -5  189.63   17.49   1
   4  -4  -5    8.80    3.86   2
  -4   4   5   13.65    5.06   3
   4  -4  -5    8.37    6.17   1
  -3   4   5   53.76    7.26   3
   3  -4  -5   65.72    6.00   2
   3  -4  -5   39.83    8.61   1
   2  -4  -5  661.37   27.11   1
   2  -4  -5  598.89   22.34   2
   1  -4  -5    6.10    3.73   2
   1  -4  -5    4.55    4.34   1
   0  -4  -5  248.87   13.51   1
  -1  -4  -5   28.63    5.27   1
  -1  -4  -5   37.12    6.83   2
  -2  -4  -5   73.49    9.16   2
  -2  -4  -5   67.24    6.80   1
  -3  -4  -5  149.98   12.49   2
  -3  -4  -5  162.82    9.79   1
  -4  -4  -5   19.63    6.76   2
  -4  -4  -5   20.06    4.83   1
  -5  -4  -5 1224.02   40.79   1
  -6  -4  -5    8.09    3.89   1
  -7  -4  -5  242.97   14.90   1
  -8  -4  -5   48.70    8.33   1
  -8  -4  -5   40.65    7.65   4
  -9  -4  -5   26.99    6.99   1
  -9  -4  -5   30.17    7.28   4
 -10  -4  -5   34.61    8.39   4
 -10  -4  -5   50.12    9.77   1
 -11  -4  -5    0.16    5.18   4
 -11  -4  -5    5.62    5.57   1
 -12  -4  -5   28.46    9.48   1
 -12  -4  -5   14.73    5.87   4
 -12  -4  -5   26.72   11.51   2
 -13  -4  -5   83.59   19.31   2
 -14  -4  -5   14.27   10.26   2
  14  -5  -5   -2.56   10.24   1
  13  -5  -5   35.80   13.71   1
  12  -5  -5   -3.42    8.83   1
  11  -5  -5   11.81   11.88   1
  10  -5  -5   35.80   12.70   1
   9  -5  -5   39.54   11.96   1
  -9   5   5   14.87    6.62   3
  -8   5   5   24.44    7.48   3
   8  -5  -5   43.73   13.07   1
  -7   5   5    0.09    6.26   3
   7  -5  -5    3.31    8.58   1
  -6   5   5  120.50   12.47   3
   6  -5  -5  135.54   17.48   1
   5  -5  -5  403.72   24.89   1
  -5   5   5  374.61   19.81   3
  -4   5   5  128.61   11.17   3
   4  -5  -5  128.82   14.45   1
   4  -5  -5  126.17    7.67   2
  -3   5   5  422.19   20.38   3
   3  -5  -5  474.04   24.66   1
   3  -5  -5  458.46   17.46   2
   2  -5  -5    7.02    3.57   2
   2  -5  -5    3.30    5.33   1
   1  -5  -5   19.04    5.94   1
   1  -5  -5   13.39    4.43   2
   0  -5  -5  217.48   13.50   1
  -1  -5  -5   49.43    7.76   2
  -1  -5  -5   50.76    7.30   1
  -2  -5  -5  336.80   16.31   1
  -2  -5  -5  314.12   18.41   2
  -3  -5  -5    8.43    3.70   1
  -3  -5  -5    4.82    5.01   2
  -4  -5  -5   18.73    5.09   1
  -5  -5  -5  403.53   19.49   1
  -6  -5  -5    6.56    4.31   1
  -7  -5  -5  519.86   24.55   1
  -8  -5  -5   28.38    7.14   1
  -9  -5  -5  148.58   14.45   1
 -10  -5  -5  311.97   20.22   4
 -10  -5  -5  368.29   22.08   1
 -11  -5  -5   50.97   10.65   1
 -11  -5  -5   39.89    8.95   4
 -12  -5  -5  194.93   19.47   1
 -12  -5  -5  207.18   18.70   4
 -13  -5  -5  -17.19    8.67   2
 -14  -5  -5  117.48   24.92   2
 -15  -5  -5   24.42   13.89   2
  13  -6  -5   12.79   11.40   1
  12  -6  -5  160.47   25.22   1
  11  -6  -5   94.14   18.91   1
  10  -6  -5   20.45   11.55   1
   9  -6  -5   21.47   12.26   1
  -9   6   5   62.64   12.03   3
   8  -6  -5   53.21   13.90   1
  -8   6   5   54.25   10.49   3
   7  -6  -5    8.70   10.15   1
  -7   6   5    2.81    6.27   3
   6  -6  -5   10.12    8.76   1
  -6   6   5    2.77    5.83   3
   5  -6  -5   35.22   10.56   1
  -5   6   5   15.42    7.08   3
   4  -6  -5  141.01   15.95   1
  -4   6   5  142.55   13.16   3
   3  -6  -5    4.50    3.98   2
   3  -6  -5    7.15    6.42   1
  -3   6   5    7.07    5.56   3
   2  -6  -5   77.54   11.26   1
   2  -6  -5   86.09    7.69   2
   1  -6  -5    9.34    5.66   1
   1  -6  -5   15.02    4.85   2
   0  -6  -5 1088.01   38.55   2
   0  -6  -5 1035.44   38.68   1
  -1  -6  -5  189.95   13.01   1
  -1  -6  -5  213.22   14.16   2
  -2  -6  -5   72.93   10.15   2
  -2  -6  -5   58.32    8.27   1
  -3  -6  -5   75.91   11.50   2
  -3  -6  -5   76.99    8.94   1
  -4  -6  -5  160.10   11.60   1
  -5  -6  -5   74.52    9.51   1
  -6  -6  -5  148.52   12.22   1
  -7  -6  -5    7.43    4.81   1
  -8  -6  -5  145.77   14.05   1
  -9  -6  -5    9.33    5.52   1
 -10  -6  -5    9.71    5.73   1
 -11  -6  -5   75.14   12.52   1
 -12  -6  -5    0.03    5.02   1
 -14  -6  -5    1.83   11.92   2
 -15  -6  -5  104.98   26.93   2
  13  -7  -5    3.57   12.93   1
  12  -7  -5   35.16   14.19   1
  11  -7  -5   -2.02    8.88   1
  10  -7  -5   -3.03    9.19   1
   9  -7  -5   38.41   13.30   1
  -9   7   5   61.63   11.99   3
   8  -7  -5   33.60   13.36   1
  -8   7   5   29.17    8.74   3
   7  -7  -5  131.66   19.24   1
  -7   7   5  121.97   14.44   3
  -6   7   5   50.11   10.36   3
   6  -7  -5   47.31   12.69   1
   5  -7  -5  203.52   20.73   1
  -5   7   5  195.47   16.05   3
   4  -7  -5    5.00    7.91   1
  -4   7   5    2.34    6.48   3
   3  -7  -5   70.58   12.45   1
   2  -7  -5  152.46   10.10   2
   2  -7  -5  131.05   14.61   1
   1  -7  -5   76.57   10.99   1
   1  -7  -5   74.35    8.63   2
   0  -7  -5  367.18   19.01   2
   0  -7  -5  336.11   19.55   1
  -1  -7  -5   27.09    6.79   2
  -1  -7  -5   34.32    7.34   1
  -2  -7  -5   -2.01    3.51   1
  -2  -7  -5    3.17    4.42   2
  -3  -7  -5  228.18   14.84   1
  -4  -7  -5   13.01    5.45   1
  -5  -7  -5   -1.26    3.25   1
  -6  -7  -5   -1.67    3.76   1
  -7  -7  -5   73.97   10.87   1
  -8  -7  -5   94.15   12.72   1
  -9  -7  -5  212.81   17.07   1
 -10  -7  -5  231.57   18.41   1
 -11  -7  -5    7.54    6.34   1
 -12  -7  -5   27.10    9.05   1
 -15  -7  -5  174.90   38.30   2
 -16  -7  -5   34.89   22.78   2
  12  -8  -5   33.53   15.09   1
  11  -8  -5   31.58   13.80   1
  10  -8  -5  -12.48    7.38   1
  -9   8   5   66.47   12.59   3
   9  -8  -5   42.44   14.53   1
  -8   8   5   39.65   10.45   3
   8  -8  -5   -0.94    9.16   1
  -7   8   5    7.54    6.91   3
   7  -8  -5    5.45    8.45   1
  -6   8   5   13.93    7.12   3
   6  -8  -5    7.81    8.60   1
   5  -8  -5    5.30    8.92   1
  -5   8   5    4.93    6.86   3
  -4   8   5   -1.24    6.28   3
   4  -8  -5   13.20    9.09   1
   3  -8  -5  120.69   15.78   1
   2  -8  -5    9.42    7.07   1
   1  -8  -5  191.63   15.68   1
   1  -8  -5  207.31   13.55   2
   0  -8  -5    1.17    4.07   2
   0  -8  -5    1.70    5.11   1
  -2  -8  -5  555.32   26.19   1
  -2  -8  -5  517.53   27.32   2
  -3  -8  -5   47.65    8.62   1
  -4  -8  -5  761.27   32.88   1
  -5  -8  -5   30.27    7.40   1
  -6  -8  -5   13.14    5.58   1
  -7  -8  -5    6.12    5.62   1
  -8  -8  -5   84.52   12.90   1
  -9  -8  -5   12.37    6.24   1
 -10  -8  -5    0.55    5.68   1
 -11  -8  -5   63.68   12.81   1
 -12  -8  -5    8.22    6.39   1
 -15  -8  -5  -10.13   16.65   2
 -16  -8  -5  -14.71   20.13   2
 -17  -8  -5   95.92   38.73   2
  11  -9  -5    8.71    6.97   1
  10  -9  -5   38.29   15.52   1
   9  -9  -5   13.67   11.23   1
  -9   9   5    7.93    7.52   3
   8  -9  -5  126.20   21.15   1
  -8   9   5  139.35   17.59   3
   7  -9  -5    6.08    9.17   1
  -7   9   5    6.92    7.73   3
  -6   9   5   13.34    8.26   3
   6  -9  -5   27.23   11.32   1
   5  -9  -5  113.12   18.10   1
  -5   9   5  123.41   15.67   3
   4  -9  -5    9.67    8.78   1
   3  -9  -5   59.23   12.67   1
   2  -9  -5  254.93   20.40   1
   1  -9  -5   24.16    8.22   1
   0  -9  -5   28.21    8.34   1
   0  -9  -5   14.48    6.10   2
  -1  -9  -5  102.03   13.10   1
  -2  -9  -5   47.33    9.55   1
  -2  -9  -5   21.71    7.57   2
  -3  -9  -5   37.56    8.77   1
  -4  -9  -5  103.20   13.02   1
  -5  -9  -5   -2.70    3.69   1
  -6  -9  -5  118.18   14.14   1
  -7  -9  -5   16.12    6.54   1
  -8  -9  -5  111.80   14.95   1
  -9  -9  -5   44.41   10.15   1
 -10  -9  -5  205.54   20.30   1
 -11  -9  -5  118.53   16.78   1
 -12  -9  -5   14.48    8.27   1
 -16  -9  -5   19.62   26.85   2
  10 -10  -5    4.56    7.33   1
   9 -10  -5   28.48   13.20   1
  -9  10   5   36.33   10.86   3
  -8  10   5   -5.45    6.79   3
   8 -10  -5   27.76   11.94   1
  -7  10   5    8.96    7.71   3
   7 -10  -5   -5.78    8.38   1
   6 -10  -5   -5.67    7.46   1
  -6  10   5   -2.29    6.72   3
   5 -10  -5   10.28    8.95   1
   4 -10  -5   -8.11    6.47   1
   3 -10  -5    1.51    7.52   1
   2 -10  -5    7.47    7.24   1
   1 -10  -5  100.77   14.82   1
   0 -10  -5  272.14   20.74   1
  -1 -10  -5   97.54   14.22   1
  -1 -10  -5  111.56   13.27   2
  -2 -10  -5   44.52    9.90   1
  -2 -10  -5   60.38   11.09   2
  -3 -10  -5   10.15    5.77   1
  -3 -10  -5   11.31    6.79   2
  -4 -10  -5  245.02   18.68   1
  -5 -10  -5  206.62   17.37   1
  -6 -10  -5    2.72    4.61   1
  -7 -10  -5   -7.68    3.69   1
  -8 -10  -5    8.41    6.55   1
  -9 -10  -5    1.11    5.98   1
 -10 -10  -5   35.25   10.56   1
 -11 -10  -5   32.72   10.19   1
 -12 -10  -5   87.89   15.99   1
  -9  11   5   56.85   13.55   3
  -8  11   5   14.53    9.29   3
   8 -11  -5    5.41    9.05   1
   7 -11  -5   21.61   11.89   1
   6 -11  -5   34.97   13.58   1
   5 -11  -5   24.50   11.21   1
   4 -11  -5   64.67   14.98   1
   3 -11  -5   56.73   13.00   1
   2 -11  -5   69.21   13.69   1
   1 -11  -5    7.48    7.27   1
   0 -11  -5   49.90   11.50   1
  -1 -11  -5   -3.70    5.08   1
  -2 -11  -5    1.65    6.21   1
  -2 -11  -5   12.34    6.11   2
  -3 -11  -5  203.25   17.47   1
  -3 -11  -5  160.55   18.72   2
  -4 -11  -5  136.83   16.78   1
  -5 -11  -5   15.79    7.03   1
  -6 -11  -5  255.30   20.57   1
  -7 -11  -5    2.68    5.72   1
  -8 -11  -5  333.14   24.44   1
  -9 -11  -5    1.10    6.56   1
 -10 -11  -5  152.64   19.67   1
 -11 -11  -5   -1.42    6.25   1
 -12 -11  -5   12.16    8.40   1
   8 -12  -5    7.66    7.31   1
   7 -12  -5   -3.35    6.00   1
   6 -12  -5    6.06   10.44   1
   5 -12  -5    4.51    9.40   1
   4 -12  -5    3.83    8.26   1
   3 -12  -5   16.49    9.51   1
   2 -12  -5   26.72   10.57   1
   1 -12  -5   56.10   13.45   1
   0 -12  -5  152.87   18.78   1
  -1 -12  -5   48.23   11.71   1
  -2 -12  -5   26.68    9.51   1
  -3 -12  -5   59.47   12.52   2
  -3 -12  -5   65.41   12.98   1
  -4 -12  -5  103.58   16.89   2
  -4 -12  -5  106.05   15.86   1
  -5 -12  -5   58.43   12.58   1
  -6 -12  -5   11.55    7.30   1
  -7 -12  -5   14.33    7.72   1
  -8 -12  -5    3.64    5.69   1
  -9 -12  -5   56.56   13.14   1
 -10 -12  -5   -0.69    5.77   1
 -11 -12  -5    9.69    7.91   1
 -12 -12  -5   76.11   15.93   1
   7 -13  -5  -10.64    4.96   1
   6 -13  -5   -9.34    4.22   1
   5 -13  -5    5.57    9.89   1
   4 -13  -5   23.72   11.27   1
   3 -13  -5    3.23    8.00   1
   2 -13  -5   17.75   10.21   1
   1 -13  -5    3.95    7.20   1
   0 -13  -5    1.57    7.81   1
  -1 -13  -5   55.35   13.05   1
  -2 -13  -5    9.60    6.88   1
  -3 -13  -5   23.89    9.86   1
  -4 -13  -5   78.39   15.45   2
  -4 -13  -5   74.99   14.59   1
  -5 -13  -5   -5.13    6.04   1
  -6 -13  -5  133.97   18.84   1
  -7 -13  -5  180.97   21.60   1
  -8 -13  -5   29.12   10.45   1
  -9 -13  -5   -6.42    5.99   1
 -10 -13  -5   14.96    9.17   1
 -11 -13  -5   81.56   15.51   1
 -12 -13  -5   48.62   13.38   1
   5 -14  -5    0.95    5.67   1
   4 -14  -5   -6.63    4.76   1
   3 -14  -5  -11.87    6.92   1
   2 -14  -5  105.35   18.98   1
   1 -14  -5    7.24    8.42   1
   0 -14  -5   83.57   15.90   1
  -1 -14  -5    4.03    7.82   1
  -2 -14  -5   60.02   13.96   1
  -3 -14  -5   25.53    9.73   1
  -4 -14  -5    3.44    6.49   1
  -5 -14  -5   40.45   12.13   1
  -5 -14  -5   41.32   12.34   2
  -6 -14  -5   11.10    7.92   1
  -6 -14  -5   16.93    9.60   2
  -7 -14  -5   37.91   11.25   1
  -8 -14  -5   -2.00    6.88   1
  -9 -14  -5    5.34    7.41   1
 -10 -14  -5   72.37   15.01   1
 -11 -14  -5   23.58    9.77   1
 -12 -14  -5   32.95   11.42   1
   3 -15  -5   -3.08    5.62   1
   2 -15  -5   -7.10    8.20   1
   1 -15  -5   25.64   10.59   1
   0 -15  -5    1.48    7.82   1
  -1 -15  -5   -3.62    6.15   1
  -2 -15  -5   13.89    7.98   1
  -3 -15  -5   -3.56    6.09   1
  -4 -15  -5   27.07   10.56   1
  -5 -15  -5   13.46    9.09   1
  -6 -15  -5   55.98   15.13   2
  -6 -15  -5   51.23   13.95   1
  -7 -15  -5  166.13   22.94   1
  -7 -15  -5  180.30   26.84   2
  -8 -15  -5   22.74   10.22   1
  -9 -15  -5   26.00   10.85   1
 -10 -15  -5   14.83    8.83   1
 -11 -15  -5   11.78    9.12   1
 -12 -15  -5   17.37    9.80   1
   1 -16  -5   43.44   13.91   1
   0 -16  -5    7.82    9.90   1
  -1 -16  -5   28.00   11.31   1
  -2 -16  -5   19.27    9.88   1
  -3 -16  -5    0.43    8.40   1
  -4 -16  -5   -2.89    7.39   1
  -5 -16  -5   12.10    7.82   1
  -6 -16  -5   17.95    8.84   1
  -7 -16  -5    5.82    8.33   2
  -7 -16  -5   -2.85    7.82   1
  -8 -16  -5   15.76   10.06   2
  -8 -16  -5    6.95    8.28   1
  -9 -16  -5   49.90   13.72   1
  -9 -16  -5   34.46   13.45   2
 -10 -16  -5    6.59    8.03   1
 -10 -16  -5    5.55   11.47   2
 -11 -16  -5   68.91   16.78   1
  -2 -17  -5    4.58   11.72   1
  -3 -17  -5    9.58   10.10   1
  -4 -17  -5    0.09    9.96   1
  -5 -17  -5   51.20   15.73   1
  -6 -17  -5   29.29   12.63   1
  -7 -17  -5   58.29   15.77   1
  -8 -17  -5   -2.44    7.51   1
  -8 -17  -5   26.32    9.82   2
  -9 -17  -5   29.93   15.98   2
  -4 -17   6   -3.31    5.95   1
  -3 -17   6    0.50    5.89   1
  -2 -17   6    2.99    5.15   1
  -1 -17   6    5.67    4.79   1
  -8 -16   6  -13.21    8.68   1
  -7 -16   6    1.56    6.31   1
  -6 -16   6   -1.55    4.58   1
  -5 -16   6   -3.93    4.76   1
  -4 -16   6   -1.19    5.29   1
  -3 -16   6  -10.65    5.37   1
  -2 -16   6  -11.25    4.97   1
  -1 -16   6    3.82    6.36   1
   0 -16   6    1.17    5.40   1
   1 -16   6    0.80    7.72   1
   2 -16   6   32.45   12.40   1
   3 -16   6   16.06   10.93   1
 -10 -15   6   37.61   14.32   1
  -9 -15   6   32.13   14.09   1
  -8 -15   6   79.38   17.55   1
  -7 -15   6   -3.76    5.96   1
  -6 -15   6  108.39   18.93   1
  -5 -15   6   15.12    9.68   1
  -4 -15   6   73.35   15.78   1
  -3 -15   6   -5.81    5.32   1
  -2 -15   6    3.48    6.21   1
  -1 -15   6   -6.23    5.97   1
   0 -15   6   -1.46    5.05   1
   1 -15   6   -2.50    5.25   1
   2 -15   6   31.58   11.52   1
   3 -15   6   74.83   15.92   1
   4 -15   6  136.29   20.89   1
   5 -15   6   -8.47    7.91   1
 -11 -14   6    3.88    9.50   1
 -10 -14   6    0.78    8.86   1
  -9 -14   6   12.74    9.44   1
  -8 -14   6    6.02    9.07   1
  -7 -14   6   23.12   10.22   1
  -6 -14   6   -2.86    6.16   1
  -5 -14   6  102.70   18.14   1
  -4 -14   6   55.59   13.59   1
  -3 -14   6  159.11   21.71   1
  -2 -14   6   25.69    9.65   1
  -1 -14   6    4.43    6.29   1
   0 -14   6   81.67   15.33   1
   1 -14   6   34.83   11.07   1
   2 -14   6    7.20    7.29   1
   3 -14   6   28.56   10.10   1
  -3  14  -6   29.70   10.94   3
  -4  14  -6   -2.69    6.98   3
   4 -14   6   11.98    9.65   1
   5 -14   6   17.61    9.79   1
  -5  14  -6    3.39    4.52   3
  -6  14  -6    7.76    8.37   3
   6 -14   6   20.28   10.12   1
   7 -14   6    2.78   10.99   1
 -13 -13   6   16.09   12.48   1
 -12 -13   6    1.83    9.17   1
 -11 -13   6   72.65   17.78   1
 -10 -13   6   30.05   12.44   1
  -9 -13   6  200.64   26.74   1
  -8 -13   6   29.22   12.33   1
  -7 -13   6   48.75   14.39   1
  -6 -13   6   22.30    9.61   1
  -5 -13   6   20.44    8.33   1
  -4 -13   6   12.14    7.62   1
  -3 -13   6  -11.76    3.87   1
  -2 -13   6    7.70    6.28   1
  -1 -13   6   -2.30    5.41   1
   0 -13   6    2.57    6.11   1
   1 -13   6    6.81    7.09   1
  -2  13  -6  161.58   20.64   3
   2 -13   6  143.64   19.45   1
   3 -13   6   18.22    9.12   1
  -3  13  -6    7.27    7.15   3
  -4  13  -6   86.10   16.16   3
   4 -13   6  105.33   17.49   1
  -5  13  -6    0.13    6.38   3
   5 -13   6    9.88    8.39   1
  -6  13  -6   10.89    9.54   3
   6 -13   6    4.69    8.38   1
  -7  13  -6   82.73   16.91   3
   7 -13   6  113.95   19.29   1
 -13 -12   6  -14.35    8.43   1
 -12 -12   6   14.80   10.21   1
 -11 -12   6   14.60    9.90   1
 -10 -12   6    0.21    6.72   1
  -9 -12   6    3.75    7.49   1
  -8 -12   6    8.56    7.81   1
  -7 -12   6  114.88   19.81   1
  -6 -12   6   49.16   13.05   1
  -5 -12   6   38.99   10.58   1
  -4 -12   6  213.89   23.07   1
  -3 -12   6   22.40    8.23   1
  -2 -12   6   59.95   12.70   1
  -1 -12   6  133.73   17.75   1
   0 -12   6   54.88   12.19   1
  -1  12  -6   70.37   13.73   3
   1 -12   6   66.73   13.06   1
  -2  12  -6    1.06    6.39   3
   2 -12   6    9.12    6.93   1
   3 -12   6    9.57    6.52   1
  -3  12  -6   -0.63    6.19   3
   4 -12   6   31.13   10.29   1
  -4  12  -6   17.10    7.94   3
   5 -12   6    2.78    7.19   1
  -5  12  -6   -3.17    5.78   3
  -6  12  -6   30.05   11.50   3
   6 -12   6   41.11   12.53   1
  -7  12  -6   13.80    9.70   3
   7 -12   6    9.23    9.34   1
   8 -12   6   24.45   11.53   1
  -8  12  -6   20.94   11.14   3
 -14 -11   6   25.96   12.13   1
 -13 -11   6   32.16   12.87   1
 -12 -11   6   41.28   13.15   1
 -11 -11   6   85.82   18.56   1
 -10 -11   6  161.54   23.98   1
  -9 -11   6  173.25   24.44   1
  -8 -11   6   98.33   17.84   1
  -7 -11   6   13.14    8.56   1
  -6 -11   6    7.42    6.85   1
  -5 -11   6  115.85   17.34   1
  -4 -11   6   12.17    6.67   1
  -3 -11   6   -8.88    4.39   1
  -2 -11   6   14.63    6.94   1
  -1 -11   6    4.95    5.09   1
   0 -11   6   74.22   13.45   1
   0  11  -6   71.58   12.54   3
   1 -11   6    8.31    5.33   1
  -1  11  -6   16.71    7.74   3
  -2  11  -6  124.12   16.41   3
   2 -11   6  155.28   17.92   1
  -3  11  -6   49.58   11.88   3
   3 -11   6   44.51   11.02   1
   4 -11   6  154.31   18.37   1
  -4  11  -6   92.28   15.18   3
  -5  11  -6   22.66    9.31   3
   5 -11   6   37.22   10.97   1
  -6  11  -6   59.12   13.03   3
   6 -11   6   64.77   13.69   1
  -7  11  -6  146.07   20.70   3
   7 -11   6  178.98   21.87   1
   8 -11   6   40.90   12.79   1
  -8  11  -6   33.50   11.77   3
  -9  11  -6   35.92   13.04   3
 -15 -10   6   -0.31    9.72   1
 -14 -10   6   51.98   15.70   1
 -13 -10   6   -0.45    8.57   1
 -12 -10   6   21.82   11.15   1
 -11 -10   6   15.89    9.83   1
 -10 -10   6    5.29    8.21   1
  -9 -10   6   43.62   12.58   1
  -8 -10   6   44.90   12.45   1
  -7 -10   6   60.35   13.98   1
  -6 -10   6   56.89   12.86   1
  -5 -10   6   20.42    7.94   1
  -4 -10   6  219.59   21.35   1
  -3 -10   6    4.91    5.12   1
  -2 -10   6  303.63   21.49   1
  -1 -10   6    5.78    5.45   1
   0  10  -6   14.12    7.61   3
   0 -10   6   10.32    6.10   1
   1 -10   6    8.18    5.89   1
  -1  10  -6   25.51    8.65   3
  -2  10  -6  124.25   15.64   3
   2 -10   6  123.92   15.29   1
   3 -10   6   12.51    7.03   1
  -3  10  -6   29.34    9.31   3
  -4  10  -6   18.57    8.34   3
   4 -10   6    6.02    6.75   1
  -5  10  -6   -4.96    5.21   3
   5 -10   6   -4.56    5.50   1
   6 -10   6   69.95   13.15   1
  -6  10  -6   46.94   11.97   3
  -7  10  -6   -0.75    7.25   3
   7 -10   6   -5.47    6.38   1
   8 -10   6   19.32   10.36   1
  -8  10  -6   11.78    9.19   3
   9 -10   6   86.90   16.46   1
  -9  10  -6   95.76   18.00   3
 -10  10  -6   -4.20    7.88   3
 -11  10  -6   45.57   14.93   3
 -15  -9   6  106.97   22.32   1
 -14  -9   6    8.55    9.64   1
 -13  -9   6   41.52   13.41   1
 -12  -9   6   48.93   13.20   1
 -11  -9   6   32.94   12.05   1
 -10  -9   6  309.43   29.71   1
  -9  -9   6   25.15   10.30   1
  -8  -9   6  193.86   22.44   1
  -7  -9   6    5.77    6.46   1
  -6  -9   6   -9.20    3.95   1
  -5  -9   6   58.64   11.87   1
  -4  -9   6   16.43    6.75   1
  -3  -9   6  125.31   15.85   1
  -2  -9   6   67.81   11.94   1
  -1  -9   6   17.60    6.66   1
   1   9  -6   30.19    8.33   3
   0   9  -6   80.02   11.64   3
   0  -9   6   53.31    9.92   1
  -1   9  -6   87.72   12.59   3
   1  -9   6   78.91   11.68   1
  -2   9  -6    8.18    7.09   3
   2  -9   6   10.52    5.56   1
  -3   9  -6  110.27   14.81   3
   3  -9   6  144.25   15.29   1
   4  -9   6   -2.01    4.61   1
  -4   9  -6    5.20    6.80   3
  -5   9  -6  114.03   15.99   3
   5  -9   6  114.49   14.98   1
   6  -9   6   -4.57    5.70   1
  -6   9  -6  -10.51    4.84   3
   7  -9   6  193.23   20.63   1
  -7   9  -6  231.50   23.23   3
   8  -9   6   24.27    9.91   1
  -8   9  -6    5.27    7.50   3
  -9   9  -6    3.19    7.51   3
   9  -9   6   11.49    8.84   1
 -10   9  -6    1.39    7.28   3
 -11   9  -6    4.19    8.82   3
 -12   9  -6    8.36    9.14   3
 -15  -8   6    1.28    7.65   1
 -15  -8   6   10.34    7.60   4
 -14  -8   6    2.57    6.14   4
 -14  -8   6   -7.65    6.29   1
 -13  -8   6   10.03    9.37   1
 -13  -8   6   28.89    9.58   4
 -12  -8   6    4.21    8.15   1
 -12  -8   6   27.62    9.55   4
 -11  -8   6   21.25    9.47   1
 -11  -8   6   26.24    9.96   4
 -10  -8   6   22.25    9.63   1
 -10  -8   6   25.00    9.53   4
  -9  -8   6   10.28    7.18   1
  -8  -8   6   37.41   10.92   1
  -7  -8   6   16.78    7.82   1
  -6  -8   6  319.88   23.33   1
  -5  -8   6    6.10    5.49   1
  -4  -8   6  167.37   17.59   1
  -3  -8   6  194.48   16.34   1
  -2  -8   6   13.75    5.94   1
   1   8  -6  604.92   27.43   3
  -1  -8   6  617.29   29.97   1
   1   8  -6  666.85   29.86   2
   0  -8   6   71.63   10.67   1
   0   8  -6   90.15   11.09   3
   0   8  -6   64.54   10.87   2
  -1   8  -6  311.62   18.61   2
  -1   8  -6  357.70   20.39   3
   1  -8   6  329.18   20.30   1
   2  -8   6   15.15    6.08   1
  -2   8  -6   16.23    7.58   2
  -2   8  -6   28.72    8.37   3
   3  -8   6   13.05    6.55   1
  -3   8  -6   31.38    9.14   3
  -4   8  -6    7.25    6.43   3
   4  -8   6    9.12    5.95   1
  -5   8  -6  105.92   15.32   3
   5  -8   6   87.23   12.69   1
   6  -8   6  181.58   17.61   1
  -6   8  -6  218.39   21.22   3
  -7   8  -6  224.17   22.64   3
   7  -8   6  176.47   18.68   1
  -8   8  -6    9.90    6.79   3
   8  -8   6    0.16    6.41   1
  -9   8  -6  346.39   27.66   3
   9  -8   6  391.94   27.60   1
 -10   8  -6   66.54   15.09   3
 -11   8  -6   18.21   10.74   3
 -12   8  -6   26.83   11.94   3
 -16  -7   6   -7.06    6.51   4
 -16  -7   6    7.21    9.89   1
 -15  -7   6   39.35   14.15   1
 -15  -7   6   20.43   10.87   4
 -14  -7   6   10.11    7.77   4
 -14  -7   6   24.91   10.70   1
 -13  -7   6   83.18   16.31   4
 -13  -7   6   67.21   16.13   1
 -12  -7   6  122.89   19.56   4
 -12  -7   6  147.76   21.91   1
 -11  -7   6   16.98    7.58   4
 -11  -7   6   21.58    9.27   1
 -10  -7   6   83.34   14.49   4
 -10  -7   6   77.68   15.17   1
  -9  -7   6   84.21   14.68   4
  -9  -7   6   52.09   12.59   1
  -8  -7   6   58.23   11.92   4
  -8  -7   6   79.86   14.29   1
  -7  -7   6   12.05    6.78   1
  -6  -7   6   38.19    9.83   1
  -5  -7   6    5.35    4.96   1
  -4  -7   6   15.83    6.58   1
   3   7  -6  219.38   17.49   2
  -3  -7   6  214.55   16.65   1
   2   7  -6  991.84   39.07   2
  -2  -7   6  979.82   40.04   1
   1   7  -6  194.91   15.06   2
   1   7  -6  196.75   13.13   3
  -1  -7   6  198.97   15.04   1
   0   7  -6   23.16    8.11   2
   0   7  -6   24.17    6.18   3
   0  -7   6   27.70    6.68   1
  -1   7  -6   46.25    8.61   3
   1  -7   6   63.78    9.37   1
  -1   7  -6   57.45    8.98   2
   2  -7   6   23.78    6.29   1
  -2   7  -6   12.89    5.74   3
  -2   7  -6   16.45    6.79   2
  -3   7  -6  777.22   34.49   3
  -3   7  -6  768.16   28.58   2
   3  -7   6  776.67   32.86   1
   4  -7   6   40.69    8.76   1
  -4   7  -6   54.23   10.55   3
  -5   7  -6   96.62   14.39   3
   5  -7   6  125.26   13.76   1
   6  -7   6   59.18   11.35   1
  -6   7  -6   48.24   11.36   3
   7  -7   6   64.09   12.35   1
  -7   7  -6   67.39   14.06   3
  -8   7  -6   12.37    8.11   3
   8  -7   6   13.20    7.93   1
  -9   7  -6   38.43   11.18   3
   9  -7   6   29.56   10.52   1
 -10   7  -6   -5.06    6.21   3
 -11   7  -6   11.28    7.53   3
 -12   7  -6    6.60    7.79   3
 -13   7  -6   34.16   12.00   3
 -16  -6   6   33.80   14.32   1
 -16  -6   6   42.02   12.80   4
 -15  -6   6   -1.40    6.48   4
 -15  -6   6   -3.13    8.96   1
 -14  -6   6    1.45    6.47   4
 -14  -6   6   12.11    8.62   1
 -13  -6   6   11.01    8.20   1
 -13  -6   6    7.70    6.51   4
 -12  -6   6    3.10    6.33   4
 -12  -6   6   14.17    9.89   1
 -11  -6   6   44.25   11.63   4
 -11  -6   6   12.28    9.03   1
 -10  -6   6   53.90   12.60   1
 -10  -6   6   54.47   11.75   4
  -9  -6   6    8.39    5.88   4
  -9  -6   6    2.52    6.46   1
  -8  -6   6  531.17   30.19   4
  -8  -6   6  536.20   31.73   1
  -7  -6   6    6.55    4.95   4
  -7  -6   6    4.01    5.74   1
  -6  -6   6  363.86   23.43   1
  -6  -6   6  332.89   21.97   4
  -5  -6   6  146.59   15.79   1
   4   6  -6  394.92   22.79   2
  -4  -6   6  382.27   23.24   1
  -3  -6   6  221.50   16.21   1
   3   6  -6  224.69   16.17   2
  -2  -6   6   96.37   11.64   1
   2   6  -6  100.01   11.53   2
   1   6  -6  411.49   18.32   3
   1   6  -6  393.70   20.37   2
  -1  -6   6  388.47   20.77   1
   0   6  -6   74.09    9.65   2
   0  -6   6   73.51    9.27   1
   0   6  -6   73.22    8.67   3
  -1   6  -6    8.18    4.59   3
   1  -6   6    3.38    3.54   1
  -1   6  -6    4.06    5.75   2
   2  -6   6   25.37    6.00   1
  -2   6  -6   16.11    5.94   3
  -2   6  -6   24.15    6.72   2
   3  -6   6    8.84    4.34   1
  -3   6  -6    1.50    4.04   3
  -3   6  -6   12.36    5.70   2
   4  -6   6   95.13   10.76   1
  -4   6  -6  102.86    9.03   2
  -4   6  -6   86.60   12.42   3
   5  -6   6   50.48    9.79   1
  -5   6  -6   30.86    9.49   3
   6  -6   6   14.84    7.37   1
  -6   6  -6   11.85    7.83   3
   7  -6   6  402.04   23.63   1
  -7   6  -6  342.87   25.27   3
   8  -6   6   -4.13    6.95   1
  -8   6  -6    1.18    5.97   3
  -9   6  -6   22.47    9.48   3
   9  -6   6   22.91    9.85   1
  10  -6   6  317.49   23.92   1
 -10   6  -6  281.53   27.03   3
 -11   6  -6    7.84    7.38   3
 -12   6  -6   74.78   16.79   3
 -13   6  -6   26.81   11.69   3
 -14   6  -6   23.60   12.91   3
 -16  -5   6   25.63    9.81   4
 -16  -5   6   29.40   12.00   1
  14   5  -6   19.81   10.91   1
  13   5  -6   12.39   10.05   1
  12   5  -6   91.08   17.52   1
  11   5  -6  117.90   18.83   1
  10   5  -6   22.79   10.10   1
  -8  -5   6   12.07    6.32   4
  -8  -5   6   11.32    6.76   1
  -7  -5   6  171.68   18.22   1
  -7  -5   6  132.03   15.77   4
  -6  -5   6    3.15    4.58   1
  -6  -5   6    6.07    5.47   4
   5   5  -6   83.90   12.20   2
  -5  -5   6   64.96   10.94   1
  -5  -5   6   84.17   11.61   4
   4   5  -6    7.01    6.98   2
  -4  -5   6   15.50    5.69   4
  -4  -5   6    2.28    4.30   1
   3   5  -6   48.99    9.25   2
  -3  -5   6   60.04    9.84   1
   2   5  -6  878.45   34.07   2
  -2  -5   6  886.05   34.74   1
   1   5  -6  145.30   11.98   2
   1   5  -6  145.54    9.48   3
  -1  -5   6  135.76   11.02   1
   0   5  -6   29.29    5.76   3
   0   5  -6   28.46    6.84   2
   0  -5   6   29.12    6.26   1
   1  -5   6 1124.18   38.36   1
  -1   5  -6 1123.43   37.93   2
  -1   5  -6 1083.88   38.78   3
   2  -5   6   94.19    9.16   1
  -2   5  -6  112.44    9.79   2
  -2   5  -6   84.23   10.32   3
   3  -5   6   42.17    7.18   1
  -3   5  -6   47.18    8.95   3
  -3   5  -6   74.75    7.85   2
  -4   5  -6 1103.34   42.80   3
   4  -5   6 1003.15   37.34   1
  -4   5  -6 1053.78   34.49   2
   5  -5   6    8.95    5.40   1
  -5   5  -6   -2.02    4.98   2
  -5   5  -6    3.33    6.14   3
   6  -5   6  240.91   16.95   1
  -6   5  -6  243.55   19.52   3
   7  -5   6   48.98   10.57   1
  -7   5  -6   30.56    9.50   3
  -8   5  -6   12.63    7.93   3
   8  -5   6   30.35   10.23   1
  -9   5  -6    9.46    7.33   3
   9  -5   6   22.48    9.22   1
 -10   5  -6    8.05    7.48   3
  10  -5   6    1.62    7.54   1
 -11   5  -6   94.41   17.04   3
 -12   5  -6   -5.08    7.08   3
 -13   5  -6   20.50   11.23   3
 -14   5  -6   46.22   13.50   3
 -15   5  -6   11.01   10.65   3
  16   4  -6    6.33   11.57   1
  15   4  -6    3.82    9.41   1
  14   4  -6   14.56   10.87   1
  13   4  -6   22.80   11.72   1
  12   4  -6   12.40    9.98   1
  11   4  -6   34.52   11.95   1
  10   4  -6   14.61    8.91   1
   9   4  -6   25.62   10.11   1
   8   4  -6  156.59   17.91   1
   7   4  -6   23.81    8.72   1
   6   4  -6  216.06   16.93   1
  -5  -4   6  667.90   31.30   1
  -5  -4   6  642.48   29.66   4
   5   4  -6  634.35   29.39   2
  -4  -4   6   39.65    7.69   4
   4   4  -6   59.73    9.83   2
  -4  -4   6   62.43   10.04   1
   3   4  -6   29.01    7.46   2
  -3  -4   6   25.28    6.46   4
  -3  -4   6   27.09    7.17   1
  -2  -4   6  142.38   11.81   1
   2   4  -6  133.33    7.88   3
   2   4  -6  149.14   11.56   2
  -1  -4   6   37.81    6.71   1
   1   4  -6   48.50    7.84   2
   0  -4   6   28.01    5.81   1
   0   4  -6   25.33    5.17   3
   0   4  -6   21.44    6.23   2
  -1   4  -6   61.05    7.60   2
  -1   4  -6   62.28    7.94   3
   1  -4   6   47.82    6.27   1
  -2   4  -6  262.41   15.83   3
   2  -4   6  260.88   13.25   1
  -2   4  -6  235.81   13.17   2
   3  -4   6   -1.54    1.85   1
  -3   4  -6    2.97    4.28   3
  -3   4  -6    6.29    5.13   2
  -4   4  -6   12.30    5.41   2
   4  -4   6    3.68    3.01   1
  -4   4  -6   14.59    5.74   3
  -5   4  -6  317.33   20.79   3
  -5   4  -6  335.87   16.00   2
  -6   4  -6   52.28   10.82   3
   6  -4   6   36.31    7.56   1
  -6   4  -6   56.26    7.52   2
  -7   4  -6   25.11    8.17   3
   7  -4   6   35.91    8.85   1
  -8   4  -6  247.81   20.70   3
   8  -4   6  197.29   16.76   1
   9  -4   6   15.79    9.40   1
  -9   4  -6    3.45    7.02   3
  10  -4   6  223.44   18.73   1
 -10   4  -6  270.17   25.49   3
 -11   4  -6    4.84    7.22   3
 -12   4  -6   80.81   16.78   3
 -13   4  -6    1.19    7.89   3
 -14   4  -6   -6.83    6.63   3
 -15   4  -6    1.60    9.06   3
  16   3  -6   20.33   12.52   1
  15   3  -6   -7.18    9.72   1
  14   3  -6  136.86   21.92   1
  13   3  -6   56.03   15.06   1
  12   3  -6   20.62   10.69   1
  11   3  -6   10.10    8.75   1
  10   3  -6   -9.06    7.28   1
   9   3  -6   59.64   13.16   1
   8   3  -6  154.53   17.51   1
   7   3  -6   96.60   14.06   1
   6   3  -6   22.55    8.19   2
   6   3  -6   28.22    8.12   1
   5   3  -6    7.41    5.94   2
   5   3  -6    1.31    5.97   1
   4   3  -6  445.16   21.37   1
   4   3  -6  427.45   21.21   2
   3   3  -6    8.96    5.61   2
   2   3  -6  457.62   20.64   2
  -2  -3   6  452.92   21.14   1
   2   3  -6  479.67   15.52   3
  -2  -3   6  459.63   20.35   4
   1   3  -6  698.42   26.86   2
   1   3  -6  707.81   22.76   3
  -1  -3   6  704.91   26.51   1
   0  -3   6  276.47   13.47   1
   0   3  -6  259.94   14.72   2
   0   3  -6  264.52   12.86   3
  -1   3  -6  463.84   20.12   3
  -1   3  -6  509.35   20.24   2
  -2   3  -6  227.64   13.89   3
  -2   3  -6  240.24   12.90   2
  -3   3  -6    7.02    5.01   2
   3  -3   6   11.33    3.61   1
  -3   3  -6   21.22    6.04   3
   4  -3   6  238.64   12.38   1
  -4   3  -6  210.30   15.29   3
  -4   3  -6  218.50   12.71   2
  -5   3  -6   72.14    7.75   2
  -5   3  -6   68.11   10.91   3
   5  -3   6   88.07    8.83   1
  -6   3  -6  395.91   23.99   3
  -6   3  -6  407.31   18.17   2
  -7   3  -6    0.11    5.10   3
  -7   3  -6    7.08    4.29   2
   7  -3   6   -0.87    2.57   1
  -8   3  -6  219.62   20.84   3
   9  -3   6   -1.79    4.00   1
  -9   3  -6   -0.77    5.88   3
  10  -3   6   47.64   11.33   1
 -10   3  -6   17.90    8.58   3
 -11   3  -6    1.97    6.71   3
 -12   3  -6   49.68   13.28   3
 -13   3  -6   16.29    9.41   3
 -14   3  -6   23.79   10.94   3
 -15   3  -6   22.34   10.52   3
  16   2  -6   -1.80   10.67   1
  15   2  -6    5.69   10.43   1
  14   2  -6   20.59   11.07   1
  13   2  -6   17.79   11.50   1
  12   2  -6    0.96    8.69   1
  11   2  -6    1.91    7.63   1
  10   2  -6   19.96    9.70   1
   9   2  -6   37.72   11.30   1
   8   2  -6    5.49    8.31   1
  -7  -2   6 1246.07   38.83   3
   7   2  -6 1178.59   47.10   1
   6   2  -6   75.12   11.60   1
   6   2  -6   58.35    9.62   2
  -6  -2   6   66.53    6.05   3
   5   2  -6 1289.49   45.67   2
   5   2  -6 1341.47   46.83   1
   4   2  -6  712.83   28.69   2
   4   2  -6  719.88   28.79   1
   3   2  -6 1416.04   45.32   1
   3   2  -6 1369.35   45.92   2
   2   2  -6  278.83   14.49   1
   2   2  -6  304.70   15.72   2
   1   2  -6  242.97   14.59   2
   1   2  -6  251.26    9.84   3
  -1  -2   6  219.24   12.63   1
  -1  -2   6  231.51   12.17   4
   0  -2   6   -0.46    1.09   1
   0   2  -6    0.77    1.26   3
   0   2  -6    4.74    6.10   2
   1  -2   6  861.78   26.55   1
  -1   2  -6  869.70   29.36   3
  -1   2  -6  798.75   29.24   2
   2  -2   6   33.63    4.00   1
  -2   2  -6   29.91    6.19   3
  -2   2  -6   22.90    5.89   2
   3  -2   6  186.55    9.10   1
  -3   2  -6  139.85   11.80   3
  -3   2  -6  162.11   10.97   2
  -4   2  -6  143.79   10.08   2
  -4   2  -6  181.80   13.48   3
   4  -2   6  158.17    9.63   1
  -5   2  -6 1389.75   50.79   3
   5  -2   6 1416.57   43.59   1
  -5   2  -6 1366.53   45.46   2
   6  -2   6  301.39   16.11   1
  -6   2  -6  306.41   16.19   2
  -6   2  -6  341.44   21.38   3
  -7   2  -6   91.51    9.48   2
   7  -2   6  103.71   11.10   1
  -7   2  -6  107.69   14.63   3
   8  -2   6  600.46   29.11   1
  -8   2  -6  790.48   30.89   2
  -8   2  -6  795.15   37.33   3
   9  -2   6    3.00    4.01   1
  -9   2  -6    3.94    5.66   3
 -10   2  -6   -1.09    5.26   3
  10  -2   6    2.12    3.10   1
 -11   2  -6   13.84    7.28   3
 -12   2  -6   25.78    9.99   3
 -13   2  -6   36.46   12.29   3
 -14   2  -6  -11.57    5.57   3
 -15   2  -6   -1.30    7.76   3
 -16   2  -6   29.22   12.50   3
  16   1  -6   31.24   15.14   1
  15   1  -6    7.69    9.59   1
  14   1  -6   11.61   10.62   1
  13   1  -6    2.34   10.58   1
  12   1  -6  -11.41    7.11   1
  11   1  -6   -0.15    7.20   1
  10   1  -6  135.36   18.63   1
   9   1  -6   33.85   11.60   1
   8   1  -6   54.97   11.92   1
   7   1  -6   10.00    8.24   1
  -7  -1   6   14.70    4.23   3
   6   1  -6   41.98    8.50   2
  -6  -1   6   40.72    5.08   3
   6   1  -6   57.53   10.94   1
  -5  -1   6   31.20    3.97   3
   5   1  -6   27.23    7.79   1
   5   1  -6   40.33    7.78   2
   4   1  -6  154.00   11.66   2
   4   1  -6  164.05   13.19   1
  -4  -1   6  164.82    6.68   3
   3   1  -6 1430.08   46.24   2
   3   1  -6 1429.32   45.97   1
   2   1  -6  442.59   18.63   1
   2   1  -6  425.79   19.14   2
   1   1  -6  299.69   10.39   3
   1   1  -6  286.76   13.24   1
   1   1  -6  267.03   14.51   2
   0   1  -6  332.87   15.91   2
   0   1  -6  333.98   12.94   1
  -1   1  -6  428.23   18.45   2
   1  -1   6  400.33   13.81   1
   2  -1   6 1111.62   30.82   1
  -2   1  -6 1114.89   37.09   2
  -3   1  -6   41.19    6.29   2
   3  -1   6   41.23    4.06   1
  -4   1  -6  604.83   24.20   2
   4  -1   6  583.14   19.93   1
  -5   1  -6  391.78   19.02   2
   5  -1   6  402.46   16.41   1
  -6   1  -6   24.79    7.65   3
  -6   1  -6   32.21    6.48   2
   6  -1   6   36.61    6.79   1
  -7   1  -6    7.00    4.68   2
  -7   1  -6    5.65    6.01   3
   7  -1   6   -3.35    5.10   1
   8  -1   6   -2.42    5.51   1
  -8   1  -6   -0.15    3.80   2
  -8   1  -6    4.62    5.98   3
   9  -1   6   11.43    7.79   1
  -9   1  -6   27.96    7.35   2
  -9   1  -6   14.26    7.06   3
  10  -1   6    3.98    4.75   1
 -10   1  -6   53.92   12.48   3
 -11   1  -6    0.64    4.82   3
 -12   1  -6  176.88   21.79   3
 -13   1  -6   58.90   14.21   3
 -14   1  -6   50.24   13.76   3
 -15   1  -6   40.13   13.55   3
 -16   1  -6   19.97   10.51   3
  15   0  -6    5.24    9.16   1
  14   0  -6    2.55    8.38   1
  13   0  -6    5.81    9.62   1
  12   0  -6   69.52   16.04   1
  11   0  -6    9.20    9.44   1
  10   0  -6  321.99   25.33   1
   9   0  -6  323.80   23.85   1
  -8   0   6    1.81    4.41   3
   8   0  -6   -0.28    7.69   1
  -7   0   6  267.68   14.16   3
   7   0  -6  269.58   20.62   1
   6   0  -6    7.34    6.93   1
   6   0  -6   -1.54    3.87   2
  -6   0   6   -1.66    2.61   3
   5   0  -6  430.69   19.74   2
   5   0  -6  438.76   22.51   1
  -5   0   6  397.99   15.34   3
   4   0  -6   34.67    7.37   1
   4   0  -6   14.40    5.44   2
  -4   0   6   16.92    2.92   3
  -3   0   6   59.98    3.86   3
   3   0  -6   41.41    7.46   1
   3   0  -6   64.38    7.74   2
   2   0  -6  130.74   10.51   1
   2   0  -6  139.74   10.47   2
   1   0  -6   91.54    7.94   1
   1   0  -6   92.57    8.53   2
   0   0  -6   57.57    7.30   2
   0   0  -6   41.40    5.20   1
  -1   0  -6   41.41    6.43   2
  -1   0  -6   38.87    3.63   1
  -2   0  -6    8.29    4.20   2
  -3   0  -6 1695.44   54.03   2
   4   0   6  685.94   21.09   1
  -4   0  -6  667.71   27.39   2
  -5   0  -6   41.05    7.53   2
   5   0   6   31.98    5.07   1
  -6   0  -6  231.25   15.19   2
   6   0   6  219.79   12.19   1
   7   0   6   10.15    5.28   1
  -7   0  -6    7.36    4.89   2
  -8   0  -6  447.06   24.34   2
   8   0   6  451.54   21.64   1
  -9   0  -6  498.89   27.39   2
   9   0   6  568.09   25.77   1
  -9   0  -6  501.38   29.98   3
 -10   0  -6    3.01    4.90   2
  10   0   6   -0.15    6.76   1
 -10   0  -6    5.09    6.16   3
  11   0   6    1.51    4.68   1
 -11   0  -6    4.17    6.49   3
 -12   0  -6    6.19    6.26   3
 -13   0  -6   -0.72    5.68   3
 -14   0  -6    2.65    6.37   3
 -15   0  -6    3.01    7.06   3
  15  -1  -6   -4.21    9.54   1
  14  -1  -6    2.77    9.34   1
  13  -1  -6   23.62   11.36   1
  12  -1  -6   66.65   15.72   1
  11  -1  -6   -5.39    7.30   1
  10  -1  -6  360.05   27.54   1
   9  -1  -6   74.89   14.91   1
  -8   1   6   84.91    9.81   3
   8  -1  -6   78.66   14.41   1
   7  -1  -6    5.50    7.87   1
  -7   1   6    6.75    4.07   3
   6  -1  -6   19.91    6.32   2
  -6   1   6   20.54    4.72   3
   6  -1  -6   12.41    7.42   1
  -5   1   6  559.96   20.05   3
   5  -1  -6  545.21   22.29   2
   5  -1  -6  526.41   26.62   1
  -4   1   6  514.52   18.19   3
   4  -1  -6  567.04   25.45   1
   3  -1  -6 1893.04   58.48   2
   3  -1  -6 2057.55   60.88   1
   2  -1  -6  649.58   24.90   1
   2  -1  -6  620.99   23.25   2
   1  -1  -6   86.56    8.61   2
   1  -1  -6   91.73    8.35   1
   0  -1  -6 1779.26   54.46   2
   0  -1  -6 1751.94   50.11   1
  -1  -1  -6   31.27    6.06   2
  -1  -1  -6   43.42    4.21   1
  -2  -1  -6  857.00   31.89   2
  -2  -1  -6  901.18   24.56   1
  -3  -1  -6 1037.83   37.03   2
  -3  -1  -6  991.71   27.90   1
  -4  -1  -6  148.21    7.28   1
  -4  -1  -6  125.36   11.78   2
  -4  -1  -6  151.17    7.19   4
  -5  -1  -6   59.68    9.11   2
   5   1   6   54.75    5.54   1
  -6  -1  -6  102.41   11.83   2
   6   1   6   88.60    7.89   1
  -7  -1  -6   97.80   12.16   2
   7   1   6  104.08    9.32   1
  -8  -1  -6   31.73    8.28   2
   8   1   6   26.17    7.06   1
   9   1   6   -2.54    5.72   1
  -9  -1  -6    8.46    5.56   2
  10   1   6   10.86    7.36   1
 -10  -1  -6   19.46    7.80   2
 -11  -1  -6    5.40    5.63   2
  11   1   6    2.01    5.69   1
 -12  -1  -6  305.62   24.75   3
 -13  -1  -6  159.73   21.38   3
 -14  -1  -6   76.83   15.93   3
 -15  -1  -6  108.60   18.66   3
  15  -2  -6   44.40   15.99   1
  14  -2  -6   21.62   11.56   1
  13  -2  -6   14.04   10.35   1
  12  -2  -6   49.00   14.03   1
  11  -2  -6   13.78   10.53   1
  10  -2  -6  166.26   20.62   1
   9  -2  -6  317.18   24.17   1
  -8   2   6   -0.71    4.34   3
   8  -2  -6    3.27    9.27   1
  -7   2   6  298.01   16.25   3
   7  -2  -6  271.30   21.61   1
  -6   2   6   26.07    5.83   3
   6  -2  -6   23.28    8.84   1
   6  -2  -6   30.79    6.36   2
   5  -2  -6   19.90    5.25   2
   5  -2  -6   11.12    6.94   1
  -5   2   6   21.09    4.92   3
   4  -2  -6  289.35   18.77   1
  -4   2   6  327.07   14.09   3
   4  -2  -6  348.39   15.45   2
   3  -2  -6    0.64    5.20   1
  -3   2   6    1.64    2.77   3
   3  -2  -6    5.98    4.43   2
   1  -2  -6   46.33    6.65   2
   1  -2  -6   45.04    6.78   1
   0  -2  -6   35.39    5.87   2
   0  -2  -6   28.89    5.43   1
  -1  -2  -6    6.93    4.15   2
  -1  -2  -6    7.71    3.28   1
  -2  -2  -6  383.84   19.13   2
  -2  -2  -6  402.78   13.85   1
  -3  -2  -6   53.96    8.13   2
  -3  -2  -6   48.80    4.17   1
  -4  -2  -6  379.22   20.78   2
  -4  -2  -6  389.42   14.48   1
  -5  -2  -6   53.45    9.12   2
  -5  -2  -6   46.52    5.40   4
  -5  -2  -6   52.62    5.60   1
  -6  -2  -6 1567.55   49.03   1
  -6  -2  -6 1675.84   58.48   2
  -6  -2  -6 1573.47   46.87   4
   7   2   6  291.05   14.75   1
  -7  -2  -6  288.55   19.92   2
   8   2   6   -1.35    4.92   1
  -8  -2  -6    6.94    5.43   2
  -9  -2  -6  201.47   17.86   2
   9   2   6  200.73   14.60   1
 -10  -2  -6   38.61   10.11   2
  10   2   6   46.93    9.72   1
 -11  -2  -6   -0.72    5.26   2
  11   2   6   -1.94    5.08   1
 -12  -2  -6  110.72   17.30   2
 -13  -2  -6   13.30    7.65   3
 -14  -2  -6   95.90   17.58   3
 -15  -2  -6    1.33    6.34   3
  14  -3  -6   20.45   10.68   1
  13  -3  -6   27.64   12.37   1
  12  -3  -6    5.03    9.84   1
  11  -3  -6    6.15    8.54   1
  10  -3  -6   27.07   10.95   1
   9  -3  -6  123.63   18.82   1
   8  -3  -6   33.03   11.62   1
  -8   3   6   65.96    9.90   3
   7  -3  -6    1.64    8.31   1
  -7   3   6    7.38    5.67   3
   6  -3  -6  109.78   15.54   1
  -6   3   6  106.19    9.99   3
   6  -3  -6  104.65    9.02   2
  -5   3   6  162.43   10.98   3
   5  -3  -6  158.14   15.73   1
   5  -3  -6  136.94    9.42   2
   4  -3  -6    4.64    4.46   2
  -4   3   6    2.44    3.43   3
   4  -3  -6    3.32    6.53   1
   3  -3  -6   32.13    7.98   1
  -3   3   6   36.10    5.70   3
   3  -3  -6   47.20    6.10   2
   2  -3  -6  419.01   20.20   1
   2  -3  -6  448.29   18.21   2
   0  -3  -6  659.43   24.86   1
   0  -3  -6  721.81   26.81   2
  -1  -3  -6  156.31   11.60   2
  -1  -3  -6  162.49    9.73   1
  -2  -3  -6  293.57   16.44   2
  -2  -3  -6  267.70   11.99   1
  -3  -3  -6   55.39    8.99   2
  -3  -3  -6   38.39    4.54   1
  -4  -3  -6   75.49   10.51   2
  -4  -3  -6   61.51    6.01   1
  -5  -3  -6   49.83    9.60   2
  -5  -3  -6   49.98    6.01   1
  -6  -3  -6    7.94    3.75   1
  -6  -3  -6   -2.35    3.87   2
  -7  -3  -6   11.04    4.13   1
  -7  -3  -6    9.97    6.52   2
  -7  -3  -6   10.21    4.17   4
  -8  -3  -6   71.17   12.48   2
  -8  -3  -6   64.91    8.92   1
  -8  -3  -6   76.93    9.05   4
  -9  -3  -6  135.62   13.17   1
  -9  -3  -6  147.39   17.61   2
  -9  -3  -6  121.24   12.02   4
 -10  -3  -6  224.25   22.21   2
 -11  -3  -6   71.84   15.08   2
 -12  -3  -6   97.36   17.38   2
 -13  -3  -6  331.25   28.24   2
 -15  -3  -6   78.99   16.03   3
  14  -4  -6   22.54   14.85   1
  13  -4  -6   55.93   15.81   1
  12  -4  -6   16.09   11.71   1
  11  -4  -6   24.60   12.62   1
  10  -4  -6   71.03   15.82   1
   9  -4  -6  119.04   18.91   1
  -9   4   6  146.07   14.18   3
   8  -4  -6  325.85   25.37   1
  -8   4   6  265.76   18.07   3
  -7   4   6   27.13    7.88   3
   7  -4  -6   26.62   10.98   1
  -6   4   6    9.48    5.75   3
   6  -4  -6   22.81    9.05   1
  -5   4   6   -0.31    4.05   3
   5  -4  -6    4.11    6.75   1
   5  -4  -6    8.37    4.39   2
   4  -4  -6  189.71   10.60   2
  -4   4   6  186.53   12.32   3
   4  -4  -6  206.93   16.82   1
  -3   4   6    4.37    4.33   3
   3  -4  -6    7.09    4.16   2
   3  -4  -6    1.92    5.39   1
   2  -4  -6   17.55    6.55   1
   2  -4  -6   20.75    4.98   2
   1  -4  -6   52.77    8.02   1
   1  -4  -6   60.70    7.16   2
   0  -4  -6   14.43    4.60   2
   0  -4  -6   28.05    5.94   1
  -1  -4  -6  116.99   10.45   2
  -1  -4  -6  117.25    8.92   1
  -2  -4  -6  532.90   24.96   2
  -2  -4  -6  538.92   20.46   1
  -3  -4  -6   58.20    6.25   1
  -3  -4  -6   54.25    9.21   2
  -4  -4  -6  677.19   24.80   1
  -4  -4  -6  679.13   31.27   2
  -5  -4  -6    2.03    4.39   2
  -5  -4  -6    7.96    3.71   1
  -6  -4  -6  142.46   15.80   2
  -6  -4  -6  129.57   10.05   1
  -7  -4  -6  364.53   24.71   2
  -7  -4  -6  349.76   18.39   1
  -8  -4  -6    5.10    4.05   4
  -8  -4  -6    6.92    3.94   1
  -8  -4  -6    2.67    6.04   2
  -9  -4  -6   73.43   10.29   1
  -9  -4  -6   82.12   10.51   4
  -9  -4  -6   59.48   13.43   2
 -10  -4  -6   58.24   10.02   4
 -10  -4  -6   41.73   11.35   2
 -10  -4  -6   37.75    8.01   1
 -11  -4  -6    4.52    4.79   1
 -11  -4  -6    2.24    5.35   4
 -11  -4  -6    3.29    6.44   2
 -12  -4  -6   93.11   18.00   2
 -13  -4  -6   50.91   14.40   2
 -14  -4  -6   69.74   17.71   2
  13  -5  -6    2.07    8.45   1
  12  -5  -6   37.21   13.05   1
  11  -5  -6    8.07   10.36   1
  10  -5  -6   32.03   13.23   1
   9  -5  -6   61.61   14.74   1
  -9   5   6   88.57   12.35   3
   8  -5  -6    5.28    9.39   1
  -8   5   6   20.22    7.61   3
   7  -5  -6    1.07    8.20   1
  -7   5   6   -0.29    6.13   3
   6  -5  -6   21.65    9.98   1
  -6   5   6   27.25    7.76   3
   5  -5  -6   12.42    8.02   1
  -5   5   6   22.00    7.00   3
   4  -5  -6  508.89   18.75   2
   4  -5  -6  507.82   27.20   1
  -4   5   6  531.92   23.47   3
   3  -5  -6   47.52   10.15   1
   3  -5  -6   44.79    6.38   2
   2  -5  -6  557.44   26.15   1
   2  -5  -6  546.54   21.72   2
   1  -5  -6   62.59    9.08   1
   1  -5  -6   77.98    8.15   2
   0  -5  -6 1655.62   52.98   1
  -1  -5  -6 1947.17   62.49   2
  -1  -5  -6 1870.08   58.53   1
  -2  -5  -6   38.68    6.25   1
  -2  -5  -6   41.14    8.04   2
  -3  -5  -6   10.48    6.06   2
  -3  -5  -6   12.26    4.24   1
  -4  -5  -6   11.91    5.88   2
  -4  -5  -6    8.60    3.72   1
  -5  -5  -6   39.76    6.70   1
  -5  -5  -6   47.91   10.17   2
  -6  -5  -6  702.16   28.13   1
  -6  -5  -6  651.20   35.05   2
  -7  -5  -6  284.29   16.92   1
  -8  -5  -6  115.53   12.16   1
  -9  -5  -6  219.50   16.03   1
 -10  -5  -6  301.56   19.76   1
 -11  -5  -6   97.04   19.24   2
 -11  -5  -6   95.19   13.32   1
 -11  -5  -6   80.81   12.41   4
 -12  -5  -6   67.11   16.87   2
 -13  -5  -6  131.13   24.13   2
 -14  -5  -6   -4.86    8.93   2
 -15  -5  -6    9.34   12.09   2
  13  -6  -6   37.01   15.25   1
  12  -6  -6   14.03   11.50   1
  11  -6  -6   54.94   16.91   1
  10  -6  -6  141.59   22.23   1
  -9   6   6   23.65    8.17   3
   9  -6  -6    3.58   10.75   1
   8  -6  -6    7.66    9.46   1
  -8   6   6    9.34    6.11   3
  -7   6   6  102.18   12.83   3
   7  -6  -6  113.74   18.84   1
   6  -6  -6   21.77   11.31   1
  -6   6   6   11.20    7.12   3
   5  -6  -6    0.85    7.26   1
  -5   6   6    7.24    6.73   3
   4  -6  -6   89.10   13.72   1
  -4   6   6  107.97   12.03   3
   3  -6  -6   -3.11    4.05   2
   3  -6  -6    2.13    6.75   1
   2  -6  -6   43.12    6.24   2
   2  -6  -6   33.14    8.36   1
   1  -6  -6  350.12   19.69   1
   1  -6  -6  335.32   17.06   2
   0  -6  -6  207.15   13.57   2
  -1  -6  -6  808.79   32.17   1
  -1  -6  -6  866.33   34.35   2
  -2  -6  -6  261.22   14.88   1
  -2  -6  -6  234.65   16.59   2
  -3  -6  -6 1254.99   48.43   2
  -3  -6  -6 1221.40   42.04   1
  -4  -6  -6   10.79    4.36   1
  -4  -6  -6    7.80    5.94   2
  -5  -6  -6  400.16   20.06   1
  -5  -6  -6  390.88   25.50   2
  -6  -6  -6   46.22    8.22   1
  -7  -6  -6  160.99   13.22   1
  -8  -6  -6   18.38    6.41   1
  -9  -6  -6    4.08    4.17   1
 -10  -6  -6  100.33   13.25   1
 -11  -6  -6   39.14    9.58   1
 -12  -6  -6    8.41    9.96   2
 -13  -6  -6   68.89   19.18   2
 -14  -6  -6    1.59   10.59   2
 -15  -6  -6  126.00   27.74   2
 -16  -6  -6    2.64   13.47   2
  12  -7  -6    1.71    6.74   1
  11  -7  -6   17.96   11.68   1
  10  -7  -6   10.58   11.24   1
  -9   7   6   15.15    7.42   3
   9  -7  -6   19.76   11.18   1
   8  -7  -6   10.87   11.28   1
  -8   7   6   22.72    8.17   3
   7  -7  -6    7.12    8.97   1
  -7   7   6   13.21    7.10   3
  -6   7   6   49.77   10.42   3
   6  -7  -6   56.95   14.08   1
  -5   7   6    6.71    6.66   3
   5  -7  -6   13.84    9.43   1
   4  -7  -6  238.88   20.45   1
  -4   7   6  207.73   16.51   3
   3  -7  -6   80.72   12.74   1
   2  -7  -6  217.18   17.12   1
   2  -7  -6  204.48   12.66   2
   1  -7  -6  660.04   26.68   2
   1  -7  -6  583.38   28.26   1
   0  -7  -6 1357.04   47.60   2
   0  -7  -6 1287.43   47.37   1
  -1  -7  -6 2115.52   67.65   1
  -1  -7  -6 2076.86   69.86   2
  -2  -7  -6    2.32    4.73   2
  -2  -7  -6    5.43    4.17   1
  -3  -7  -6   88.98   12.60   2
  -3  -7  -6   81.90    9.97   1
  -4  -7  -6   14.95    5.36   1
  -4  -7  -6    6.93    5.84   2
  -5  -7  -6   51.93    8.64   1
  -6  -7  -6   79.61   10.72   1
  -7  -7  -6   76.08   10.94   1
  -8  -7  -6  231.08   16.93   1
  -9  -7  -6  212.08   17.13   1
 -10  -7  -6   32.34    9.30   1
 -11  -7  -6   95.02   14.01   1
 -13  -7  -6   -4.18   10.35   2
 -14  -7  -6  512.82   51.87   2
 -15  -7  -6   12.85   15.13   2
 -16  -7  -6   61.73   23.80   2
  12  -8  -6    6.24    8.24   1
  11  -8  -6   -6.21    5.11   1
  10  -8  -6   47.84   15.42   1
  -9   8   6   18.11    8.37   3
   9  -8  -6   24.52   12.96   1
  -8   8   6   31.19    9.74   3
   8  -8  -6   17.77   11.56   1
   7  -8  -6  117.67   19.79   1
  -7   8   6   87.30   13.63   3
  -6   8   6   -1.45    5.64   3
   6  -8  -6   -4.65    7.20   1
  -5   8   6   -4.31    6.09   3
   5  -8  -6    8.61    9.65   1
   4  -8  -6    4.02    8.11   1
   3  -8  -6   39.51   10.51   1
   2  -8  -6  109.38   14.91   1
   1  -8  -6    2.33    4.40   2
   1  -8  -6   14.87    6.67   1
   0  -8  -6   37.55    8.49   1
   0  -8  -6   39.43    8.14   2
  -1  -8  -6   31.02    7.98   1
  -2  -8  -6  379.28   22.43   2
  -2  -8  -6  338.69   19.84   1
  -3  -8  -6  282.65   20.28   2
  -3  -8  -6  271.26   17.71   1
  -4  -8  -6    7.62    4.48   1
  -4  -8  -6    0.26    5.28   2
  -5  -8  -6  348.65   20.32   1
  -6  -8  -6   14.45    5.93   1
  -7  -8  -6   51.07    9.66   1
  -8  -8  -6   20.52    7.56   1
  -9  -8  -6    9.46    6.08   1
 -10  -8  -6   29.98    8.18   1
 -11  -8  -6   63.86   12.57   1
 -14  -8  -6    1.62   12.02   2
 -15  -8  -6   86.65   28.21   2
 -16  -8  -6   24.85   19.36   2
 -17  -8  -6  165.89   42.31   2
  11  -9  -6   -2.59    7.03   1
  10  -9  -6    1.20    5.87   1
   9  -9  -6  105.01   20.62   1
   8  -9  -6   -6.77    9.23   1
  -8   9   6   -6.40    6.11   3
  -7   9   6   41.82   11.00   3
   7  -9  -6   23.53   11.60   1
  -6   9   6   15.64    8.45   3
   6  -9  -6    1.74    7.53   1
   5  -9  -6   17.95    9.95   1
   4  -9  -6    4.83    7.65   1
   3  -9  -6  110.85   16.41   1
   2  -9  -6    4.63    6.97   1
   1  -9  -6   44.16   11.20   1
   0  -9  -6   24.04    8.21   1
   0  -9  -6   20.10    6.18   2
  -1  -9  -6   34.14    9.17   1
  -2  -9  -6  118.71   13.50   1
  -2  -9  -6   95.70   13.27   2
  -3  -9  -6   -1.13    4.05   2
  -3  -9  -6    6.11    5.51   1
  -4  -9  -6   21.74    6.68   1
  -4  -9  -6   10.04    7.25   2
  -5  -9  -6   15.89    6.22   1
  -6  -9  -6    4.48    4.93   1
  -7  -9  -6  355.07   22.57   1
  -8  -9  -6   24.43    7.38   1
  -9  -9  -6    2.61    5.03   1
 -10  -9  -6  367.45   24.92   1
 -11  -9  -6  154.97   18.49   1
 -12  -9  -6   20.42    8.70   1
 -14  -9  -6  113.97   29.95   2
 -15  -9  -6  -15.53   14.01   2
 -16  -9  -6   38.91   22.61   2
  10 -10  -6   -1.85    7.86   1
   9 -10  -6  -13.67    6.37   1
  -9  10   6   42.89   12.42   3
  -8  10   6    4.48    7.06   3
   8 -10  -6    7.16    9.63   1
   7 -10  -6    9.95   10.40   1
   6 -10  -6   81.35   17.27   1
   5 -10  -6   86.73   17.28   1
   4 -10  -6   33.53   11.36   1
   3 -10  -6    9.10    8.15   1
   2 -10  -6  101.15   15.87   1
   1 -10  -6   58.76   12.71   1
   0 -10  -6  120.95   15.69   1
  -1 -10  -6  262.29   19.63   1
  -1 -10  -6  264.89   19.03   2
  -2 -10  -6   35.93    9.25   2
  -2 -10  -6   33.37    8.75   1
  -3 -10  -6  216.12   18.88   2
  -3 -10  -6  217.15   17.36   1
  -4 -10  -6    6.01    5.89   2
  -4 -10  -6    3.42    5.11   1
  -5 -10  -6   10.96    7.33   2
  -5 -10  -6   13.04    6.62   1
  -6 -10  -6  270.03   19.80   1
  -7 -10  -6    7.58    5.40   1
  -8 -10  -6   10.46    6.46   1
  -9 -10  -6   18.43    8.24   1
 -10 -10  -6   12.17    6.45   1
 -11 -10  -6   33.39   10.19   1
 -12 -10  -6   11.87    7.25   1
 -14 -10  -6  101.81   28.54   2
 -15 -10  -6   30.84   18.68   2
   9 -11  -6    0.81    6.51   1
   8 -11  -6    2.99    7.15   1
   7 -11  -6   13.40   11.04   1
   6 -11  -6    6.12   10.25   1
   5 -11  -6   78.25   16.94   1
   4 -11  -6    1.54    7.07   1
   3 -11  -6  166.70   20.55   1
   2 -11  -6   30.86   10.35   1
   1 -11  -6   40.75   11.46   1
   0 -11  -6   35.05   10.41   1
  -1 -11  -6    1.58    5.43   1
  -2 -11  -6  195.19   18.59   2
  -2 -11  -6  123.38   16.39   1
  -3 -11  -6    5.65    5.26   1
  -3 -11  -6    1.57    5.95   2
  -4 -11  -6   86.51   13.73   1
  -4 -11  -6   98.46   15.99   2
  -5 -11  -6  263.57   20.76   1
  -5 -11  -6  284.93   24.60   2
  -6 -11  -6    8.11    6.16   1
  -7 -11  -6  185.17   19.13   1
  -8 -11  -6    4.70    5.76   1
  -9 -11  -6  227.41   21.92   1
 -10 -11  -6   14.98    7.41   1
 -11 -11  -6  143.36   19.53   1
 -12 -11  -6   48.99   13.00   1
 -14 -11  -6  -24.38   12.32   2
 -15 -11  -6   31.25   23.44   2
   8 -12  -6    1.20    6.54   1
   7 -12  -6   -5.47    5.19   1
   6 -12  -6    7.31   10.12   1
   5 -12  -6   14.60   10.10   1
   4 -12  -6   13.43   10.29   1
   3 -12  -6    4.69    8.50   1
   2 -12  -6   31.89   11.19   1
   1 -12  -6  128.65   18.17   1
   0 -12  -6    0.81    6.83   1
  -1 -12  -6  208.90   21.19   1
  -2 -12  -6   36.22   10.49   1
  -3 -12  -6   63.50   12.58   2
  -3 -12  -6   60.28   12.30   1
  -4 -12  -6   28.37    9.02   1
  -4 -12  -6   51.17   12.71   2
  -5 -12  -6    0.20    5.92   1
  -5 -12  -6    7.37    7.16   2
  -6 -12  -6   68.45   15.54   2
  -6 -12  -6   51.37   11.53   1
  -7 -12  -6    6.43    6.90   1
  -8 -12  -6   -0.86    5.29   1
  -9 -12  -6  117.57   17.69   1
 -10 -12  -6    2.16    6.01   1
 -11 -12  -6   29.78   10.53   1
 -12 -12  -6   12.88    8.87   1
 -14 -12  -6   61.02   28.52   2
   6 -13  -6   -1.23    5.55   1
   5 -13  -6   -1.83    8.60   1
   4 -13  -6    7.92    9.21   1
   3 -13  -6   55.19   14.25   1
   2 -13  -6   23.88   11.50   1
   1 -13  -6    7.21    7.61   1
   0 -13  -6   23.96    9.61   1
  -1 -13  -6   10.84    8.01   1
  -2 -13  -6   15.32    8.23   1
  -3 -13  -6    2.63    6.40   1
  -4 -13  -6    1.37    6.66   2
  -4 -13  -6    7.06    6.53   1
  -5 -13  -6  330.63   27.15   2
  -5 -13  -6  274.17   23.29   1
  -6 -13  -6   21.49    8.92   1
  -6 -13  -6   31.94   11.05   2
  -7 -13  -6   25.64   11.36   2
  -7 -13  -6   16.78    8.22   1
  -8 -13  -6   48.70   12.23   1
  -9 -13  -6   13.97    8.33   1
 -10 -13  -6  101.87   17.48   1
 -11 -13  -6   12.91    8.65   1
 -12 -13  -6   45.69   12.50   1
 -13 -13  -6   -6.64   10.47   2
   5 -14  -6   -8.90    4.71   1
   4 -14  -6   -0.18    5.04   1
   3 -14  -6   -4.42    8.79   1
   2 -14  -6   10.97    8.19   1
   1 -14  -6   59.21   14.64   1
   0 -14  -6    1.03    8.14   1
  -1 -14  -6   61.01   14.56   1
  -2 -14  -6   56.23   12.98   1
  -3 -14  -6    2.70    7.42   1
  -4 -14  -6   53.26   13.26   1
  -5 -14  -6   -4.76    5.57   1
  -5 -14  -6    3.68    7.02   2
  -6 -14  -6   13.75    8.58   2
  -6 -14  -6    6.65    7.62   1
  -7 -14  -6   -4.33    6.37   1
  -7 -14  -6   10.05    8.08   2
  -8 -14  -6   37.46   11.23   1
  -8 -14  -6   30.67   12.29   2
  -9 -14  -6   -2.69    7.48   2
  -9 -14  -6   10.29    7.80   1
 -10 -14  -6   -4.15    6.74   1
 -10 -14  -6    1.32    9.60   2
 -11 -14  -6    9.80   11.56   2
 -11 -14  -6   -3.07    6.41   1
 -12 -14  -6    4.76    8.90   1
 -12 -14  -6   -0.44    9.22   2
   3 -15  -6    6.90    7.16   1
   2 -15  -6   81.00   18.27   1
   1 -15  -6   -4.96    7.73   1
   0 -15  -6    8.66    8.43   1
  -1 -15  -6    9.43    8.46   1
  -2 -15  -6    9.16    8.17   1
  -3 -15  -6   10.86    9.38   1
  -4 -15  -6   -5.91    6.17   1
  -5 -15  -6   14.45    8.39   1
  -6 -15  -6   34.31   12.11   2
  -6 -15  -6   48.20   13.11   1
  -7 -15  -6    2.33    7.49   2
  -7 -15  -6   -0.46    7.59   1
  -8 -15  -6  215.48   30.55   2
  -8 -15  -6  236.46   26.24   1
  -9 -15  -6   16.41   12.16   2
  -9 -15  -6   -4.08    6.82   1
 -10 -15  -6    2.20    7.57   1
 -10 -15  -6  -11.93    8.99   2
 -11 -15  -6   53.59   13.95   1
 -11 -15  -6    0.53    9.54   2
 -12 -15  -6   -8.40    7.01   1
   1 -16  -6   13.23   11.19   1
   0 -16  -6   19.95   11.42   1
  -1 -16  -6   -2.03    8.67   1
  -2 -16  -6  131.72   21.71   1
  -3 -16  -6   15.80    9.39   1
  -4 -16  -6    9.46    8.52   1
  -5 -16  -6   16.70    9.77   1
  -6 -16  -6    3.03    7.40   1
  -7 -16  -6   -8.82    6.26   1
  -7 -16  -6    5.98    9.24   2
  -8 -16  -6   17.42   11.39   2
  -8 -16  -6   29.99   11.64   1
  -9 -16  -6   17.49   10.88   2
  -9 -16  -6    5.74    7.76   1
 -10 -16  -6    7.27    9.43   1
 -10 -16  -6   19.16   12.89   2
 -11 -16  -6    5.84    8.84   1
  -3 -17  -6    8.22    9.67   1
  -4 -17  -6    0.74    9.05   1
  -5 -17  -6    4.80   10.26   1
  -6 -17  -6   17.23   10.99   1
  -7 -17  -6   11.58   10.73   1
  -8 -17  -6   32.64   13.01   1
  -8 -17  -6   54.59   13.31   2
  -9 -17  -6   25.81   13.19   2
  -4 -17   7   -4.00    5.85   1
  -3 -17   7    2.16    5.24   1
  -2 -17   7   -9.61    5.12   1
  -8 -16   7    5.56    7.13   1
  -7 -16   7   -6.17    5.18   1
  -6 -16   7    7.79    5.72   1
  -5 -16   7   -2.74    4.43   1
  -4 -16   7   -0.03    5.82   1
  -3 -16   7    1.46    5.90   1
  -2 -16   7   -6.05    3.97   1
  -1 -16   7    1.10    5.69   1
   0 -16   7   -1.48    5.94   1
   1 -16   7   -6.81    6.32   1
   2 -16   7   -9.74    7.86   1
   3 -16   7   74.93   16.27   1
 -10 -15   7   32.71   15.12   1
  -9 -15   7   19.12   12.11   1
  -8 -15   7   10.77    8.40   1
  -7 -15   7   -6.02    6.70   1
  -6 -15   7    8.82    7.05   1
  -5 -15   7   65.57   15.09   1
  -4 -15   7   22.00   10.05   1
  -3 -15   7    4.14    7.92   1
  -2 -15   7   19.67    8.30   1
  -1 -15   7   14.21    7.98   1
   0 -15   7   11.68    8.06   1
   1 -15   7   54.24   13.93   1
   2 -15   7    0.38    7.43   1
   3 -15   7  149.05   21.76   1
  -4  15  -7   -7.18    4.71   3
   4 -15   7   17.60    9.76   1
   5 -15   7   20.52   12.48   1
 -11 -14   7   23.44   12.23   1
 -10 -14   7  -13.84    6.25   1
  -9 -14   7   25.22   10.82   1
  -8 -14   7   38.79   12.87   1
  -7 -14   7    6.02    7.37   1
  -6 -14   7   26.51    9.76   1
  -5 -14   7    5.03    6.22   1
  -4 -14   7   65.05   14.32   1
  -3 -14   7   -3.59    5.30   1
  -2 -14   7   18.76    8.77   1
  -1 -14   7   77.18   14.84   1
   0 -14   7   44.87   12.10   1
   1 -14   7   18.13    8.50   1
   2 -14   7   25.35    9.67   1
  -3  14  -7    8.68    8.14   3
   3 -14   7   16.35    9.35   1
   4 -14   7   37.52   12.08   1
  -4  14  -7  -11.65    5.19   3
   5 -14   7   10.07    9.72   1
  -5  14  -7    2.05    4.78   3
   6 -14   7    3.00    8.05   1
 -12 -13   7   17.70   12.57   1
 -11 -13   7   22.66   12.48   1
 -10 -13   7  104.19   20.63   1
  -9 -13   7   -2.04    8.54   1
  -8 -13   7    9.83    9.68   1
  -7 -13   7  118.46   20.22   1
  -6 -13   7   20.85    8.74   1
  -5 -13   7   10.67    6.49   1
  -4 -13   7   18.89    7.39   1
  -3 -13   7    4.47    6.43   1
  -2 -13   7   13.91    8.13   1
  -1 -13   7    2.38    6.58   1
   0 -13   7   28.12    9.37   1
   1 -13   7   20.25    8.96   1
  -2  13  -7   20.19   10.18   3
   2 -13   7   14.25    7.19   1
   3 -13   7   99.88   17.14   1
  -3  13  -7   86.09   15.50   3
  -4  13  -7   -7.68    6.04   3
   4 -13   7    9.83    8.19   1
   5 -13   7   68.17   15.22   1
  -5  13  -7   62.84   14.08   3
   6 -13   7   16.66    9.61   1
   7 -13   7   -8.66    7.80   1
  -7  13  -7   10.29    9.86   3
 -13 -12   7   60.64   18.05   1
 -12 -12   7   21.08   12.22   1
 -11 -12   7   16.59   10.62   1
 -10 -12   7   -4.35    6.87   1
  -9 -12   7   26.58   10.55   1
  -8 -12   7   -4.01    6.66   1
  -7 -12   7    5.99    6.17   1
  -6 -12   7   73.46   13.67   1
  -5 -12   7   89.64   16.32   1
  -4 -12   7   -4.71    4.94   1
  -3 -12   7  128.71   18.02   1
  -2 -12   7    9.60    6.65   1
  -1 -12   7  130.37   17.88   1
   0 -12   7   32.31    9.20   1
  -1  12  -7   26.72    9.32   3
   1 -12   7   14.07    7.21   1
  -2  12  -7   22.32    8.91   3
   2 -12   7   23.11    9.46   1
   3 -12   7   38.13   10.82   1
  -3  12  -7    6.10    6.94   3
  -4  12  -7   11.60    7.56   3
   4 -12   7   -0.52    6.14   1
  -5  12  -7   14.46    8.59   3
   5 -12   7   -5.74    6.17   1
   6 -12   7   31.25   11.11   1
  -6  12  -7   35.91   11.82   3
  -7  12  -7   18.72   10.58   3
   7 -12   7    8.21    9.47   1
  -8  12  -7   11.61    8.73   3
 -14 -11   7   16.93   11.75   1
 -13 -11   7    1.62    9.02   1
 -12 -11   7  118.97   21.09   1
 -11 -11   7   68.41   16.13   1
 -10 -11   7    6.85    8.90   1
  -9 -11   7   20.40   10.23   1
  -8 -11   7    3.66    7.06   1
  -7 -11   7  270.05   27.23   1
  -6 -11   7   33.70   10.14   1
  -5 -11   7   21.01    7.96   1
  -4 -11   7   16.69    7.57   1
  -3 -11   7    8.45    5.84   1
  -2 -11   7    4.93    6.09   1
  -1 -11   7    4.90    5.44   1
   0  11  -7    5.38    6.81   3
   0 -11   7    3.43    5.45   1
  -1  11  -7  120.31   15.78   3
   1 -11   7  105.30   15.06   1
   2 -11   7  149.23   17.43   1
  -2  11  -7  115.45   16.01   3
  -3  11  -7   23.45    9.33   3
   3 -11   7   53.00   11.41   1
  -4  11  -7   31.24   10.26   3
   4 -11   7   13.92    7.70   1
   5 -11   7  153.41   18.71   1
  -5  11  -7  128.80   18.57   3
  -6  11  -7   50.36   12.94   3
   6 -11   7   78.66   14.88   1
   7 -11   7   -0.51    7.35   1
  -7  11  -7    1.10    7.19   3
  -8  11  -7   49.48   13.01   3
  -9  11  -7   16.57   10.52   3
 -14 -10   7    3.44   10.13   1
 -13 -10   7   31.91   11.99   1
 -12 -10   7   -4.48    7.96   1
 -11 -10   7    8.24    7.73   1
 -10 -10   7    6.26    7.20   1
  -9 -10   7   32.93   12.14   1
  -8 -10   7   15.99    8.24   1
  -7 -10   7   -1.60    5.31   1
  -6 -10   7   38.64   11.01   1
  -5 -10   7  304.11   24.07   1
  -4 -10   7   13.79    6.24   1
  -3 -10   7  264.63   21.29   1
  -2 -10   7   15.90    6.85   1
  -1 -10   7    3.43    4.42   1
   0  10  -7   98.18   13.70   3
   0 -10   7   77.40   12.84   1
  -1  10  -7  206.64   17.89   3
   1 -10   7  234.93   18.16   1
  -2  10  -7    2.76    6.48   3
   2 -10   7   14.01    6.36   1
  -3  10  -7   24.24    8.35   3
   3 -10   7   26.73    8.53   1
   4 -10   7    3.92    5.32   1
  -4  10  -7   -6.93    4.45   3
   5 -10   7   13.29    7.85   1
  -5  10  -7   27.42    9.17   3
  -6  10  -7   -4.37    4.83   3
   6 -10   7   -5.10    6.25   1
  -7  10  -7   36.60   11.60   3
   7 -10   7   15.63    8.94   1
  -8  10  -7   57.35   13.91   3
   8 -10   7    4.55    8.30   1
  -9  10  -7   23.60   10.40   3
 -10  10  -7   59.92   15.53   3
 -15  -9   7   11.89   11.70   1
 -14  -9   7   71.60   19.07   1
 -13  -9   7   -8.79    6.25   1
 -12  -9   7   18.64   10.74   1
 -11  -9   7  260.19   28.92   1
 -10  -9   7   12.99    8.93   1
  -9  -9   7  126.68   20.11   1
  -8  -9   7   21.01    9.17   1
  -7  -9   7    7.33    7.09   1
  -6  -9   7  195.91   21.51   1
  -5  -9   7    6.75    5.70   1
  -4  -9   7  177.74   19.10   1
  -3  -9   7   81.62   13.05   1
  -2  -9   7    3.17    4.67   1
  -1  -9   7   26.18    7.13   1
   1   9  -7   58.87   10.06   3
   0   9  -7    8.51    6.13   3
   0  -9   7    8.10    4.77   1
  -1   9  -7   51.57   10.96   2
   1  -9   7   38.22    8.82   1
  -1   9  -7   65.75   11.02   3
   2  -9   7  231.73   17.44   1
  -2   9  -7  206.87   17.45   3
   3  -9   7   72.04   12.01   1
  -3   9  -7   73.36   12.47   3
   4  -9   7  315.84   21.57   1
  -4   9  -7  334.42   23.56   3
   5  -9   7   17.78    7.87   1
  -5   9  -7   15.70    7.62   3
  -6   9  -7  260.74   22.52   3
   6  -9   7  275.30   20.93   1
   7  -9   7    7.07    6.97   1
  -7   9  -7   -1.15    6.54   3
   8  -9   7   16.44    9.70   1
  -8   9  -7   24.81   10.27   3
  -9   9  -7    5.90    7.42   3
 -10   9  -7   18.80    9.30   3
 -11   9  -7   20.29   10.96   3
 -15  -8   7   38.28   12.47   4
 -15  -8   7   40.14   13.96   1
 -14  -8   7   16.39   10.32   1
 -14  -8   7   12.48    8.66   4
 -13  -8   7    1.25    6.64   1
 -13  -8   7   -1.62    5.37   4
 -12  -8   7   21.33    9.10   4
 -12  -8   7    0.41    6.89   1
 -11  -8   7    2.03    7.50   1
 -11  -8   7   26.18    9.30   4
 -10  -8   7    0.78    6.78   4
 -10  -8   7   36.52   11.45   1
  -9  -8   7    0.85    5.04   1
  -8  -8   7   42.40   11.84   1
  -7  -8   7  334.70   25.57   1
  -6  -8   7   19.90    7.94   1
  -5  -8   7  197.82   19.87   1
  -4  -8   7   76.89   13.28   1
  -3  -8   7   97.17   13.68   1
   3   8  -7  112.39   15.13   2
   2   8  -7  774.14   35.74   2
  -2  -8   7  872.13   37.75   1
  -1  -8   7   17.70    6.23   1
   1   8  -7   20.63    6.60   3
   1   8  -7   38.77   10.45   2
   0   8  -7  825.53   33.60   3
   0  -8   7  790.59   35.00   1
   0   8  -7  841.42   34.36   2
  -1   8  -7    8.14    5.64   3
  -1   8  -7    7.23    7.88   2
   1  -8   7    2.64    4.33   1
  -2   8  -7   18.08    7.05   3
  -2   8  -7   24.60    8.25   2
   2  -8   7   22.32    6.97   1
  -3   8  -7   41.77    9.57   3
   3  -8   7   55.76   10.34   1
  -4   8  -7    2.78    5.35   3
   4  -8   7    0.88    5.15   1
  -5   8  -7    4.55    7.11   3
   5  -8   7   -0.73    5.45   1
   6  -8   7    2.36    5.57   1
  -6   8  -7    7.79    7.43   3
  -7   8  -7   49.54   12.67   3
   7  -8   7   37.91   10.63   1
  -8   8  -7   68.10   14.39   3
   8  -8   7   57.38   12.53   1
  -9   8  -7   41.45   12.62   3
 -10   8  -7   97.61   17.54   3
 -11   8  -7   10.13    7.92   3
 -12   8  -7    3.91    7.76   3
 -15  -7   7  -15.08    5.85   4
 -15  -7   7    6.24    9.89   1
 -14  -7   7  121.83   22.30   1
 -14  -7   7   80.53   16.98   4
 -13  -7   7   59.05   14.41   4
 -13  -7   7   57.13   15.20   1
 -12  -7   7   -0.36    6.50   1
 -12  -7   7   -1.87    6.07   4
 -11  -7   7  288.30   26.93   4
 -11  -7   7  308.78   26.36   1
 -10  -7   7   83.95   15.24   4
 -10  -7   7   82.81   16.12   1
  -9  -7   7    2.69    5.70   4
  -9  -7   7    2.96    6.58   1
  -8  -7   7   71.85   13.91   1
  -8  -7   7   90.62   14.46   4
  -7  -7   7   57.89   12.29   1
  -7  -7   7   78.39   13.44   4
  -6  -7   7   22.96    7.93   1
  -5  -7   7    9.28    6.41   1
   4   7  -7  103.73   14.27   2
  -4  -7   7  114.45   14.61   1
   3   7  -7   66.49   12.19   2
  -3  -7   7   51.49   10.02   1
   2   7  -7   -3.33    7.12   2
  -2  -7   7    6.49    4.83   1
   1   7  -7  389.30   21.37   2
   1   7  -7  388.12   19.00   3
  -1  -7   7  358.13   21.29   1
   0  -7   7  173.21   13.24   1
   0   7  -7  149.15   11.80   3
   0   7  -7  139.56   13.20   2
   1  -7   7    3.69    4.04   1
  -1   7  -7    2.42    4.24   3
  -1   7  -7    1.49    6.36   2
  -2   7  -7  313.65   17.05   2
   2  -7   7  281.72   17.38   1
  -2   7  -7  278.30   18.55   3
  -3   7  -7   11.12    6.17   3
   3  -7   7    2.73    4.73   1
  -3   7  -7   -3.79    5.76   2
  -4   7  -7  326.38   21.48   3
   4  -7   7  290.95   18.67   1
  -5   7  -7   94.23   14.28   3
   5  -7   7  117.13   13.17   1
   6  -7   7  100.40   12.97   1
  -6   7  -7   77.16   13.78   3
  -7   7  -7    6.83    7.66   3
   7  -7   7   13.26    7.60   1
   8  -7   7   -5.07    6.23   1
  -8   7  -7   -5.02    6.03   3
  -9   7  -7   48.05   12.87   3
   9  -7   7   71.51   13.86   1
 -10   7  -7   -5.10    5.48   3
 -11   7  -7   -0.85    7.01   3
 -12   7  -7   52.78   14.23   3
 -13   7  -7   -5.47    8.41   3
 -15  -6   7   13.07    9.71   4
 -15  -6   7   -7.75    8.77   1
 -14  -6   7    5.11    8.39   1
 -14  -6   7   13.06    8.17   4
 -13  -6   7   -0.67    7.80   1
 -13  -6   7   13.62    7.59   4
 -12  -6   7   -1.63    5.47   4
 -12  -6   7   11.02    8.19   1
 -11  -6   7   -0.22    7.09   1
 -11  -6   7    6.94    6.95   4
 -10  -6   7  213.75   22.22   4
 -10  -6   7  239.53   24.73   1
  -9  -6   7  165.90   19.00   4
  -9  -6   7  130.70   18.67   1
  -8  -6   7    4.57    5.07   4
  -8  -6   7    4.29    5.97   1
  -7  -6   7   14.90    6.32   4
  -7  -6   7   26.42    8.40   1
  -6  -6   7  238.07   18.46   4
  -6  -6   7  224.37   18.66   1
   5   6  -7  144.48   16.26   2
  -5  -6   7  161.24   16.64   1
   4   6  -7  627.87   29.54   2
  -4  -6   7  559.12   29.70   1
  -3  -6   7    8.60    5.23   1
   3   6  -7   13.99    7.91   2
   2   6  -7  161.07   10.33   3
   2   6  -7  166.00   14.60   2
  -2  -6   7  182.79   14.39   1
   1   6  -7  234.47   13.27   3
   1   6  -7  245.49   16.53   2
  -1  -6   7  222.08   15.60   1
   0   6  -7    7.64    4.56   3
   0  -6   7    7.90    4.36   1
   0   6  -7    7.13    6.31   2
  -1   6  -7  577.01   24.82   2
  -1   6  -7  585.00   25.78   3
   1  -6   7  578.42   25.38   1
   2  -6   7   58.67    8.42   1
  -2   6  -7   56.27    9.26   3
  -2   6  -7   66.00    8.90   2
  -3   6  -7   37.39    7.47   2
  -3   6  -7    8.32    5.73   3
   3  -6   7   28.82    6.62   1
  -4   6  -7    5.76    5.25   3
   4  -6   7    8.59    4.97   1
  -4   6  -7    5.30    6.10   2
   5  -6   7   25.86    7.50   1
  -5   6  -7    7.66    6.40   3
   6  -6   7  149.68   14.30   1
  -6   6  -7  163.53   18.39   3
  -7   6  -7   26.24    9.45   3
   7  -6   7   19.16    8.63   1
   8  -6   7   75.15   12.46   1
  -8   6  -7   75.93   14.83   3
  -9   6  -7   72.18   15.08   3
   9  -6   7   81.29   13.84   1
 -10   6  -7   13.43    8.48   3
 -11   6  -7  193.74   24.75   3
 -12   6  -7    2.82    7.39   3
 -13   6  -7   40.52   13.86   3
 -14   6  -7   -0.92    9.00   3
 -16  -5   7   56.56   16.10   1
  14   5  -7   35.07   13.38   1
  13   5  -7  112.56   19.88   1
  12   5  -7    7.90    9.22   1
  11   5  -7  124.02   19.29   1
  10   5  -7   26.96   10.70   1
   9   5  -7    5.50    8.06   1
  -7  -5   7   38.63   10.06   1
  -7  -5   7   38.65    9.14   4
   6   5  -7   14.84    8.42   2
  -6  -5   7   17.91    6.08   4
  -6  -5   7   16.94    7.03   1
  -5  -5   7  101.93   13.64   1
   5   5  -7   88.01   12.50   2
  -5  -5   7  102.75   13.09   4
  -4  -5   7  158.27   14.33   4
   4   5  -7  134.65   13.91   2
  -4  -5   7  153.76   14.94   1
   3   5  -7   64.14   10.50   2
  -3  -5   7   62.43   10.14   1
   2   5  -7  377.74   16.03   3
  -2  -5   7  396.74   20.87   1
   2   5  -7  410.66   21.25   2
   1   5  -7   10.60    3.81   3
  -1  -5   7    9.28    4.78   1
   1   5  -7   12.04    6.65   2
   0  -5   7  186.43   12.54   1
   0   5  -7  170.83   11.35   3
   0   5  -7  155.56   12.75   2
   1  -5   7  101.45    9.49   1
  -1   5  -7   94.92    9.91   3
  -1   5  -7  105.91   10.49   2
  -2   5  -7   31.01    7.24   2
  -2   5  -7   23.76    6.31   3
   2  -5   7   18.96    5.23   1
  -3   5  -7  853.84   36.01   3
  -3   5  -7  906.78   31.58   2
   3  -5   7  851.18   32.01   1
  -4   5  -7    3.10    4.37   3
   4  -5   7    4.91    3.92   1
  -4   5  -7    1.15    5.33   2
  -5   5  -7  139.51   11.18   2
   5  -5   7  140.48   11.78   1
  -5   5  -7  136.49   15.60   3
  -6   5  -7   -2.07    4.68   3
   6  -5   7    0.84    5.53   1
  -7   5  -7  250.94   20.99   3
   7  -5   7  244.98   17.53   1
  -8   5  -7   33.40   10.30   3
   8  -5   7   20.86    8.84   1
  -9   5  -7   22.62    9.85   3
   9  -5   7   31.63    9.79   1
 -10   5  -7   22.86   10.21   3
 -11   5  -7   15.68    9.65   3
 -12   5  -7   26.70   10.59   3
 -13   5  -7   24.39   11.96   3
 -14   5  -7   34.93   12.34   3
  16   4  -7   -2.30   13.10   1
  15   4  -7   26.94   12.37   1
  14   4  -7   10.36   11.14   1
  13   4  -7   59.62   14.83   1
  12   4  -7  155.11   21.36   1
  11   4  -7    7.79    8.91   1
  10   4  -7  -12.31    7.49   1
   9   4  -7    5.08    8.54   1
   8   4  -7   54.11   12.63   1
   7   4  -7   -5.33    7.17   1
   6   4  -7  950.87   39.60   2
   6   4  -7  951.63   39.51   1
   5   4  -7  129.65   13.49   2
  -4  -4   7  791.51   32.61   4
  -4  -4   7  732.83   33.25   1
   4   4  -7  752.67   32.23   2
  -3  -4   7  105.47   11.21   4
   3   4  -7   92.77   10.99   2
  -3  -4   7  101.88   11.59   1
   2   4  -7   -3.98    5.59   2
   2   4  -7    1.63    2.32   3
  -2  -4   7    0.90    3.74   1
  -1  -4   7  804.24   30.49   1
   1   4  -7  794.18   30.89   2
   0   4  -7    2.69    3.02   3
   0  -4   7    4.06    3.41   1
   0   4  -7   -0.58    5.26   2
  -1   4  -7   69.34    8.53   3
  -1   4  -7   50.33    7.95   2
   1  -4   7   56.35    6.65   1
  -2   4  -7   92.63    9.42   2
  -2   4  -7   84.21   10.04   3
  -3   4  -7  125.86   12.66   3
  -3   4  -7  111.36    9.89   2
  -4   4  -7   34.17    6.69   2
  -4   4  -7   32.67    7.97   3
  -5   4  -7   23.90    6.70   2
  -5   4  -7   24.79    7.64   3
   5  -4   7    5.96    3.88   1
  -6   4  -7  112.19   15.19   3
  -6   4  -7   99.54    9.96   2
  -8   4  -7   28.98    9.43   3
  -9   4  -7   66.41   14.00   3
 -10   4  -7    6.18    7.05   3
 -11   4  -7  250.39   26.26   3
 -12   4  -7   17.30    9.19   3
 -13   4  -7    1.00    7.77   3
 -14   4  -7    4.88    8.56   3
 -15   4  -7    7.56   10.03   3
  16   3  -7   21.26   14.59   1
  15   3  -7   43.14   15.10   1
  14   3  -7   32.42   13.18   1
  13   3  -7   -0.45    8.61   1
  12   3  -7   14.64   10.04   1
  11   3  -7   12.60    9.26   1
  10   3  -7   78.09   15.25   1
   9   3  -7    8.80    9.54   1
   8   3  -7    3.59    7.43   1
   7   3  -7  112.48   13.88   2
   7   3  -7  108.00   14.51   1
   6   3  -7  322.22   20.47   1
   6   3  -7  275.00   18.35   2
   5   3  -7   -2.07    5.26   2
   5   3  -7    1.88    5.65   1
   4   3  -7   11.71    6.62   2
   4   3  -7    9.21    6.23   1
   3   3  -7  202.30   13.34   1
   3   3  -7  218.83   14.71   2
  -2  -3   7  380.48   18.79   1
  -2  -3   7  349.42   17.49   4
   2   3  -7  347.70   12.49   3
   2   3  -7  373.20   18.96   2
   1   3  -7   92.38    6.52   3
  -1  -3   7   95.35    9.10   1
   1   3  -7  103.23   10.35   2
   0  -3   7  108.19    8.26   1
   0   3  -7  115.48   10.32   2
  -1   3  -7 1222.41   40.87   2
  -1   3  -7 1242.65   40.79   3
  -2   3  -7  210.63   12.97   2
   2  -3   7  208.74   10.57   1
  -2   3  -7  194.69   13.27   3
  -3   3  -7  351.51   17.29   2
   3  -3   7  370.36   14.98   1
  -3   3  -7  323.44   18.77   3
  -4   3  -7   44.55    8.83   3
  -4   3  -7   60.94    8.11   2
   4  -3   7   56.61    6.52   1
  -5   3  -7  161.67   15.80   3
  -5   3  -7  156.21   11.49   2
   5  -3   7  196.12   12.09   1
  -6   3  -7   14.34    7.04   3
   6  -3   7   19.37    6.28   1
  -6   3  -7   11.16    4.69   2
  -7   3  -7   80.54   12.99   3
  -7   3  -7   48.47    7.65   2
   7  -3   7   57.11    9.62   1
   8  -3   7   46.12   10.02   1
  -8   3  -7   49.81   11.25   3
  -9   3  -7   16.92    8.95   3
   9  -3   7   16.84    7.92   1
 -10   3  -7    5.88    6.67   3
 -11   3  -7   30.68   11.66   3
 -12   3  -7   80.69   16.43   3
 -13   3  -7  200.02   25.36   3
 -14   3  -7   14.29    9.25   3
 -15   3  -7   43.28   13.69   3
  15   2  -7   29.06   12.41   1
  14   2  -7    9.88   10.19   1
  13   2  -7    4.82    8.89   1
  12   2  -7    5.32    8.63   1
  11   2  -7   59.40   14.52   1
  10   2  -7  304.90   24.67   1
   9   2  -7    9.82    9.09   1
   8   2  -7  570.65   31.40   1
   7   2  -7   17.77    9.08   1
   7   2  -7   42.11    9.44   2
   6   2  -7  574.91   27.06   2
   6   2  -7  592.10   28.96   1
  -6  -2   7  576.23   19.43   3
  -5  -2   7  916.03   26.79   3
   5   2  -7  957.10   36.65   2
   5   2  -7  932.74   37.16   1
   4   2  -7  616.93   26.51   1
   4   2  -7  592.99   25.69   2
   3   2  -7  366.30   18.96   2
   3   2  -7  376.21   18.64   1
   2   2  -7   88.16    8.77   1
   2   2  -7   82.15    9.37   2
   2   2  -7   74.20    3.86   3
  -1  -2   7   39.19    6.06   4
   1   2  -7   28.86    6.64   2
   1   2  -7   41.16    4.28   3
  -1  -2   7   38.42    6.25   1
  -1   2  -7 1521.54   48.78   2
   1  -2   7 1560.31   44.61   1
  -1   2  -7 1537.09   47.79   3
  -2   2  -7  112.09    9.91   2
   2  -2   7  102.86    6.28   1
  -2   2  -7  116.20    9.96   3
   3  -2   7   33.96    4.26   1
  -3   2  -7   27.54    6.59   3
  -3   2  -7   30.89    6.60   2
   4  -2   7  978.03   30.71   1
  -4   2  -7  976.46   34.42   2
  -4   2  -7  962.58   38.23   3
  -5   2  -7   23.00    5.60   2
  -5   2  -7   27.25    7.77   3
   5  -2   7   22.10    5.32   1
  -6   2  -7    7.30    5.57   3
  -6   2  -7   13.12    4.53   2
   6  -2   7   10.82    5.55   1
  -7   2  -7   39.99   10.00   3
  -7   2  -7   29.53    6.70   2
   7  -2   7   37.20    7.86   1
  -8   2  -7    4.50    4.23   2
   8  -2   7    8.17    6.77   1
  -8   2  -7    5.33    6.36   3
  -9   2  -7   59.28   12.64   3
   9  -2   7   61.99   11.08   1
 -10   2  -7   13.88    8.03   3
 -11   2  -7   96.72   17.44   3
 -12   2  -7  133.80   20.48   3
 -13   2  -7   20.42    9.50   3
 -14   2  -7   20.71   10.19   3
 -15   2  -7   15.83    9.30   3
 -16   2  -7   13.47   11.27   3
  15   1  -7   62.01   15.56   1
  14   1  -7   36.94   13.99   1
  13   1  -7   -9.83    7.85   1
  12   1  -7   21.65   10.65   1
  11   1  -7  156.37   20.87   1
  10   1  -7   32.09   10.80   1
   9   1  -7   10.58    8.78   1
   8   1  -7  -16.17    5.32   1
   7   1  -7   31.58   10.39   1
  -7  -1   7   37.10    5.38   3
   7   1  -7   33.12    8.84   2
  -6  -1   7   39.76    4.70   3
   6   1  -7   37.65    8.29   2
   6   1  -7   48.06   11.08   1
  -5  -1   7  143.54    6.63   3
   5   1  -7  123.83   13.13   1
   5   1  -7  128.50   12.06   2
   4   1  -7   45.00    8.88   1
   4   1  -7   61.93    8.66   2
   3   1  -7    3.91    5.50   1
   3   1  -7    2.51    5.26   2
   2   1  -7 1859.96   58.46   2
   2   1  -7 1915.96   56.74   1
   1   1  -7  132.29    9.29   1
   1   1  -7  152.15   11.26   2
   0   1  -7 1152.82   39.45   2
   0   1  -7 1224.79   35.41   1
   1  -1   7   -1.03    2.32   1
  -1   1  -7   10.83    5.97   2
  -2   1  -7    2.33    4.38   2
   2  -1   7    4.08    1.83   1
   3  -1   7  428.54   13.50   1
  -3   1  -7  410.36   19.02   2
   4  -1   7 1869.08   51.06   1
  -4   1  -7 1799.64   58.51   2
  -5   1  -7  124.58   10.40   2
   5  -1   7  124.99    8.27   1
  -6   1  -7  206.55   17.10   3
   6  -1   7  199.40   12.08   1
  -6   1  -7  228.10   14.73   2
   7  -1   7   20.48    5.98   1
  -7   1  -7   -0.70    4.87   3
  -7   1  -7   16.53    5.78   2
  -8   1  -7    1.08    6.06   3
  -8   1  -7   10.95    4.91   2
   8  -1   7   17.46    6.93   1
  -9   1  -7   13.88    6.05   2
  -9   1  -7   29.46    9.52   3
   9  -1   7   21.24    8.16   1
 -10   1  -7    3.92    5.88   3
 -11   1  -7   19.95    8.82   3
 -12   1  -7   13.87    9.17   3
 -13   1  -7  196.41   24.56   3
 -14   1  -7   12.81    9.41   3
 -15   1  -7    2.69    7.14   3
 -16   1  -7  140.26   22.73   3
  15   0  -7   -7.59    9.10   1
  14   0  -7    1.17    9.28   1
  13   0  -7   48.71   13.60   1
  12   0  -7    7.40    8.45   1
  11   0  -7    1.35    8.85   1
  10   0  -7    2.29    8.25   1
   9   0  -7  125.09   17.94   1
   8   0  -7  130.57   16.69   1
  -7   0   7   83.23    7.53   3
   7   0  -7   68.82   12.84   1
   7   0  -7   59.00    8.76   2
   6   0  -7  221.11   14.59   2
   6   0  -7  223.28   17.11   1
  -6   0   7  188.47   10.02   3
  -5   0   7  293.92   11.71   3
   5   0  -7  292.03   18.52   1
   5   0  -7  311.28   16.59   2
   4   0  -7  139.90   11.29   2
   4   0  -7  143.33   13.08   1
  -4   0   7  155.35    6.71   3
   3   0  -7 1427.56   46.57   2
   3   0  -7 1459.97   47.32   1
   2   0  -7  176.33   11.96   2
   2   0  -7  158.69   11.45   1
   1   0  -7  100.16    9.00   2
   1   0  -7  100.69    8.57   1
   0   0  -7  329.84   13.63   1
   0   0  -7  317.90   16.67   2
  -1   0  -7  103.03    9.43   2
  -1   0  -7   92.23    5.92   1
  -2   0  -7  158.99   11.44   2
  -3   0  -7  349.46   17.71   2
   4   0   7    2.69    2.41   1
  -4   0  -7    4.90    4.05   2
   5   0   7  396.51   14.84   1
  -5   0  -7  389.60   20.42   2
   6   0   7   26.74    5.38   1
  -6   0  -7   12.32    5.71   2
   7   0   7  109.39    9.58   1
  -7   0  -7   73.85   10.74   2
  -8   0  -7  719.60   33.31   2
   8   0   7  724.36   28.53   1
  -9   0  -7  437.55   25.27   2
   9   0   7  449.40   22.61   1
  10   0   7  139.90   14.05   1
 -10   0  -7  128.86   17.99   3
 -10   0  -7  120.09   14.47   2
 -11   0  -7    0.88    5.76   3
 -12   0  -7   60.34   13.83   3
 -13   0  -7    4.72    7.76   3
 -14   0  -7    3.51    7.59   3
 -15   0  -7   21.01    9.71   3
 -16   0  -7   13.82    8.58   3
  15  -1  -7   18.97   13.16   1
  14  -1  -7   65.28   16.86   1
  13  -1  -7   35.41   12.46   1
  12  -1  -7   39.34   13.10   1
  11  -1  -7   17.68    9.99   1
  10  -1  -7    3.53    8.71   1
   9  -1  -7   22.34   11.42   1
   8  -1  -7   14.01    9.26   1
  -7   1   7   22.42    5.62   3
   7  -1  -7   18.52    7.12   2
   7  -1  -7   15.90    8.43   1
  -6   1   7  113.37    8.40   3
   6  -1  -7   98.37   13.60   1
   6  -1  -7  124.47   11.01   2
   5  -1  -7  433.15   23.82   1
  -5   1   7  452.07   16.86   3
   4  -1  -7 1085.42   39.99   1
  -4   1   7 1041.97   31.51   3
   3  -1  -7  101.47   10.91   1
   3  -1  -7  104.08    9.33   2
   2  -1  -7  400.33   17.72   2
   2  -1  -7  384.61   18.25   1
   1  -1  -7 1172.75   38.00   1
   1  -1  -7 1236.71   40.40   2
   0  -1  -7  107.98    9.92   2
   0  -1  -7   90.14    7.63   1
  -1  -1  -7  334.00   12.56   1
  -1  -1  -7  329.89   16.41   2
  -2  -1  -7   37.34    3.25   1
  -2  -1  -7   36.63    6.68   2
  -3  -1  -7  906.28   34.57   2
  -4  -1  -7  272.39   16.94   2
  -4  -1  -7  289.55   10.24   1
  -5  -1  -7  154.22   13.13   2
   6   1   7    1.13    3.50   1
  -6  -1  -7   -5.73    2.94   2
   7   1   7    8.41    4.82   1
  -7  -1  -7   12.65    5.55   2
   8   1   7    0.61    4.67   1
  -8  -1  -7   -3.48    3.67   2
   9   1   7  176.45   13.51   1
  -9  -1  -7  189.76   18.29   2
  10   1   7   91.80   11.82   1
 -10  -1  -7   89.88   14.29   2
 -11  -1  -7   11.74    6.83   2
 -12  -1  -7   21.84    8.63   3
 -13  -1  -7  279.01   27.18   3
 -14  -1  -7   27.08   10.32   3
 -15  -1  -7    8.98    9.34   3
 -16  -1  -7   67.81   15.67   3
  15  -2  -7    9.63   13.00   1
  14  -2  -7   16.78   10.26   1
  13  -2  -7   20.90   12.44   1
  12  -2  -7    3.15    9.10   1
  11  -2  -7    3.46    8.55   1
  10  -2  -7   72.25   14.86   1
   9  -2  -7   79.06   15.03   1
   8  -2  -7  201.34   20.72   1
   7  -2  -7  477.70   22.13   2
  -7   2   7  484.30   21.19   3
   7  -2  -7  464.80   28.60   1
   6  -2  -7   17.51    9.20   1
   6  -2  -7   42.21    7.77   2
  -6   2   7   43.93    6.53   3
   5  -2  -7  305.65   15.56   2
  -5   2   7  302.55   13.98   3
   5  -2  -7  282.41   18.98   1
   4  -2  -7    6.25    5.05   2
   4  -2  -7    5.27    5.92   1
  -4   2   7    6.25    3.67   3
   2  -2  -7   24.09    5.58   2
   2  -2  -7   30.53    7.22   1
   1  -2  -7   20.01    5.92   2
   1  -2  -7   17.18    5.65   1
   0  -2  -7  387.26   16.00   1
   0  -2  -7  374.46   17.92   2
  -1  -2  -7 1620.23   52.27   2
  -1  -2  -7 1568.09   45.53   1
  -2  -2  -7   77.70    9.11   2
  -2  -2  -7   78.99    5.43   1
  -3  -2  -7   26.58    6.61   2
  -3  -2  -7   18.92    2.86   1
  -4  -2  -7  253.81   16.33   2
  -4  -2  -7  247.82   10.15   1
  -5  -2  -7 1379.18   51.27   2
  -5  -2  -7 1385.22   41.09   1
  -6  -2  -7   76.31    7.00   1
  -6  -2  -7   76.56    6.94   4
  -6  -2  -7   90.31   12.24   2
  -7  -2  -7  156.30   10.45   4
  -7  -2  -7  174.80   15.44   2
  -7  -2  -7  168.78   11.16   1
  -8  -2  -7  367.54   23.98   2
   8   2   7  404.78   18.78   1
  -9  -2  -7   13.09    6.60   2
   9   2   7    5.49    6.18   1
 -10  -2  -7   18.43    7.57   2
  10   2   7   16.64    7.82   1
 -11  -2  -7  314.36   24.15   2
 -12  -2  -7   18.14    7.14   2
 -14  -2  -7    9.68    7.67   3
 -15  -2  -7    5.79    7.52   3
 -16  -2  -7   15.65    8.88   3
  14  -3  -7    5.06    9.11   1
  13  -3  -7   25.61   12.73   1
  12  -3  -7   22.09   10.94   1
  11  -3  -7   87.80   16.88   1
  10  -3  -7   13.89    9.28   1
   9  -3  -7   21.07   10.47   1
   8  -3  -7  109.53   17.55   1
  -8   3   7  109.16   11.68   3
   7  -3  -7   -1.88    7.01   1
  -7   3   7    7.32    5.20   3
   6  -3  -7  122.91   10.31   2
   6  -3  -7   88.86   14.60   1
  -6   3   7  123.00   10.19   3
  -5   3   7  100.71    8.85   3
   5  -3  -7   63.09   12.13   1
   5  -3  -7   78.34    8.13   2
   4  -3  -7   -0.29    4.41   2
   4  -3  -7    0.07    6.52   1
  -4   3   7    3.80    3.92   3
   3  -3  -7  695.28   29.60   1
   3  -3  -7  655.38   24.67   2
   2  -3  -7  129.18   11.76   1
   2  -3  -7  110.30    9.02   2
   1  -3  -7 1040.55   35.69   1
   1  -3  -7  999.05   35.31   2
   0  -3  -7  100.34    9.49   2
   0  -3  -7  101.87    8.29   1
  -1  -3  -7   32.30    5.20   1
  -1  -3  -7   42.14    7.49   2
  -2  -3  -7  175.47    9.36   1
  -2  -3  -7  153.73   12.63   2
  -3  -3  -7   63.31    5.36   1
  -3  -3  -7   61.39    9.51   2
  -4  -3  -7   68.46   10.61   2
  -4  -3  -7   70.75    5.86   1
  -5  -3  -7  378.48   22.45   2
  -5  -3  -7  373.38   15.74   1
  -6  -3  -7  319.55   21.35   2
  -6  -3  -7  316.05   15.16   1
  -7  -3  -7   34.77    9.16   2
  -7  -3  -7   29.73    5.73   1
  -7  -3  -7   30.06    5.74   4
  -8  -3  -7   -0.94    3.17   4
  -8  -3  -7    0.09    3.07   1
  -8  -3  -7   -0.53    4.97   2
  -9  -3  -7  110.93   16.05   2
  -9  -3  -7   77.53   10.03   1
  -9  -3  -7  108.64   10.99   4
 -10  -3  -7   58.74   12.56   2
 -10  -3  -7   86.14   11.53   1
 -10  -3  -7   99.58   11.47   4
 -11  -3  -7   17.14    8.35   2
 -12  -3  -7   99.17   17.21   2
 -13  -3  -7   40.34   11.77   2
 -15  -3  -7   15.85    8.20   3
 -16  -3  -7   15.57    9.93   3
  14  -4  -7   31.61   14.89   1
  13  -4  -7    2.29    8.77   1
  12  -4  -7   55.34   15.09   1
  11  -4  -7    7.64    8.96   1
  10  -4  -7    6.92   10.15   1
   9  -4  -7  154.88   21.24   1
  -8   4   7   25.77    7.87   3
   8  -4  -7   31.20   11.66   1
   7  -4  -7  398.08   27.05   1
  -7   4   7  352.59   19.87   3
  -6   4   7  147.03   12.05   3
   6  -4  -7  203.95   19.99   1
   5  -4  -7    6.69    7.53   1
   5  -4  -7   12.30    5.14   2
  -5   4   7    5.22    4.97   3
  -4   4   7   22.11    5.81   3
   4  -4  -7   18.63    8.38   1
   4  -4  -7   19.17    5.44   2
   3  -4  -7    5.22    6.30   1
   3  -4  -7    3.61    4.54   2
   2  -4  -7  130.40   10.28   2
   2  -4  -7  134.94   12.57   1
   0  -4  -7  134.49   10.28   1
   0  -4  -7  137.12   10.78   2
  -1  -4  -7  421.98   18.36   1
  -1  -4  -7  427.67   21.13   2
  -2  -4  -7    3.34    4.90   2
  -2  -4  -7    6.42    3.49   1
  -3  -4  -7  676.18   23.99   1
  -3  -4  -7  661.86   30.53   2
  -4  -4  -7    1.26    2.57   1
  -4  -4  -7   -0.74    4.48   2
  -5  -4  -7  560.18   29.19   2
  -5  -4  -7  556.58   21.85   1
  -6  -4  -7  475.68   27.22   2
  -6  -4  -7  429.59   19.47   1
  -7  -4  -7  111.65   15.39   2
  -7  -4  -7  122.89   10.00   1
  -8  -4  -7  381.05   26.21   2
  -8  -4  -7  368.22   19.32   1
  -9  -4  -7   56.25    8.67   4
  -9  -4  -7   38.54   10.71   2
  -9  -4  -7   37.12    7.43   1
 -10  -4  -7   40.17   11.39   2
 -10  -4  -7   28.32    7.48   4
 -10  -4  -7   42.65    8.69   1
 -11  -4  -7   16.17    7.78   2
 -12  -4  -7  173.59   23.62   2
 -13  -4  -7  102.20   19.27   2
 -14  -4  -7   -9.12    6.55   2
 -16  -4  -7   33.93   11.01   3
  13  -5  -7    5.77    5.90   1
  12  -5  -7   -2.54    8.42   1
  11  -5  -7   -1.44    9.67   1
  10  -5  -7    6.57   10.57   1
   9  -5  -7    1.04    8.32   1
   8  -5  -7   46.11   12.96   1
  -8   5   7   30.48    8.18   3
  -7   5   7   41.60    9.30   3
   7  -5  -7   35.66   12.04   1
   6  -5  -7  161.51   19.55   1
  -6   5   7  150.76   13.14   3
  -5   5   7  199.45   14.28   3
   5  -5  -7  217.53   20.35   1
   4  -5  -7    1.98    7.03   1
  -4   5   7    0.93    4.77   3
   4  -5  -7    1.12    4.67   2
   3  -5  -7 1158.74   38.43   2
   3  -5  -7 1194.39   45.46   1
   2  -5  -7   20.60    7.30   1
   2  -5  -7   32.86    6.31   2
   1  -5  -7  283.92   17.39   1
   1  -5  -7  292.46   15.89   2
   0  -5  -7 1231.64   39.51   1
   0  -5  -7  961.10   38.52   2
  -1  -5  -7  243.13   14.17   1
  -1  -5  -7  262.49   16.41   2
  -2  -5  -7  196.11   14.85   2
  -2  -5  -7  191.53   12.01   1
  -3  -5  -7    6.80    3.82   1
  -3  -5  -7    2.57    4.74   2
  -4  -5  -7  176.82   15.24   2
  -4  -5  -7  178.98   11.18   1
  -5  -5  -7   36.92    6.29   1
  -5  -5  -7   26.78    8.46   2
  -6  -5  -7  139.29   10.53   1
  -6  -5  -7  116.80   15.49   2
  -7  -5  -7    0.93    5.06   2
  -7  -5  -7   22.96    5.97   1
  -8  -5  -7    9.98    5.16   1
  -8  -5  -7   14.35    7.50   2
  -9  -5  -7    1.60    4.47   1
  -9  -5  -7   -0.99    5.15   2
 -10  -5  -7   53.38    9.86   1
 -10  -5  -7   39.58   11.54   2
 -11  -5  -7    4.47    7.71   2
 -12  -5  -7  238.35   28.67   2
 -13  -5  -7  229.96   29.97   2
 -14  -5  -7   12.67    9.87   2
 -15  -5  -7    4.82   10.96   2
  13  -6  -7    6.15    7.57   1
  12  -6  -7   -3.12    8.17   1
  11  -6  -7   60.03   16.23   1
  10  -6  -7   -4.74    9.42   1
   9  -6  -7  114.57   20.13   1
  -8   6   7   12.24    6.42   3
   8  -6  -7   -2.75    8.51   1
   7  -6  -7   13.72   10.61   1
  -7   6   7   12.50    6.99   3
   6  -6  -7  127.51   18.61   1
  -6   6   7  143.02   14.36   3
  -5   6   7   39.02    9.22   3
   5  -6  -7   51.76   12.92   1
   4  -6  -7  221.28   18.56   1
   3  -6  -7   25.45    9.52   1
   3  -6  -7    7.85    5.45   2
   2  -6  -7    9.02    4.69   2
   2  -6  -7    8.77    6.22   1
   1  -6  -7  709.49   31.64   1
   1  -6  -7  766.10   29.91   2
   0  -6  -7  102.59   11.30   1
  -1  -6  -7    1.09    4.24   2
  -1  -6  -7    0.90    4.14   1
  -2  -6  -7  169.97   12.05   1
  -2  -6  -7  156.97   13.62   2
  -3  -6  -7  115.41   10.60   1
  -3  -6  -7  128.15   14.14   2
  -4  -6  -7  349.43   22.86   2
  -4  -6  -7  355.08   17.94   1
  -5  -6  -7   78.89   13.38   2
  -5  -6  -7   68.09    8.60   1
  -6  -6  -7  982.68   45.70   2
  -6  -6  -7  968.82   36.74   1
  -7  -6  -7   15.52    7.83   2
  -7  -6  -7   13.66    5.27   1
  -8  -6  -7   14.15    5.22   1
  -8  -6  -7   -1.04    5.20   2
  -9  -6  -7  321.74   20.19   1
  -9  -6  -7  393.00   29.99   2
 -10  -6  -7   42.29   13.04   2
 -10  -6  -7   48.49    9.32   1
 -11  -6  -7   18.95   10.93   2
 -12  -6  -7   77.96   18.03   2
 -13  -6  -7   76.51   19.46   2
 -14  -6  -7   38.01   16.77   2
 -15  -6  -7   14.35   13.05   2
 -16  -6  -7   87.78   24.54   2
  12  -7  -7    1.12    6.66   1
  11  -7  -7   27.15   12.80   1
  10  -7  -7    1.45   10.09   1
   9  -7  -7   14.36   11.19   1
   8  -7  -7   21.07   10.80   1
  -8   7   7   20.51    8.30   3
  -7   7   7   -0.26    5.34   3
   7  -7  -7   15.03   10.38   1
  -6   7   7    4.87    6.73   3
   6  -7  -7    2.97    8.33   1
   5  -7  -7  162.15   19.82   1
  -5   7   7  232.74   17.36   3
   4  -7  -7   -0.11    7.83   1
   3  -7  -7   51.98   11.98   1
   2  -7  -7  593.61   24.47   2
   2  -7  -7  575.13   29.81   1
   1  -7  -7    1.74    5.51   1
   1  -7  -7   -1.06    4.06   2
   0  -7  -7 1334.73   47.92   1
   0  -7  -7 1318.63   47.80   2
  -1  -7  -7  414.59   22.44   2
  -1  -7  -7  414.37   21.42   1
  -2  -7  -7    3.53    3.91   1
  -2  -7  -7   -1.85    4.17   2
  -3  -7  -7   24.26    7.99   2
  -3  -7  -7   43.49    7.76   1
  -4  -7  -7   30.29    6.68   1
  -4  -7  -7   39.01    9.53   2
  -5  -7  -7   32.28    9.36   2
  -5  -7  -7   29.91    6.58   1
  -6  -7  -7  188.97   20.79   2
  -6  -7  -7  165.09   13.13   1
  -7  -7  -7   11.10    5.38   1
  -7  -7  -7   11.65    6.85   2
  -8  -7  -7  106.82   12.74   1
  -8  -7  -7  109.17   18.36   2
  -9  -7  -7   16.87    9.67   2
  -9  -7  -7    2.72    4.74   1
 -10  -7  -7  185.35   17.53   1
 -10  -7  -7  201.67   26.76   2
 -11  -7  -7   60.01   16.47   2
 -11  -7  -7   29.36    9.02   1
 -12  -7  -7   -1.89    8.91   2
 -13  -7  -7  164.72   29.36   2
 -14  -7  -7   10.35   12.22   2
 -15  -7  -7   62.06   21.27   2
 -16  -7  -7   31.41   17.61   2
  11  -8  -7    4.85    5.92   1
  10  -8  -7   -0.54   12.68   1
   9  -8  -7    1.51   11.21   1
   8  -8  -7   45.72   14.32   1
  -8   8   7   62.97   12.90   3
   7  -8  -7    6.13   10.50   1
  -7   8   7    1.20    5.85   3
   6  -8  -7  125.79   19.55   1
  -6   8   7  140.91   15.85   3
   5  -8  -7   51.20   13.26   1
   4  -8  -7   12.76    9.59   1
   3  -8  -7   -4.39    6.55   1
   2  -8  -7   25.74    9.45   1
   1  -8  -7    6.96    4.75   2
   1  -8  -7   13.22    7.31   1
   0  -8  -7   88.52   12.33   1
   0  -8  -7   84.74   11.01   2
  -1  -8  -7  399.99   21.57   1
  -1  -8  -7  284.69   18.98   2
  -2  -8  -7  329.16   21.23   2
  -2  -8  -7  294.13   18.52   1
  -3  -8  -7   58.68   11.35   2
  -3  -8  -7   57.84    9.64   1
  -4  -8  -7  367.21   25.20   2
  -4  -8  -7  396.20   21.58   1
  -5  -8  -7   48.67   11.56   2
  -5  -8  -7   73.60   10.43   1
  -6  -8  -7   -0.80    5.36   2
  -6  -8  -7   -0.35    3.84   1
  -7  -8  -7  379.39   29.22   2
  -7  -8  -7  399.33   22.84   1
  -8  -8  -7    5.52    5.57   1
  -8  -8  -7    7.42    7.54   2
  -9  -8  -7   44.54    9.63   1
  -9  -8  -7   34.62   12.21   2
 -10  -8  -7    2.81    5.24   1
 -10  -8  -7   -5.66    7.12   2
 -11  -8  -7   83.86   13.54   1
 -11  -8  -7   72.95   18.81   2
 -12  -8  -7   51.53   17.11   2
 -13  -8  -7   58.75   18.46   2
 -14  -8  -7   -3.28   10.48   2
 -15  -8  -7   -1.89   13.90   2
 -16  -8  -7   40.58   22.81   2
  10  -9  -7    4.30    5.37   1
   9  -9  -7   44.52   15.69   1
   8  -9  -7   15.30   11.19   1
  -8   9   7    8.67    8.18   3
   7  -9  -7    4.89    9.94   1
   6  -9  -7   26.23   11.92   1
   5  -9  -7    6.63    8.59   1
   4  -9  -7  257.10   24.77   1
   3  -9  -7   11.87    8.35   1
   2  -9  -7  239.01   20.64   1
   1  -9  -7   35.61   10.00   1
   0  -9  -7  140.58   13.64   2
   0  -9  -7  120.69   14.64   1
  -1  -9  -7  184.01   16.86   1
  -2  -9  -7   -1.99    4.34   1
  -2  -9  -7   -2.03    4.38   2
  -3  -9  -7    5.03    4.91   1
  -3  -9  -7    0.24    4.55   2
  -4  -9  -7   62.03   10.51   1
  -4  -9  -7   91.90   14.75   2
  -5  -9  -7   55.40   10.04   1
  -5  -9  -7   56.36   12.31   2
  -6  -9  -7   97.40   12.52   1
  -6  -9  -7   75.08   15.12   2
  -7  -9  -7    1.18    4.74   1
  -7  -9  -7    6.79    6.56   2
  -8  -9  -7   28.57   11.53   2
  -8  -9  -7   38.35    9.22   1
  -9  -9  -7   15.06    7.07   1
 -10  -9  -7   28.17    8.96   1
 -11  -9  -7  132.78   17.12   1
 -11  -9  -7  149.72   27.10   2
 -12  -9  -7    6.34   10.88   2
 -13  -9  -7  151.84   30.13   2
 -14  -9  -7  169.13   34.01   2
 -15  -9  -7  118.39   29.99   2
 -16  -9  -7   49.66   25.90   2
  10 -10  -7   -1.10    6.88   1
   9 -10  -7   -0.32    4.65   1
   8 -10  -7   28.58   14.32   1
   7 -10  -7   47.91   15.49   1
   6 -10  -7   41.64   13.70   1
   5 -10  -7   58.47   14.89   1
   4 -10  -7   -5.97    7.93   1
   3 -10  -7    3.48    7.14   1
   2 -10  -7   32.30   10.47   1
   1 -10  -7   25.27    9.14   1
   0 -10  -7  109.33   15.19   1
  -1 -10  -7   78.31   13.08   1
  -1 -10  -7   37.23    9.03   2
  -2 -10  -7  273.12   20.86   2
  -2 -10  -7  326.98   21.41   1
  -3 -10  -7  311.78   20.91   1
  -3 -10  -7  287.27   22.28   2
  -4 -10  -7  203.47   16.98   1
  -4 -10  -7  241.58   20.88   2
  -5 -10  -7    2.66    5.11   1
  -5 -10  -7    5.53    6.28   2
  -6 -10  -7   13.52    8.15   2
  -6 -10  -7   27.22    7.85   1
  -7 -10  -7  112.55   14.56   1
  -7 -10  -7  115.19   19.66   2
  -8 -10  -7    2.11    5.51   1
  -8 -10  -7   14.11    8.45   2
  -9 -10  -7   -7.17    4.11   1
 -10 -10  -7    4.89    5.87   1
 -11 -10  -7    0.86    9.91   2
 -11 -10  -7    0.19    5.88   1
 -12 -10  -7   -5.92    9.45   2
 -13 -10  -7  -20.10    7.78   2
 -14 -10  -7  -12.48    9.45   2
 -15 -10  -7  151.01   37.74   2
   9 -11  -7    3.56    6.73   1
   8 -11  -7   -4.13    5.14   1
   7 -11  -7   88.87   20.06   1
   6 -11  -7   47.69   14.75   1
   5 -11  -7   -6.34    7.48   1
   4 -11  -7   51.06   14.51   1
   3 -11  -7   12.23    8.96   1
   2 -11  -7    2.22    7.83   1
   1 -11  -7   61.39   12.94   1
   0 -11  -7    8.38    6.38   1
  -1 -11  -7   22.10    8.72   1
  -2 -11  -7   -6.26    4.53   1
  -2 -11  -7    8.30    6.37   2
  -3 -11  -7   40.48    9.57   1
  -3 -11  -7   22.57    8.28   2
  -4 -11  -7    8.84    6.62   1
  -4 -11  -7   10.76    7.28   2
  -5 -11  -7   80.13   15.05   2
  -5 -11  -7   93.40   14.35   1
  -6 -11  -7   21.26    8.83   2
  -6 -11  -7   37.79    9.64   1
  -7 -11  -7  166.63   18.17   1
  -7 -11  -7  141.92   22.23   2
  -8 -11  -7   33.02   11.99   2
  -8 -11  -7   57.30   11.69   1
  -9 -11  -7    8.50    6.20   1
  -9 -11  -7   -1.65    8.20   2
 -10 -11  -7   29.21   13.15   2
 -10 -11  -7    5.85    7.02   1
 -11 -11  -7  194.54   21.68   1
 -11 -11  -7  175.00   30.71   2
 -12 -11  -7   39.60   16.92   2
 -13 -11  -7    7.88   13.28   2
 -14 -11  -7  155.70   35.72   2
 -15 -11  -7   -0.19   17.31   2
   7 -12  -7   -2.39    5.15   1
   6 -12  -7   -1.15    9.03   1
   5 -12  -7   -2.06    7.54   1
   4 -12  -7   14.15   11.04   1
   3 -12  -7   -5.33    7.29   1
   2 -12  -7   -1.00    7.07   1
   1 -12  -7   13.84    9.28   1
   0 -12  -7  129.58   18.03   1
  -1 -12  -7   33.45   10.55   1
  -2 -12  -7  214.33   21.21   1
  -3 -12  -7   16.82    7.91   2
  -3 -12  -7   24.48    8.66   1
  -4 -12  -7   17.80    7.89   1
  -4 -12  -7   17.72    8.58   2
  -5 -12  -7   32.87   10.53   2
  -5 -12  -7   33.41    9.59   1
  -6 -12  -7   20.81    8.81   1
  -6 -12  -7   13.56    8.27   2
  -7 -12  -7   27.27   11.41   2
  -7 -12  -7   19.80    7.92   1
  -8 -12  -7   61.72   12.60   1
  -8 -12  -7   58.25   15.67   2
  -9 -12  -7   18.59   10.58   2
  -9 -12  -7    8.23    6.85   1
 -10 -12  -7  145.69   26.63   2
 -10 -12  -7  130.77   18.75   1
 -11 -12  -7    5.45   11.47   2
 -11 -12  -7   -2.54    6.47   1
 -12 -12  -7    0.94   10.84   2
 -13 -12  -7  110.29   28.45   2
 -14 -12  -7  -34.30   14.18   2
   6 -13  -7   -7.19    5.82   1
   5 -13  -7   -2.30    6.28   1
   4 -13  -7   28.65   13.79   1
   3 -13  -7   59.16   14.90   1
   2 -13  -7  -10.92    5.92   1
   1 -13  -7   47.25   12.76   1
   0 -13  -7   59.29   14.70   1
  -1 -13  -7    8.51    8.13   1
  -2 -13  -7    2.78    6.89   1
  -3 -13  -7    6.63    7.50   1
  -4 -13  -7   29.88    9.87   2
  -4 -13  -7   38.20   10.83   1
  -5 -13  -7   12.49    7.43   2
  -5 -13  -7    0.91    6.21   1
  -6 -13  -7  161.25   20.02   1
  -6 -13  -7  141.38   22.02   2
  -7 -13  -7  104.67   19.88   2
  -7 -13  -7   93.98   16.41   1
  -8 -13  -7   -6.84    7.17   2
  -8 -13  -7    1.42    6.11   1
  -9 -13  -7   26.67   10.18   1
  -9 -13  -7   69.00   18.26   2
 -10 -13  -7   20.82   12.56   2
 -10 -13  -7   -3.65    7.03   1
 -11 -13  -7  221.41   34.64   2
 -11 -13  -7  237.13   24.97   1
 -12 -13  -7   -0.38   10.82   2
 -13 -13  -7   -1.13   10.17   2
   5 -14  -7    1.72    6.56   1
   4 -14  -7  -14.40    4.25   1
   3 -14  -7   33.66   12.71   1
   2 -14  -7    7.15    9.33   1
   1 -14  -7    9.70    9.23   1
   0 -14  -7   47.18   12.20   1
  -1 -14  -7   82.50   16.13   1
  -2 -14  -7    6.90    7.77   1
  -3 -14  -7  122.20   19.67   1
  -4 -14  -7   -2.33    6.25   1
  -5 -14  -7   45.57   12.56   2
  -5 -14  -7   18.16    8.76   1
  -6 -14  -7   39.31   11.67   1
  -6 -14  -7   33.71   12.01   2
  -7 -14  -7    9.15    7.19   1
  -7 -14  -7   22.50   10.82   2
  -8 -14  -7   10.35    8.63   2
  -8 -14  -7   26.25   10.06   1
  -9 -14  -7    3.22    6.93   1
  -9 -14  -7   21.03   11.40   2
 -10 -14  -7   -3.03    9.60   2
 -10 -14  -7    2.27    6.98   1
 -11 -14  -7    5.16    9.09   2
 -11 -14  -7    6.29    7.99   1
 -12 -14  -7    9.27   10.22   2
   3 -15  -7  100.94   19.95   1
   2 -15  -7   -5.01    8.60   1
   1 -15  -7   32.29   12.69   1
   0 -15  -7    8.38    9.26   1
  -1 -15  -7   -1.75    6.89   1
  -2 -15  -7   28.88   11.31   1
  -3 -15  -7    3.45    6.73   1
  -4 -15  -7   20.05   10.74   1
  -5 -15  -7   12.58    8.46   1
  -6 -15  -7   20.45   10.38   1
  -6 -15  -7    1.05    8.13   2
  -7 -15  -7   49.83   12.80   1
  -7 -15  -7  102.87   20.40   2
  -8 -15  -7    2.84    8.74   2
  -8 -15  -7    2.42    7.34   1
  -9 -15  -7   76.16   16.28   1
  -9 -15  -7   69.94   17.82   2
 -10 -15  -7   22.89   10.14   1
 -10 -15  -7   15.82   11.59   2
 -11 -15  -7   -8.98    6.21   1
 -11 -15  -7    6.93    8.88   2
   1 -16  -7   25.15   12.91   1
   0 -16  -7    4.84   10.58   1
  -1 -16  -7   86.51   18.93   1
  -2 -16  -7   -1.36    8.97   1
  -3 -16  -7   59.68   15.58   1
  -4 -16  -7  -11.04    5.30   1
  -5 -16  -7    2.77    8.37   1
  -6 -16  -7    7.73    7.87   1
  -7 -16  -7   20.62    9.18   1
  -7 -16  -7   35.06   13.78   2
  -8 -16  -7   -2.07    8.71   2
  -8 -16  -7    9.00    8.40   1
  -9 -16  -7   16.22   10.01   1
  -9 -16  -7   -2.52    8.06   2
 -10 -16  -7    2.01    8.58   1
 -10 -16  -7   18.67   12.10   2
 -11 -16  -7   10.56   10.78   1
  -3 -17  -7   -1.04   10.49   1
  -4 -17  -7    5.38    9.74   1
  -5 -17  -7   11.30   10.25   1
  -6 -17  -7   13.51   11.08   1
  -7 -17  -7   21.31   10.02   1
  -8 -17  -7   -2.35    8.64   1
  -8 -17  -7   19.18   10.55   2
  -9 -17  -7   32.75   15.72   2
  -7 -16   8   -2.41    4.68   1
  -6 -16   8   -6.70    5.01   1
  -5 -16   8    0.00    4.78   1
  -4 -16   8   -0.75    4.88   1
  -3 -16   8   -7.91    4.34   1
  -2 -16   8   -2.88    5.33   1
  -1 -16   8   20.21    7.68   1
   0 -16   8  117.03   19.37   1
   1 -16   8   -9.52    7.04   1
   2 -16   8   42.63   13.41   1
   3 -16   8   27.97   13.16   1
  -9 -15   8   42.84   16.54   1
  -8 -15   8   -3.44    4.84   1
  -7 -15   8   -3.19    5.14   1
  -6 -15   8   21.03   10.04   1
  -5 -15   8   10.74    8.66   1
  -4 -15   8  155.41   22.62   1
  -3 -15   8   33.94   11.03   1
  -2 -15   8   -4.74    6.63   1
  -1 -15   8  118.67   19.87   1
   0 -15   8   24.48    9.95   1
   1 -15   8    9.54    8.46   1
   2 -15   8   57.96   13.96   1
   3 -15   8   12.34    9.01   1
   4 -15   8   97.63   17.75   1
   5 -15   8   13.93   10.81   1
 -11 -14   8   16.20   11.76   1
 -10 -14   8   41.83   14.61   1
  -9 -14   8   20.26   12.59   1
  -8 -14   8   -5.63    8.16   1
  -7 -14   8   12.02    7.81   1
  -6 -14   8   -3.13    5.81   1
  -5 -14   8   12.49    8.98   1
  -4 -14   8  -10.06    4.16   1
  -3 -14   8   12.62    7.83   1
  -2 -14   8   29.15    9.75   1
  -1 -14   8    2.65    5.85   1
   0 -14   8  255.83   25.84   1
   1 -14   8   61.14   13.89   1
   2 -14   8    8.75    7.49   1
  -2  14  -8    6.87    7.68   3
   3 -14   8   40.60   11.72   1
  -3  14  -8   29.13   11.08   3
   4 -14   8   -7.69    7.66   1
  -4  14  -8   -4.91    5.38   3
   5 -14   8    1.61    8.67   1
  -5  14  -8   -2.51    4.35   3
   6 -14   8    6.59    8.78   1
 -12 -13   8   15.54   11.84   1
 -11 -13   8    7.85    9.22   1
 -10 -13   8   10.51   10.26   1
  -9 -13   8   16.15   10.12   1
  -8 -13   8   67.43   15.44   1
  -7 -13   8   22.68    9.05   1
  -6 -13   8   74.87   15.76   1
  -5 -13   8   63.24   13.67   1
  -4 -13   8   68.32   14.33   1
  -3 -13   8  128.66   18.95   1
  -2 -13   8    5.08    6.30   1
  -1 -13   8    1.21    5.80   1
   0 -13   8   11.92    7.14   1
  -1  13  -8    5.76    6.58   3
   1 -13   8    1.76    6.00   1
   2 -13   8   36.39   11.11   1
  -2  13  -8   39.20   11.22   3
  -3  13  -8   19.36    8.16   3
   3 -13   8   14.29    8.37   1
  -4  13  -8   64.07   14.23   3
   4 -13   8   59.89   13.51   1
   5 -13   8  104.82   17.45   1
  -6  13  -8    5.26    3.16   3
   6 -13   8   10.46    8.65   1
  -7  13  -8   -1.39    4.06   3
 -13 -12   8   55.28   16.57   1
 -12 -12   8  108.78   21.43   1
 -11 -12   8    5.85    9.79   1
 -10 -12   8    5.82    8.32   1
  -9 -12   8   48.79   14.72   1
  -8 -12   8   -1.20    6.68   1
  -7 -12   8    8.38    7.69   1
  -6 -12   8   18.83    8.69   1
  -5 -12   8   13.10    7.77   1
  -4 -12   8   44.89   11.41   1
  -3 -12   8    9.17    6.28   1
  -2 -12   8    0.05    4.91   1
  -1 -12   8   41.34   10.25   1
   0 -12   8   11.75    7.17   1
   0  12  -8   12.46    7.14   3
   1 -12   8   50.62   11.72   1
  -1  12  -8   74.42   13.61   3
  -2  12  -8   72.11   14.36   3
   2 -12   8   83.86   14.91   1
   3 -12   8   23.83    9.14   1
  -3  12  -8   -4.65    5.39   3
   4 -12   8   81.33   14.62   1
  -4  12  -8   60.45   13.56   3
  -5  12  -8   34.97   12.03   3
   5 -12   8   28.51   10.78   1
   6 -12   8   11.60    9.49   1
  -6  12  -8   26.28   10.63   3
  -7  12  -8    1.00    6.60   3
  -8  12  -8   15.68   10.45   3
 -13 -11   8   24.43   12.22   1
 -12 -11   8    6.33    8.49   1
 -11 -11   8   70.73   16.56   1
 -10 -11   8   90.71   18.64   1
  -9 -11   8   -5.18    6.82   1
  -8 -11   8  136.42   21.70   1
  -7 -11   8   43.91   12.28   1
  -6 -11   8  182.73   22.65   1
  -5 -11   8   84.33   15.74   1
  -4 -11   8   11.63    6.97   1
  -3 -11   8    5.70    5.41   1
  -2 -11   8  100.22   15.22   1
  -1 -11   8   20.26    7.47   1
   0  11  -8    8.57    6.69   3
   0 -11   8    5.63    5.37   1
  -1  11  -8   20.20    8.42   3
   1 -11   8   17.53    7.73   1
   2 -11   8  170.20   18.15   1
  -2  11  -8  126.32   16.71   3
  -3  11  -8   31.80    9.88   3
   3 -11   8   17.00    7.78   1
  -4  11  -8   39.05   11.34   3
   4 -11   8   32.02   10.17   1
  -5  11  -8   49.11   12.60   3
   5 -11   8   31.93   10.32   1
  -6  11  -8   21.75    9.90   3
   6 -11   8   25.45   10.11   1
  -7  11  -8  170.64   22.40   3
   7 -11   8  137.27   19.00   1
  -8  11  -8   81.29   16.25   3
  -9  11  -8   16.06   10.64   3
 -14 -10   8   63.02   17.20   1
 -13 -10   8   28.62   11.97   1
 -12 -10   8    8.58   10.45   1
 -11 -10   8   28.99   12.16   1
 -10 -10   8   31.72   11.97   1
  -9 -10   8  182.43   24.17   1
  -8 -10   8   18.52    9.22   1
  -7 -10   8    5.50    6.61   1
  -6 -10   8   57.56   12.77   1
  -5 -10   8  117.05   17.68   1
  -4 -10   8  226.11   22.34   1
  -3 -10   8  131.94   17.61   1
  -2 -10   8   74.36   12.86   1
   1  10  -8  180.51   16.80   3
  -1 -10   8  155.66   17.10   1
   0 -10   8   94.58   13.88   1
   0  10  -8  101.94   13.58   3
  -1  10  -8  102.79   14.19   3
   1 -10   8   79.04   13.22   1
  -2  10  -8   61.89   11.82   3
   2 -10   8   72.61   12.12   1
   3 -10   8   27.54    8.37   1
  -3  10  -8   42.45   10.58   3
   4 -10   8    0.42    5.69   1
  -4  10  -8    9.43    6.39   3
   5 -10   8    8.55    6.82   1
  -5  10  -8   -1.01    6.20   3
   6 -10   8    4.58    6.93   1
  -6  10  -8    9.91    7.96   3
   7 -10   8   -0.60    6.66   1
  -7  10  -8   12.72    8.72   3
  -8  10  -8  -15.76    6.17   3
  -9  10  -8   16.45    9.26   3
 -10  10  -8   14.05   10.36   3
 -14  -9   8    5.53    9.91   1
 -13  -9   8    9.77   10.97   1
 -12  -9   8  127.93   21.84   1
 -11  -9   8    7.53    8.09   1
 -10  -9   8  266.88   28.32   1
  -9  -9   8   35.37   11.63   1
  -8  -9   8  122.46   19.30   1
  -7  -9   8  359.44   27.08   1
  -6  -9   8  124.17   17.91   1
  -5  -9   8   10.88    6.40   1
  -4  -9   8    1.60    5.81   1
  -3  -9   8    3.54    4.70   1
   2   9  -8   -3.45    9.15   2
  -2  -9   8   12.31    5.84   1
   1   9  -8   36.42    8.91   3
  -1  -9   8   42.42    9.46   1
   1   9  -8   34.27   11.91   2
   0  -9   8    2.00    4.44   1
   0   9  -8   18.95    9.86   2
   0   9  -8   17.81    7.06   3
   1  -9   8   39.09    9.13   1
  -1   9  -8   52.59   10.56   3
  -1   9  -8   38.86   10.72   2
  -2   9  -8  118.44   15.03   3
   2  -9   8  177.06   16.36   1
  -3   9  -8  213.18   17.91   3
   3  -9   8  229.61   17.69   1
  -4   9  -8   10.01    7.61   3
   4  -9   8    0.41    5.35   1
  -5   9  -8  144.13   18.24   3
   5  -9   8  177.61   17.00   1
   6  -9   8   19.41    8.34   1
  -6   9  -8   21.35    8.63   3
  -7   9  -8  177.93   21.94   3
   7  -9   8  192.41   19.42   1
  -8   9  -8   84.36   17.08   3
  -9   9  -8   -6.97    6.78   3
 -10   9  -8   10.75    8.57   3
 -11   9  -8    6.36   10.15   3
 -15  -8   8   34.55   12.35   4
 -15  -8   8   57.02   16.92   1
 -14  -8   8   39.98   11.72   4
 -14  -8   8   28.06   12.25   1
 -13  -8   8   92.61   18.63   1
 -13  -8   8   43.00   12.19   4
 -12  -8   8   -2.42    7.49   1
 -12  -8   8    2.29    6.64   4
 -11  -8   8    8.66    6.39   4
 -11  -8   8    1.74    6.52   1
 -10  -8   8   25.37   10.44   1
 -10  -8   8   29.56    9.63   4
  -9  -8   8   36.38   11.64   1
  -8  -8   8   17.36    8.31   1
  -7  -8   8    5.14    6.11   1
  -6  -8   8  241.49   23.08   1
  -5  -8   8   54.32   11.43   1
  -4  -8   8  538.06   30.34   1
   4   8  -8  491.61   28.98   2
  -3  -8   8  267.67   19.95   1
   3   8  -8  265.19   21.11   2
   2   8  -8   28.53   10.58   2
  -2  -8   8   17.86    6.33   1
   1   8  -8  234.98   15.65   3
   1   8  -8  241.83   19.08   2
  -1  -8   8  240.64   17.78   1
   0   8  -8  103.56   13.42   2
   0  -8   8  120.82   13.44   1
   0   8  -8  104.48   11.86   3
  -1   8  -8   15.04    7.93   2
   1  -8   8   10.42    5.41   1
  -1   8  -8   11.23    6.14   3
   2  -8   8   21.15    6.68   1
  -2   8  -8    8.23    6.12   3
  -2   8  -8   20.59    8.64   2
  -3   8  -8   -6.19    4.82   3
   3  -8   8    2.93    4.58   1
   4  -8   8    0.97    4.90   1
  -4   8  -8   16.15    7.17   3
   5  -8   8  161.44   15.75   1
  -5   8  -8  194.43   19.98   3
  -6   8  -8   14.17    7.85   3
   6  -8   8   30.48    8.62   1
  -7   8  -8   10.96    7.75   3
   7  -8   8    4.47    6.24   1
   8  -8   8   19.17    8.78   1
  -8   8  -8    4.91    7.66   3
  -9   8  -8   12.83    8.12   3
 -10   8  -8  113.48   19.48   3
 -11   8  -8   18.52   10.29   3
 -12   8  -8   83.75   18.96   3
 -15  -7   8   30.25   11.72   4
 -15  -7   8   26.29   12.58   1
 -14  -7   8   56.07   15.18   1
 -14  -7   8   64.80   15.40   4
 -13  -7   8   -6.60    6.88   1
 -13  -7   8   15.50    7.76   4
 -12  -7   8   50.25   13.19   4
 -12  -7   8   79.70   16.86   1
 -11  -7   8   44.86   12.21   4
 -11  -7   8   43.46   12.83   1
 -10  -7   8   71.39   15.24   1
 -10  -7   8   62.85   13.69   4
  -9  -7   8  362.21   26.33   4
  -9  -7   8  397.22   28.81   1
  -8  -7   8   20.41    8.42   4
  -8  -7   8   12.61    7.90   1
  -7  -7   8  157.60   19.06   1
  -7  -7   8  203.44   19.91   4
  -6  -7   8   89.86   14.52   1
  -5  -7   8  165.37   18.32   1
   5   7  -8  191.13   18.81   2
   4   7  -8   99.08   14.58   2
  -4  -7   8  111.84   14.50   1
   3   7  -8   17.18    8.59   2
  -3  -7   8   -1.67    4.63   1
   2   7  -8   39.14    7.01   3
  -2  -7   8   32.15    7.74   1
   2   7  -8   56.38   10.75   2
   1   7  -8   25.29    6.34   3
  -1  -7   8   23.39    7.00   1
   1   7  -8   19.94    8.73   2
   0   7  -8    0.75    6.89   2
   0   7  -8   -5.80    3.17   3
   0  -7   8   -2.70    3.30   1
  -1   7  -8  111.33   12.12   2
   1  -7   8  140.63   12.95   1
  -1   7  -8  115.40   12.45   3
   2  -7   8    2.33    3.87   1
  -2   7  -8   12.32    6.13   3
  -2   7  -8    3.22    7.03   2
   3  -7   8  331.18   19.33   1
  -3   7  -8  322.66   21.30   3
  -3   7  -8  326.62   18.07   2
  -4   7  -8   33.83    8.54   3
   4  -7   8   33.12    7.82   1
   5  -7   8   31.56    8.15   1
  -5   7  -8   50.78   11.57   3
   6  -7   8  149.76   15.03   1
  -6   7  -8  131.32   17.44   3
   7  -7   8   -5.35    5.89   1
  -7   7  -8    0.66    5.97   3
  -8   7  -8   79.92   15.50   3
   8  -7   8   69.07   12.30   1
  -9   7  -8   64.49   15.45   3
 -10   7  -8   15.91    9.62   3
 -11   7  -8   -6.07    6.52   3
 -12   7  -8   10.70    9.59   3
 -13   7  -8   -2.99    9.56   3
 -15  -6   8   10.22    7.94   4
 -15  -6   8   40.54   13.03   1
 -14  -6   8    6.99    8.89   4
 -14  -6   8   18.48   10.19   1
 -13  -6   8   20.51   10.70   1
 -13  -6   8   35.03   11.19   4
 -12  -6   8   29.25   10.01   4
 -12  -6   8   30.12   12.26   1
 -11  -6   8   12.50    7.06   4
 -11  -6   8    5.96    8.52   1
 -10  -6   8    0.29    5.88   1
 -10  -6   8   -5.83    4.74   4
  -9  -6   8   13.66    8.21   1
  -9  -6   8   12.73    6.85   4
  -8  -6   8   73.50   14.20   1
  -8  -6   8   82.96   13.90   4
  -7  -6   8  106.26   15.11   4
  -7  -6   8  104.65   15.90   1
  -6  -6   8   46.79   11.16   1
  -6  -6   8   70.33   12.13   4
   6   6  -8   60.59   13.04   2
  -5  -6   8   30.28    8.38   1
  -5  -6   8   48.58    9.71   4
   5   6  -8   41.34   11.23   2
   4   6  -8   16.43    8.29   2
  -4  -6   8    7.89    5.89   1
  -3  -6   8  347.20   21.33   1
   3   6  -8  346.16   21.53   2
  -2  -6   8  425.97   23.33   1
   2   6  -8  434.77   23.72   2
   1   6  -8   19.28    8.05   2
  -1  -6   8   49.45    8.56   1
   1   6  -8   25.96    5.90   3
   0   6  -8  343.35   19.03   2
   0   6  -8  320.85   17.23   3
   0  -6   8  321.40   18.33   1
  -1   6  -8  145.55   12.85   2
   1  -6   8  161.29   12.03   1
  -1   6  -8  162.73   12.81   3
   2  -6   8  710.67   29.05   1
  -2   6  -8  710.67   28.66   2
  -2   6  -8  704.64   30.82   3
  -3   6  -8   12.71    7.25   2
   3  -6   8    7.60    4.17   1
  -3   6  -8    6.36    5.23   3
   4  -6   8   54.27    8.69   1
  -4   6  -8   59.09   11.36   3
  -4   6  -8   54.27    8.97   2
  -5   6  -8  176.53   18.39   3
   5  -6   8  148.73   13.49   1
  -6   6  -8    6.77    5.57   3
   6  -6   8    7.07    5.92   1
   7  -6   8   97.36   12.90   1
  -7   6  -8   80.16   15.32   3
   8  -6   8    0.46    6.62   1
  -8   6  -8    5.54    6.72   3
  -9   6  -8   56.55   13.85   3
 -10   6  -8  576.32   37.62   3
 -11   6  -8   18.69   10.00   3
 -12   6  -8   95.27   19.12   3
 -13   6  -8    2.78    7.60   3
 -14   6  -8   -6.08    8.51   3
  14   5  -8   67.08   17.67   1
  13   5  -8   16.16   10.04   1
  12   5  -8   89.49   17.37   1
  11   5  -8   90.52   16.25   1
  10   5  -8    9.46    8.89   1
   9   5  -8  302.66   23.75   1
  -7  -5   8    0.09    4.77   1
  -7  -5   8    7.44    5.22   4
   6   5  -8  203.99   18.26   2
  -6  -5   8  182.51   18.52   1
  -6  -5   8  170.05   16.94   4
   5   5  -8  371.40   22.28   2
  -5  -5   8  289.17   20.06   4
  -5  -5   8  378.90   23.36   1
   4   5  -8   15.53    7.97   2
  -4  -5   8   19.65    7.13   1
  -4  -5   8   14.45    5.79   4
   3   5  -8   21.41    8.26   2
  -3  -5   8   15.16    5.62   1
  -2  -5   8  188.06   14.01   1
   2   5  -8  164.75    9.72   3
   2   5  -8  148.21   13.92   2
   1   5  -8  114.73   12.22   2
  -1  -5   8  131.69   12.10   1
   0   5  -8    4.27    6.57   2
   0   5  -8    4.43    3.58   3
   0  -5   8    5.69    3.95   1
   1  -5   8   13.36    4.69   1
  -1   5  -8   24.86    6.21   3
  -1   5  -8   41.59    8.34   2
   2  -5   8  385.69   18.09   1
  -2   5  -8  382.74   18.61   2
  -2   5  -8  327.46   19.43   3
  -3   5  -8  102.62   10.31   2
  -3   5  -8   84.39   11.64   3
  -4   5  -8  181.61   17.05   3
  -4   5  -8  200.28   13.74   2
  -5   5  -8   15.53    7.13   2
   5  -5   8    0.72    2.44   1
  -5   5  -8    5.50    5.64   3
  -7   5  -8  215.96   21.41   3
  -8   5  -8    1.75    5.95   3
   8  -5   8   -0.75    3.57   1
  -9   5  -8    6.74    7.51   3
 -10   5  -8   45.33   12.23   3
 -11   5  -8    1.96    7.37   3
 -12   5  -8   -5.04    6.89   3
 -13   5  -8   51.95   14.68   3
 -14   5  -8    5.26    8.87   3
  15   4  -8    4.09    5.87   1
  14   4  -8   46.14   15.19   1
  13   4  -8  -10.65    7.16   1
  12   4  -8   97.92   18.38   1
  11   4  -8   -3.47    7.79   1
  10   4  -8  -11.51    5.86   1
   9   4  -8  121.69   17.98   1
   8   4  -8   11.61    8.22   1
   7   4  -8  357.76   23.93   2
   7   4  -8  386.17   24.73   1
   6   4  -8    0.99    6.80   2
   6   4  -8    7.84    6.99   1
   5   4  -8  547.91   27.07   2
  -4  -4   8  558.13   28.72   1
  -4  -4   8  634.55   28.52   4
   4   4  -8  563.38   27.44   2
  -3  -4   8  351.12   19.79   4
   3   4  -8  411.70   21.69   2
  -3  -4   8  382.03   21.17   1
   2   4  -8  983.16   30.17   3
  -2  -4   8  962.39   37.09   1
   2   4  -8  995.57   37.38   2
  -2  -4   8  997.22   36.08   4
   1   4  -8  119.73    8.14   3
   1   4  -8  115.65   11.56   2
  -1  -4   8  130.12   11.41   1
   0   4  -8 1156.83   38.04   3
   0   4  -8 1156.62   40.58   2
   0  -4   8 1136.48   38.96   1
  -1   4  -8  446.25   20.82   2
  -1   4  -8  463.89   21.20   3
  -2   4  -8  951.23   37.01   3
  -2   4  -8 1008.89   35.63   2
   3  -4   8   16.92    4.62   1
  -3   4  -8   15.43    6.54   2
  -3   4  -8   13.27    5.88   3
  -4   4  -8  145.40   14.76   3
  -4   4  -8  179.87   12.74   2
   4  -4   8  163.53   10.86   1
  -5   4  -8  393.57   19.50   2
  -5   4  -8  381.90   23.31   3
   5  -4   8  359.86   17.81   1
   6  -4   8   -3.89    4.54   1
  -6   4  -8    5.85    6.28   2
  -6   4  -8    3.53    6.18   3
   7  -4   8   10.43    7.18   1
  -7   4  -8   12.98    7.58   3
  -8   4  -8  265.39   22.18   3
   8  -4   8  287.53   19.21   1
  -9   4  -8  206.90   22.63   3
 -10   4  -8   92.81   17.12   3
 -11   4  -8  214.58   25.15   3
 -12   4  -8   -5.02    6.87   3
 -13   4  -8   35.04   12.56   3
 -14   4  -8    0.66    7.22   3
 -15   4  -8  121.07   22.36   3
  15   3  -8   -2.65    6.06   1
  14   3  -8    0.57    9.58   1
  13   3  -8   15.18    9.90   1
  12   3  -8   -3.34    7.60   1
  11   3  -8  389.07   28.61   1
  10   3  -8    2.30    7.85   1
   9   3  -8   12.01    9.76   1
   8   3  -8  139.28   17.33   1
   7   3  -8   34.04   10.53   1
   7   3  -8    8.20    8.11   2
   6   3  -8  203.30   16.23   2
   6   3  -8  220.64   17.25   1
   5   3  -8  468.13   24.61   1
   5   3  -8  501.94   25.47   2
   4   3  -8  115.34   12.42   2
   4   3  -8  124.28   12.35   1
   3   3  -8   36.06    8.13   2
   3   3  -8   32.80    7.38   1
   2   3  -8  316.14   11.51   3
  -2  -3   8  318.69   17.83   1
  -2  -3   8  328.29   17.22   4
   2   3  -8  331.89   18.23   2
  -1  -3   8   54.17    7.47   1
   1   3  -8   56.67    8.49   2
  -1  -3   8   50.92    7.10   4
   1   3  -8   51.08    5.32   3
   0  -3   8   13.84    3.42   1
   0   3  -8    7.53    6.08   2
  -1   3  -8  774.20   28.29   3
   1  -3   8  700.01   25.44   1
  -1   3  -8  729.16   28.51   2
   2  -3   8  254.97   12.13   1
  -2   3  -8  263.60   15.82   3
  -2   3  -8  274.87   15.09   2
  -3   3  -8   29.61    7.12   2
  -3   3  -8   19.53    6.38   3
   3  -3   8   23.09    4.45   1
   4  -3   8 1021.94   32.56   1
  -4   3  -8  998.31   40.37   3
  -4   3  -8  996.70   36.25   2
  -5   3  -8   44.01    7.76   2
   5  -3   8   31.26    6.30   1
  -5   3  -8   20.32    6.68   3
   6  -3   8   44.71    7.64   1
  -6   3  -8   39.74    9.91   3
  -6   3  -8   41.78    7.56   2
  -7   3  -8  420.99   26.45   3
  -7   3  -8  384.01   19.70   2
   7  -3   8  406.98   20.48   1
  -8   3  -8  101.32   16.28   3
   8  -3   8   83.87   11.47   1
  -9   3  -8   -0.74    5.97   3
 -10   3  -8    2.29    6.25   3
 -11   3  -8   74.97   16.05   3
 -12   3  -8   13.58    8.79   3
 -13   3  -8   13.36    9.29   3
 -14   3  -8   -9.67    6.08   3
 -15   3  -8   31.39   13.31   3
  15   2  -8    1.69    6.92   1
  14   2  -8   60.60   15.75   1
  13   2  -8   30.72   11.56   1
  12   2  -8   17.12   10.84   1
  11   2  -8    8.78    9.40   1
  10   2  -8   39.58   11.65   1
   9   2  -8   66.82   14.55   1
   8   2  -8  195.10   19.82   1
   7   2  -8  145.45   16.24   1
   7   2  -8  115.30   13.86   2
   6   2  -8  125.90   12.95   2
   6   2  -8  129.43   14.61   1
   5   2  -8  532.88   25.35   2
   5   2  -8  507.76   25.89   1
   4   2  -8  728.80   30.23   1
   4   2  -8  738.31   30.48   2
   3   2  -8   27.10    7.04   1
   3   2  -8   27.20    7.54   2
   2   2  -8  520.44   21.97   1
   2   2  -8  540.74   15.71   3
   2   2  -8  506.82   23.32   2
   1   2  -8   25.67    7.18   2
   1   2  -8   19.37    3.63   3
   0   2  -8   70.17    9.20   2
   0   2  -8   76.73    6.97   3
   1  -2   8 2728.96   76.35   1
  -1   2  -8 2816.18   80.23   3
  -1   2  -8 2765.83   82.69   2
  -2   2  -8    1.24    3.39   3
  -2   2  -8   -0.79    4.93   2
   2  -2   8    1.66    2.24   1
   3  -2   8  166.49    8.07   1
  -3   2  -8  143.72   12.44   3
  -3   2  -8  169.32   12.24   2
   4  -2   8   20.44    3.94   1
  -4   2  -8   18.56    5.72   2
  -4   2  -8   12.30    5.47   3
   5  -2   8   65.53    6.96   1
  -5   2  -8   75.57   11.82   3
  -5   2  -8   72.32    8.73   2
  -6   2  -8    7.75    4.48   2
  -6   2  -8    4.88    6.40   3
   6  -2   8   11.18    5.22   1
  -7   2  -8   71.01    9.34   2
   7  -2   8   76.04    9.31   1
  -7   2  -8   77.76   13.12   3
   8  -2   8  796.85   31.30   1
  -8   2  -8  750.96   38.49   3
  -8   2  -8  725.59   31.92   2
  -9   2  -8  180.25   20.70   3
 -10   2  -8   21.79    8.47   3
 -11   2  -8  232.33   25.28   3
 -12   2  -8   57.50   13.87   3
 -13   2  -8   22.38   10.39   3
 -14   2  -8   50.39   14.64   3
 -15   2  -8    0.89    8.55   3
 -16   2  -8   -9.18    7.51   3
  15   1  -8    4.12    6.60   1
  14   1  -8    2.15    8.60   1
  13   1  -8   95.40   18.70   1
  12   1  -8   49.46   13.79   1
  11   1  -8   49.06   13.38   1
  10   1  -8    3.73    7.20   1
   9   1  -8   -5.49    7.69   1
   8   1  -8   68.51   11.68   2
   8   1  -8   80.91   14.33   1
   7   1  -8   28.46   10.13   1
   7   1  -8   18.22    8.22   2
   6   1  -8    8.54    6.51   2
  -6  -1   8    7.24    2.66   3
   6   1  -8   -1.24    5.86   1
   5   1  -8  139.17   12.66   2
   5   1  -8  107.89   13.08   1
   4   1  -8   -1.50    4.94   1
   4   1  -8   -1.49    5.67   2
   3   1  -8  398.50   19.32   2
   3   1  -8  386.32   19.23   1
   2   1  -8  128.99   10.47   1
   2   1  -8  129.75   11.46   2
   1   1  -8  264.29   13.39   1
   1   1  -8  274.26   15.31   2
   0   1  -8 1682.21   54.21   2
   0   1  -8 1719.76   48.88   1
  -1   1  -8   22.65    6.55   2
   1  -1   8   27.94    3.96   1
   1  -1   8   22.64    3.59   4
   2  -1   8   44.81    3.50   1
  -2   1  -8   37.35    7.43   2
  -3   1  -8  257.12   14.84   2
   3  -1   8  249.08    8.78   1
  -4   1  -8 1924.07   62.48   2
   4  -1   8 1983.54   53.46   1
  -5   1  -8 1039.97   39.09   2
   5  -1   8 1055.20   31.86   1
  -6   1  -8    4.85    4.29   2
   6  -1   8    5.64    4.63   1
  -7   1  -8    2.25    4.24   2
  -7   1  -8   -0.76    5.10   3
   7  -1   8    9.08    5.24   1
  -8   1  -8    0.59    4.03   2
  -8   1  -8    9.40    6.72   3
   8  -1   8    5.74    5.79   1
   9  -1   8    2.97    6.40   1
  -9   1  -8    1.15    4.17   2
  -9   1  -8    6.01    6.14   3
 -10   1  -8   45.89   11.58   3
 -11   1  -8    3.39    5.80   3
 -12   1  -8   27.59   10.13   3
 -13   1  -8   67.37   14.60   3
 -14   1  -8   -0.36    7.18   3
 -15   1  -8   40.07   12.99   3
 -16   1  -8    2.36    8.70   3
  15   0  -8   13.07    9.65   1
  14   0  -8   16.53   11.00   1
  13   0  -8    6.77    9.17   1
  12   0  -8    7.94    8.52   1
  11   0  -8   -1.64    8.06   1
  10   0  -8  102.27   17.50   1
   9   0  -8   29.21   10.85   1
   8   0  -8   38.01    7.49   2
   8   0  -8   69.59   13.51   1
   7   0  -8  196.86   15.13   2
   7   0  -8  203.40   19.10   1
  -6   0   8   42.99    4.85   3
   6   0  -8   40.97    8.94   2
   6   0  -8   43.83   10.31   1
   5   0  -8   27.04    7.27   2
   5   0  -8   17.44    7.87   1
  -5   0   8   21.01    3.22   3
   4   0  -8 2054.46   63.84   2
   4   0  -8 1976.00   64.24   1
   3   0  -8  418.06   20.79   1
   3   0  -8  468.39   20.78   2
   2   0  -8  815.04   29.46   1
   2   0  -8  781.55   29.58   2
   1   0  -8  344.63   17.10   2
   1   0  -8  355.26   15.96   1
   0   0  -8   66.72    9.00   2
   0   0  -8   68.60    6.44   1
  -1   0  -8   68.00    5.51   1
  -1   0  -8   88.98    9.72   2
  -2   0  -8  250.98   14.88   2
  -3   0  -8   61.82    8.39   2
  -4   0  -8  786.52   31.89   2
  -5   0  -8  261.78   16.60   2
   5   0   8  261.05   10.51   1
  -6   0  -8  518.19   25.68   2
   6   0   8  519.72   18.93   1
  -7   0  -8    9.26    5.42   2
   7   0   8    7.85    4.40   1
  -8   0  -8  310.61   20.65   2
   8   0   8  355.19   17.34   1
  -9   0  -8 1132.70   46.37   2
   9   0   8 1077.59   39.33   1
 -10   0  -8   23.11    8.41   3
 -10   0  -8    6.73    5.51   2
 -11   0  -8   18.03    9.13   3
 -12   0  -8   27.27   11.06   3
 -13   0  -8    3.63    7.43   3
 -14   0  -8   24.67    9.80   3
 -15   0  -8   -3.42    6.97   3
 -16   0  -8   21.30    9.93   3
  15  -1  -8    2.05   10.96   1
  14  -1  -8    3.34    7.85   1
  13  -1  -8   20.73   10.79   1
  12  -1  -8   33.28   12.99   1
  11  -1  -8    5.83    9.66   1
  10  -1  -8   96.11   17.04   1
   9  -1  -8   12.34   10.44   1
   8  -1  -8   -4.56    7.00   1
   7  -1  -8   20.85    9.63   1
   7  -1  -8   21.69    7.66   2
   6  -1  -8   21.64    8.45   1
   6  -1  -8    3.28    3.54   2
  -6   1   8   35.29    5.25   3
   5  -1  -8  106.57   13.23   1
  -5   1   8  106.66    7.18   3
   4  -1  -8   18.02    6.34   2
   4  -1  -8   27.54    8.38   1
   3  -1  -8  176.31   11.88   2
   3  -1  -8  160.82   12.89   1
   2  -1  -8  520.90   22.57   2
   2  -1  -8  590.74   23.89   1
   1  -1  -8   36.24    7.41   2
   1  -1  -8   33.15    6.20   1
   0  -1  -8   59.43    8.25   2
   0  -1  -8   59.89    6.76   1
  -1  -1  -8  770.38   24.15   1
  -1  -1  -8  761.56   29.67   2
  -2  -1  -8  629.06   18.58   1
  -2  -1  -8  605.15   26.04   2
  -3  -1  -8  227.63   14.56   2
  -4  -1  -8   34.93    7.63   2
  -5  -1  -8  386.57   13.18   4
  -5  -1  -8  402.64   22.02   2
  -5  -1  -8  378.93   13.62   1
   6   1   8   87.37    6.63   1
  -6  -1  -8  122.97   13.23   2
  -7  -1  -8   22.37    7.03   2
   7   1   8   31.02    5.49   1
   8   1   8   83.89    8.94   1
  -8  -1  -8   85.69   12.68   2
  -9  -1  -8   20.81    7.48   2
   9   1   8   21.52    7.15   1
 -10  -1  -8    5.45    6.08   2
 -11  -1  -8   10.91    5.71   2
 -12  -1  -8   12.11    7.97   3
 -13  -1  -8  109.12   19.15   3
 -14  -1  -8    2.24    6.64   3
 -15  -1  -8   43.72   12.64   3
 -16  -1  -8   66.85   15.75   3
  14  -2  -8    4.12    6.42   1
  13  -2  -8    6.91   10.90   1
  12  -2  -8   15.47   10.00   1
  11  -2  -8  166.68   22.95   1
  10  -2  -8   20.10   10.10   1
   9  -2  -8  149.29   20.00   1
   8  -2  -8   21.54   10.60   1
  -7   2   8  197.01   12.88   3
   7  -2  -8  203.11   14.25   2
   7  -2  -8  215.80   20.60   1
   6  -2  -8   90.74   10.21   2
  -6   2   8   98.90    8.49   3
   6  -2  -8  101.98   15.08   1
  -5   2   8  183.10   10.55   3
   5  -2  -8  183.60   12.80   2
   5  -2  -8  175.01   16.43   1
   4  -2  -8  445.14   19.58   2
   3  -2  -8   55.60    9.67   1
   2  -2  -8   64.71    8.90   1
   2  -2  -8   72.46    8.63   2
   1  -2  -8  487.30   21.58   2
   1  -2  -8  470.69   20.63   1
   0  -2  -8  102.86    9.97   2
   0  -2  -8   97.67    8.43   1
  -1  -2  -8   90.43    9.79   2
  -1  -2  -8   85.37    7.12   1
  -2  -2  -8   20.19    3.58   1
  -2  -2  -8   14.65    5.74   2
  -3  -2  -8   -0.29    3.74   2
  -3  -2  -8    2.57    2.19   1
  -4  -2  -8   30.34    3.21   1
  -4  -2  -8   30.85    7.78   2
  -5  -2  -8   39.00    4.25   1
  -5  -2  -8   24.42    7.16   2
  -6  -2  -8  184.76    9.93   1
  -6  -2  -8  181.30   15.42   2
  -7  -2  -8   74.43    7.13   4
  -7  -2  -8   82.91    7.64   1
  -7  -2  -8   70.55   12.07   2
  -8  -2  -8    7.76    4.00   1
  -8  -2  -8    7.10    3.86   4
  -8  -2  -8    9.55    6.42   2
  -9  -2  -8  388.88   26.30   2
 -10  -2  -8    6.50    6.17   2
 -11  -2  -8    0.29    4.98   2
 -12  -2  -8  163.32   20.23   2
 -14  -2  -8   14.23    8.15   3
 -15  -2  -8   17.08    8.61   3
 -16  -2  -8   -1.27    6.99   3
  14  -3  -8   -6.32    6.07   1
  13  -3  -8    9.81   10.81   1
  12  -3  -8   87.60   18.28   1
  11  -3  -8   -3.62    7.35   1
  10  -3  -8  211.39   24.15   1
   9  -3  -8  119.68   19.28   1
   8  -3  -8   51.17   13.72   1
   7  -3  -8   65.81   13.82   1
  -7   3   8   59.30    8.53   3
   6  -3  -8   -4.82    6.66   1
   6  -3  -8    7.82    5.74   2
  -6   3   8    0.95    4.39   3
   5  -3  -8    7.34    5.41   2
  -5   3   8    2.34    4.18   3
   5  -3  -8   -3.07    7.03   1
   4  -3  -8  512.86   26.76   1
   4  -3  -8  508.44   21.39   2
   3  -3  -8  254.38   17.25   1
   3  -3  -8  261.28   14.27   2
   1  -3  -8    2.50    4.22   2
   1  -3  -8    4.07    5.01   1
   0  -3  -8  279.81   15.97   2
   0  -3  -8  288.40   15.06   1
  -1  -3  -8  254.93   12.77   1
  -1  -3  -8  246.34   15.54   2
  -2  -3  -8   15.76    3.98   1
  -2  -3  -8   30.89    7.36   2
  -3  -3  -8   96.71    6.59   1
  -3  -3  -8  118.71   12.55   2
  -4  -3  -8  765.58   33.03   2
  -4  -3  -8  689.97   23.19   1
  -5  -3  -8 1340.14   40.68   1
  -5  -3  -8 1386.54   52.63   2
  -6  -3  -8    6.54    3.13   1
  -6  -3  -8   -1.86    4.43   2
  -7  -3  -8   75.95   12.76   2
  -7  -3  -8   59.95    7.23   1
  -8  -3  -8   35.80    9.95   2
  -8  -3  -8   28.79    5.73   1
  -8  -3  -8   33.98    6.30   4
  -9  -3  -8    1.00    3.74   1
  -9  -3  -8    2.79    5.59   2
  -9  -3  -8   10.53    5.00   4
 -10  -3  -8   50.11   11.85   2
 -11  -3  -8   49.26   12.12   2
 -12  -3  -8   79.50   15.43   2
 -13  -3  -8  239.36   26.51   2
 -15  -3  -8   42.36   12.50   3
 -16  -3  -8  112.49   20.24   3
  13  -4  -8    6.84    5.87   1
  12  -4  -8    7.42    9.53   1
  11  -4  -8   37.31   13.81   1
  10  -4  -8   22.99   11.18   1
   9  -4  -8  214.43   24.30   1
   8  -4  -8  112.57   18.16   1
   7  -4  -8   33.60   11.54   1
  -7   4   8   17.29    6.62   3
  -6   4   8   55.26    8.99   3
   6  -4  -8   49.64   12.53   1
  -5   4   8  335.08   17.37   3
   5  -4  -8  326.35   16.44   2
   5  -4  -8  300.12   22.60   1
   4  -4  -8    7.82    5.19   2
   4  -4  -8   19.79    8.04   1
   3  -4  -8  465.56   19.75   2
   3  -4  -8  453.92   24.42   1
   2  -4  -8  121.64   12.16   1
   2  -4  -8  110.23   10.15   2
   1  -4  -8  137.14   12.38   1
   0  -4  -8  408.17   20.09   2
   0  -4  -8  382.16   18.69   1
  -1  -4  -8   32.18    7.40   2
  -1  -4  -8   26.53    5.64   1
  -2  -4  -8   79.34   10.63   2
  -2  -4  -8   64.69    7.09   1
  -3  -4  -8   67.19   10.51   2
  -3  -4  -8   67.38    6.64   1
  -4  -4  -8   85.09    7.05   1
  -4  -4  -8   85.82   11.98   2
  -5  -4  -8  202.05   11.02   1
  -5  -4  -8  173.64   17.03   2
  -6  -4  -8  455.05   27.49   2
  -6  -4  -8  490.45   20.16   1
  -7  -4  -8  486.47   21.47   1
  -7  -4  -8  489.39   29.45   2
  -8  -4  -8   42.76    7.47   1
  -8  -4  -8   36.52   10.08   2
  -9  -4  -8   22.07    8.16   2
  -9  -4  -8   40.70    7.64   1
 -10  -4  -8    4.18    5.71   2
 -11  -4  -8  118.65   19.26   2
 -12  -4  -8  357.17   29.34   2
 -13  -4  -8  109.93   20.01   2
 -14  -4  -8   -2.50    7.16   2
 -16  -4  -8    6.80    7.06   3
  13  -5  -8   -4.47    6.48   1
  12  -5  -8   12.42   10.33   1
  11  -5  -8   17.28   12.52   1
  10  -5  -8   -8.02    7.54   1
   9  -5  -8  180.59   23.27   1
   8  -5  -8   72.25   16.18   1
  -7   5   8   -0.26    6.09   3
   7  -5  -8   -1.58    8.44   1
   6  -5  -8  200.17   21.49   1
  -6   5   8  201.53   15.02   3
   5  -5  -8   30.28   10.22   1
  -5   5   8    8.71    6.17   3
   4  -5  -8  130.26   10.52   2
   4  -5  -8  158.19   17.17   1
   3  -5  -8   27.75    8.80   1
   3  -5  -8   27.60    6.86   2
   2  -5  -8  330.24   20.37   1
   2  -5  -8  365.51   18.23   2
   1  -5  -8  515.57   22.90   2
   0  -5  -8  200.16   13.95   1
   0  -5  -8  203.01   13.96   2
  -1  -5  -8    8.82    4.92   2
  -1  -5  -8   20.17    5.48   1
  -2  -5  -8   84.83    8.68   1
  -2  -5  -8   68.19   10.42   2
  -3  -5  -8  258.20   18.11   2
  -3  -5  -8  276.89   14.05   1
  -4  -5  -8   97.10   13.48   2
  -4  -5  -8  107.68    8.44   1
  -5  -5  -8  211.04   17.87   2
  -5  -5  -8  181.27   11.39   1
  -6  -5  -8  160.58   17.75   2
  -6  -5  -8  158.62   11.13   1
  -7  -5  -8  136.13   10.92   1
  -7  -5  -8  143.12   17.80   2
  -8  -5  -8   17.25    7.66   2
  -8  -5  -8   16.39    5.54   1
  -9  -5  -8   40.35    8.08   1
  -9  -5  -8   54.76   13.69   2
 -10  -5  -8    3.83    6.01   2
 -11  -5  -8  214.18   25.61   2
 -12  -5  -8   18.34    9.54   2
 -13  -5  -8   32.10   11.67   2
 -14  -5  -8  136.94   25.03   2
 -15  -5  -8   17.90   10.31   2
  12  -6  -8    2.84    5.15   1
  11  -6  -8   -4.37    9.21   1
  10  -6  -8  187.51   25.49   1
   9  -6  -8    8.01   10.11   1
   8  -6  -8   85.54   17.61   1
  -7   6   8  165.70   15.52   3
   7  -6  -8  164.88   21.81   1
   6  -6  -8    6.39    9.86   1
  -6   6   8    6.00    6.86   3
   5  -6  -8  179.87   19.85   1
   4  -6  -8   -2.67    6.13   1
   3  -6  -8   29.48    7.32   2
   3  -6  -8   17.07    8.91   1
   2  -6  -8  455.30   21.10   2
   2  -6  -8  436.12   25.07   1
   1  -6  -8  250.51   15.52   2
   1  -6  -8  224.09   16.73   1
   0  -6  -8    0.58    2.92   2
   0  -6  -8    2.12    4.45   1
  -1  -6  -8    7.92    5.10   1
  -1  -6  -8    6.92    5.22   2
  -2  -6  -8  196.95   13.41   1
  -2  -6  -8  195.16   15.50   2
  -3  -6  -8  103.82   13.24   2
  -3  -6  -8   83.00    9.11   1
  -4  -6  -8   43.18    7.10   1
  -4  -6  -8   19.67    7.66   2
  -5  -6  -8  385.10   25.11   2
  -5  -6  -8  370.07   18.31   1
  -6  -6  -8   50.05    7.89   1
  -6  -6  -8   58.28   12.54   2
  -7  -6  -8  347.19   18.71   1
  -7  -6  -8  306.30   24.35   2
  -8  -6  -8  240.73   16.11   1
  -8  -6  -8  261.60   22.99   2
  -9  -6  -8   33.65   10.42   2
  -9  -6  -8   22.54    6.58   1
 -10  -6  -8  301.24   27.06   2
 -11  -6  -8   30.77   11.16   2
 -12  -6  -8   31.50   12.40   2
 -13  -6  -8   29.72   13.69   2
 -14  -6  -8  -15.04    7.07   2
 -15  -6  -8   24.29   12.80   2
 -16  -6  -8   43.29   16.01   2
  12  -7  -8    7.22    7.70   1
  11  -7  -8  -14.90    7.37   1
  10  -7  -8    7.70   10.84   1
   9  -7  -8    3.00    9.30   1
   8  -7  -8   13.58   10.88   1
  -7   7   8   14.60    7.61   3
   7  -7  -8   -3.63    8.02   1
   6  -7  -8   -1.38    8.32   1
   5  -7  -8  119.20   17.63   1
   4  -7  -8   31.27   11.24   1
   3  -7  -8  189.75   19.43   1
   2  -7  -8   12.12    7.32   1
   2  -7  -8   24.31    6.70   2
   1  -7  -8  858.24   37.51   1
   1  -7  -8  915.33   35.35   2
   0  -7  -8   35.98    8.63   1
  -1  -7  -8  930.68   36.16   1
  -1  -7  -8  858.57   37.18   2
  -2  -7  -8  111.23   13.24   2
  -2  -7  -8  125.10   12.36   1
  -3  -7  -8   11.99    6.61   2
  -3  -7  -8   19.18    6.01   1
  -4  -7  -8  183.39   13.35   1
  -4  -7  -8  196.61   17.70   2
  -5  -7  -8   29.07    9.38   2
  -5  -7  -8   42.13    7.73   1
  -6  -7  -8  141.74   11.93   1
  -6  -7  -8  138.35   18.41   2
  -7  -7  -8  227.52   15.90   1
  -7  -7  -8  243.60   24.10   2
  -8  -7  -8   43.21    8.82   1
  -8  -7  -8   48.40   13.06   2
  -9  -7  -8  207.01   24.71   2
  -9  -7  -8  166.07   15.58   1
 -10  -7  -8   30.24    8.21   1
 -10  -7  -8   30.97   11.56   2
 -11  -7  -8   33.38   12.29   2
 -12  -7  -8   74.72   18.32   2
 -13  -7  -8   44.60   15.74   2
 -14  -7  -8  302.44   39.35   2
 -15  -7  -8   41.79   17.81   2
 -16  -7  -8    3.90   13.73   2
  11  -8  -8   11.66    6.94   1
  10  -8  -8   11.83   11.99   1
   9  -8  -8  194.72   27.36   1
   8  -8  -8   18.16   12.28   1
  -8   8   8    6.56    7.36   3
   7  -8  -8  168.19   23.15   1
   6  -8  -8   10.49   10.57   1
   5  -8  -8    5.21    8.22   1
   4  -8  -8    3.56    7.84   1
   3  -8  -8   -7.57    6.09   1
   2  -8  -8    2.80    7.33   1
   1  -8  -8   19.31    6.39   2
   1  -8  -8   21.54    8.72   1
   0  -8  -8   33.41    9.07   1
   0  -8  -8   12.21    5.86   2
  -1  -8  -8   52.30    9.90   1
  -1  -8  -8   56.59   10.08   2
  -2  -8  -8   49.28    9.58   1
  -2  -8  -8   35.57    8.84   2
  -3  -8  -8  561.62   26.26   1
  -3  -8  -8  512.88   29.44   2
  -4  -8  -8   25.22    8.30   2
  -4  -8  -8    5.05    4.57   1
  -5  -8  -8    7.93    4.89   1
  -5  -8  -8    9.14    7.17   2
  -6  -8  -8  468.97   31.47   2
  -6  -8  -8  536.41   25.75   1
  -7  -8  -8   84.41   11.43   1
  -7  -8  -8   76.67   15.18   2
  -8  -8  -8  161.55   22.32   2
  -8  -8  -8  129.01   14.36   1
  -9  -8  -8   75.52   17.09   2
  -9  -8  -8   90.16   12.72   1
 -10  -8  -8   57.02   10.57   1
 -10  -8  -8   39.74   13.56   2
 -11  -8  -8   -2.56    6.77   2
 -12  -8  -8   55.26   16.10   2
 -13  -8  -8   11.23    9.98   2
 -14  -8  -8   32.66   15.23   2
 -15  -8  -8   -5.19   10.45   2
 -16  -8  -8   -3.43   14.80   2
  10  -9  -8   11.45    6.39   1
   9  -9  -8   18.35   12.79   1
   8  -9  -8   20.89   12.84   1
   7  -9  -8   74.84   17.34   1
   6  -9  -8   88.03   17.78   1
   5  -9  -8   32.85   11.79   1
   4  -9  -8   13.59    9.11   1
   3  -9  -8  543.23   32.22   1
   2  -9  -8    9.89    8.51   1
   1  -9  -8   86.90   14.07   1
   0  -9  -8    4.29    5.09   2
   0  -9  -8    9.99    6.90   1
  -1  -9  -8 1186.47   46.78   1
  -2  -9  -8  111.36   14.37   2
  -2  -9  -8  126.66   14.34   1
  -3  -9  -8   11.02    5.84   1
  -3  -9  -8   12.68    6.85   2
  -4  -9  -8    3.87    5.69   2
  -4  -9  -8    4.55    5.23   1
  -5  -9  -8   18.26    6.61   1
  -5  -9  -8   18.41    7.91   2
  -6  -9  -8   39.32    8.68   1
  -6  -9  -8   44.92   11.99   2
  -7  -9  -8   68.17   11.07   1
  -7  -9  -8   54.20   13.12   2
  -8  -9  -8    0.38    4.82   1
  -8  -9  -8    5.29    7.57   2
  -9  -9  -8    6.06    8.19   2
  -9  -9  -8   -4.00    4.22   1
 -10  -9  -8  145.02   16.81   1
 -10  -9  -8  191.70   27.86   2
 -11  -9  -8   20.61   12.35   2
 -12  -9  -8   77.68   21.10   2
 -13  -9  -8   14.77   13.03   2
 -14  -9  -8   28.27   15.54   2
 -15  -9  -8  228.45   40.60   2
 -16  -9  -8  -22.27   11.79   2
   9 -10  -8    0.09    5.98   1
   8 -10  -8    8.50   10.48   1
   7 -10  -8   54.82   15.62   1
   6 -10  -8   22.13   12.18   1
   5 -10  -8   -7.38    6.71   1
   4 -10  -8   56.78   14.23   1
   3 -10  -8    7.52    8.85   1
   2 -10  -8    3.08    6.91   1
   1 -10  -8   13.67    8.29   1
   0 -10  -8    1.25    6.71   1
  -1 -10  -8    6.53    4.96   2
  -1 -10  -8    6.63    6.29   1
  -2 -10  -8   46.09   10.23   2
  -2 -10  -8   20.11    7.83   1
  -3 -10  -8  175.05   19.13   2
  -3 -10  -8  196.03   16.62   1
  -4 -10  -8   69.53   11.57   1
  -4 -10  -8   62.61   12.54   2
  -5 -10  -8   95.73   13.52   1
  -5 -10  -8   91.37   16.04   2
  -6 -10  -8  146.69   15.61   1
  -6 -10  -8  138.90   20.30   2
  -7 -10  -8   51.25   10.41   1
  -7 -10  -8   31.24   11.37   2
  -8 -10  -8   65.14   11.80   1
  -8 -10  -8   49.56   13.80   2
  -9 -10  -8  157.03   17.54   1
  -9 -10  -8  203.47   27.94   2
 -10 -10  -8    6.47    6.55   1
 -10 -10  -8   -0.78    6.81   2
 -11 -10  -8   22.31   13.68   2
 -12 -10  -8   35.63   14.99   2
 -13 -10  -8   21.04   12.90   2
 -14 -10  -8    9.03   12.14   2
 -15 -10  -8    5.32   12.98   2
   8 -11  -8   -1.22    5.45   1
   7 -11  -8   -1.42   10.47   1
   6 -11  -8   31.43   13.50   1
   5 -11  -8   11.87   10.97   1
   4 -11  -8   13.33   10.39   1
   3 -11  -8    9.25    8.24   1
   2 -11  -8  128.99   18.19   1
   1 -11  -8    2.75    7.45   1
   0 -11  -8   19.03    8.81   1
  -1 -11  -8   47.58   11.26   1
  -2 -11  -8  120.43   15.97   2
  -2 -11  -8   88.78   13.96   1
  -3 -11  -8   11.39    7.64   2
  -3 -11  -8   28.86    9.30   1
  -4 -11  -8   20.60    7.63   1
  -4 -11  -8   15.55    8.28   2
  -5 -11  -8    9.95    7.79   2
  -5 -11  -8   10.23    6.43   1
  -6 -11  -8   69.73   12.60   1
  -6 -11  -8   70.99   14.98   2
  -7 -11  -8   41.91   12.79   2
  -7 -11  -8   51.39   10.71   1
  -8 -11  -8  173.51   18.65   1
  -8 -11  -8  173.50   25.03   2
  -9 -11  -8    2.24    5.63   1
  -9 -11  -8    2.27    7.77   2
 -10 -11  -8  201.39   20.49   1
 -10 -11  -8  158.76   26.93   2
 -11 -11  -8   23.80   11.52   2
 -12 -11  -8   44.12   18.41   2
 -13 -11  -8  120.81   26.11   2
 -14 -11  -8   -1.56   13.48   2
 -15 -11  -8   16.25   19.04   2
   7 -12  -8    1.00    6.06   1
   6 -12  -8   -4.27    5.98   1
   5 -12  -8    1.30    8.37   1
   4 -12  -8    3.19    8.97   1
   3 -12  -8    1.48    8.64   1
   2 -12  -8    0.31    8.11   1
   1 -12  -8   29.54   11.25   1
   0 -12  -8    2.58    6.63   1
  -1 -12  -8  342.88   25.42   1
  -2 -12  -8    8.75    7.34   1
  -3 -12  -8   54.55   12.48   2
  -3 -12  -8   60.44   12.35   1
  -4 -12  -8   48.03   12.37   2
  -4 -12  -8   63.63   13.00   1
  -5 -12  -8   23.34    9.81   2
  -5 -12  -8   23.94    8.66   1
  -6 -12  -8  156.99   18.63   1
  -6 -12  -8  148.00   22.03   2
  -7 -12  -8  280.01   30.00   2
  -7 -12  -8  243.40   20.68   1
  -8 -12  -8   57.05   16.00   2
  -8 -12  -8   40.42   10.58   1
  -9 -12  -8   35.20   10.31   1
  -9 -12  -8   26.92   11.85   2
 -10 -12  -8   10.36    8.57   2
 -10 -12  -8    5.47    6.53   1
 -11 -12  -8    5.35    9.33   2
 -12 -12  -8    4.93   10.61   2
 -13 -12  -8   31.71   14.94   2
 -14 -12  -8   18.74   15.60   2
   6 -13  -8   -2.66    6.45   1
   5 -13  -8    8.18    5.98   1
   4 -13  -8   14.70   10.87   1
   3 -13  -8   -0.68    8.48   1
   2 -13  -8   70.74   16.17   1
   1 -13  -8    5.95    8.35   1
   0 -13  -8    3.24    6.88   1
  -1 -13  -8  119.62   18.37   1
  -2 -13  -8    8.30    7.95   1
  -3 -13  -8   13.32    8.59   1
  -4 -13  -8   24.54    9.77   1
  -4 -13  -8   19.95    9.26   2
  -5 -13  -8   28.41    9.58   1
  -5 -13  -8   28.56   10.30   2
  -6 -13  -8   66.13   15.60   2
  -6 -13  -8   49.09   11.90   1
  -7 -13  -8   53.33   12.27   1
  -7 -13  -8   67.09   16.55   2
  -8 -13  -8  227.00   23.06   1
  -8 -13  -8  213.93   29.25   2
  -9 -13  -8    8.55    9.73   2
  -9 -13  -8    5.56    7.08   1
 -10 -13  -8   93.56   21.72   2
 -10 -13  -8  109.80   17.90   1
 -11 -13  -8    1.35    9.55   2
 -12 -13  -8    1.04    8.13   2
 -13 -13  -8   10.50    9.68   2
   4 -14  -8   -3.76    9.71   1
   3 -14  -8  -10.20    7.70   1
   2 -14  -8   -7.21    6.26   1
   1 -14  -8   57.39   15.02   1
   0 -14  -8    7.11    8.59   1
  -1 -14  -8    3.85    7.73   1
  -2 -14  -8  166.14   21.53   1
  -3 -14  -8   -3.07    6.30   1
  -4 -14  -8  148.96   20.18   1
  -5 -14  -8   67.13   14.01   1
  -5 -14  -8   80.31   16.90   2
  -6 -14  -8    1.61    7.30   1
  -6 -14  -8   -0.90    7.00   2
  -7 -14  -8   16.72   10.03   2
  -7 -14  -8    8.42    7.57   1
  -8 -14  -8    1.50    7.17   1
  -8 -14  -8   -0.99    8.82   2
  -9 -14  -8   48.56   15.41   2
  -9 -14  -8   42.05   11.40   1
 -10 -14  -8   14.37    8.61   1
 -10 -14  -8   33.57   14.13   2
 -11 -14  -8    2.82    7.46   2
 -12 -14  -8    3.02    8.97   2
   3 -15  -8  -14.91    8.63   1
   2 -15  -8  130.82   21.92   1
   1 -15  -8   17.87   12.13   1
   0 -15  -8   -3.40    7.77   1
  -1 -15  -8   11.00    9.38   1
  -2 -15  -8    6.85    8.29   1
  -3 -15  -8   23.60   10.49   1
  -4 -15  -8   -0.05    7.89   1
  -5 -15  -8    8.13    7.72   1
  -6 -15  -8   40.36   12.18   1
  -6 -15  -8    9.57    8.78   2
  -7 -15  -8    1.60    7.33   1
  -7 -15  -8    2.65    7.92   2
  -8 -15  -8   69.24   15.37   1
  -8 -15  -8   53.09   15.80   2
  -9 -15  -8    5.07    7.88   1
  -9 -15  -8   -4.82    8.44   2
 -10 -15  -8   13.26    9.27   1
 -10 -15  -8    8.68    8.67   2
 -11 -15  -8    1.35    9.20   2
   0 -16  -8   28.26   12.70   1
  -1 -16  -8  -13.97    7.19   1
  -2 -16  -8   55.63   14.92   1
  -3 -16  -8    1.54    8.38   1
  -4 -16  -8   12.48    8.83   1
  -5 -16  -8    7.28    9.31   1
  -6 -16  -8   27.29   10.97   1
  -7 -16  -8   -1.18    7.84   1
  -7 -16  -8   10.21    9.35   2
  -8 -16  -8    0.71    9.67   2
  -8 -16  -8    5.32    7.59   1
  -9 -16  -8   20.49   10.63   2
  -9 -16  -8   11.57    9.56   1
 -10 -16  -8    0.43    9.27   1
 -10 -16  -8    6.02   11.70   2
  -4 -17  -8    7.49   10.06   1
  -5 -17  -8   20.28   12.46   1
  -6 -17  -8   21.55    9.96   1
  -7 -17  -8   63.53   16.35   1
  -8 -17  -8    8.14   10.10   1
  -7 -16   9    1.18    6.33   1
  -6 -16   9   -7.14    5.24   1
  -5 -16   9   -7.73    4.91   1
  -4 -16   9   -4.13    5.04   1
  -3 -16   9   -2.68    4.44   1
  -2 -16   9   -0.89    5.41   1
  -1 -16   9   93.40   18.17   1
   0 -16   9   14.57    8.96   1
   1 -16   9   81.08   16.77   1
   2 -16   9    2.80    8.98   1
   3 -16   9   25.69   12.56   1
  -9 -15   9   -1.09    6.70   1
  -8 -15   9    0.86    6.01   1
  -7 -15   9    3.93    5.92   1
  -6 -15   9   -8.61    6.64   1
  -5 -15   9   76.65   16.20   1
  -4 -15   9   49.60   13.30   1
  -3 -15   9    7.48    8.01   1
  -2 -15   9   10.88    8.78   1
  -1 -15   9    8.23    6.51   1
   0 -15   9   24.70    9.87   1
   1 -15   9    6.92    8.26   1
   2 -15   9    0.22    7.65   1
   3 -15   9    1.84    7.33   1
  -3  15  -9    2.95    4.05   3
   4 -15   9  -16.51    6.11   1
  -4  15  -9   -0.06    4.96   3
 -10 -14   9   69.71   18.48   1
  -9 -14   9    3.99    6.22   1
  -8 -14   9    6.65    7.37   1
  -7 -14   9   15.23    9.33   1
  -6 -14   9   -4.70    5.84   1
  -5 -14   9   -0.01    5.73   1
  -4 -14   9   -2.40    6.10   1
  -3 -14   9    7.30    6.87   1
  -2 -14   9   11.20    7.38   1
  -1 -14   9  133.44   20.48   1
   0 -14   9   12.96    7.21   1
   1 -14   9   -0.96    5.40   1
   2 -14   9   20.63    9.36   1
  -2  14  -9   22.30   10.54   3
  -3  14  -9   15.80    9.38   3
   3 -14   9   20.16    9.40   1
   4 -14   9   79.32   16.24   1
   5 -14   9   -8.44    6.99   1
  -5  14  -9    0.74    5.19   3
 -12 -13   9    5.73   10.12   1
 -11 -13   9   -2.93    9.10   1
 -10 -13   9   -2.15    8.73   1
  -9 -13   9   15.53    9.45   1
  -8 -13   9   36.85   11.30   1
  -7 -13   9   68.60   16.05   1
  -6 -13   9   71.67   15.54   1
  -5 -13   9  161.93   22.46   1
  -4 -13   9   61.62   14.01   1
  -3 -13   9   33.95   10.60   1
  -2 -13   9   43.55   11.79   1
  -1 -13   9    5.54    6.77   1
   0 -13   9   19.66    8.33   1
  -1  13  -9   20.68    9.71   3
   1 -13   9   28.78    9.68   1
  -2  13  -9   20.48    9.87   3
   2 -13   9   20.84    8.97   1
   3 -13   9   62.42   13.66   1
  -3  13  -9   48.07   12.37   3
   4 -13   9    0.49    6.42   1
  -4  13  -9    5.91    7.58   3
  -5  13  -9   27.68   10.91   3
   5 -13   9   64.92   14.40   1
  -6  13  -9   -0.24    3.69   3
  -7  13  -9   -2.58    4.67   3
 -12 -12   9    6.19   10.55   1
 -11 -12   9   -3.80    9.57   1
 -10 -12   9   56.76   15.83   1
  -9 -12   9   14.74    8.62   1
  -8 -12   9   24.30   10.09   1
  -7 -12   9    3.26    6.50   1
  -6 -12   9    5.49    6.12   1
  -5 -12   9    5.04    7.03   1
  -4 -12   9   10.16    6.42   1
  -3 -12   9   -1.35    5.61   1
  -2 -12   9   35.83   10.35   1
  -1 -12   9    1.14    5.37   1
   0 -12   9  128.20   17.91   1
   0  12  -9  119.22   16.49   3
   1 -12   9   11.33    6.43   1
  -1  12  -9   -1.56    5.30   3
  -2  12  -9   30.54    9.92   3
   2 -12   9   24.62    8.49   1
  -3  12  -9   35.74   10.70   3
   3 -12   9   51.35   11.84   1
   4 -12   9   22.11    8.83   1
  -4  12  -9    9.59    7.24   3
   5 -12   9   13.08    8.26   1
  -5  12  -9    4.51    8.15   3
   6 -12   9   40.06   12.02   1
  -6  12  -9   39.93   11.98   3
  -7  12  -9    1.03    4.77   3
  -8  12  -9    0.91    9.17   3
 -13 -11   9   -6.89    8.89   1
 -12 -11   9   27.87   12.03   1
 -11 -11   9    9.14    9.45   1
 -10 -11   9    1.66    8.66   1
  -9 -11   9   71.58   15.89   1
  -8 -11   9   63.48   14.79   1
  -7 -11   9   36.94   11.12   1
  -6 -11   9  145.50   20.77   1
  -5 -11   9    0.81    5.52   1
  -4 -11   9   57.93   12.78   1
  -3 -11   9   62.25   13.06   1
  -2 -11   9  273.70   21.69   1
  -1 -11   9   97.43   14.93   1
   0 -11   9   19.90    7.76   1
   0  11  -9   22.92    8.54   3
   1 -11   9  141.36   16.94   1
  -1  11  -9   94.67   14.68   3
  -2  11  -9  295.54   22.54   3
   2 -11   9  302.74   22.33   1
   3 -11   9  105.45   15.79   1
  -3  11  -9  139.70   18.29   3
   4 -11   9   26.62    9.06   1
  -4  11  -9   13.00    7.73   3
   5 -11   9   16.41    7.98   1
  -5  11  -9   28.82   10.50   3
  -6  11  -9   84.72   15.86   3
   6 -11   9   60.27   13.55   1
  -7  11  -9   32.17   11.12   3
  -8  11  -9    4.37    8.91   3
  -9  11  -9   59.60   14.90   3
 -14 -10   9   44.77   15.76   1
 -13 -10   9   80.54   18.59   1
 -12 -10   9  105.38   21.01   1
 -11 -10   9    2.79    8.38   1
 -10 -10   9    8.16    8.78   1
  -9 -10   9    9.01    8.50   1
  -8 -10   9   78.67   16.23   1
  -7 -10   9   33.79   11.25   1
  -6 -10   9   15.94    7.85   1
  -5 -10   9  234.92   23.60   1
  -4 -10   9   24.91    8.47   1
  -3 -10   9  112.02   16.10   1
  -2 -10   9  287.82   21.49   1
   1  10  -9    7.28   10.24   2
  -1 -10   9    5.90    5.11   1
   1  10  -9    4.29    5.80   3
   0 -10   9  289.81   21.31   1
   0  10  -9  308.95   22.22   2
   0  10  -9  299.36   20.68   3
  -1  10  -9   18.12    7.50   3
   1 -10   9   20.74    7.40   1
  -2  10  -9   75.80   13.43   3
   2 -10   9  106.04   14.26   1
   3 -10   9   65.47   12.30   1
  -3  10  -9   62.81   12.53   3
  -4  10  -9    8.55    6.45   3
   4 -10   9    0.12    4.95   1
   5 -10   9    8.11    6.62   1
  -5  10  -9    9.23    7.94   3
  -6  10  -9    4.89    7.75   3
   6 -10   9   -1.97    5.71   1
  -7  10  -9   -6.46    5.47   3
  -8  10  -9    1.20    7.99   3
  -9  10  -9   -5.43    6.60   3
 -10  10  -9   58.28   15.46   3
 -14  -9   9   32.93   13.24   1
 -14  -9   9   18.79   10.44   4
 -13  -9   9    9.30    9.39   1
 -12  -9   9   -4.06    6.56   1
 -11  -9   9  121.40   21.15   1
 -10  -9   9    1.01    7.28   1
  -9  -9   9   13.69    8.51   1
  -8  -9   9    5.92    5.75   1
  -7  -9   9   24.00    9.23   1
  -6  -9   9   68.15   14.11   1
  -5  -9   9  244.55   23.60   1
  -4  -9   9   83.59   14.25   1
  -3  -9   9   56.37   11.47   1
   3   9  -9   45.60   12.73   2
   2   9  -9   11.58    9.65   2
  -2  -9   9   13.22    6.30   1
  -1  -9   9    7.00    4.43   1
   1   9  -9    9.52    6.41   3
   1   9  -9    9.57   10.16   2
   0   9  -9  111.82   13.20   3
   0  -9   9   84.85   12.77   1
   0   9  -9  112.38   15.21   2
  -1   9  -9   68.89   11.88   3
   1  -9   9   87.39   12.66   1
  -1   9  -9   68.75   12.38   2
   2  -9   9   83.58   11.95   1
  -2   9  -9   67.66   12.05   3
  -3   9  -9    4.88    6.35   3
   3  -9   9   10.72    5.70   1
   4  -9   9   51.98   10.06   1
  -4   9  -9   32.38   10.05   3
  -5   9  -9    9.18    6.97   3
   5  -9   9   11.97    6.59   1
   6  -9   9  142.24   16.16   1
  -6   9  -9  111.81   17.74   3
   7  -9   9   16.58    8.32   1
  -7   9  -9   12.05    8.17   3
  -8   9  -9   21.52   11.01   3
  -9   9  -9   34.32   12.92   3
 -10   9  -9   21.83   10.87   3
 -11   9  -9    2.29    9.03   3
 -14  -8   9   58.27   17.01   1
 -14  -8   9   59.36   14.95   4
 -13  -8   9   48.55   14.63   1
 -13  -8   9   38.95   10.93   4
 -12  -8   9   28.01   11.20   1
 -12  -8   9   13.53    9.47   4
 -11  -8   9   56.29   12.88   4
 -11  -8   9   81.57   17.16   1
 -10  -8   9   20.92    8.77   4
 -10  -8   9   19.42    9.33   1
  -9  -8   9   60.31   13.59   1
  -9  -8   9   81.80   15.17   4
  -8  -8   9   76.65   15.39   1
  -7  -8   9   17.23    7.56   1
  -6  -8   9   -2.45    5.04   1
  -5  -8   9  320.87   23.80   1
   5   8  -9  381.08   26.02   2
   4   8  -9   64.45   13.83   2
  -4  -8   9   63.55   12.24   1
  -3  -8   9   42.93    9.68   1
   3   8  -9   54.96   13.39   2
   2   8  -9  292.97   17.13   3
  -2  -8   9  283.94   20.31   1
   2   8  -9  297.98   21.67   2
   1   8  -9    2.87    5.44   3
   1   8  -9    0.08    8.78   2
  -1  -8   9    9.12    5.02   1
   0   8  -9    3.73    5.07   3
   0  -8   9    1.27    4.28   1
   0   8  -9    5.40    8.77   2
   1  -8   9  523.12   26.25   1
  -1   8  -9  513.14   26.30   2
  -1   8  -9  487.38   25.55   3
  -2   8  -9  337.78   19.96   2
   2  -8   9  271.29   18.31   1
  -2   8  -9  308.36   20.71   3
  -3   8  -9   68.17   12.40   3
   3  -8   9   47.14    9.46   1
  -4   8  -9   61.03   11.82   3
   4  -8   9   50.91   10.20   1
  -5   8  -9  132.31   17.13   3
   5  -8   9   93.76   12.83   1
   6  -8   9   75.51   12.13   1
  -6   8  -9   77.28   14.26   3
  -7   8  -9   55.58   12.27   3
   7  -8   9   42.37   10.12   1
  -8   8  -9   61.44   14.10   3
  -9   8  -9   28.45   10.69   3
 -10   8  -9   -5.28    7.03   3
 -11   8  -9  134.44   22.12   3
 -12   8  -9   12.58   10.16   3
 -15  -7   9   -4.81    7.91   4
 -15  -7   9   -4.11    9.54   1
 -14  -7   9   19.15   11.96   1
 -14  -7   9   25.29   10.68   4
 -13  -7   9   51.16   14.98   1
 -13  -7   9   28.64   10.29   4
 -12  -7   9   -0.75    5.18   4
 -12  -7   9   25.68   10.73   1
 -11  -7   9   51.98   12.96   4
 -11  -7   9   66.50   15.43   1
 -10  -7   9  243.21   25.99   1
 -10  -7   9  197.55   23.03   4
  -9  -7   9    2.73    6.73   1
  -9  -7   9   12.18    7.19   4
  -8  -7   9  113.68   16.64   4
  -8  -7   9  128.37   18.47   1
  -7  -7   9   80.42   14.32   1
  -7  -7   9   94.71   14.86   4
  -6  -7   9   79.89   13.90   1
   6   7  -9   70.72   14.72   2
  -5  -7   9   14.61    6.66   1
   5   7  -9   15.09   10.88   2
   4   7  -9   53.81   12.34   2
  -4  -7   9   33.72    9.03   1
  -3  -7   9   47.01   10.25   1
   3   7  -9   33.83   11.09   2
  -2  -7   9   36.45    8.73   1
   2   7  -9   13.35    4.54   3
   2   7  -9   20.65    9.58   2
   1   7  -9   28.58    9.15   2
   1   7  -9   28.89    6.57   3
  -1  -7   9    7.54    5.09   1
   0  -7   9  616.12   28.42   1
   0   7  -9  588.71   28.58   2
   0   7  -9  639.23   27.12   3
  -1   7  -9   12.26    7.32   2
  -1   7  -9    1.77    4.21   3
   1  -7   9    2.99    3.81   1
  -2   7  -9  556.60   28.18   3
  -2   7  -9  565.00   26.30   2
   2  -7   9  564.69   26.37   1
   3  -7   9   48.15    8.77   1
  -3   7  -9   77.67   11.06   2
  -3   7  -9   63.10   11.38   3
   4  -7   9  201.16   15.02   1
  -4   7  -9  172.09   17.92   3
   5  -7   9  142.62   13.78   1
  -5   7  -9  152.68   17.90   3
   6  -7   9   16.38    7.37   1
  -6   7  -9   15.96    7.88   3
  -7   7  -9  294.38   24.13   3
   7  -7   9  268.26   19.80   1
  -8   7  -9  129.60   19.61   3
  -9   7  -9   -3.99    6.18   3
 -10   7  -9   31.86   11.90   3
 -11   7  -9   -8.72    5.58   3
 -12   7  -9   11.71    9.77   3
 -13   7  -9   24.38   12.92   3
 -15  -6   9   47.71   15.85   1
 -15  -6   9   31.12   11.11   4
 -14  -6   9   57.72   13.76   4
 -14  -6   9   59.97   15.35   1
 -13  -6   9   15.29   10.44   1
 -13  -6   9   17.10    8.74   4
 -12  -6   9   23.94    9.41   4
 -12  -6   9   21.27   11.40   1
 -11  -6   9   -6.89    4.83   4
 -11  -6   9   -5.56    6.89   1
 -10  -6   9   88.10   15.87   4
 -10  -6   9   91.58   17.35   1
  -9  -6   9    9.65    7.02   4
  -9  -6   9   -7.29    5.59   1
  -8  -6   9   16.58    7.17   1
  -8  -6   9   18.65    7.16   4
  -7  -6   9   22.43    7.69   4
  -7  -6   9   32.59    9.91   1
  -6  -6   9  327.55   22.59   4
   6   6  -9  310.93   22.90   2
  -6  -6   9  336.42   23.96   1
   5   6  -9   99.46   14.55   2
  -5  -6   9   96.69   13.66   4
  -5  -6   9  106.59   14.78   1
   4   6  -9   77.79   13.10   2
  -4  -6   9   52.43   10.72   1
  -3  -6   9    6.87    5.32   1
   3   6  -9    6.80    8.07   2
  -2  -6   9  302.30   19.69   1
   2   6  -9  339.65   20.51   2
   2   6  -9  337.06   15.54   3
   1   6  -9  556.16   27.30   2
   1   6  -9  581.82   23.61   3
  -1  -6   9  601.48   27.50   1
   0  -6   9    6.73    4.72   1
   0   6  -9    7.81    7.59   2
   0   6  -9    7.67    4.47   3
  -1   6  -9  524.20   24.94   2
  -1   6  -9  539.60   25.28   3
   1  -6   9  544.98   24.28   1
   2  -6   9  161.70   12.03   1
  -2   6  -9  161.77   13.65   2
  -2   6  -9  149.67   14.14   3
  -3   6  -9   59.83   10.05   2
   3  -6   9   57.50    8.38   1
  -3   6  -9   43.50    9.61   3
  -4   6  -9   -3.01    5.39   3
  -4   6  -9    5.06    7.66   2
   4  -6   9    6.03    4.10   1
  -5   6  -9   18.92    7.69   3
  -6   6  -9   41.44   10.87   3
  -7   6  -9   -9.67    4.43   3
   7  -6   9   -1.20    2.82   1
  -8   6  -9   64.72   13.54   3
  -9   6  -9   37.97   12.66   3
 -10   6  -9    0.66    8.03   3
 -11   6  -9   98.96   19.06   3
 -12   6  -9   22.54   11.04   3
 -13   6  -9   37.55   12.86   3
  14   5  -9    0.83   10.24   1
  13   5  -9   48.28   14.57   1
  12   5  -9   30.20   12.96   1
  11   5  -9  129.43   20.37   1
  10   5  -9  416.17   29.37   1
   9   5  -9    0.57    7.78   1
   7   5  -9  110.61   15.79   2
  -7  -5   9  118.22   16.55   1
  -7  -5   9  110.97   15.00   4
  -6  -5   9   15.04    6.94   1
   6   5  -9   10.72    8.74   2
  -6  -5   9   16.47    6.51   4
   5   5  -9  358.87   22.55   2
  -5  -5   9  359.50   23.53   1
  -5  -5   9  370.83   22.86   4
  -4  -5   9    2.45    4.44   4
  -4  -5   9    2.50    5.21   1
   4   5  -9    2.28    7.14   2
  -3  -5   9   31.12    7.51   1
   3   5  -9   31.82    8.87   2
  -2  -5   9    4.04    4.71   1
   2   5  -9   -1.54    2.84   3
   2   5  -9   -0.22    6.74   2
   1   5  -9  152.07   14.29   2
  -1  -5   9  143.07   13.04   1
   0  -5   9   15.77    5.15   1
   0   5  -9   14.44    5.06   3
   0   5  -9    3.92    7.17   2
  -1   5  -9    4.11    6.14   2
  -1   5  -9    0.02    4.08   3
   1  -5   9    0.23    2.98   1
  -2   5  -9  137.87   12.68   2
  -2   5  -9  130.99   13.03   3
  -3   5  -9  326.81   20.31   3
  -3   5  -9  298.17   17.14   2
  -4   5  -9   11.42    6.31   3
   4  -5   9   30.35    6.30   1
  -4   5  -9   12.62    7.43   2
  -5   5  -9  209.69   14.93   2
   5  -5   9  189.20   13.31   1
  -5   5  -9  185.46   18.49   3
  -6   5  -9  222.61   19.21   3
   6  -5   9  234.05   15.79   1
   7  -5   9   20.69    7.80   1
  -7   5  -9   12.45    7.83   3
  -8   5  -9    0.64    6.21   3
  -9   5  -9   70.72   14.92   3
 -10   5  -9   38.93   12.68   3
 -11   5  -9   -4.80    6.58   3
 -12   5  -9    9.90    8.72   3
 -13   5  -9    8.19    8.94   3
 -14   5  -9   45.36   14.85   3
  15   4  -9    1.01    5.28   1
  14   4  -9   66.59   16.87   1
  13   4  -9   96.16   18.84   1
  12   4  -9   50.42   15.25   1
  11   4  -9    8.95    8.57   1
  10   4  -9   10.20    7.86   1
   9   4  -9  -13.12    7.21   1
   8   4  -9  248.51   21.31   1
   7   4  -9    3.77    8.25   2
   7   4  -9    6.21    8.47   1
   6   4  -9  372.88   23.25   2
   6   4  -9  365.77   22.85   1
   5   4  -9   63.36   11.08   1
   5   4  -9   50.75   11.32   2
  -4  -4   9  181.79   16.82   1
  -4  -4   9  170.86   15.51   4
   4   4  -9  158.08   14.98   2
  -3  -4   9  254.76   16.63   4
  -3  -4   9  228.48   16.58   1
   3   4  -9  254.55   17.55   2
   2   4  -9  120.60    7.20   3
  -2  -4   9  127.62   12.38   1
  -2  -4   9  130.07   11.92   4
   2   4  -9  121.61   12.57   2
  -1  -4   9 1431.17   48.44   1
   1   4  -9 1432.04   43.62   3
   1   4  -9 1412.23   49.55   2
   0   4  -9  306.55   16.05   3
   0  -4   9  367.83   17.83   1
   0   4  -9  404.45   20.32   2
  -1   4  -9  102.77   10.33   3
  -1   4  -9  102.57   10.99   2
   2  -4   9   10.87    3.68   1
  -2   4  -9   10.45    6.59   2
  -2   4  -9   12.21    5.33   3
  -3   4  -9   29.92    7.44   3
  -3   4  -9   31.72    8.04   2
   3  -4   9   29.34    5.24   1
   4  -4   9    6.50    3.59   1
  -4   4  -9   13.77    6.83   2
  -4   4  -9    7.27    5.08   3
  -5   4  -9   49.64    9.46   2
  -5   4  -9   34.28    8.70   3
   5  -4   9   53.59    7.27   1
   6  -4   9   22.31    6.50   1
  -6   4  -9   27.89    8.32   2
  -6   4  -9   21.29    7.78   3
  -7   4  -9  175.78   19.76   3
   7  -4   9  191.32   14.59   1
  -8   4  -9    3.30    5.58   3
  -9   4  -9  100.72   17.16   3
 -10   4  -9    0.15    5.65   3
 -11   4  -9    3.45    7.09   3
 -12   4  -9   92.67   19.00   3
 -13   4  -9    0.15    8.20   3
 -14   4  -9  140.37   24.22   3
 -15   4  -9   -5.60    8.91   3
  15   3  -9   -1.84    6.83   1
  14   3  -9   52.70   14.80   1
  13   3  -9   56.33   15.41   1
  12   3  -9  229.93   26.16   1
  11   3  -9   10.27    9.14   1
  10   3  -9   26.01   10.97   1
   9   3  -9  373.27   27.01   1
   8   3  -9   66.37   12.38   2
   8   3  -9   85.30   14.56   1
   7   3  -9  222.72   20.29   1
   7   3  -9  214.65   17.83   2
   6   3  -9   53.76   11.27   2
   6   3  -9   39.56    9.97   1
   5   3  -9  209.30   16.81   1
   5   3  -9  227.28   17.44   2
   4   3  -9    5.07    6.16   2
   4   3  -9   15.15    6.48   1
   3   3  -9   32.93    7.73   1
   3   3  -9   30.09    8.75   2
  -2  -3   9   -1.44    4.05   1
   2   3  -9    0.87    1.92   3
   2   3  -9    2.15    6.42   2
  -2  -3   9   -2.23    3.34   4
   1   3  -9   36.54    7.93   2
  -1  -3   9   26.91    5.82   4
  -1  -3   9   39.64    6.94   1
   1   3  -9   34.63    4.86   3
   0   3  -9   36.35    5.30   3
  -1   3  -9  186.32   12.18   3
  -1   3  -9  165.25   13.09   2
   1  -3   9  169.06   10.18   1
  -2   3  -9  226.03   14.42   2
   2  -3   9  197.40   10.42   1
  -2   3  -9  203.83   14.20   3
  -3   3  -9  420.32   22.67   3
   3  -3   9  423.52   16.87   1
  -3   3  -9  499.18   22.46   2
   4  -3   9  256.75   12.24   1
  -4   3  -9  248.14   17.73   3
  -4   3  -9  262.07   15.99   2
  -5   3  -9  107.35   11.19   2
  -5   3  -9  123.91   14.87   3
   5  -3   9   85.38    8.24   1
  -6   3  -9   83.56   10.23   2
   6  -3   9   77.52    8.79   1
  -6   3  -9   95.17   14.08   3
   7  -3   9    8.06    6.21   1
  -7   3  -9   -2.85    4.32   3
  -7   3  -9    5.70    5.36   2
  -8   3  -9  384.64   27.03   3
  -9   3  -9   22.10    9.39   3
 -10   3  -9  154.03   21.11   3
 -11   3  -9    2.77    7.74   3
 -12   3  -9   13.67    9.32   3
 -13   3  -9   -3.59    6.68   3
 -14   3  -9   -2.57    6.59   3
 -15   3  -9    7.61    8.60   3
  15   2  -9    9.20    7.56   1
  14   2  -9   -1.42    7.99   1
  13   2  -9    9.24    9.09   1
  12   2  -9   -2.30    7.86   1
  11   2  -9    6.09    9.08   1
  10   2  -9   90.43   16.75   1
   9   2  -9  117.75   17.91   1
   8   2  -9    7.15    8.57   2
   8   2  -9   11.61    8.80   1
   7   2  -9   40.70   10.40   2
   7   2  -9   32.95   10.58   1
   6   2  -9  124.45   14.19   2
   6   2  -9  109.43   14.46   1
   5   2  -9  521.13   26.43   1
   5   2  -9  544.97   25.88   2
   4   2  -9   66.38   10.49   2
   4   2  -9   56.64    9.87   1
   3   2  -9  777.14   31.08   1
   3   2  -9  825.45   32.52   2
   2   2  -9  669.97   28.51   2
   2   2  -9  698.41   27.30   1
   2   2  -9  754.21   21.01   3
   1   2  -9    6.30    6.20   2
   1   2  -9    2.89    2.53   3
   1   2  -9    4.96    4.68   1
   0  -2   9   43.76    5.87   4
   0   2  -9   72.33    6.89   3
   0   2  -9   63.56    9.19   2
   0  -2   9   34.28    5.62   1
  -1   2  -9  300.00   15.72   3
  -1   2  -9  313.71   17.82   2
   1  -2   9  305.04   13.33   1
  -2   2  -9   15.26    6.80   2
   2  -2   9   11.44    2.82   1
  -2   2  -9    4.78    4.22   3
   3  -2   9   25.33    3.56   1
  -3   2  -9   21.49    6.85   3
  -3   2  -9   17.66    6.78   2
  -4   2  -9   44.04    8.91   3
  -4   2  -9   54.88    8.59   2
   4  -2   9   45.14    4.77   1
  -5   2  -9  144.63   11.77   2
   5  -2   9  154.42    9.40   1
  -5   2  -9  178.14   16.78   3
  -6   2  -9   43.48    8.15   2
   6  -2   9   38.96    6.39   1
  -6   2  -9   39.79    9.91   3
  -7   2  -9  247.97   16.29   2
   7  -2   9  238.80   13.87   1
  -7   2  -9  204.48   20.51   3
  -8   2  -9  139.64   12.55   2
  -8   2  -9  215.18   21.36   3
  -9   2  -9   39.90   11.26   3
 -10   2  -9   69.05   14.19   3
 -11   2  -9    1.05    6.65   3
 -12   2  -9  222.02   26.26   3
 -13   2  -9    0.27    7.08   3
 -14   2  -9   -0.33    7.83   3
 -15   2  -9   49.77   13.96   3
 -16   2  -9   37.88   14.49   3
  15   1  -9   -3.28    5.20   1
  14   1  -9   11.78    9.89   1
  13   1  -9   23.98   11.84   1
  12   1  -9   79.97   17.15   1
  11   1  -9   93.00   17.37   1
  10   1  -9   -1.32    6.54   1
   9   1  -9   13.89    9.90   1
   8   1  -9   43.39   11.84   1
   8   1  -9   25.01    9.30   2
   7   1  -9   18.02    8.56   1
   7   1  -9   23.15    8.69   2
   6   1  -9  212.69   17.80   1
   6   1  -9  193.79   15.75   2
   5   1  -9   44.63    8.60   2
   5   1  -9   41.31    9.75   1
   4   1  -9   26.76    7.96   2
   4   1  -9   35.49    7.96   1
   3   1  -9  108.15   11.23   2
   3   1  -9   83.04   10.41   1
   2   1  -9   36.62    7.76   2
   2   1  -9   35.16    7.21   1
   2   1  -9   30.29    2.95   3
   1   1  -9  140.45   11.70   2
   1   1  -9  140.77    9.94   1
   0   1  -9  214.26   10.98   1
   0   1  -9  201.83   14.05   2
   1  -1   9 1615.26   46.56   1
   1  -1   9 1660.28   44.73   4
  -1   1  -9 1562.93   53.21   2
   2  -1   9   53.26    4.05   1
  -2   1  -9   60.58    9.14   2
   3  -1   9   95.45    4.64   1
  -3   1  -9  106.79   10.71   2
   4  -1   9 2407.87   63.54   1
  -4   1  -9 2335.40   74.78   2
  -5   1  -9  137.86   11.77   2
   5  -1   9  141.83    8.01   1
   6  -1   9  176.36    9.92   1
  -6   1  -9  159.68   13.02   2
  -7   1  -9    1.24    3.80   2
   7  -1   9    3.16    4.38   1
  -7   1  -9   -5.47    3.86   3
  -8   1  -9   21.67    8.67   3
  -8   1  -9   30.07    7.51   2
   8  -1   9   23.98    7.22   1
  -9   1  -9    1.88    6.15   3
  -9   1  -9    3.35    4.81   2
 -10   1  -9   90.38   16.73   3
 -11   1  -9   13.19    7.79   3
 -12   1  -9   -1.32    5.62   3
 -13   1  -9    5.86    6.29   3
 -14   1  -9   16.64    9.31   3
 -15   1  -9   -0.61    7.36   3
 -16   1  -9   85.69   19.05   3
  15   0  -9    7.88    7.13   1
  14   0  -9    1.60    6.96   1
  13   0  -9   27.67   12.01   1
  12   0  -9   -9.71    7.85   1
  11   0  -9    9.51    8.58   1
  10   0  -9   28.34   11.44   1
   9   0  -9  149.35   19.89   1
   8   0  -9   59.65   11.13   2
   8   0  -9   55.57   12.68   1
   7   0  -9  292.42   22.15   1
   7   0  -9  315.99   19.32   2
   6   0  -9    6.40    6.45   2
   6   0  -9   24.13    9.56   1
   5   0  -9  600.48   29.24   1
   5   0  -9  584.92   26.28   2
   4   0  -9   26.50    7.81   1
   4   0  -9   41.28    8.40   2
   3   0  -9  780.37   30.81   2
   3   0  -9  796.35   31.18   1
   2   0  -9  786.90   30.16   2
   2   0  -9  757.65   28.93   1
   1   0  -9   75.42    9.54   2
   1   0  -9   61.28    7.68   1
   0   0  -9   18.09    7.07   2
   0   0  -9    5.81    4.16   1
  -1   0  -9   54.26    8.69   2
  -1   0  -9   48.00    4.97   1
  -2   0  -9   53.58    8.21   2
   2   0   9   43.59    3.25   4
   2   0   9   38.51    3.27   1
  -3   0  -9   37.93    7.41   2
  -4   0  -9   51.68    8.60   2
   5   0   9  369.29   12.31   1
  -5   0  -9  391.59   21.11   2
  -6   0  -9   14.20    5.78   2
   6   0   9   16.08    3.92   1
   7   0   9   59.04    6.76   1
  -7   0  -9   37.90    8.71   2
   8   0   9  490.71   20.67   1
  -8   0  -9  497.57   27.06   2
  -9   0  -9  473.35   27.21   2
 -10   0  -9   13.25    6.57   2
 -10   0  -9    7.59    6.85   3
 -11   0  -9   59.16   14.04   3
 -12   0  -9    6.64    7.55   3
 -13   0  -9  193.10   24.82   3
 -14   0  -9    2.12    7.17   3
 -15   0  -9   79.35   17.34   3
 -16   0  -9    9.03    8.63   3
  14  -1  -9    2.53    4.81   1
  13  -1  -9   77.62   17.27   1
  12  -1  -9   19.17   11.53   1
  11  -1  -9  100.08   18.28   1
  10  -1  -9   36.98   12.12   1
   9  -1  -9    3.35    8.77   1
   8  -1  -9  160.98   19.44   1
   8  -1  -9  152.78   14.77   2
   7  -1  -9   10.64    8.22   1
   7  -1  -9   -1.68    4.93   2
  -6   1   9   72.93    6.71   3
   6  -1  -9   58.40   12.37   1
   5  -1  -9   19.06    8.19   1
   5  -1  -9   24.58    7.38   2
   4  -1  -9   77.16   11.27   1
   4  -1  -9   72.31    9.18   2
   3  -1  -9   -1.71    5.59   1
   3  -1  -9   -0.31    4.91   2
   2  -1  -9   46.34    7.93   2
   2  -1  -9   43.77    8.10   1
   1  -1  -9  532.05   21.97   1
   1  -1  -9  537.01   23.99   2
   0  -1  -9  308.64   14.06   1
   0  -1  -9  308.63   17.78   2
  -1  -1  -9  183.68    9.23   1
  -1  -1  -9  157.24   12.28   2
  -2  -1  -9 2226.09   70.53   2
  -2  -1  -9 2203.77   59.44   1
  -3  -1  -9    5.07    4.50   2
  -4  -1  -9 1279.24   47.20   2
  -5  -1  -9    3.91    1.71   1
  -5  -1  -9    3.04    4.55   2
  -6  -1  -9   63.28    5.15   4
  -6  -1  -9   65.79   10.82   2
  -6  -1  -9   57.64    4.98   1
   7   1   9    9.07    3.98   1
  -7  -1  -9    8.20    5.34   2
   8   1   9    5.68    4.99   1
  -8  -1  -9    9.75    6.27   2
  -9  -1  -9    8.86    6.22   2
 -10  -1  -9  144.58   17.52   2
 -11  -1  -9   36.27   10.04   2
 -12  -1  -9   10.96    7.82   3
 -13  -1  -9   27.35   10.33   3
 -14  -1  -9   49.34   13.31   3
 -15  -1  -9   33.13   11.77   3
 -16  -1  -9  118.60   20.71   3
  14  -2  -9    0.51    6.00   1
  13  -2  -9   23.68   12.24   1
  12  -2  -9   59.75   14.77   1
  11  -2  -9    4.31   10.17   1
  10  -2  -9  118.22   19.26   1
   9  -2  -9   13.38    8.96   1
   8  -2  -9   10.83    9.79   1
   7  -2  -9   88.36   15.43   1
   7  -2  -9   82.00   10.76   2
   6  -2  -9    3.34    7.51   1
   6  -2  -9   -0.48    5.71   2
  -6   2   9   -0.23    3.98   3
   5  -2  -9  951.09   41.12   1
   5  -2  -9 1032.32   36.51   2
   4  -2  -9   93.06   12.09   1
   3  -2  -9  170.47   12.13   2
   3  -2  -9  153.51   13.96   1
   2  -2  -9   39.07    7.99   2
   2  -2  -9   36.75    7.97   1
   1  -2  -9   27.59    6.61   1
   1  -2  -9   26.70    7.08   2
   0  -2  -9  152.39   12.39   2
   0  -2  -9  157.49   10.38   1
  -1  -2  -9 1029.34   32.37   1
  -1  -2  -9 1029.29   38.27   2
  -2  -2  -9  592.45   26.98   2
  -2  -2  -9  592.07   19.81   1
  -3  -2  -9   50.87    4.44   1
  -3  -2  -9   52.39    8.90   2
  -4  -2  -9  131.60   13.58   2
  -4  -2  -9  138.36    6.20   1
  -5  -2  -9  816.21   24.61   1
  -5  -2  -9  811.82   36.21   2
  -6  -2  -9  175.20    9.06   1
  -6  -2  -9  217.91   17.26   2
  -7  -2  -9   33.34    8.57   2
  -7  -2  -9   39.08    5.29   4
  -7  -2  -9   32.26    4.86   1
  -8  -2  -9   60.07    6.97   1
  -8  -2  -9   52.28    6.75   4
  -8  -2  -9   54.12   11.39   2
  -9  -2  -9   14.01    7.68   2
 -10  -2  -9   41.26   10.41   2
 -11  -2  -9   55.39   12.15   2
 -12  -2  -9   20.95    8.52   2
 -14  -2  -9    1.97    6.41   3
 -15  -2  -9   12.33    9.92   3
 -16  -2  -9   10.26    7.80   3
 -17  -2  -9   14.03   11.38   3
  14  -3  -9    6.10    6.61   1
  13  -3  -9   -3.53    5.97   1
  12  -3  -9    1.30    8.48   1
  11  -3  -9  179.03   23.83   1
  10  -3  -9   47.57   13.73   1
   9  -3  -9  162.65   21.56   1
   8  -3  -9   91.30   17.37   1
   7  -3  -9    7.66    8.97   1
   6  -3  -9    2.41    5.75   2
   6  -3  -9   16.72    9.34   1
  -6   3   9    6.90    5.59   3
   5  -3  -9   27.46    7.37   2
   5  -3  -9   21.80   10.06   1
   4  -3  -9    2.81    5.47   2
   4  -3  -9    5.34    7.37   1
   3  -3  -9  124.04   13.30   1
   2  -3  -9   11.93    6.00   1
   2  -3  -9    9.66    6.02   2
   1  -3  -9  355.65   19.02   2
   1  -3  -9  364.41   18.72   1
   0  -3  -9  388.05   19.86   2
   0  -3  -9  376.82   17.76   1
  -1  -3  -9  126.98    9.35   1
  -1  -3  -9  123.32   11.91   2
  -2  -3  -9  317.42   18.57   2
  -2  -3  -9  306.90   13.64   1
  -3  -3  -9   36.97    8.56   2
  -3  -3  -9   39.45    4.74   1
  -4  -3  -9  289.94   19.40   2
  -4  -3  -9  308.70   12.31   1
  -5  -3  -9   29.84    4.07   1
  -5  -3  -9   25.08    7.93   2
  -6  -3  -9  138.47    8.44   1
  -6  -3  -9  116.91   14.79   2
  -7  -3  -9   55.90    6.36   1
  -7  -3  -9   47.81   10.84   2
  -8  -3  -9   79.63    8.32   1
  -8  -3  -9   89.80   14.87   2
  -9  -3  -9   23.88    8.76   2
 -10  -3  -9  101.71   16.94   2
 -11  -3  -9  121.64   18.87   2
 -12  -3  -9   45.68   12.47   2
 -13  -3  -9   -4.82    6.79   2
 -15  -3  -9   22.66    8.86   3
 -16  -3  -9    5.19    7.71   3
 -17  -3  -9   94.56   18.83   3
  13  -4  -9    7.31    6.56   1
  12  -4  -9    5.06   10.12   1
  11  -4  -9   14.77   10.80   1
  10  -4  -9    1.80    8.67   1
   9  -4  -9    6.84    9.58   1
   8  -4  -9   -3.27    8.76   1
   7  -4  -9   68.68   14.56   1
  -6   4   9   38.19    8.06   3
   6  -4  -9   38.65   12.65   1
   5  -4  -9   19.98    9.19   1
   5  -4  -9   10.77    6.17   2
   4  -4  -9  219.57   18.38   1
   4  -4  -9  247.43   14.64   2
   3  -4  -9   94.41    9.58   2
   3  -4  -9   75.47   11.89   1
   1  -4  -9   81.84   10.52   1
   1  -4  -9   97.62   10.34   2
   0  -4  -9  215.94   14.00   1
   0  -4  -9  220.90   15.01   2
  -1  -4  -9   34.11    6.57   1
  -1  -4  -9   22.00    6.69   2
  -2  -4  -9   77.34    7.69   1
  -2  -4  -9   91.11   11.41   2
  -3  -4  -9   74.21    7.07   1
  -3  -4  -9   63.15   10.81   2
  -4  -4  -9   18.26    6.75   2
  -4  -4  -9   11.31    3.79   1
  -5  -4  -9    6.89    3.15   1
  -5  -4  -9    3.94    4.62   2
  -6  -4  -9 1049.73   46.69   2
  -6  -4  -9 1050.82   34.83   1
  -7  -4  -9   19.20    7.90   2
  -7  -4  -9   14.58    4.35   1
  -8  -4  -9  180.54   20.18   2
  -8  -4  -9  169.88   11.87   1
  -9  -4  -9  250.48   21.80   2
 -10  -4  -9    0.45    5.32   2
 -11  -4  -9    1.53    5.87   2
 -12  -4  -9   23.82   10.39   2
 -13  -4  -9   56.27   14.85   2
 -14  -4  -9   55.87   16.33   2
 -17  -4  -9   13.01    8.33   3
  13  -5  -9    2.78    7.20   1
  12  -5  -9    5.76    8.08   1
  11  -5  -9   49.24   15.69   1
  10  -5  -9   87.11   18.87   1
   9  -5  -9   59.25   15.25   1
   8  -5  -9   48.36   14.25   1
   7  -5  -9    7.63    9.64   1
  -7   5   9    3.24    6.69   3
   6  -5  -9   16.71   10.10   1
   5  -5  -9  207.39   21.23   1
   4  -5  -9   76.57    9.22   2
   4  -5  -9   62.91   12.77   1
   3  -5  -9  134.82   11.98   2
   3  -5  -9  118.02   14.36   1
   2  -5  -9   -4.38    4.92   1
   2  -5  -9   -1.63    4.89   2
   1  -5  -9   -0.32    2.08   2
   1  -5  -9   -2.30    5.42   1
   0  -5  -9  791.84   32.79   2
   0  -5  -9  789.55   31.50   1
  -1  -5  -9  680.06   30.52   2
  -1  -5  -9  687.96   27.39   1
  -2  -5  -9  244.13   17.42   2
  -2  -5  -9  257.76   14.38   1
  -3  -5  -9  105.97   13.22   2
  -3  -5  -9  102.49    8.88   1
  -4  -5  -9   15.56    6.75   2
  -4  -5  -9   14.06    4.37   1
  -5  -5  -9 1067.04   36.13   1
  -5  -5  -9 1096.85   47.58   2
  -6  -5  -9   93.70    8.88   1
  -6  -5  -9   84.32   14.17   2
  -7  -5  -9   39.15    6.87   1
  -7  -5  -9   38.48   10.29   2
  -8  -5  -9   20.40    5.67   1
  -8  -5  -9   13.41    7.28   2
  -9  -5  -9  120.06   18.53   2
 -10  -5  -9  237.37   25.36   2
 -11  -5  -9   -1.94    5.94   2
 -12  -5  -9  423.90   33.78   2
 -13  -5  -9   66.26   15.85   2
 -14  -5  -9   -1.46    7.81   2
 -15  -5  -9   19.73   12.59   2
  12  -6  -9   -4.20    5.34   1
  10  -6  -9   -1.34    9.23   1
   9  -6  -9   36.73   14.07   1
   8  -6  -9    6.60   10.10   1
  -7   6   9   94.07   12.50   3
   7  -6  -9  102.91   18.50   1
   6  -6  -9  120.96   19.20   1
   5  -6  -9  220.80   22.21   1
   4  -6  -9  143.39   17.65   1
   3  -6  -9   75.12   13.33   1
   3  -6  -9   83.18   10.02   2
   2  -6  -9   52.09   11.46   1
   2  -6  -9   66.48    9.50   2
   1  -6  -9   19.95    7.42   1
   1  -6  -9   33.44    7.30   2
   0  -6  -9   86.10   10.87   2
   0  -6  -9  116.99   12.59   1
  -1  -6  -9  250.65   17.14   2
  -1  -6  -9  238.01   15.87   1
  -2  -6  -9  256.24   15.74   1
  -2  -6  -9  309.83   19.90   2
  -3  -6  -9   25.39    7.54   2
  -3  -6  -9   22.99    5.75   1
  -4  -6  -9  623.84   25.33   1
  -4  -6  -9  610.19   32.47   2
  -5  -6  -9    2.21    2.87   1
  -5  -6  -9   -4.25    4.53   2
  -6  -6  -9  116.74   16.90   2
  -6  -6  -9  165.83   11.55   1
  -7  -6  -9  138.16   11.49   1
  -7  -6  -9  127.76   18.23   2
  -8  -6  -9   32.57   10.32   2
  -8  -6  -9   21.29    5.98   1
  -9  -6  -9  346.28   27.97   2
  -9  -6  -9  355.44   20.12   1
 -10  -6  -9   46.32   13.00   2
 -11  -6  -9    3.08    6.28   2
 -12  -6  -9   69.72   17.08   2
 -13  -6  -9    2.97    7.09   2
 -14  -6  -9   53.80   16.29   2
 -15  -6  -9   17.91   11.32   2
 -16  -6  -9    3.17   10.24   2
  11  -7  -9   -5.18    5.19   1
  10  -7  -9   45.16   15.04   1
   9  -7  -9   18.95   11.76   1
   8  -7  -9   19.99   12.29   1
   7  -7  -9   -1.33    7.79   1
   6  -7  -9   51.16   13.31   1
   5  -7  -9   24.43   10.60   1
   4  -7  -9   84.76   15.12   1
   3  -7  -9   23.24    9.93   1
   2  -7  -9  552.18   25.38   2
   2  -7  -9  571.14   30.53   1
   1  -7  -9  194.76   17.38   1
   1  -7  -9  175.13   14.11   2
  -1  -7  -9   65.06   10.04   1
  -1  -7  -9   57.67   10.09   2
  -2  -7  -9    9.33    5.36   1
  -2  -7  -9    4.55    4.98   2
  -3  -7  -9  760.99   30.55   1
  -3  -7  -9  681.65   34.56   2
  -4  -7  -9   -1.00    5.29   2
  -4  -7  -9    9.45    4.62   1
  -5  -7  -9  352.15   18.89   1
  -5  -7  -9  347.67   24.89   2
  -6  -7  -9    5.17    6.50   2
  -6  -7  -9    6.33    4.18   1
  -7  -7  -9    8.60    4.40   1
  -7  -7  -9   13.93    7.71   2
  -8  -7  -9  120.40   19.16   2
  -8  -7  -9   80.61   10.94   1
  -9  -7  -9   65.66   15.15   2
  -9  -7  -9   38.15    8.86   1
 -10  -7  -9   24.28   10.07   2
 -11  -7  -9  -10.31    5.27   2
 -12  -7  -9   81.14   19.49   2
 -13  -7  -9  314.83   37.03   2
 -14  -7  -9   13.27   10.78   2
 -15  -7  -9    2.02   11.46   2
 -16  -7  -9   20.58   15.21   2
  11  -8  -9   -7.18    5.29   1
  10  -8  -9    4.08    7.58   1
   9  -8  -9   73.58   18.24   1
   8  -8  -9  122.35   21.39   1
   7  -8  -9   20.39   11.59   1
   6  -8  -9   70.71   16.02   1
   5  -8  -9   -5.14    6.28   1
   4  -8  -9   21.07   10.27   1
   3  -8  -9  113.02   17.08   1
   2  -8  -9   -9.86    5.19   1
   1  -8  -9   17.68    6.48   2
   1  -8  -9   13.08    7.77   1
   0  -8  -9    0.26    3.68   2
   0  -8  -9    0.46    5.14   1
  -1  -8  -9   14.58    6.90   1
  -1  -8  -9   16.17    6.15   2
  -2  -8  -9  185.76   17.80   2
  -2  -8  -9  200.25   15.34   1
  -3  -8  -9    4.02    5.25   2
  -3  -8  -9   -2.59    4.41   1
  -4  -8  -9   22.72    6.22   1
  -4  -8  -9   43.14   10.96   2
  -5  -8  -9  157.39   18.98   2
  -5  -8  -9  150.55   13.73   1
  -6  -8  -9    1.53    5.76   2
  -6  -8  -9    2.62    4.21   1
  -7  -8  -9  166.87   21.83   2
  -7  -8  -9  133.43   13.30   1
  -8  -8  -9    2.56    4.85   1
  -8  -8  -9   14.68    8.75   2
  -9  -8  -9   77.20   17.04   2
  -9  -8  -9   67.29   11.26   1
 -10  -8  -9   77.89   18.45   2
 -11  -8  -9   12.93    8.39   2
 -12  -8  -9   32.32   12.71   2
 -13  -8  -9   -7.53    8.51   2
 -14  -8  -9    4.11   10.42   2
 -15  -8  -9  -15.48    7.96   2
 -16  -8  -9   11.58   15.20   2
  10  -9  -9   -8.87    5.35   1
   9  -9  -9   11.00   11.06   1
   8  -9  -9   22.77   13.24   1
   7  -9  -9   13.76   10.59   1
   6  -9  -9   23.75   12.54   1
   5  -9  -9   61.72   14.72   1
   4  -9  -9  127.72   19.04   1
   3  -9  -9   34.41   11.46   1
   2  -9  -9   60.83   12.63   1
   1  -9  -9   83.23   14.17   1
   0  -9  -9  313.49   19.93   2
   0  -9  -9  281.58   20.70   1
  -1  -9  -9   18.14    6.85   1
  -1  -9  -9    7.85    4.70   2
  -2  -9  -9    7.74    6.02   2
  -2  -9  -9    6.49    5.18   1
  -3  -9  -9    7.69    5.25   1
  -3  -9  -9   -4.24    4.54   2
  -4  -9  -9    8.78    6.96   2
  -4  -9  -9   11.66    6.05   1
  -5  -9  -9   33.09    7.97   1
  -5  -9  -9   24.68    8.59   2
  -6  -9  -9   -0.21    4.44   1
  -6  -9  -9    0.63    5.65   2
  -7  -9  -9    5.95    7.17   2
  -7  -9  -9   -2.95    4.13   1
  -8  -9  -9   14.41    6.82   1
  -8  -9  -9   12.46    8.95   2
  -9  -9  -9   24.52    7.22   1
  -9  -9  -9   34.91   12.37   2
 -10  -9  -9   -4.41    5.00   2
 -11  -9  -9   64.48   17.95   2
 -12  -9  -9    9.88   10.43   2
 -13  -9  -9   52.56   18.51   2
 -14  -9  -9  -13.98    8.98   2
 -15  -9  -9  -11.86   12.22   2
 -16  -9  -9  236.31   45.34   2
   9 -10  -9    2.20    6.19   1
   8 -10  -9   -7.03    8.87   1
   7 -10  -9   62.60   16.26   1
   6 -10  -9   59.56   16.19   1
   5 -10  -9   45.03   14.33   1
   4 -10  -9   17.16    9.60   1
   3 -10  -9   74.57   15.28   1
   2 -10  -9   73.40   14.52   1
   1 -10  -9   38.17   11.40   1
   0 -10  -9   59.05   12.03   1
  -1 -10  -9   58.23   11.52   1
  -2 -10  -9    7.64    5.85   2
  -2 -10  -9   10.95    6.49   1
  -3 -10  -9  177.77   17.11   1
  -3 -10  -9  181.24   19.29   2
  -4 -10  -9    2.99    5.21   1
  -4 -10  -9    0.11    5.42   2
  -5 -10  -9  247.86   24.67   2
  -5 -10  -9  237.16   18.09   1
  -6 -10  -9  105.12   13.90   1
  -6 -10  -9  123.78   19.13   2
  -7 -10  -9   71.30   12.10   1
  -7 -10  -9   47.92   13.70   2
  -8 -10  -9  133.88   22.10   2
  -8 -10  -9  111.61   14.55   1
  -9 -10  -9   51.22   10.51   1
  -9 -10  -9   49.13   14.92   2
 -10 -10  -9   80.55   19.55   2
 -11 -10  -9   18.77   12.18   2
 -12 -10  -9    3.76    9.85   2
 -13 -10  -9   15.83   13.69   2
 -14 -10  -9    9.06   12.60   2
 -15 -10  -9  -10.20   10.57   2
   8 -11  -9   -1.52    6.73   1
   7 -11  -9    9.90    9.49   1
   6 -11  -9   35.10   14.06   1
   5 -11  -9    3.57    8.59   1
   4 -11  -9   38.36   12.69   1
   3 -11  -9  159.91   21.66   1
   2 -11  -9   77.40   15.52   1
   1 -11  -9  100.86   16.64   1
   0 -11  -9    8.69    6.68   1
  -1 -11  -9  291.72   21.92   1
  -2 -11  -9   41.00   10.34   1
  -2 -11  -9   59.37   12.04   2
  -3 -11  -9   51.62   11.20   1
  -3 -11  -9   44.91   11.00   2
  -4 -11  -9   13.70    7.26   2
  -4 -11  -9   18.34    6.88   1
  -5 -11  -9    7.42    7.19   2
  -5 -11  -9   25.01    8.06   1
  -6 -11  -9    7.08    7.08   2
  -6 -11  -9    8.00    5.71   1
  -7 -11  -9  104.84   19.43   2
  -7 -11  -9  106.34   15.03   1
  -8 -11  -9   22.36   10.36   2
  -8 -11  -9   22.54    8.19   1
  -9 -11  -9   72.12   13.01   1
  -9 -11  -9  117.13   21.83   2
 -10 -11  -9   -3.09    6.46   2
 -11 -11  -9   65.62   18.58   2
 -12 -11  -9  102.72   25.71   2
 -13 -11  -9   28.28   14.27   2
 -14 -11  -9   33.62   17.54   2
   7 -12  -9   -0.33    6.70   1
   6 -12  -9    2.85    6.33   1
   5 -12  -9   14.88   10.70   1
   4 -12  -9   31.82   12.35   1
   3 -12  -9   -6.87    8.52   1
   2 -12  -9   -4.06    7.10   1
   1 -12  -9    6.30    9.01   1
   0 -12  -9    2.85    7.43   1
  -1 -12  -9   -2.67    5.33   1
  -2 -12  -9  134.32   17.82   1
  -3 -12  -9  272.50   21.86   1
  -3 -12  -9  249.42   21.97   2
  -4 -12  -9    9.79    7.90   2
  -4 -12  -9    9.89    6.56   1
  -5 -12  -9   27.69   10.23   2
  -5 -12  -9   15.81    6.96   1
  -6 -12  -9   58.05   14.23   2
  -6 -12  -9   50.51   11.28   1
  -7 -12  -9   34.46    9.91   1
  -7 -12  -9   52.09   14.35   2
  -8 -12  -9   69.77   17.48   2
  -8 -12  -9   82.99   14.37   1
  -9 -12  -9    5.27    6.73   1
  -9 -12  -9   -4.11    7.77   2
 -10 -12  -9    5.74    9.41   2
 -11 -12  -9   26.31   12.01   2
 -12 -12  -9    2.86    9.62   2
 -13 -12  -9   24.76   15.67   2
 -14 -12  -9  -24.56   11.91   2
   5 -13  -9   13.61   11.05   1
   4 -13  -9   -5.45    9.56   1
   3 -13  -9   54.89   15.34   1
   2 -13  -9    6.07    9.32   1
   1 -13  -9   79.21   16.52   1
   0 -13  -9  122.18   18.57   1
  -1 -13  -9    0.06    7.13   1
  -2 -13  -9   24.28    9.58   1
  -3 -13  -9    5.49    7.45   1
  -4 -13  -9   12.69    7.43   1
  -4 -13  -9   15.27    8.55   2
  -5 -13  -9    4.15    6.10   1
  -5 -13  -9   -6.54    5.71   2
  -6 -13  -9   33.71   11.93   2
  -6 -13  -9   23.25    9.46   1
  -7 -13  -9   18.09    8.52   1
  -7 -13  -9   40.18   13.62   2
  -8 -13  -9   11.98   10.17   2
  -8 -13  -9    6.79    7.23   1
  -9 -13  -9   14.31   11.24   2
  -9 -13  -9    2.96    7.71   1
 -10 -13  -9    7.05   10.56   2
 -11 -13  -9    9.67   11.15   2
 -12 -13  -9    1.19    8.40   2
 -13 -13  -9    5.86   10.25   2
   4 -14  -9    3.31    9.79   1
   3 -14  -9    6.19   10.33   1
   2 -14  -9   11.73   10.22   1
   1 -14  -9   42.98   12.90   1
   0 -14  -9    0.72    7.97   1
  -1 -14  -9   -0.06    7.92   1
  -2 -14  -9   12.15    8.65   1
  -3 -14  -9  180.70   21.95   1
  -4 -14  -9   55.33   13.85   1
  -5 -14  -9   -4.69    5.34   1
  -5 -14  -9    5.35    7.71   2
  -6 -14  -9   95.43   18.82   2
  -6 -14  -9   75.92   15.22   1
  -7 -14  -9    7.21    9.57   2
  -7 -14  -9    8.60    7.33   1
  -8 -14  -9    9.07    8.72   1
  -8 -14  -9   12.76    8.98   2
  -9 -14  -9    2.03    7.54   1
  -9 -14  -9    4.70    9.46   2
 -10 -14  -9  140.09   26.59   2
 -11 -14  -9    9.45    7.39   2
 -12 -14  -9    2.16    8.91   2
   2 -15  -9   28.28   13.40   1
   1 -15  -9   22.38   12.37   1
   0 -15  -9   26.16   11.13   1
  -1 -15  -9   23.76   10.72   1
  -2 -15  -9   -8.66    7.02   1
  -3 -15  -9    2.04    7.81   1
  -4 -15  -9   -0.67    7.38   1
  -5 -15  -9   -3.88    5.60   1
  -6 -15  -9   10.21    8.20   1
  -6 -15  -9    5.15    8.92   2
  -7 -15  -9   14.64    9.19   1
  -7 -15  -9   22.27   11.24   2
  -8 -15  -9    9.63   10.28   2
  -8 -15  -9   20.71   10.09   1
  -9 -15  -9    1.66    7.67   1
  -9 -15  -9   22.53   11.40   2
 -10 -15  -9   34.37   13.22   2
 -11 -15  -9   -6.48    7.68   2
   0 -16  -9   -7.40    8.64   1
  -1 -16  -9   85.07   18.18   1
  -2 -16  -9   17.98   10.11   1
  -3 -16  -9    2.38    9.28   1
  -4 -16  -9   45.24   13.22   1
  -5 -16  -9    8.92    8.74   1
  -6 -16  -9   71.98   16.18   1
  -7 -16  -9    9.30    9.81   2
  -7 -16  -9   28.46   10.58   1
  -8 -16  -9   29.70   12.88   2
  -8 -16  -9   -1.51    7.22   1
  -9 -16  -9    0.33    8.94   2
  -9 -16  -9   -5.09    7.93   1
 -10 -16  -9   12.24   12.37   2
  -4 -17  -9   -6.26    9.13   1
  -5 -17  -9    1.84    8.60   1
  -6 -17  -9   21.58   10.62   1
  -7 -17  -9  -10.57    8.94   1
  -8 -17  -9   13.16   10.74   1
  -6 -16  10    1.28    5.57   1
  -5 -16  10    1.23    6.17   1
  -4 -16  10   -1.68    5.85   1
  -3 -16  10    3.86    5.71   1
  -2 -16  10   37.24   11.50   1
  -1 -16  10    5.65    6.77   1
   0 -16  10   37.46   12.05   1
   1 -16  10    1.27    9.57   1
   2 -16  10   42.24   13.59   1
  -9 -15  10  -13.49    5.81   1
  -8 -15  10   16.79    6.71   1
  -7 -15  10  -10.14    5.00   1
  -6 -15  10   -3.96    5.90   1
  -5 -15  10   -5.67    5.59   1
  -4 -15  10   33.06   11.43   1
  -3 -15  10   24.61    9.90   1
  -2 -15  10    7.59    8.15   1
  -1 -15  10  105.94   18.90   1
   0 -15  10   44.37   12.19   1
   1 -15  10    9.72    8.98   1
   2 -15  10    3.25    7.54   1
  -3  15 -10   -4.96    3.88   3
   3 -15  10   -6.17    7.93   1
   4 -15  10   -7.82    7.04   1
 -10 -14  10   -5.81    6.35   1
  -9 -14  10   -8.42    4.92   1
  -8 -14  10   -3.79    6.58   1
  -7 -14  10    0.66    7.78   1
  -6 -14  10   40.97   12.55   1
  -5 -14  10    0.71    7.33   1
  -4 -14  10   14.40    7.98   1
  -3 -14  10    5.19    7.70   1
  -2 -14  10   12.26    7.96   1
  -1 -14  10    2.59    6.90   1
   0 -14  10    8.91    7.67   1
   1 -14  10  172.78   22.34   1
  -2  14 -10   23.28   10.12   3
   2 -14  10    9.92    7.74   1
  -3  14 -10   40.78   12.51   3
   3 -14  10   72.21   15.22   1
   4 -14  10   53.96   13.52   1
  -5  14 -10   -4.39    3.81   3
 -11 -13  10   15.66   10.74   1
 -10 -13  10   -6.86    5.22   1
  -9 -13  10   -7.80    6.73   1
  -8 -13  10   84.69   17.98   1
  -7 -13  10   49.31   13.08   1
  -6 -13  10   76.69   16.05   1
  -5 -13  10  107.87   18.81   1
  -4 -13  10  145.13   21.42   1
  -3 -13  10  183.74   22.39   1
  -2 -13  10    0.42    5.63   1
  -1 -13  10   29.27   10.09   1
   0 -13  10   75.38   14.43   1
  -1  13 -10   -3.05    6.92   3
   1 -13  10    1.90    6.12   1
   2 -13  10   59.21   13.54   1
  -2  13 -10   53.88   12.71   3
   3 -13  10   -3.89    6.06   1
  -3  13 -10   -1.96    6.30   3
   4 -13  10   39.20   11.41   1
  -4  13 -10   76.46   15.57   3
  -5  13 -10    5.76    8.09   3
   5 -13  10   31.56   11.34   1
  -6  13 -10   -6.75    3.38   3
 -12 -12  10   19.08   11.12   1
 -11 -12  10   19.22   12.79   1
 -10 -12  10   34.86   13.62   1
  -9 -12  10  120.09   21.05   1
  -8 -12  10   31.93   11.91   1
  -7 -12  10   10.81    7.67   1
  -6 -12  10   12.55    8.19   1
  -5 -12  10   -8.66    4.65   1
  -4 -12  10   33.76   10.40   1
  -3 -12  10    0.49    4.72   1
  -2 -12  10   17.38    8.98   1
  -1 -12  10   19.92    8.44   1
   0  12 -10   49.44   11.35   3
   0 -12  10   61.66   12.59   1
   1 -12  10  134.26   17.69   1
  -1  12 -10  108.86   16.42   3
  -2  12 -10   61.66   13.44   3
   2 -12  10   64.05   13.08   1
   3 -12  10    6.66    6.74   1
  -3  12 -10   18.64    9.50   3
  -4  12 -10   96.54   16.36   3
   4 -12  10  125.13   17.56   1
   5 -12  10   15.64    8.21   1
  -5  12 -10    2.64    6.97   3
  -6  12 -10    1.77    6.53   3
  -7  12 -10   -2.46    3.23   3
  -8  12 -10   -8.62    4.65   3
 -13 -11  10   13.28   11.99   1
 -12 -11  10    8.27    9.49   1
 -11 -11  10   12.69    9.41   1
 -10 -11  10   83.63   18.71   1
  -9 -11  10   -0.52    6.38   1
  -8 -11  10    3.95    7.12   1
  -7 -11  10  154.93   22.49   1
  -6 -11  10    7.72    7.01   1
  -5 -11  10  216.43   24.04   1
  -4 -11  10    0.18    5.51   1
  -3 -11  10  508.35   31.95   1
  -2 -11  10   39.44   10.22   1
  -1 -11  10   -0.55    4.26   1
   1  11 -10   10.97    6.68   3
   0  11 -10   34.77    9.50   3
   0 -11  10   22.37    7.97   1
  -1  11 -10   -1.16    5.79   3
   1 -11  10   10.49    6.09   1
   2 -11  10    0.91    4.28   1
  -2  11 -10    0.17    5.61   3
   3 -11  10    8.37    6.00   1
  -3  11 -10    7.04    7.60   3
   4 -11  10   51.79   11.48   1
  -4  11 -10   29.62   10.15   3
  -5  11 -10   20.10    8.58   3
   5 -11  10   18.41    8.24   1
  -6  11 -10  123.30   19.27   3
  -7  11 -10   38.24   12.18   3
  -8  11 -10    0.13    4.37   3
  -9  11 -10   -4.75    6.91   3
 -13 -10  10   66.10   17.38   1
 -12 -10  10   37.19   13.91   1
 -11 -10  10   43.11   13.68   1
 -10 -10  10   61.60   16.10   1
  -9 -10  10   95.64   18.92   1
  -8 -10  10   10.53    8.10   1
  -7 -10  10   12.03    6.63   1
  -6 -10  10   19.73    8.68   1
  -5 -10  10    7.65    6.11   1
  -4 -10  10  286.64   22.98   1
   3  10 -10  128.90   18.62   2
  -3 -10  10  140.15   18.16   1
   2  10 -10   33.12   12.07   2
  -2 -10  10   31.84    9.05   1
   1  10 -10  152.18   15.67   3
  -1 -10  10  169.26   17.66   1
   1  10 -10  151.49   18.34   2
   0  10 -10    2.88    6.00   3
   0  10 -10    5.93   10.12   2
   0 -10  10   15.97    6.08   1
  -1  10 -10   22.13    7.84   3
   1 -10  10   23.96    8.06   1
   2 -10  10  159.58   16.85   1
  -2  10 -10  188.45   18.76   3
   3 -10  10    2.87    5.13   1
  -3  10 -10    0.41    5.87   3
   4 -10  10    9.07    6.15   1
  -4  10 -10    5.47    6.82   3
   5 -10  10   -4.66    4.93   1
  -5  10 -10    1.87    6.69   3
   6 -10  10   12.35    7.01   1
  -6  10 -10    3.83    7.52   3
  -7  10 -10   33.21   11.01   3
  -8  10 -10   19.27    8.95   3
  -9  10 -10    5.02    8.19   3
 -10  10 -10   17.46   10.78   3
 -14  -9  10   -0.27    9.54   1
 -14  -9  10    5.87    8.79   4
 -13  -9  10   36.61   11.88   4
 -13  -9  10   34.90   13.32   1
 -12  -9  10   19.59   10.72   1
 -11  -9  10    3.04    7.03   1
 -10  -9  10   37.31   12.64   1
  -9  -9  10   38.06   11.94   1
  -8  -9  10    3.77    6.55   1
  -7  -9  10  282.52   27.09   1
  -6  -9  10   77.63   14.37   1
  -5  -9  10    7.51    6.27   1
  -4  -9  10  144.91   18.49   1
   4   9 -10  161.96   19.94   2
   3   9 -10   23.35   12.38   2
  -3  -9  10   31.02    8.71   1
   2   9 -10   45.27   13.04   2
  -2  -9  10   53.91   11.09   1
   1   9 -10    9.08   10.10   2
  -1  -9  10   23.28    7.16   1
   1   9 -10   29.37    7.91   3
   0   9 -10    3.70    9.39   2
   0   9 -10   14.16    6.57   3
   0  -9  10   10.65    5.08   1
  -1   9 -10    5.93    9.21   2
   1  -9  10   -3.74    3.52   1
  -1   9 -10   -2.34    5.25   3
  -2   9 -10   16.09    7.06   3
   2  -9  10   10.64    5.59   1
  -3   9 -10  261.49   20.52   3
   3  -9  10  284.35   19.51   1
   4  -9  10   44.95    9.55   1
  -4   9 -10   36.12   10.44   3
  -5   9 -10   34.23   10.90   3
   5  -9  10   27.54    8.32   1
   6  -9  10   47.43   10.90   1
  -6   9 -10   54.35   13.20   3
  -7   9 -10   83.55   16.05   3
  -8   9 -10  156.42   22.36   3
  -9   9 -10  113.81   19.96   3
 -10   9 -10   42.30   13.18   3
 -11   9 -10   35.42   14.22   3
 -14  -8  10    6.44    7.96   4
 -14  -8  10    9.15   10.45   1
 -13  -8  10   36.68   12.22   4
 -13  -8  10   55.06   15.31   1
 -12  -8  10   -0.79    6.17   4
 -12  -8  10    0.89    7.80   1
 -11  -8  10   23.44   10.10   4
 -11  -8  10   43.78   13.43   1
 -10  -8  10  117.96   19.62   1
 -10  -8  10  106.99   17.79   4
  -9  -8  10    0.54    6.63   1
  -9  -8  10    6.11    6.47   4
  -8  -8  10    4.41    5.73   1
  -7  -8  10   27.67    9.92   1
  -6  -8  10    4.00    4.93   1
   6   8 -10    3.34    9.29   2
  -5  -8  10    2.51    4.74   1
   5   8 -10    6.90   10.36   2
  -4  -8  10   14.96    6.91   1
   4   8 -10    1.38    9.43   2
  -3  -8  10  452.98   27.30   1
   3   8 -10  453.84   27.58   2
  -2  -8  10   16.67    6.71   1
   2   8 -10   19.97    6.33   3
   2   8 -10   17.37    9.53   2
   1   8 -10  278.43   21.38   2
   1   8 -10  308.97   17.81   3
  -1  -8  10  289.10   20.00   1
   0   8 -10  692.53   30.56   3
   0  -8  10  691.98   32.23   1
   0   8 -10  716.48   33.48   2
   1  -8  10  107.69   12.85   1
  -1   8 -10  119.03   13.48   3
  -1   8 -10  117.30   14.62   2
   2  -8  10  296.19   19.09   1
  -2   8 -10  297.11   19.76   2
  -2   8 -10  273.60   19.82   3
   3  -8  10    2.41    4.51   1
  -3   8 -10    5.23    6.19   3
  -4   8 -10  220.74   19.00   3
   4  -8  10  222.88   16.68   1
   5  -8  10   65.53   11.27   1
  -5   8 -10   57.56   12.44   3
  -6   8 -10   83.21   14.72   3
   6  -8  10   76.14   11.89   1
  -7   8 -10    3.15    6.98   3
  -8   8 -10   50.45   13.66   3
  -9   8 -10   -1.13    6.76   3
 -10   8 -10   23.66   11.01   3
 -11   8 -10    6.34    8.51   3
 -12   8 -10   57.62   16.37   3
 -14  -7  10   -2.08    6.12   4
 -14  -7  10   -5.25    5.82   1
 -13  -7  10    8.60    8.49   1
 -13  -7  10    1.91    5.49   4
 -12  -7  10   40.49   12.78   1
 -12  -7  10   49.40   12.47   4
 -11  -7  10   61.95   15.13   1
 -11  -7  10   51.21   12.94   4
 -10  -7  10    5.89    8.05   1
 -10  -7  10   15.22    8.41   4
  -9  -7  10   34.64   10.66   4
  -9  -7  10   76.11   15.47   1
  -8  -7  10   61.58   12.95   4
  -8  -7  10   86.59   15.95   1
  -7  -7  10   56.07   11.99   4
  -7  -7  10   73.28   14.23   1
  -6  -7  10  321.45   24.39   1
   6   7 -10  322.94   25.10   2
   5   7 -10   84.64   15.72   2
  -5  -7  10   91.70   15.19   1
  -4  -7  10  221.48   18.74   1
   4   7 -10  177.28   18.63   2
   3   7 -10   -1.01    8.17   2
  -3  -7  10    9.53    5.99   1
   2   7 -10   40.79   11.82   2
  -2  -7  10   52.00   10.35   1
   1   7 -10   92.44    9.90   3
  -1  -7  10   87.85   12.39   1
   1   7 -10  106.61   13.99   2
   0  -7  10    7.52    4.76   1
   0   7 -10   10.34    5.22   3
   0   7 -10   11.52    8.53   2
  -1   7 -10  263.93   17.89   3
  -1   7 -10  339.14   20.83   2
   1  -7  10  292.26   17.97   1
   2  -7  10   56.28    9.27   1
  -2   7 -10   56.87   10.70   3
  -2   7 -10   63.25   11.66   2
  -3   7 -10  466.52   26.69   3
   3  -7  10  509.44   24.28   1
  -3   7 -10  475.44   24.45   2
  -4   7 -10  185.84   18.61   3
   4  -7  10  159.96   13.45   1
   5  -7  10   10.76    5.25   1
  -5   7 -10    9.80    7.60   3
  -6   7 -10   31.69   10.33   3
  -7   7 -10   41.84   11.39   3
  -8   7 -10  197.39   23.57   3
  -9   7 -10    2.71    7.49   3
 -10   7 -10   51.02   14.36   3
 -11   7 -10   35.65   12.42   3
 -12   7 -10   23.17   12.33   3
 -14  -6  10   44.18   12.22   4
 -14  -6  10   27.00   12.21   1
 -13  -6  10  121.65   19.06   4
 -13  -6  10   95.39   19.72   1
 -12  -6  10    6.12    8.34   1
 -12  -6  10   14.12    8.84   4
 -11  -6  10   -1.02    7.15   1
 -11  -6  10   -3.06    4.77   4
 -10  -6  10  129.60   20.51   1
 -10  -6  10  146.95   19.76   4
  -9  -6  10   16.64    8.29   1
  -9  -6  10    9.38    7.03   4
  -8  -6  10    3.49    4.86   4
  -8  -6  10    2.04    5.79   1
   7   6 -10  -13.18    7.24   2
  -7  -6  10   -0.36    4.64   1
  -7  -6  10    0.93    4.12   4
  -6  -6  10   31.22    8.27   4
  -6  -6  10   25.01    7.89   1
   6   6 -10   21.69   10.31   2
   5   6 -10   40.53   11.48   2
  -5  -6  10   19.19    7.58   1
  -5  -6  10   30.04    8.36   4
  -4  -6  10   20.73    7.95   1
   4   6 -10    9.03    9.63   2
   3   6 -10  213.27   17.59   2
  -3  -6  10  225.40   17.69   1
   2   6 -10  243.74   13.07   3
   2   6 -10  251.89   18.98   2
  -2  -6  10  238.63   17.24   1
   1   6 -10   21.47    4.83   3
   1   6 -10   47.89   10.80   2
  -1  -6  10   45.57    8.76   1
   0  -6  10  605.36   27.60   1
   0   6 -10  602.47   26.10   3
   0   6 -10  637.68   29.31   2
   1  -6  10   11.22    4.59   1
  -1   6 -10    4.95    4.37   3
  -1   6 -10   14.02    8.32   2
   2  -6  10   28.35    6.24   1
  -2   6 -10   34.15    8.28   3
  -2   6 -10   44.52    9.88   2
  -3   6 -10   96.22   13.38   3
  -3   6 -10  112.34   12.85   2
  -4   6 -10   37.27    9.97   2
  -4   6 -10   54.04   11.13   3
   5  -6  10   38.18    7.80   1
  -5   6 -10   47.88   10.84   3
  -6   6 -10   53.63   12.06   3
   6  -6  10   63.86    9.75   1
  -7   6 -10  106.55   16.82   3
  -8   6 -10   -1.48    6.36   3
  -9   6 -10   11.23    8.17   3
 -10   6 -10   20.91   10.20   3
 -11   6 -10    8.68    9.06   3
 -12   6 -10   27.64   11.55   3
 -13   6 -10   99.69   20.76   3
  14   5 -10   -4.02    7.40   1
  13   5 -10    5.73    9.86   1
  12   5 -10    5.25    9.25   1
  11   5 -10  303.49   26.22   1
  10   5 -10    7.46    8.55   1
   9   5 -10   32.44   11.39   1
   8   5 -10    2.78    9.74   2
  -7  -5  10   26.18    7.49   4
   7   5 -10   25.06   10.98   2
  -7  -5  10    9.96    6.76   1
   6   5 -10 1012.72   44.31   2
  -6  -5  10 1044.99   46.93   1
  -6  -5  10 1030.50   44.40   4
  -5  -5  10   80.81   12.99   1
  -5  -5  10   69.87   11.52   4
   5   5 -10   75.44   13.45   2
  -4  -5  10  363.57   21.77   4
  -4  -5  10  361.22   22.82   1
   4   5 -10  340.52   21.98   2
   3   5 -10   -0.92    6.88   2
  -3  -5  10   -3.64    3.29   1
  -3  -5  10    2.04    3.75   4
   2   5 -10   -6.56    6.71   2
   2   5 -10    4.62    2.89   3
  -2  -5  10    1.50    4.12   1
  -1  -5  10   45.31    8.27   1
   1   5 -10   45.04    6.48   3
   1   5 -10   55.94   10.57   2
   0   5 -10    7.26    3.84   3
   0   5 -10   16.60    8.12   2
   0  -5  10    2.69    3.77   1
   1  -5  10    5.02    3.13   1
  -1   5 -10    5.64    6.89   2
  -1   5 -10    8.26    5.10   3
  -2   5 -10  338.27   18.98   2
  -2   5 -10  289.55   18.69   3
   3  -5  10  122.07    9.66   1
  -3   5 -10  122.79   12.73   2
  -3   5 -10  105.73   13.39   3
  -4   5 -10  202.21   16.95   3
   4  -5  10  186.17   12.36   1
  -4   5 -10  158.73   14.36   2
  -5   5 -10    3.37    7.54   2
   5  -5  10    3.56    4.65   1
  -5   5 -10    0.96    4.89   3
   6  -5  10  153.62   12.60   1
  -6   5 -10  167.13   19.03   3
  -7   5 -10   49.06   11.61   3
  -8   5 -10    8.40    8.18   3
  -9   5 -10   51.96   13.56   3
 -10   5 -10   90.17   17.46   3
 -11   5 -10   88.08   17.89   3
 -12   5 -10    0.64    7.69   3
 -13   5 -10    8.69    8.98   3
 -14   5 -10    6.04    9.68   3
  15   4 -10   -4.35    5.94   1
  14   4 -10    0.99    7.37   1
  13   4 -10   38.55   13.89   1
  12   4 -10   50.17   13.99   1
  11   4 -10   13.19    9.76   1
  10   4 -10   36.32   11.73   1
   9   4 -10    4.35    9.35   1
   8   4 -10    8.04    8.19   1
   8   4 -10   23.53   10.65   2
   7   4 -10   11.09    8.91   2
   7   4 -10   17.30    9.32   1
   6   4 -10   24.50    9.77   2
   6   4 -10   38.85   10.65   1
   5   4 -10   37.09   10.67   2
   5   4 -10   40.69    9.59   1
  -4  -4  10   55.95    9.70   4
   4   4 -10   64.74   11.37   2
  -4  -4  10   50.47   10.09   1
   3   4 -10   18.44    8.40   2
  -3  -4  10   12.67    5.28   4
  -3  -4  10    6.71    5.16   1
   2   4 -10 1320.24   48.72   2
   2   4 -10 1378.33   40.00   3
  -2  -4  10 1342.80   48.17   1
  -2  -4  10 1366.23   46.43   4
   1   4 -10    5.87    7.53   2
  -1  -4  10   19.06    5.82   1
   1   4 -10   13.41    3.88   3
   0  -4  10  100.97    9.86   1
   0   4 -10  103.62   12.22   2
  -1   4 -10   11.51    7.30   2
  -1   4 -10   10.74    4.97   3
   1  -4  10    8.55    3.56   1
  -2   4 -10   68.98   10.23   2
  -2   4 -10   52.40    9.21   3
   2  -4  10   65.40    7.01   1
  -3   4 -10  771.76   34.16   3
  -3   4 -10  832.04   32.48   2
   3  -4  10  808.57   28.19   1
   4  -4  10   10.52    3.95   1
  -4   4 -10   13.72    7.41   2
  -4   4 -10    1.20    4.10   3
   5  -4  10    1.50    4.15   1
  -5   4 -10   -0.21    5.04   3
  -5   4 -10    3.63    7.16   2
  -6   4 -10   71.81   10.97   2
  -6   4 -10   67.19   12.77   3
   6  -4  10   66.30    8.67   1
  -7   4 -10   13.66    7.44   3
  -8   4 -10   49.72   11.95   3
  -9   4 -10   36.57   11.30   3
 -10   4 -10  114.47   19.27   3
 -11   4 -10  253.27   27.75   3
 -12   4 -10    0.48    7.13   3
 -13   4 -10  122.07   22.47   3
 -14   4 -10    8.56    9.58   3
  15   3 -10    1.95    5.86   1
  14   3 -10   -1.26    8.85   1
  13   3 -10  129.04   21.74   1
  12   3 -10   -7.20    6.94   1
  11   3 -10  223.04   25.19   1
  10   3 -10  -10.76    6.15   1
   9   3 -10  112.54   17.30   1
   8   3 -10  304.53   23.54   1
   8   3 -10  254.55   21.02   2
   7   3 -10   -8.12    6.61   2
   7   3 -10   16.15    8.43   1
   6   3 -10   85.81   13.33   1
   6   3 -10   74.46   13.43   2
   5   3 -10    3.55    6.42   1
   5   3 -10   -5.56    5.77   2
   4   3 -10   45.88    9.26   1
   4   3 -10   50.95   10.51   2
   3   3 -10  332.74   18.61   1
   3   3 -10  340.20   19.95   2
   2   3 -10  306.59   18.83   2
  -2  -3  10  317.56   17.82   4
   2   3 -10  334.32   12.13   3
  -2  -3  10  289.27   18.10   1
  -1  -3  10  326.77   17.68   1
  -1  -3  10  347.87   17.22   4
   1   3 -10  340.90   19.49   2
   1   3 -10  355.28   14.90   3
   0   3 -10  136.41   12.78   2
   0   3 -10  112.87    8.98   3
  -1   3 -10  148.84   13.37   2
  -1   3 -10  172.40   12.18   3
   1  -3  10  165.44   10.27   1
   2  -3  10   18.96    4.07   1
  -2   3 -10   21.40    6.38   3
  -2   3 -10   17.74    7.19   2
  -3   3 -10   56.63    9.70   3
   3  -3  10   46.31    5.13   1
  -3   3 -10   57.29    9.91   2
   4  -3  10  142.20    8.71   1
  -4   3 -10  166.73   13.55   2
  -4   3 -10  152.81   15.23   3
   5  -3  10  100.52    8.44   1
  -5   3 -10   99.13   11.71   2
  -5   3 -10  105.77   14.11   3
  -6   3 -10   17.61    7.46   3
   6  -3  10    9.42    5.12   1
  -6   3 -10   12.55    6.76   2
  -7   3 -10 1119.31   49.82   3
  -7   3 -10 1157.08   43.55   2
  -8   3 -10    3.58    6.18   3
  -9   3 -10   -4.93    5.16   3
 -10   3 -10  155.43   21.74   3
 -11   3 -10   21.13   10.37   3
 -12   3 -10   -2.74    6.94   3
 -13   3 -10   19.56    9.72   3
 -14   3 -10   10.80    8.77   3
 -15   3 -10   80.25   19.21   3
  15   2 -10    0.08    6.94   1
  14   2 -10   -6.25    7.53   1
  13   2 -10   47.61   14.04   1
  12   2 -10   29.12   12.69   1
  11   2 -10   60.80   15.01   1
  10   2 -10   13.34    9.10   1
   9   2 -10   -0.65    8.50   1
   8   2 -10   29.75    9.61   2
   8   2 -10   51.02   12.35   1
   7   2 -10    0.90    7.68   1
   7   2 -10   -1.97    7.59   2
   6   2 -10   44.76   10.22   2
   6   2 -10   38.83   10.55   1
   5   2 -10    1.71    6.23   2
   5   2 -10   13.95    6.66   1
   4   2 -10  372.00   21.16   2
   4   2 -10  409.49   21.52   1
   3   2 -10  315.78   18.87   2
   3   2 -10  326.76   18.43   1
   2   2 -10  836.85   34.16   2
   2   2 -10  885.53   32.21   1
   2   2 -10  847.61   25.08   3
   1   2 -10  413.81   18.48   1
   1   2 -10  422.59   21.56   2
   1   2 -10  429.06   16.43   3
   0   2 -10    4.25    3.15   3
   0   2 -10    3.96    5.75   2
   0  -2  10    2.27    3.39   1
   0  -2  10   17.07    4.20   4
   1  -2  10   82.10    6.94   1
  -1   2 -10   81.50    8.82   3
  -1   2 -10   92.86   10.78   2
   2  -2  10  728.93   23.70   1
  -2   2 -10  745.32   30.25   3
  -2   2 -10  718.83   30.59   2
  -3   2 -10   76.18   10.34   2
   3  -2  10   69.29    5.02   1
  -3   2 -10   76.80   10.65   3
  -4   2 -10   82.22   10.69   2
  -4   2 -10   66.39   11.00   3
   4  -2  10   62.10    5.17   1
  -5   2 -10   18.18    6.70   3
   5  -2  10   24.99    4.69   1
  -5   2 -10   18.60    6.21   2
  -6   2 -10  131.48   16.05   3
  -6   2 -10  136.11   12.18   2
   6  -2  10  124.60    9.46   1
  -7   2 -10    4.02    4.91   2
  -7   2 -10    4.50    6.17   3
  -8   2 -10   40.08    8.63   2
  -8   2 -10   30.76    9.63   3
  -9   2 -10   15.32    7.70   3
 -10   2 -10   68.46   14.49   3
 -11   2 -10  351.43   28.40   3
 -12   2 -10   28.45   11.15   3
 -13   2 -10  121.84   20.97   3
 -14   2 -10   41.40   13.39   3
 -15   2 -10   49.51   15.50   3
  14   1 -10    2.68    5.81   1
  13   1 -10   20.18   11.57   1
  12   1 -10   57.99   14.88   1
  11   1 -10   81.47   16.38   1
  10   1 -10   84.91   16.35   1
   9   1 -10   24.38   10.40   1
   8   1 -10   69.28   14.27   1
   8   1 -10   55.41   11.72   2
   7   1 -10   59.13   11.60   2
   7   1 -10   65.63   12.97   1
   6   1 -10   29.88    9.16   2
   6   1 -10   19.56    9.28   1
   5   1 -10   77.22   10.98   2
   5   1 -10   93.74   12.85   1
   4   1 -10   35.03    8.97   2
   4   1 -10   23.20    7.53   1
   3   1 -10    8.10    6.20   2
   3   1 -10    8.17    5.76   1
   2   1 -10   22.62    6.19   1
   2   1 -10   11.71    2.40   3
   2   1 -10   12.44    6.52   2
   1   1 -10  453.68   22.14   2
   1   1 -10  444.49   19.17   1
   0   1 -10   15.62    4.85   1
   0   1 -10    8.82    6.26   2
  -1   1 -10  563.88   25.94   2
   1  -1  10  576.81   19.50   4
   1  -1  10  569.67   20.35   1
   2  -1  10   93.87    5.57   1
  -2   1 -10  117.23   12.18   2
  -3   1 -10  123.31   12.20   2
  -4   1 -10  261.07   16.47   2
  -5   1 -10  863.23   35.99   2
   5  -1  10  945.04   27.10   1
  -6   1 -10   28.21    7.38   2
   6  -1  10   27.38    4.80   1
  -7   1 -10   64.49   10.35   2
  -8   1 -10  479.42   25.81   2
  -8   1 -10  451.45   29.08   3
  -9   1 -10   14.77    5.79   2
  -9   1 -10    7.12    6.62   3
 -10   1 -10  179.60   22.26   3
 -11   1 -10   23.33    9.57   3
 -12   1 -10    0.68    6.68   3
 -13   1 -10   36.00   12.73   3
 -14   1 -10  -10.64    6.05   3
 -15   1 -10   45.12   13.79   3
 -16   1 -10    7.11    9.66   3
  14   0 -10    5.46    5.63   1
  13   0 -10   23.09   12.53   1
  12   0 -10   11.67   10.18   1
  11   0 -10   -5.56    8.23   1
  10   0 -10   40.71   12.63   1
   9   0 -10    4.79    9.42   1
   8   0 -10   26.14   10.45   1
   8   0 -10   -2.90    6.96   2
   7   0 -10   60.35   12.59   1
   7   0 -10   49.83   10.69   2
   6   0 -10  235.67   16.75   2
   6   0 -10  205.88   19.08   1
   5   0 -10   17.01    7.59   2
   5   0 -10   30.39    9.63   1
   4   0 -10 1327.31   47.37   2
   4   0 -10 1390.84   49.42   1
   3   0 -10  313.50   17.74   2
   3   0 -10  266.36   16.91   1
   2   0 -10  282.61   16.94   2
   2   0 -10  252.64   15.53   1
   1   0 -10  746.98   27.34   1
   1   0 -10  743.17   30.11   2
   0   0 -10   87.92   10.69   2
   0   0 -10   70.94    7.30   1
  -1   0 -10  143.22   12.60   2
  -1   0 -10  142.28    8.18   1
  -2   0 -10  193.84   14.16   2
  -3   0 -10   58.78    9.37   2
  -4   0 -10    3.65    4.58   2
  -5   0 -10    6.75    5.02   2
   6   0  10   10.42    3.14   1
  -6   0 -10   12.56    5.67   2
  -7   0 -10   13.61    6.33   2
  -8   0 -10  154.07   15.91   2
  -9   0 -10  449.02   26.61   2
 -10   0 -10  143.94   19.76   3
 -10   0 -10  120.36   15.59   2
 -11   0 -10   99.70   17.32   3
 -12   0 -10   99.67   18.39   3
 -13   0 -10   16.94    8.25   3
 -14   0 -10  158.44   23.85   3
 -15   0 -10    0.01    8.07   3
 -16   0 -10   -1.79    7.91   3
  14  -1 -10    2.75    5.98   1
  13  -1 -10    2.83    9.90   1
  12  -1 -10   61.28   16.10   1
  11  -1 -10   11.63   10.46   1
  10  -1 -10  109.77   18.11   1
   9  -1 -10  103.63   17.83   1
   8  -1 -10  276.31   18.77   2
   8  -1 -10  239.28   23.00   1
   7  -1 -10    4.43    2.29   2
   7  -1 -10   -1.42    7.56   1
   6  -1 -10   15.98    8.15   1
   6  -1 -10   16.44    6.95   2
   5  -1 -10   86.03   12.99   1
   5  -1 -10  111.32   11.96   2
   4  -1 -10   55.12    9.01   2
   4  -1 -10   61.73   11.03   1
   3  -1 -10   85.93   11.33   1
   3  -1 -10   85.93   10.25   2
   2  -1 -10  136.61   12.25   2
   2  -1 -10  139.60   12.10   1
   1  -1 -10  294.63   17.63   2
   1  -1 -10  265.76   15.01   1
   0  -1 -10  455.89   18.80   1
   0  -1 -10  473.76   23.23   2
  -1  -1 -10  138.91   12.09   2
  -1  -1 -10  138.19    8.74   1
  -2  -1 -10  530.02   25.06   2
  -2  -1 -10  523.49   17.14   1
  -3  -1 -10   94.46   11.26   2
  -4  -1 -10    0.85    4.03   2
  -5  -1 -10  823.99   35.91   2
  -6  -1 -10   60.78   10.82   2
  -6  -1 -10   39.19    3.75   1
  -7  -1 -10    7.44    4.91   2
  -8  -1 -10  333.77   22.89   2
  -9  -1 -10   17.54    7.59   2
 -10  -1 -10    3.31    4.84   2
 -11  -1 -10    1.06    5.49   2
 -13  -1 -10   69.16   16.16   3
 -14  -1 -10    5.22    6.93   3
 -15  -1 -10   54.09   14.86   3
 -16  -1 -10   44.02   13.27   3
  14  -2 -10   -9.21    4.98   1
  13  -2 -10   -4.14    6.81   1
  12  -2 -10    5.62    8.79   1
  11  -2 -10   15.63   10.08   1
  10  -2 -10  -15.14    7.21   1
   9  -2 -10    0.27    7.62   1
   8  -2 -10   38.29   12.01   1
   7  -2 -10   10.48    7.57   2
   7  -2 -10   28.26   10.73   1
   6  -2 -10  224.86   15.76   2
   6  -2 -10  213.28   20.29   1
   5  -2 -10    3.64    2.53   2
   5  -2 -10   16.10    8.64   1
   4  -2 -10  239.44   15.53   2
   4  -2 -10  204.59   16.54   1
   3  -2 -10  722.87   30.80   1
   3  -2 -10  679.75   28.33   2
   2  -2 -10   36.93    8.22   2
   2  -2 -10   40.60    8.69   1
   1  -2 -10  790.65   31.99   2
   1  -2 -10  774.33   30.01   1
   0  -2 -10   64.33    7.95   1
   0  -2 -10   74.97   10.18   2
  -1  -2 -10    2.11    4.83   2
  -1  -2 -10    6.35    4.20   1
  -2  -2 -10   20.19    4.18   1
  -2  -2 -10   15.43    6.17   2
  -3  -2 -10  206.36    8.88   1
  -3  -2 -10  197.07   15.02   2
  -4  -2 -10   14.37    5.88   2
  -4  -2 -10   15.86    2.57   1
  -5  -2 -10   -2.63    3.81   2
  -5  -2 -10    5.80    1.93   1
  -6  -2 -10   -3.93    3.72   2
  -6  -2 -10    0.17    2.00   1
  -7  -2 -10   30.08    8.86   2
  -8  -2 -10  109.61   15.51   2
  -9  -2 -10  584.37   33.74   2
 -10  -2 -10   64.87   13.10   2
 -11  -2 -10   25.06    9.24   2
 -12  -2 -10   23.83    9.29   2
 -14  -2 -10   -4.13    5.35   3
 -15  -2 -10   16.75    9.64   3
 -16  -2 -10   -3.65    8.03   3
  13  -3 -10    7.91    5.16   1
  12  -3 -10   77.91   18.54   1
  11  -3 -10   29.21   12.34   1
  10  -3 -10   81.73   17.64   1
   9  -3 -10  212.81   24.06   1
   8  -3 -10   -8.25    8.01   1
   7  -3 -10   52.80   13.40   1
   6  -3 -10   30.58   10.90   1
   6  -3 -10   24.18    7.59   2
   5  -3 -10   85.68   10.38   2
   5  -3 -10   71.46   13.24   1
   4  -3 -10   42.24   10.29   1
   4  -3 -10   38.87    7.67   2
   3  -3 -10  430.44   23.52   1
   2  -3 -10   78.93   10.41   2
   2  -3 -10   68.53   10.69   1
   1  -3 -10  123.88   12.38   2
   1  -3 -10  134.23   12.25   1
   0  -3 -10   63.88    8.25   1
   0  -3 -10   72.25    9.80   2
  -1  -3 -10    4.02    5.17   2
  -1  -3 -10    3.54    4.48   1
  -2  -3 -10   35.09    8.03   2
  -2  -3 -10   55.90    6.12   1
  -3  -3 -10   56.17   10.18   2
  -3  -3 -10   52.45    5.33   1
  -4  -3 -10  480.42   16.85   1
  -4  -3 -10  452.49   25.42   2
  -5  -3 -10    7.92    2.59   1
  -5  -3 -10   11.22    5.88   2
  -6  -3 -10  153.54   17.04   2
  -6  -3 -10  147.74    8.48   1
  -7  -3 -10    7.84    5.54   2
  -7  -3 -10    4.04    2.85   1
  -8  -3 -10   70.39   13.49   2
  -9  -3 -10  146.22   18.68   2
 -10  -3 -10    3.57    5.58   2
 -11  -3 -10   91.93   16.53   2
 -12  -3 -10   64.73   14.71   2
 -13  -3 -10   86.83   16.46   2
 -16  -3 -10  150.33   24.29   3
 -17  -3 -10   29.02   13.10   3
  13  -4 -10   -2.00    6.71   1
  12  -4 -10   -3.17    9.10   1
  11  -4 -10   -0.43    8.97   1
  10  -4 -10    2.12    9.54   1
   9  -4 -10    6.02    9.17   1
   8  -4 -10  260.49   25.98   1
   7  -4 -10   64.33   14.07   1
   6  -4 -10   -4.66    7.57   1
   5  -4 -10  510.13   29.80   1
   5  -4 -10  510.97   22.94   2
   4  -4 -10   87.03   10.11   2
   4  -4 -10   88.07   13.81   1
   3  -4 -10  928.63   34.18   2
   3  -4 -10  899.08   38.78   1
   2  -4 -10  686.81   31.17   1
   1  -4 -10   84.44   10.54   2
   1  -4 -10   59.58    9.72   1
   0  -4 -10   38.51    8.28   2
   0  -4 -10   56.44    8.70   1
  -1  -4 -10    4.69    4.43   1
  -1  -4 -10    3.75    4.30   2
  -2  -4 -10   17.88    6.61   2
  -2  -4 -10   26.10    5.48   1
  -3  -4 -10  112.90    8.34   1
  -3  -4 -10  112.22   13.44   2
  -4  -4 -10   34.84    8.64   2
  -4  -4 -10   38.33    5.26   1
  -5  -4 -10  155.84   17.26   2
  -5  -4 -10  157.65    9.14   1
  -6  -4 -10    6.98    6.19   2
  -6  -4 -10   10.72    3.58   1
  -7  -4 -10  599.55   34.10   2
  -7  -4 -10  603.93   23.31   1
  -8  -4 -10  287.18   23.34   2
  -9  -4 -10  558.39   34.84   2
 -10  -4 -10    2.03    5.71   2
 -11  -4 -10    4.43    5.57   2
 -12  -4 -10  353.83   29.71   2
 -13  -4 -10  120.40   21.05   2
 -14  -4 -10   17.10   10.50   2
 -17  -4 -10   21.01   10.94   3
  12  -5 -10    9.13    5.94   1
  11  -5 -10  157.42   24.56   1
  10  -5 -10   15.44   11.07   1
   9  -5 -10  304.15   30.17   1
   8  -5 -10   -1.30    8.43   1
   7  -5 -10  144.83   20.29   1
   6  -5 -10    2.08    8.23   1
   5  -5 -10  172.97   19.43   1
   4  -5 -10   86.45   14.47   1
   4  -5 -10  102.31   10.65   2
   3  -5 -10  100.68   11.68   2
   3  -5 -10  104.18   14.65   1
   2  -5 -10   69.63    9.79   2
   2  -5 -10   45.26   10.37   1
   1  -5 -10  172.80   14.15   1
   1  -5 -10  133.02   12.13   2
   0  -5 -10    2.46    5.26   1
   0  -5 -10    0.91    4.24   2
  -1  -5 -10  607.23   29.19   2
  -1  -5 -10  652.83   27.01   1
  -2  -5 -10  351.32   17.44   1
  -2  -5 -10  345.40   21.33   2
  -3  -5 -10   10.76    4.50   1
  -3  -5 -10   18.21    6.44   2
  -4  -5 -10  303.74   14.91   1
  -4  -5 -10  303.14   21.35   2
  -5  -5 -10   80.45   13.41   2
  -5  -5 -10   96.15    8.01   1
  -6  -5 -10  172.45   10.94   1
  -6  -5 -10  185.43   19.42   2
  -7  -5 -10   15.40    6.97   2
  -7  -5 -10   10.98    4.37   1
  -8  -5 -10   14.98    8.02   2
  -9  -5 -10    8.11    6.18   2
 -10  -5 -10    3.69    6.55   2
 -11  -5 -10   77.14   16.36   2
 -12  -5 -10    9.78    8.09   2
 -13  -5 -10   27.32   11.47   2
 -14  -5 -10   41.22   14.30   2
 -15  -5 -10   39.64   14.88   2
  12  -6 -10    0.11    6.35   1
  11  -6 -10    0.59    9.48   1
  10  -6 -10    2.71    9.47   1
   9  -6 -10   11.61   11.09   1
   8  -6 -10   49.58   14.86   1
   7  -6 -10  186.01   23.41   1
   6  -6 -10    1.78    8.49   1
   5  -6 -10  155.47   19.96   1
   4  -6 -10   31.25   11.41   1
   3  -6 -10   56.88   12.50   1
   3  -6 -10   54.50    9.66   2
   2  -6 -10  167.60   13.87   2
   2  -6 -10  129.00   15.75   1
   1  -6 -10   82.84   12.64   1
   0  -6 -10   61.70    9.83   2
   0  -6 -10   55.67    9.94   1
  -1  -6 -10   94.62   11.96   2
  -1  -6 -10   97.90   11.04   1
  -2  -6 -10   23.10    6.32   1
  -2  -6 -10   22.99    7.43   2
  -3  -6 -10  358.18   22.93   2
  -3  -6 -10  321.49   17.29   1
  -4  -6 -10   13.97    4.63   1
  -4  -6 -10    8.10    6.28   2
  -5  -6 -10   78.16    8.78   1
  -5  -6 -10   58.31   11.88   2
  -6  -6 -10   49.60    7.56   1
  -6  -6 -10   50.96   12.26   2
  -7  -6 -10  263.41   15.37   1
  -7  -6 -10  257.29   22.60   2
  -8  -6 -10  376.86   28.46   2
  -8  -6 -10  387.60   20.39   1
  -9  -6 -10   18.26    8.95   2
 -10  -6 -10   62.24   14.76   2
 -11  -6 -10   45.35   13.40   2
 -12  -6 -10   85.55   18.57   2
 -13  -6 -10   53.90   15.22   2
 -14  -6 -10  146.74   25.80   2
 -15  -6 -10   -2.50    9.62   2
 -16  -6 -10   25.82   12.08   2
  11  -7 -10   10.97    7.06   1
  10  -7 -10   -3.24   10.13   1
   9  -7 -10  104.19   21.19   1
   8  -7 -10   68.83   17.31   1
   7  -7 -10  103.93   19.25   1
   6  -7 -10   36.30   13.03   1
   5  -7 -10   -2.34    8.40   1
   4  -7 -10    2.10    7.07   1
   3  -7 -10  116.83   16.15   1
   2  -7 -10    5.25    6.60   2
   2  -7 -10   23.67    8.92   1
   1  -7 -10   94.67   11.55   2
   1  -7 -10   82.35   12.91   1
   0  -7 -10  199.80   15.35   2
   0  -7 -10  253.75   18.29   1
  -1  -7 -10   21.19    7.00   1
  -1  -7 -10   17.45    6.40   2
  -2  -7 -10   55.10    9.18   1
  -2  -7 -10   70.57   11.84   2
  -3  -7 -10   40.15   10.65   2
  -3  -7 -10   39.78    7.71   1
  -4  -7 -10   88.17   14.28   2
  -4  -7 -10   94.23   10.34   1
  -5  -7 -10   83.25   15.07   2
  -5  -7 -10   50.05    8.38   1
  -6  -7 -10  149.11   19.62   2
  -6  -7 -10  134.56   11.24   1
  -7  -7 -10   87.49   10.18   1
  -7  -7 -10  104.59   17.64   2
  -8  -7 -10   -4.42    3.31   1
  -8  -7 -10   -4.75    4.19   2
  -9  -7 -10    2.52    6.38   2
 -10  -7 -10  167.16   23.83   2
 -11  -7 -10   -2.07    6.70   2
 -12  -7 -10    0.20    7.55   2
 -13  -7 -10   75.96   19.16   2
 -14  -7 -10  133.80   26.91   2
 -15  -7 -10  156.94   30.33   2
 -16  -7 -10   -5.27   10.47   2
  10  -8 -10    4.25    5.86   1
   9  -8 -10   29.98   15.28   1
   8  -8 -10   12.41   11.61   1
   7  -8 -10  365.72   30.51   1
   6  -8 -10   -4.37    7.12   1
   5  -8 -10   20.02   10.74   1
   4  -8 -10  245.48   23.66   1
   3  -8 -10   33.47   11.25   1
   2  -8 -10   -1.69    6.87   1
   1  -8 -10   -2.35    6.43   1
   1  -8 -10    6.26    5.67   2
   0  -8 -10   -2.51    3.07   2
   0  -8 -10    0.07    5.53   1
  -1  -8 -10   24.25    7.22   2
  -1  -8 -10   25.31    8.38   1
  -2  -8 -10    1.94    4.83   2
  -2  -8 -10    2.39    5.54   1
  -3  -8 -10   16.93    6.50   1
  -3  -8 -10   10.67    6.37   2
  -4  -8 -10    3.85    5.06   1
  -4  -8 -10    3.23    5.78   2
  -5  -8 -10   19.34    8.57   2
  -5  -8 -10   13.78    5.79   1
  -6  -8 -10  519.22   33.22   2
  -6  -8 -10  471.09   24.11   1
  -7  -8 -10    1.11    5.69   2
  -7  -8 -10   -0.80    3.79   1
  -8  -8 -10   69.94   15.90   2
  -8  -8 -10   98.44   11.91   1
  -9  -8 -10   11.73    9.19   2
 -10  -8 -10   72.18   17.54   2
 -11  -8 -10   71.68   18.01   2
 -12  -8 -10   52.75   16.00   2
 -13  -8 -10    7.19   12.10   2
 -14  -8 -10   39.30   14.06   2
 -15  -8 -10    2.85   11.02   2
 -16  -8 -10    0.84   11.91   2
  10  -9 -10   -9.10    5.92   1
   9  -9 -10    6.87    5.83   1
   8  -9 -10   15.01   12.35   1
   7  -9 -10    6.24   11.43   1
   6  -9 -10   58.00   15.21   1
   5  -9 -10   54.33   14.22   1
   4  -9 -10   -0.33    6.59   1
   3  -9 -10    5.45    7.52   1
   2  -9 -10   39.35   11.76   1
   1  -9 -10    7.90    7.72   1
   0  -9 -10  179.37   18.30   1
   0  -9 -10  199.99   16.12   2
  -1  -9 -10   25.97    9.15   1
  -1  -9 -10   32.47    8.65   2
  -2  -9 -10   51.37   11.09   2
  -2  -9 -10   45.65   10.11   1
  -3  -9 -10    8.68    5.88   1
  -3  -9 -10    4.95    6.16   2
  -4  -9 -10   -1.33    4.59   1
  -4  -9 -10   -0.63    4.93   2
  -5  -9 -10  388.89   22.05   1
  -5  -9 -10  359.19   27.42   2
  -6  -9 -10    2.46    6.46   2
  -6  -9 -10    0.07    4.77   1
  -7  -9 -10  134.27   20.85   2
  -7  -9 -10  127.29   13.93   1
  -8  -9 -10    6.86    5.10   1
  -8  -9 -10    5.88    6.93   2
  -9  -9 -10   50.41   14.64   2
 -10  -9 -10  108.44   20.96   2
 -11  -9 -10   -1.78    7.46   2
 -12  -9 -10   30.74   15.47   2
 -13  -9 -10   -2.31    8.73   2
 -14  -9 -10   11.35   12.67   2
 -15  -9 -10  332.63   46.93   2
 -16  -9 -10  -21.93   13.21   2
   9 -10 -10   -5.99    6.01   1
   8 -10 -10   -2.26    5.54   1
   7 -10 -10   60.96   17.30   1
   6 -10 -10   78.90   17.82   1
   5 -10 -10    9.22    9.83   1
   4 -10 -10   63.31   15.47   1
   3 -10 -10   11.13    8.67   1
   2 -10 -10   35.48   11.29   1
   1 -10 -10  170.90   19.40   1
   0 -10 -10   -1.74    6.55   1
  -1 -10 -10  659.11   33.53   1
  -2 -10 -10   17.75    7.91   2
  -2 -10 -10   23.66    8.40   1
  -3 -10 -10  131.13   17.12   2
  -3 -10 -10  118.77   14.67   1
  -4 -10 -10  196.21   21.23   2
  -4 -10 -10  160.20   16.56   1
  -5 -10 -10    5.13    5.50   1
  -5 -10 -10   20.20    8.75   2
  -6 -10 -10  153.64   16.23   1
  -6 -10 -10  158.29   21.67   2
  -7 -10 -10  108.07   19.48   2
  -7 -10 -10   99.22   13.70   1
  -8 -10 -10  220.37   27.59   2
  -8 -10 -10  190.01   18.11   1
  -9 -10 -10  113.08   21.41   2
 -10 -10 -10   78.61   19.01   2
 -11 -10 -10    2.08    8.05   2
 -12 -10 -10   14.71   11.81   2
 -13 -10 -10    1.23    8.26   2
 -14 -10 -10    7.75   11.91   2
 -15 -10 -10    5.04   14.78   2
   8 -11 -10   -2.16    7.04   1
   7 -11 -10   -1.21    5.64   1
   6 -11 -10   -3.80    9.04   1
   5 -11 -10  183.23   24.66   1
   4 -11 -10   88.20   17.79   1
   3 -11 -10   -1.33    8.00   1
   2 -11 -10  160.80   20.48   1
   1 -11 -10    2.65    7.86   1
   0 -11 -10   30.28    9.97   1
  -1 -11 -10    1.38    6.60   1
  -2 -11 -10  174.83   18.77   2
  -2 -11 -10  199.01   19.62   1
  -3 -11 -10   84.46   14.86   2
  -3 -11 -10   76.01   13.31   1
  -4 -11 -10    3.38    6.23   1
  -4 -11 -10    5.15    6.51   2
  -5 -11 -10   50.13   13.49   2
  -5 -11 -10   59.15   11.49   1
  -6 -11 -10   12.58    8.21   2
  -6 -11 -10    4.43    5.76   1
  -7 -11 -10   94.58   18.82   2
  -7 -11 -10   84.02   13.50   1
  -8 -11 -10   -0.70    4.94   1
  -8 -11 -10    5.72    7.69   2
  -9 -11 -10    3.14    5.25   1
  -9 -11 -10    9.89    9.91   2
 -10 -11 -10   39.80   14.51   2
 -11 -11 -10   35.55   14.64   2
 -12 -11 -10   -3.04    8.23   2
 -13 -11 -10   91.93   23.91   2
 -14 -11 -10   -2.33   13.12   2
   6 -12 -10  114.43   22.50   1
   5 -12 -10   -3.71    8.18   1
   4 -12 -10    9.32    9.63   1
   3 -12 -10   57.36   14.88   1
   2 -12 -10   12.89    9.93   1
   1 -12 -10   15.41    9.69   1
   0 -12 -10    8.55    8.09   1
  -1 -12 -10   51.90   12.89   1
  -2 -12 -10    2.40    6.87   1
  -3 -12 -10   23.92    8.67   1
  -3 -12 -10   11.74    7.84   2
  -4 -12 -10   95.53   16.39   2
  -4 -12 -10   98.93   15.34   1
  -5 -12 -10   15.39    7.81   1
  -5 -12 -10   22.70    9.86   2
  -6 -12 -10   23.48    8.57   1
  -6 -12 -10    8.93    7.91   2
  -7 -12 -10  218.43   21.24   1
  -7 -12 -10  198.31   26.56   2
  -8 -12 -10   -3.67    5.83   2
  -8 -12 -10    6.68    6.98   1
  -9 -12 -10   89.93   14.49   1
  -9 -12 -10   78.26   19.09   2
 -10 -12 -10   75.99   19.61   2
 -11 -12 -10    8.74   10.78   2
 -12 -12 -10   -6.72    9.54   2
 -13 -12 -10   15.96   15.04   2
   5 -13 -10   48.90   16.11   1
   4 -13 -10   17.13   11.49   1
   3 -13 -10   11.18   10.90   1
   2 -13 -10   98.88   18.17   1
   1 -13 -10   41.72   12.42   1
   0 -13 -10   11.81    8.48   1
  -1 -13 -10   50.98   12.68   1
  -2 -13 -10   30.21   10.57   1
  -3 -13 -10   42.10   12.01   1
  -4 -13 -10   12.27    8.09   2
  -4 -13 -10    5.19    7.92   1
  -5 -13 -10    3.92    7.51   2
  -5 -13 -10    5.29    7.62   1
  -6 -13 -10    1.72    5.87   1
  -6 -13 -10    1.70    8.34   2
  -7 -13 -10   -6.17    5.79   2
  -7 -13 -10    1.17    6.45   1
  -8 -13 -10   -5.93    6.77   2
  -8 -13 -10   -4.85    6.27   1
  -9 -13 -10   84.40   19.19   2
  -9 -13 -10   43.94   11.66   1
 -10 -13 -10   16.24   12.57   2
 -11 -13 -10   36.01   14.13   2
 -12 -13 -10    3.57    7.73   2
 -13 -13 -10    2.42   11.23   2
   4 -14 -10   17.68   12.35   1
   3 -14 -10   -9.37    8.25   1
   2 -14 -10   13.39   10.25   1
   1 -14 -10  -16.40    7.93   1
   0 -14 -10   -5.07    6.81   1
  -1 -14 -10   -0.17    6.78   1
  -2 -14 -10   36.82   11.38   1
  -3 -14 -10   38.50   11.58   1
  -4 -14 -10   23.83    9.74   1
  -5 -14 -10   16.45    8.89   1
  -5 -14 -10   31.20   10.52   2
  -6 -14 -10    9.75    7.77   1
  -6 -14 -10   21.83   10.20   2
  -7 -14 -10  136.62   19.74   1
  -7 -14 -10  164.57   25.52   2
  -8 -14 -10  108.58   21.94   2
  -8 -14 -10   92.43   16.67   1
  -9 -14 -10   35.14   14.63   2
  -9 -14 -10   48.82   12.94   1
 -10 -14 -10   10.96   10.89   2
 -11 -14 -10    6.44    7.78   2
 -12 -14 -10    5.27    9.72   2
   2 -15 -10   20.75   12.93   1
   1 -15 -10   40.74   14.32   1
   0 -15 -10    4.27    9.02   1
  -1 -15 -10   53.72   14.09   1
  -2 -15 -10   26.08   11.06   1
  -3 -15 -10   22.98   10.58   1
  -4 -15 -10    6.12    8.29   1
  -5 -15 -10  -10.68    7.17   1
  -6 -15 -10    0.80    7.33   1
  -6 -15 -10    4.86    7.87   2
  -7 -15 -10   18.10    8.96   1
  -7 -15 -10   10.60   10.72   2
  -8 -15 -10    9.14    8.17   1
  -8 -15 -10    8.60    9.27   2
  -9 -15 -10   -5.74    8.18   2
 -10 -15 -10    5.34    9.89   2
 -11 -15 -10    1.69    8.78   2
  -1 -16 -10   -0.48    9.71   1
  -2 -16 -10  -11.17    7.50   1
  -3 -16 -10   50.38   14.18   1
  -4 -16 -10   -6.47    7.57   1
  -5 -16 -10   51.40   14.01   1
  -6 -16 -10   39.93   12.67   1
  -7 -16 -10    2.39    7.59   1
  -8 -16 -10    3.20    9.39   2
  -8 -16 -10   12.05    9.50   1
  -9 -16 -10   25.97   13.43   2
  -5 -17 -10   -2.74    9.83   1
  -6 -17 -10   20.10   11.20   1
  -7 -17 -10   -4.53    8.99   1
  -6 -16  11   -3.72    4.90   1
  -5 -16  11   -0.75    5.65   1
  -4 -16  11   -1.99    5.69   1
  -3 -16  11   15.70    9.74   1
  -2 -16  11   -2.97    7.13   1
  -1 -16  11   -8.32    6.04   1
   0 -16  11   11.80   10.35   1
   1 -16  11   16.99   11.90   1
   2 -16  11    8.30   10.55   1
  -8 -15  11   -2.96    6.91   1
  -7 -15  11   10.87    6.84   1
  -6 -15  11    7.40    6.18   1
  -5 -15  11    2.36    7.24   1
  -4 -15  11  104.33   18.33   1
  -3 -15  11   22.61    9.88   1
  -2 -15  11   43.39   12.24   1
  -1 -15  11   21.79   10.22   1
   0 -15  11   46.12   12.38   1
   1 -15  11    9.85    7.37   1
   2 -15  11  -10.36    6.42   1
   3 -15  11   37.60   12.32   1
  -3  15 -11   27.88   11.69   3
 -10 -14  11   -3.15    6.49   1
  -9 -14  11   -0.18    6.00   1
  -8 -14  11   -1.45    5.70   1
  -7 -14  11   23.46   10.24   1
  -6 -14  11    4.77    7.56   1
  -5 -14  11    2.62    5.67   1
  -4 -14  11    2.92    6.51   1
  -3 -14  11   12.95    7.91   1
  -2 -14  11   30.54   10.19   1
  -1 -14  11    6.11    7.62   1
   0 -14  11   34.38   10.33   1
  -1  14 -11    8.68    7.39   3
   1 -14  11   -0.08    6.44   1
   2 -14  11   76.25   15.99   1
  -2  14 -11   82.09   15.93   3
   3 -14  11   10.85    9.13   1
  -3  14 -11    2.98    8.60   3
  -4  14 -11    2.72    4.34   3
  -5  14 -11   -3.81    4.40   3
 -11 -13  11   -5.20    6.77   1
 -10 -13  11   -4.49    5.06   1
  -9 -13  11   -6.16    6.91   1
  -8 -13  11   -4.48    7.16   1
  -7 -13  11   32.49   11.59   1
  -6 -13  11  120.98   20.29   1
  -5 -13  11  114.18   19.81   1
  -4 -13  11   93.33   17.02   1
  -3 -13  11   -2.54    6.02   1
  -2 -13  11   32.06    9.97   1
  -1 -13  11   10.57    6.99   1
   0 -13  11    6.03    6.87   1
  -1  13 -11   27.99   10.84   3
   1 -13  11   10.87    7.81   1
   2 -13  11    7.35    7.02   1
  -2  13 -11    0.92    6.97   3
   3 -13  11   -5.81    6.03   1
  -3  13 -11    0.66    7.29   3
  -4  13 -11   -0.33    7.18   3
   4 -13  11    4.33    7.10   1
  -5  13 -11    4.68    6.30   3
  -6  13 -11   -2.65    4.66   3
 -12 -12  11    0.10   10.56   1
 -11 -12  11   22.69   11.40   1
 -10 -12  11    1.01    6.14   1
  -9 -12  11   18.44    8.19   1
  -8 -12  11    8.57    7.66   1
  -7 -12  11   22.22    9.80   1
  -6 -12  11   10.96    6.95   1
  -5 -12  11   -0.21    5.30   1
  -4 -12  11   20.91    8.39   1
  -3 -12  11    4.90    5.60   1
  -2 -12  11   51.61   11.33   1
  -1 -12  11   21.48    8.43   1
   0 -12  11    2.09    6.72   1
   0  12 -11    8.63    6.82   3
  -1  12 -11  161.58   18.99   3
   1 -12  11  161.42   19.43   1
  -2  12 -11   57.86   13.25   3
   2 -12  11   45.58   11.12   1
  -3  12 -11   27.76    9.23   3
   3 -12  11   41.87   11.52   1
  -4  12 -11    0.40    7.21   3
   4 -12  11   -1.94    6.12   1
  -5  12 -11  184.70   22.79   3
  -6  12 -11    1.92    7.65   3
  -7  12 -11   -2.97    4.31   3
  -8  12 -11    2.45    5.04   3
 -12 -11  11    6.10    8.95   1
 -11 -11  11   17.47   11.04   1
 -10 -11  11   14.26    9.33   1
  -9 -11  11   82.25   17.72   1
  -8 -11  11  128.81   21.14   1
  -7 -11  11   31.90   10.07   1
  -6 -11  11  383.94   30.09   1
  -5 -11  11    2.47    5.75   1
  -4 -11  11  224.40   23.80   1
  -3 -11  11    5.58    6.63   1
  -2 -11  11   81.20   14.06   1
  -1 -11  11   62.82   12.00   1
   1  11 -11   62.59   14.28   2
   1  11 -11   70.94   12.13   3
   0  11 -11   17.83    7.96   3
   0 -11  11   13.52    6.65   1
   1 -11  11    9.54    6.12   1
  -1  11 -11    5.36    6.12   3
   2 -11  11    1.57    5.76   1
  -2  11 -11    5.34    6.62   3
   3 -11  11   10.36    6.66   1
  -3  11 -11   16.43    7.81   3
  -4  11 -11   11.45    7.55   3
   4 -11  11   10.50    6.98   1
  -5  11 -11   58.26   13.44   3
  -6  11 -11    7.78    7.23   3
  -7  11 -11   76.46   15.67   3
  -8  11 -11   -1.21    4.62   3
  -9  11 -11   20.84   10.71   3
 -13 -10  11   41.40   14.58   1
 -12 -10  11   89.77   19.50   1
 -11 -10  11   20.80   10.01   1
 -10 -10  11    8.84    8.53   1
  -9 -10  11   -6.41    5.51   1
  -8 -10  11   13.49    8.66   1
  -7 -10  11   18.77    8.63   1
  -6 -10  11    0.00    5.59   1
  -5 -10  11   17.87    7.88   1
  -4 -10  11    6.14    5.44   1
   4  10 -11    2.35    9.84   2
  -3 -10  11   21.79    7.64   1
   3  10 -11    3.21   10.60   2
   2  10 -11   -6.61    7.89   2
  -2 -10  11    4.27    5.10   1
   1  10 -11    5.19    9.95   2
   1  10 -11   27.17    7.97   3
  -1 -10  11   21.17    7.86   1
   0  10 -11   43.61   12.39   2
   0  10 -11   72.09   12.24   3
   0 -10  11   59.61   11.60   1
   1 -10  11  273.57   20.37   1
  -1  10 -11  293.47   20.74   3
  -2  10 -11   13.59    7.65   3
   2 -10  11   11.49    6.01   1
   3 -10  11  187.38   18.20   1
  -3  10 -11  170.97   18.95   3
  -4  10 -11   -1.20    5.90   3
   4 -10  11   -4.49    4.49   1
   5 -10  11   82.16   13.08   1
  -5  10 -11   35.26   10.65   3
  -6  10 -11  112.94   18.04   3
  -7  10 -11    5.47    7.94   3
  -8  10 -11    0.05    7.48   3
  -9  10 -11    3.78    8.73   3
 -10  10 -11    3.29    8.33   3
 -13  -9  11   28.90   11.75   4
 -13  -9  11   35.70   12.78   1
 -12  -9  11   41.35   13.86   1
 -11  -9  11   10.19    9.12   1
 -10  -9  11   -1.35    5.85   1
  -9  -9  11  105.84   18.83   1
  -8  -9  11  117.88   19.63   1
  -7  -9  11  165.21   22.32   1
  -6  -9  11  189.64   22.16   1
   5   9 -11   44.65   13.56   2
  -5  -9  11   30.59   10.68   1
   4   9 -11   25.13   12.70   2
  -4  -9  11   36.85   10.30   1
   3   9 -11   12.12   11.15   2
  -3  -9  11    0.76    4.46   1
   2   9 -11    4.97    5.34   3
  -2  -9  11   16.66    6.96   1
   2   9 -11    9.50   10.65   2
  -1  -9  11   41.15    9.73   1
   1   9 -11   26.91   11.43   2
   1   9 -11   42.92    9.01   3
   0  -9  11   19.18    6.55   1
   0   9 -11   29.57   11.57   2
   0   9 -11   14.32    6.88   3
  -1   9 -11    0.39    5.83   3
   1  -9  11    2.36    4.25   1
  -1   9 -11    0.05    9.37   2
   2  -9  11   16.04    6.18   1
  -2   9 -11    5.51    5.81   3
   3  -9  11    3.83    4.14   1
  -3   9 -11    0.36    5.09   3
   4  -9  11   16.59    6.79   1
  -4   9 -11   14.99    8.01   3
  -5   9 -11   -1.02    5.26   3
   5  -9  11    7.99    5.53   1
  -6   9 -11   22.86    9.01   3
  -7   9 -11  189.85   23.08   3
  -8   9 -11    3.74    7.22   3
  -9   9 -11   82.39   17.74   3
 -10   9 -11   79.87   17.49   3
 -11   9 -11   21.17   12.75   3
 -14  -8  11   16.53    9.78   4
 -14  -8  11   16.21   13.13   1
 -13  -8  11    3.48    7.55   4
 -13  -8  11    7.85    9.72   1
 -12  -8  11   82.66   17.84   1
 -12  -8  11   74.03   15.97   4
 -11  -8  11  138.17   20.99   4
 -11  -8  11  115.80   20.89   1
 -10  -8  11   13.14    6.58   4
 -10  -8  11   21.20    9.49   1
  -9  -8  11   33.96   10.34   4
  -9  -8  11   47.87   12.94   1
  -8  -8  11    0.62    5.77   1
  -7  -8  11   48.70   12.35   1
  -6  -8  11   -2.03    4.17   1
   6   8 -11    0.31    9.33   2
  -5  -8  11    0.47    5.29   1
   5   8 -11   -0.04    9.07   2
   4   8 -11  120.90   17.58   2
  -4  -8  11  114.65   16.40   1
   3   8 -11   47.24   13.36   2
  -3  -8  11   21.39    7.66   1
   2   8 -11  527.28   30.40   2
  -2  -8  11  509.61   28.66   1
   1   8 -11   93.84   11.08   3
  -1  -8  11   72.51   11.83   1
   1   8 -11   79.62   14.70   2
   0  -8  11   32.21    8.03   1
   0   8 -11   41.56    8.68   3
   0   8 -11   26.64   11.30   2
   1  -8  11  322.77   20.22   1
  -1   8 -11  292.20   19.79   3
  -1   8 -11  337.70   22.66   2
   2  -8  11  157.57   15.08   1
  -2   8 -11  193.58   17.43   2
  -2   8 -11  193.20   17.61   3
  -3   8 -11  478.84   27.57   3
   3  -8  11  416.77   23.37   1
   4  -8  11  124.92   13.40   1
  -4   8 -11  129.76   16.55   3
   5  -8  11   11.01    5.53   1
  -5   8 -11   13.31    7.50   3
  -6   8 -11   10.00    7.64   3
  -7   8 -11    2.55    5.71   3
  -8   8 -11    1.47    6.45   3
  -9   8 -11   14.25    9.83   3
 -10   8 -11   17.78    9.51   3
 -11   8 -11   16.21   10.92   3
 -12   8 -11   43.76   14.20   3
 -14  -7  11   21.38    9.73   4
 -14  -7  11   23.52   11.83   1
 -13  -7  11    8.28    7.03   4
 -13  -7  11    6.65    9.67   1
 -12  -7  11    4.89    6.95   1
 -12  -7  11   13.06    7.30   4
 -11  -7  11   27.09   11.75   1
 -11  -7  11   20.90   10.51   4
 -10  -7  11   64.65   13.64   4
 -10  -7  11   40.47   12.50   1
  -9  -7  11   10.09    7.13   1
  -9  -7  11    2.82    5.62   4
  -8  -7  11    1.30    6.75   1
  -8  -7  11    7.24    6.20   4
   7   7 -11   37.55   13.03   2
  -7  -7  11   28.70    8.84   4
  -7  -7  11   32.87   10.27   1
   6   7 -11   50.95   14.09   2
  -6  -7  11   37.57    9.81   1
   5   7 -11  555.97   32.25   2
  -5  -7  11  510.20   31.28   1
  -4  -7  11  107.48   15.51   1
   4   7 -11  135.18   17.73   2
  -3  -7  11  114.96   15.02   1
   3   7 -11   80.35   14.99   2
  -2  -7  11  140.86   15.44   1
   2   7 -11   87.83   14.13   2
   2   7 -11  102.65    9.90   3
   1   7 -11  118.85   15.57   2
  -1  -7  11  123.00   13.89   1
   1   7 -11  123.55   11.55   3
   0   7 -11   22.25    6.67   3
   0  -7  11   22.09    6.29   1
   0   7 -11   31.47   10.59   2
  -1   7 -11  113.37   14.20   2
  -1   7 -11   91.37   11.80   3
   1  -7  11   95.32   11.42   1
  -2   7 -11   56.62   11.50   2
  -2   7 -11   47.31    9.92   3
   2  -7  11   41.74    8.05   1
  -3   7 -11  107.87   14.11   2
   3  -7  11  137.13   11.78   1
  -3   7 -11  122.12   15.31   3
  -4   7 -11    2.14    6.03   3
   4  -7  11    0.54    2.36   1
  -5   7 -11    4.49    6.59   3
   5  -7  11   -3.97    2.64   1
  -6   7 -11    0.92    6.04   3
  -7   7 -11  256.45   25.58   3
  -8   7 -11   30.60   10.61   3
  -9   7 -11    2.90    6.92   3
 -10   7 -11   48.79   13.49   3
 -11   7 -11   15.72    9.84   3
 -12   7 -11   -4.02    8.23   3
 -14  -6  11  146.72   24.41   1
 -14  -6  11  155.56   23.00   4
 -13  -6  11    0.11    6.56   4
 -13  -6  11    0.36    8.60   1
 -12  -6  11   39.11   12.99   1
 -12  -6  11   67.39   13.98   4
 -11  -6  11   99.12   17.10   4
 -11  -6  11   66.27   15.96   1
 -10  -6  11   20.03    8.40   4
 -10  -6  11   12.09    8.57   1
  -9  -6  11  126.88   19.26   1
  -9  -6  11  134.67   18.66   4
   8   6 -11   45.71   13.35   2
  -8  -6  11   44.02   10.27   4
  -8  -6  11   54.59   12.89   1
  -7  -6  11    8.73    6.54   1
   7   6 -11   36.86   12.09   2
  -7  -6  11   21.04    7.38   4
  -6  -6  11  275.26   22.55   1
  -6  -6  11  294.53   22.07   4
   6   6 -11  329.69   24.04   2
  -5  -6  11    8.88    5.28   4
   5   6 -11    6.01    9.97   2
  -5  -6  11    0.23    4.64   1
  -4  -6  11  228.62   18.85   1
   4   6 -11  286.42   21.36   2
  -3  -6  11    6.34    5.19   1
   3   6 -11  -14.67    5.96   2
   2   6 -11  232.23   19.17   2
   2   6 -11  263.93   13.71   3
  -2  -6  11  257.62   18.27   1
   1   6 -11   -2.23    1.50   3
  -1  -6  11    4.30    4.33   1
   1   6 -11   11.83    7.98   2
   0   6 -11    2.74    8.28   2
   0  -6  11    3.37    3.97   1
   0   6 -11    0.33    4.02   3
  -1   6 -11  414.31   23.67   2
  -1   6 -11  443.54   22.53   3
   1  -6  11  405.06   20.99   1
  -2   6 -11  984.53   39.06   2
  -2   6 -11  981.98   40.14   3
  -3   6 -11   39.76   10.31   2
  -3   6 -11   32.57    8.65   3
   4  -6  11   22.38    5.96   1
  -4   6 -11   21.04    8.18   3
  -4   6 -11   35.30   10.10   2
  -5   6 -11   78.21   13.62   3
   5  -6  11   88.55   10.27   1
  -6   6 -11  262.78   22.26   3
  -7   6 -11   22.08    8.66   3
  -8   6 -11   55.76   13.54   3
  -9   6 -11   13.25    8.97   3
 -10   6 -11  101.36   19.23   3
 -11   6 -11  119.58   20.79   3
 -12   6 -11   72.96   17.03   3
 -13   6 -11  -12.88    6.64   3
  14   5 -11    7.23    5.95   1
  13   5 -11   -6.32    8.33   1
  12   5 -11   23.34   11.30   1
  11   5 -11   28.07   12.81   1
  10   5 -11  368.04   28.07   1
   9   5 -11  122.60   18.50   1
   8   5 -11   29.78   12.11   2
  -7  -5  11  142.75   18.54   1
  -7  -5  11  154.50   17.97   4
   7   5 -11  141.48   17.76   2
   6   5 -11    0.66    9.17   2
  -6  -5  11    8.14    5.89   1
  -6  -5  11   15.06    6.48   4
   5   5 -11  784.42   37.18   2
  -5  -5  11  737.23   35.65   4
  -5  -5  11  803.47   38.33   1
  -4  -5  11   37.85    9.22   1
   4   5 -11   19.92    9.20   2
  -4  -5  11   27.15    7.88   4
   3   5 -11    7.10    8.14   2
  -3  -5  11    4.49    4.66   4
  -3  -5  11    3.56    4.74   1
   2   5 -11   10.88    8.43   2
  -2  -5  11    1.03    4.07   1
   2   5 -11    5.56    3.41   3
   1   5 -11   33.75    6.02   3
   1   5 -11   42.97   10.43   2
  -1  -5  11   37.00    8.02   1
   0  -5  11    2.47    3.60   1
   0   5 -11   -0.85    3.04   3
   0   5 -11    6.43    7.92   2
  -1   5 -11   26.34    9.32   2
  -1   5 -11   36.61    7.88   3
  -2   5 -11   88.91   11.89   2
  -2   5 -11   78.14   11.29   3
   2  -5  11   86.57    8.89   1
   3  -5  11  250.03   14.04   1
  -3   5 -11  247.85   18.08   3
  -3   5 -11  263.25   18.00   2
  -4   5 -11    8.02    5.81   3
   4  -5  11    2.35    3.80   1
  -4   5 -11   14.38    8.75   2
  -5   5 -11  238.32   19.83   3
  -5   5 -11  280.27   18.72   2
   5  -5  11  271.53   15.54   1
  -6   5 -11   20.03    8.22   3
  -7   5 -11    1.47    6.56   3
  -8   5 -11  233.16   24.49   3
  -9   5 -11   52.53   14.11   3
 -10   5 -11   27.46   10.66   3
 -11   5 -11   40.46   12.57   3
 -12   5 -11    4.01    7.71   3
 -13   5 -11    2.13    7.96   3
 -14   5 -11   -4.22    9.77   3
  14   4 -11   -0.55    5.74   1
  13   4 -11   72.48   16.49   1
  12   4 -11   24.16   11.32   1
  11   4 -11   78.32   16.42   1
  10   4 -11   79.82   16.06   1
   9   4 -11    6.27    8.30   1
   8   4 -11    1.57    8.96   2
   8   4 -11   -2.96    7.96   1
   7   4 -11   37.02   11.87   2
   7   4 -11   39.04   11.55   1
   6   4 -11   26.21   10.06   1
   6   4 -11   21.33   10.71   2
   5   4 -11  109.64   14.76   2
   5   4 -11   56.67   11.58   1
  -4  -4  11  232.49   18.19   1
   4   4 -11  255.75   18.63   2
  -4  -4  11  226.03   17.14   4
  -3  -4  11  148.12   14.11   4
  -3  -4  11  156.44   15.13   1
   3   4 -11  139.48   14.88   2
   2   4 -11   11.29    7.98   2
  -2  -4  11   21.68    5.62   4
  -2  -4  11    2.46    3.90   1
   2   4 -11    6.53    3.04   3
   1   4 -11  282.18   18.60   2
  -1  -4  11  303.34   17.73   1
   1   4 -11  294.30   14.26   3
   0   4 -11  261.56   18.95   2
  -1   4 -11   76.86   11.23   2
  -1   4 -11   82.40    9.96   3
   1  -4  11   79.48    8.46   1
   2  -4  11  668.55   24.81   1
  -2   4 -11  653.43   29.36   2
  -2   4 -11  667.61   29.72   3
  -3   4 -11  144.27   14.59   3
   3  -4  11  131.69    9.07   1
  -3   4 -11  147.53   13.75   2
  -4   4 -11  446.83   23.46   2
  -4   4 -11  425.97   25.08   3
   4  -4  11  441.75   18.53   1
   5  -4  11    3.97    3.93   1
  -5   4 -11    0.53    4.00   3
  -5   4 -11    0.85    7.68   2
  -6   4 -11   90.59   14.99   3
  -6   4 -11   58.97   11.23   2
  -7   4 -11    3.56    5.30   3
  -8   4 -11   20.60    8.92   3
  -9   4 -11   16.81    8.45   3
 -10   4 -11   75.38   16.25   3
 -11   4 -11   24.73   11.45   3
 -12   4 -11  173.44   25.31   3
 -13   4 -11  -10.28    7.12   3
 -14   4 -11   44.30   14.17   3
  14   3 -11   -4.07    4.74   1
  13   3 -11   10.48   10.22   1
  12   3 -11   39.62   13.87   1
  11   3 -11   75.34   16.28   1
  10   3 -11  230.25   24.88   1
   9   3 -11  584.52   32.97   2
   9   3 -11  618.13   35.29   1
   8   3 -11   -2.07    7.74   1
   8   3 -11    9.84    9.02   2
   7   3 -11   53.03   12.45   2
   7   3 -11   59.92   13.04   1
   6   3 -11  489.67   28.03   1
   6   3 -11  493.70   27.74   2
   5   3 -11   17.38    8.54   1
   5   3 -11   20.53    8.50   2
   4   3 -11    5.25    5.79   1
   4   3 -11    6.61    7.62   2
   3   3 -11   85.03   12.58   2
   3   3 -11   93.39   11.48   1
  -2  -3  11  271.64   17.87   1
   2   3 -11  313.68   19.27   2
   2   3 -11  305.51   11.83   3
  -2  -3  11  297.07   17.55   4
   1   3 -11   32.77    9.35   2
  -1  -3  11   27.89    6.39   1
   1   3 -11   28.22    4.99   3
  -1  -3  11   24.45    5.77   4
   0   3 -11  365.75   20.83   2
   0   3 -11  362.68   17.20   3
  -1   3 -11   58.83   10.38   2
   1  -3  11   51.98    6.44   1
  -1   3 -11   49.23    7.97   3
   2  -3  11   24.82    4.40   1
  -2   3 -11   30.79    8.56   2
  -2   3 -11   16.23    5.90   3
  -3   3 -11  258.65   17.72   3
   3  -3  11  284.49   12.46   1
  -3   3 -11  285.34   18.45   2
  -4   3 -11   58.25   10.32   2
   4  -3  11   52.93    5.59   1
  -4   3 -11   60.94   10.97   3
  -5   3 -11   67.21   11.50   3
  -5   3 -11   54.26   10.15   2
   5  -3  11   47.52    5.92   1
  -6   3 -11  779.72   38.09   3
  -6   3 -11  788.58   33.99   2
  -7   3 -11   95.98   15.26   3
  -7   3 -11  100.77   12.73   2
  -8   3 -11  148.35   19.76   3
  -9   3 -11   21.59    8.98   3
 -10   3 -11    0.94    6.28   3
 -11   3 -11   68.29   15.65   3
 -12   3 -11   26.39   11.68   3
 -13   3 -11    0.47    7.75   3
 -14   3 -11   11.02    9.74   3
 -15   3 -11   15.02   11.76   3
  14   2 -11   -6.93    4.70   1
  13   2 -11  228.14   27.56   1
  12   2 -11   40.85   13.80   1
  11   2 -11   68.44   15.90   1
  10   2 -11  188.12   22.47   1
   9   2 -11   15.25   10.04   1
   9   2 -11    9.16    8.21   2
   8   2 -11   17.49    9.70   1
   8   2 -11   15.12    9.19   2
   7   2 -11   21.26    9.58   1
   7   2 -11   24.56    9.97   2
   6   2 -11   53.90   11.64   2
   6   2 -11   56.20   11.69   1
   5   2 -11  324.13   21.20   2
   5   2 -11  333.23   21.48   1
   4   2 -11   48.50    9.54   1
   4   2 -11   30.81    9.08   2
   3   2 -11  721.12   31.98   2
   3   2 -11  723.88   30.12   1
   2   2 -11  767.03   32.53   2
   2   2 -11  784.26   23.75   3
   2   2 -11  781.97   30.47   1
   1   2 -11  298.33   15.72   1
   1   2 -11  307.90   18.49   2
   1   2 -11  314.40   13.69   3
   0   2 -11   26.54    5.27   3
   0  -2  11   -1.35    2.88   1
   0  -2  11   -0.10    2.86   4
   0   2 -11   10.77    6.69   2
   1  -2  11  304.33   14.30   1
  -1   2 -11  313.17   18.67   2
  -2   2 -11   23.22    6.45   3
  -2   2 -11   27.02    8.43   2
   2  -2  11   27.87    4.13   1
  -3   2 -11   88.42   11.41   3
  -3   2 -11   83.12   11.33   2
   3  -2  11   87.38    5.48   1
  -4   2 -11  152.27   15.48   3
   4  -2  11  145.54    7.58   1
  -4   2 -11  152.98   13.77   2
   5  -2  11   49.05    5.42   1
  -5   2 -11   47.57    9.53   2
  -5   2 -11   60.97   11.26   3
  -6   2 -11  262.44   17.64   2
  -6   2 -11  256.62   20.20   3
  -7   2 -11    0.06    4.40   3
  -7   2 -11    5.61    5.42   2
  -8   2 -11  250.93   21.74   3
  -8   2 -11  244.16   17.65   2
  -9   2 -11   31.03   10.17   3
 -10   2 -11  374.77   29.02   3
 -11   2 -11   10.85    7.60   3
 -12   2 -11  202.70   25.85   3
 -13   2 -11   32.23   13.15   3
 -14   2 -11   -2.24    6.47   3
 -15   2 -11   37.44   15.21   3
  14   1 -11   -0.71    5.71   1
  13   1 -11   -2.36    9.27   1
  12   1 -11   34.20   12.19   1
  11   1 -11  121.69   19.80   1
  10   1 -11   34.13   11.90   1
   9   1 -11   79.38   13.73   2
   9   1 -11   56.89   13.97   1
   8   1 -11    3.30    7.73   1
   8   1 -11   -0.08    7.92   2
   7   1 -11   14.74    9.34   1
   7   1 -11    1.04    7.80   2
   6   1 -11  682.37   33.96   1
   6   1 -11  683.98   31.93   2
   5   1 -11   49.81    9.98   2
   5   1 -11   55.68   11.63   1
   4   1 -11    2.96    5.73   1
   4   1 -11    2.60    6.94   2
   3   1 -11   14.27    6.85   2
   3   1 -11   14.65    6.39   1
   2   1 -11   90.69   10.08   1
   2   1 -11  115.12   12.40   2
   1   1 -11    2.14    6.69   2
   1   1 -11   10.68    5.28   1
   0   1 -11  105.71    8.59   1
   0   1 -11  114.03   12.06   2
   1  -1  11   27.61    4.61   4
   1  -1  11   30.25    4.99   1
  -1   1 -11   32.93    8.59   2
  -2   1 -11  133.84   13.43   2
   2  -1  11  134.26    7.10   1
  -3   1 -11    6.08    6.15   2
  -4   1 -11 2026.73   67.52   2
  -5   1 -11   24.21    7.30   2
  -6   1 -11  352.32   20.98   2
  -7   1 -11  194.16   15.58   2
  -8   1 -11   54.45   10.16   2
  -8   1 -11   63.94   13.40   3
  -9   1 -11  384.25   23.62   2
  -9   1 -11  338.53   26.43   3
 -10   1 -11   16.67    8.18   3
 -11   1 -11    8.93    7.30   3
 -12   1 -11    4.25    6.87   3
 -13   1 -11   -0.86    6.17   3
 -14   1 -11    6.12    8.00   3
 -15   1 -11   29.96   11.97   3
 -16   1 -11   24.79   12.02   3
  14   0 -11    7.11    6.03   1
  13   0 -11   27.01   12.39   1
  12   0 -11   43.21   13.72   1
  11   0 -11   -0.93    8.37   1
  10   0 -11   29.96   11.66   1
   9   0 -11   76.66   15.83   1
   9   0 -11  101.97   13.87   2
   8   0 -11  281.94   23.77   1
   8   0 -11  277.19   20.13   2
   7   0 -11   19.92    9.28   2
   7   0 -11   33.19   11.46   1
   6   0 -11   32.23    9.98   1
   6   0 -11   51.53   10.41   2
   5   0 -11  128.07   15.14   1
   5   0 -11  141.96   13.98   2
   4   0 -11   14.06    6.88   1
   4   0 -11   21.28    7.92   2
   3   0 -11   21.99    7.56   2
   3   0 -11   31.07    8.23   1
   2   0 -11 1165.81   43.62   2
   2   0 -11 1263.89   42.44   1
   1   0 -11    8.47    7.27   2
   1   0 -11    9.57    5.60   1
   0   0 -11  131.49   12.93   2
   0   0 -11  124.32    9.31   1
  -1   0 -11   12.51    6.24   2
  -1   0 -11    4.03    3.61   1
  -2   0 -11    3.58    5.40   2
  -3   0 -11   27.03    7.43   2
  -4   0 -11    0.37    4.15   2
  -5   0 -11   24.49    6.99   2
  -6   0 -11   31.44    8.03   2
  -7   0 -11   22.86    7.49   2
  -8   0 -11  498.03   27.78   2
  -9   0 -11   33.86    9.12   2
 -10   0 -11   38.57    9.89   2
 -11   0 -11  306.91   26.14   3
 -12   0 -11  131.56   21.30   3
 -13   0 -11   95.89   19.00   3
 -14   0 -11    5.17    7.01   3
 -15   0 -11    4.52    8.23   3
 -16   0 -11   -0.86    8.40   3
  14  -1 -11   -2.22    5.99   1
  13  -1 -11   -7.58    7.89   1
  12  -1 -11   -7.83    7.71   1
  11  -1 -11  183.10   24.31   1
  10  -1 -11  102.52   18.01   1
   9  -1 -11   26.64   10.86   1
   8  -1 -11  137.68   18.93   1
   7  -1 -11   14.41    9.58   1
   7  -1 -11   13.26    5.83   2
   6  -1 -11   80.03   14.10   1
   6  -1 -11   70.49   10.96   2
   5  -1 -11   50.86   11.59   1
   5  -1 -11  113.37   12.46   2
   4  -1 -11   17.63    7.61   1
   4  -1 -11   37.06    8.48   2
   3  -1 -11   34.77    8.33   1
   3  -1 -11   33.02    8.51   2
   2  -1 -11    9.66    6.84   2
   2  -1 -11    8.15    5.98   1
   1  -1 -11   84.35    9.50   1
   1  -1 -11   82.53   10.96   2
   0  -1 -11  519.87   25.35   2
   0  -1 -11  505.94   20.79   1
  -1  -1 -11  647.25   29.58   2
  -1  -1 -11  645.66   22.54   1
  -2  -1 -11   50.73    4.90   1
  -2  -1 -11   47.69    8.68   2
  -3  -1 -11  270.36   17.64   2
  -4  -1 -11  759.71   33.79   2
  -5  -1 -11  489.63   26.36   2
  -6  -1 -11    8.93    5.75   2
  -7  -1 -11  382.60   24.25   2
  -8  -1 -11   43.18   10.32   2
  -9  -1 -11   47.10   10.82   2
 -10  -1 -11   54.34   11.97   2
 -11  -1 -11    3.47    5.54   2
 -13  -1 -11    4.93    7.28   3
 -14  -1 -11    0.78    6.82   3
 -15  -1 -11   -7.15    6.09   3
 -16  -1 -11    9.70   10.24   3
  13  -2 -11    5.28    5.37   1
  12  -2 -11   38.15   13.28   1
  11  -2 -11    8.76    9.37   1
  10  -2 -11    0.86    9.21   1
   9  -2 -11  191.58   22.86   1
   8  -2 -11    4.15    9.01   1
   7  -2 -11  145.73   14.36   2
   7  -2 -11  134.84   18.02   1
   6  -2 -11    2.42    5.04   2
   6  -2 -11   12.31    8.48   1
   5  -2 -11  191.18   18.92   1
   5  -2 -11  155.34   12.44   2
   4  -2 -11  152.00   13.11   2
   4  -2 -11  186.07   17.37   1
   3  -2 -11  147.21   13.06   2
   3  -2 -11  130.53   13.89   1
   2  -2 -11  417.99   21.96   2
   2  -2 -11  439.72   22.09   1
   1  -2 -11  298.58   18.66   2
   1  -2 -11  281.57   16.49   1
   0  -2 -11  279.74   18.04   2
   0  -2 -11  290.58   15.36   1
  -1  -2 -11  122.87   12.43   2
  -1  -2 -11  119.77    9.07   1
  -2  -2 -11   44.57    5.45   1
  -2  -2 -11   50.89    9.58   2
  -3  -2 -11   22.39    3.79   1
  -3  -2 -11    9.61    4.96   2
  -4  -2 -11  627.82   30.44   2
  -5  -2 -11    4.35    4.79   2
  -6  -2 -11  266.90   19.81   2
  -7  -2 -11  103.18   14.85   2
  -8  -2 -11  136.40   17.21   2
  -9  -2 -11   88.61   15.20   2
 -10  -2 -11    3.61    5.60   2
 -11  -2 -11  180.86   21.28   2
 -12  -2 -11    6.43    7.67   2
 -14  -2 -11   18.82    8.68   3
 -15  -2 -11   28.51   11.22   3
 -16  -2 -11   69.60   16.99   3
  13  -3 -11    1.35    5.73   1
  12  -3 -11   35.41   14.01   1
  11  -3 -11   34.37   13.05   1
  10  -3 -11  164.27   23.60   1
   9  -3 -11   -0.85    8.89   1
   8  -3 -11  136.67   19.56   1
   7  -3 -11  216.19   22.65   1
   6  -3 -11   25.83    8.48   2
   6  -3 -11   22.12   11.00   1
   5  -3 -11  170.16   18.07   1
   5  -3 -11  163.23   13.89   2
   4  -3 -11   23.74    9.29   1
   3  -3 -11  144.79   15.36   1
   3  -3 -11  146.21   13.15   2
   2  -3 -11   35.62    9.09   1
   2  -3 -11   33.08    8.50   2
   1  -3 -11   31.27    8.39   2
   1  -3 -11   14.24    6.94   1
   0  -3 -11  249.96   14.87   1
   0  -3 -11  242.80   16.95   2
  -1  -3 -11  106.75    9.10   1
  -1  -3 -11  116.01   12.57   2
  -2  -3 -11  102.73    8.59   1
  -2  -3 -11  110.02   12.50   2
  -3  -3 -11  579.81   20.02   1
  -3  -3 -11  517.28   27.45   2
  -4  -3 -11  538.03   18.48   1
  -4  -3 -11  543.32   28.56   2
  -5  -3 -11  491.87   28.08   2
  -5  -3 -11  510.02   17.24   1
  -6  -3 -11   19.28    7.01   2
  -6  -3 -11   14.30    3.06   1
  -7  -3 -11  210.52   18.96   2
  -8  -3 -11   16.19    7.79   2
  -9  -3 -11   42.00   11.44   2
 -10  -3 -11   12.55    6.76   2
 -11  -3 -11  228.52   24.49   2
 -12  -3 -11   29.01   10.37   2
 -13  -3 -11   24.21   11.27   2
 -16  -3 -11    4.12    8.10   3
  13  -4 -11   -1.37    5.79   1
  12  -4 -11    0.59    5.87   1
  11  -4 -11   24.52   11.39   1
  10  -4 -11    0.81    9.35   1
   9  -4 -11  100.83   18.64   1
   8  -4 -11  199.61   23.73   1
   7  -4 -11  211.12   22.71   1
   6  -4 -11    6.22    8.25   1
   5  -4 -11    5.56    8.86   1
   5  -4 -11    5.49    6.89   2
   4  -4 -11  658.66   33.00   1
   4  -4 -11  607.59   26.78   2
   3  -4 -11   -3.57    7.03   1
   3  -4 -11   -1.27    3.05   2
   2  -4 -11   43.90    9.02   2
   2  -4 -11   36.88    9.58   1
   1  -4 -11  265.39   17.94   2
   1  -4 -11  284.71   17.92   1
   0  -4 -11  212.33   15.56   2
   0  -4 -11  192.98   13.97   1
  -1  -4 -11   26.44    6.89   1
  -1  -4 -11   36.37    8.65   2
  -2  -4 -11  223.20   16.81   2
  -2  -4 -11  240.68   13.32   1
  -3  -4 -11    2.47    3.51   1
  -3  -4 -11   -1.84    4.13   2
  -4  -4 -11   62.72    6.32   1
  -4  -4 -11   62.09   11.51   2
  -5  -4 -11   57.97   11.52   2
  -5  -4 -11   70.15    6.29   1
  -6  -4 -11  306.62   22.81   2
  -6  -4 -11  299.97   13.50   1
  -7  -4 -11  218.36   21.66   2
  -8  -4 -11  145.56   19.06   2
  -9  -4 -11  217.54   23.18   2
 -10  -4 -11    2.46    6.11   2
 -11  -4 -11   12.86    8.34   2
 -12  -4 -11   57.25   14.48   2
 -13  -4 -11  136.60   22.09   2
 -14  -4 -11   35.01   12.34   2
 -17  -4 -11   36.46   13.71   3
  12  -5 -11    6.37    6.15   1
  11  -5 -11    7.46   10.65   1
  10  -5 -11  163.11   24.85   1
   9  -5 -11   21.10   11.38   1
   8  -5 -11  211.51   24.65   1
   7  -5 -11   -2.63    8.63   1
   6  -5 -11   84.91   16.61   1
   5  -5 -11   21.81   10.37   1
   4  -5 -11   13.41    7.26   2
   4  -5 -11   22.07    9.86   1
   3  -5 -11   17.27    9.56   1
   3  -5 -11   13.07    8.13   2
   2  -5 -11   68.67   12.07   1
   1  -5 -11   38.63    9.56   1
   1  -5 -11   25.82    7.63   2
   0  -5 -11  702.47   31.06   1
   0  -5 -11  756.52   32.79   2
  -1  -5 -11  122.14   11.57   1
  -1  -5 -11  101.55   12.41   2
  -2  -5 -11  429.50   24.37   2
  -2  -5 -11  437.81   20.26   1
  -3  -5 -11   -0.43    3.45   1
  -3  -5 -11    1.44    4.52   2
  -4  -5 -11    4.75    5.12   2
  -4  -5 -11    9.18    3.90   1
  -5  -5 -11  360.36   24.92   2
  -5  -5 -11  361.59   16.45   1
  -6  -5 -11   47.35   11.18   2
  -6  -5 -11   54.16    6.62   1
  -7  -5 -11   28.26    9.13   2
  -8  -5 -11   64.71   13.91   2
  -9  -5 -11    7.89    7.25   2
 -10  -5 -11   56.93   14.17   2
 -11  -5 -11   47.41   12.85   2
 -12  -5 -11   15.73    8.26   2
 -13  -5 -11   40.07   12.94   2
 -14  -5 -11  -15.04    5.69   2
 -15  -5 -11   66.77   16.57   2
  11  -6 -11    1.09    5.59   1
  10  -6 -11   39.20   14.46   1
   9  -6 -11   18.77   11.72   1
   8  -6 -11   25.14   12.28   1
   7  -6 -11   10.06    9.40   1
   6  -6 -11   46.77   13.47   1
   5  -6 -11  191.93   21.61   1
   4  -6 -11   46.20   12.72   1
   3  -6 -11  141.42   13.55   2
   3  -6 -11  130.53   16.82   1
   2  -6 -11   49.20   11.03   1
   2  -6 -11   41.74   10.02   2
   1  -6 -11  103.65   13.72   1
   0  -6 -11   10.19    5.87   2
   0  -6 -11   22.84    7.40   1
  -1  -6 -11   36.80    8.43   1
  -1  -6 -11   40.90    8.98   2
  -2  -6 -11  115.96   11.39   1
  -2  -6 -11   99.16   13.26   2
  -3  -6 -11   63.91   11.79   2
  -3  -6 -11   72.73    8.98   1
  -4  -6 -11    1.96    3.99   1
  -4  -6 -11   -0.20    4.92   2
  -5  -6 -11    4.66    6.19   2
  -5  -6 -11   10.70    4.49   1
  -6  -6 -11    9.77    4.07   1
  -6  -6 -11    8.94    6.72   2
  -7  -6 -11  141.27   19.59   2
  -7  -6 -11  150.93   11.23   1
  -8  -6 -11    8.34    6.55   2
  -9  -6 -11  258.96   27.49   2
 -10  -6 -11  196.91   25.78   2
 -11  -6 -11    0.08    7.42   2
 -12  -6 -11  204.66   28.54   2
 -13  -6 -11   -0.68    7.54   2
 -14  -6 -11   82.89   19.85   2
 -15  -6 -11    2.93   10.11   2
 -16  -6 -11   -2.31   10.85   2
  11  -7 -11   -5.55    6.51   1
  10  -7 -11    2.08    8.67   1
   9  -7 -11   13.68   12.18   1
   8  -7 -11   80.23   18.52   1
   7  -7 -11   15.36   11.19   1
   6  -7 -11   54.40   14.35   1
   5  -7 -11    1.60    7.36   1
   4  -7 -11   -0.33    7.18   1
   3  -7 -11   25.36   10.19   1
   2  -7 -11   55.76   10.92   2
   2  -7 -11   72.24   13.71   1
   1  -7 -11   80.67   11.16   2
   1  -7 -11   92.29   14.12   1
   0  -7 -11    4.18    5.36   2
   0  -7 -11    8.36    7.06   1
  -1  -7 -11  239.52   17.88   2
  -1  -7 -11  245.57   17.47   1
  -2  -7 -11   -0.28    4.89   1
  -2  -7 -11   -0.90    4.47   2
  -3  -7 -11  285.85   17.33   1
  -3  -7 -11  279.25   21.15   2
  -4  -7 -11  558.33   25.39   1
  -4  -7 -11  580.31   32.99   2
  -5  -7 -11  202.23   20.84   2
  -5  -7 -11  165.67   12.49   1
  -6  -7 -11  296.42   24.70   2
  -6  -7 -11  321.30   17.85   1
  -7  -7 -11   11.34    8.07   2
  -7  -7 -11   10.22    4.87   1
  -8  -7 -11  102.09   18.09   2
  -9  -7 -11    8.56    7.95   2
 -10  -7 -11   33.16   12.09   2
 -11  -7 -11   41.88   13.85   2
 -12  -7 -11   20.60   10.36   2
 -13  -7 -11  250.37   33.42   2
 -14  -7 -11   47.38   15.79   2
 -15  -7 -11   68.65   18.54   2
 -16  -7 -11  182.12   33.18   2
  10  -8 -11   -2.75    5.58   1
   9  -8 -11    1.12   10.45   1
   8  -8 -11   32.21   13.40   1
   7  -8 -11    6.41   11.34   1
   6  -8 -11  161.78   23.23   1
   5  -8 -11  348.28   28.22   1
   4  -8 -11   -7.56    7.46   1
   3  -8 -11   80.38   14.57   1
   2  -8 -11   23.42   10.22   1
   1  -8 -11    2.65    6.81   1
   1  -8 -11   40.68    9.50   2
   0  -8 -11   89.79   13.37   1
  -1  -8 -11   10.54    6.78   1
  -1  -8 -11    4.23    5.50   2
  -2  -8 -11  137.27   15.88   2
  -2  -8 -11  108.10   13.03   1
  -3  -8 -11    3.51    5.14   1
  -3  -8 -11    1.65    5.65   2
  -4  -8 -11   52.29    9.42   1
  -4  -8 -11   33.05    9.56   2
  -5  -8 -11   50.83    8.77   1
  -5  -8 -11   48.01   12.31   2
  -6  -8 -11   64.33    9.77   1
  -6  -8 -11   25.66   10.28   2
  -7  -8 -11   68.39   15.61   2
  -7  -8 -11   80.20   10.62   1
  -8  -8 -11    2.98    6.74   2
  -9  -8 -11   87.49   18.15   2
 -10  -8 -11   43.66   14.03   2
 -11  -8 -11   80.70   18.41   2
 -12  -8 -11  222.23   31.79   2
 -13  -8 -11    9.06   10.67   2
 -14  -8 -11   52.55   17.69   2
 -15  -8 -11   75.12   22.20   2
 -16  -8 -11  -20.26   11.51   2
   9  -9 -11    0.02    6.73   1
   8  -9 -11   11.79   11.59   1
   7  -9 -11   35.46   14.40   1
   6  -9 -11   27.87   12.45   1
   5  -9 -11   15.31   10.44   1
   4  -9 -11   14.49    9.94   1
   3  -9 -11   75.91   15.29   1
   2  -9 -11   15.66    9.90   1
   1  -9 -11  210.00   20.09   1
   0  -9 -11    8.09    8.19   1
   0  -9 -11   -1.23    4.45   2
  -1  -9 -11  283.06   20.09   2
  -1  -9 -11  243.36   18.78   1
  -2  -9 -11  145.66   16.90   2
  -2  -9 -11  146.18   15.47   1
  -3  -9 -11  139.12   17.17   2
  -3  -9 -11  140.34   14.86   1
  -4  -9 -11   60.96   12.93   2
  -4  -9 -11  106.45   13.14   1
  -5  -9 -11   16.23    6.49   1
  -5  -9 -11   13.25    7.73   2
  -6  -9 -11  194.74   23.49   2
  -6  -9 -11  201.57   15.75   1
  -7  -9 -11   46.07    9.41   1
  -7  -9 -11   34.13   11.78   2
  -8  -9 -11   13.49    8.78   2
  -9  -9 -11   79.19   17.94   2
 -10  -9 -11    5.34    7.71   2
 -11  -9 -11    4.89    8.37   2
 -12  -9 -11    7.25    8.67   2
 -13  -9 -11   72.95   20.30   2
 -14  -9 -11  204.88   34.04   2
 -15  -9 -11   23.63   14.99   2
   8 -10 -11    7.18    6.03   1
   7 -10 -11   54.40   17.17   1
   6 -10 -11   82.40   17.96   1
   5 -10 -11  146.23   22.30   1
   4 -10 -11   28.61   11.76   1
   3 -10 -11   25.32   11.59   1
   2 -10 -11  170.64   20.99   1
   1 -10 -11  143.59   18.38   1
   0 -10 -11  424.46   27.65   1
  -1 -10 -11   25.40    9.33   1
  -1 -10 -11   20.00    7.56   2
  -2 -10 -11    4.96    5.55   2
  -2 -10 -11    0.14    6.07   1
  -3 -10 -11   83.54   14.31   2
  -3 -10 -11   62.40   11.76   1
  -4 -10 -11  153.12   16.34   1
  -4 -10 -11  116.74   17.71   2
  -5 -10 -11   24.97    7.47   1
  -5 -10 -11   24.88    9.16   2
  -6 -10 -11   -2.07    4.32   1
  -6 -10 -11   -4.72    5.09   2
  -7 -10 -11   -6.29    6.05   2
  -7 -10 -11   -1.35    4.66   1
  -8 -10 -11  248.02   29.25   2
  -8 -10 -11  252.57   19.00   1
  -9 -10 -11   12.73    8.51   2
 -10 -10 -11   45.14   14.88   2
 -11 -10 -11    0.04    7.72   2
 -12 -10 -11   18.90   11.11   2
 -13 -10 -11   83.13   20.91   2
 -14 -10 -11    0.28   10.83   2
 -15 -10 -11    9.90   17.07   2
   7 -11 -11   14.70   12.56   1
   6 -11 -11    9.05   11.12   1
   5 -11 -11   -5.27    8.52   1
   4 -11 -11   13.01    9.93   1
   3 -11 -11  141.95   21.10   1
   2 -11 -11    3.90    8.43   1
   1 -11 -11  169.15   20.51   1
   0 -11 -11    9.12    7.31   1
  -1 -11 -11  139.04   17.26   1
  -2 -11 -11   53.01   11.30   2
  -2 -11 -11   21.85    8.06   1
  -3 -11 -11   17.49    7.62   2
  -3 -11 -11    3.16    6.49   1
  -4 -11 -11    3.13    6.32   1
  -4 -11 -11    8.66    7.63   2
  -5 -11 -11   31.21   10.75   2
  -5 -11 -11   35.58    9.22   1
  -6 -11 -11   17.88    8.49   2
  -6 -11 -11   -2.16    4.42   1
  -7 -11 -11    8.15    6.38   1
  -7 -11 -11    2.30    7.73   2
  -8 -11 -11    4.29    8.04   2
  -8 -11 -11   -6.75    4.56   1
  -9 -11 -11    6.50    7.75   2
 -10 -11 -11   17.36   11.74   2
 -11 -11 -11   66.25   18.70   2
 -12 -11 -11  229.02   35.29   2
 -13 -11 -11   -8.09    9.40   2
 -14 -11 -11   64.06   19.65   2
   6 -12 -11    1.06   10.74   1
   5 -12 -11   19.36   11.19   1
   4 -12 -11   23.09   12.38   1
   3 -12 -11   10.27    9.88   1
   2 -12 -11   93.24   17.33   1
   1 -12 -11    8.25    8.59   1
   0 -12 -11   -3.38    6.18   1
  -1 -12 -11   -4.95    6.48   1
  -2 -12 -11   -2.82    5.52   1
  -3 -12 -11   14.32    8.18   1
  -3 -12 -11   38.30   10.68   2
  -4 -12 -11   -5.06    5.37   2
  -4 -12 -11    3.85    6.70   1
  -5 -12 -11   38.05   10.35   1
  -5 -12 -11   55.78   14.19   2
  -6 -12 -11  265.20   21.32   1
  -6 -12 -11  278.73   29.50   2
  -7 -12 -11    2.94    8.17   2
  -7 -12 -11    3.17    6.15   1
  -8 -12 -11  128.73   17.23   1
  -8 -12 -11  141.09   24.24   2
  -9 -12 -11   64.15   16.94   2
 -10 -12 -11    5.92   10.15   2
 -11 -12 -11    7.93   10.78   2
 -12 -12 -11   -2.43   10.69   2
 -13 -12 -11   -4.67   12.39   2
   5 -13 -11    4.63   11.21   1
   4 -13 -11   20.55   12.26   1
   3 -13 -11   47.93   13.63   1
   2 -13 -11    4.69    8.72   1
   1 -13 -11   21.48   10.24   1
   0 -13 -11   27.75   10.57   1
  -1 -13 -11   -2.79    6.45   1
  -2 -13 -11  108.34   17.65   1
  -3 -13 -11  144.66   19.13   1
  -4 -13 -11   23.97    9.57   2
  -4 -13 -11   12.87    8.55   1
  -5 -13 -11   -3.10    5.56   1
  -5 -13 -11    8.79    8.61   2
  -6 -13 -11    6.51    7.42   2
  -6 -13 -11    4.62    7.08   1
  -7 -13 -11    1.77    5.94   1
  -7 -13 -11    5.09    8.42   2
  -8 -13 -11    2.51    6.70   1
  -8 -13 -11    6.16    8.89   2
  -9 -13 -11   10.81    9.49   2
 -10 -13 -11  159.83   28.17   2
 -11 -13 -11  -14.09    7.82   2
 -12 -13 -11   18.23   11.92   2
   3 -14 -11   -7.06    8.04   1
   2 -14 -11    7.15    9.61   1
   1 -14 -11    0.20    8.89   1
   0 -14 -11    3.78    8.81   1
  -1 -14 -11   14.23    9.43   1
  -2 -14 -11   14.22    8.61   1
  -3 -14 -11   19.74   10.18   1
  -4 -14 -11   70.75   14.95   1
  -5 -14 -11   -5.78    6.71   1
  -5 -14 -11   10.26    9.24   2
  -6 -14 -11   67.53   16.20   2
  -6 -14 -11   65.89   14.40   1
  -7 -14 -11  110.77   18.09   1
  -7 -14 -11  128.89   23.43   2
  -8 -14 -11   30.81   13.31   2
  -8 -14 -11   22.97   10.19   1
  -9 -14 -11   52.92   16.94   2
 -10 -14 -11    4.91    8.20   2
 -11 -14 -11    0.12    8.77   2
   1 -15 -11    0.07   10.37   1
   0 -15 -11   70.63   16.60   1
  -1 -15 -11   25.76   10.75   1
  -2 -15 -11  111.78   18.66   1
  -3 -15 -11   30.37   11.73   1
  -4 -15 -11    5.40    8.26   1
  -5 -15 -11    4.21    7.73   1
  -6 -15 -11    6.09    7.57   1
  -6 -15 -11   14.43   10.43   2
  -7 -15 -11   -5.68    6.66   1
  -7 -15 -11    5.24    9.42   2
  -8 -15 -11    6.83    9.78   2
  -8 -15 -11    7.38    8.23   1
  -9 -15 -11   -3.31    8.21   2
 -10 -15 -11   16.17   13.97   2
  -1 -16 -11   -4.86    8.30   1
  -2 -16 -11   12.75    9.74   1
  -3 -16 -11    6.36    9.83   1
  -4 -16 -11   55.00   14.30   1
  -5 -16 -11   22.63   11.33   1
  -6 -16 -11   20.44   11.30   1
  -7 -16 -11   17.54   10.86   1
  -8 -16 -11   -3.14    7.93   1
  -8 -16 -11  -10.55    7.74   2
  -9 -16 -11   44.04   17.09   2
  -6 -17 -11   23.10   12.55   1
  -7 -17 -11    8.56   11.41   1
  -5 -16  12   11.84    6.43   1
  -4 -16  12    7.95    9.30   1
  -3 -16  12   -3.59    8.11   1
  -2 -16  12   -6.54    7.68   1
  -1 -16  12   16.48    9.60   1
   0 -16  12    0.41    8.15   1
   1 -16  12   -9.52    7.43   1
   2 -16  12   14.36   11.40   1
  -8 -15  12   -8.51    6.83   1
  -7 -15  12   -6.10    4.90   1
  -6 -15  12   10.02    5.15   1
  -5 -15  12   -4.82    5.22   1
  -4 -15  12   11.27    7.22   1
  -3 -15  12  176.65   24.75   1
  -2 -15  12    2.33    7.62   1
  -1 -15  12    9.66    8.14   1
   0 -15  12   34.32   12.15   1
   1 -15  12   12.57    7.70   1
   2 -15  12   48.86   13.69   1
  -2  15 -12   61.85   14.17   3
  -3  15 -12    4.00    9.15   3
  -9 -14  12    2.15    5.91   1
  -8 -14  12    5.62    5.87   1
  -7 -14  12    3.25    7.71   1
  -6 -14  12    7.94    6.48   1
  -5 -14  12   46.69   13.36   1
  -4 -14  12   26.31   11.33   1
  -3 -14  12    6.41    6.01   1
  -2 -14  12   15.65    8.43   1
  -1 -14  12   33.67   10.81   1
   0 -14  12    5.03    6.38   1
  -1  14 -12   41.64   12.76   3
   1 -14  12   41.12   11.67   1
  -2  14 -12    6.65    7.75   3
   2 -14  12   12.84    8.76   1
   3 -14  12    3.41    8.75   1
  -3  14 -12   18.45    8.68   3
  -4  14 -12    1.59    4.77   3
  -5  14 -12  -10.26    3.96   3
 -10 -13  12   -0.80    6.35   1
  -9 -13  12   -2.74    6.21   1
  -8 -13  12   18.70    9.98   1
  -7 -13  12   44.22   13.12   1
  -6 -13  12   21.57   10.40   1
  -5 -13  12   81.17   16.18   1
  -4 -13  12    4.97    6.44   1
  -3 -13  12   42.15   11.15   1
  -2 -13  12   39.31   11.24   1
  -1 -13  12   17.98    8.58   1
   0  13 -12  301.12   23.88   3
   0 -13  12  287.59   24.48   1
  -1  13 -12   69.20   14.03   3
   1 -13  12   64.48   13.54   1
  -2  13 -12   29.00   10.32   3
   2 -13  12   15.92    8.32   1
  -3  13 -12    4.97    7.73   3
   3 -13  12   13.21    7.57   1
  -4  13 -12   -3.88    6.57   3
  -5  13 -12    0.48    4.61   3
  -6  13 -12    2.11    5.66   3
 -11 -12  12    4.94    6.01   1
 -10 -12  12   -2.77    6.97   1
  -9 -12  12   32.19   11.92   1
  -8 -12  12   16.19    9.88   1
  -7 -12  12   50.24   13.40   1
  -6 -12  12   18.07    9.66   1
  -5 -12  12    5.01    6.98   1
  -4 -12  12   35.31   11.33   1
  -3 -12  12    2.79    4.89   1
  -2 -12  12   -2.17    5.18   1
  -1 -12  12   -3.46    5.53   1
   0  12 -12   22.49    8.81   3
   0 -12  12   22.41    7.72   1
   1 -12  12    5.95    5.76   1
  -1  12 -12   -0.72    6.24   3
   2 -12  12  143.13   18.46   1
  -2  12 -12  173.95   19.88   3
  -3  12 -12   22.84    9.30   3
   3 -12  12   16.59    8.13   1
  -4  12 -12  100.88   17.51   3
  -5  12 -12   14.37    8.80   3
  -6  12 -12   -2.92    6.47   3
  -7  12 -12   -6.10    4.16   3
 -12 -11  12    5.51    9.46   1
 -11 -11  12   -5.25    6.27   1
 -10 -11  12   23.63   10.36   1
  -9 -11  12   15.28    9.71   1
  -8 -11  12   22.17   10.43   1
  -7 -11  12  109.36   18.96   1
  -6 -11  12    3.39    6.94   1
  -5 -11  12   32.46   10.98   1
  -4 -11  12    0.47    6.27   1
   3  11 -12  142.96   20.73   2
  -3 -11  12  164.36   20.62   1
   2  11 -12   74.71   15.68   2
  -2 -11  12   76.72   14.10   1
   1  11 -12   10.26    6.71   3
  -1 -11  12    2.64    5.27   1
   1  11 -12    1.12    9.16   2
   0  11 -12  374.72   24.43   3
   0 -11  12  351.26   24.79   1
   0  11 -12  390.17   26.49   2
   1 -11  12   76.72   13.91   1
  -1  11 -12   82.76   13.95   3
   2 -11  12    3.99    5.11   1
  -2  11 -12   22.36    8.99   3
   3 -11  12    7.53    6.29   1
  -3  11 -12    7.14    7.82   3
  -4  11 -12    6.24    6.39   3
   4 -11  12    6.14    6.12   1
  -5  11 -12    3.10    6.53   3
  -6  11 -12  127.69   19.79   3
  -7  11 -12    4.13    7.32   3
  -8  11 -12   -2.83    4.50   3
 -13 -10  12  203.27   30.03   1
 -12 -10  12    9.19    9.35   1
 -11 -10  12   11.29    9.57   1
 -10 -10  12   24.38   11.28   1
  -9 -10  12   18.12    8.81   1
  -8 -10  12  169.97   23.51   1
  -7 -10  12   99.07   18.39   1
  -6 -10  12    9.20    7.16   1
  -5 -10  12   99.30   16.58   1
   5  10 -12  125.18   19.86   2
   4  10 -12  112.89   18.91   2
  -4 -10  12  119.91   17.88   1
  -3 -10  12   11.01    6.76   1
   3  10 -12   18.29   11.39   2
   2  10 -12    0.52    9.74   2
  -2 -10  12    2.46    5.27   1
   1  10 -12   43.22    9.54   3
   1  10 -12   35.79   12.00   2
  -1 -10  12   54.73   10.99   1
   0  10 -12   17.72   10.28   2
   0  10 -12   12.44    6.64   3
   0 -10  12   20.71    7.13   1
  -1  10 -12    4.64    6.11   3
  -1  10 -12   -2.30    8.80   2
   1 -10  12    6.85    5.17   1
   2 -10  12  495.81   28.13   1
  -2  10 -12  503.72   29.30   3
   3 -10  12   16.97    7.39   1
  -3  10 -12    5.63    6.95   3
   4 -10  12  167.58   17.52   1
  -4  10 -12  168.54   20.34   3
  -5  10 -12  124.34   18.59   3
  -6  10 -12   -8.79    4.88   3
  -7  10 -12   15.47    8.47   3
  -8  10 -12   -0.48    7.38   3
  -9  10 -12   -5.94    3.76   3
 -10  10 -12  -12.86    8.44   3
 -13  -9  12   -3.61    7.04   4
 -13  -9  12   -5.93    6.83   1
 -12  -9  12   -5.10    6.08   4
 -12  -9  12    2.27    7.30   1
 -11  -9  12    9.80    8.25   1
 -10  -9  12   -1.08    5.15   1
  -9  -9  12   -0.98    5.99   1
  -8  -9  12   11.60    8.08   1
  -7  -9  12  200.87   24.37   1
  -6  -9  12    5.19    6.31   1
   6   9 -12    7.49   10.82   2
   5   9 -12   58.80   15.41   2
  -5  -9  12   23.05    8.68   1
  -4  -9  12   17.26    8.03   1
   4   9 -12   13.29   10.92   2
  -3  -9  12  105.96   15.71   1
   3   9 -12  146.79   19.20   2
   2   9 -12  139.33   18.46   2
  -2  -9  12  183.66   18.87   1
   2   9 -12  190.72   14.79   3
   1   9 -12   66.36   15.08   2
  -1  -9  12   82.89   12.89   1
   1   9 -12  103.18   12.39   3
   0   9 -12   54.10   13.91   2
   0   9 -12   18.02    7.02   3
   0  -9  12   26.61    7.83   1
   1  -9  12    4.90    5.04   1
  -1   9 -12    5.92    6.11   3
  -1   9 -12   14.52   10.52   2
  -2   9 -12   23.04   10.67   2
  -2   9 -12    0.46    5.67   3
   2  -9  12   -0.80    3.82   1
   3  -9  12   10.75    5.78   1
  -3   9 -12   13.59    7.42   3
  -4   9 -12  226.22   22.18   3
   4  -9  12  237.65   17.66   1
  -5   9 -12    4.86    7.25   3
  -6   9 -12  279.07   26.45   3
  -7   9 -12  112.66   18.26   3
  -8   9 -12   19.97    9.94   3
 -10   9 -12   92.38   18.59   3
 -13  -8  12   34.32   12.20   4
 -13  -8  12   27.69   12.72   1
 -12  -8  12    1.45    7.25   4
 -12  -8  12  -11.38    6.81   1
 -11  -8  12   78.12   15.81   4
 -11  -8  12   65.55   15.84   1
 -10  -8  12  124.02   20.73   1
 -10  -8  12  148.91   21.19   4
  -9  -8  12    7.48    6.74   4
  -9  -8  12    3.13    6.33   1
  -8  -8  12  142.12   21.00   1
   7   8 -12   24.93   12.37   2
  -7  -8  12   -0.83    6.37   1
  -6  -8  12   -0.37    6.17   1
   6   8 -12   19.91   12.61   2
   5   8 -12   -1.39   10.35   2
  -5  -8  12    8.66    6.87   1
  -4  -8  12   14.02    7.65   1
   4   8 -12    7.47   10.20   2
   3   8 -12  171.07   20.02   2
  -3  -8  12  151.92   17.85   1
   2   8 -12   -6.92    9.06   2
   2   8 -12   -5.26    1.58   3
  -2  -8  12   -0.45    4.68   1
   1   8 -12  115.60   16.44   2
  -1  -8  12  133.32   15.31   1
   1   8 -12  133.78   12.59   3
   0  -8  12  324.09   20.43   1
   0   8 -12  276.65   18.34   3
   0   8 -12  277.90   21.92   2
  -1   8 -12    3.43    5.69   3
   1  -8  12   14.01    5.83   1
  -1   8 -12    1.46    9.09   2
  -2   8 -12  217.49   19.11   2
   2  -8  12  202.04   15.65   1
  -2   8 -12  195.48   18.24   3
   3  -8  12  241.76   16.85   1
  -3   8 -12  237.99   19.80   3
  -4   8 -12  108.43   16.19   3
   4  -8  12   99.23   11.98   1
  -5   8 -12   32.82   10.27   3
  -6   8 -12   41.35   11.28   3
  -7   8 -12   71.26   14.45   3
  -8   8 -12   45.11   13.06   3
  -9   8 -12    1.39    7.37   3
 -10   8 -12    0.31    7.20   3
 -11   8 -12    4.72    9.56   3
 -14  -7  12   30.04   13.53   1
 -14  -7  12   34.21   11.89   4
 -13  -7  12   23.27   10.19   4
 -13  -7  12    6.29    9.69   1
 -12  -7  12    5.06    7.93   1
 -12  -7  12   -2.22    5.94   4
 -11  -7  12   17.24    9.14   4
 -11  -7  12   23.82   10.48   1
 -10  -7  12    1.69    6.98   1
 -10  -7  12   10.16    8.07   4
  -9  -7  12   13.32    6.92   4
  -9  -7  12    2.59    6.70   1
  -8  -7  12    6.46    5.25   4
   8   7 -12    6.34    9.45   2
  -8  -7  12   12.82    7.06   1
   7   7 -12   17.97   10.52   2
  -7  -7  12   31.85    9.20   4
  -7  -7  12   23.98    9.41   1
   6   7 -12   19.64   11.07   2
  -6  -7  12   26.58    8.24   4
  -6  -7  12   40.03   10.79   1
   5   7 -12    5.13   10.15   2
  -5  -7  12   19.48    8.01   1
   4   7 -12  370.51   26.31   2
  -4  -7  12  417.06   26.87   1
  -3  -7  12  229.10   19.06   1
   3   7 -12  244.79   20.80   2
  -2  -7  12   39.66    9.30   1
   2   7 -12   54.13   13.40   2
   2   7 -12   50.96    7.69   3
  -1  -7  12   -1.13    3.55   1
   1   7 -12   -0.97    2.32   3
   1   7 -12   -5.51    8.80   2
   0   7 -12   16.64   10.56   2
   0   7 -12   16.81    6.33   3
   0  -7  12   13.51    5.82   1
   1  -7  12   18.47    5.93   1
  -1   7 -12    5.55    5.42   3
  -1   7 -12    7.74    9.90   2
  -2   7 -12   61.84   11.20   3
   2  -7  12   50.88    8.66   1
  -2   7 -12   51.47   12.60   2
  -3   7 -12   13.14    6.53   3
   3  -7  12    2.15    2.80   1
  -3   7 -12   -1.49    9.02   2
   4  -7  12   32.73    7.15   1
  -4   7 -12   31.89    9.10   3
  -5   7 -12  276.35   22.15   3
  -6   7 -12   80.11   15.10   3
  -7   7 -12  164.76   21.55   3
  -8   7 -12   -3.08    6.23   3
  -9   7 -12  306.18   30.09   3
 -10   7 -12    7.79    8.08   3
 -11   7 -12   65.21   16.64   3
 -12   7 -12   31.97   12.06   3
 -14  -6  12   37.08   11.52   4
 -14  -6  12   47.79   16.13   1
 -13  -6  12   17.29    9.02   4
 -13  -6  12    2.84    9.53   1
 -12  -6  12   11.58    9.40   1
 -12  -6  12   31.74   10.67   4
 -11  -6  12   53.85   14.84   1
 -11  -6  12   44.90   12.21   4
 -10  -6  12  219.88   23.87   4
 -10  -6  12  199.12   24.63   1
  -9  -6  12   -6.16    4.28   4
  -9  -6  12    6.87    6.77   1
  -8  -6  12   -4.24    3.96   4
   8   6 -12    2.99    8.24   2
  -8  -6  12    2.92    5.39   1
  -7  -6  12   25.71    8.87   4
   7   6 -12   24.64   12.36   2
  -7  -6  12   21.45    8.57   1
   6   6 -12  -15.88    7.67   2
  -6  -6  12    4.18    6.10   1
  -6  -6  12    2.68    5.25   4
  -5  -6  12  229.61   19.62   1
  -5  -6  12  237.16   19.12   4
   5   6 -12  253.81   21.65   2
  -4  -6  12   71.76   12.70   1
   4   6 -12   49.94   12.80   2
   3   6 -12   50.95   13.04   2
  -3  -6  12   29.50    8.67   1
   2   6 -12  227.92   12.83   3
  -2  -6  12  273.89   18.64   1
   2   6 -12  218.27   18.75   2
  -1  -6  12  464.45   24.61   1
   1   6 -12  430.49   20.02   3
   1   6 -12  451.46   26.41   2
   0  -6  12  372.15   21.21   1
   0   6 -12  402.96   20.61   3
   0   6 -12  411.40   24.97   2
  -1   6 -12  159.88   13.51   3
   1  -6  12  144.78   11.73   1
  -1   6 -12  157.64   16.34   2
  -2   6 -12   59.58   12.21   2
  -2   6 -12   67.10   11.36   3
  -3   6 -12  395.76   24.54   3
  -3   6 -12  416.01   24.26   2
   3  -6  12  441.56   20.75   1
  -4   6 -12  202.89   19.81   3
   4  -6  12  187.99   13.49   1
  -4   6 -12  198.17   17.02   2
  -5   6 -12  141.92   18.03   3
  -6   6 -12   65.70   13.48   3
  -7   6 -12  249.35   25.02   3
  -8   6 -12   70.03   15.27   3
  -9   6 -12   21.58   10.52   3
 -10   6 -12   83.86   17.68   3
 -11   6 -12   11.30    9.56   3
 -12   6 -12   -0.09    7.77   3
 -13   6 -12    2.52   10.68   3
  14   5 -12    0.92    5.55   1
  13   5 -12    9.00   10.14   1
  12   5 -12    2.36    8.47   1
  11   5 -12   84.85   17.86   1
  10   5 -12   14.54    9.69   1
   9   5 -12   22.05   10.78   1
   8   5 -12   -8.96    7.31   2
  -7  -5  12    8.40    7.11   1
  -7  -5  12    4.69    5.31   4
   7   5 -12   -1.94    9.11   2
  -6  -5  12  809.71   40.74   1
   6   5 -12  754.47   37.98   2
  -6  -5  12  744.73   37.61   4
  -5  -5  12  151.41   16.64   4
   5   5 -12  131.55   17.15   2
  -5  -5  12  155.41   17.87   1
   4   5 -12  110.34   15.61   2
  -4  -5  12   87.89   13.43   1
  -4  -5  12  100.00   13.53   4
  -3  -5  12  248.09   17.68   4
   3   5 -12  275.62   20.91   2
  -3  -5  12  235.14   18.03   1
  -2  -5  12  195.09   15.42   1
   2   5 -12  163.07    9.93   3
   2   5 -12  152.80   16.59   2
   1   5 -12   20.49    5.41   3
  -1  -5  12   19.52    6.24   1
   1   5 -12   22.13   10.06   2
   0   5 -12   21.01    9.44   2
   0  -5  12   13.23    4.72   1
  -1   5 -12  140.80   15.09   2
  -1   5 -12  148.13   12.59   3
   2  -5  12   17.61    4.66   1
  -2   5 -12   15.76    8.71   2
  -2   5 -12    2.40    4.88   3
  -3   5 -12    2.01    8.16   2
   3  -5  12    2.79    3.20   1
  -3   5 -12    4.60    5.37   3
  -4   5 -12  146.47   14.96   2
  -4   5 -12   95.32   14.38   3
   4  -5  12  110.71    9.77   1
   5  -5  12   13.23    5.24   1
  -5   5 -12   25.66    9.10   3
  -5   5 -12   25.87   10.10   2
  -6   5 -12  252.55   23.65   3
  -7   5 -12  115.14   18.15   3
  -8   5 -12   27.86    9.39   3
  -9   5 -12  205.00   25.00   3
 -10   5 -12   69.94   16.03   3
 -11   5 -12   31.10   11.90   3
 -12   5 -12   -4.37    7.15   3
 -13   5 -12   23.06   10.66   3
  14   4 -12   -3.07    5.69   1
  13   4 -12   10.27   10.57   1
  12   4 -12   24.77   12.68   1
  11   4 -12  153.71   22.22   1
  10   4 -12   43.10   12.21   1
   9   4 -12   46.94   12.64   1
   9   4 -12   63.05   13.89   2
   8   4 -12   41.87   11.77   1
   8   4 -12   30.42   12.11   2
   7   4 -12  138.43   17.77   1
   7   4 -12  157.96   18.09   2
   6   4 -12    1.47    8.39   2
   6   4 -12   -0.65    7.87   1
   5   4 -12   24.17    9.01   1
   5   4 -12   25.95    9.89   2
  -4  -4  12   31.12    8.22   4
  -4  -4  12   30.46    9.01   1
   4   4 -12   50.70   12.23   2
  -3  -4  12   32.35    8.06   1
   3   4 -12   32.04    9.77   2
  -3  -4  12   33.33    8.02   4
   2   4 -12  980.40   39.89   2
  -2  -4  12  911.95   38.20   1
   2   4 -12  957.19   30.08   3
  -2  -4  12  951.99   37.10   4
   1   4 -12    4.73    7.39   2
   1   4 -12    2.35    3.23   3
  -1  -4  12    2.67    3.97   1
   0   4 -12  115.67    9.83   3
   0   4 -12  141.09   14.50   2
  -1   4 -12 1123.03   40.82   3
  -1   4 -12 1035.99   42.08   2
   1  -4  12 1134.45   38.24   1
  -2   4 -12   43.86    8.68   3
   2  -4  12   48.33    6.47   1
  -2   4 -12   60.32   11.07   2
  -3   4 -12  497.72   26.62   3
  -3   4 -12  487.54   25.22   2
   3  -4  12  514.13   20.31   1
  -4   4 -12   32.93    9.18   3
   4  -4  12   31.49    5.31   1
  -4   4 -12   23.30    8.84   2
  -5   4 -12  188.25   19.47   3
  -5   4 -12  200.44   16.99   2
  -6   4 -12   79.33   12.78   2
  -6   4 -12   74.01   13.52   3
  -7   4 -12   40.45   10.75   3
  -8   4 -12   46.11   12.52   3
  -9   4 -12   71.59   15.34   3
 -10   4 -12    1.20    6.20   3
 -11   4 -12   39.58   13.77   3
 -12   4 -12    4.45    7.70   3
 -13   4 -12  143.46   23.58   3
 -14   4 -12   -1.69    8.23   3
  14   3 -12    4.10    6.49   1
  13   3 -12  -13.28    8.28   1
  12   3 -12   18.16   10.73   1
  11   3 -12    7.77    8.59   1
  10   3 -12  122.67   19.27   1
   9   3 -12  128.07   17.27   2
   9   3 -12  105.48   17.36   1
   8   3 -12   36.91   11.63   1
   8   3 -12   34.52   11.45   2
   7   3 -12  311.52   22.86   2
   7   3 -12  257.25   22.07   1
   6   3 -12  384.65   24.88   1
   6   3 -12  365.92   24.56   2
   5   3 -12  111.36   14.78   2
   5   3 -12   94.23   13.80   1
   4   3 -12   20.02    7.62   1
   4   3 -12   26.16    9.98   2
   3   3 -12  438.11   25.05   2
   3   3 -12  539.09   25.10   1
   2   3 -12   32.33    9.86   2
  -2  -3  12   31.79    7.21   4
  -2  -3  12   32.58    8.03   1
   2   3 -12   38.22    4.25   3
  -1  -3  12   85.50    9.54   4
   1   3 -12   70.09   11.24   2
   1   3 -12   87.13    7.59   3
  -1  -3  12   51.72    8.44   1
   0   3 -12   12.79    4.44   3
   0  -3  12    5.30    4.22   1
   0   3 -12   11.54    7.56   2
   1  -3  12  213.87   12.53   1
  -1   3 -12  200.95   13.58   3
  -1   3 -12  219.06   16.91   2
  -2   3 -12   89.20   11.50   2
   2  -3  12   91.95    7.22   1
  -2   3 -12   82.49   10.90   3
   3  -3  12    1.41    2.42   1
  -3   3 -12    2.27    4.39   3
  -3   3 -12    0.07    7.57   2
   4  -3  12   10.41    3.44   1
  -4   3 -12    8.20    5.87   3
  -4   3 -12    1.48    7.30   2
  -5   3 -12  438.95   23.87   2
  -5   3 -12  374.95   24.54   3
  -6   3 -12    9.17    5.62   3
  -6   3 -12    9.87    8.05   2
  -7   3 -12  118.15   17.02   3
  -7   3 -12  171.46   16.28   2
  -8   3 -12    5.00    5.71   3
  -9   3 -12   61.11   14.29   3
 -10   3 -12  629.05   39.74   3
 -11   3 -12   26.41   11.13   3
 -12   3 -12    0.24    8.14   3
 -13   3 -12    6.76    7.99   3
 -14   3 -12    1.79    8.62   3
  14   2 -12   -7.30    5.62   1
  13   2 -12   10.09   11.18   1
  12   2 -12   38.21   13.33   1
  11   2 -12   82.25   17.27   1
  10   2 -12   35.83   11.80   1
   9   2 -12   -0.90    7.31   1
   9   2 -12    2.91    7.72   2
   8   2 -12  339.00   24.10   2
   8   2 -12  359.00   26.55   1
   7   2 -12    9.50    8.41   2
   7   2 -12    4.86    8.35   1
   6   2 -12   13.24    8.64   1
   6   2 -12    0.55    7.52   2
   5   2 -12  229.53   18.67   2
   5   2 -12  206.37   17.14   1
   4   2 -12  225.65   17.87   2
   4   2 -12  255.51   17.80   1
   3   2 -12   80.74   12.19   2
   3   2 -12   49.21    9.11   1
   2   2 -12  178.62   13.34   1
   2   2 -12  193.51    8.72   3
   2   2 -12  159.24   14.56   2
   1   2 -12  603.90   28.86   2
   1   2 -12  596.21   24.81   1
   1   2 -12  646.85   22.79   3
   0  -2  12  104.70    8.99   1
   0  -2  12   96.61    8.84   4
   0   2 -12  104.77   12.34   2
   0   2 -12  112.26    9.21   3
   1  -2  12  126.14    9.02   1
  -1   2 -12  156.77   14.03   2
   2  -2  12    8.13    3.04   1
  -2   2 -12    5.11    4.13   3
  -2   2 -12    7.39    6.90   2
  -3   2 -12   11.16    5.52   3
   3  -2  12   14.93    2.81   1
  -3   2 -12   17.85    7.34   2
   4  -2  12    7.39    2.59   1
  -4   2 -12    5.66    6.57   2
  -4   2 -12   -1.86    3.34   3
  -5   2 -12   44.64   10.22   3
  -5   2 -12   54.03   10.65   2
  -6   2 -12  235.71   21.67   3
  -6   2 -12  236.47   17.47   2
  -7   2 -12   10.45    6.58   3
  -7   2 -12   19.57    7.51   2
  -8   2 -12    2.27    5.81   2
  -8   2 -12   10.85    6.21   3
  -9   2 -12   23.61    9.46   3
  -9   2 -12   59.22   11.17   2
 -10   2 -12   43.24   12.17   3
 -11   2 -12  203.21   25.06   3
 -12   2 -12    3.58    7.25   3
 -13   2 -12   38.57   12.80   3
 -14   2 -12   32.21   12.25   3
 -15   2 -12   27.86   13.29   3
  14   1 -12   -0.73    5.46   1
  13   1 -12   12.64    9.86   1
  12   1 -12    5.70   10.54   1
  11   1 -12    5.89    8.59   1
  10   1 -12   24.60   11.79   1
   9   1 -12   80.31   13.75   2
   9   1 -12  100.48   16.85   1
   8   1 -12   39.98   11.89   1
   8   1 -12   85.40   13.77   2
   7   1 -12  280.40   21.94   1
   7   1 -12  288.46   21.33   2
   6   1 -12    4.67    7.99   2
   6   1 -12    3.11    6.66   1
   5   1 -12   50.74   10.70   2
   5   1 -12   59.11   11.62   1
   4   1 -12    5.43    7.40   2
   4   1 -12   12.45    7.20   1
   3   1 -12   32.39    9.04   2
   3   1 -12   23.72    8.04   1
   2   1 -12  199.30   14.06   1
   2   1 -12  209.07   16.41   2
   1   1 -12    5.99    6.94   2
   1   1 -12   18.11    5.95   1
   0   1 -12    4.50    4.26   1
   0   1 -12    6.90    6.53   2
  -1   1 -12   39.51    9.42   2
   1  -1  12   45.69    5.57   4
   1  -1  12   41.07    5.73   1
  -2   1 -12  183.66   15.47   2
   2  -1  12  154.57    8.13   1
  -3   1 -12  145.88   14.80   2
  -4   1 -12   78.34   11.57   2
  -5   1 -12  366.92   21.35   2
  -6   1 -12  314.66   20.38   2
  -7   1 -12  155.06   15.56   2
  -8   1 -12 1093.60   45.78   2
  -8   1 -12 1138.36   51.43   3
  -9   1 -12   -5.00    4.79   2
  -9   1 -12    1.16    5.69   3
 -10   1 -12  264.38   27.07   3
 -10   1 -12  322.66   22.33   2
 -11   1 -12   15.25    9.01   3
 -12   1 -12   19.96   10.13   3
 -13   1 -12    4.66    7.12   3
 -14   1 -12    8.14    9.44   3
 -15   1 -12   11.35    9.27   3
  14   0 -12    3.00    6.66   1
  13   0 -12   -1.14    7.69   1
  12   0 -12   45.66   14.43   1
  11   0 -12   82.38   17.44   1
  10   0 -12    9.35    9.39   1
   9   0 -12    2.90    6.84   2
   9   0 -12   11.65    8.91   1
   8   0 -12    1.98    8.01   2
   8   0 -12    8.76    8.59   1
   7   0 -12   22.49    9.07   2
   7   0 -12   12.76    8.98   1
   6   0 -12    3.94    7.49   2
   6   0 -12   -3.84    6.63   1
   5   0 -12  133.53   15.46   1
   5   0 -12  138.37   14.72   2
   4   0 -12   42.88    9.96   1
   4   0 -12   45.71    9.41   2
   3   0 -12  217.73   15.43   1
   3   0 -12  199.75   15.65   2
   2   0 -12  197.15   14.06   1
   2   0 -12  180.12   15.43   2
   1   0 -12  943.89   37.25   2
   1   0 -12  927.22   33.53   1
   0   0 -12  134.80    9.87   1
   0   0 -12  108.31   13.10   2
  -1   0 -12   67.03    6.67   1
  -1   0 -12   67.38   11.02   2
  -2   0 -12   65.62   10.85   2
  -2   0 -12   64.18    5.56   1
  -3   0 -12   12.40    6.20   2
  -4   0 -12  398.85   22.86   2
  -5   0 -12   43.51    9.24   2
  -6   0 -12   17.58    6.69   2
  -7   0 -12  111.69   14.25   2
  -8   0 -12   65.68   12.01   2
  -9   0 -12   -1.89    4.81   2
 -10   0 -12   34.79    9.50   2
 -11   0 -12  470.15   33.23   3
 -11   0 -12  448.69   28.33   2
 -12   0 -12  232.70   27.58   3
 -13   0 -12   24.34   10.39   3
 -14   0 -12   93.47   19.10   3
 -15   0 -12   16.67    9.97   3
 -16   0 -12    2.65    8.69   3
  13  -1 -12    4.39    4.79   1
  12  -1 -12   70.95   16.93   1
  11  -1 -12   -5.28    8.35   1
  10  -1 -12   40.57   14.23   1
   9  -1 -12  253.06   24.97   1
   8  -1 -12   79.20   15.84   1
   7  -1 -12   16.27    8.43   2
   7  -1 -12   44.55   12.64   1
   6  -1 -12   49.93   10.78   2
   6  -1 -12   45.86   11.45   1
   5  -1 -12  512.29   28.44   1
   5  -1 -12  508.79   26.14   2
   4  -1 -12   -5.72    6.34   1
   4  -1 -12    4.83    7.10   2
   3  -1 -12   52.99   10.07   1
   3  -1 -12   57.83    9.73   2
   2  -1 -12   69.82   10.38   2
   2  -1 -12   69.73    9.96   1
   1  -1 -12   19.70    9.05   2
   1  -1 -12   41.16    7.86   1
   0  -1 -12   19.16    5.66   1
   0  -1 -12    9.45    7.26   2
  -1  -1 -12   15.93    4.86   1
  -1  -1 -12    9.09    6.87   2
  -2  -1 -12   14.68    3.93   1
  -2  -1 -12    9.64    6.23   2
  -3  -1 -12    3.81    4.56   2
  -4  -1 -12  182.57   15.78   2
  -5  -1 -12  152.47   15.54   2
  -6  -1 -12  829.50   38.39   2
  -7  -1 -12   48.25   10.49   2
  -8  -1 -12  322.78   23.10   2
  -9  -1 -12    3.19    5.72   2
 -10  -1 -12   -2.25    4.79   2
 -11  -1 -12  111.42   16.88   2
 -13  -1 -12   29.18   11.18   3
 -14  -1 -12   25.80   10.58   3
 -15  -1 -12   12.84    8.57   3
 -16  -1 -12   14.69   10.22   3
  13  -2 -12    6.27    6.16   1
  12  -2 -12    2.10    9.29   1
  11  -2 -12    6.51    9.74   1
  10  -2 -12    2.53    9.03   1
   9  -2 -12    8.34    9.40   1
   8  -2 -12   -3.23    7.12   1
   7  -2 -12   -8.23    6.63   2
   7  -2 -12    5.55    8.45   1
   6  -2 -12  210.59   21.17   1
   5  -2 -12  246.21   17.79   2
   5  -2 -12  240.67   19.81   1
   4  -2 -12   30.44   10.15   1
   4  -2 -12   50.60    9.99   2
   3  -2 -12  254.38   17.34   2
   3  -2 -12  302.07   19.87   1
   2  -2 -12    6.12    6.28   1
   2  -2 -12   11.01    7.25   2
   1  -2 -12  941.54   35.36   1
   1  -2 -12  985.22   39.56   2
   0  -2 -12  967.46   39.86   2
   0  -2 -12  971.08   34.33   1
  -1  -2 -12   53.88   10.37   2
  -1  -2 -12   52.36    7.11   1
  -2  -2 -12   12.73    6.21   2
  -2  -2 -12   16.19    4.80   1
  -3  -2 -12   39.55    4.73   1
  -3  -2 -12   55.57   10.34   2
  -4  -2 -12   11.21    6.14   2
  -5  -2 -12   40.47    9.32   2
  -6  -2 -12   14.40    6.91   2
  -7  -2 -12   27.48    8.84   2
  -8  -2 -12   50.78   11.71   2
  -9  -2 -12  332.82   24.92   2
 -10  -2 -12   48.11   11.92   2
 -11  -2 -12   -1.38    5.63   2
 -12  -2 -12  231.68   24.71   2
 -14  -2 -12   19.52    9.10   3
 -15  -2 -12   70.56   16.66   3
 -16  -2 -12    6.87    8.86   3
  13  -3 -12    2.04    6.35   1
  12  -3 -12    1.23    7.14   1
  11  -3 -12   29.81   13.64   1
  10  -3 -12    4.48    8.77   1
   9  -3 -12   88.30   17.05   1
   8  -3 -12   88.60   16.97   1
   7  -3 -12   87.76   16.43   1
   6  -3 -12  137.28   13.78   2
   6  -3 -12  187.80   20.78   1
   5  -3 -12  126.78   17.02   1
   4  -3 -12  328.49   22.32   1
   4  -3 -12  280.35   17.15   2
   3  -3 -12  337.50   21.83   1
   3  -3 -12  311.53   19.13   2
   2  -3 -12   41.92    9.59   2
   2  -3 -12   33.83    9.19   1
   1  -3 -12   46.84    9.21   1
   1  -3 -12   39.07    9.47   2
   0  -3 -12   49.19    8.40   1
   0  -3 -12   47.11    9.99   2
  -1  -3 -12  101.93   12.61   2
  -1  -3 -12  112.54   10.10   1
  -2  -3 -12  135.50   14.59   2
  -2  -3 -12  128.48    9.64   1
  -3  -3 -12  190.83   10.33   1
  -3  -3 -12  177.86   16.72   2
  -4  -3 -12  164.07    8.64   1
  -4  -3 -12  170.42   16.60   2
  -5  -3 -12  244.40   19.61   2
  -5  -3 -12  276.56   10.85   1
  -6  -3 -12  135.56   16.94   2
  -7  -3 -12    5.24    5.51   2
  -8  -3 -12   14.21    7.26   2
  -9  -3 -12  261.28   22.89   2
 -10  -3 -12  126.72   18.80   2
 -11  -3 -12   -0.65    6.35   2
 -12  -3 -12   25.84    9.84   2
 -13  -3 -12   25.03   10.35   2
 -16  -3 -12   45.57   13.27   3
  12  -4 -12    2.51    6.16   1
  11  -4 -12   13.30   11.57   1
  10  -4 -12    8.45    9.73   1
   9  -4 -12   13.90   10.78   1
   8  -4 -12    0.45    8.98   1
   7  -4 -12    9.42    8.71   1
   6  -4 -12    0.39    8.41   1
   5  -4 -12   65.85   10.36   2
   5  -4 -12   58.78   13.92   1
   4  -4 -12   46.34    9.57   2
   4  -4 -12   40.67   11.35   1
   3  -4 -12  291.31   21.39   1
   2  -4 -12  114.67   13.32   2
   2  -4 -12   79.36   12.47   1
   1  -4 -12    5.90    6.88   2
   1  -4 -12    0.39    5.79   1
   0  -4 -12  379.30   21.89   2
   0  -4 -12  328.35   18.83   1
  -1  -4 -12  261.52   17.96   2
  -1  -4 -12  230.09   14.65   1
  -2  -4 -12   16.36    5.82   1
  -2  -4 -12   16.03    6.46   2
  -3  -4 -12   85.62   12.57   2
  -3  -4 -12  101.88    8.73   1
  -4  -4 -12    6.86    3.74   1
  -4  -4 -12   11.29    6.26   2
  -5  -4 -12    2.32    5.33   2
  -5  -4 -12    6.24    3.29   1
  -6  -4 -12   21.10    8.04   2
  -7  -4 -12    2.48    6.15   2
  -8  -4 -12  167.26   20.76   2
  -9  -4 -12   66.62   14.89   2
 -10  -4 -12   74.28   15.81   2
 -11  -4 -12  352.25   28.96   2
 -12  -4 -12  125.16   21.02   2
 -13  -4 -12   98.84   19.26   2
 -14  -4 -12    5.14    8.74   2
  12  -5 -12    6.82    6.22   1
  11  -5 -12   -0.93    7.18   1
  10  -5 -12    3.31    9.27   1
   9  -5 -12   83.26   18.77   1
   8  -5 -12   82.12   17.25   1
   7  -5 -12  164.79   21.70   1
   6  -5 -12   87.11   16.39   1
   5  -5 -12   28.53   12.46   1
   4  -5 -12   64.97   13.95   1
   4  -5 -12   94.80   11.54   2
   3  -5 -12   14.50    8.97   1
   3  -5 -12    6.09    7.80   2
   2  -5 -12   85.60   13.82   1
   1  -5 -12  195.18   16.25   1
   1  -5 -12  161.60   15.50   2
   0  -5 -12    1.06    5.79   1
   0  -5 -12   -0.07    4.93   2
  -1  -5 -12  491.59   26.39   2
  -1  -5 -12  498.62   23.78   1
  -2  -5 -12   66.66   11.37   2
  -2  -5 -12   53.03    8.24   1
  -3  -5 -12    0.83    4.54   2
  -3  -5 -12    1.54    4.08   1
  -4  -5 -12  400.18   25.81   2
  -4  -5 -12  406.70   18.12   1
  -5  -5 -12   79.20    7.88   1
  -5  -5 -12  116.07   16.08   2
  -6  -5 -12    9.90    3.84   1
  -6  -5 -12    8.30    6.42   2
  -7  -5 -12   83.77   15.36   2
  -8  -5 -12   59.81   13.54   2
  -9  -5 -12   78.40   15.75   2
 -10  -5 -12   26.16   10.44   2
 -11  -5 -12   12.86    8.02   2
 -12  -5 -12   30.31   10.41   2
 -13  -5 -12   14.18    9.37   2
 -14  -5 -12   61.78   15.80   2
 -15  -5 -12  131.23   24.19   2
  11  -6 -12   -4.76    6.22   1
  10  -6 -12   18.15   12.64   1
   9  -6 -12   -1.86    9.10   1
   8  -6 -12    9.04   10.12   1
   7  -6 -12  202.49   25.14   1
   6  -6 -12   33.17   12.50   1
   5  -6 -12    6.59    9.60   1
   4  -6 -12   51.81   13.18   1
   3  -6 -12   56.83   11.52   2
   3  -6 -12   66.77   13.36   1
   2  -6 -12  216.38   18.52   1
   2  -6 -12  171.52   15.26   2
   1  -6 -12  222.38   18.23   1
   1  -6 -12  203.81   16.37   2
   0  -6 -12   25.21    8.06   2
   0  -6 -12   17.90    8.16   1
  -1  -6 -12    3.39    4.86   2
  -1  -6 -12    2.20    5.54   1
  -2  -6 -12   96.01   11.06   1
  -2  -6 -12   89.88   12.95   2
  -3  -6 -12   -2.59    4.10   2
  -3  -6 -12    7.67    4.75   1
  -4  -6 -12  173.28   18.93   2
  -4  -6 -12  203.08   13.26   1
  -5  -6 -12    0.35    3.86   1
  -5  -6 -12    2.13    6.11   2
  -6  -6 -12  175.04   20.91   2
  -6  -6 -12  152.17   11.10   1
  -7  -6 -12   17.65    8.52   2
  -8  -6 -12  296.79   25.77   2
  -9  -6 -12   25.53   10.51   2
 -10  -6 -12  138.24   22.34   2
 -11  -6 -12  339.43   33.48   2
 -12  -6 -12   12.39    8.51   2
 -13  -6 -12  252.88   31.80   2
 -14  -6 -12    8.56    9.72   2
 -15  -6 -12   39.56   13.84   2
 -16  -6 -12   30.10   15.75   2
  10  -7 -12    2.06    4.85   1
   9  -7 -12   22.74   12.63   1
   8  -7 -12   55.33   15.69   1
   7  -7 -12   16.65   10.84   1
   6  -7 -12    3.83    9.10   1
   5  -7 -12   40.86   13.50   1
   4  -7 -12   49.96   13.12   1
   3  -7 -12   55.43   13.22   1
   2  -7 -12   45.69   10.86   2
   2  -7 -12   49.93   12.05   1
   1  -7 -12   -6.25    2.57   2
   1  -7 -12    5.09    7.63   1
   0  -7 -12   55.44   11.19   1
   0  -7 -12   49.74   10.30   2
  -1  -7 -12   18.46    7.27   2
  -1  -7 -12   21.45    8.13   1
  -2  -7 -12  723.90   30.86   1
  -2  -7 -12  653.54   33.90   2
  -3  -7 -12   80.59   10.41   1
  -3  -7 -12   69.53   12.98   2
  -4  -7 -12   85.55   14.76   2
  -4  -7 -12   81.95   10.11   1
  -5  -7 -12   68.35   13.99   2
  -5  -7 -12   63.18    9.25   1
  -6  -7 -12    6.11    4.36   1
  -6  -7 -12    4.88    6.77   2
  -7  -7 -12  176.45   22.35   2
  -8  -7 -12   20.29    9.58   2
  -9  -7 -12   43.45   12.58   2
 -10  -7 -12    4.71    8.08   2
 -11  -7 -12   52.50   15.02   2
 -12  -7 -12   38.45   13.01   2
 -13  -7 -12    2.49    7.95   2
 -14  -7 -12   46.87   16.99   2
 -15  -7 -12   72.83   21.05   2
 -16  -7 -12   36.24   15.65   2
  10  -8 -12   -5.86    6.97   1
   9  -8 -12   19.24   11.96   1
   8  -8 -12   -5.21    8.50   1
   7  -8 -12   46.93   14.79   1
   6  -8 -12   87.23   18.69   1
   5  -8 -12   -0.20    8.75   1
   4  -8 -12  312.41   26.21   1
   3  -8 -12   15.15    9.33   1
   2  -8 -12  164.96   19.00   1
   1  -8 -12  141.63   14.61   2
   1  -8 -12  116.24   16.52   1
   0  -8 -12   10.99    6.55   2
   0  -8 -12    0.65    5.90   1
  -1  -8 -12   41.61   10.25   1
  -1  -8 -12   34.81    9.26   2
  -2  -8 -12    7.48    6.40   1
  -2  -8 -12    3.37    5.52   2
  -3  -8 -12   11.50    6.51   1
  -3  -8 -12   25.79    8.17   2
  -4  -8 -12   54.38   12.02   2
  -4  -8 -12   70.78   10.23   1
  -5  -8 -12   31.86   10.52   2
  -5  -8 -12   38.98    8.28   1
  -6  -8 -12   44.12   12.14   2
  -6  -8 -12   91.88   10.88   1
  -7  -8 -12    9.83    7.36   2
  -8  -8 -12   17.45    9.47   2
  -9  -8 -12  104.14   20.41   2
 -10  -8 -12   47.13   13.97   2
 -11  -8 -12  171.30   27.48   2
 -12  -8 -12    2.39    9.15   2
 -13  -8 -12  214.26   33.17   2
 -14  -8 -12   86.64   21.25   2
 -15  -8 -12   11.67   12.14   2
 -16  -8 -12   54.62   20.61   2
   9  -9 -12    6.27    7.06   1
   8  -9 -12  159.20   25.40   1
   7  -9 -12   11.91   10.20   1
   6  -9 -12   -4.60    9.69   1
   5  -9 -12    9.92    9.93   1
   4  -9 -12   -1.98    7.93   1
   3  -9 -12   73.78   15.33   1
   2  -9 -12  273.97   22.79   1
   1  -9 -12  106.23   16.44   1
   0  -9 -12  195.73   19.30   1
  -1  -9 -12   -1.05    6.34   1
  -1  -9 -12   14.19    7.09   2
  -2  -9 -12   68.25   11.78   1
  -2  -9 -12   66.21   12.43   2
  -3  -9 -12   23.94    7.95   2
  -3  -9 -12   35.50    9.19   1
  -4  -9 -12   20.95    7.23   1
  -4  -9 -12   17.85    8.17   2
  -5  -9 -12  180.07   21.79   2
  -5  -9 -12  178.25   15.11   1
  -6  -9 -12   -0.74    6.60   2
  -6  -9 -12    1.13    4.82   1
  -7  -9 -12   67.83   11.02   1
  -7  -9 -12   75.59   16.41   2
  -8  -9 -12   91.25   19.17   2
  -9  -9 -12    3.89    8.50   2
 -10  -9 -12   26.95   12.30   2
 -11  -9 -12   17.00   10.06   2
 -12  -9 -12    8.00    9.11   2
 -13  -9 -12   10.34    9.59   2
 -14  -9 -12   -3.44   10.64   2
 -15  -9 -12   43.73   18.01   2
   8 -10 -12   28.13   13.49   1
   7 -10 -12   16.80   12.21   1
   6 -10 -12   96.98   19.58   1
   5 -10 -12   13.89   11.10   1
   4 -10 -12   53.98   14.56   1
   3 -10 -12  224.44   24.34   1
   2 -10 -12    8.00    8.68   1
   1 -10 -12   30.40    9.99   1
   0 -10 -12   33.74   10.73   1
  -1 -10 -12   37.18    9.43   2
  -1 -10 -12   53.21   11.67   1
  -2 -10 -12   15.43    7.78   1
  -2 -10 -12   20.53    7.99   2
  -3 -10 -12   82.60   14.49   2
  -3 -10 -12   55.42   11.93   1
  -4 -10 -12   33.83    8.85   1
  -4 -10 -12   25.90    9.40   2
  -5 -10 -12    1.48    5.89   2
  -5 -10 -12   -0.12    4.90   1
  -6 -10 -12    5.01    5.38   1
  -6 -10 -12   16.81    9.17   2
  -7 -10 -12   41.12    9.25   1
  -7 -10 -12   22.50   10.50   2
  -8 -10 -12    5.92    8.16   2
  -9 -10 -12  153.80   26.11   2
 -10 -10 -12    4.81   10.07   2
 -11 -10 -12   82.41   20.93   2
 -12 -10 -12   20.94   12.91   2
 -13 -10 -12   98.57   23.61   2
 -14 -10 -12   83.75   22.77   2
 -15 -10 -12    5.30   11.52   2
   7 -11 -12   17.98   13.93   1
   6 -11 -12    7.74   10.07   1
   5 -11 -12  129.02   21.76   1
   4 -11 -12   35.64   13.62   1
   3 -11 -12   16.46   10.16   1
   2 -11 -12   40.87   13.35   1
   1 -11 -12    2.88    7.92   1
   0 -11 -12   59.63   13.46   1
  -1 -11 -12   11.26    8.27   1
  -2 -11 -12    1.34    6.38   1
  -2 -11 -12    1.94    5.72   2
  -3 -11 -12  162.12   19.79   2
  -3 -11 -12  154.09   17.67   1
  -4 -11 -12   10.25    7.48   2
  -4 -11 -12   15.68    7.07   1
  -5 -11 -12   37.45    9.71   1
  -5 -11 -12   14.31    8.79   2
  -6 -11 -12   67.96   15.85   2
  -6 -11 -12   56.03   10.94   1
  -7 -11 -12   -7.20    6.63   2
  -7 -11 -12   -9.98    5.10   1
  -8 -11 -12   16.66   10.70   2
  -9 -11 -12   -2.97    6.71   2
 -10 -11 -12   -0.57    7.77   2
 -11 -11 -12   15.07   11.71   2
 -12 -11 -12   18.01   11.98   2
 -13 -11 -12   51.10   18.28   2
 -14 -11 -12   25.71   14.56   2
   6 -12 -12   19.72   13.07   1
   5 -12 -12   38.64   14.12   1
   4 -12 -12    9.26    9.78   1
   3 -12 -12  106.28   19.21   1
   2 -12 -12   30.95   11.70   1
   1 -12 -12    7.44    8.69   1
   0 -12 -12    1.46    7.86   1
  -1 -12 -12   68.76   14.24   1
  -2 -12 -12   -4.07    6.15   1
  -3 -12 -12   -1.45    6.53   1
  -3 -12 -12    7.29    6.39   2
  -4 -12 -12   12.53    7.16   2
  -4 -12 -12   -4.31    6.09   1
  -5 -12 -12  116.30   19.15   2
  -5 -12 -12  135.21   17.62   1
  -6 -12 -12   30.89   12.28   2
  -6 -12 -12   34.97   10.79   1
  -7 -12 -12  253.29   20.46   1
  -7 -12 -12  172.53   25.77   2
  -8 -12 -12  -10.41    6.26   2
  -9 -12 -12   20.19   11.17   2
 -10 -12 -12   46.04   15.87   2
 -11 -12 -12   14.83   11.41   2
 -12 -12 -12   -8.25    7.72   2
 -13 -12 -12   14.91   15.85   2
   4 -13 -12   -0.53    9.84   1
   3 -13 -12    0.97    9.16   1
   2 -13 -12   48.42   14.44   1
   1 -13 -12   63.02   15.14   1
   0 -13 -12   -7.45    6.85   1
  -1 -13 -12    9.18    8.41   1
  -2 -13 -12    5.18    6.90   1
  -3 -13 -12   75.42   14.98   1
  -4 -13 -12   71.90   14.43   1
  -4 -13 -12   90.13   17.34   2
  -5 -13 -12    1.67    7.38   1
  -5 -13 -12   -0.58    7.44   2
  -6 -13 -12    5.21    8.76   2
  -6 -13 -12   -1.50    6.32   1
  -7 -13 -12   -4.08    6.27   2
  -7 -13 -12    4.91    7.12   1
  -8 -13 -12   19.09   11.03   2
  -9 -13 -12    2.83    8.40   2
 -10 -13 -12    1.99    9.46   2
 -11 -13 -12   -4.83    7.06   2
 -12 -13 -12   -4.31    8.75   2
   3 -14 -12    9.68   10.86   1
   2 -14 -12   21.68   13.28   1
   1 -14 -12  140.45   21.86   1
   0 -14 -12    8.11    9.74   1
  -1 -14 -12  111.50   19.21   1
  -2 -14 -12    0.84    7.68   1
  -3 -14 -12   20.00    9.54   1
  -4 -14 -12    6.30    9.21   1
  -5 -14 -12    9.01    9.34   2
  -5 -14 -12   11.08    8.38   1
  -6 -14 -12    3.17    8.25   1
  -6 -14 -12   20.43    9.82   2
  -7 -14 -12   51.55   15.16   2
  -7 -14 -12   59.89   14.09   1
  -8 -14 -12  152.51   26.12   2
  -9 -14 -12    7.66   10.53   2
 -10 -14 -12   -6.22    7.81   2
 -11 -14 -12    1.04    9.24   2
   1 -15 -12  127.76   22.02   1
   0 -15 -12    0.66    9.73   1
  -1 -15 -12   60.15   15.16   1
  -2 -15 -12   -2.25    7.69   1
  -3 -15 -12   46.85   13.96   1
  -4 -15 -12   46.85   12.93   1
  -5 -15 -12    0.98    8.20   1
  -6 -15 -12   -1.98    7.30   1
  -7 -15 -12    3.98   10.00   2
  -7 -15 -12   -2.26    8.22   1
  -8 -15 -12   -7.61    8.19   2
  -9 -15 -12    7.05    8.66   2
 -10 -15 -12   -0.35   12.49   2
  -1 -16 -12    4.10   10.59   1
  -2 -16 -12   -2.44    9.15   1
  -3 -16 -12  -13.77    7.69   1
  -4 -16 -12   38.05   12.47   1
  -5 -16 -12   10.14    9.87   1
  -6 -16 -12   63.34   15.14   1
  -7 -16 -12   -7.74   10.00   1
  -8 -16 -12   28.81   14.04   2
  -9 -16 -12   -3.27   11.24   2
  -4 -16  13    1.03    8.07   1
  -3 -16  13   11.48    8.74   1
  -2 -16  13   -3.99    8.33   1
  -1 -16  13   19.93    9.46   1
   0 -16  13    6.02    8.90   1
   1 -16  13   14.31   11.57   1
  -7 -15  13    1.11    6.26   1
  -6 -15  13    1.80    6.01   1
  -5 -15  13   -7.83    5.63   1
  -4 -15  13   85.12   17.38   1
  -3 -15  13    5.56    6.23   1
  -2 -15  13   44.32   13.13   1
  -1 -15  13   14.22    9.64   1
   0 -15  13    8.84    7.94   1
   1 -15  13  147.47   21.94   1
  -2  15 -13   -2.52    8.35   3
  -3  15 -13   54.39   16.08   3
  -9 -14  13    1.25    5.77   1
  -8 -14  13   -1.84    6.26   1
  -7 -14  13   -3.23    6.42   1
  -6 -14  13   24.76   10.94   1
  -5 -14  13   33.06   11.02   1
  -4 -14  13    6.20    8.31   1
  -3 -14  13   62.16   14.06   1
  -2 -14  13    5.39    6.92   1
  -1 -14  13   -7.94    6.06   1
   0 -14  13    4.06    6.34   1
  -1  14 -13   11.06    8.50   3
   1 -14  13    5.28    7.31   1
  -2  14 -13   26.19   10.46   3
   2 -14  13   30.10   10.60   1
  -3  14 -13   -6.42    6.36   3
  -4  14 -13    1.66    7.59   3
 -10 -13  13  -11.11    6.43   1
  -9 -13  13  -11.26    4.81   1
  -8 -13  13   -1.41    6.95   1
  -7 -13  13  151.65   23.74   1
  -6 -13  13   56.35   14.45   1
  -5 -13  13    5.56    7.52   1
  -4 -13  13  134.72   21.13   1
  -3 -13  13   46.62   12.42   1
  -2 -13  13    4.45    6.38   1
  -1 -13  13  215.62   23.85   1
   0  13 -13    9.40    7.89   3
   0 -13  13    5.50    7.55   1
   1 -13  13  116.86   17.67   1
  -1  13 -13  118.47   17.58   3
   2 -13  13   15.82    7.52   1
  -2  13 -13   11.90    7.47   3
  -3  13 -13   25.11    9.46   3
  -4  13 -13   12.68    8.64   3
  -5  13 -13   -6.12    4.74   3
  -6  13 -13   -1.83    4.62   3
 -11 -12  13    9.82    7.44   1
 -10 -12  13   -6.31    5.47   1
  -9 -12  13   -1.04    7.82   1
  -8 -12  13   -4.52    6.90   1
  -7 -12  13   33.99   12.22   1
  -6 -12  13   33.65   11.39   1
  -5 -12  13   59.83   14.99   1
  -4 -12  13    8.28    8.42   1
  -3 -12  13    7.56    6.70   1
  -2 -12  13   46.58   11.63   1
  -1 -12  13    7.59    6.78   1
   1  12 -13   21.70   12.47   2
   0 -12  13    6.68    6.44   1
   0  12 -13    3.53    7.23   3
   1 -12  13   21.96    8.31   1
  -1  12 -13    8.12    7.25   3
  -2  12 -13   -7.72    5.56   3
   2 -12  13    4.68    6.32   1
   3 -12  13   59.20   12.68   1
  -3  12 -13   35.11   10.49   3
  -4  12 -13   12.33    7.66   3
  -5  12 -13   44.36   13.15   3
  -6  12 -13   -0.70    6.34   3
  -7  12 -13   -8.39    4.11   3
 -12 -11  13    1.79    7.06   1
 -11 -11  13    5.66    5.14   1
 -10 -11  13    9.53    8.35   1
  -9 -11  13    2.66    7.70   1
  -8 -11  13    2.88    7.36   1
  -7 -11  13   18.78    9.79   1
  -6 -11  13   60.81   14.82   1
  -5 -11  13   36.52   10.95   1
  -4 -11  13  152.77   21.03   1
   4  11 -13  166.96   22.23   2
  -3 -11  13  213.81   23.54   1
   3  11 -13  225.87   24.57   2
  -2 -11  13   16.53    6.89   1
   2  11 -13   15.32   11.41   2
  -1 -11  13  160.10   18.81   1
   1  11 -13  145.53   19.88   2
   1  11 -13  190.50   18.08   3
   0  11 -13    7.99    6.70   3
   0 -11  13   12.53    6.97   1
   0  11 -13    3.28   10.53   2
  -1  11 -13    9.27    7.33   3
   1 -11  13    1.74    5.89   1
   2 -11  13  141.30   17.15   1
  -2  11 -13  161.96   18.91   3
  -3  11 -13   40.32   11.71   3
   3 -11  13   68.05   12.64   1
  -4  11 -13   24.91    9.57   3
  -5  11 -13   11.28    7.96   3
  -6  11 -13   13.19    9.93   3
  -7  11 -13   -2.71    6.07   3
  -8  11 -13    1.51    4.99   3
 -12 -10  13   -7.49    5.21   1
 -11 -10  13    5.87    8.53   1
 -10 -10  13   24.59   11.03   1
  -9 -10  13  129.84   22.23   1
  -8 -10  13    0.99    7.30   1
  -7 -10  13  101.96   18.62   1
  -6 -10  13   72.83   15.68   1
   5  10 -13   28.78   12.93   2
  -5 -10  13   27.46   10.25   1
  -4 -10  13   23.14    8.47   1
   4  10 -13   26.85   12.12   2
   3  10 -13  215.74   23.43   2
  -3 -10  13  217.35   22.79   1
   2  10 -13   10.49   10.48   2
  -2 -10  13    9.63    6.15   1
  -1 -10  13   21.38    8.33   1
   1  10 -13   20.12    7.57   3
   1  10 -13   28.51   12.23   2
   0  10 -13   84.08   12.71   3
   0  10 -13   97.98   16.57   2
   0 -10  13   81.79   13.31   1
   1 -10  13  149.33   17.05   1
  -1  10 -13  187.74   19.89   2
  -1  10 -13  158.66   17.21   3
  -2  10 -13  191.68   19.34   3
   2 -10  13  191.87   18.33   1
  -3  10 -13   31.67   10.72   3
   3 -10  13   28.61    8.40   1
  -4  10 -13   35.95   10.09   3
  -5  10 -13   75.95   15.32   3
  -6  10 -13  109.92   18.40   3
  -7  10 -13    8.76    8.01   3
  -8  10 -13   -6.36    7.25   3
  -9  10 -13   -0.93    4.89   3
 -13  -9  13   12.76    9.62   1
 -13  -9  13    8.23    7.38   4
 -12  -9  13   -0.86    5.34   1
 -12  -9  13   -1.11    4.25   4
 -11  -9  13   30.85   11.53   1
 -10  -9  13   29.64   11.53   1
  -9  -9  13   -1.76    6.45   1
  -8  -9  13  185.03   25.24   1
  -7  -9  13  170.50   23.12   1
   6   9 -13  269.36   26.68   2
  -6  -9  13  237.85   25.23   1
   5   9 -13   77.10   16.31   2
  -5  -9  13   46.28   11.38   1
   4   9 -13   18.40   10.49   2
  -4  -9  13   10.77    6.74   1
   3   9 -13  275.98   23.87   2
  -3  -9  13  219.71   21.69   1
  -2  -9  13    9.55    5.79   1
   2   9 -13   16.03   11.71   2
   1   9 -13   26.16   12.10   2
   1   9 -13   17.09    7.11   3
  -1  -9  13    2.09    5.06   1
   0   9 -13   -5.85    9.62   2
   0   9 -13    8.51    6.38   3
   0  -9  13   16.21    6.21   1
  -1   9 -13    3.82    5.37   3
  -1   9 -13    6.38    9.82   2
   1  -9  13    6.63    4.57   1
  -2   9 -13   20.01   10.64   2
  -2   9 -13   15.16    7.45   3
   2  -9  13   18.21    6.82   1
   3  -9  13   16.64    6.55   1
  -3   9 -13   20.51    8.16   3
  -4   9 -13   -1.37    6.30   3
  -5   9 -13   -1.78    7.10   3
  -6   9 -13    7.11    7.47   3
  -7   9 -13   60.70   14.23   3
  -8   9 -13   95.92   17.97   3
  -9   9 -13    0.40    7.50   3
 -10   9 -13    7.75    5.55   3
 -13  -8  13   -2.97    6.61   4
 -13  -8  13   13.10   10.60   1
 -12  -8  13   10.59    8.91   4
 -12  -8  13   17.30   11.39   1
 -11  -8  13   69.52   16.03   1
 -11  -8  13   58.75   13.52   4
 -10  -8  13    6.21    5.60   4
 -10  -8  13    3.99    6.90   1
  -9  -8  13   50.64   12.40   4
  -9  -8  13   75.18   15.90   1
  -8  -8  13   70.02   15.19   1
   7   8 -13   -8.02    8.84   2
  -7  -8  13   -3.24    6.11   1
   6   8 -13   77.55   16.46   2
  -6  -8  13   66.94   14.66   1
  -5  -8  13   49.45   11.68   1
   5   8 -13   85.67   17.47   2
   4   8 -13   19.24   11.02   2
  -4  -8  13    2.90    5.66   1
  -3  -8  13    8.62    5.64   1
   3   8 -13   -7.00    9.97   2
  -2  -8  13   14.44    6.37   1
   2   8 -13   12.40   10.23   2
   2   8 -13   16.47    6.15   3
  -1  -8  13   29.59    8.01   1
   1   8 -13   20.10   10.35   2
   1   8 -13   29.92    7.41   3
   0  -8  13   44.24    9.11   1
   0   8 -13   53.46    9.73   3
   0   8 -13   42.85   12.89   2
   1  -8  13  116.70   13.21   1
  -1   8 -13  106.55   15.78   2
  -1   8 -13   96.76   13.28   3
  -2   8 -13 1122.53   46.63   3
  -2   8 -13 1130.85   46.27   2
   2  -8  13 1087.61   43.48   1
   3  -8  13   65.24   10.24   1
  -3   8 -13   59.07   12.06   3
  -3   8 -13   62.72   13.61   2
  -4   8 -13  124.19   16.75   3
  -5   8 -13    5.99    6.20   3
  -6   8 -13  134.62   19.41   3
  -7   8 -13   74.76   15.68   3
  -8   8 -13   -9.63    5.85   3
  -9   8 -13   68.87   16.59   3
 -10   8 -13    9.29    9.39   3
 -11   8 -13    1.48    9.87   3
 -13  -7  13    7.75    7.52   4
 -13  -7  13   14.30   10.60   1
 -12  -7  13    3.83    7.06   4
 -12  -7  13    8.94    8.99   1
 -11  -7  13   68.68   15.63   1
 -11  -7  13   60.15   13.90   4
 -10  -7  13  131.97   20.02   4
 -10  -7  13  135.42   21.12   1
  -9  -7  13   10.86    8.45   1
  -9  -7  13   14.43    6.97   4
   8   7 -13   22.29   12.18   2
  -8  -7  13   33.68   10.04   4
  -8  -7  13   38.18   11.21   1
  -7  -7  13  232.34   23.47   4
   7   7 -13  240.06   23.81   2
  -7  -7  13  226.76   24.27   1
  -6  -7  13   28.57    9.79   4
   6   7 -13   36.30   12.75   2
  -6  -7  13   30.77   10.12   1
   5   7 -13   41.93   13.23   2
  -5  -7  13   40.99   11.04   1
  -4  -7  13  169.58   19.20   1
   4   7 -13  181.22   20.58   2
  -3  -7  13  180.11   18.24   1
   3   7 -13  173.32   19.16   2
   2   7 -13   66.68    8.43   3
   2   7 -13   51.19   13.97   2
  -2  -7  13   55.59   10.71   1
   1   7 -13   -1.81    2.11   3
   1   7 -13   -2.67    9.52   2
  -1  -7  13   -0.62    3.66   1
   0  -7  13   67.47   10.78   1
   0   7 -13   92.88   15.42   2
   0   7 -13   95.31   11.62   3
  -1   7 -13   48.01   12.59   2
  -1   7 -13   48.63   10.20   3
   1  -7  13   58.98    9.63   1
  -2   7 -13   11.68   10.67   2
   2  -7  13   -0.45    2.77   1
  -2   7 -13    7.52    5.85   3
  -3   7 -13   12.54    6.84   3
   3  -7  13   11.14    4.53   1
  -3   7 -13   10.57   10.01   2
  -4   7 -13  192.63   19.97   3
  -4   7 -13  199.44   18.32   2
   4  -7  13  188.35   14.36   1
  -5   7 -13   15.29    7.27   3
  -6   7 -13  282.34   23.70   3
  -7   7 -13  112.93   18.35   3
  -8   7 -13  123.66   20.26   3
  -9   7 -13    8.97    8.00   3
 -10   7 -13  100.78   19.98   3
 -11   7 -13   14.51   11.32   3
 -12   7 -13   42.86   14.85   3
 -14  -6  13   19.11   12.20   1
 -14  -6  13    9.36    8.04   4
 -13  -6  13    9.00    8.89   1
 -13  -6  13   -0.20    5.78   4
 -12  -6  13   14.88    8.25   4
 -12  -6  13   -0.63    9.18   1
 -11  -6  13  141.10   20.61   4
 -11  -6  13  204.33   25.80   1
 -10  -6  13    4.47    7.36   1
 -10  -6  13   -6.31    4.21   4
  -9  -6  13  108.00   18.18   1
  -9  -6  13  112.46   17.43   4
  -8  -6  13   57.80   12.64   4
  -8  -6  13   75.02   15.28   1
   8   6 -13   95.98   16.95   2
  -7  -6  13    2.94    6.18   1
  -7  -6  13    7.83    5.41   4
   7   6 -13   -4.85    8.30   2
  -6  -6  13    4.98    5.27   4
   6   6 -13    1.04   10.19   2
  -6  -6  13    3.97    5.83   1
  -5  -6  13   40.72   10.42   1
   5   6 -13   35.65   12.90   2
  -5  -6  13   42.07    9.74   4
  -4  -6  13   22.14    7.59   1
   4   6 -13    6.43    9.19   2
  -3  -6  13    9.43    5.96   1
   3   6 -13   14.34   10.54   2
   2   6 -13   -0.01    3.46   3
   2   6 -13    8.91   10.20   2
  -2  -6  13   -2.18    3.57   1
   1   6 -13  178.02   18.52   2
  -1  -6  13  185.04   15.05   1
   1   6 -13  168.73   12.26   3
   0   6 -13  193.05   18.74   2
   0   6 -13  170.07   13.32   3
   0  -6  13  184.11   14.39   1
  -1   6 -13   52.56   11.95   2
  -1   6 -13   49.32    9.23   3
   2  -6  13  367.07   19.24   1
  -2   6 -13  341.79   23.21   2
  -2   6 -13  383.16   22.94   3
  -3   6 -13   -0.31    5.15   3
  -3   6 -13   15.27    9.70   2
   3  -6  13    8.03    4.30   1
  -4   6 -13  559.11   31.13   3
   4  -6  13  487.13   23.17   1
  -4   6 -13  549.84   28.06   2
  -5   6 -13   64.91   13.03   2
  -5   6 -13   46.73   11.57   3
  -6   6 -13   79.48   14.86   3
  -7   6 -13    0.70    5.79   3
  -8   6 -13   34.90   11.40   3
  -9   6 -13   55.41   14.71   3
 -10   6 -13   -2.88    6.56   3
 -11   6 -13   15.11   10.57   3
 -12   6 -13    8.46    9.32   3
 -13   6 -13   -8.78    9.57   3
  14   5 -13   -0.04    6.59   1
  13   5 -13    2.78    7.38   1
  12   5 -13    6.04   10.00   1
  11   5 -13   32.90   12.49   1
  10   5 -13  149.20   21.51   1
   9   5 -13  133.98   19.61   2
   9   5 -13  155.34   20.55   1
   8   5 -13   -0.80    8.01   2
   7   5 -13   15.30   10.14   2
  -7  -5  13    7.22    5.12   4
  -7  -5  13   19.48    8.94   1
  -6  -5  13   -2.70    5.03   1
   6   5 -13    5.17   10.21   2
  -6  -5  13    9.71    6.08   4
  -5  -5  13  263.25   20.19   4
   5   5 -13  264.42   21.42   2
  -5  -5  13  245.85   20.84   1
  -4  -5  13  328.12   22.04   4
   4   5 -13  379.33   24.57   2
  -4  -5  13  310.23   22.48   1
  -3  -5  13  129.40   14.31   4
   3   5 -13  118.74   16.48   2
  -3  -5  13  118.69   14.49   1
   2   5 -13  467.56   18.41   3
   2   5 -13  433.03   26.68   2
  -2  -5  13  432.61   24.74   1
   1   5 -13   24.78    9.54   2
  -1  -5  13   29.71    7.10   1
   1   5 -13   28.58    5.82   3
   0   5 -13    0.13    2.14   3
   0   5 -13   11.91    9.50   2
   0  -5  13    8.75    3.61   1
  -1   5 -13  134.29   15.90   2
   1  -5  13  129.63   10.95   1
  -1   5 -13  138.24   13.31   3
   2  -5  13   -2.15    2.89   1
  -2   5 -13   -3.19    8.15   2
  -2   5 -13   -1.02    4.40   3
  -3   5 -13   84.41   12.91   3
  -3   5 -13   83.00   13.17   2
   3  -5  13   75.45    8.38   1
  -4   5 -13   -6.40    8.93   2
  -4   5 -13   -1.80    5.20   3
   4  -5  13    5.45    3.70   1
  -5   5 -13   29.01    9.00   3
  -5   5 -13   38.00   11.56   2
  -6   5 -13   47.75   11.82   2
  -6   5 -13   64.18   13.41   3
  -7   5 -13    4.16    6.56   3
  -8   5 -13   47.49   12.44   3
  -9   5 -13   56.19   13.90   3
 -10   5 -13   93.00   18.09   3
 -11   5 -13   25.16   10.67   3
 -12   5 -13   41.01   13.50   3
 -13   5 -13    2.99    9.17   3
  14   4 -13   -4.68    5.18   1
  13   4 -13    8.84    9.55   1
  12   4 -13   68.66   15.60   1
  11   4 -13   61.20   15.29   1
  10   4 -13   95.54   18.08   1
   9   4 -13  108.49   17.79   1
   9   4 -13   86.36   15.67   2
   8   4 -13    0.08    8.60   2
   8   4 -13   -0.26    8.10   1
   7   4 -13   28.60   11.03   1
   7   4 -13   20.44   10.23   2
   6   4 -13    0.71    9.14   2
   6   4 -13    4.00    7.08   1
   5   4 -13   -6.35    6.70   1
   5   4 -13    3.16    9.34   2
  -4  -4  13   57.81   10.83   4
  -4  -4  13   47.82   10.85   1
   4   4 -13   70.89   13.84   2
  -3  -4  13  129.13   14.73   1
   3   4 -13  107.08   14.64   2
  -3  -4  13  126.98   13.83   4
  -2  -4  13   88.30   12.02   1
  -2  -4  13   96.46   11.57   4
   2   4 -13   97.39   14.17   2
   2   4 -13  104.68    7.34   3
   1   4 -13   10.03    4.03   3
  -1  -4  13    2.41    4.10   1
   1   4 -13   15.34    9.43   2
   0   4 -13  267.41   15.54   3
   0   4 -13  269.17   19.20   2
   1  -4  13   22.90    5.43   1
  -1   4 -13   21.99    6.24   3
  -1   4 -13   19.43    9.47   2
  -2   4 -13  358.23   21.72   2
  -2   4 -13  371.74   21.26   3
   2  -4  13  370.49   17.01   1
  -3   4 -13  401.81   24.17   3
  -3   4 -13  410.42   23.95   2
   3  -4  13  462.06   18.56   1
  -4   4 -13  258.94   19.60   3
   4  -4  13  229.17   12.21   1
  -4   4 -13  242.89   18.83   2
  -5   4 -13   33.37   11.37   2
  -5   4 -13   38.81   10.04   3
  -6   4 -13  133.40   16.10   2
  -6   4 -13  149.54   18.89   3
  -7   4 -13  134.92   15.88   2
  -7   4 -13  102.78   16.67   3
  -8   4 -13   97.19   17.74   3
  -9   4 -13   10.10    7.02   3
 -10   4 -13   57.97   14.64   3
 -11   4 -13   -3.20    6.55   3
 -12   4 -13   88.32   18.98   3
 -13   4 -13   29.72   12.65   3
 -14   4 -13   55.64   15.99   3
  14   3 -13   -3.33    5.95   1
  13   3 -13    1.99    7.48   1
  12   3 -13   16.93   10.96   1
  11   3 -13    1.58    8.90   1
  10   3 -13   36.36   12.29   1
   9   3 -13  447.21   30.87   1
   9   3 -13  520.65   31.29   2
   8   3 -13   49.10   13.06   1
   8   3 -13   36.41   11.88   2
   7   3 -13   26.49   11.11   1
   7   3 -13   24.53   11.12   2
   6   3 -13  538.22   30.23   2
   6   3 -13  552.92   30.63   1
   5   3 -13   19.66   10.09   2
   5   3 -13    3.65    7.41   1
   4   3 -13  267.52   21.00   2
   4   3 -13  260.10   18.73   1
   3   3 -13  104.57   12.69   1
   3   3 -13  131.25   15.08   2
   2   3 -13  184.35   16.16   2
  -2  -3  13  174.74   13.74   4
  -2  -3  13  174.68   14.65   1
   2   3 -13  178.88    9.04   3
   1   3 -13    2.90    3.34   3
  -1  -3  13    6.54    4.26   1
  -1  -3  13   12.87    4.51   4
   1   3 -13    2.14    7.06   2
   0   3 -13  106.21   13.36   2
   0  -3  13   98.30   10.05   1
   0   3 -13  109.84    9.47   3
  -1   3 -13    7.33    3.77   3
  -1   3 -13   26.32    9.25   2
   1  -3  13   25.83    5.40   1
  -2   3 -13  354.72   21.19   2
  -2   3 -13  360.47   20.42   3
   2  -3  13  352.64   15.70   1
  -3   3 -13  172.59   14.80   3
   3  -3  13  171.52    9.26   1
  -3   3 -13  155.98   16.41   2
  -4   3 -13  134.21   15.62   3
  -4   3 -13  103.71   13.92   2
  -5   3 -13   23.06    9.48   2
  -5   3 -13   19.03    7.80   3
  -6   3 -13  243.93   20.55   3
  -6   3 -13  243.81   19.12   2
  -7   3 -13   25.44    9.35   2
  -7   3 -13   19.05    8.22   3
  -8   3 -13   86.58   15.61   3
  -8   3 -13   63.14   12.38   2
  -9   3 -13  253.95   26.37   3
 -10   3 -13   26.59   10.35   3
 -11   3 -13  136.43   22.38   3
 -12   3 -13   72.99   16.43   3
 -13   3 -13    0.05    6.85   3
 -14   3 -13   12.26   10.52   3
  14   2 -13   -1.94    6.27   1
  13   2 -13   -5.45    6.75   1
  12   2 -13   -1.28    8.07   1
  11   2 -13    3.89    8.64   1
  10   2 -13  218.01   24.25   1
  10   2 -13  182.39   20.50   2
   9   2 -13   13.48    8.54   2
   9   2 -13    4.35    9.11   1
   8   2 -13   74.90   15.13   1
   8   2 -13   66.70   13.68   2
   7   2 -13   56.77   13.08   1
   7   2 -13   38.33   10.88   2
   6   2 -13    1.37    8.33   2
   6   2 -13   14.70    8.46   1
   5   2 -13   56.70   12.63   2
   5   2 -13   65.01   12.08   1
   4   2 -13    9.03    7.40   1
   4   2 -13   22.96    9.79   2
   3   2 -13   53.82   10.10   1
   3   2 -13   35.80   10.42   2
   2   2 -13  165.86   15.74   2
   2   2 -13  208.97    9.44   3
   2   2 -13  182.78   13.93   1
   1   2 -13   14.60    3.96   3
   1   2 -13   11.74    8.23   2
   1   2 -13   15.10    5.93   1
   0   2 -13  142.86   14.41   2
   0  -2  13  137.45   10.23   4
   0   2 -13  164.36   11.32   3
   0  -2  13  158.74   11.37   1
   1  -2  13   56.59    6.86   1
  -1   2 -13   69.28   11.86   2
  -2   2 -13   33.19    7.36   3
  -2   2 -13   20.53    9.04   2
   2  -2  13   25.31    4.29   1
   3  -2  13  997.57   29.33   1
  -3   2 -13  973.22   40.07   3
  -3   2 -13  953.23   40.48   2
  -4   2 -13    5.56    4.78   3
  -4   2 -13   11.48    7.96   2
  -5   2 -13  733.32   35.68   3
  -5   2 -13  659.89   32.73   2
  -6   2 -13    4.24    6.65   2
  -6   2 -13    3.94    5.49   3
  -7   2 -13  109.59   16.48   3
  -7   2 -13  112.14   14.26   2
  -8   2 -13    5.28    6.38   3
  -8   2 -13    8.85    6.73   2
  -9   2 -13   12.58    7.40   2
  -9   2 -13   14.60    8.13   3
 -10   2 -13   98.33   18.10   3
 -11   2 -13   25.64   10.56   3
 -12   2 -13   14.58    9.29   3
 -13   2 -13  160.84   24.68   3
 -14   2 -13   -5.24    7.50   3
 -15   2 -13   61.55   17.67   3
  13   1 -13   -1.23    5.39   1
  12   1 -13    8.66   10.10   1
  11   1 -13   11.56    9.30   1
  10   1 -13   17.13    8.76   2
  10   1 -13    2.71    8.66   1
   9   1 -13  105.85   15.60   2
   9   1 -13  115.79   18.71   1
   8   1 -13  111.76   15.57   2
   8   1 -13  121.89   18.01   1
   7   1 -13   -8.18    6.40   1
   7   1 -13   -4.35    7.52   2
   6   1 -13  678.07   33.28   2
   6   1 -13  677.37   34.51   1
   5   1 -13   -7.98    6.55   2
   5   1 -13    4.34    7.73   1
   4   1 -13   -0.77    6.92   2
   4   1 -13    5.59    7.11   1
   3   1 -13    0.37    6.80   2
   3   1 -13    4.08    6.20   1
   2   1 -13  259.55   16.34   1
   2   1 -13  248.69   18.57   2
   1   1 -13  410.60   19.28   1
   1   1 -13  397.01   23.04   2
   0   1 -13   98.59   13.01   2
   0   1 -13   81.59    8.51   1
   1  -1  13   79.88    7.59   1
  -1   1 -13   63.95   11.83   2
   1  -1  13   73.00    6.96   4
  -2   1 -13  123.03   14.05   2
   2  -1  13  128.38    7.68   1
  -3   1 -13   -4.75    5.82   2
  -4   1 -13  316.06   20.64   2
  -5   1 -13    3.34    5.29   2
  -6   1 -13  169.42   16.28   2
  -7   1 -13  743.89   35.34   2
  -8   1 -13    9.90    6.74   3
  -8   1 -13   14.07    6.93   2
  -9   1 -13   59.32   11.44   2
  -9   1 -13   51.52   12.93   3
 -10   1 -13   71.88   12.79   2
 -10   1 -13  102.71   18.76   3
 -11   1 -13  230.75   27.08   3
 -12   1 -13  145.92   22.87   3
 -13   1 -13    5.48    7.85   3
 -14   1 -13    7.40    8.84   3
 -15   1 -13   22.60   12.20   3
  13   0 -13    3.82    5.57   1
  12   0 -13   43.46   14.68   1
  11   0 -13   10.06    9.31   1
  10   0 -13  335.58   27.96   1
   9   0 -13  167.32   17.77   2
   9   0 -13  144.87   20.36   1
   8   0 -13   14.75    8.75   2
   8   0 -13   39.03   12.65   1
   7   0 -13   56.47   13.59   1
   7   0 -13   72.85   13.00   2
   6   0 -13   14.35    9.17   2
   6   0 -13   10.14    8.79   1
   5   0 -13   10.30    8.57   2
   5   0 -13   14.66    9.28   1
   4   0 -13  139.19   15.07   2
   4   0 -13  152.15   15.76   1
   3   0 -13   24.53    7.59   1
   3   0 -13   17.76    8.41   2
   2   0 -13  491.24   23.63   1
   2   0 -13  488.90   25.71   2
   1   0 -13  103.09   10.40   1
   1   0 -13   90.18   12.36   2
   0   0 -13  111.79    9.73   1
   0   0 -13  116.82   13.83   2
  -1   0 -13  280.97   13.16   1
  -1   0 -13  254.00   18.65   2
  -2   0 -13   47.97   10.73   2
  -2   0 -13   50.84    5.47   1
  -3   0 -13  372.71   22.45   2
  -4   0 -13    5.39    5.33   2
  -5   0 -13    7.18    5.26   2
  -6   0 -13    8.85    5.71   2
  -7   0 -13    1.90    5.47   2
  -8   0 -13   17.94    7.57   2
  -9   0 -13   30.16    9.10   2
 -10   0 -13  127.83   16.68   2
 -11   0 -13  328.18   24.44   2
 -11   0 -13  325.45   27.83   3
 -12   0 -13   42.60   13.07   3
 -13   0 -13  296.76   31.92   3
 -14   0 -13   12.97    8.99   3
 -15   0 -13    8.94    9.17   3
  13  -1 -13    5.61    5.80   1
  12  -1 -13   17.17   12.02   1
  11  -1 -13   10.79   10.77   1
  10  -1 -13   80.65   17.28   1
   9  -1 -13   -4.94    7.81   1
   8  -1 -13   74.45   12.75   2
   8  -1 -13   40.77   12.05   1
   7  -1 -13   52.96   11.49   2
   7  -1 -13   24.73   10.86   1
   6  -1 -13  195.95   19.99   1
   6  -1 -13  167.79   16.35   2
   5  -1 -13  468.80   25.55   2
   5  -1 -13  494.66   28.03   1
   4  -1 -13    7.62    7.95   2
   4  -1 -13    3.47    6.42   1
   3  -1 -13   31.64    8.79   1
   3  -1 -13   49.95   10.44   2
   2  -1 -13   65.26   10.08   1
   2  -1 -13   77.40   11.66   2
   1  -1 -13    1.64    7.42   2
   1  -1 -13    4.73    5.61   1
   0  -1 -13  204.00   16.45   2
   0  -1 -13  160.29   11.54   1
  -1  -1 -13   92.81    8.18   1
  -1  -1 -13   77.04   12.40   2
  -2  -1 -13   30.29    4.81   1
  -2  -1 -13   30.63    8.76   2
  -3  -1 -13  117.25   13.67   2
  -4  -1 -13  354.82   22.11   2
  -5  -1 -13  111.87   14.22   2
  -6  -1 -13   -4.80    4.68   2
  -7  -1 -13  414.36   26.06   2
  -8  -1 -13  122.06   15.98   2
  -9  -1 -13   23.78    8.41   2
 -10  -1 -13  232.53   22.43   2
 -11  -1 -13   10.98    6.92   2
 -12  -1 -13   88.41   15.54   2
 -13  -1 -13  -10.73    5.53   3
 -14  -1 -13   18.18   10.50   3
 -15  -1 -13   18.99   10.06   3
 -16  -1 -13    6.38    8.96   3
  13  -2 -13   -5.13    5.50   1
  12  -2 -13    8.48    9.91   1
  11  -2 -13   14.26   10.43   1
  10  -2 -13   14.15   10.34   1
   9  -2 -13    7.35    9.11   1
   8  -2 -13   -4.72    7.20   1
   7  -2 -13   53.63   13.33   1
   6  -2 -13    3.89    6.85   2
   6  -2 -13   -4.64    7.64   1
   5  -2 -13    2.22    8.26   1
   5  -2 -13    9.65    8.10   2
   4  -2 -13  389.56   24.35   1
   4  -2 -13  368.12   21.68   2
   3  -2 -13    9.83    7.78   2
   3  -2 -13    2.59    7.21   1
   2  -2 -13  143.75   14.29   2
   2  -2 -13  185.80   15.14   1
   1  -2 -13  635.05   27.48   1
   1  -2 -13  643.59   30.62   2
   0  -2 -13  292.42   15.87   1
   0  -2 -13  299.14   20.05   2
  -1  -2 -13  392.64   23.28   2
  -1  -2 -13  405.24   18.03   1
  -2  -2 -13   68.10   11.15   2
  -2  -2 -13   67.46    6.91   1
  -3  -2 -13   31.99    8.66   2
  -3  -2 -13   20.04    3.97   1
  -4  -2 -13   28.74    7.91   2
  -5  -2 -13    3.41    5.55   2
  -6  -2 -13  258.56   19.98   2
  -7  -2 -13   33.08    9.02   2
  -8  -2 -13   65.01   13.30   2
  -9  -2 -13   99.68   16.20   2
 -10  -2 -13   36.00   10.04   2
 -11  -2 -13  299.39   24.96   2
 -12  -2 -13   -4.76    5.76   2
 -15  -2 -13   14.31    9.54   3
 -16  -2 -13   -4.11    7.86   3
  12  -3 -13    3.84    5.34   1
  11  -3 -13   16.78   13.24   1
  10  -3 -13   96.73   18.50   1
   9  -3 -13  224.94   25.28   1
   8  -3 -13  148.26   20.28   1
   7  -3 -13  111.76   18.05   1
   6  -3 -13   29.11   10.60   1
   6  -3 -13    7.39    8.11   2
   4  -3 -13   13.33    7.77   2
   4  -3 -13    5.62    8.20   1
   3  -3 -13  108.63   13.02   2
   3  -3 -13  120.22   14.90   1
   2  -3 -13   13.60    8.87   2
   2  -3 -13    4.36    6.41   1
   1  -3 -13   13.89    7.25   1
   1  -3 -13    9.22    7.30   2
   0  -3 -13  276.53   16.87   1
   0  -3 -13  254.72   19.27   2
  -1  -3 -13  118.30   10.81   1
  -1  -3 -13  121.12   14.09   2
  -2  -3 -13  177.17   15.74   2
  -2  -3 -13  168.35   11.26   1
  -3  -3 -13    9.33    6.13   2
  -3  -3 -13    9.16    4.22   1
  -4  -3 -13   11.02    6.30   2
  -4  -3 -13    5.81    3.59   1
  -5  -3 -13  342.14   23.31   2
  -6  -3 -13  115.83   16.04   2
  -7  -3 -13   14.60    6.96   2
  -8  -3 -13  561.32   34.02   2
  -9  -3 -13   70.34   14.72   2
 -10  -3 -13  134.42   20.07   2
 -11  -3 -13   48.40   12.72   2
 -12  -3 -13   -5.85    5.66   2
 -13  -3 -13   13.17    9.01   2
 -16  -3 -13   32.78   13.03   3
  12  -4 -13    2.47    6.81   1
  11  -4 -13   -4.32    8.61   1
  10  -4 -13    5.33    9.90   1
   9  -4 -13   13.59   10.65   1
   8  -4 -13   49.52   14.49   1
   7  -4 -13   15.82   10.13   1
   6  -4 -13   43.14   12.23   1
   5  -4 -13   -1.37    7.16   2
   5  -4 -13    7.80    8.07   1
   3  -4 -13  222.57   16.78   2
   3  -4 -13  246.15   19.70   1
   2  -4 -13   60.77   11.61   2
   2  -4 -13   41.68   10.81   1
   1  -4 -13  432.53   23.91   1
   1  -4 -13  458.06   25.69   2
   0  -4 -13   36.52    8.59   1
   0  -4 -13   29.66    8.73   2
  -1  -4 -13   84.48   10.11   1
  -1  -4 -13  106.10   13.48   2
  -2  -4 -13  185.43   16.66   2
  -2  -4 -13  179.14   12.51   1
  -3  -4 -13    8.98    5.39   2
  -3  -4 -13    8.00    4.79   1
  -4  -4 -13   38.29    5.94   1
  -4  -4 -13   25.59    8.71   2
  -5  -4 -13   20.36    8.04   2
  -6  -4 -13    5.19    5.18   2
  -7  -4 -13   11.50    7.42   2
  -8  -4 -13    8.97    6.60   2
  -9  -4 -13   38.12   11.25   2
 -10  -4 -13  112.10   19.03   2
 -11  -4 -13   18.40    9.22   2
 -12  -4 -13   66.71   15.57   2
 -13  -4 -13   96.53   19.29   2
 -14  -4 -13  240.02   29.95   2
  11  -5 -13   -1.00    4.66   1
  10  -5 -13   92.05   19.26   1
   9  -5 -13  153.16   23.59   1
   8  -5 -13    3.73    9.68   1
   7  -5 -13   96.97   17.88   1
   6  -5 -13   81.72   16.39   1
   5  -5 -13   41.76   12.53   1
   4  -5 -13   -1.75    8.33   1
   4  -5 -13   -6.88    6.70   2
   3  -5 -13    2.64    4.01   2
   3  -5 -13   19.65    9.80   1
   2  -5 -13    8.71    8.40   1
   2  -5 -13   -0.62    7.22   2
   1  -5 -13   19.11    8.86   2
   1  -5 -13   39.49   10.04   1
   0  -5 -13   91.22   12.32   1
   0  -5 -13   97.10   13.05   2
  -1  -5 -13   92.13   11.43   1
  -1  -5 -13  105.42   13.88   2
  -2  -5 -13   13.31    6.74   2
  -2  -5 -13    9.88    5.82   1
  -3  -5 -13  474.50   21.14   1
  -3  -5 -13  449.63   27.24   2
  -4  -5 -13    2.06    5.13   2
  -4  -5 -13    3.25    4.02   1
  -5  -5 -13  349.87   16.29   1
  -5  -5 -13  330.86   24.43   2
  -6  -5 -13  310.78   24.21   2
  -7  -5 -13    2.04    6.49   2
  -8  -5 -13  129.37   19.65   2
  -9  -5 -13   30.08   11.47   2
 -10  -5 -13  121.72   20.48   2
 -11  -5 -13   25.78   11.17   2
 -12  -5 -13   11.24    9.16   2
 -13  -5 -13   13.99    9.18   2
 -14  -5 -13   40.47   14.25   2
 -15  -5 -13   61.94   18.07   2
  11  -6 -13    0.97    6.58   1
  10  -6 -13   25.68   12.51   1
   9  -6 -13    4.87    9.65   1
   8  -6 -13   51.17   14.75   1
   7  -6 -13    0.81    7.95   1
   6  -6 -13  105.34   18.75   1
   5  -6 -13    1.51    8.12   1
   4  -6 -13    9.28    9.99   1
   3  -6 -13  265.44   21.94   1
   3  -6 -13  276.79   20.39   2
   2  -6 -13   10.91    8.49   1
   2  -6 -13   -3.40    2.90   2
   1  -6 -13   28.76    9.44   2
   1  -6 -13   33.88   10.56   1
   0  -6 -13   99.34   13.40   2
   0  -6 -13   91.22   12.63   1
  -1  -6 -13    9.71    6.75   2
  -1  -6 -13    5.46    6.58   1
  -2  -6 -13   17.47    6.46   1
  -2  -6 -13   13.51    6.57   2
  -3  -6 -13   18.27    7.86   2
  -3  -6 -13   12.91    6.13   1
  -4  -6 -13  142.44   17.61   2
  -4  -6 -13  161.40   12.04   1
  -5  -6 -13   12.75    5.36   1
  -5  -6 -13   14.19    7.39   2
  -6  -6 -13   65.24   13.73   2
  -7  -6 -13   44.84   12.61   2
  -8  -6 -13  182.55   23.66   2
  -9  -6 -13  283.61   29.20   2
 -10  -6 -13   41.35   12.94   2
 -11  -6 -13   79.74   18.13   2
 -12  -6 -13  206.00   28.29   2
 -13  -6 -13    6.23    9.22   2
 -14  -6 -13  116.45   23.87   2
 -15  -6 -13    8.28    9.66   2
 -16  -6 -13   19.85   13.61   2
  10  -7 -13    8.76   10.09   1
   9  -7 -13   64.30   17.73   1
   8  -7 -13    2.41    8.76   1
   7  -7 -13   79.62   18.39   1
   6  -7 -13    5.06    9.63   1
   5  -7 -13  -10.64    7.93   1
   4  -7 -13  172.74   20.90   1
   3  -7 -13   -6.67    7.04   1
   2  -7 -13   37.69   10.74   2
   2  -7 -13   39.72   11.28   1
   1  -7 -13   15.64    7.14   2
   1  -7 -13   38.97   10.88   1
   0  -7 -13   49.54   10.55   2
   0  -7 -13   32.36   10.39   1
  -1  -7 -13  292.06   19.80   1
  -1  -7 -13  325.31   21.95   2
  -2  -7 -13   25.89    8.06   1
  -2  -7 -13   23.53    8.22   2
  -3  -7 -13  208.81   14.93   1
  -3  -7 -13  203.25   19.99   2
  -4  -7 -13  105.47   15.83   2
  -4  -7 -13  118.96   11.90   1
  -5  -7 -13   35.39   10.57   2
  -5  -7 -13   42.92    8.22   1
  -6  -7 -13  141.09   19.60   2
  -7  -7 -13   33.74   10.83   2
  -8  -7 -13  114.46   19.47   2
  -9  -7 -13  128.57   21.52   2
 -10  -7 -13   31.70   11.68   2
 -11  -7 -13  117.10   22.28   2
 -12  -7 -13   26.55   11.50   2
 -13  -7 -13   -2.01    6.75   2
 -14  -7 -13   -3.94    8.02   2
 -15  -7 -13   33.03   14.80   2
 -16  -7 -13   33.19   16.19   2
   9  -8 -13   -5.01   10.85   1
   8  -8 -13   21.90   12.76   1
   7  -8 -13   59.10   16.35   1
   6  -8 -13   12.79   11.48   1
   5  -8 -13  299.19   28.80   1
   4  -8 -13   71.03   15.34   1
   3  -8 -13   92.63   16.15   1
   2  -8 -13   15.38    9.00   1
   1  -8 -13  132.23   17.26   1
   1  -8 -13   70.90   12.05   2
   0  -8 -13   75.47   12.53   2
   0  -8 -13   56.25   12.26   1
  -1  -8 -13   20.34    8.09   2
  -1  -8 -13    6.38    7.07   1
  -2  -8 -13   13.47    7.24   1
  -2  -8 -13   10.94    7.07   2
  -3  -8 -13   26.70    8.04   1
  -3  -8 -13   23.30    8.31   2
  -4  -8 -13   29.08    7.85   1
  -4  -8 -13   43.39   10.61   2
  -5  -8 -13   10.11    6.51   2
  -5  -8 -13    3.14    5.08   1
  -6  -8 -13    7.69    6.94   2
  -6  -8 -13    9.81    5.09   1
  -7  -8 -13   15.96    9.13   2
  -8  -8 -13   55.01   14.62   2
  -9  -8 -13   -5.17    6.44   2
 -10  -8 -13  332.41   34.96   2
 -11  -8 -13   48.77   16.13   2
 -12  -8 -13  142.39   26.50   2
 -13  -8 -13   25.39   13.07   2
 -14  -8 -13   -5.11    9.20   2
 -15  -8 -13   25.20   12.64   2
   9  -9 -13   51.53   17.08   1
   8  -9 -13    2.64    9.34   1
   7  -9 -13   43.87   14.85   1
   6  -9 -13    2.24   10.09   1
   5  -9 -13   25.11   11.76   1
   4  -9 -13   14.12   10.99   1
   3  -9 -13   -5.94    7.24   1
   2  -9 -13   95.19   16.68   1
   1  -9 -13  251.99   23.63   1
   0  -9 -13    5.14    4.43   2
   0  -9 -13   -1.97    6.51   1
  -1  -9 -13  134.53   16.28   2
  -1  -9 -13  150.16   17.00   1
  -2  -9 -13   21.66    8.15   1
  -2  -9 -13   24.73    8.65   2
  -3  -9 -13   20.23    7.95   2
  -3  -9 -13    6.88    6.81   1
  -4  -9 -13  467.03   31.04   2
  -4  -9 -13  476.13   25.68   1
  -5  -9 -13    8.30    6.95   2
  -5  -9 -13    2.66    5.61   1
  -6  -9 -13   93.16   12.46   1
  -6  -9 -13  114.37   19.33   2
  -7  -9 -13   21.13    9.99   2
  -8  -9 -13   24.82   12.04   2
  -9  -9 -13   18.93    9.75   2
 -10  -9 -13   29.33   12.65   2
 -11  -9 -13   35.35   13.70   2
 -12  -9 -13   34.54   14.54   2
 -13  -9 -13    9.68   10.30   2
 -14  -9 -13   -4.86   11.21   2
 -15  -9 -13    4.06   11.92   2
   8 -10 -13   18.22   13.41   1
   7 -10 -13   44.77   15.03   1
   6 -10 -13   25.34   11.51   1
   5 -10 -13  119.36   21.75   1
   4 -10 -13   46.82   14.17   1
   3 -10 -13   -3.37    8.01   1
   2 -10 -13  145.91   20.08   1
   1 -10 -13   25.32   10.16   1
   0 -10 -13   58.34   13.28   1
  -1 -10 -13   57.15   12.23   1
  -1 -10 -13   36.40   10.02   2
  -2 -10 -13  107.58   15.44   2
  -2 -10 -13  110.26   15.17   1
  -3 -10 -13   25.55    8.53   1
  -3 -10 -13   15.96    7.54   2
  -4 -10 -13    1.37    5.75   2
  -4 -10 -13    7.02    6.72   1
  -5 -10 -13   37.45   11.09   2
  -5 -10 -13   36.08    8.98   1
  -6 -10 -13   -2.01    6.65   2
  -6 -10 -13    6.46    6.35   1
  -7 -10 -13   33.41   12.03   2
  -8 -10 -13   57.22   14.71   2
  -9 -10 -13   10.11    8.54   2
 -10 -10 -13  139.64   25.72   2
 -11 -10 -13   58.20   17.15   2
 -12 -10 -13   29.92   13.67   2
 -13 -10 -13  190.72   33.17   2
 -14 -10 -13   16.93   13.50   2
   7 -11 -13   17.83   13.05   1
   6 -11 -13   11.52   10.45   1
   5 -11 -13    8.94   10.37   1
   4 -11 -13   -6.45    8.28   1
   3 -11 -13  -10.58    6.71   1
   2 -11 -13   25.65   10.59   1
   1 -11 -13   18.75   10.13   1
   0 -11 -13   46.85   12.20   1
  -1 -11 -13    7.11    7.62   1
  -2 -11 -13  196.26   19.93   1
  -2 -11 -13  233.09   20.20   2
  -3 -11 -13   40.21   10.61   1
  -3 -11 -13   40.40   10.69   2
  -4 -11 -13  164.83   17.74   1
  -4 -11 -13  139.81   20.04   2
  -5 -11 -13   57.28   11.40   1
  -5 -11 -13   50.78   12.90   2
  -6 -11 -13   75.11   12.92   1
  -6 -11 -13   31.17   12.21   2
  -7 -11 -13   68.17   16.86   2
  -8 -11 -13    1.35    7.69   2
  -9 -11 -13    1.03    7.07   2
 -10 -11 -13    4.81    8.58   2
 -11 -11 -13   -0.42    8.46   2
 -12 -11 -13   12.59    9.76   2
 -13 -11 -13   15.13   14.50   2
 -14 -11 -13   96.61   26.61   2
   5 -12 -13    0.94   11.08   1
   4 -12 -13   32.98   13.12   1
   3 -12 -13   -3.41    7.25   1
   2 -12 -13   36.29   11.96   1
   1 -12 -13  153.86   21.16   1
   0 -12 -13   11.96    8.95   1
  -1 -12 -13   12.39    8.82   1
  -2 -12 -13   11.24    8.00   1
  -3 -12 -13    1.89    6.72   2
  -3 -12 -13   -7.03    6.04   1
  -4 -12 -13    8.16    7.91   2
  -4 -12 -13    5.67    7.44   1
  -5 -12 -13   29.74   11.34   2
  -5 -12 -13   25.32    9.64   1
  -6 -12 -13   56.52   12.32   1
  -6 -12 -13   50.04   14.32   2
  -7 -12 -13    6.53    8.50   2
  -8 -12 -13   83.58   19.07   2
  -9 -12 -13   48.57   15.55   2
 -10 -12 -13    7.41   10.56   2
 -11 -12 -13    9.98   11.21   2
 -12 -12 -13   -9.19    5.72   2
 -13 -12 -13  121.12   28.62   2
   4 -13 -13   12.98   11.42   1
   3 -13 -13    6.48    9.83   1
   2 -13 -13   28.28   12.54   1
   1 -13 -13    7.14    9.31   1
   0 -13 -13    2.39    8.53   1
  -1 -13 -13   27.11   11.74   1
  -2 -13 -13    5.49    7.13   1
  -3 -13 -13  105.39   17.30   1
  -4 -13 -13   14.01    8.59   2
  -4 -13 -13    0.04    7.23   1
  -5 -13 -13   65.59   15.46   2
  -5 -13 -13   62.17   13.65   1
  -6 -13 -13   40.35   14.04   2
  -6 -13 -13   33.54   11.13   1
  -7 -13 -13   -1.38    7.58   2
  -8 -13 -13   14.85   10.61   2
  -9 -13 -13   -0.94    9.47   2
 -10 -13 -13   -5.89    7.66   2
 -11 -13 -13   -7.65    7.69   2
 -12 -13 -13   -2.76    8.81   2
   3 -14 -13    5.63   10.69   1
   2 -14 -13   29.22   13.65   1
   1 -14 -13   71.27   16.56   1
   0 -14 -13   12.30   10.19   1
  -1 -14 -13   17.26    9.99   1
  -2 -14 -13    7.18    8.44   1
  -3 -14 -13   -3.39    7.41   1
  -4 -14 -13   13.73    9.48   1
  -5 -14 -13    8.20    7.66   2
  -5 -14 -13   -4.91    7.73   1
  -6 -14 -13   90.89   16.44   1
  -6 -14 -13   67.61   17.07   2
  -7 -14 -13   87.14   19.08   2
  -8 -14 -13   -0.26    8.95   2
  -9 -14 -13   13.14   10.93   2
 -10 -14 -13    2.31    6.76   2
 -11 -14 -13  -10.99    8.50   2
   1 -15 -13   15.70   12.29   1
   0 -15 -13   28.80   13.00   1
  -1 -15 -13    4.02    8.99   1
  -2 -15 -13   24.05   11.79   1
  -3 -15 -13   51.42   12.88   1
  -4 -15 -13   12.80    8.98   1
  -5 -15 -13   10.98    9.42   1
  -6 -15 -13   -7.88    7.39   1
  -7 -15 -13   -4.92    9.31   2
  -8 -15 -13   15.75    9.90   2
  -9 -15 -13   -1.98    8.53   2
 -10 -15 -13   36.81   15.98   2
  -2 -16 -13    4.71   10.95   1
  -3 -16 -13    6.57    9.94   1
  -4 -16 -13   25.29   11.74   1
  -5 -16 -13   57.84   15.39   1
  -6 -16 -13    7.56    9.76   1
  -8 -16 -13    4.71   10.29   2
  -9 -16 -13   -0.29   10.61   2
  -3 -16  14   20.96   10.74   1
  -2 -16  14   -1.91    8.53   1
  -1 -16  14   11.78    9.89   1
   0 -16  14   22.22   10.93   1
  -6 -15  14    3.48    6.72   1
  -5 -15  14   16.86    9.26   1
  -4 -15  14   -3.04    7.61   1
  -3 -15  14   67.64   15.54   1
  -2 -15  14   36.20   11.72   1
  -1 -15  14    0.63    7.93   1
   0 -15  14   66.93   15.15   1
   1 -15  14  -10.28    6.75   1
  -2  15 -14   61.55   15.21   3
  -8 -14  14   -2.52    5.97   1
  -7 -14  14    3.43    5.35   1
  -5 -14  14   10.39    8.41   1
  -4 -14  14   39.99   12.50   1
  -3 -14  14   26.32   10.56   1
  -2 -14  14    0.95    7.13   1
  -1 -14  14    2.83    6.51   1
   0 -14  14    0.36    7.13   1
  -1  14 -14   -0.43    7.24   3
   1 -14  14    5.23    6.83   1
  -2  14 -14    0.72    7.35   3
  -3  14 -14   -8.35    5.99   3
  -4  14 -14    2.29    9.02   3
  -9 -13  14   -3.87    6.07   1
  -8 -13  14    4.42    7.63   1
  -7 -13  14    1.20    8.08   1
  -6 -13  14   -0.67    6.98   1
  -5 -13  14  -10.85    5.00   1
  -4 -13  14   51.90   13.34   1
  -3 -13  14   20.92    9.60   1
  -2 -13  14  138.57   20.07   1
  -1 -13  14    7.03    6.60   1
   0 -13  14   48.29   12.46   1
   0  13 -14   43.00   12.32   3
   1 -13  14   -0.03    6.26   1
  -1  13 -14    4.01    7.21   3
  -2  13 -14  101.43   17.56   3
  -3  13 -14   96.46   16.80   3
  -4  13 -14   -0.20    7.12   3
  -5  13 -14    0.73    4.33   3
  -6  13 -14    1.24    5.29   3
 -10 -12  14   -5.63    5.69   1
  -9 -12  14    5.01    8.30   1
  -8 -12  14  161.07   25.38   1
  -7 -12  14   -0.15    7.53   1
  -6 -12  14   22.46   11.21   1
  -5 -12  14   61.96   14.93   1
  -4 -12  14  136.68   20.94   1
  -3 -12  14   -6.18    5.11   1
  -2 -12  14   12.55    7.20   1
   2  12 -14   30.44   13.36   2
   1  12 -14    7.01    6.12   3
   1  12 -14   14.99   11.93   2
  -1 -12  14    0.02    5.08   1
   0 -12  14    2.63    5.50   1
   0  12 -14   -3.29    5.81   3
  -1  12 -14   -1.59    6.33   3
   1 -12  14    0.98    6.15   1
   2 -12  14   39.90   10.81   1
  -2  12 -14   21.34    9.26   3
  -3  12 -14    7.30    7.95   3
  -4  12 -14   11.70    8.05   3
  -5  12 -14   10.87    9.52   3
  -6  12 -14   -4.16    4.28   3
  -7  12 -14   -1.34    4.26   3
 -11 -11  14   -9.41    6.45   1
 -10 -11  14    3.48    7.07   1
  -9 -11  14   26.90   12.79   1
  -8 -11  14    7.06    8.20   1
  -7 -11  14   11.75    8.45   1
  -6 -11  14   83.55   17.40   1
   5  11 -14   11.61   11.08   2
  -5 -11  14    7.86    7.45   1
  -4 -11  14   58.54   13.58   1
   4  11 -14   51.60   15.38   2
  -3 -11  14    9.90    6.99   1
   3  11 -14   12.96   11.72   2
  -2 -11  14  141.97   18.92   1
   2  11 -14  170.25   21.48   2
   1  11 -14   32.18    9.23   3
   1  11 -14   25.82   12.56   2
  -1 -11  14   25.06    8.56   1
   0  11 -14   35.71    9.77   3
   0 -11  14   30.45    9.51   1
   0  11 -14   27.23   11.77   2
  -1  11 -14  106.46   15.43   3
   1 -11  14  135.00   16.98   1
   2 -11  14   34.85    8.91   1
  -2  11 -14   20.43    9.33   3
  -3  11 -14   57.49   13.21   3
  -4  11 -14    0.36    6.44   3
  -5  11 -14    3.39    5.89   3
  -6  11 -14   -0.69    7.45   3
  -7  11 -14   -1.60    6.00   3
  -8  11 -14   -7.22    4.28   3
 -12 -10  14    0.05    7.04   1
 -11 -10  14   -0.66    5.21   1
 -10 -10  14   79.68   17.97   1
  -9 -10  14   12.90    9.64   1
  -8 -10  14  422.71   33.50   1
  -7 -10  14   -1.00    6.88   1
   6  10 -14   15.68   11.93   2
  -6 -10  14    5.14    7.87   1
  -5 -10  14   37.90   11.28   1
   5  10 -14   37.30   13.57   2
   4  10 -14   68.31   16.51   2
  -4 -10  14   40.96   11.56   1
   3  10 -14   -8.52    8.81   2
  -3 -10  14    4.23    5.11   1
  -2 -10  14    2.97    5.53   1
   2  10 -14   -3.56    9.65   2
   1  10 -14   26.19    7.80   3
   1  10 -14    7.49   10.40   2
  -1 -10  14   10.90    6.52   1
   0  10 -14   75.10   15.72   2
   0 -10  14   79.23   13.38   1
   0  10 -14  110.10   14.08   3
   1 -10  14   73.22   12.64   1
  -1  10 -14   63.06   11.94   3
  -1  10 -14   60.21   14.41   2
   2 -10  14  102.48   14.28   1
  -2  10 -14  100.29   15.09   3
  -3  10 -14   10.83    7.61   3
  -4  10 -14   66.53   14.65   3
  -5  10 -14  247.98   25.16   3
  -6  10 -14    4.24    7.80   3
  -7  10 -14   88.34   17.02   3
  -8  10 -14   -1.90    6.68   3
  -9  10 -14   -2.10    5.36   3
 -12  -9  14   -9.80    4.48   4
 -12  -9  14    2.03    5.66   1
 -11  -9  14   -1.90    6.66   1
 -10  -9  14    1.41    7.62   1
  -9  -9  14    5.95    6.83   1
  -8  -9  14   36.78   12.32   1
   7   9 -14   65.75   17.20   2
  -7  -9  14   40.52   12.03   1
  -6  -9  14    7.19    7.49   1
   6   9 -14   -0.09    9.65   2
  -5  -9  14   10.32    7.18   1
   5   9 -14   -3.31    9.22   2
   4   9 -14   -6.20    9.47   2
  -4  -9  14   19.78    8.30   1
  -3  -9  14    5.54    6.06   1
   3   9 -14   -5.76    9.42   2
   2   9 -14   77.88   16.49   2
  -2  -9  14   81.39   13.96   1
   1   9 -14   62.86   14.13   2
   1   9 -14   77.56   11.32   3
  -1  -9  14   54.21   11.06   1
   0   9 -14  205.83   20.93   2
   0  -9  14  158.57   16.83   1
   0   9 -14  185.46   15.93   3
  -1   9 -14   52.44   14.05   2
   1  -9  14   34.30    8.45   1
  -1   9 -14   35.03    9.59   3
  -2   9 -14  214.66   20.33   2
   2  -9  14  191.17   16.38   1
  -2   9 -14  181.56   18.68   3
  -3   9 -14    9.85    7.08   3
  -4   9 -14   38.68   11.12   3
  -5   9 -14   14.48    8.49   3
  -6   9 -14   -2.61    6.25   3
  -7   9 -14    6.15    7.01   3
  -8   9 -14   10.82    8.39   3
  -9   9 -14    7.42    7.39   3
 -10   9 -14   -2.09    4.61   3
 -13  -8  14  162.86   26.27   1
 -13  -8  14  103.13   19.95   4
 -12  -8  14    0.06    5.78   1
 -12  -8  14   -5.43    4.71   4
 -11  -8  14    4.26    6.16   4
 -11  -8  14   12.91    9.20   1
 -10  -8  14   42.18   12.66   1
 -10  -8  14   56.54   13.58   4
  -9  -8  14    6.53    7.58   1
  -9  -8  14   15.96    7.73   4
  -8  -8  14    4.54    6.72   1
   8   8 -14   10.36   10.48   2
   7   8 -14  551.43   36.92   2
  -7  -8  14  673.85   39.96   1
   6   8 -14   77.31   16.85   2
  -6  -8  14   81.08   16.05   1
   5   8 -14   22.65   12.48   2
  -5  -8  14   18.96    8.47   1
   4   8 -14   10.11   11.42   2
  -4  -8  14    1.25    4.99   1
   3   8 -14  156.82   20.79   2
  -3  -8  14  204.24   20.65   1
  -2  -8  14    0.69    4.21   1
   2   8 -14    6.48   10.93   2
   1   8 -14   -0.15    2.61   3
   1   8 -14   -6.61   10.03   2
  -1  -8  14   -1.12    3.98   1
   0   8 -14   48.79   14.38   2
   0  -8  14   49.28    9.71   1
   0   8 -14   49.57    9.91   3
  -1   8 -14  116.61   14.37   3
   1  -8  14   97.74   12.71   1
  -1   8 -14   79.63   15.76   2
  -2   8 -14  190.23   18.63   3
   2  -8  14  171.41   14.42   1
  -2   8 -14  179.22   19.34   2
  -3   8 -14  225.94   20.18   2
  -3   8 -14  204.53   19.87   3
  -4   8 -14   73.85   13.90   3
  -5   8 -14  614.52   35.79   3
  -6   8 -14  198.53   23.16   3
  -7   8 -14    7.82    7.69   3
  -8   8 -14  142.10   22.47   3
  -9   8 -14   22.11   10.46   3
 -10   8 -14   -6.68    6.44   3
 -11   8 -14    1.60   10.43   3
 -13  -7  14   14.52   10.10   1
 -13  -7  14   20.15   10.35   4
 -12  -7  14    2.13    5.72   4
 -12  -7  14   -3.46    4.92   1
 -11  -7  14    1.70    5.97   4
 -11  -7  14   13.63    9.06   1
 -10  -7  14    0.80    7.56   1
 -10  -7  14    0.07    6.16   4
  -9  -7  14   23.25    9.83   1
  -9  -7  14   38.65   10.09   4
  -8  -7  14   -6.49    5.21   1
  -8  -7  14   10.89    6.51   4
   8   7 -14    3.55    7.97   2
  -7  -7  14    8.60    6.80   1
  -7  -7  14    3.61    5.32   4
   7   7 -14  -17.34    5.88   2
  -6  -7  14  114.03   16.59   4
  -6  -7  14   73.57   14.34   1
   6   7 -14   76.68   16.01   2
   5   7 -14    3.45   10.61   2
  -5  -7  14    8.71    6.76   1
  -4  -7  14   96.62   15.42   1
   4   7 -14  113.63   18.49   2
  -3  -7  14    5.40    4.74   1
   3   7 -14    4.81   10.65   2
   2   7 -14   73.08   14.89   2
   2   7 -14   75.99    8.84   3
  -2  -7  14   80.10   13.36   1
   1   7 -14  130.34   17.76   2
  -1  -7  14  102.89   13.70   1
   1   7 -14  111.84   11.32   3
   0  -7  14   41.42    8.77   1
   0   7 -14   75.96   15.22   2
   0   7 -14   62.99   10.04   3
   1  -7  14   17.02    6.08   1
  -1   7 -14   31.59    8.65   3
  -1   7 -14    7.05   11.33   2
   2  -7  14    3.84    3.52   1
  -2   7 -14   15.33   11.19   2
  -2   7 -14   16.60    7.28   3
  -3   7 -14   26.22   12.29   2
   3  -7  14   44.51    8.02   1
  -3   7 -14   15.77    7.87   3
  -4   7 -14   -2.54    9.86   2
  -4   7 -14    0.83    5.62   3
  -5   7 -14   -1.55    5.26   3
  -6   7 -14  145.09   20.07   3
  -7   7 -14  144.43   20.86   3
  -8   7 -14   10.99    7.86   3
  -9   7 -14   55.53   14.85   3
 -10   7 -14   20.14    9.83   3
 -11   7 -14   22.22   10.98   3
 -12   7 -14   61.11   18.32   3
 -13  -6  14   -9.54    8.23   1
 -13  -6  14   -2.45    6.58   4
 -12  -6  14    2.83    6.84   1
 -12  -6  14    1.61    5.23   4
 -11  -6  14   13.40    8.84   1
 -11  -6  14    6.52    6.42   4
 -10  -6  14  265.06   28.46   1
 -10  -6  14  249.39   25.74   4
   9   6 -14   50.87   13.52   2
  -9  -6  14   33.86   11.30   1
  -9  -6  14   32.26    9.82   4
  -8  -6  14    8.95    5.98   4
  -8  -6  14   -2.21    5.39   1
   8   6 -14    6.21    9.46   2
  -7  -6  14  262.92   24.35   4
   7   6 -14  304.43   25.16   2
  -7  -6  14  282.00   26.50   1
   6   6 -14    9.84   11.12   2
  -6  -6  14   12.85    5.98   4
  -6  -6  14    3.97    5.92   1
  -5  -6  14   76.02   13.42   4
   5   6 -14   52.27   14.37   2
  -5  -6  14   88.84   15.04   1
  -4  -6  14   19.21    7.37   1
  -4  -6  14    8.81    4.99   4
   4   6 -14   -3.07    8.83   2
  -3  -6  14   98.27   14.52   1
   3   6 -14   95.45   16.41   2
  -2  -6  14  181.72   16.85   1
   2   6 -14  137.54   18.17   2
   2   6 -14  161.74   11.06   3
  -1  -6  14   57.84   10.31   1
   1   6 -14   75.62   14.34   2
   1   6 -14   77.73    9.29   3
   0   6 -14   81.95   15.22   2
   0  -6  14   88.16   11.25   1
  -1   6 -14   63.02   10.39   3
  -1   6 -14   79.74   13.72   2
  -2   6 -14   49.61   13.05   2
  -2   6 -14   56.48   10.91   3
   2  -6  14   49.86    8.14   1
   3  -6  14  497.03   23.23   1
  -3   6 -14  542.41   29.68   3
  -3   6 -14  522.58   28.57   2
  -4   6 -14    6.25    6.11   3
  -4   6 -14   24.65   11.53   2
  -5   6 -14  138.39   18.19   3
  -5   6 -14  129.55   15.70   2
  -6   6 -14   27.64    9.37   3
  -7   6 -14   16.31    7.75   3
  -8   6 -14    9.48    7.95   3
  -9   6 -14   60.35   14.97   3
 -10   6 -14   -7.71    5.12   3
 -11   6 -14    8.67    9.22   3
 -12   6 -14    2.97    9.53   3
  13   5 -14   -0.27    5.09   1
  12   5 -14   54.24   15.05   1
  11   5 -14    9.50    9.94   1
  10   5 -14   21.93   10.96   1
   9   5 -14   56.30   13.92   2
   9   5 -14   57.90   14.63   1
   8   5 -14  -17.73    6.99   2
  -7  -5  14   38.32    9.77   4
   7   5 -14   54.98   14.40   2
  -7  -5  14   65.65   13.59   1
   6   5 -14  291.10   24.21   2
  -6  -5  14  342.79   25.67   1
  -6  -5  14  344.70   24.27   4
   5   5 -14   94.42   16.07   2
  -5  -5  14  101.14   14.64   4
  -5  -5  14   75.36   14.03   1
  -4  -5  14   34.61    9.59   1
   4   5 -14   33.41   11.85   2
  -4  -5  14   31.03    8.65   4
   3   5 -14  321.53   24.61   2
  -3  -5  14  362.14   23.19   1
  -3  -5  14  354.05   21.94   4
  -2  -5  14    1.14    4.70   1
   2   5 -14    0.28    9.70   2
   2   5 -14    8.38    4.03   3
   1   5 -14  245.34   14.39   3
  -1  -5  14  242.85   16.98   1
   1   5 -14  242.76   20.13   2
   0   5 -14  417.23   24.71   2
   0   5 -14  320.32   18.39   3
  -1   5 -14   19.75   10.25   2
  -1   5 -14    7.20    5.18   3
   1  -5  14   12.03    4.75   1
  -2   5 -14   24.43    7.81   3
   2  -5  14   39.82    6.68   1
  -2   5 -14   33.41   10.89   2
  -3   5 -14   11.14    6.28   3
  -3   5 -14    6.91    9.85   2
   3  -5  14   11.41    4.32   1
  -4   5 -14   45.42   10.50   3
  -4   5 -14   49.57   12.23   2
  -5   5 -14    4.92    9.87   2
  -5   5 -14   19.63    8.37   3
  -6   5 -14   -6.18    4.07   3
  -6   5 -14    3.21    9.52   2
  -7   5 -14  223.75   23.84   3
  -8   5 -14   29.15   10.25   3
  -9   5 -14   48.67   12.78   3
 -10   5 -14  155.31   23.51   3
 -11   5 -14    4.27    8.18   3
 -12   5 -14   41.47   13.53   3
 -13   5 -14   32.41   13.92   3
  13   4 -14    4.51    5.13   1
  12   4 -14   33.37   14.43   1
  11   4 -14   17.95   10.58   1
  10   4 -14   17.50   11.18   2
  10   4 -14   23.09   11.31   1
   9   4 -14   24.98   10.97   2
   9   4 -14    3.45    8.06   1
   8   4 -14   59.10   13.76   1
   8   4 -14   35.60   11.91   2
   7   4 -14   82.28   15.41   1
   7   4 -14   75.97   15.14   2
   6   4 -14   -7.89    6.95   1
   6   4 -14   -3.03    7.50   2
   5   4 -14   12.92   10.47   2
   5   4 -14   26.32    9.40   1
  -4  -4  14    2.08    4.94   4
  -4  -4  14   -4.97    4.38   1
   4   4 -14    3.53    9.79   2
  -3  -4  14  236.35   17.51   4
   3   4 -14  231.54   19.99   2
  -3  -4  14  228.24   18.12   1
   2   4 -14   13.52    3.90   3
   2   4 -14   12.52    9.38   2
  -2  -4  14   10.70    4.81   4
  -2  -4  14    9.84    5.09   1
  -1  -4  14   56.41    9.42   1
   1   4 -14   83.72    8.48   3
   1   4 -14   85.75   13.71   2
   0  -4  14    4.32    3.69   1
   0   4 -14   13.03    4.83   3
   0   4 -14    7.46    9.15   2
  -1   4 -14  706.06   33.46   2
   1  -4  14  733.70   28.17   1
  -1   4 -14  636.59   29.38   3
  -2   4 -14  158.66   16.59   2
   2  -4  14  142.60   10.12   1
  -2   4 -14  168.49   14.17   3
   3  -4  14  546.48   21.13   1
  -3   4 -14  521.89   28.14   2
  -3   4 -14  520.37   28.26   3
  -4   4 -14   56.98   12.30   2
  -4   4 -14   49.32   10.43   3
  -5   4 -14   18.48   10.75   2
  -5   4 -14    1.40    5.47   3
  -6   4 -14   98.58   16.08   3
  -6   4 -14   79.12   14.21   2
  -7   4 -14   10.64    7.01   3
  -7   4 -14   15.37   10.54   2
  -8   4 -14   74.02   15.16   3
  -9   4 -14   86.46   17.43   3
 -10   4 -14    8.69    7.53   3
 -11   4 -14   36.05   13.00   3
 -12   4 -14    5.50    8.29   3
 -13   4 -14    4.45    8.98   3
  13   3 -14   -0.01    4.87   1
  12   3 -14  -13.35    8.40   1
  11   3 -14   -5.55    8.46   1
  10   3 -14   23.22   10.95   1
  10   3 -14   27.47   11.46   2
   9   3 -14    9.47    9.14   1
   9   3 -14    6.78    8.82   2
   8   3 -14   24.67   10.48   2
   8   3 -14   42.21   12.27   1
   7   3 -14  447.76   28.57   2
   7   3 -14  359.28   25.85   1
   6   3 -14  -11.75    5.95   1
   6   3 -14   12.59    9.84   2
   5   3 -14  733.35   36.53   2
   5   3 -14  747.35   35.52   1
   4   3 -14   49.73   10.95   1
   4   3 -14   48.22   12.57   2
   3   3 -14  359.73   21.03   1
   3   3 -14  353.43   23.39   2
   2   3 -14  285.25   12.25   3
   2   3 -14  274.85   21.21   2
  -2  -3  14  265.84   18.50   1
  -2  -3  14  261.41   17.36   4
   1   3 -14   20.02    9.53   2
  -1  -3  14    7.35    3.40   4
  -1  -3  14    5.13    3.43   1
   1   3 -14   11.98    4.28   3
   0   3 -14  257.26   15.09   3
   0   3 -14  229.89   19.26   2
   0  -3  14  256.94   15.34   1
  -1   3 -14  102.19   13.67   2
   1  -3  14  112.57    9.13   1
  -2   3 -14  232.07   18.47   2
  -2   3 -14  211.51   15.57   3
   2  -3  14  227.84   12.06   1
   3  -3  14    5.61    2.97   1
  -3   3 -14    2.02    4.90   3
  -3   3 -14  -12.31    8.08   2
  -4   3 -14   29.49   10.57   2
  -4   3 -14   12.57    6.73   3
  -5   3 -14  253.03   20.50   3
  -5   3 -14  289.44   21.78   2
  -6   3 -14    1.35    4.92   3
  -6   3 -14    1.99    8.39   2
  -7   3 -14   17.89    9.72   2
  -7   3 -14    9.55    6.72   3
  -8   3 -14    8.91    6.46   3
  -8   3 -14   10.91    9.56   2
  -9   3 -14   12.66    7.00   3
 -10   3 -14  274.27   29.19   3
 -11   3 -14  109.63   20.48   3
 -12   3 -14  107.86   21.02   3
 -13   3 -14   33.76   12.28   3
 -14   3 -14   -6.09    8.74   3
  13   2 -14   -2.36    4.54   1
  12   2 -14  -25.77    7.58   1
  11   2 -14  450.07   33.37   1
  10   2 -14   13.45    9.92   1
  10   2 -14   18.82    9.68   2
   9   2 -14   25.39   10.41   2
   9   2 -14   22.40   10.48   1
   8   2 -14  136.24   18.79   1
   8   2 -14  161.39   18.49   2
   7   2 -14    2.46    8.70   2
   7   2 -14   18.08    9.43   1
   6   2 -14  265.66   20.93   1
   6   2 -14  260.46   21.05   2
   5   2 -14   44.00   10.89   1
   5   2 -14   40.34   11.28   2
   4   2 -14    0.41    6.57   1
   4   2 -14    0.44    9.03   2
   3   2 -14  233.11   19.86   2
   3   2 -14  229.64   17.10   1
   2   2 -14   51.96    5.11   3
   2   2 -14   42.28    8.94   1
   2   2 -14   59.68   12.30   2
   1   2 -14  270.68   19.45   2
   1   2 -14  304.47   14.22   3
   1   2 -14  238.50   15.36   1
   0   2 -14  149.06   15.77   2
   0  -2  14  125.79   10.61   1
   0   2 -14  140.01   10.58   3
   0  -2  14  143.58   10.57   4
  -1   2 -14  748.93   34.00   2
   1  -2  14  761.97   27.93   1
  -2   2 -14 1033.45   43.15   2
  -2   2 -14 1041.87   40.69   3
   2  -2  14 1041.10   33.27   1
  -3   2 -14   26.47   10.17   2
   3  -2  14   39.63    4.02   1
  -3   2 -14   31.23    7.72   3
  -4   2 -14  299.63   20.79   3
  -4   2 -14  272.17   20.07   2
  -5   2 -14    2.07    7.33   2
  -5   2 -14    0.29    5.07   3
  -6   2 -14  109.84   14.93   2
  -6   2 -14   88.31   14.81   3
  -7   2 -14   70.41   13.63   3
  -7   2 -14   83.28   13.56   2
  -8   2 -14   -3.21    6.31   2
  -8   2 -14    4.81    6.67   3
  -9   2 -14    2.64    4.63   3
  -9   2 -14   -5.32    5.92   2
 -10   2 -14   -6.07    5.54   3
 -11   2 -14    2.67    6.74   3
 -12   2 -14  130.45   22.05   3
 -13   2 -14   10.03    8.66   3
 -14   2 -14   71.22   17.13   3
  13   1 -14   -8.92    4.41   1
  12   1 -14   30.42   13.34   1
  11   1 -14    5.41    9.17   1
  10   1 -14   31.95   10.97   2
  10   1 -14   -1.94    9.32   1
   9   1 -14   -1.74    6.92   2
   9   1 -14   -0.98    8.27   1
   8   1 -14   31.84   11.58   1
   8   1 -14   36.49   11.37   2
   7   1 -14   16.13    9.70   1
   7   1 -14    7.72    8.45   2
   6   1 -14    0.28    6.95   1
   6   1 -14    7.57    8.75   2
   5   1 -14  263.94   20.47   1
   5   1 -14  283.81   21.39   2
   4   1 -14   50.20   11.83   2
   4   1 -14   28.16    9.28   1
   3   1 -14   49.58   10.18   1
   3   1 -14   55.98   11.55   2
   2   1 -14  841.13   36.75   2
   2   1 -14  851.90   33.78   1
   1   1 -14   70.80   11.92   2
   1   1 -14   80.50    9.70   1
   0   1 -14  109.87   14.01   2
   0   1 -14  125.82   10.71   1
   1  -1  14    7.43    3.37   4
  -1   1 -14   13.49    9.19   2
   1  -1  14    6.75    3.82   1
  -2   1 -14  119.11   14.71   2
   2  -1  14  145.99    8.47   1
   3  -1  14  188.83    7.52   1
  -3   1 -14  195.21   18.25   2
  -4   1 -14  117.97   14.97   2
  -5   1 -14    3.59    6.72   2
  -6   1 -14  303.63   21.13   2
  -7   1 -14   14.39    7.20   2
  -8   1 -14  104.30   16.84   3
  -8   1 -14   79.75   13.42   2
  -9   1 -14   17.73    8.65   3
  -9   1 -14   15.47    7.44   2
 -10   1 -14  396.62   26.57   2
 -10   1 -14  445.78   32.65   3
 -11   1 -14   31.94   12.22   3
 -12   1 -14   -3.52    6.29   3
 -13   1 -14   42.80   13.80   3
 -14   1 -14    2.32    8.00   3
 -15   1 -14    0.41    8.39   3
  13   0 -14    1.44    5.12   1
  12   0 -14   -8.02    7.76   1
  11   0 -14   71.76   16.53   1
  10   0 -14  100.76   18.77   1
   9   0 -14   38.20   11.18   2
   9   0 -14   27.17   12.28   1
   8   0 -14   21.26   10.38   1
   8   0 -14   14.58    8.59   2
   7   0 -14    0.99    7.38   1
   7   0 -14   -3.84    7.36   2
   6   0 -14    2.57    8.27   2
   6   0 -14    5.06    8.37   1
   5   0 -14   83.68   13.44   2
   5   0 -14   69.33   12.89   1
   4   0 -14   44.15   11.10   2
   4   0 -14   48.66   11.39   1
   3   0 -14  109.07   13.91   2
   3   0 -14  104.96   13.23   1
   2   0 -14   -1.93    5.11   1
   2   0 -14    5.76    8.03   2
   1   0 -14   54.67   11.20   2
   1   0 -14   53.27    8.51   1
   0   0 -14  376.86   18.06   1
   0   0 -14  381.90   24.01   2
  -1   0 -14   61.21    6.91   1
  -1   0 -14   50.02   10.90   2
  -2   0 -14  501.30   18.11   1
  -2   0 -14  484.72   27.37   2
  -3   0 -14   60.15   11.61   2
  -4   0 -14   77.06   12.38   2
  -5   0 -14   30.13    8.99   2
  -6   0 -14    5.30    5.48   2
  -7   0 -14  198.87   19.22   2
  -8   0 -14   16.48    7.55   2
  -9   0 -14    2.93    5.85   2
 -10   0 -14   39.92   11.48   2
 -11   0 -14   13.52    8.28   2
 -11   0 -14   26.93   10.43   3
 -12   0 -14  176.81   25.16   3
 -13   0 -14    3.80    7.26   3
 -14   0 -14    9.65    7.90   3
 -15   0 -14   41.68   14.94   3
  13  -1 -14    0.92    5.90   1
  12  -1 -14    0.21    8.27   1
  11  -1 -14   27.95   11.84   1
  10  -1 -14    4.72    8.45   1
   9  -1 -14  122.46   19.85   1
   8  -1 -14   12.54    8.75   2
   8  -1 -14    9.25    8.20   1
   7  -1 -14   14.40    8.39   2
   7  -1 -14   14.51    9.15   1
   6  -1 -14   40.11   12.76   1
   6  -1 -14   59.15   12.05   2
   5  -1 -14    3.83    7.52   1
   5  -1 -14   13.23    8.67   2
   4  -1 -14  699.06   32.84   2
   4  -1 -14  655.80   32.61   1
   3  -1 -14   10.01    8.07   2
   3  -1 -14   10.53    7.87   1
   2  -1 -14  522.48   27.14   2
   2  -1 -14  533.55   25.46   1
   1  -1 -14   13.57    6.36   1
   1  -1 -14   18.35    9.64   2
   0  -1 -14    1.20    7.14   2
   0  -1 -14   10.98    5.61   1
  -1  -1 -14   19.08    8.86   2
  -1  -1 -14   14.03    5.41   1
  -2  -1 -14  689.99   33.43   2
  -2  -1 -14  672.93   23.01   1
  -3  -1 -14    3.07    5.40   2
  -4  -1 -14  351.27   22.69   2
  -5  -1 -14    2.96    5.51   2
  -6  -1 -14  565.96   31.19   2
  -7  -1 -14   -3.96    5.01   2
  -8  -1 -14   18.08    7.89   2
  -9  -1 -14  117.82   16.70   2
 -10  -1 -14    8.33    7.51   2
 -11  -1 -14  249.50   22.20   2
 -12  -1 -14    4.76    7.70   2
 -13  -1 -14    8.57    7.34   3
 -14  -1 -14    7.46    7.62   3
 -15  -1 -14    6.79    8.17   3
  12  -2 -14    0.52    4.66   1
  11  -2 -14   11.58   10.67   1
  10  -2 -14   43.73   13.40   1
   9  -2 -14   15.14   10.05   1
   8  -2 -14   30.40   11.28   1
   7  -2 -14    9.81    8.49   1
   7  -2 -14    8.00    3.68   2
   6  -2 -14   74.67   14.73   1
   6  -2 -14   72.32   12.54   2
   5  -2 -14  121.62   14.76   2
   5  -2 -14  117.39   16.20   1
   4  -2 -14  226.67   19.19   1
   4  -2 -14  189.41   16.55   2
   3  -2 -14  111.66   14.62   1
   3  -2 -14  116.39   14.08   2
   2  -2 -14  205.51   16.34   1
   2  -2 -14  183.29   16.03   2
   1  -2 -14  553.29   25.61   1
   1  -2 -14  534.07   28.87   2
   0  -2 -14   45.89   10.52   2
   0  -2 -14   47.90    8.52   1
  -1  -2 -14  274.83   15.11   1
  -1  -2 -14  318.93   21.72   2
  -2  -2 -14   94.08   13.54   2
  -2  -2 -14   86.91    8.00   1
  -3  -2 -14  140.35    8.35   1
  -3  -2 -14  159.70   16.60   2
  -4  -2 -14  101.44   14.56   2
  -5  -2 -14  668.04   34.41   2
  -6  -2 -14   -4.05    4.83   2
  -7  -2 -14   19.24    7.71   2
  -8  -2 -14  115.64   16.79   2
  -9  -2 -14   22.30    8.85   2
 -10  -2 -14    7.10    7.43   2
 -11  -2 -14  125.16   19.35   2
 -12  -2 -14  172.40   22.54   2
 -15  -2 -14   32.35   11.80   3
  12  -3 -14    3.52    6.10   1
  11  -3 -14   55.53   15.46   1
  10  -3 -14   14.33   10.14   1
   9  -3 -14  361.18   29.34   1
   8  -3 -14  311.84   26.68   1
   7  -3 -14   53.27   13.36   1
   6  -3 -14   10.05    9.44   1
   6  -3 -14    7.84    5.29   2
   5  -3 -14   18.31    8.62   2
   5  -3 -14   23.46   11.15   1
   4  -3 -14  246.42   20.32   1
   4  -3 -14  263.73   18.68   2
   3  -3 -14   49.96   11.11   2
   3  -3 -14   74.49   12.78   1
   2  -3 -14   53.87   11.24   1
   2  -3 -14   51.75   11.93   2
   1  -3 -14  165.41   16.99   2
   1  -3 -14  144.35   14.31   1
   0  -3 -14   71.60   12.66   2
   0  -3 -14   79.40   10.62   1
  -1  -3 -14   -2.57    4.76   1
  -1  -3 -14    2.46    6.23   2
  -2  -3 -14   15.85    7.69   2
  -2  -3 -14   10.00    5.42   1
  -3  -3 -14    5.11    4.58   1
  -3  -3 -14   -0.73    5.46   2
  -4  -3 -14  457.85   27.38   2
  -5  -3 -14    2.91    5.57   2
  -6  -3 -14   12.69    6.60   2
  -7  -3 -14  234.70   20.77   2
  -8  -3 -14  277.31   23.42   2
  -9  -3 -14  248.39   24.64   2
 -10  -3 -14  107.98   18.12   2
 -11  -3 -14  206.44   24.57   2
 -12  -3 -14   -3.43    6.66   2
 -13  -3 -14   33.80   12.11   2
 -16  -3 -14    8.58    8.95   3
  12  -4 -14   10.18    7.37   1
  11  -4 -14   11.89   11.26   1
  10  -4 -14   12.10    9.45   1
   9  -4 -14   12.11    9.32   1
   8  -4 -14   17.86   10.48   1
   7  -4 -14   17.21   10.27   1
   6  -4 -14   22.08   10.56   1
   5  -4 -14   57.68   13.15   1
   5  -4 -14   64.22   11.34   2
   4  -4 -14    2.70    4.67   2
   4  -4 -14   29.38   10.27   1
   3  -4 -14   28.39   10.51   1
   3  -4 -14   21.93    9.57   2
   2  -4 -14  191.64   17.80   2
   2  -4 -14  182.54   17.89   1
   1  -4 -14    0.39    7.52   2
   1  -4 -14    4.43    7.42   1
   0  -4 -14  144.36   13.97   1
   0  -4 -14  155.38   16.83   2
  -1  -4 -14  273.36   20.00   2
  -1  -4 -14  278.50   17.28   1
  -2  -4 -14  177.30   12.67   1
  -2  -4 -14  174.48   17.62   2
  -3  -4 -14   49.12   11.05   2
  -3  -4 -14   48.63    7.41   1
  -4  -4 -14   -0.44    4.73   2
  -4  -4 -14    3.73    4.32   1
  -5  -4 -14  180.69   19.16   2
  -6  -4 -14   14.31    7.39   2
  -7  -4 -14   49.66   11.74   2
  -8  -4 -14   14.53    8.15   2
  -9  -4 -14    0.42    5.99   2
 -10  -4 -14   14.24    9.25   2
 -11  -4 -14   78.77   16.41   2
 -12  -4 -14   88.82   17.78   2
 -13  -4 -14  199.46   26.89   2
 -14  -4 -14    8.14    9.07   2
  11  -5 -14   29.31   13.10   1
  10  -5 -14   27.05   12.93   1
   9  -5 -14   23.95   12.45   1
   8  -5 -14  112.44   20.46   1
   7  -5 -14   -0.68    9.34   1
   6  -5 -14   10.58    9.13   1
   5  -5 -14  104.08   17.62   1
   4  -5 -14    5.63    8.66   2
   4  -5 -14   16.34   10.50   1
   3  -5 -14  278.96   21.99   1
   2  -5 -14  119.00   15.78   2
   2  -5 -14  141.92   16.88   1
   1  -5 -14   16.81    8.92   2
   1  -5 -14   25.36    9.32   1
   0  -5 -14   53.81   11.45   2
   0  -5 -14   49.97   10.58   1
  -1  -5 -14   38.03   10.00   2
  -1  -5 -14   12.49    6.64   1
  -2  -5 -14   90.28   14.32   2
  -2  -5 -14   95.25   10.94   1
  -3  -5 -14  250.06   14.83   1
  -3  -5 -14  220.28   18.94   2
  -4  -5 -14  286.57   21.88   2
  -4  -5 -14  292.65   15.69   1
  -5  -5 -14   36.82    9.95   2
  -6  -5 -14  247.85   21.73   2
  -7  -5 -14  263.27   25.50   2
  -8  -5 -14   24.87    9.20   2
  -9  -5 -14  215.33   25.60   2
 -10  -5 -14   82.21   17.05   2
 -11  -5 -14   23.80   10.87   2
 -12  -5 -14    6.96    7.80   2
 -13  -5 -14   16.06   10.03   2
 -14  -5 -14   73.34   18.67   2
 -15  -5 -14   34.17   14.35   2
  10  -6 -14    7.10   11.24   1
   9  -6 -14    4.79   10.08   1
   8  -6 -14   14.69   12.22   1
   7  -6 -14   49.74   14.63   1
   6  -6 -14    6.66   10.00   1
   5  -6 -14   12.19   10.21   1
   4  -6 -14    3.91    9.12   1
   3  -6 -14   15.25   10.26   1
   3  -6 -14    1.35    9.08   2
   2  -6 -14  287.99   21.45   1
   2  -6 -14  186.41   17.65   2
   1  -6 -14  222.65   19.04   2
   1  -6 -14  211.59   19.25   1
   0  -6 -14  246.43   19.35   2
   0  -6 -14  261.83   19.22   1
  -1  -6 -14   12.23    7.55   1
  -1  -6 -14   13.51    7.27   2
  -2  -6 -14  110.52   12.37   1
  -2  -6 -14  117.73   15.37   2
  -3  -6 -14  138.34   16.83   2
  -3  -6 -14  134.64   12.43   1
  -4  -6 -14    0.86    4.79   2
  -4  -6 -14   -6.07    4.04   1
  -5  -6 -14   13.43    7.58   2
  -6  -6 -14   15.44    7.93   2
  -7  -6 -14  170.03   22.17   2
  -8  -6 -14  148.02   21.89   2
  -9  -6 -14   -8.75    5.57   2
 -10  -6 -14   20.37   10.17   2
 -11  -6 -14  187.28   27.01   2
 -12  -6 -14   99.28   21.19   2
 -13  -6 -14    0.88    8.02   2
 -14  -6 -14   71.32   18.07   2
 -15  -6 -14   -1.73    9.30   2
 -16  -6 -14   85.12   22.09   2
  10  -7 -14   84.40   20.53   1
   9  -7 -14   31.65   13.91   1
   8  -7 -14  188.48   25.71   1
   7  -7 -14    9.57   10.74   1
   6  -7 -14   67.94   16.25   1
   5  -7 -14   42.92   13.46   1
   4  -7 -14   37.84   12.27   1
   3  -7 -14  144.06   19.26   1
   2  -7 -14   90.97   15.61   1
   2  -7 -14   58.19   11.95   2
   1  -7 -14   -9.37    6.00   2
   1  -7 -14   -3.97    6.19   1
   0  -7 -14  216.45   19.35   1
   0  -7 -14  218.44   18.18   2
  -1  -7 -14   -1.94    6.73   1
  -1  -7 -14    5.83    6.58   2
  -2  -7 -14  232.66   17.11   1
  -2  -7 -14  205.15   19.92   2
  -3  -7 -14   24.55    7.87   1
  -3  -7 -14   25.25    8.54   2
  -4  -7 -14   43.49    8.63   1
  -4  -7 -14   31.97    9.86   2
  -5  -7 -14  443.31   30.20   2
  -6  -7 -14    6.66    6.77   2
  -7  -7 -14  261.59   27.02   2
  -8  -7 -14   71.27   16.93   2
  -9  -7 -14   35.38   12.15   2
 -10  -7 -14    6.03    8.34   2
 -11  -7 -14   22.57   11.34   2
 -12  -7 -14   -5.94    6.59   2
 -13  -7 -14   24.07   12.38   2
 -14  -7 -14   13.37   10.69   2
 -15  -7 -14   88.51   22.00   2
 -16  -7 -14   22.65   13.67   2
   9  -8 -14   -7.57    9.29   1
   8  -8 -14   22.90   12.22   1
   7  -8 -14   24.11   12.93   1
   6  -8 -14   98.62   19.27   1
   5  -8 -14    0.09    8.62   1
   4  -8 -14   49.79   13.87   1
   3  -8 -14    2.34    8.43   1
   2  -8 -14   91.65   15.87   1
   1  -8 -14  143.93   17.68   1
   0  -8 -14   -1.48    6.08   2
   0  -8 -14   14.03    8.47   1
  -1  -8 -14   51.84   11.16   1
  -1  -8 -14   63.55   12.78   2
  -2  -8 -14  149.70   15.67   1
  -2  -8 -14  132.96   16.78   2
  -3  -8 -14   74.25   13.54   2
  -3  -8 -14   62.71   11.27   1
  -4  -8 -14   10.83    6.94   2
  -4  -8 -14   17.76    7.11   1
  -5  -8 -14   -1.36    5.20   2
  -5  -8 -14    5.12    5.49   1
  -6  -8 -14   29.44   10.62   2
  -7  -8 -14   70.22   15.96   2
  -8  -8 -14   36.29   12.81   2
  -9  -8 -14   -1.81    6.79   2
 -10  -8 -14   22.87   10.97   2
 -11  -8 -14   46.02   16.11   2
 -12  -8 -14  235.68   32.62   2
 -13  -8 -14    1.58    9.01   2
 -14  -8 -14   39.62   15.09   2
 -15  -8 -14   24.42   12.81   2
   8  -9 -14   25.02   13.58   1
   7  -9 -14   15.69   11.90   1
   6  -9 -14    3.68    8.69   1
   5  -9 -14   18.47   11.29   1
   4  -9 -14   10.09   10.26   1
   3  -9 -14   20.41   10.80   1
   2  -9 -14    4.82    8.39   1
   1  -9 -14   -4.96    6.48   1
   0  -9 -14   90.60   13.94   2
   0  -9 -14   43.15   11.30   1
  -1  -9 -14    8.55    7.96   1
  -1  -9 -14   15.76    7.28   2
  -2  -9 -14    6.09    5.72   2
  -2  -9 -14    1.83    6.62   1
  -3  -9 -14  138.56   15.16   1
  -3  -9 -14  111.23   16.67   2
  -4  -9 -14   13.04    6.76   1
  -4  -9 -14   -5.78    5.08   2
  -5  -9 -14  431.78   24.06   1
  -5  -9 -14  371.17   28.94   2
  -6  -9 -14   55.55   14.29   2
  -7  -9 -14   92.30   18.14   2
  -8  -9 -14    0.62    7.14   2
  -9  -9 -14    9.75    8.23   2
 -10  -9 -14   21.38   11.93   2
 -11  -9 -14   46.81   14.57   2
 -12  -9 -14   70.78   18.88   2
 -13  -9 -14   14.53   11.61   2
 -14  -9 -14   15.48   11.86   2
 -15  -9 -14    7.63   12.42   2
   7 -10 -14   -3.25   11.81   1
   5 -10 -14    7.33    8.91   1
   4 -10 -14    0.47    7.74   1
   3 -10 -14  136.40   20.91   1
   2 -10 -14   81.06   16.48   1
   1 -10 -14   97.55   16.65   1
   0 -10 -14   26.18   10.51   1
  -1 -10 -14   25.54    9.58   1
  -1 -10 -14   23.06    7.96   2
  -2 -10 -14   10.03    6.76   2
  -2 -10 -14   20.80    8.61   1
  -3 -10 -14   15.19    7.56   2
  -3 -10 -14   15.98    7.30   1
  -4 -10 -14   26.82   10.30   2
  -4 -10 -14   26.51    8.77   1
  -5 -10 -14   36.10    9.33   1
  -5 -10 -14   26.84   10.25   2
  -6 -10 -14    6.79    8.73   2
  -7 -10 -14   29.15   11.15   2
  -8 -10 -14   12.35    9.74   2
  -9 -10 -14  128.63   23.15   2
 -10 -10 -14   25.68   13.42   2
 -11 -10 -14   40.43   14.49   2
 -12 -10 -14  190.19   32.10   2
 -13 -10 -14   -2.17   10.53   2
 -14 -10 -14  163.56   33.11   2
   6 -11 -14    5.90   11.96   1
   5 -11 -14   10.80   10.83   1
   4 -11 -14   19.41   10.99   1
   3 -11 -14   21.21   10.98   1
   2 -11 -14    5.93    9.54   1
   1 -11 -14   30.45   11.53   1
   0 -11 -14   39.63   11.82   1
  -1 -11 -14  233.96   22.60   1
  -2 -11 -14    1.19    5.80   2
  -2 -11 -14   -3.59    6.42   1
  -3 -11 -14  182.21   18.55   1
  -3 -11 -14  159.88   20.11   2
  -4 -11 -14   15.43    7.39   1
  -4 -11 -14    3.36    6.65   2
  -5 -11 -14   73.10   15.81   2
  -5 -11 -14   53.56   11.65   1
  -6 -11 -14  149.95   22.87   2
  -7 -11 -14    9.04    9.44   2
  -8 -11 -14   -7.83    6.10   2
  -9 -11 -14    8.10    9.30   2
 -10 -11 -14  -10.10    7.74   2
 -11 -11 -14    1.79    7.93   2
 -12 -11 -14   -1.06   10.11   2
 -13 -11 -14   20.63   13.85   2
   5 -12 -14   85.23   19.35   1
   4 -12 -14   -9.80    8.73   1
   3 -12 -14   18.68   12.35   1
   2 -12 -14   71.80   16.40   1
   1 -12 -14    1.09    7.93   1
   0 -12 -14   34.84   11.22   1
  -1 -12 -14   28.00   11.11   1
  -2 -12 -14    4.80    7.70   1
  -3 -12 -14   23.57    8.81   1
  -3 -12 -14    8.16    7.18   2
  -4 -12 -14   10.66    7.89   1
  -4 -12 -14   -6.89    5.77   2
  -5 -12 -14   23.16    9.40   1
  -5 -12 -14   12.96    8.16   2
  -6 -12 -14    7.29    7.63   2
  -7 -12 -14    9.78   10.14   2
  -8 -12 -14   -4.73    8.18   2
  -9 -12 -14   39.07   15.07   2
 -10 -12 -14  212.44   32.10   2
 -11 -12 -14   -1.80    7.89   2
 -12 -12 -14   -3.42    6.72   2
   4 -13 -14    9.99   12.62   1
   3 -13 -14   -6.53    8.97   1
   2 -13 -14   19.43   10.65   1
   1 -13 -14   -5.26    7.88   1
   0 -13 -14   24.19   11.30   1
  -1 -13 -14    9.97    8.74   1
  -2 -13 -14   18.66   10.43   1
  -3 -13 -14   12.77    8.46   1
  -4 -13 -14   89.19   17.30   2
  -4 -13 -14  114.50   17.85   1
  -5 -13 -14    7.12    8.31   2
  -5 -13 -14   13.78    8.61   1
  -6 -13 -14   34.46   12.20   2
  -7 -13 -14  -10.88    7.05   2
  -8 -13 -14    2.83    8.91   2
  -9 -13 -14    2.45    9.26   2
 -10 -13 -14   -9.94    8.38   2
 -11 -13 -14   -2.87    8.17   2
 -12 -13 -14    2.58    9.15   2
   2 -14 -14   36.28   13.86   1
   1 -14 -14   15.93   10.90   1
   0 -14 -14   44.30   13.69   1
  -1 -14 -14   28.68   11.37   1
  -2 -14 -14    6.28    8.70   1
  -3 -14 -14   -1.25    7.28   1
  -4 -14 -14    2.27    7.58   1
  -5 -14 -14    2.86    8.07   1
  -6 -14 -14   86.27   18.64   2
  -7 -14 -14   30.86   12.82   2
  -8 -14 -14   53.09   15.94   2
  -9 -14 -14    1.89   10.06   2
 -10 -14 -14   -4.82    7.32   2
 -11 -14 -14   -3.36    8.46   2
   0 -15 -14   72.89   18.39   1
  -1 -15 -14    7.70   10.67   1
  -2 -15 -14   17.66   10.29   1
  -3 -15 -14   36.68   12.27   1
  -4 -15 -14   41.97   12.75   1
  -5 -15 -14   18.96   10.04   1
  -7 -15 -14   38.12   13.41   2
  -8 -15 -14   18.01   11.57   2
  -9 -15 -14    2.45   10.81   2
  -2 -16 -14   20.89   12.11   1
  -3 -16 -14   10.52   11.39   1
  -4 -16 -14   10.07    9.36   1
  -5 -16 -14   14.39   11.42   1
  -8 -16 -14   42.82   15.15   2
  -2 -16  15    5.00    9.68   1
  -6 -15  15   33.61   12.58   1
  -5 -15  15  -13.08    7.78   1
  -4 -15  15   11.07    7.45   1
  -3 -15  15   -1.74    6.71   1
  -2 -15  15    4.05    7.86   1
  -1 -15  15   34.34   11.24   1
   0 -15  15    1.13    7.74   1
  -2  15 -15    6.30    9.94   3
  -8 -14  15   -7.04    6.42   1
  -7 -14  15    2.13    7.04   1
  -6 -14  15   24.69    9.74   1
  -5 -14  15   43.53   12.23   1
  -4 -14  15    8.52    7.76   1
  -3 -14  15   17.51    9.30   1
  -2 -14  15   17.89    8.69   1
  -1 -14  15    1.66    6.75   1
   0 -14  15   11.35    7.99   1
  -1  14 -15    7.83    7.92   3
  -2  14 -15   14.00    9.42   3
  -3  14 -15   15.66    9.24   3
  -4  14 -15   -1.04    7.84   3
  -9 -13  15    0.34    7.13   1
  -8 -13  15  -14.14    5.27   1
  -7 -13  15    7.21    7.26   1
  -6 -13  15    0.58    8.26   1
  -5 -13  15   -7.48    6.05   1
  -4 -13  15   16.72    7.43   1
  -3 -13  15  125.99   20.18   1
  -2 -13  15    6.62    6.88   1
  -1 -13  15  147.34   20.65   1
   0 -13  15    2.70    6.70   1
   0  13 -15    1.35    6.42   3
   1 -13  15   71.33   14.23   1
  -1  13 -15   67.22   13.80   3
  -2  13 -15   26.73   10.37   3
  -3  13 -15   14.03    8.17   3
  -4  13 -15   87.62   16.76   3
  -5  13 -15    3.97    9.18   3
 -10 -12  15    5.48    7.67   1
  -9 -12  15    2.73    4.80   1
  -8 -12  15   -8.36    8.20   1
  -7 -12  15  147.24   24.07   1
  -6 -12  15   15.84    9.07   1
  -5 -12  15  165.85   23.71   1
  -4 -12  15   64.12   14.94   1
  -3 -12  15    2.94    6.00   1
   3  12 -15    3.78   11.61   2
  -2 -12  15   18.01    8.50   1
   2  12 -15   17.31   12.28   2
  -1 -12  15    6.28    6.09   1
   1  12 -15   20.94   12.99   2
   0 -12  15   10.65    7.12   1
   0  12 -15   16.81    8.57   3
   1 -12  15   14.49    7.84   1
  -1  12 -15    9.69    7.18   3
  -2  12 -15   23.53    9.83   3
  -3  12 -15   38.86   11.53   3
  -4  12 -15   10.06    7.85   3
  -5  12 -15    5.35    7.88   3
  -6  12 -15   -0.27    4.56   3
  -7  12 -15   -9.03    4.71   3
 -11 -11  15  -10.22    5.38   1
 -10 -11  15    5.10    5.46   1
  -9 -11  15   16.78   10.96   1
  -8 -11  15   -3.98    5.44   1
  -7 -11  15   -2.78    7.88   1
  -6 -11  15   24.51   10.26   1
   5  11 -15    4.71   12.16   2
  -5 -11  15    0.53    7.07   1
  -4 -11  15    2.00    6.21   1
   4  11 -15    8.31   12.08   2
  -3 -11  15  107.27   17.66   1
   3  11 -15  119.87   19.96   2
  -2 -11  15   86.17   15.49   1
   2  11 -15   74.53   17.52   2
  -1 -11  15   16.78    7.57   1
   1  11 -15   17.73   12.02   2
   0  11 -15   81.67   14.01   3
   0  11 -15  107.41   18.79   2
   0 -11  15   97.33   15.27   1
  -1  11 -15   13.70    8.53   3
   1 -11  15   35.98   10.05   1
  -2  11 -15  146.30   18.78   3
  -3  11 -15   -4.52    5.02   3
  -4  11 -15  112.33   17.52   3
  -5  11 -15   11.01    8.71   3
  -6  11 -15    7.08    7.08   3
  -7  11 -15   -3.09    3.76   3
  -8  11 -15   -3.38    4.76   3
 -11 -10  15    0.55    5.16   1
 -10 -10  15   36.38   12.34   1
  -9 -10  15   34.61   11.09   1
  -8 -10  15   51.97   13.95   1
  -7 -10  15   95.50   18.82   1
   6  10 -15   79.04   18.40   2
  -6 -10  15  124.67   20.88   1
   5  10 -15  -10.57   10.14   2
  -5 -10  15    5.10    7.02   1
  -4 -10  15  116.11   18.17   1
   4  10 -15  109.41   19.06   2
   3  10 -15  105.78   19.42   2
  -3 -10  15  121.96   18.44   1
   2  10 -15   27.97   12.41   2
  -2 -10  15    3.52    6.33   1
   1  10 -15   24.98    7.55   3
  -1 -10  15   18.42    7.39   1
   1  10 -15   16.61   11.57   2
   0  10 -15   -3.12    4.86   3
   0  10 -15  -13.47    9.40   2
   0 -10  15    1.54    4.89   1
   1 -10  15    5.10    5.67   1
  -1  10 -15   11.59    6.98   3
  -1  10 -15   27.82   12.14   2
  -2  10 -15   -0.06    6.13   3
  -3  10 -15   51.91   12.49   3
  -4  10 -15  105.74   17.04   3
  -5  10 -15   -0.47    5.91   3
  -6  10 -15   50.09   13.91   3
  -7  10 -15    8.12    9.28   3
  -8  10 -15    1.78    5.10   3
  -9  10 -15    5.75    6.95   3
 -12  -9  15    6.82    6.71   1
 -12  -9  15  -10.28    5.30   4
 -11  -9  15   -8.03    6.26   1
 -10  -9  15   -2.15    6.34   1
  -9  -9  15    2.93    7.31   1
  -8  -9  15   13.64    8.55   1
   7   9 -15   10.83   11.40   2
  -7  -9  15    2.07    7.09   1
  -6  -9  15    9.11    7.03   1
   6   9 -15   20.03   11.98   2
   5   9 -15   22.08   11.79   2
  -5  -9  15   58.25   13.56   1
  -4  -9  15   11.66    7.27   1
   4   9 -15    5.15    9.47   2
   3   9 -15   -8.14    9.17   2
  -3  -9  15    5.12    6.65   1
  -2  -9  15  435.38   28.39   1
   2   9 -15  462.38   31.38   2
  -1  -9  15    3.13    4.53   1
   1   9 -15    8.13   10.73   2
   1   9 -15    1.03    4.77   3
   0  -9  15  493.10   27.72   1
   0   9 -15  440.01   24.85   3
   0   9 -15  434.09   29.17   2
  -1   9 -15   24.17    8.17   3
   1  -9  15   19.67    6.73   1
  -1   9 -15   22.21   11.27   2
  -2   9 -15   15.36   10.16   2
  -2   9 -15   12.35    7.19   3
   2  -9  15   14.28    6.70   1
  -3   9 -15    6.85    6.83   3
  -4   9 -15   17.01    9.11   3
  -5   9 -15    5.79    8.17   3
  -6   9 -15   18.86    8.93   3
  -7   9 -15   21.28   10.17   3
  -8   9 -15   47.23   12.82   3
  -9   9 -15   -7.90    3.91   3
 -10   9 -15   -6.27    4.94   3
 -12  -8  15   -2.15    4.25   4
 -12  -8  15    1.94    5.86   1
 -11  -8  15   12.13    8.97   1
 -11  -8  15   14.89    7.16   4
 -10  -8  15   25.19   10.16   1
 -10  -8  15    2.85    6.28   4
  -9  -8  15   16.84    7.71   4
  -9  -8  15   37.72   11.87   1
   8   8 -15  276.21   28.20   2
  -8  -8  15  272.45   28.59   1
  -8  -8  15  254.98   26.57   4
  -7  -8  15  -11.32    5.11   1
   7   8 -15   -8.54    8.85   2
  -6  -8  15   98.38   17.69   1
   6   8 -15  102.79   19.14   2
   5   8 -15   61.48   15.91   2
  -5  -8  15   82.23   15.57   1
  -4  -8  15  238.26   23.09   1
   4   8 -15  224.62   24.55   2
   3   8 -15   11.75   10.51   2
  -3  -8  15   41.09   10.72   1
  -2  -8  15    5.12    5.62   1
   2   8 -15   -2.87   10.36   2
  -1  -8  15   13.06    5.99   1
   1   8 -15   16.77   11.44   2
   1   8 -15   -1.05    2.84   3
   0  -8  15   99.24   13.65   1
   0   8 -15  122.28   13.53   3
   0   8 -15  113.90   17.58   2
  -1   8 -15   12.36   11.43   2
   1  -8  15    3.15    5.25   1
  -1   8 -15    9.32    5.85   3
  -2   8 -15  319.55   24.28   2
  -2   8 -15  259.48   20.37   3
  -3   8 -15  189.23   19.93   2
  -3   8 -15  222.45   19.20   3
  -4   8 -15  123.08   17.30   3
  -5   8 -15    5.28    7.29   3
  -6   8 -15   35.90   11.66   3
  -7   8 -15  154.43   22.19   3
  -8   8 -15    1.92    6.94   3
  -9   8 -15   43.85   12.72   3
 -10   8 -15   -3.92    4.35   3
 -11   8 -15   -4.17    4.79   3
 -13  -7  15   -1.79    5.08   1
 -13  -7  15    1.58    4.87   4
 -12  -7  15   -0.96    4.39   1
 -12  -7  15    5.72    4.48   4
 -11  -7  15    6.88    6.71   4
 -11  -7  15    5.76    8.56   1
 -10  -7  15    4.64    4.83   4
 -10  -7  15    9.49    7.63   1
  -9  -7  15    4.66    6.00   1
  -9  -7  15   -1.37    4.94   4
   9   7 -15   -7.75    8.28   2
  -8  -7  15   18.37    7.41   4
  -8  -7  15   23.16    9.55   1
   8   7 -15   24.12   11.43   2
   7   7 -15   15.74   10.39   2
  -7  -7  15   30.96   10.23   1
  -7  -7  15   23.63    8.50   4
   6   7 -15    8.68   10.02   2
  -6  -7  15    0.13    5.48   1
  -6  -7  15    4.07    5.91   4
   5   7 -15   67.91   16.17   2
  -5  -7  15   32.03    9.52   1
  -4  -7  15    4.84    5.67   1
   4   7 -15    4.14    9.95   2
  -3  -7  15    0.76    4.90   1
   3   7 -15   -2.11    9.79   2
   2   7 -15   56.96   15.23   2
  -2  -7  15   86.48   13.50   1
  -1  -7  15   87.21   12.93   1
   1   7 -15  109.98   11.19   3
   1   7 -15   78.27   15.95   2
   0   7 -15  172.26   14.25   3
   0  -7  15  190.66   15.58   1
   0   7 -15  180.21   20.08   2
  -1   7 -15  188.05   17.05   3
  -1   7 -15  205.67   20.92   2
  -2   7 -15   69.07   12.46   3
   2  -7  15  113.45   12.11   1
  -2   7 -15   90.82   16.13   2
  -3   7 -15   96.00   15.82   2
  -3   7 -15   97.56   14.78   3
  -4   7 -15    7.80   10.45   2
  -4   7 -15    1.22    5.76   3
  -5   7 -15   19.11    8.18   3
  -6   7 -15   -3.45    5.61   3
  -7   7 -15   12.18    7.98   3
  -8   7 -15   23.04   10.59   3
  -9   7 -15  134.26   22.77   3
 -10   7 -15    5.87    8.58   3
 -11   7 -15   -4.03    4.60   3
 -13  -6  15    5.05    5.57   4
 -13  -6  15    1.78    4.74   1
 -12  -6  15    6.55    6.63   1
 -12  -6  15   -4.05    4.19   4
 -11  -6  15  147.92   22.59   1
 -11  -6  15   99.62   16.93   4
 -10  -6  15  112.50   19.21   1
 -10  -6  15   93.90   16.72   4
  -9  -6  15   62.40   14.13   1
   9   6 -15   68.36   15.81   2
  -9  -6  15   49.79   12.28   4
  -8  -6  15  110.37   17.85   4
  -8  -6  15  128.43   20.40   1
   8   6 -15  145.21   20.42   2
  -7  -6  15   43.01   11.00   4
   7   6 -15   68.12   15.13   2
  -7  -6  15   60.61   13.38   1
   6   6 -15  282.91   24.81   2
  -6  -6  15  247.12   23.37   4
  -6  -6  15  242.35   24.33   1
  -5  -6  15   24.95    9.21   1
  -5  -6  15   17.56    6.75   4
   5   6 -15   27.99   12.07   2
  -4  -6  15    4.83    5.11   1
  -4  -6  15    3.70    4.55   4
   4   6 -15   -4.61    9.92   2
  -3  -6  15   -2.19    4.51   1
   3   6 -15    3.41   10.67   2
   2   6 -15  178.94   20.56   2
  -2  -6  15  167.90   17.01   1
   1   6 -15   44.77    7.80   3
  -1  -6  15   27.16    8.03   1
   1   6 -15   27.10   12.09   2
   0   6 -15   31.85   12.63   2
   0  -6  15   24.30    6.68   1
  -1   6 -15   16.04    6.64   3
   1  -6  15    7.00    4.60   1
  -1   6 -15   13.31   11.39   2
   2  -6  15 1003.26   37.57   1
  -2   6 -15  977.89   43.83   2
  -2   6 -15 1002.81   42.59   3
  -3   6 -15   -3.84    9.99   2
  -3   6 -15   13.11    6.39   3
  -4   6 -15   23.92    8.97   3
  -4   6 -15   30.33   11.69   2
  -5   6 -15    4.82    5.93   3
  -5   6 -15   27.45   11.20   2
  -6   6 -15    5.15    7.23   3
  -7   6 -15  311.40   26.15   3
  -8   6 -15  147.91   22.25   3
  -9   6 -15   18.03    9.06   3
 -10   6 -15   17.97    8.91   3
 -11   6 -15   -6.15    6.38   3
 -12   6 -15   15.40   11.19   3
  13   5 -15    5.05   12.13   1
  12   5 -15   12.90   10.20   1
  11   5 -15   41.49   13.75   1
  10   5 -15   15.57   10.97   2
  10   5 -15    1.33    7.88   1
   9   5 -15   38.59   12.87   1
   9   5 -15   23.29   10.44   2
   8   5 -15   30.26   11.09   2
  -7  -5  15  125.98   17.63   4
   7   5 -15  144.62   19.74   2
  -7  -5  15   90.78   16.65   1
  -6  -5  15  182.24   21.40   1
  -6  -5  15  198.18   20.57   4
   6   5 -15  181.74   21.12   2
  -5  -5  15    0.62    5.29   1
  -5  -5  15    3.33    4.32   4
   5   5 -15    1.00    9.27   2
   4   5 -15  237.05   21.27   2
  -4  -5  15  283.77   20.57   4
  -4  -5  15  242.36   20.03   1
  -3  -5  15    8.25    5.42   4
  -3  -5  15   12.75    6.43   1
   3   5 -15    6.35   10.99   2
   2   5 -15  188.73   20.53   2
  -2  -5  15  236.41   17.94   1
  -1  -5  15  353.01   21.58   1
   1   5 -15  398.14   26.77   2
   1   5 -15  412.59   19.19   3
   0   5 -15   78.27   10.06   3
   0   5 -15   45.28   12.95   2
   1  -5  15  138.37   12.39   1
  -1   5 -15  120.02   16.57   2
  -1   5 -15  135.16   13.76   3
  -2   5 -15  228.93   20.40   2
  -2   5 -15  226.21   17.60   3
   2  -5  15  232.43   14.26   1
  -3   5 -15    0.40    9.52   2
  -3   5 -15   -1.96    5.16   3
  -4   5 -15   52.24   10.99   3
  -4   5 -15   57.41   13.12   2
  -5   5 -15    3.55    5.37   3
  -5   5 -15   12.19   10.77   2
  -6   5 -15  151.18   16.87   2
  -6   5 -15  116.93   17.80   3
  -7   5 -15   12.95    7.40   3
  -8   5 -15    6.82    6.85   3
  -9   5 -15  156.71   23.00   3
 -10   5 -15   12.75    8.04   3
 -11   5 -15   45.20   14.63   3
 -12   5 -15   18.34   10.67   3
 -13   5 -15   61.00   17.93   3
  13   4 -15  136.71   23.54   1
  12   4 -15   31.85   13.35   1
  11   4 -15   34.64   13.59   1
  10   4 -15  149.29   21.28   2
  10   4 -15  135.55   21.25   1
   9   4 -15    3.13    9.30   1
   9   4 -15  -10.69    7.59   2
   8   4 -15   13.98    9.77   2
   8   4 -15   18.51   10.55   1
   7   4 -15  212.40   21.92   1
   7   4 -15  212.57   22.00   2
   6   4 -15   78.55   14.58   1
   6   4 -15   83.68   15.63   2
   5   4 -15  224.89   21.38   2
   5   4 -15  222.89   19.24   1
  -4  -4  15  157.51   16.89   4
   4   4 -15  195.14   20.10   2
  -4  -4  15  177.68   18.82   1
  -3  -4  15   10.03    5.01   4
  -3  -4  15    7.46    5.50   1
   3   4 -15    4.01    9.08   2
  -2  -4  15    2.59    3.97   4
  -2  -4  15    4.66    4.60   1
   2   4 -15   -4.74    8.21   2
   1   4 -15   73.11    8.36   3
   1   4 -15   80.30   14.69   2
  -1  -4  15   47.10    8.70   1
   0   4 -15  116.17   11.44   3
   0   4 -15  103.83   15.29   2
   0  -4  15  115.29   11.56   1
   1  -4  15   55.24    8.25   1
  -1   4 -15   71.98   13.46   2
  -2   4 -15  780.49   36.77   2
  -2   4 -15  794.58   34.94   3
   2  -4  15  783.07   29.26   1
  -3   4 -15   87.37   13.99   2
  -3   4 -15  111.70   14.65   3
  -4   4 -15    8.82   10.14   2
  -4   4 -15   -2.52    3.95   3
  -5   4 -15    6.70    5.41   3
  -5   4 -15    8.29   10.90   2
  -6   4 -15    5.35    5.73   3
  -6   4 -15    0.17    9.69   2
  -7   4 -15   17.35   11.11   2
  -7   4 -15   24.38    9.31   3
  -8   4 -15   60.97   14.58   3
  -9   4 -15   41.35   12.29   3
 -10   4 -15    7.81    8.42   3
 -11   4 -15   -5.87    6.53   3
 -12   4 -15    9.11    8.77   3
 -13   4 -15  -15.85    8.19   3
  13   3 -15   28.87   12.74   1
  12   3 -15    0.66   10.08   1
  11   3 -15    4.28    8.67   1
  10   3 -15    9.42    9.53   2
  10   3 -15   -7.65    8.87   1
   9   3 -15  127.92   18.76   2
   9   3 -15  106.77   18.31   1
   8   3 -15   59.22   13.76   2
   8   3 -15   38.61   12.33   1
   7   3 -15   -3.10    7.66   1
   7   3 -15    5.45    8.93   2
   6   3 -15  291.17   22.78   2
   6   3 -15  282.07   22.72   1
   5   3 -15   54.69   13.45   2
   5   3 -15   18.78    8.59   1
   4   3 -15  832.83   39.76   2
   4   3 -15  822.42   37.02   1
   3   3 -15  120.50   16.28   2
   3   3 -15  153.74   15.16   1
  -2  -3  15   40.22    8.43   4
  -2  -3  15   47.98    9.63   1
   2   3 -15   57.57   12.55   2
   1   3 -15  406.91   18.38   3
   1   3 -15  411.27   25.63   2
   0  -3  15    0.88    3.24   1
   0   3 -15   -0.03    3.16   3
   0   3 -15    9.02    9.51   2
   1  -3  15  301.88   15.89   1
  -1   3 -15  302.93   22.08   2
  -2   3 -15   91.60   12.08   3
   2  -3  15   92.10    7.82   1
  -2   3 -15   82.96   13.86   2
  -3   3 -15   11.81   10.24   2
  -3   3 -15   14.03    6.00   3
  -4   3 -15  187.91   18.63   3
  -4   3 -15  181.74   19.02   2
  -5   3 -15  340.68   24.43   3
  -5   3 -15  390.21   25.66   2
  -6   3 -15   17.92    8.15   3
  -6   3 -15   32.87   11.76   2
  -7   3 -15    2.02    5.44   3
  -7   3 -15    1.64    8.61   2
  -8   3 -15   13.89   10.29   2
  -8   3 -15   21.28    8.73   3
  -9   3 -15  193.47   24.34   3
 -10   3 -15   41.58   12.11   3
 -11   3 -15  317.91   32.69   3
 -12   3 -15  111.69   21.55   3
 -13   3 -15    8.63    9.32   3
 -14   3 -15   37.74   15.63   3
  13   2 -15   10.91   11.63   1
  12   2 -15   67.85   17.45   1
  11   2 -15    8.16    9.70   1
  10   2 -15  159.91   22.30   1
  10   2 -15  162.60   20.29   2
   9   2 -15   -1.64    7.29   1
   9   2 -15    5.18    8.57   2
   8   2 -15   10.35    8.91   1
   8   2 -15    7.68    8.94   2
   7   2 -15    5.62    7.88   1
   7   2 -15    0.16    6.94   2
   6   2 -15   43.41   11.76   1
   6   2 -15   36.54   11.35   2
   5   2 -15  359.91   23.12   1
   5   2 -15  308.27   22.78   2
   4   2 -15   38.38   10.61   1
   4   2 -15   39.55   11.42   2
   3   2 -15    1.81    6.75   1
   3   2 -15   -0.27    7.97   2
   2   2 -15  168.35   17.48   2
   2   2 -15  164.79   14.15   1
   1   2 -15   18.96    4.64   3
   1   2 -15   22.50    9.78   2
   1   2 -15   23.52    6.86   1
   0   2 -15  130.52   10.62   3
   0  -2  15  113.22   11.06   1
   0   2 -15  108.64   15.18   2
   0  -2  15  120.48   10.73   4
  -1   2 -15  224.67   15.52   3
  -1   2 -15  293.92   21.11   2
   1  -2  15  291.62   14.75   1
   2  -2  15  183.04   10.37   1
  -2   2 -15  180.91   18.47   2
  -2   2 -15  189.52   14.76   3
  -3   2 -15  804.12   36.27   3
  -3   2 -15  817.06   38.06   2
  -4   2 -15    9.51    8.75   2
  -4   2 -15    8.30    5.65   3
  -5   2 -15    7.06    8.91   2
  -5   2 -15   12.70    6.52   3
  -6   2 -15   27.00    9.52   3
  -6   2 -15   17.12    9.33   2
  -7   2 -15   70.31   13.53   2
  -7   2 -15   53.27   12.58   3
  -8   2 -15   57.28   12.18   2
  -8   2 -15   38.21   11.40   3
  -9   2 -15   41.62   12.02   3
  -9   2 -15   60.42   13.28   2
 -10   2 -15   -7.07    3.96   3
 -11   2 -15   -0.73    6.67   3
 -12   2 -15   -0.78    6.73   3
 -13   2 -15   70.56   17.28   3
 -14   2 -15  -11.04    7.18   3
  13   1 -15    8.59    6.54   1
  12   1 -15    1.09    7.72   1
  11   1 -15   16.91   10.24   1
  10   1 -15   16.12   11.37   1
   9   1 -15   48.09   11.94   2
   9   1 -15   33.39   11.73   1
   8   1 -15   20.14   10.52   1
   8   1 -15   40.94   11.52   2
   7   1 -15   91.09   15.55   1
   7   1 -15  113.59   15.96   2
   6   1 -15   33.26   11.24   1
   6   1 -15   62.27   13.20   2
   5   1 -15  179.18   18.31   2
   5   1 -15  193.51   18.91   1
   4   1 -15   17.60    8.80   1
   4   1 -15   24.44   10.29   2
   3   1 -15  785.05   34.15   1
   3   1 -15  765.97   35.50   2
   2   1 -15   60.39   12.64   2
   2   1 -15   55.85    9.94   1
   1   1 -15   25.83    7.25   1
   1   1 -15   36.80   11.01   2
   0   1 -15   17.63    9.23   2
   0   1 -15   47.32    7.77   1
   1  -1  15   53.58    6.78   4
  -1   1 -15   76.92   14.50   2
   1  -1  15   70.88    7.83   1
   2  -1  15   11.02    3.58   1
  -2   1 -15   20.60    8.99   2
  -3   1 -15    7.00    8.46   2
  -4   1 -15   14.95    8.52   2
  -5   1 -15   74.63   13.49   2
  -6   1 -15    5.53    7.09   2
  -7   1 -15   -2.69    6.01   2
  -8   1 -15   89.17   16.10   3
  -8   1 -15   91.46   14.24   2
  -9   1 -15  145.11   17.48   2
  -9   1 -15  173.47   22.51   3
 -10   1 -15  354.04   29.10   3
 -10   1 -15  362.59   25.56   2
 -11   1 -15   11.06    8.03   3
 -12   1 -15  145.11   23.46   3
 -13   1 -15    1.74    7.96   3
 -14   1 -15   17.33    9.71   3
  13   0 -15   -0.46    5.88   1
  12   0 -15  114.09   20.36   1
  11   0 -15   18.90   10.90   1
  10   0 -15   21.19   10.88   1
   9   0 -15  253.06   20.65   2
   9   0 -15  192.84   23.95   1
   8   0 -15   -2.37    6.81   2
   8   0 -15    3.88    7.87   1
   7   0 -15   17.97    9.16   2
   7   0 -15   26.23   10.31   1
   6   0 -15  187.56   18.73   2
   6   0 -15  191.73   20.11   1
   5   0 -15   61.90   12.98   1
   5   0 -15   64.26   12.94   2
   4   0 -15  165.35   17.30   1
   4   0 -15  155.68   16.92   2
   3   0 -15   83.46   12.61   1
   3   0 -15   77.27   12.82   2
   2   0 -15    6.40    8.49   2
   2   0 -15   18.21    7.71   1
   1   0 -15   63.85    9.68   1
   1   0 -15   50.61   11.41   2
   0   0 -15  541.42   31.02   2
   0   0 -15  587.08   23.92   1
  -1   0 -15  777.08   37.42   2
  -1   0 -15  831.57   28.51   1
  -2   0 -15   54.34    6.22   1
  -2   0 -15   44.90   11.27   2
  -3   0 -15 1227.24   50.60   2
  -4   0 -15  118.01   15.51   2
  -5   0 -15   19.87    8.22   2
  -6   0 -15  187.03   18.76   2
  -7   0 -15    7.95    5.95   2
  -8   0 -15    1.92    5.93   2
  -9   0 -15    6.91    6.59   2
 -10   0 -15   15.00    7.41   2
 -11   0 -15   83.18   14.96   2
 -11   0 -15   91.99   17.51   3
 -12   0 -15    4.21    7.13   3
 -13   0 -15   57.98   15.64   3
 -14   0 -15   12.80    8.89   3
 -15   0 -15   65.46   18.18   3
  12  -1 -15    8.16   10.54   1
  11  -1 -15   17.78   10.92   1
  10  -1 -15   12.00   11.31   1
   9  -1 -15    9.44   10.22   1
   8  -1 -15  106.31   14.94   2
   8  -1 -15  101.36   17.71   1
   7  -1 -15   67.71   13.90   1
   7  -1 -15   51.71   11.87   2
   6  -1 -15  284.61   21.70   2
   6  -1 -15  294.00   23.07   1
   5  -1 -15  422.03   25.38   2
   5  -1 -15  386.90   25.77   1
   4  -1 -15   12.81    8.70   1
   4  -1 -15    9.53    8.82   2
   3  -1 -15  319.73   21.87   2
   3  -1 -15  280.75   19.90   1
   2  -1 -15   10.83    9.03   2
   2  -1 -15    1.44    6.51   1
   1  -1 -15  125.80   15.71   2
   1  -1 -15  144.92   13.18   1
   0  -1 -15   12.50    6.04   1
   0  -1 -15    8.60    8.69   2
  -1  -1 -15   25.31   10.11   2
  -1  -1 -15   40.94    6.86   1
  -2  -1 -15    5.71    6.89   2
  -2  -1 -15    1.17    3.79   1
  -3  -1 -15   90.48   14.12   2
  -4  -1 -15    4.05    5.69   2
  -5  -1 -15  330.51   23.24   2
  -6  -1 -15  207.98   18.76   2
  -7  -1 -15   21.17    8.43   2
  -8  -1 -15   15.16    7.49   2
  -9  -1 -15   13.02    7.63   2
 -10  -1 -15  198.69   21.83   2
 -11  -1 -15    9.31    7.70   2
 -12  -1 -15   42.94   12.65   2
 -13  -1 -15   36.68   13.76   3
 -14  -1 -15    3.31    8.41   3
 -15  -1 -15   45.15   16.06   3
  12  -2 -15   30.65   14.07   1
  11  -2 -15   45.00   14.44   1
  10  -2 -15    8.18    9.84   1
   9  -2 -15   78.32   16.68   1
   8  -2 -15   63.65   14.23   1
   7  -2 -15   47.34   10.68   2
   7  -2 -15   47.35   12.65   1
   6  -2 -15   45.29   12.36   1
   6  -2 -15   71.34   13.03   2
   5  -2 -15   29.95   10.65   1
   5  -2 -15   41.59   11.08   2
   4  -2 -15   19.77    9.30   2
   4  -2 -15   23.27    9.63   1
   3  -2 -15  257.73   20.09   2
   3  -2 -15  251.96   19.60   1
   2  -2 -15  168.69   16.86   2
   2  -2 -15  146.27   15.06   1
   1  -2 -15   55.99   12.42   2
   1  -2 -15   52.59   10.09   1
   0  -2 -15   65.43   12.91   2
   0  -2 -15   60.79    9.63   1
  -1  -2 -15   87.93    9.50   1
  -1  -2 -15   83.21   14.17   2
  -2  -2 -15  531.54   30.26   2
  -2  -2 -15  579.23   21.84   1
  -3  -2 -15  150.40   16.55   2
  -4  -2 -15 1188.68   49.87   2
  -5  -2 -15   20.18    8.23   2
  -6  -2 -15   82.84   14.04   2
  -7  -2 -15   67.06   13.34   2
  -8  -2 -15   16.97    8.04   2
  -9  -2 -15  135.71   18.94   2
 -10  -2 -15    1.05    6.41   2
 -11  -2 -15   78.10   14.81   2
 -12  -2 -15   48.30   13.85   2
 -13  -2 -15   14.61    9.08   2
 -15  -2 -15   11.42    8.87   3
  12  -3 -15    2.08   11.58   1
  11  -3 -15   24.64   11.82   1
  10  -3 -15   28.19   12.33   1
   9  -3 -15    4.08    8.44   1
   8  -3 -15  150.59   21.56   1
   7  -3 -15    5.64    7.67   1
   6  -3 -15   25.93   10.37   1
   5  -3 -15  127.64   18.21   1
   5  -3 -15  148.45   16.07   2
   4  -3 -15   40.47   10.76   2
   4  -3 -15   30.48   11.02   1
   3  -3 -15   40.28   11.20   2
   3  -3 -15   46.00   11.91   1
   2  -3 -15  494.74   26.62   1
   2  -3 -15  497.73   28.38   2
   1  -3 -15   33.39   11.73   2
   1  -3 -15   36.33    9.73   1
   0  -3 -15   12.05    6.80   1
   0  -3 -15    0.91    8.12   2
  -1  -3 -15   92.82   10.57   1
  -1  -3 -15  101.68   14.87   2
  -2  -3 -15   40.09    9.93   2
  -2  -3 -15   29.04    6.88   1
  -3  -3 -15  310.07   22.24   2
  -4  -3 -15    1.23    6.40   2
  -5  -3 -15  133.80   16.87   2
  -6  -3 -15  126.87   17.20   2
  -7  -3 -15  112.65   16.85   2
  -8  -3 -15  262.23   23.14   2
  -9  -3 -15   55.31   13.44   2
 -10  -3 -15    6.82    7.77   2
 -11  -3 -15   94.05   17.57   2
 -12  -3 -15    5.66    7.92   2
 -13  -3 -15   21.70   11.51   2
  11  -4 -15   40.95   15.13   1
  10  -4 -15    9.24   10.17   1
   9  -4 -15   13.59   10.04   1
   8  -4 -15    8.58    9.15   1
   7  -4 -15    2.03    8.09   1
   6  -4 -15   -5.23    7.15   1
   5  -4 -15   74.23   15.25   1
   4  -4 -15   13.76    9.30   2
   4  -4 -15    8.50    8.64   1
   3  -4 -15  255.18   19.38   2
   3  -4 -15  228.89   20.99   1
   2  -4 -15   26.36   10.89   2
   2  -4 -15    8.99    8.92   1
   1  -4 -15  424.50   24.25   1
   1  -4 -15  371.14   25.14   2
   0  -4 -15  725.91   37.06   2
   0  -4 -15  804.39   33.44   1
  -1  -4 -15   12.20    8.11   2
  -1  -4 -15    9.56    6.66   1
  -2  -4 -15  199.25   19.42   2
  -2  -4 -15  234.59   15.24   1
  -3  -4 -15   -3.29    4.86   2
  -3  -4 -15    5.80    5.37   1
  -4  -4 -15  634.87   34.27   2
  -5  -4 -15   11.62    7.33   2
  -6  -4 -15   44.78   10.82   2
  -7  -4 -15    2.31    5.20   2
  -8  -4 -15    4.90    7.56   2
  -9  -4 -15   11.54    8.10   2
 -10  -4 -15    2.12    6.37   2
 -11  -4 -15  157.93   23.28   2
 -12  -4 -15   43.02   13.27   2
 -13  -4 -15   -2.27    7.61   2
 -14  -4 -15   69.62   17.26   2
  11  -5 -15   25.60   13.05   1
  10  -5 -15    7.26    9.29   1
   9  -5 -15   57.90   16.16   1
   8  -5 -15    5.66   10.54   1
   7  -5 -15  126.10   20.77   1
   6  -5 -15  160.34   21.40   1
   5  -5 -15   33.99   11.75   1
   4  -5 -15  211.42   22.08   1
   3  -5 -15   70.21   12.96   2
   3  -5 -15   75.41   15.11   1
   2  -5 -15  191.22   18.79   2
   2  -5 -15  155.91   17.73   1
   1  -5 -15   14.76    9.28   2
   1  -5 -15   11.61    8.53   1
   0  -5 -15   19.57    8.81   1
   0  -5 -15    6.93    8.27   2
  -1  -5 -15   11.06    6.91   1
  -1  -5 -15    3.71    6.68   2
  -2  -5 -15    2.29    5.44   2
  -2  -5 -15    4.15    6.14   1
  -3  -5 -15  206.12   20.17   2
  -3  -5 -15  273.07   16.03   1
  -4  -5 -15  549.13   32.25   2
  -5  -5 -15  393.21   27.26   2
  -6  -5 -15  492.81   32.05   2
  -7  -5 -15   -1.27    5.71   2
  -8  -5 -15   44.24   12.12   2
  -9  -5 -15  182.58   23.97   2
 -10  -5 -15   22.80   10.96   2
 -11  -5 -15  144.00   23.30   2
 -12  -5 -15   30.67   12.41   2
 -13  -5 -15    5.78    7.97   2
 -14  -5 -15  -13.06    7.50   2
 -15  -5 -15    0.79   10.52   2
  10  -6 -15   43.24   14.69   1
   9  -6 -15   36.81   14.79   1
   8  -6 -15    9.06   10.70   1
   7  -6 -15   17.95   10.90   1
   6  -6 -15   15.98   10.96   1
   5  -6 -15    3.64    8.88   1
   4  -6 -15   98.24   17.30   1
   3  -6 -15  149.93   19.41   1
   2  -6 -15   36.84   11.18   1
   2  -6 -15   38.36   12.10   2
   1  -6 -15  221.81   20.20   1
   1  -6 -15  168.59   18.57   2
   0  -6 -15   98.38   14.85   2
   0  -6 -15   75.86   12.89   1
  -1  -6 -15   36.33   10.59   2
  -1  -6 -15   33.42    9.60   1
  -2  -6 -15  298.35   22.09   2
  -2  -6 -15  308.40   19.55   1
  -3  -6 -15  277.15   17.22   1
  -3  -6 -15  251.23   20.88   2
  -4  -6 -15  206.66   20.82   2
  -5  -6 -15   11.72    7.01   2
  -6  -6 -15  149.44   20.21   2
  -7  -6 -15  148.36   20.88   2
  -8  -6 -15   83.01   16.82   2
  -9  -6 -15   49.41   13.73   2
 -10  -6 -15    8.41    9.05   2
 -11  -6 -15  176.55   26.40   2
 -12  -6 -15   36.65   13.91   2
 -13  -6 -15   36.23   13.92   2
 -14  -6 -15    4.42    9.30   2
 -15  -6 -15   88.35   21.57   2
 -16  -6 -15    9.11   12.15   2
   9  -7 -15  105.68   22.07   1
   8  -7 -15   84.48   19.08   1
   7  -7 -15  131.00   22.79   1
   6  -7 -15   17.23   11.96   1
   5  -7 -15   -0.65    9.51   1
   4  -7 -15    3.97    7.85   1
   3  -7 -15   15.24    9.72   1
   2  -7 -15    2.10    8.08   1
   2  -7 -15   -8.56    3.65   2
   1  -7 -15   -0.73    7.97   1
   1  -7 -15    4.48    8.14   2
   0  -7 -15    3.11    7.64   1
   0  -7 -15   10.21    8.41   2
  -1  -7 -15   53.17   11.77   2
  -1  -7 -15   62.19   12.31   1
  -2  -7 -15   -0.88    5.18   2
  -2  -7 -15   10.45    7.00   1
  -3  -7 -15    0.63    5.59   1
  -3  -7 -15    0.91    4.94   2
  -4  -7 -15  217.70   21.90   2
  -4  -7 -15  234.74   16.27   1
  -5  -7 -15   21.60    8.86   2
  -6  -7 -15  276.93   24.85   2
  -7  -7 -15   99.92   18.40   2
  -8  -7 -15   -4.73    5.95   2
  -9  -7 -15   61.91   16.10   2
 -10  -7 -15   29.45   12.68   2
 -11  -7 -15   -0.78   10.15   2
 -12  -7 -15  116.62   23.26   2
 -13  -7 -15   16.37   10.75   2
 -14  -7 -15    0.79    9.69   2
 -15  -7 -15   -4.97    9.47   2
 -16  -7 -15   52.70   20.60   2
   9  -8 -15    3.81   12.05   1
   8  -8 -15   11.11   12.38   1
   7  -8 -15   34.56   13.63   1
   6  -8 -15   44.76   14.97   1
   5  -8 -15   52.41   15.26   1
   4  -8 -15    7.19    9.31   1
   3  -8 -15   13.42   10.19   1
   2  -8 -15   30.18   11.27   1
   1  -8 -15    1.08    7.43   1
   1  -8 -15    9.31    7.38   2
   0  -8 -15  445.45   27.33   2
   0  -8 -15  448.16   27.92   1
  -1  -8 -15  100.63   15.14   2
  -1  -8 -15  104.79   15.24   1
  -2  -8 -15  139.14   15.43   1
  -2  -8 -15  113.14   16.02   2
  -3  -8 -15  137.17   14.84   1
  -3  -8 -15  130.99   17.84   2
  -4  -8 -15   14.91    6.31   1
  -4  -8 -15    7.78    7.08   2
  -5  -8 -15   39.80   11.41   2
  -6  -8 -15   35.62   10.92   2
  -7  -8 -15   24.57   10.70   2
  -8  -8 -15   61.98   15.77   2
  -9  -8 -15   16.73   10.15   2
 -10  -8 -15    8.69    9.66   2
 -11  -8 -15  306.92   36.01   2
 -12  -8 -15   22.10   12.05   2
 -13  -8 -15   79.25   20.29   2
 -14  -8 -15    7.35   11.80   2
 -15  -8 -15   17.79   13.90   2
   8  -9 -15   29.68   15.21   1
   7  -9 -15   15.85   11.29   1
   6  -9 -15   23.63   12.77   1
   5  -9 -15   26.70   12.44   1
   4  -9 -15   61.21   15.03   1
   3  -9 -15   42.35   13.07   1
   2  -9 -15    6.14    8.50   1
   1  -9 -15   -2.62    6.78   1
   0  -9 -15   61.18   13.37   1
   0  -9 -15   70.65   13.10   2
  -1  -9 -15    7.40    7.35   1
  -1  -9 -15   12.60    6.75   2
  -2  -9 -15  158.53   18.77   2
  -2  -9 -15  168.16   17.60   1
  -3  -9 -15    6.20    6.26   2
  -3  -9 -15   -1.12    6.54   1
  -4  -9 -15  166.83   15.88   1
  -4  -9 -15  155.15   20.13   2
  -5  -9 -15    0.08    6.00   2
  -6  -9 -15  165.63   22.81   2
  -7  -9 -15  100.82   18.85   2
  -8  -9 -15   10.06    8.60   2
  -9  -9 -15  122.72   22.88   2
 -10  -9 -15   44.96   16.00   2
 -11  -9 -15   13.26   11.13   2
 -12  -9 -15   46.87   15.14   2
 -13  -9 -15   12.16   11.27   2
 -14  -9 -15    8.68   11.77   2
   7 -10 -15    3.45   11.37   1
   6 -10 -15    5.50   11.10   1
   5 -10 -15   27.38   13.29   1
   4 -10 -15  124.74   21.22   1
   3 -10 -15    0.93    8.22   1
   2 -10 -15   23.79   10.53   1
   1 -10 -15   24.16   11.00   1
   0 -10 -15  108.23   17.42   1
  -1 -10 -15   55.05   12.49   1
  -1 -10 -15   60.80   12.87   2
  -2 -10 -15   24.72    9.49   1
  -2 -10 -15   14.66    7.77   2
  -3 -10 -15   44.52   10.85   1
  -3 -10 -15   31.19   10.11   2
  -4 -10 -15    1.41    5.21   2
  -4 -10 -15    1.40    5.78   1
  -5 -10 -15   26.22   10.35   2
  -6 -10 -15   11.39    8.45   2
  -7 -10 -15   14.72    9.20   2
  -8 -10 -15   50.63   14.72   2
  -9 -10 -15   -7.76    6.85   2
 -10 -10 -15   15.98   11.93   2
 -11 -10 -15  106.04   23.22   2
 -12 -10 -15   29.05   15.04   2
 -13 -10 -15  110.48   26.50   2
 -14 -10 -15   40.75   17.51   2
   6 -11 -15    7.67   11.70   1
   5 -11 -15   22.80   13.23   1
   4 -11 -15    8.04   10.75   1
   3 -11 -15   19.50   11.18   1
   2 -11 -15    3.20    9.25   1
   1 -11 -15   13.40   10.10   1
   0 -11 -15  112.12   18.54   1
  -1 -11 -15   32.74   11.00   1
  -2 -11 -15  119.75   17.37   2
  -2 -11 -15  108.22   16.49   1
  -3 -11 -15    0.03    6.43   2
  -3 -11 -15   25.77    9.88   1
  -4 -11 -15   -0.31    6.36   2
  -4 -11 -15   -2.74    6.34   1
  -5 -11 -15  239.30   26.26   2
  -6 -11 -15   14.85    8.49   2
  -7 -11 -15   29.73   12.50   2
  -8 -11 -15   14.77    9.41   2
  -9 -11 -15  -10.19    7.77   2
 -10 -11 -15   20.29   12.94   2
 -11 -11 -15   23.12   13.36   2
 -12 -11 -15    7.86    8.83   2
 -13 -11 -15    5.45   11.69   2
   5 -12 -15    8.21   11.23   1
   4 -12 -15   80.73   18.66   1
   3 -12 -15   20.84   10.92   1
   2 -12 -15   10.51    8.90   1
   1 -12 -15  147.58   21.90   1
   0 -12 -15   -4.53    8.02   1
  -1 -12 -15   36.46   11.40   1
  -2 -12 -15    6.68    8.25   1
  -3 -12 -15   -7.91    5.93   2
  -3 -12 -15   -1.16    6.63   1
  -4 -12 -15    1.18    7.07   2
  -4 -12 -15   -2.15    6.68   1
  -5 -12 -15   -4.39    6.66   2
  -6 -12 -15   14.93    9.18   2
  -7 -12 -15    1.40    8.97   2
  -8 -12 -15   10.13    9.99   2
  -9 -12 -15   60.25   16.87   2
 -10 -12 -15   24.31   12.25   2
 -11 -12 -15   -0.25    6.43   2
 -12 -12 -15    1.01    8.29   2
   3 -13 -15   -2.23    9.04   1
   2 -13 -15   -4.87    8.37   1
   1 -13 -15   59.74   15.73   1
   0 -13 -15   -7.57    7.21   1
  -1 -13 -15   -9.85    6.84   1
  -2 -13 -15   41.74   12.34   1
  -3 -13 -15  273.01   25.48   1
  -4 -13 -15    8.68    7.87   1
  -5 -13 -15   51.81   14.59   2
  -6 -13 -15    5.57    8.07   2
  -7 -13 -15   34.96   12.98   2
  -8 -13 -15   33.39   12.79   2
  -9 -13 -15    5.98    9.06   2
 -10 -13 -15   -2.44    6.26   2
 -11 -13 -15    2.14    7.63   2
   2 -14 -15   20.04   12.53   1
   1 -14 -15   83.22   18.00   1
   0 -14 -15  -20.71    7.28   1
  -1 -14 -15   -5.17    8.34   1
  -2 -14 -15    9.41    9.46   1
  -3 -14 -15   16.23    9.82   1
  -4 -14 -15  -11.44    6.62   1
  -6 -14 -15   11.06    8.99   2
  -7 -14 -15   93.38   20.43   2
  -8 -14 -15    8.55    9.66   2
  -9 -14 -15   54.97   15.58   2
 -10 -14 -15    4.58    8.70   2
   0 -15 -15    3.62   10.84   1
  -1 -15 -15   20.42   11.52   1
  -2 -15 -15    5.79    7.97   1
  -3 -15 -15   29.66   12.55   1
  -4 -15 -15   -8.42    7.79   1
  -7 -15 -15   15.49   11.13   2
  -8 -15 -15   -0.40    8.83   2
  -9 -15 -15   -6.74    9.65   2
  -3 -16 -15   15.03   11.59   1
  -4 -16 -15   14.52   10.77   1
  -5 -15  16   -1.36    8.18   1
  -4 -15  16   -5.06    8.19   1
  -3 -15  16   10.64    8.15   1
  -2 -15  16    0.83    6.01   1
  -1 -15  16   26.74   10.51   1
  -2  15 -16   43.83   13.44   3
  -7 -14  16    1.77    8.50   1
  -6 -14  16   26.48   11.38   1
  -5 -14  16    5.81    6.90   1
  -4 -14  16   46.44   13.24   1
  -3 -14  16   30.91    9.75   1
  -2 -14  16    3.97    7.25   1
  -1 -14  16   14.51    8.34   1
  -1  14 -16   11.58    8.79   3
  -2  14 -16   -0.07    6.84   3
  -3  14 -16    2.67    7.36   3
  -4  14 -16   10.07    9.63   3
  -9 -13  16   -0.86    7.13   1
  -8 -13  16  -12.06    5.32   1
  -7 -13  16    3.56    7.16   1
  -6 -13  16    2.90    8.08   1
  -5 -13  16   -6.29    6.29   1
  -4 -13  16   22.73    9.73   1
  -3 -13  16   17.08    8.75   1
  -2 -13  16   80.30   16.07   1
  -1 -13  16   -5.17    5.50   1
   0 -13  16   14.02    8.86   1
  -1  13 -16    4.52    7.67   3
  -2  13 -16   64.29   13.77   3
  -3  13 -16   99.11   16.89   3
  -4  13 -16    2.79    7.60   3
  -5  13 -16   29.88   11.86   3
 -10 -12  16    2.60    6.72   1
  -9 -12  16    7.70    7.57   1
  -7 -12  16   -9.89    7.12   1
  -6 -12  16  126.26   21.26   1
  -5 -12  16   54.17   14.51   1
  -4 -12  16   44.62   12.78   1
   4  12 -16   21.85   14.64   2
  -3 -12  16   72.64   14.81   1
   3  12 -16   56.51   16.68   2
   2  12 -16   26.46   14.67   2
  -2 -12  16   17.00    8.74   1
   1  12 -16   17.88   12.39   2
  -1 -12  16   20.41    8.27   1
   0 -12  16    6.05    6.05   1
  -1  12 -16    6.28    7.59   3
  -2  12 -16   24.71    9.06   3
  -3  12 -16   -1.42    6.18   3
  -4  12 -16    1.24    7.38   3
  -5  12 -16   21.08    9.84   3
  -6  12 -16    6.14    8.34   3
 -10 -11  16    5.19    5.58   1
  -9 -11  16   23.33   10.83   1
  -8 -11  16   39.84   13.36   1
  -7 -11  16  -11.82    6.50   1
  -6 -11  16   -3.88    5.77   1
   6  11 -16   11.36   12.72   2
   5  11 -16   -0.91    9.68   2
  -5 -11  16   -1.02    7.01   1
   4  11 -16   33.94   13.75   2
  -4 -11  16   36.13   10.53   1
   3  11 -16   13.41   11.87   2
  -3 -11  16   -3.81    5.45   1
   2  11 -16   81.45   18.02   2
  -2 -11  16   96.59   16.31   1
   1  11 -16  113.94   19.94   2
  -1 -11  16  145.58   18.80   1
   0  11 -16   18.67    7.80   3
   0  11 -16   11.94   11.54   2
   0 -11  16   14.71    7.16   1
  -1  11 -16  179.74   19.29   3
  -2  11 -16   64.47   13.45   3
  -3  11 -16   39.29   11.17   3
  -4  11 -16   -1.89    6.69   3
  -5  11 -16    1.25    7.28   3
  -6  11 -16   31.44   11.36   3
  -7  11 -16   -5.45    4.41   3
  -8  11 -16   -2.98    5.29   3
 -11 -10  16   -6.81    5.06   1
 -10 -10  16    8.96    6.61   1
  -9 -10  16    0.08    7.25   1
  -8 -10  16   14.68   10.24   1
  -7 -10  16  205.13   26.49   1
   7  10 -16  138.10   23.79   2
  -6 -10  16   -5.47    5.77   1
   6  10 -16   13.68   12.60   2
  -5 -10  16  309.45   29.13   1
   5  10 -16  250.78   27.61   2
  -4 -10  16   12.04    7.75   1
   4  10 -16   17.94   12.23   2
   3  10 -16   35.16   13.77   2
  -3 -10  16   14.70    7.94   1
  -2 -10  16  154.81   19.39   1
   2  10 -16  117.38   19.77   2
  -1 -10  16   15.64    7.05   1
   1  10 -16    8.74   11.84   2
   0  10 -16   23.20    8.12   3
   0 -10  16   25.88    8.18   1
   0  10 -16   24.66   12.50   2
   1 -10  16   28.06    8.84   1
  -1  10 -16   41.62   13.81   2
  -1  10 -16   22.19    8.86   3
  -2  10 -16   19.13    8.51   3
  -3  10 -16   11.13    7.70   3
  -4  10 -16   74.67   14.99   3
  -5  10 -16   71.46   15.54   3
  -6  10 -16   -4.29    6.38   3
  -7  10 -16   11.96    9.17   3
  -8  10 -16   -5.18    4.38   3
  -9  10 -16   -3.99    5.38   3
 -12  -9  16   -3.50    5.64   1
 -12  -9  16   -0.69    5.23   4
 -11  -9  16    1.94    4.33   1
 -10  -9  16   -0.25    7.62   1
  -9  -9  16    8.54    8.39   1
  -8  -9  16   61.16   15.61   1
   8   9 -16   48.93   14.94   2
  -7  -9  16   -5.46    5.54   1
   7   9 -16   -3.97    9.27   2
   6   9 -16   57.31   16.85   2
  -6  -9  16   69.21   15.33   1
   5   9 -16   60.08   16.13   2
  -5  -9  16   50.41   13.21   1
   4   9 -16   -0.87   10.57   2
  -4  -9  16    5.98    7.07   1
   3   9 -16  180.24   22.34   2
  -3  -9  16  214.63   22.20   1
   2   9 -16   26.24   12.95   2
  -2  -9  16   18.08    7.07   1
   1   9 -16  323.34   25.36   2
  -1  -9  16  358.96   24.65   1
   0   9 -16   14.85    6.95   3
   0  -9  16   17.43    7.05   1
   0   9 -16   10.21   11.00   2
   1  -9  16   90.18   13.16   1
  -1   9 -16   90.00   13.44   3
  -1   9 -16   77.07   15.76   2
  -2   9 -16   -0.06    5.50   3
  -2   9 -16   -5.51    9.23   2
  -3   9 -16    5.55    6.57   3
  -4   9 -16   17.60    9.24   3
  -5   9 -16   -0.72    6.85   3
  -6   9 -16   -1.21    6.16   3
  -7   9 -16    8.92    7.57   3
  -8   9 -16    0.01    7.65   3
  -9   9 -16   -8.88    4.34   3
 -10   9 -16   -5.44    4.79   3
 -12  -8  16   -5.30    4.09   4
 -12  -8  16   -5.99    5.45   1
 -11  -8  16    2.65    5.47   4
 -11  -8  16   -2.38    6.21   1
 -10  -8  16   51.55   12.65   4
 -10  -8  16   59.26   14.72   1
   9   8 -16   80.29   17.40   2
  -9  -8  16   72.88   14.91   4
  -9  -8  16   53.62   14.05   1
   8   8 -16    0.47    9.62   2
  -8  -8  16   -1.70    6.11   1
  -8  -8  16   14.17    7.32   4
  -7  -8  16  182.64   24.33   1
   7   8 -16  203.69   24.51   2
  -6  -8  16   40.73   12.46   1
   6   8 -16   37.54   13.39   2
  -5  -8  16   90.78   16.52   1
   5   8 -16   63.55   15.36   2
   4   8 -16   20.19   11.68   2
  -4  -8  16   16.13    7.85   1
  -3  -8  16    2.99    6.42   1
   3   8 -16   10.41   10.67   2
  -2  -8  16    2.94    5.79   1
   2   8 -16   10.83   10.39   2
  -1  -8  16   -0.81    3.98   1
   1   8 -16    8.13   11.05   2
   0  -8  16   10.31    5.34   1
   0   8 -16    8.08    5.57   3
   0   8 -16    5.28   10.90   2
   1  -8  16    0.38    3.68   1
  -1   8 -16   -4.31    9.74   2
  -1   8 -16   -1.66    5.45   3
  -2   8 -16  143.76   16.79   3
  -2   8 -16  112.86   17.73   2
  -3   8 -16   20.11    8.17   3
  -3   8 -16   41.19   12.95   2
  -4   8 -16    9.65    6.72   3
  -5   8 -16  211.00   23.41   3
  -6   8 -16  150.12   21.10   3
  -7   8 -16   12.23    8.30   3
  -8   8 -16  248.12   28.53   3
  -9   8 -16  -10.30    6.32   3
 -10   8 -16    2.67    5.37   3
 -12  -7  16   -3.40    4.64   4
 -12  -7  16    0.24    6.11   1
 -11  -7  16   35.37   10.68   4
 -11  -7  16   22.75   11.15   1
 -10  -7  16   16.83    7.92   4
 -10  -7  16   -5.00    6.31   1
  -9  -7  16    0.47    6.84   1
  -9  -7  16   -0.34    5.79   4
   9   7 -16    7.49    9.96   2
  -8  -7  16   46.34   12.75   1
  -8  -7  16   78.17   14.54   4
   8   7 -16   72.82   16.40   2
  -7  -7  16   -6.19    5.65   1
   7   7 -16    8.37   10.68   2
  -7  -7  16    8.84    6.72   4
   6   7 -16   46.96   14.23   2
  -6  -7  16   75.29   14.29   4
  -6  -7  16   65.19   14.09   1
   5   7 -16   73.18   16.14   2
  -5  -7  16   58.77   12.95   1
   4   7 -16   38.22   13.60   2
  -4  -7  16   24.92    8.91   1
  -3  -7  16   97.81   14.93   1
   3   7 -16   78.37   15.87   2
  -2  -7  16   13.48    6.70   1
   2   7 -16    9.97   11.97   2
   1   7 -16   65.39   15.90   2
  -1  -7  16   80.61   12.72   1
   0   7 -16   61.20   15.29   2
   0  -7  16   69.62   11.20   1
  -1   7 -16  123.98   18.29   2
  -1   7 -16  154.27   15.42   3
  -2   7 -16  153.24   19.29   2
  -2   7 -16  172.52   17.39   3
  -3   7 -16    0.80    5.24   3
  -3   7 -16   -4.21    9.58   2
  -4   7 -16    5.38   10.22   2
  -4   7 -16   14.90    7.68   3
  -5   7 -16    2.89    6.43   3
  -6   7 -16   18.75    8.55   3
  -7   7 -16   13.19    8.96   3
  -8   7 -16   -6.82    5.95   3
  -9   7 -16    4.83    8.06   3
 -10   7 -16   -6.99    7.14   3
 -11   7 -16   -6.87    4.75   3
 -12  -6  16    2.09    4.61   1
 -12  -6  16   -0.30    4.19   4
 -11  -6  16   36.41   10.63   4
 -11  -6  16   41.59   12.04   1
 -10  -6  16   47.59   13.20   1
  10   6 -16   62.58   16.67   2
 -10  -6  16   32.51   10.48   4
   9   6 -16   22.74   12.90   2
  -9  -6  16   18.33    8.95   1
  -9  -6  16    1.80    6.53   4
  -8  -6  16   11.90    5.77   4
  -8  -6  16    5.09    6.12   1
   8   6 -16    1.38    9.20   2
  -7  -6  16  246.63   24.77   4
   7   6 -16  299.42   25.63   2
  -7  -6  16  312.14   26.22   1
  -6  -6  16  218.10   22.49   4
  -6  -6  16  284.18   23.99   1
   6   6 -16  216.52   23.47   2
   5   6 -16   66.38   14.54   2
  -5  -6  16   74.93   13.71   4
  -5  -6  16   50.35   12.32   1
  -4  -6  16    1.45    5.20   1
   4   6 -16   -4.01    8.70   2
  -4  -6  16    0.12    4.34   4
  -3  -6  16  122.66   16.45   1
   3   6 -16  138.27   19.63   2
  -2  -6  16   65.37   12.03   1
   2   6 -16   71.61   15.17   2
   1   6 -16   -5.50   10.78   2
  -1  -6  16    0.18    4.33   1
   0   6 -16   88.71   16.61   2
   0   6 -16   74.87   10.37   3
  -1   6 -16    4.49    5.19   3
  -1   6 -16   -9.70    9.61   2
   1  -6  16    4.13    4.73   1
  -2   6 -16   45.27   10.28   3
  -2   6 -16   50.59   14.52   2
  -3   6 -16  423.15   26.42   3
  -3   6 -16  411.42   27.19   2
  -4   6 -16    7.99    6.35   3
  -4   6 -16   21.06   11.62   2
  -5   6 -16  108.06   17.31   3
  -5   6 -16  154.21   17.99   2
  -6   6 -16  200.11   22.86   3
  -7   6 -16   86.97   16.58   3
  -8   6 -16   75.71   16.72   3
  -9   6 -16  105.57   19.21   3
 -10   6 -16   71.98   17.68   3
 -11   6 -16   -0.22    5.76   3
 -12   6 -16  -23.34    6.10   3
  12   5 -16   25.72   12.14   1
  11   5 -16   30.02   12.54   1
  10   5 -16    2.95    9.71   2
  10   5 -16   30.34   12.59   1
   9   5 -16  -12.78    7.93   2
   8   5 -16   75.45   15.97   2
  -7  -5  16   45.52   12.49   1
   7   5 -16   55.68   14.54   2
  -7  -5  16   42.03   10.73   4
   6   5 -16   52.96   13.43   2
  -6  -5  16   29.89   10.05   1
  -6  -5  16   29.33    8.67   4
  -5  -5  16   88.62   14.33   4
   5   5 -16   36.15   12.28   2
  -5  -5  16   58.28   12.64   1
  -4  -5  16   10.70    6.72   1
   4   5 -16   11.07   10.08   2
  -4  -5  16   13.56    6.23   4
   3   5 -16   85.63   15.97   2
  -3  -5  16   94.71   13.45   4
  -3  -5  16  124.39   15.61   1
   2   5 -16    9.55   11.55   2
  -2  -5  16   17.40    6.68   1
   1   5 -16   25.44   11.94   2
  -1  -5  16   20.21    6.87   1
   0  -5  16  269.25   17.95   1
   0   5 -16  297.50   24.43   2
   0   5 -16  321.89   18.55   3
   1  -5  16   30.66    6.76   1
  -1   5 -16   28.75   12.04   2
  -1   5 -16   29.69    7.43   3
  -2   5 -16   95.66   15.92   2
  -2   5 -16   75.95   12.21   3
  -3   5 -16  191.04   18.96   3
  -3   5 -16  238.86   21.01   2
  -4   5 -16   53.88   11.24   3
  -4   5 -16   45.45   13.28   2
  -5   5 -16    3.06    5.84   3
  -5   5 -16   18.61   11.29   2
  -6   5 -16  126.43   16.12   2
  -6   5 -16  126.48   18.78   3
  -7   5 -16  132.04   19.94   3
  -8   5 -16   29.89   10.59   3
  -9   5 -16   22.25   10.29   3
 -10   5 -16   13.70    8.20   3
 -11   5 -16   57.88   15.44   3
 -12   5 -16   47.86   15.54   3
  13   4 -16   20.18   12.44   1
  12   4 -16    4.92    9.40   1
  11   4 -16   83.39   17.90   1
  10   4 -16    1.72    9.06   2
  10   4 -16    7.08    9.44   1
   9   4 -16   80.05   16.25   1
   9   4 -16   77.17   16.36   2
   8   4 -16   19.16   10.32   1
   8   4 -16   50.56   13.31   2
   7   4 -16   32.44   11.11   1
   7   4 -16   30.51   12.03   2
   6   4 -16  190.94   20.02   1
   6   4 -16  185.23   20.97   2
   5   4 -16    9.51    8.60   1
   5   4 -16   12.50   10.85   2
   4   4 -16  272.05   22.79   2
  -4  -4  16  317.58   22.06   4
  -4  -4  16  283.65   22.34   1
  -3  -4  16    2.95    4.64   4
   3   4 -16    0.60    8.73   2
  -3  -4  16    2.66    4.84   1
   2   4 -16  161.67   18.50   2
  -2  -4  16  134.47   14.19   4
  -2  -4  16  157.22   15.79   1
   1   4 -16   53.79   14.64   2
   0  -4  16  134.27   12.82   1
   0   4 -16  140.21   17.09   2
   0   4 -16  139.16   12.62   3
  -1   4 -16  103.66   15.58   2
   1  -4  16  124.28   11.30   1
  -2   4 -16  211.39   20.20   2
  -2   4 -16  169.47   16.28   3
  -3   4 -16   80.91   13.25   3
  -3   4 -16   59.48   14.08   2
  -4   4 -16    6.72   10.00   2
  -4   4 -16    9.67    5.85   3
  -5   4 -16   13.74    6.35   3
  -5   4 -16   27.15   12.24   2
  -6   4 -16  123.13   18.07   2
  -6   4 -16  112.84   17.28   3
  -7   4 -16  115.72   17.25   2
  -7   4 -16  141.00   20.40   3
  -8   4 -16   78.96   16.29   3
  -9   4 -16  200.45   25.41   3
 -10   4 -16    8.42    7.73   3
 -11   4 -16   20.05    9.75   3
 -12   4 -16    2.64    8.15   3
 -13   4 -16    5.84   10.43   3
  13   3 -16   20.07   13.09   1
  12   3 -16    0.17   10.60   1
  11   3 -16   26.14   12.02   1
  10   3 -16   10.47   10.26   2
  10   3 -16  -10.64    8.05   1
   9   3 -16    6.51    8.80   1
   9   3 -16    6.30    9.01   2
   8   3 -16   -0.14    8.27   2
   8   3 -16   10.86    8.56   1
   7   3 -16   52.80   13.61   2
   7   3 -16   18.28    9.84   1
   6   3 -16   33.77   11.27   1
   6   3 -16   37.68   12.05   2
   5   3 -16  212.10   21.37   2
   5   3 -16  266.70   20.65   1
   4   3 -16  135.89   16.06   1
   4   3 -16  180.79   20.18   2
   3   3 -16   78.71   12.47   1
   3   3 -16   77.97   14.76   2
   2   3 -16  417.24   26.88   2
  -2  -3  16  436.68   23.86   4
  -2  -3  16  437.72   25.14   1
   1   3 -16   -8.67    7.85   2
  -1  -3  16    3.18    2.61   4
  -1  -3  16    1.77    2.72   1
   0  -3  16  276.88   16.87   1
   0   3 -16  307.42   23.53   2
   0   3 -16  281.80   16.63   3
  -1   3 -16  410.41   23.10   3
  -1   3 -16  553.39   30.35   2
   1  -3  16  565.72   23.10   1
  -2   3 -16   73.94   14.33   2
  -2   3 -16   78.99   11.62   3
  -3   3 -16   65.38   13.62   2
  -4   3 -16   48.00   10.93   3
  -4   3 -16   65.31   14.49   2
  -5   3 -16   36.52   12.30   2
  -5   3 -16   64.93   13.09   3
  -6   3 -16    5.25   10.72   2
  -6   3 -16   17.09    7.56   3
  -7   3 -16  148.07   18.35   2
  -7   3 -16  124.88   18.80   3
  -8   3 -16   32.65   11.59   2
  -8   3 -16   44.93   12.12   3
  -9   3 -16   57.76   14.11   3
 -10   3 -16  261.23   29.08   3
 -11   3 -16   15.09    8.75   3
 -12   3 -16   39.40   13.90   3
 -13   3 -16   -2.05    7.80   3
  13   2 -16   44.79   15.72   1
  12   2 -16    0.04    8.87   1
  11   2 -16  129.91   21.78   1
  10   2 -16   -3.87    7.86   1
  10   2 -16    5.99    9.13   2
   9   2 -16  179.49   20.62   2
   9   2 -16  178.26   22.66   1
   8   2 -16   26.51   10.79   1
   8   2 -16   41.19   11.96   2
   7   2 -16    2.11    8.21   1
   7   2 -16    4.73    8.10   2
   6   2 -16   51.22   12.29   1
   6   2 -16   75.35   14.80   2
   5   2 -16   71.78   14.35   2
   5   2 -16   76.94   14.08   1
   4   2 -16   26.59   10.17   1
   4   2 -16   25.17   10.63   2
   3   2 -16    3.62    7.03   1
   3   2 -16   -2.23    9.05   2
   2   2 -16   24.64   11.16   2
   2   2 -16   13.50    7.82   1
   1   2 -16  177.98   18.05   2
   1   2 -16  182.86   11.46   3
   1   2 -16  177.50   14.10   1
   0  -2  16   17.21    5.43   1
   0   2 -16   33.81    6.32   3
   0   2 -16   60.13   13.26   2
   0  -2  16   24.56    5.79   4
   1  -2  16   67.88    8.01   1
  -1   2 -16   84.51   10.84   3
  -1   2 -16   86.32   14.72   2
  -2   2 -16  488.82   30.20   2
  -2   2 -16  510.28   26.28   3
  -3   2 -16  105.43   16.53   2
  -3   2 -16  102.11   13.59   3
  -4   2 -16  400.79   26.73   2
  -4   2 -16  391.99   24.85   3
  -5   2 -16   52.66   13.44   2
  -5   2 -16   40.60    9.73   3
  -6   2 -16   11.84    9.56   2
  -6   2 -16    4.74    6.11   3
  -7   2 -16   21.69   10.19   2
  -7   2 -16   18.17    8.40   3
  -8   2 -16   13.88    7.50   3
  -8   2 -16    3.37    8.39   2
  -9   2 -16   39.72   11.22   3
  -9   2 -16   32.83   10.68   2
 -10   2 -16   36.56   11.87   3
 -11   2 -16    1.74    6.66   3
 -12   2 -16   15.25   10.12   3
 -13   2 -16    4.98    8.60   3
 -14   2 -16    9.50    9.68   3
  12   1 -16   27.96   12.44   1
  11   1 -16    5.74   10.01   1
  10   1 -16    8.21    9.26   1
   9   1 -16   33.43   12.41   1
   9   1 -16    8.53    8.25   2
   8   1 -16   86.09   16.23   1
   8   1 -16  129.38   17.48   2
   7   1 -16   37.30   10.91   1
   7   1 -16   37.58   11.60   2
   6   1 -16   -0.64    8.07   2
   6   1 -16    2.85    7.58   1
   5   1 -16   86.66   14.58   2
   5   1 -16   68.69   13.56   1
   4   1 -16  561.32   29.78   1
   4   1 -16  571.69   31.46   2
   3   1 -16   11.97    9.72   2
   3   1 -16    1.68    6.84   1
   2   1 -16  662.70   32.99   2
   2   1 -16  612.67   28.62   1
   1   1 -16   -0.02    8.19   2
   1   1 -16    6.35    6.01   1
   0   1 -16   -1.08    8.18   2
   0   1 -16   17.45    6.41   1
   1  -1  16  688.43   26.95   1
  -1   1 -16  673.91   35.46   2
   1  -1  16  660.48   25.42   4
  -2   1 -16   18.02   10.81   2
  -3   1 -16  156.56   17.71   2
  -4   1 -16    0.08    8.26   2
  -5   1 -16  139.77   17.88   2
  -6   1 -16  132.15   17.17   2
  -7   1 -16    5.30    7.75   2
  -8   1 -16   -2.93    4.13   3
  -8   1 -16    5.62    6.79   2
  -9   1 -16    2.77    5.71   3
  -9   1 -16    1.69    7.10   2
 -10   1 -16   36.18   11.07   3
 -10   1 -16   53.43   12.93   2
 -11   1 -16   83.05   17.56   3
 -12   1 -16   24.24   11.27   3
 -13   1 -16  279.05   32.34   3
 -14   1 -16   20.52   12.36   3
  12   0 -16   15.32   11.89   1
  11   0 -16   53.97   14.68   1
  10   0 -16  176.84   23.98   1
   9   0 -16  -19.57    6.23   1
   8   0 -16   13.79    9.00   2
   8   0 -16   38.14   12.23   1
   7   0 -16   -3.60    6.82   2
   7   0 -16    6.82    8.11   1
   6   0 -16   98.28   16.16   1
   6   0 -16  119.61   15.94   2
   5   0 -16    1.45    7.63   1
   5   0 -16   -6.73    8.08   2
   4   0 -16   16.49    9.14   1
   4   0 -16   28.54   10.72   2
   3   0 -16    0.21    6.98   1
   3   0 -16    2.20    8.64   2
   2   0 -16   46.27   11.96   2
   2   0 -16   51.56   10.25   1
   1   0 -16   70.05   10.21   1
   1   0 -16   66.13   13.06   2
   0   0 -16  130.26   11.61   1
   0   0 -16  155.58   18.52   2
  -1   0 -16    2.03    4.53   1
  -1   0 -16    6.12    8.52   2
  -2   0 -16 1191.83   50.20   2
  -3   0 -16   63.29   13.72   2
  -4   0 -16  146.13   17.91   2
  -5   0 -16  101.66   15.43   2
  -6   0 -16    4.80    7.14   2
  -7   0 -16   74.95   13.70   2
  -8   0 -16   38.55   10.90   2
  -9   0 -16   12.62    7.65   2
 -10   0 -16   77.15   14.86   2
 -11   0 -16   -3.98    6.17   2
 -11   0 -16    1.54    6.20   3
 -12   0 -16   -7.19    6.38   3
 -13   0 -16   49.10   15.12   3
 -14   0 -16   14.71   10.02   3
 -15   0 -16   11.24   11.33   3
  12  -1 -16  -17.88    8.00   1
  11  -1 -16   11.77    9.86   1
  10  -1 -16   74.83   16.55   1
   9  -1 -16    8.95    9.73   1
   8  -1 -16   41.27   13.04   1
   7  -1 -16   79.06   15.49   1
   7  -1 -16   55.42   12.13   2
   6  -1 -16   39.36   11.13   2
   6  -1 -16   41.52   11.58   1
   5  -1 -16  116.85   16.65   1
   5  -1 -16  116.65   15.61   2
   4  -1 -16  175.32   18.30   1
   4  -1 -16  172.76   17.61   2
   3  -1 -16  100.95   14.89   2
   3  -1 -16   90.12   13.76   1
   2  -1 -16   21.55    8.77   1
   2  -1 -16   27.24   10.66   2
   1  -1 -16  553.46   26.02   1
   1  -1 -16  582.52   31.33   2
   0  -1 -16   14.43   10.62   2
   0  -1 -16   15.38    6.52   1
  -1  -1 -16  181.10   19.30   2
  -1  -1 -16  147.02   11.26   1
  -2  -1 -16   29.68   10.94   2
  -3  -1 -16    9.75    7.68   2
  -4  -1 -16   37.53   10.70   2
  -5  -1 -16    9.73    7.10   2
  -6  -1 -16    2.34    6.08   2
  -7  -1 -16    7.90    6.92   2
  -8  -1 -16   37.18   11.01   2
  -9  -1 -16    7.36    7.19   2
 -10  -1 -16   23.10    9.16   2
 -11  -1 -16  274.87   24.43   2
 -12  -1 -16   45.93   12.41   2
 -13  -1 -16   56.22   15.91   3
 -14  -1 -16   15.65   10.09   3
 -15  -1 -16    1.40    8.52   3
  12  -2 -16   65.61   17.56   1
  11  -2 -16   40.13   13.20   1
  10  -2 -16  102.43   19.44   1
   9  -2 -16    8.70    8.26   1
   8  -2 -16   23.08   10.25   1
   7  -2 -16   -6.66    6.67   2
   7  -2 -16   -0.26    7.08   1
   6  -2 -16   15.37    9.08   1
   6  -2 -16   42.98   11.25   2
   5  -2 -16   79.24   14.58   1
   5  -2 -16   65.90   12.84   2
   4  -2 -16    4.77    8.37   2
   4  -2 -16   12.05    8.84   1
   3  -2 -16    1.30    7.98   1
   3  -2 -16   20.16   10.32   2
   2  -2 -16  146.21   15.29   1
   2  -2 -16  155.01   17.45   2
   1  -2 -16   13.96    7.79   1
   1  -2 -16   23.15   11.84   2
   0  -2 -16   12.90   10.40   2
   0  -2 -16   10.69    6.47   1
  -1  -2 -16  156.70   12.10   1
  -1  -2 -16  177.55   19.15   2
  -2  -2 -16   54.18   13.04   2
  -2  -2 -16   61.79    7.48   1
  -3  -2 -16  824.00   39.56   2
  -4  -2 -16   11.24    7.41   2
  -5  -2 -16  246.16   20.66   2
  -6  -2 -16   51.88   12.09   2
  -7  -2 -16   16.78    8.22   2
  -8  -2 -16   79.17   14.76   2
  -9  -2 -16   21.72    9.47   2
 -10  -2 -16   59.86   14.23   2
 -11  -2 -16   -2.80    6.52   2
 -12  -2 -16   -3.66    6.90   2
 -13  -2 -16  169.29   23.34   2
 -15  -2 -16   91.54   20.76   3
  11  -3 -16    2.34    8.02   1
  10  -3 -16   14.22   10.72   1
   9  -3 -16   19.35   11.07   1
   8  -3 -16   61.31   15.61   1
   7  -3 -16   12.24    9.32   1
   6  -3 -16  267.49   19.62   2
   6  -3 -16  251.57   24.16   1
   5  -3 -16  161.71   16.70   2
   5  -3 -16  135.36   18.57   1
   4  -3 -16   18.45   10.04   1
   4  -3 -16   -1.48    9.01   2
   3  -3 -16  447.50   27.18   1
   3  -3 -16  506.99   28.08   2
   2  -3 -16  139.50   16.08   1
   2  -3 -16  128.86   16.58   2
   1  -3 -16  737.30   36.42   2
   1  -3 -16  698.77   31.97   1
   0  -3 -16   37.88   12.05   2
   0  -3 -16   54.74    9.74   1
  -1  -3 -16    7.88    8.58   2
  -1  -3 -16    5.30    6.67   1
  -2  -3 -16  260.67   21.03   2
  -2  -3 -16  270.10   15.23   1
  -3  -3 -16   58.06   12.18   2
  -4  -3 -16  131.24   17.15   2
  -5  -3 -16  131.08   17.22   2
  -6  -3 -16   68.55   14.00   2
  -7  -3 -16   30.31   10.48   2
  -8  -3 -16   18.46    8.88   2
  -9  -3 -16   16.83    8.38   2
 -10  -3 -16   55.31   14.98   2
 -11  -3 -16  165.89   23.03   2
 -12  -3 -16  106.10   19.65   2
 -13  -3 -16   24.20   10.38   2
  11  -4 -16   27.44   13.40   1
  10  -4 -16   -2.80    8.10   1
   9  -4 -16   46.72   13.71   1
   8  -4 -16   10.23    8.88   1
   7  -4 -16   -0.04    8.48   1
   6  -4 -16    6.23    8.73   1
   5  -4 -16   20.45   10.36   1
   5  -4 -16    1.40    4.25   2
   4  -4 -16   29.21   10.94   2
   4  -4 -16   28.88   10.60   1
   3  -4 -16    5.26    7.68   1
   3  -4 -16   10.29    9.70   2
   2  -4 -16   78.60   14.05   1
   2  -4 -16   75.45   14.93   2
   1  -4 -16  148.44   18.06   2
   1  -4 -16   97.11   14.17   1
   0  -4 -16  127.34   17.59   2
   0  -4 -16  131.30   14.47   1
  -1  -4 -16  326.45   19.46   1
  -1  -4 -16  294.76   22.99   2
  -2  -4 -16    1.79    5.33   2
  -2  -4 -16    4.82    6.81   1
  -3  -4 -16  169.43   18.53   2
  -4  -4 -16    5.85    6.01   2
  -5  -4 -16   61.53   12.71   2
  -6  -4 -16  120.87   17.94   2
  -7  -4 -16   14.76    7.75   2
  -8  -4 -16   13.90    8.15   2
  -9  -4 -16   47.62   12.91   2
 -10  -4 -16   73.01   16.06   2
 -11  -4 -16   49.39   14.36   2
 -12  -4 -16   31.05   12.24   2
 -13  -4 -16   35.84   13.48   2
 -14  -4 -16   10.95    8.84   2
  10  -5 -16   35.97   15.31   1
   9  -5 -16   -2.79    7.61   1
   8  -5 -16  186.53   25.62   1
   7  -5 -16  138.28   21.95   1
   6  -5 -16   73.73   16.20   1
   5  -5 -16  196.73   21.84   1
   4  -5 -16   11.67    9.23   1
   4  -5 -16    0.02    3.34   2
   3  -5 -16   10.57    9.66   2
   3  -5 -16   22.69   10.99   1
   2  -5 -16   32.74   12.14   2
   2  -5 -16   36.03   11.35   1
   1  -5 -16  106.46   14.89   1
   1  -5 -16  111.90   16.40   2
   0  -5 -16   25.91   10.35   2
   0  -5 -16   18.66    9.27   1
  -1  -5 -16    5.09    7.17   1
  -1  -5 -16   -3.87    6.51   2
  -2  -5 -16   30.01    9.53   2
  -2  -5 -16   37.95    8.69   1
  -3  -5 -16  112.95   16.39   2
  -4  -5 -16  140.18   17.94   2
  -5  -5 -16   44.35   11.61   2
  -6  -5 -16   26.55    9.56   2
  -7  -5 -16   88.34   16.48   2
  -8  -5 -16   37.54   12.12   2
  -9  -5 -16   16.25    8.75   2
 -10  -5 -16  190.24   25.70   2
 -11  -5 -16   19.99    9.48   2
 -12  -5 -16  282.52   32.15   2
 -13  -5 -16    7.84    8.96   2
 -14  -5 -16   31.91   13.28   2
 -15  -5 -16   18.62   10.56   2
  10  -6 -16   30.40   14.83   1
   9  -6 -16   20.80   11.73   1
   8  -6 -16   54.13   15.75   1
   7  -6 -16   18.69   10.81   1
   6  -6 -16   -1.63    8.87   1
   5  -6 -16    7.59    9.87   1
   4  -6 -16   37.04   11.89   1
   3  -6 -16   -3.45    6.83   1
   3  -6 -16   -7.66    3.69   2
   2  -6 -16   76.40   14.50   1
   2  -6 -16   69.32   14.25   2
   1  -6 -16  160.25   17.95   1
   1  -6 -16  156.71   18.91   2
   0  -6 -16    1.18    8.13   1
   0  -6 -16   -5.17    7.02   2
  -1  -6 -16  216.82   19.16   2
  -1  -6 -16  211.53   17.67   1
  -2  -6 -16   46.61   10.41   1
  -2  -6 -16   41.34   11.09   2
  -3  -6 -16    0.90    6.05   2
  -3  -6 -16   16.98    7.97   1
  -4  -6 -16   16.63    7.86   2
  -5  -6 -16  112.09   17.28   2
  -6  -6 -16   -9.39    4.95   2
  -7  -6 -16    6.81    6.63   2
  -8  -6 -16    1.44    6.87   2
  -9  -6 -16  226.86   27.36   2
 -10  -6 -16   -0.45    7.92   2
 -11  -6 -16   -2.32    6.68   2
 -12  -6 -16   44.65   14.83   2
 -13  -6 -16   34.57   13.54   2
 -14  -6 -16   77.39   19.53   2
 -15  -6 -16  -16.59    8.10   2
 -16  -6 -16   39.40   17.53   2
   9  -7 -16  -15.22    8.10   1
   8  -7 -16   15.84   11.46   1
   7  -7 -16    2.23    9.13   1
   6  -7 -16   -2.53    9.25   1
   5  -7 -16  110.52   20.07   1
   4  -7 -16    8.27    8.72   1
   3  -7 -16   42.38   12.74   1
   2  -7 -16  103.22   16.63   1
   2  -7 -16   82.33   14.29   2
   1  -7 -16   26.24   10.75   1
   1  -7 -16   17.52   10.63   2
   0  -7 -16   10.36    8.23   1
   0  -7 -16    3.81    8.09   2
  -1  -7 -16   19.59    9.03   1
  -1  -7 -16   16.19    8.51   2
  -2  -7 -16   29.49   10.11   1
  -2  -7 -16   37.95   10.46   2
  -3  -7 -16   38.96    9.68   1
  -3  -7 -16   48.95   11.70   2
  -4  -7 -16    6.78    6.55   2
  -5  -7 -16  126.05   18.55   2
  -6  -7 -16   80.14   16.16   2
  -7  -7 -16   84.34   16.81   2
  -8  -7 -16  335.18   29.53   2
  -9  -7 -16   59.40   15.71   2
 -10  -7 -16   92.03   19.32   2
 -11  -7 -16  178.16   27.84   2
 -12  -7 -16   33.30   13.27   2
 -13  -7 -16   36.66   13.86   2
 -14  -7 -16    1.53    8.87   2
 -15  -7 -16    9.15   11.72   2
   8  -8 -16   10.43   12.03   1
   7  -8 -16   13.05   10.38   1
   6  -8 -16    7.15   10.02   1
   5  -8 -16    6.36    9.63   1
   4  -8 -16   -0.52    9.73   1
   3  -8 -16    5.19    8.70   1
   2  -8 -16   -0.25    7.64   1
   1  -8 -16  201.27   20.72   1
   1  -8 -16  200.80   20.17   2
   0  -8 -16  -10.94    5.54   1
   0  -8 -16    3.73    7.38   2
  -1  -8 -16  153.24   18.33   2
  -1  -8 -16  138.48   16.66   1
  -2  -8 -16  126.37   15.50   1
  -2  -8 -16  145.85   18.75   2
  -3  -8 -16    4.08    6.52   2
  -3  -8 -16   -3.70    6.39   1
  -4  -8 -16    2.52    5.84   2
  -5  -8 -16   33.97   10.54   2
  -6  -8 -16   16.34    9.18   2
  -7  -8 -16    7.97    7.31   2
  -8  -8 -16   49.62   14.32   2
  -9  -8 -16    5.96    7.92   2
 -10  -8 -16   23.53   11.37   2
 -11  -8 -16    8.53    9.45   2
 -12  -8 -16   67.50   19.20   2
 -13  -8 -16   11.46   10.96   2
 -14  -8 -16   37.15   14.39   2
 -15  -8 -16   64.22   20.68   2
   7  -9 -16   42.84   16.37   1
   6  -9 -16   37.59   13.69   1
   5  -9 -16   43.78   14.54   1
   4  -9 -16   56.38   15.18   1
   3  -9 -16   96.52   17.51   1
   2  -9 -16    3.78    8.69   1
   1  -9 -16    4.02    8.60   1
   0  -9 -16   -0.79    7.17   1
   0  -9 -16   -6.10    5.34   2
  -1  -9 -16   53.69   12.58   1
  -1  -9 -16   72.84   13.98   2
  -2  -9 -16   34.09    9.83   1
  -2  -9 -16   31.15    9.64   2
  -3  -9 -16   93.10   13.49   1
  -3  -9 -16   49.44   12.23   2
  -4  -9 -16    2.77    6.80   2
  -5  -9 -16  126.65   19.40   2
  -6  -9 -16   33.30   11.47   2
  -7  -9 -16   -1.06    6.56   2
  -8  -9 -16  172.19   25.84   2
  -9  -9 -16    9.56    8.65   2
 -10  -9 -16   29.76   12.32   2
 -11  -9 -16   33.07   14.81   2
 -12  -9 -16   15.13   12.33   2
 -13  -9 -16   31.13   13.87   2
 -14  -9 -16   41.93   17.60   2
   7 -10 -16   18.43   14.48   1
   6 -10 -16    5.99   11.57   1
   5 -10 -16   41.04   14.55   1
   4 -10 -16   11.14    9.96   1
   3 -10 -16  116.83   20.70   1
   2 -10 -16    3.94    8.30   1
   1 -10 -16   42.39   12.89   1
   0 -10 -16   10.52    9.78   1
  -1 -10 -16   19.33    9.58   1
  -1 -10 -16   33.29   10.24   2
  -2 -10 -16  258.29   22.64   2
  -2 -10 -16  277.90   21.75   1
  -3 -10 -16   10.43    7.89   1
  -3 -10 -16    3.29    6.61   2
  -4 -10 -16   15.91    7.49   2
  -5 -10 -16   50.85   13.69   2
  -6 -10 -16    6.15    7.41   2
  -7 -10 -16   17.26    9.71   2
  -8 -10 -16    5.05    9.11   2
  -9 -10 -16   -1.74    7.11   2
 -10 -10 -16   18.36   10.17   2
 -11 -10 -16   12.35   11.60   2
 -12 -10 -16  144.63   28.05   2
 -13 -10 -16   30.26   15.99   2
   6 -11 -16   56.74   17.11   1
   5 -11 -16    4.49   11.02   1
   4 -11 -16   73.53   16.69   1
   3 -11 -16   16.45    9.84   1
   2 -11 -16    8.17    8.84   1
   1 -11 -16    3.73    8.69   1
   0 -11 -16   19.11   11.15   1
  -1 -11 -16   42.59   12.43   1
  -2 -11 -16   -2.58    8.31   1
  -3 -11 -16   20.00    8.45   2
  -3 -11 -16   -1.75    7.35   1
  -4 -11 -16  141.92   20.37   2
  -5 -11 -16    7.82    8.67   2
  -6 -11 -16  221.06   26.81   2
  -7 -11 -16  -12.88    5.97   2
  -8 -11 -16   61.55   16.24   2
  -9 -11 -16   17.66   11.08   2
 -10 -11 -16   28.96   12.61   2
 -11 -11 -16   -7.15    8.75   2
 -12 -11 -16   -4.74    7.81   2
 -13 -11 -16   30.77   17.19   2
   4 -12 -16   15.79   10.92   1
   3 -12 -16   33.97   13.51   1
   2 -12 -16   86.47   17.74   1
   1 -12 -16   -3.81    8.28   1
   0 -12 -16   40.83   12.95   1
  -1 -12 -16    0.13    8.03   1
  -2 -12 -16   23.26   10.31   1
  -3 -12 -16   28.21   10.28   1
  -4 -12 -16  -10.10    6.02   2
  -5 -12 -16   78.32   16.52   2
  -6 -12 -16   -4.28    6.95   2
  -7 -12 -16   11.99    9.81   2
  -8 -12 -16   15.97   11.54   2
  -9 -12 -16   -3.53    7.79   2
 -10 -12 -16    7.63    9.83   2
 -11 -12 -16   -3.59    7.26   2
 -12 -12 -16   -7.78    7.95   2
   3 -13 -16   14.31   12.39   1
   2 -13 -16   -0.44    9.65   1
   1 -13 -16   29.62   12.46   1
   0 -13 -16   46.60   15.26   1
  -1 -13 -16    2.46    8.60   1
  -2 -13 -16  150.32   20.97   1
  -3 -13 -16   10.42    9.25   1
  -5 -13 -16   29.56   11.53   2
  -6 -13 -16   16.70   10.05   2
  -7 -13 -16   12.50    9.18   2
  -8 -13 -16   14.48   10.76   2
  -9 -13 -16   32.70   14.38   2
 -10 -13 -16   -2.48    5.86   2
 -11 -13 -16   -0.66    9.55   2
   1 -14 -16   -3.23    9.29   1
   0 -14 -16    8.86   10.73   1
  -1 -14 -16   -6.15    7.18   1
  -2 -14 -16   21.20   10.78   1
  -3 -14 -16   24.78   11.72   1
  -6 -14 -16    9.77   10.17   2
  -7 -14 -16    8.50    8.97   2
  -8 -14 -16   36.11   15.33   2
  -9 -14 -16  -17.97    8.01   2
 -10 -14 -16   -4.09    8.45   2
  -1 -15 -16    4.81   11.01   1
  -2 -15 -16    0.72    9.21   1
  -3 -15 -16   30.95   13.10   1
  -7 -15 -16   90.52   18.68   2
  -8 -15 -16    3.99   10.98   2
  -4 -15  17    3.88    8.53   1
  -3 -15  17   -7.83    7.45   1
  -2 -15  17   -2.00    6.99   1
  -7 -14  17   27.02   12.04   1
  -6 -14  17   12.78   11.39   1
  -5 -14  17   -6.70    7.40   1
  -4 -14  17    2.46    7.63   1
  -3 -14  17   10.24    9.05   1
  -2 -14  17   76.42   15.76   1
  -2  14 -17  -12.59    6.67   3
  -3  14 -17   17.35   10.59   3
  -8 -13  17   28.99   12.52   1
  -7 -13  17   -2.33    7.39   1
  -6 -13  17   77.71   16.66   1
  -5 -13  17   35.22   10.84   1
  -4 -13  17   14.99    9.08   1
  -3 -13  17   11.16    7.67   1
   2  13 -17   15.35   13.77   2
  -2 -13  17    5.80    7.86   1
  -1 -13  17   20.58    9.21   1
  -2  13 -17   84.18   15.76   3
  -3  13 -17    4.60    7.47   3
  -4  13 -17   41.00   12.02   3
  -5  13 -17    7.97   10.54   3
  -9 -12  17    0.85    7.78   1
  -8 -12  17    7.77    7.74   1
  -7 -12  17   21.96   10.80   1
  -6 -12  17   49.94   13.84   1
  -5 -12  17   22.05   10.62   1
   5  12 -17   32.93   15.54   2
   4  12 -17   62.71   17.81   2
  -4 -12  17   63.01   14.99   1
   3  12 -17   -2.35   12.61   2
  -3 -12  17   10.44    7.22   1
  -2 -12  17   23.81    9.88   1
   2  12 -17   13.92   12.33   2
   1  12 -17   28.85   13.85   2
  -1 -12  17   27.89    9.11   1
  -1  12 -17    4.99    6.41   3
  -2  12 -17   22.62    9.27   3
  -3  12 -17   -2.71    6.94   3
  -4  12 -17    1.93    7.35   3
  -5  12 -17   -5.48    4.78   3
  -6  12 -17   12.88    9.91   3
 -10 -11  17    6.71    6.53   1
  -9 -11  17   -6.54    5.70   1
  -8 -11  17   14.43    9.37   1
  -7 -11  17   -1.75    7.82   1
  -6 -11  17    1.37    7.21   1
   6  11 -17   -8.73    9.98   2
  -5 -11  17    2.86    6.51   1
   5  11 -17   17.94   13.17   2
  -4 -11  17   -0.04    6.49   1
   4  11 -17    5.50   12.71   2
  -3 -11  17   30.66   10.38   1
   3  11 -17   14.67   12.60   2
  -2 -11  17   15.51    7.15   1
   2  11 -17   45.56   15.76   2
  -1 -11  17    8.12    7.17   1
   1  11 -17   -5.48   10.01   2
   0  11 -17  133.72   20.69   2
  -1  11 -17    1.15    5.52   3
  -2  11 -17  133.48   18.28   3
  -3  11 -17   -5.89    6.08   3
  -4  11 -17    2.66    7.60   3
  -5  11 -17   15.29    9.19   3
  -6  11 -17   69.04   15.73   3
  -7  11 -17    3.10    5.71   3
 -11 -10  17  -10.26    7.13   1
 -10 -10  17    4.06    5.27   1
  -9 -10  17   46.17   15.28   1
  -8 -10  17  103.62   20.00   1
  -7 -10  17   54.06   13.85   1
   7  10 -17   36.73   15.94   2
   6  10 -17  385.79   32.56   2
  -6 -10  17  490.47   35.21   1
  -5 -10  17    8.80    7.93   1
   5  10 -17   11.00   12.53   2
  -4 -10  17  344.10   27.56   1
   4  10 -17  359.17   30.05   2
   3  10 -17  207.96   24.95   2
  -3 -10  17  226.95   23.90   1
  -2 -10  17   37.33   10.01   1
   2  10 -17   17.16   11.85   2
   1  10 -17   -8.66   10.79   2
  -1 -10  17    9.93    6.72   1
   0  10 -17   -9.26   10.45   2
   0 -10  17    6.91    5.41   1
  -1  10 -17    3.50    7.22   3
  -1  10 -17   14.53   10.97   2
  -2  10 -17    6.52    7.57   3
  -3  10 -17   47.70   12.43   3
  -4  10 -17   16.19    9.02   3
  -5  10 -17    9.00    8.60   3
  -6  10 -17   29.87   11.05   3
  -7  10 -17   33.26   11.80   3
  -8  10 -17   -2.29    4.90   3
 -11  -9  17    1.51    5.82   1
 -10  -9  17   -4.05    6.79   1
  -9  -9  17   -5.08    7.17   1
   8   9 -17   23.60   12.41   2
  -8  -9  17   -0.65    6.54   1
   7   9 -17   19.17   13.46   2
  -7  -9  17   24.61   10.66   1
   6   9 -17    8.26   11.24   2
  -6  -9  17    7.56    7.45   1
  -5  -9  17   32.32   11.18   1
   5   9 -17   28.27   12.80   2
   4   9 -17   62.98   16.59   2
  -4  -9  17   72.22   15.29   1
  -3  -9  17   27.32   10.27   1
   3   9 -17    6.85   12.46   2
  -2  -9  17   51.86   11.24   1
   2   9 -17   57.01   15.19   2
  -1  -9  17   11.46    6.86   1
   1   9 -17   13.61   11.54   2
   0   9 -17   76.37   15.86   2
   0  -9  17   52.24   10.74   1
  -1   9 -17   88.79   13.46   3
  -1   9 -17   70.98   16.09   2
  -2   9 -17   35.51   13.15   2
  -2   9 -17   26.04    8.54   3
  -3   9 -17   17.66    8.84   3
  -4   9 -17   10.46    7.35   3
  -5   9 -17   17.36    9.05   3
  -6   9 -17   80.24   15.92   3
  -7   9 -17   -8.03    6.51   3
  -8   9 -17   21.14    9.86   3
  -9   9 -17   -5.75    5.52   3
 -12  -8  17    2.70    5.42   4
 -12  -8  17   -8.57    5.43   1
 -11  -8  17   -3.00    4.04   4
 -11  -8  17    5.60    5.15   1
 -10  -8  17   10.43    7.65   4
 -10  -8  17   24.00   10.77   1
  -9  -8  17   93.11   17.36   4
  -9  -8  17   92.04   19.07   1
   9   8 -17   91.36   18.69   2
  -8  -8  17  142.82   22.52   1
   8   8 -17   86.76   18.70   2
  -7  -8  17    9.75    7.95   1
   7   8 -17   -1.02   10.16   2
  -6  -8  17  206.78   25.03   1
   6   8 -17  166.28   23.39   2
   5   8 -17   50.10   15.72   2
  -5  -8  17   68.26   14.22   1
  -4  -8  17  235.53   23.66   1
   4   8 -17  198.21   23.43   2
   3   8 -17   26.40   12.60   2
  -3  -8  17   36.89   10.11   1
  -2  -8  17  148.34   17.87   1
   2   8 -17  112.56   19.00   2
  -1  -8  17   15.43    6.55   1
   1   8 -17   10.68   11.32   2
   0  -8  17   11.64    5.60   1
   0   8 -17    3.27   10.61   2
  -1   8 -17   28.27   12.26   2
  -1   8 -17    9.80    6.92   3
  -2   8 -17   14.76   11.61   2
  -2   8 -17   19.76    7.95   3
  -3   8 -17    6.08    9.73   2
  -3   8 -17    9.23    6.91   3
  -4   8 -17   30.06   10.33   3
  -5   8 -17    6.90    6.61   3
  -6   8 -17   18.30    9.85   3
  -7   8 -17  174.48   23.94   3
  -8   8 -17    8.04    8.46   3
  -9   8 -17   -0.77    7.04   3
 -10   8 -17    2.80    5.66   3
 -12  -7  17   -4.54    5.06   4
 -12  -7  17   -2.63    4.94   1
 -11  -7  17   -4.50    4.95   4
 -11  -7  17   -4.93    5.33   1
 -10  -7  17   30.44   12.87   4
  -9  -7  17   22.49    9.04   4
   9   7 -17   44.97   13.99   2
  -9  -7  17   17.90    9.53   1
   8   7 -17   -7.17    9.45   2
  -8  -7  17   12.55    8.49   1
  -8  -7  17    2.77    5.96   4
   7   7 -17   56.42   15.23   2
  -7  -7  17   21.98    9.12   1
  -7  -7  17   22.90    8.65   4
   6   7 -17    2.50    9.79   2
  -6  -7  17   10.56    5.98   4
  -6  -7  17   -5.65    4.99   1
   5   7 -17   24.79   13.17   2
  -5  -7  17    3.89    6.10   1
   4   7 -17   52.19   14.46   2
  -4  -7  17   65.96   14.18   1
   3   7 -17    2.92    9.56   2
  -3  -7  17   18.76    7.15   1
   2   7 -17  297.96   24.67   2
  -2  -7  17  295.09   22.13   1
   1   7 -17  138.42   19.25   2
  -1  -7  17  111.68   14.61   1
   0  -7  17   17.87    6.00   1
   0   7 -17    9.73    5.07   3
   0   7 -17   45.06   14.27   2
  -1   7 -17   46.53   10.08   3
  -1   7 -17   63.49   15.54   2
  -2   7 -17   -8.06    9.77   2
  -2   7 -17   -2.97    4.62   3
  -3   7 -17   55.83   14.00   2
  -3   7 -17   55.80   12.43   3
  -4   7 -17    2.17    5.83   3
  -4   7 -17   12.89   11.18   2
  -5   7 -17   16.61    8.44   3
  -6   7 -17   11.36    7.12   3
  -7   7 -17   14.41    9.38   3
  -8   7 -17   16.93    8.29   3
  -9   7 -17   64.16   15.95   3
 -10   7 -17    0.55    6.39   3
 -11   7 -17   -3.56    4.94   3
 -12  -6  17   -5.78    4.88   1
 -12  -6  17    4.14    5.03   4
 -11  -6  17    5.87    6.59   4
 -11  -6  17    3.59    7.32   1
 -10  -6  17   37.77   10.92   4
 -10  -6  17   59.21   14.84   1
  10   6 -17   97.19   19.37   2
   9   6 -17   21.09   11.66   2
  -9  -6  17    0.48    5.58   4
  -9  -6  17    1.76    6.84   1
  -8  -6  17   76.32   14.59   4
   8   6 -17   72.44   16.29   2
  -8  -6  17   93.47   17.73   1
  -7  -6  17  157.15   20.42   4
   7   6 -17   96.61   18.17   2
  -7  -6  17  108.54   18.72   1
   6   6 -17   50.02   14.66   2
  -6  -6  17   36.12    9.91   4
  -6  -6  17   49.94   12.67   1
   5   6 -17  104.67   17.86   2
  -5  -6  17   93.02   14.96   4
  -5  -6  17  107.70   16.87   1
   4   6 -17  225.09   23.16   2
  -4  -6  17  217.30   20.73   4
  -4  -6  17  203.17   21.20   1
   3   6 -17   61.35   14.92   2
  -3  -6  17   51.17   11.11   1
  -2  -6  17   -2.18    5.14   1
   2   6 -17   -5.67   10.39   2
  -1  -6  17    0.98    4.82   1
   1   6 -17    2.26   11.52   2
   0   6 -17   66.81   10.17   3
   0   6 -17   74.94   15.91   2
  -1   6 -17   15.64    6.54   3
  -1   6 -17   42.76   13.90   2
  -2   6 -17  255.32   22.85   2
  -2   6 -17  233.71   18.98   3
  -3   6 -17   12.22    6.75   3
  -3   6 -17   16.59   11.59   2
  -4   6 -17   84.32   15.61   2
  -4   6 -17   78.18   14.60   3
  -5   6 -17   10.70   10.94   2
  -5   6 -17   -2.21    5.80   3
  -6   6 -17    3.32    6.51   3
  -7   6 -17   91.97   17.70   3
  -8   6 -17  244.26   27.43   3
  -9   6 -17   39.37   13.18   3
 -10   6 -17   66.87   15.82   3
 -11   6 -17  -10.13    4.22   3
 -12   6 -17    1.72    5.10   3
  11   5 -17    2.97    8.67   1
  10   5 -17    8.56   10.61   2
   9   5 -17   42.00   14.42   2
  -8  -5  17   36.50   10.57   4
  -8  -5  17   28.57   10.93   1
   8   5 -17   42.72   13.74   2
  -7  -5  17   28.96    9.56   4
  -7  -5  17   28.26   10.69   1
   7   5 -17   36.46   13.46   2
   6   5 -17   20.95   10.73   2
  -6  -5  17    6.60    5.62   4
  -6  -5  17   10.50    7.54   1
  -5  -5  17    3.37    6.37   1
   5   5 -17   12.02   10.86   2
  -5  -5  17    0.25    4.90   4
  -4  -5  17  273.60   21.76   1
   4   5 -17  198.52   21.97   2
  -4  -5  17  237.55   19.46   4
   3   5 -17   93.45   16.66   2
  -3  -5  17  101.41   14.80   1
  -3  -5  17  121.14   14.77   4
   2   5 -17   45.00   13.83   2
  -2  -5  17   24.24    7.99   1
  -1  -5  17  113.94   13.61   1
   1   5 -17  155.08   19.60   2
   0   5 -17   56.62    9.35   3
   0  -5  17   61.54   10.11   1
   0   5 -17   16.03   12.57   2
  -1   5 -17    2.34    2.95   3
  -1   5 -17   17.66   12.14   2
  -2   5 -17  769.26   35.52   3
  -2   5 -17  737.16   38.05   2
  -3   5 -17   48.68   14.24   2
  -3   5 -17   39.46    9.86   3
  -4   5 -17   58.08   12.18   3
  -4   5 -17   44.14   13.21   2
  -5   5 -17   17.51   11.26   2
  -5   5 -17    8.11    6.85   3
  -6   5 -17    0.58    9.30   2
  -6   5 -17   14.71    7.38   3
  -7   5 -17    2.66    5.97   3
  -8   5 -17    7.51    7.41   3
  -9   5 -17   68.46   15.80   3
 -10   5 -17   29.77   10.95   3
 -11   5 -17    7.23    8.00   3
 -12   5 -17    1.25    5.39   3
  12   4 -17   16.72   11.96   1
  11   4 -17   27.99   12.61   1
  10   4 -17  171.15   23.41   2
  10   4 -17  202.01   25.24   1
   9   4 -17  143.74   20.66   2
   9   4 -17  109.71   19.11   1
   8   4 -17  146.78   20.59   1
   8   4 -17  120.23   19.27   2
   7   4 -17  427.80   28.89   1
   7   4 -17  403.71   28.75   2
   6   4 -17   -0.01    7.98   2
   6   4 -17   -0.93    7.21   1
   5   4 -17  221.00   22.34   2
  -4  -4  17    2.68    5.06   4
  -4  -4  17    7.17    6.60   1
   4   4 -17   24.21   11.25   2
  -3  -4  17  111.20   14.26   4
  -3  -4  17  116.35   15.47   1
   3   4 -17   90.05   16.86   2
  -2  -4  17   80.32   11.74   4
   2   4 -17   95.76   16.39   2
  -2  -4  17   87.03   12.71   1
   1   4 -17   14.51   11.74   2
  -1  -4  17   -1.28    2.75   1
   0   4 -17    3.37    4.49   3
   0  -4  17    8.41    5.27   1
   0   4 -17    3.54   10.19   2
  -1   4 -17    4.78   11.10   2
  -1   4 -17   -2.84    2.90   3
  -2   4 -17  320.57   24.75   2
  -2   4 -17  280.14   19.70   3
  -3   4 -17  223.98   21.47   2
  -3   4 -17  220.50   18.50   3
  -4   4 -17   98.30   15.19   3
  -4   4 -17   67.39   15.00   2
  -5   4 -17  313.02   23.76   3
  -5   4 -17  279.63   23.66   2
  -6   4 -17   21.11    8.72   3
  -6   4 -17  -12.62   10.29   2
  -7   4 -17  158.47   19.39   2
  -7   4 -17  171.34   22.47   3
  -8   4 -17  253.79   27.36   3
  -9   4 -17   -7.79    5.06   3
 -10   4 -17   15.03    8.92   3
 -11   4 -17    9.20    8.33   3
 -12   4 -17    2.31    5.10   3
 -13   4 -17  -13.25    7.76   3
  12   3 -17   17.80   12.42   1
  11   3 -17   20.73   12.12   1
  11   3 -17   21.86   10.20   2
  10   3 -17   -0.38    8.94   1
  10   3 -17   10.80    9.79   2
   9   3 -17   98.17   17.43   2
   9   3 -17   84.94   17.37   1
   8   3 -17   -9.43    6.92   1
   8   3 -17    4.49    9.25   2
   7   3 -17   -6.63    7.46   2
   7   3 -17   12.22    8.89   1
   6   3 -17  157.02   19.05   1
   6   3 -17  161.19   19.67   2
   5   3 -17  138.07   17.20   1
   5   3 -17  168.14   19.51   2
   4   3 -17   17.91    8.49   1
   4   3 -17   11.00   10.11   2
   3   3 -17  183.08   17.04   1
   3   3 -17  196.28   20.46   2
  -2  -3  17   18.19    7.01   1
   2   3 -17    9.16   10.85   2
  -2  -3  17   10.44    5.49   4
  -1  -3  17   20.85    5.75   4
   1   3 -17   83.68   14.85   2
  -1  -3  17   12.37    5.20   1
   0   3 -17  232.73   21.49   2
   0  -3  17  241.69   15.77   1
   0   3 -17  238.14   15.40   3
  -1   3 -17  242.66   16.39   3
  -1   3 -17  191.99   19.86   2
   1  -3  17  198.50   13.25   1
  -2   3 -17  584.95   32.13   2
  -2   3 -17  610.41   29.77   3
  -3   3 -17   47.29   10.03   3
  -3   3 -17   37.86   12.84   2
  -4   3 -17   47.66   10.91   3
  -4   3 -17   38.42   14.07   2
  -5   3 -17   22.46   12.23   2
  -5   3 -17   33.29    9.80   3
  -6   3 -17  127.12   17.97   2
  -6   3 -17  110.56   17.33   3
  -7   3 -17   -1.88    5.43   3
  -7   3 -17   16.48   10.81   2
  -8   3 -17  107.74   18.42   3
  -8   3 -17   77.33   15.56   2
  -9   3 -17   72.83   15.58   3
 -10   3 -17   44.08   13.30   3
 -11   3 -17   24.58   10.18   3
 -12   3 -17   20.42   11.98   3
 -13   3 -17   15.08   11.32   3
  12   2 -17   87.20   19.66   1
  11   2 -17    2.18    9.53   1
  10   2 -17   29.07   11.61   1
  10   2 -17   29.94   12.03   2
   9   2 -17  198.82   24.06   1
   9   2 -17  181.40   21.39   2
   8   2 -17   -5.26    7.81   2
   8   2 -17   17.66   10.47   1
   7   2 -17  222.64   21.66   2
   7   2 -17  180.61   20.72   1
   6   2 -17   46.43   12.64   1
   6   2 -17   45.42   12.29   2
   5   2 -17    5.65    7.12   1
   5   2 -17   -0.14    8.74   2
   4   2 -17   16.96    8.85   1
   4   2 -17   14.62   10.02   2
   3   2 -17  185.67   19.54   2
   3   2 -17  191.34   17.41   1
   2   2 -17   14.43   10.04   2
   2   2 -17   18.32    7.57   1
   1   2 -17   17.56    7.35   1
   1   2 -17    5.61    9.60   2
   0  -2  17   -0.34    2.94   4
   0  -2  17   -4.24    3.20   1
   0   2 -17   -4.16    9.03   2
   0   2 -17    4.95    3.74   3
  -1   2 -17  165.02   18.90   2
  -1   2 -17  186.62   14.47   3
   1  -2  17  193.84   12.56   1
  -2   2 -17   12.54    5.64   3
  -2   2 -17   27.48   12.44   2
  -3   2 -17  453.58   26.23   3
  -3   2 -17  461.57   29.75   2
  -4   2 -17    4.21    5.20   3
  -4   2 -17    9.18   10.25   2
  -5   2 -17  138.44   17.74   2
  -5   2 -17  136.05   17.61   3
  -6   2 -17   38.18   12.60   2
  -6   2 -17   35.10   10.18   3
  -7   2 -17   17.66   10.80   2
  -7   2 -17   36.02   10.28   3
  -8   2 -17    5.98    5.89   3
  -8   2 -17  -11.05    7.12   2
  -9   2 -17   42.33   12.63   2
  -9   2 -17   19.50    8.37   3
 -10   2 -17   59.04   14.30   3
 -11   2 -17    0.43    6.39   3
 -12   2 -17   10.40    8.66   3
 -13   2 -17    4.58    9.19   3
 -14   2 -17    4.45    9.32   3
  12   1 -17   12.42    9.94   1
  11   1 -17   14.33   11.51   1
  10   1 -17   61.05   16.00   1
   9   1 -17    1.33    8.31   2
   9   1 -17   13.41    9.90   1
   8   1 -17   98.92   17.40   1
   8   1 -17  106.82   16.76   2
   7   1 -17  104.19   17.12   1
   7   1 -17  143.31   17.68   2
   6   1 -17   59.65   13.60   2
   6   1 -17   94.77   15.81   1
   5   1 -17   21.22   11.06   2
   5   1 -17   -1.91    7.37   1
   4   1 -17   56.87   13.84   2
   4   1 -17   68.81   12.67   1
   3   1 -17  186.74   17.26   1
   3   1 -17  188.39   19.39   2
   2   1 -17    7.53    6.92   1
   2   1 -17   -0.74    9.72   2
   1   1 -17    2.02    9.06   2
   1   1 -17   -1.33    5.34   1
   0   1 -17  154.60   18.26   2
   0   1 -17  150.96   12.58   1
   1  -1  17   10.25    3.94   4
   1  -1  17    9.69    4.33   1
  -1   1 -17   24.57   11.60   2
  -2   1 -17  455.49   28.91   2
  -3   1 -17  160.10   18.77   2
  -4   1 -17   29.99   11.59   2
  -5   1 -17   49.88   13.30   2
  -6   1 -17    2.63    8.58   2
  -7   1 -17   14.01    9.34   2
  -8   1 -17    4.04    5.43   3
  -8   1 -17    9.27    8.37   2
  -9   1 -17   -0.60    5.18   3
  -9   1 -17   13.30    8.43   2
 -10   1 -17  269.63   29.21   3
 -10   1 -17  304.39   24.29   2
 -11   1 -17   92.28   18.39   3
 -12   1 -17  353.76   35.37   3
 -13   1 -17   74.25   17.26   3
 -14   1 -17   29.81   12.53   3
  12   0 -17   -1.92   10.50   1
  11   0 -17   67.10   17.56   1
  10   0 -17   33.46   12.79   1
   9   0 -17  202.69   24.29   1
   8   0 -17   12.20    8.52   2
   8   0 -17    8.33    9.29   1
   7   0 -17   10.27    8.32   2
   7   0 -17    2.75    8.34   1
   6   0 -17  130.19   17.87   1
   6   0 -17  140.42   17.05   2
   5   0 -17    3.85    7.16   1
   5   0 -17   10.24    9.67   2
   4   0 -17  294.41   21.57   1
   4   0 -17  278.09   22.79   2
   3   0 -17   21.09    8.93   1
   3   0 -17   16.42    9.95   2
   2   0 -17   28.06    8.81   1
   2   0 -17   23.61   11.47   2
   1   0 -17  176.39   18.64   2
   1   0 -17  193.11   14.84   1
   0   0 -17   10.37    6.51   1
   0   0 -17   12.67   10.93   2
  -1   0 -17  175.69   20.16   2
  -1   0 -17  179.80   12.34   1
  -2   0 -17   28.76   11.17   2
  -3   0 -17  341.77   25.79   2
  -4   0 -17  465.50   30.05   2
  -5   0 -17   23.29   10.28   2
  -6   0 -17  130.92   17.25   2
  -7   0 -17    3.92    7.13   2
  -8   0 -17    3.65    6.72   2
  -9   0 -17    9.22    7.59   2
 -10   0 -17   15.71    8.56   2
 -11   0 -17    6.61    8.14   2
 -11   0 -17   26.57    9.55   3
 -12   0 -17   10.51    9.43   3
 -13   0 -17   10.88    9.53   3
 -14   0 -17   40.03   14.43   3
  12  -1 -17   21.98   14.17   1
  11  -1 -17   27.17   12.13   1
  10  -1 -17   18.89   10.89   1
   9  -1 -17    8.16    9.40   1
   8  -1 -17   27.54   11.31   1
   7  -1 -17  214.71   20.17   2
   7  -1 -17  196.68   22.59   1
   6  -1 -17   -8.67    6.25   1
   6  -1 -17   -0.87    7.60   2
   5  -1 -17   35.05   11.56   2
   5  -1 -17   29.30   10.90   1
   4  -1 -17   23.24   10.77   2
   4  -1 -17    9.75    8.08   1
   3  -1 -17   13.52    8.27   1
   3  -1 -17   15.41   10.26   2
   2  -1 -17  217.56   20.60   2
   2  -1 -17  215.83   17.34   1
   1  -1 -17    8.79    7.13   1
   1  -1 -17    4.14    9.61   2
   0  -1 -17  204.82   20.70   2
   0  -1 -17  245.09   15.66   1
  -1  -1 -17    3.22    5.22   1
  -1  -1 -17   14.21    9.84   2
  -2  -1 -17  468.39   29.42   2
  -3  -1 -17   26.33   10.35   2
  -4  -1 -17   48.05   12.71   2
  -5  -1 -17   -0.28    6.87   2
  -6  -1 -17   98.26   15.65   2
  -7  -1 -17   47.15   11.62   2
  -8  -1 -17  195.83   21.36   2
  -9  -1 -17   -3.98    6.54   2
 -10  -1 -17  389.48   28.83   2
 -11  -1 -17   51.59   13.77   2
 -12  -1 -17   50.38   13.50   2
 -13  -1 -17   93.63   19.94   3
 -14  -1 -17    8.85    8.87   3
  11  -2 -17  108.68   21.66   1
  10  -2 -17   30.44   12.40   1
   9  -2 -17   44.76   13.56   1
   8  -2 -17   23.94   11.52   1
   7  -2 -17   27.81   11.60   1
   6  -2 -17  212.28   19.54   2
   6  -2 -17  209.40   22.52   1
   5  -2 -17    1.07    8.28   2
   5  -2 -17    2.01    7.91   1
   4  -2 -17   57.18   12.81   2
   4  -2 -17   57.67   12.23   1
   3  -2 -17   31.04    9.87   1
   3  -2 -17   52.95   12.97   2
   2  -2 -17   69.61   12.11   1
   2  -2 -17   41.62   12.58   2
   1  -2 -17   18.98   11.85   2
   1  -2 -17   23.97    8.43   1
   0  -2 -17    9.82    6.80   1
   0  -2 -17   19.19   10.42   2
  -1  -2 -17  157.34   18.58   2
  -1  -2 -17  139.35   11.64   1
  -2  -2 -17  302.09   24.29   2
  -3  -2 -17   42.35   11.84   2
  -4  -2 -17  886.07   42.44   2
  -5  -2 -17   -2.59    5.46   2
  -6  -2 -17   13.57    8.53   2
  -7  -2 -17  170.78   20.57   2
  -8  -2 -17   17.29    8.53   2
  -9  -2 -17    6.38    6.68   2
 -10  -2 -17  115.61   18.65   2
 -11  -2 -17    3.34    6.89   2
 -12  -2 -17   22.62   10.24   2
 -13  -2 -17   59.23   14.73   2
 -15  -2 -17   67.12   18.07   3
  11  -3 -17    6.64   10.36   1
  10  -3 -17    0.76    8.31   1
   9  -3 -17   16.92    9.98   1
   8  -3 -17   26.62   11.39   1
   7  -3 -17  219.60   23.96   1
   6  -3 -17   35.15   10.93   1
   5  -3 -17  230.00   22.13   1
   5  -3 -17  189.55   18.43   2
   4  -3 -17  365.45   25.49   1
   4  -3 -17  380.31   24.71   2
   3  -3 -17    6.62    9.46   2
   3  -3 -17    4.06    7.68   1
   2  -3 -17  245.48   21.08   2
   2  -3 -17  218.85   19.59   1
   1  -3 -17   10.00    8.07   1
   1  -3 -17    7.01    9.46   2
   0  -3 -17   21.54   11.49   2
   0  -3 -17   33.00    9.80   1
  -1  -3 -17   78.81   10.51   1
  -1  -3 -17   39.44   11.97   2
  -2  -3 -17    2.40    8.02   2
  -3  -3 -17    3.34    6.76   2
  -4  -3 -17   66.84   13.02   2
  -5  -3 -17   98.64   16.33   2
  -6  -3 -17   66.11   13.87   2
  -7  -3 -17   59.85   13.70   2
  -8  -3 -17   19.35    9.17   2
  -9  -3 -17   34.93   11.38   2
 -10  -3 -17   -2.93    6.55   2
 -11  -3 -17  112.08   19.94   2
 -12  -3 -17    7.55    8.15   2
 -13  -3 -17  257.48   29.06   2
  10  -4 -17   89.13   19.39   1
   9  -4 -17  -11.07    7.19   1
   8  -4 -17   64.87   15.71   1
   7  -4 -17   -0.56    8.77   1
   6  -4 -17   16.53   10.39   1
   5  -4 -17   -5.36    6.90   1
   4  -4 -17   50.70   11.81   2
   4  -4 -17   30.58   11.03   1
   3  -4 -17    0.04    8.14   1
   3  -4 -17    7.89    9.60   2
   2  -4 -17    8.80    8.08   1
   2  -4 -17   11.22   11.21   2
   1  -4 -17   -4.31    9.51   2
   1  -4 -17    2.83    8.36   1
   0  -4 -17  123.72   14.28   1
   0  -4 -17  129.07   17.70   2
  -1  -4 -17   -7.22    7.28   2
  -1  -4 -17    7.49    7.32   1
  -2  -4 -17   70.26   13.84   2
  -3  -4 -17   78.87   14.83   2
  -4  -4 -17  301.45   23.33   2
  -5  -4 -17  233.42   20.87   2
  -6  -4 -17    4.35    6.96   2
  -7  -4 -17  416.61   30.43   2
  -8  -4 -17   74.68   15.02   2
  -9  -4 -17   21.48    9.26   2
 -10  -4 -17   83.63   17.27   2
 -11  -4 -17   29.28   10.92   2
 -12  -4 -17   16.31    9.51   2
 -13  -4 -17   69.44   17.09   2
 -14  -4 -17    6.08    8.10   2
  10  -5 -17   38.29   14.16   1
   9  -5 -17   40.02   13.69   1
   8  -5 -17    5.13    8.34   1
   7  -5 -17   87.15   17.71   1
   6  -5 -17   27.90   12.29   1
   5  -5 -17  162.16   21.46   1
   4  -5 -17  323.39   25.36   1
   3  -5 -17   67.98   14.19   1
   3  -5 -17   53.51   12.39   2
   2  -5 -17   32.89   12.73   2
   2  -5 -17   10.54    9.20   1
   1  -5 -17   57.88   14.12   2
   1  -5 -17   84.01   14.18   1
   0  -5 -17    5.33    8.97   2
   0  -5 -17   -1.32    7.53   1
  -1  -5 -17   -8.55    6.58   1
  -1  -5 -17    2.81    8.16   2
  -2  -5 -17    5.05    6.90   2
  -2  -5 -17   -2.04    6.36   1
  -3  -5 -17  117.64   16.81   2
  -4  -5 -17   -0.98    6.55   2
  -5  -5 -17   45.33   12.00   2
  -6  -5 -17   13.81    7.79   2
  -7  -5 -17  149.22   20.84   2
  -8  -5 -17   65.28   15.24   2
  -9  -5 -17  269.78   28.94   2
 -10  -5 -17   -8.78    6.42   2
 -11  -5 -17  350.97   31.41   2
 -12  -5 -17    1.20    8.19   2
 -13  -5 -17   36.36   13.22   2
 -14  -5 -17    9.65   12.01   2
 -15  -5 -17    4.68   10.76   2
   9  -6 -17   15.88   12.53   1
   8  -6 -17    5.43    9.30   1
   7  -6 -17   19.96   11.81   1
   6  -6 -17   11.55   10.42   1
   5  -6 -17    5.58    9.63   1
   4  -6 -17   73.72   15.93   1
   3  -6 -17    8.77    9.27   1
   2  -6 -17   11.30    9.07   1
   2  -6 -17    7.13    9.79   2
   1  -6 -17    4.78    8.36   1
   1  -6 -17   -3.68    8.54   2
   0  -6 -17  114.05   17.48   2
   0  -6 -17  102.65   14.79   1
  -1  -6 -17  209.22   21.48   2
  -1  -6 -17  270.74   19.93   1
  -2  -6 -17   38.31   10.91   2
  -2  -6 -17   58.75   11.34   1
  -3  -6 -17  135.55   18.74   2
  -4  -6 -17   18.55    7.99   2
  -5  -6 -17  140.89   19.57   2
  -6  -6 -17    0.87    5.91   2
  -7  -6 -17   21.42    9.84   2
  -8  -6 -17  198.29   25.42   2
  -9  -6 -17   46.79   14.17   2
 -10  -6 -17   34.79   11.77   2
 -11  -6 -17    5.36    8.98   2
 -12  -6 -17   16.33    9.83   2
 -13  -6 -17   73.90   19.16   2
 -14  -6 -17    0.50   10.08   2
 -15  -6 -17   27.83   13.47   2
   9  -7 -17   26.42   13.94   1
   8  -7 -17    7.32   10.59   1
   7  -7 -17   -6.41    7.94   1
   6  -7 -17  104.23   19.38   1
   5  -7 -17   84.92   18.30   1
   4  -7 -17  293.89   27.86   1
   3  -7 -17   42.93   13.41   1
   2  -7 -17   58.36   14.19   1
   1  -7 -17   10.15    8.35   1
   1  -7 -17  -17.96    7.28   2
   0  -7 -17   16.10    9.91   2
   0  -7 -17   15.82    8.89   1
  -1  -7 -17    0.67    6.25   1
  -1  -7 -17   -3.40    6.11   2
  -2  -7 -17   29.20    9.62   2
  -2  -7 -17   25.56    9.52   1
  -3  -7 -17    2.51    6.30   2
  -4  -7 -17    5.16    6.66   2
  -5  -7 -17    3.44    6.63   2
  -6  -7 -17  190.59   23.12   2
  -7  -7 -17  184.69   24.31   2
  -8  -7 -17   -2.78    5.59   2
  -9  -7 -17  302.47   32.09   2
 -10  -7 -17   27.99   12.83   2
 -11  -7 -17   45.53   15.21   2
 -12  -7 -17   35.33   14.65   2
 -13  -7 -17  -20.32    7.65   2
 -14  -7 -17    3.06   10.25   2
 -15  -7 -17   15.83   13.61   2
   8  -8 -17   16.29   11.38   1
   7  -8 -17   41.44   14.08   1
   6  -8 -17   29.61   12.24   1
   5  -8 -17    6.60    9.83   1
   4  -8 -17   19.39   11.07   1
   3  -8 -17    4.90    9.46   1
   2  -8 -17  111.53   17.90   1
   1  -8 -17    4.84    8.24   1
   0  -8 -17  239.22   20.74   1
   0  -8 -17  261.06   22.53   2
  -1  -8 -17   85.40   14.86   2
  -1  -8 -17   60.12   12.78   1
  -2  -8 -17   -2.92    5.65   2
  -2  -8 -17    7.80    7.22   1
  -3  -8 -17  107.59   17.10   2
  -4  -8 -17   86.58   15.91   2
  -5  -8 -17  159.88   21.36   2
  -6  -8 -17    9.01    7.90   2
  -7  -8 -17   33.02   11.08   2
  -8  -8 -17   -9.71    5.15   2
  -9  -8 -17   19.06    9.93   2
 -10  -8 -17    5.45    9.67   2
 -11  -8 -17   13.84    9.75   2
 -12  -8 -17   14.27   10.05   2
 -13  -8 -17   28.07   12.79   2
 -14  -8 -17   77.18   20.93   2
   7  -9 -17   -3.29   11.01   1
   6  -9 -17   91.92   19.86   1
   5  -9 -17   17.75   11.99   1
   4  -9 -17   80.31   17.35   1
   3  -9 -17   31.18   12.30   1
   2  -9 -17   30.17   11.84   1
   1  -9 -17   27.92   11.16   1
   0  -9 -17   11.71    8.28   1
  -1  -9 -17    6.99    7.56   2
  -1  -9 -17   19.00    8.84   1
  -2  -9 -17   -5.51    6.52   1
  -2  -9 -17   -2.41    6.22   2
  -3  -9 -17   28.02   10.06   2
  -4  -9 -17   -0.63    6.44   2
  -5  -9 -17   17.89    9.52   2
  -6  -9 -17   98.17   18.94   2
  -7  -9 -17   55.00   15.18   2
  -8  -9 -17   49.91   14.69   2
  -9  -9 -17  225.22   30.14   2
 -10  -9 -17   73.00   17.94   2
 -11  -9 -17   88.08   21.25   2
 -12  -9 -17    8.41   11.16   2
 -13  -9 -17   16.47   11.79   2
 -14  -9 -17   48.99   19.18   2
   6 -10 -17   -1.83    9.45   1
   5 -10 -17    5.72    9.21   1
   4 -10 -17   24.06   11.33   1
   3 -10 -17   12.63    9.97   1
   2 -10 -17  149.39   21.77   1
   1 -10 -17   20.81   10.74   1
   0 -10 -17    4.02    8.65   1
  -1 -10 -17  133.84   18.22   1
  -2 -10 -17   45.34   12.73   2
  -2 -10 -17   36.25   11.32   1
  -3 -10 -17  116.82   18.06   2
  -4 -10 -17  192.90   23.16   2
  -5 -10 -17   18.74    9.44   2
  -6 -10 -17   -5.59    6.89   2
  -7 -10 -17   30.15   12.14   2
  -8 -10 -17   21.25   10.77   2
  -9 -10 -17    1.63    7.75   2
 -10 -10 -17   33.30   13.27   2
 -12 -10 -17   46.08   17.91   2
 -13 -10 -17   56.74   20.36   2
   5 -11 -17   93.44   20.94   1
   4 -11 -17   -6.40    8.35   1
   3 -11 -17   36.13   12.14   1
   2 -11 -17   -5.67    8.20   1
   1 -11 -17   -2.92    7.86   1
   0 -11 -17   -2.31    7.78   1
  -1 -11 -17    1.44    8.39   1
  -2 -11 -17   -4.63    7.68   1
  -3 -11 -17   30.87   10.33   2
  -3 -11 -17   55.63   12.97   1
  -4 -11 -17   -2.23    6.06   2
  -5 -11 -17   62.30   15.14   2
  -6 -11 -17    8.48    8.50   2
  -7 -11 -17  180.92   26.56   2
  -8 -11 -17   15.25    9.12   2
  -9 -11 -17   -3.87    7.53   2
 -10 -11 -17   15.59   11.58   2
 -11 -11 -17   -4.88    5.62   2
 -12 -11 -17    5.34    9.24   2
   4 -12 -17    1.37   11.08   1
   3 -12 -17   21.36   12.74   1
   2 -12 -17   20.35   11.67   1
   1 -12 -17   78.94   17.24   1
   0 -12 -17   -6.43    8.16   1
  -1 -12 -17    7.11    9.82   1
  -2 -12 -17   16.69    9.63   1
  -4 -12 -17   92.48   17.61   2
  -5 -12 -17   19.74   10.54   2
  -6 -12 -17   14.16    9.17   2
  -7 -12 -17   10.95    9.44   2
  -8 -12 -17   27.04   11.78   2
  -9 -12 -17   36.33   14.39   2
 -10 -12 -17    9.44    7.06   2
 -11 -12 -17  -10.15    7.39   2
   2 -13 -17    0.49    9.78   1
   1 -13 -17    8.67    9.45   1
   0 -13 -17   11.31    9.00   1
  -1 -13 -17  -11.80    8.06   1
  -2 -13 -17   24.76   10.87   1
  -5 -13 -17    6.75    7.62   2
  -6 -13 -17   49.30   14.49   2
  -7 -13 -17   -1.52    8.21   2
  -8 -13 -17   10.59   10.00   2
  -9 -13 -17   12.45    9.35   2
 -10 -13 -17    4.14    7.85   2
   1 -14 -17   34.99   13.63   1
   0 -14 -17    2.26   10.11   1
  -1 -14 -17   -9.46    8.66   1
  -2 -14 -17  190.98   24.02   1
  -6 -14 -17   36.17   13.82   2
  -7 -14 -17    4.25    8.97   2
  -8 -14 -17    7.17    8.89   2
  -9 -14 -17    4.36   11.30   2
  -1 -15 -17    6.07   10.83   1
  -2 -15 -17  -11.98    8.92   1
  -7 -15 -17    3.12    9.36   2
  -8 -15 -17   19.23   12.92   2
  -3 -15  18    2.97    9.23   1
  -6 -14  18   19.57   12.03   1
  -5 -14  18   10.47    9.36   1
  -4 -14  18   18.99    8.22   1
  -3 -14  18   -8.40    6.17   1
  -3  14 -18    5.33    9.63   3
  -8 -13  18    1.24    8.94   1
  -7 -13  18   36.28   13.91   1
  -6 -13  18   -2.39    6.35   1
  -5 -13  18   55.15   14.69   1
  -4 -13  18   25.81    9.77   1
   3  13 -18   16.62   13.45   2
  -3 -13  18    3.34    7.16   1
   2  13 -18    0.13   11.54   2
  -2 -13  18    1.51    6.61   1
  -3  13 -18   77.00   15.78   3
  -4  13 -18    9.46    9.44   3
  -9 -12  18   10.02    8.11   1
  -8 -12  18   20.99   11.01   1
  -7 -12  18    1.06    7.79   1
  -6 -12  18   10.33    8.93   1
  -5 -12  18   59.38   15.07   1
   5  12 -18   65.48   18.45   2
  -4 -12  18    8.68    8.31   1
   4  12 -18   16.85   12.86   2
  -3 -12  18   87.52   16.80   1
   3  12 -18   66.35   17.13   2
   2  12 -18   85.93   18.32   2
  -2 -12  18   54.29   12.69   1
   1  12 -18   73.06   17.97   2
  -2  12 -18    9.93    7.92   3
  -3  12 -18   -1.73    7.41   3
  -4  12 -18    4.91    7.86   3
  -5  12 -18   -4.53    6.59   3
  -6  12 -18   15.02   10.93   3
  -9 -11  18  -11.56    6.55   1
  -8 -11  18   21.29   10.89   1
  -7 -11  18   58.45   15.64   1
   7  11 -18   30.14   14.01   2
  -6 -11  18    4.36    7.52   1
   6  11 -18   19.44   12.98   2
   5  11 -18   21.82   13.66   2
  -5 -11  18   18.18    8.81   1
   4  11 -18    4.19   11.23   2
  -4 -11  18   -2.51    6.39   1
  -3 -11  18   25.62   10.36   1
   3  11 -18   27.61   14.19   2
   2  11 -18   -7.99   10.27   2
  -2 -11  18   11.08    7.25   1
   1  11 -18  134.88   21.82   2
   0  11 -18   22.06   13.28   2
  -2  11 -18    0.57    6.43   3
  -3  11 -18   65.33   14.33   3
  -4  11 -18   67.15   14.76   3
  -5  11 -18   25.36   10.15   3
  -6  11 -18   34.81   12.19   3
  -7  11 -18    6.80    9.98   3
 -10 -10  18   20.03    8.71   1
  -9 -10  18   11.67    8.26   1
   8  10 -18   42.15   16.14   2
  -8 -10  18   53.02   15.71   1
   7  10 -18  190.55   26.66   2
  -7 -10  18  188.65   26.41   1
   6  10 -18   34.85   14.38   2
  -6 -10  18   36.86   11.66   1
  -5 -10  18   92.76   17.53   1
   5  10 -18   78.63   17.50   2
   4  10 -18   62.47   16.50   2
  -4 -10  18   39.95   12.20   1
  -3 -10  18    6.97    7.07   1
   3  10 -18   15.65   12.77   2
   2  10 -18  112.65   20.27   2
  -2 -10  18  113.63   17.77   1
  -1 -10  18   38.91    9.93   1
   1  10 -18   42.12   14.92   2
   0  10 -18   44.55   14.59   2
  -1  10 -18   -7.74    9.93   2
  -2  10 -18   13.02    8.16   3
  -3  10 -18  -15.42    5.54   3
  -4  10 -18   -7.95    5.25   3
  -5  10 -18   57.91   14.24   3
  -6  10 -18   -0.25    7.99   3
  -7  10 -18   15.29    9.69   3
  -8  10 -18   -1.59    5.14   3
 -11  -9  18   -4.37    5.33   1
 -10  -9  18    0.13    5.23   1
   9   9 -18   -2.49    9.10   2
  -9  -9  18   -2.54    7.99   1
  -8  -9  18   13.27   11.03   1
   8   9 -18   51.26   16.00   2
  -7  -9  18   -8.69    6.69   1
   7   9 -18   11.61   11.99   2
  -6  -9  18    4.26    7.02   1
   6   9 -18    1.54   12.27   2
   5   9 -18   -3.88   11.04   2
  -5  -9  18   -0.46    6.09   1
   4   9 -18    7.35   11.92   2
  -4  -9  18   18.35    8.96   1
   3   9 -18   41.44   14.44   2
  -3  -9  18   47.20   11.94   1
  -2  -9  18    8.88    6.38   1
   2   9 -18   14.84   11.90   2
  -1  -9  18   -4.30    5.63   1
   1   9 -18   16.15   11.55   2
   0   9 -18    3.38   10.89   2
  -1   9 -18   35.80   14.06   2
  -1   9 -18   16.92    8.09   3
  -2   9 -18  160.30   21.20   2
  -2   9 -18  183.07   19.25   3
  -3   9 -18   -4.77    5.06   3
  -4   9 -18  112.15   17.69   3
  -5   9 -18    0.13    7.47   3
  -6   9 -18    3.66    7.23   3
  -7   9 -18   14.71    9.45   3
  -8   9 -18   -4.97    6.07   3
  -9   9 -18    4.72    6.72   3
 -11  -8  18    3.12    4.82   4
 -11  -8  18    6.94    5.65   1
 -10  -8  18    2.91    7.89   1
 -10  -8  18    3.74    6.53   4
   9   8 -18    5.61    9.83   2
  -9  -8  18   -4.61    5.11   4
  -9  -8  18    4.52    7.85   1
   8   8 -18   58.74   16.22   2
  -8  -8  18   44.71   13.05   1
  -7  -8  18   85.31   17.36   1
   7   8 -18   35.80   13.68   2
  -6  -8  18   -5.00    6.39   1
   6   8 -18    1.79    9.51   2
   5   8 -18   94.05   18.89   2
  -5  -8  18   66.66   14.93   1
   4   8 -18    4.66   11.04   2
  -4  -8  18    6.68    7.49   1
   3   8 -18   11.12   10.91   2
  -3  -8  18    6.81    6.78   1
  -2  -8  18  137.05   17.58   1
   2   8 -18  146.80   20.81   2
   1   8 -18  382.31   28.70   2
  -1  -8  18  419.68   26.38   1
   0   8 -18   -2.56   10.27   2
  -1   8 -18   10.41   10.83   2
  -1   8 -18    9.51    6.01   3
  -2   8 -18   73.49   12.83   3
  -2   8 -18   54.49   15.63   2
  -3   8 -18    9.22    5.78   3
  -3   8 -18    7.27   10.92   2
  -4   8 -18   38.86   10.83   3
  -5   8 -18   24.86   10.04   3
  -6   8 -18  203.67   24.42   3
  -7   8 -18   14.91    8.76   3
  -8   8 -18   49.44   13.79   3
  -9   8 -18   -7.20    5.25   3
 -10   8 -18   -0.13    6.61   3
 -11  -7  18   -1.98    3.99   4
 -11  -7  18   -5.31    4.14   1
 -10  -7  18   38.01   10.94   4
 -10  -7  18   65.68   15.22   1
  10   7 -18   64.80   16.72   2
   9   7 -18    2.94    9.13   2
  -9  -7  18   -1.00    5.11   4
  -9  -7  18    2.76    7.39   1
   8   7 -18   27.35   12.23   2
  -8  -7  18   26.14   10.60   1
  -8  -7  18   37.38   11.00   4
  -7  -7  18    6.28    8.18   1
   7   7 -18   28.20   12.13   2
  -7  -7  18   11.90    8.46   4
   6   7 -18  123.79   20.04   2
  -6  -7  18   92.20   17.11   1
  -6  -7  18   69.08   14.04   4
   5   7 -18    5.81   10.01   2
  -5  -7  18   25.41    9.60   1
   4   7 -18    4.48   10.63   2
  -4  -7  18   10.47    7.31   1
  -3  -7  18   73.94   13.41   1
   3   7 -18   64.32   15.41   2
  -2  -7  18   12.76    6.96   1
   2   7 -18   16.89   11.56   2
   1   7 -18   29.97   12.62   2
   0   7 -18  115.14   19.15   2
  -1   7 -18   49.70   14.87   2
  -1   7 -18   63.87   11.39   3
  -2   7 -18  159.10   20.20   2
  -2   7 -18  207.24   19.29   3
  -3   7 -18    9.65    6.46   3
  -3   7 -18   -2.85    9.49   2
  -4   7 -18   48.15   11.86   3
  -4   7 -18   54.02   14.91   2
  -5   7 -18   17.94    9.24   3
  -6   7 -18    1.00    6.85   3
  -7   7 -18   31.57   10.94   3
  -8   7 -18   13.72    9.09   3
  -9   7 -18    3.08    8.21   3
 -10   7 -18   -3.55    5.52   3
 -11   7 -18   -5.81    5.67   3
 -12  -6  18   -2.01    5.26   1
 -12  -6  18    2.78    4.87   4
 -11  -6  18    0.11    4.47   4
 -11  -6  18   -1.45    4.75   1
 -10  -6  18   -3.75    4.70   4
  10   6 -18    3.79    9.33   2
 -10  -6  18    7.74    7.65   1
   9   6 -18   13.72   12.08   2
  -9  -6  18   19.06    9.96   1
  -9  -6  18   23.48    9.22   4
  -8  -6  18   61.65   13.84   4
  -8  -6  18   56.17   14.27   1
   8   6 -18  115.52   20.27   2
  -7  -6  18  124.28   19.12   4
  -7  -6  18  149.51   21.83   1
   7   6 -18  142.65   21.25   2
   6   6 -18   62.67   14.52   2
  -6  -6  18   49.02   11.54   4
  -6  -6  18   62.47   14.53   1
   5   6 -18   14.56   10.38   2
  -5  -6  18   32.83   10.66   1
  -5  -6  18   22.56    7.66   4
   4   6 -18   10.93   11.57   2
  -4  -6  18   18.58    7.19   4
  -4  -6  18   15.47    8.00   1
   3   6 -18   -0.80    9.50   2
  -3  -6  18   18.86    7.71   1
  -2  -6  18   18.17    7.35   1
   2   6 -18   24.78   11.98   2
   1   6 -18  392.95   28.70   2
  -1  -6  18  311.98   21.77   1
   0  -6  18   23.73    6.96   1
   0   6 -18   39.50   14.47   2
  -1   6 -18    4.85    4.22   3
  -1   6 -18   17.84   12.44   2
  -2   6 -18    2.07    5.65   3
  -2   6 -18   -1.10   11.63   2
  -3   6 -18   27.90   12.48   2
  -3   6 -18   51.97   11.42   3
  -4   6 -18   97.45   16.50   2
  -4   6 -18  117.22   17.24   3
  -5   6 -18   -3.81    9.19   2
  -5   6 -18   10.62    7.46   3
  -6   6 -18  113.44   17.86   3
  -7   6 -18   75.15   15.71   3
  -8   6 -18   13.48    8.88   3
  -9   6 -18   89.67   18.10   3
 -10   6 -18    0.40    6.97   3
 -11   6 -18  -14.10    4.84   3
  10   5 -18   39.90   14.02   2
   9   5 -18   -8.97    8.57   2
  -8  -5  18   14.27    6.97   4
  -8  -5  18    7.89    7.33   1
   8   5 -18    4.63    9.98   2
  -7  -5  18    7.08    7.90   1
  -7  -5  18   10.78    6.61   4
   7   5 -18    2.26    8.74   2
  -6  -5  18   64.04   14.60   1
   6   5 -18   46.88   13.14   2
  -6  -5  18   71.77   13.70   4
  -5  -5  18  216.69   21.44   4
   5   5 -18  198.72   22.43   2
  -5  -5  18  177.91   21.37   1
  -4  -5  18    8.60    6.54   1
   4   5 -18  -17.61    6.61   2
  -4  -5  18    3.17    4.70   4
   3   5 -18   10.41   11.50   2
  -3  -5  18    9.54    5.30   4
  -3  -5  18    3.90    5.43   1
   2   5 -18  146.65   20.26   2
  -2  -5  18  119.44   15.28   1
   1   5 -18   12.62   12.19   2
  -1  -5  18    0.89    3.36   1
   0   5 -18   81.23   17.38   2
   0  -5  18   87.58   11.90   1
  -1   5 -18   81.90   16.83   2
  -2   5 -18  350.65   22.70   3
  -2   5 -18  282.60   24.79   2
  -3   5 -18  201.08   19.90   3
  -3   5 -18  253.95   23.21   2
  -4   5 -18   46.47   11.08   3
  -4   5 -18   64.85   14.97   2
  -5   5 -18  109.19   17.22   3
  -5   5 -18  105.68   17.20   2
  -6   5 -18   34.48   12.45   2
  -6   5 -18    9.76    7.51   3
  -7   5 -18   86.06   16.60   3
  -8   5 -18    6.65    7.26   3
  -9   5 -18    2.26    7.36   3
 -10   5 -18   10.60    8.16   3
 -11   5 -18   -6.93    5.64   3
 -12   5 -18   -0.57    6.61   3
  12   4 -18   13.02   11.60   1
  11   4 -18   81.17   17.71   1
  11   4 -18   90.09   18.15   2
  10   4 -18   50.47   14.89   1
  10   4 -18   21.58   10.55   2
   9   4 -18   59.98   14.65   1
   9   4 -18   53.86   14.36   2
   8   4 -18  118.18   19.80   2
   8   4 -18  138.41   20.38   1
   7   4 -18  135.82   19.56   2
   7   4 -18   97.83   16.82   1
   6   4 -18  130.67   18.97   2
   6   4 -18   90.05   15.33   1
   5   4 -18   -5.30    8.07   2
  -4  -4  18    7.16    6.47   1
   4   4 -18   16.19   11.56   2
  -4  -4  18    8.98    5.84   4
   3   4 -18   42.15   13.68   2
  -3  -4  18   46.17   10.31   1
  -3  -4  18   18.42    6.82   4
  -2  -4  18    9.88    5.41   4
  -2  -4  18    1.82    4.89   1
   2   4 -18   -2.30    9.98   2
  -1  -4  18    5.60    3.91   1
   1   4 -18   20.22   12.83   2
   0  -4  18   15.35    5.78   1
   0   4 -18    2.89   10.57   2
  -1   4 -18   61.02   10.39   3
  -1   4 -18   51.52   14.12   2
  -2   4 -18   16.71   13.08   2
  -2   4 -18   19.40    7.10   3
  -3   4 -18   50.29   11.14   3
  -3   4 -18   39.19   13.47   2
  -4   4 -18   47.29   11.14   3
  -4   4 -18   35.38   13.62   2
  -5   4 -18   21.84    8.80   3
  -5   4 -18    8.77   10.86   2
  -6   4 -18  104.97   17.38   2
  -6   4 -18   71.91   14.67   3
  -7   4 -18  278.89   24.60   2
  -7   4 -18  320.71   26.35   3
  -8   4 -18    1.89    6.60   3
  -9   4 -18   56.09   13.93   3
 -10   4 -18   12.06    9.00   3
 -11   4 -18   22.57   11.36   3
 -12   4 -18   -2.98    4.62   3
  12   3 -18  126.39   23.54   1
  11   3 -18   37.83   12.52   2
  11   3 -18   37.13   13.47   1
  10   3 -18   36.52   13.05   2
  10   3 -18   32.81   11.79   1
   9   3 -18    8.75    9.66   2
   9   3 -18   21.31   11.33   1
   8   3 -18   26.24   11.73   1
   8   3 -18   28.78   11.75   2
   7   3 -18   19.61   10.85   2
   7   3 -18   41.32   12.54   1
   6   3 -18    3.85    8.36   2
   6   3 -18    0.92    7.80   1
   5   3 -18  118.77   16.70   1
   5   3 -18  134.17   18.43   2
   4   3 -18   54.31   14.51   2
   4   3 -18   45.99   11.44   1
   3   3 -18    4.03   10.46   2
   3   3 -18   -3.45    7.47   1
   2   3 -18   53.06   13.71   2
  -2  -3  18   41.94    8.82   4
  -2  -3  18   56.68   11.07   1
  -1  -3  18   44.20    8.28   4
   1   3 -18   62.39   15.22   2
  -1  -3  18   60.82   10.21   1
   0  -3  18  312.09   18.54   1
   0   3 -18  302.35   24.30   2
  -1   3 -18  522.43   26.04   3
  -1   3 -18  457.02   29.58   2
  -2   3 -18   -2.24    9.67   2
  -2   3 -18    0.58    4.25   3
  -3   3 -18  162.46   19.56   2
  -3   3 -18  149.27   16.77   3
  -4   3 -18   29.68   13.55   2
  -4   3 -18   12.98    6.84   3
  -5   3 -18   -2.95   10.20   2
  -5   3 -18   12.15    6.52   3
  -6   3 -18   15.83    8.53   3
  -6   3 -18   55.90   15.15   2
  -7   3 -18  208.60   23.88   3
  -7   3 -18  191.50   21.27   2
  -8   3 -18   25.37    8.81   3
  -8   3 -18    8.88   10.35   2
  -9   3 -18    4.73    7.08   3
 -10   3 -18    4.54    8.12   3
 -11   3 -18   19.39    9.05   3
 -12   3 -18    0.62    6.90   3
 -13   3 -18    8.21   10.36   3
  12   2 -18   34.44   14.58   1
  11   2 -18   74.91   17.70   1
  10   2 -18   31.97   12.33   2
  10   2 -18   23.44   11.60   1
   9   2 -18   26.40   11.21   2
   9   2 -18    7.20    9.36   1
   8   2 -18   66.59   14.96   2
   8   2 -18   47.97   13.67   1
   7   2 -18  113.35   17.74   2
   7   2 -18   99.60   17.89   1
   6   2 -18  219.91   22.02   2
   6   2 -18  189.99   20.64   1
   5   2 -18   10.43    9.94   2
   5   2 -18   12.46    8.39   1
   4   2 -18   34.74   12.25   2
   4   2 -18   13.81    8.99   1
   3   2 -18    2.63    7.59   1
   3   2 -18  -12.89    9.58   2
   2   2 -18   -8.51    6.58   1
   2   2 -18   14.42   11.13   2
   1   2 -18   13.23   11.24   2
   0  -2  18    4.85    3.77   4
   0   2 -18   -3.42   10.26   2
   0  -2  18    5.73    4.23   1
  -1   2 -18  222.83   15.98   3
  -1   2 -18  195.34   20.24   2
  -2   2 -18  129.09   14.53   3
  -2   2 -18  162.08   19.26   2
  -3   2 -18   77.45   12.81   3
  -3   2 -18   72.78   15.61   2
  -4   2 -18   26.93    7.93   3
  -4   2 -18   27.14   12.95   2
  -5   2 -18   14.76    6.78   3
  -5   2 -18   15.24   11.55   2
  -6   2 -18   10.68   11.09   2
  -6   2 -18   21.56    8.68   3
  -7   2 -18  579.26   35.62   3
  -7   2 -18  541.74   34.02   2
  -8   2 -18  171.78   20.76   2
  -8   2 -18  163.61   22.26   3
  -9   2 -18   68.81   15.52   2
  -9   2 -18   77.35   15.83   3
 -10   2 -18  151.89   23.07   3
 -11   2 -18   86.43   18.34   3
 -12   2 -18    6.89    7.52   3
 -13   2 -18   12.37   10.81   3
  12   1 -18   28.50   14.45   1
  11   1 -18   18.58   10.81   1
  10   1 -18   14.12    9.26   1
   9   1 -18   15.84    9.68   2
   9   1 -18    2.37    8.87   1
   8   1 -18   -8.85    7.43   2
   8   1 -18    7.28    8.40   1
   7   1 -18   14.67    9.56   1
   7   1 -18   27.91   10.66   2
   6   1 -18   98.82   15.89   2
   6   1 -18   84.23   15.84   1
   5   1 -18    6.58    7.53   1
   5   1 -18   12.51   10.02   2
   4   1 -18   46.61   11.53   1
   4   1 -18   71.51   15.22   2
   3   1 -18   48.94   13.50   2
   3   1 -18   55.11   11.94   1
   2   1 -18   75.73   15.36   2
   2   1 -18   58.62   11.38   1
   1   1 -18   17.44   11.81   2
   1   1 -18   22.32    8.14   1
   0   1 -18   12.30   10.79   2
   0   1 -18   -2.27    6.23   1
  -1   1 -18  277.85   23.44   2
  -2   1 -18  204.00   21.55   2
  -3   1 -18  174.20   20.84   2
  -4   1 -18   16.69   10.09   2
  -5   1 -18   59.30   15.01   2
  -6   1 -18   55.12   14.47   2
  -7   1 -18   23.86   11.34   2
  -8   1 -18    1.01    7.78   2
  -8   1 -18   -4.19    4.33   3
  -9   1 -18   15.45    9.95   2
  -9   1 -18    1.29    5.44   3
 -10   1 -18    7.35    6.69   3
 -10   1 -18    7.19    8.84   2
 -11   1 -18  190.07   26.36   3
 -12   1 -18   36.03   11.42   3
 -13   1 -18   35.61   13.52   3
 -14   1 -18   68.29   17.38   3
  11   0 -18   17.29   11.36   1
  10   0 -18   38.36   13.44   1
   9   0 -18   10.11    8.58   1
   8   0 -18   62.70   14.09   1
   8   0 -18   28.75   10.43   2
   7   0 -18  244.39   21.44   2
   7   0 -18  252.74   24.64   1
   6   0 -18  -21.49    5.72   1
   6   0 -18   -0.15    7.52   2
   5   0 -18  225.36   21.31   2
   5   0 -18  180.55   19.46   1
   4   0 -18   -0.78    8.61   2
   4   0 -18   14.10    8.85   1
   3   0 -18  132.58   15.55   1
   3   0 -18  148.23   18.16   2
   2   0 -18   -0.62    9.97   2
   2   0 -18    5.02    7.16   1
   1   0 -18   20.80    8.08   1
   1   0 -18   29.04   11.88   2
   0   0 -18   75.28   10.18   1
   0   0 -18   77.57   15.72   2
  -1   0 -18   25.54   12.32   2
  -2   0 -18  168.18   20.84   2
  -3   0 -18  432.02   29.49   2
  -4   0 -18    9.41    9.93   2
  -5   0 -18  502.83   32.12   2
  -6   0 -18   65.79   14.49   2
  -7   0 -18  107.42   17.25   2
  -8   0 -18   50.33   13.39   2
  -9   0 -18    3.46    7.34   2
 -10   0 -18   24.47    9.83   2
 -11   0 -18   -1.72    6.44   3
 -11   0 -18    9.13    8.98   2
 -12   0 -18   23.52    8.84   3
 -13   0 -18   -1.64    8.05   3
 -14   0 -18   15.88   11.70   3
  11  -1 -18   30.09   13.33   1
  10  -1 -18    7.74    9.63   1
   9  -1 -18   17.93   10.09   1
   8  -1 -18    5.44    8.96   1
   7  -1 -18   16.79    9.49   1
   7  -1 -18   29.96   10.44   2
   6  -1 -18  127.08   17.01   2
   6  -1 -18  106.40   17.24   1
   5  -1 -18   20.00    9.72   2
   5  -1 -18   -2.62    6.10   1
   4  -1 -18  114.57   16.22   1
   4  -1 -18  119.19   16.49   2
   3  -1 -18   82.82   13.64   1
   3  -1 -18   65.75   14.63   2
   2  -1 -18  194.99   17.64   1
   2  -1 -18  259.18   22.73   2
   1  -1 -18   73.43   11.55   1
   1  -1 -18   79.52   15.41   2
   0  -1 -18    8.36   11.68   2
   0  -1 -18   15.69    7.21   1
  -1  -1 -18  295.52   24.52   2
  -2  -1 -18  230.83   22.46   2
  -3  -1 -18  116.25   18.03   2
  -4  -1 -18   12.23    9.92   2
  -5  -1 -18   74.02   14.67   2
  -6  -1 -18    7.79    8.01   2
  -7  -1 -18  168.01   20.20   2
  -8  -1 -18   34.84   11.10   2
  -9  -1 -18   72.93   15.22   2
 -10  -1 -18   -4.65    7.40   2
 -11  -1 -18  209.53   23.90   2
 -12  -1 -18   12.01    9.33   2
 -13  -1 -18    9.89    8.81   3
 -14  -1 -18   21.67   12.01   3
  11  -2 -18   12.01   10.89   1
  10  -2 -18  117.18   21.66   1
   9  -2 -18   13.63    8.95   1
   8  -2 -18    7.27    9.03   1
   7  -2 -18   97.48   17.88   1
   6  -2 -18   16.99    9.02   1
   6  -2 -18    1.68    7.71   2
   5  -2 -18  530.07   30.59   2
   5  -2 -18  605.03   34.13   1
   4  -2 -18    7.22    8.35   1
   4  -2 -18   13.00    9.55   2
   3  -2 -18  101.39   14.84   1
   3  -2 -18   66.95   14.36   2
   2  -2 -18   20.31   11.41   2
   2  -2 -18   29.24    9.35   1
   1  -2 -18  213.49   16.51   1
   1  -2 -18  250.38   21.98   2
   0  -2 -18   46.96    9.34   1
   0  -2 -18   30.66   12.01   2
  -1  -2 -18   -1.81    8.40   2
  -2  -2 -18  134.19   18.85   2
  -3  -2 -18  567.60   33.69   2
  -4  -2 -18   26.32   10.57   2
  -5  -2 -18   12.60    7.85   2
  -6  -2 -18  137.69   19.01   2
  -7  -2 -18  110.65   17.56   2
  -8  -2 -18    8.96    7.52   2
  -9  -2 -18    2.76    7.23   2
 -10  -2 -18   86.78   16.67   2
 -11  -2 -18    4.53    7.52   2
 -12  -2 -18    7.60    8.58   2
 -13  -2 -18   -1.11    8.30   2
  11  -3 -18   15.17   12.81   1
  10  -3 -18    5.64   10.16   1
   9  -3 -18   -2.87    8.59   1
   8  -3 -18   80.43   17.11   1
   7  -3 -18   28.37   11.60   1
   6  -3 -18   30.62   10.27   1
   5  -3 -18  113.90   15.79   2
   5  -3 -18  134.76   18.45   1
   4  -3 -18   14.18    9.59   2
   4  -3 -18   12.87    8.66   1
   3  -3 -18  421.98   27.10   1
   3  -3 -18  443.21   27.90   2
   2  -3 -18   38.01   13.07   2
   2  -3 -18   38.08   11.24   1
   1  -3 -18   42.72   13.16   2
   1  -3 -18   36.12   10.49   1
   0  -3 -18   78.06   11.78   1
   0  -3 -18   45.28   13.70   2
  -1  -3 -18   63.59   14.39   2
  -2  -3 -18  154.35   19.63   2
  -3  -3 -18  155.90   19.33   2
  -4  -3 -18   11.52    7.54   2
  -5  -3 -18  170.64   20.65   2
  -6  -3 -18    9.73    8.41   2
  -7  -3 -18   -0.22    5.97   2
  -8  -3 -18  275.73   26.84   2
  -9  -3 -18   97.60   17.92   2
 -10  -3 -18   93.26   17.93   2
 -11  -3 -18   -9.80    6.42   2
 -12  -3 -18  183.44   25.57   2
 -13  -3 -18    3.93    7.96   2
  10  -4 -18  149.53   25.52   1
   9  -4 -18   59.03   14.75   1
   8  -4 -18    2.89    8.46   1
   7  -4 -18    9.72    8.87   1
   6  -4 -18   18.78   10.20   1
   5  -4 -18  264.95   25.73   1
   4  -4 -18   15.13    9.38   1
   4  -4 -18   14.13    9.25   2
   3  -4 -18   14.68    9.96   2
   3  -4 -18   22.43    9.39   1
   2  -4 -18   57.35   12.94   1
   2  -4 -18   39.05   13.34   2
   1  -4 -18   38.82   13.30   2
   1  -4 -18   12.42    8.41   1
   0  -4 -18   68.61   15.45   2
   0  -4 -18   52.71   11.35   1
  -1  -4 -18   42.57   13.51   2
  -1  -4 -18   52.21   10.41   1
  -2  -4 -18   17.48   10.43   2
  -3  -4 -18    8.94    7.65   2
  -4  -4 -18  378.28   27.42   2
  -5  -4 -18    5.69    6.82   2
  -6  -4 -18  338.05   26.80   2
  -7  -4 -18    8.86    7.56   2
  -8  -4 -18  142.57   21.06   2
  -9  -4 -18    8.67    8.59   2
 -10  -4 -18   26.57   11.39   2
 -11  -4 -18    9.81    9.33   2
 -12  -4 -18   18.35    9.16   2
 -13  -4 -18   -2.69    7.43   2
 -14  -4 -18   38.95   13.18   2
  10  -5 -18   20.90   12.95   1
   9  -5 -18  -14.84    7.34   1
   8  -5 -18    4.16    9.55   1
   7  -5 -18   47.81   13.68   1
   6  -5 -18    0.79    9.06   1
   5  -5 -18  222.13   24.82   1
   4  -5 -18   77.50   15.58   1
   3  -5 -18   74.49   14.58   2
   3  -5 -18   95.90   15.71   1
   2  -5 -18   17.15   11.77   2
   2  -5 -18   35.00   11.61   1
   1  -5 -18   10.45    8.36   1
   1  -5 -18   -3.88    9.42   2
   0  -5 -18    1.56    7.72   1
   0  -5 -18    3.17    9.23   2
  -1  -5 -18  332.75   25.98   2
  -1  -5 -18  312.88   21.25   1
  -2  -5 -18   15.55    8.78   2
  -3  -5 -18    7.75    7.58   2
  -4  -5 -18    3.33    5.73   2
  -5  -5 -18  134.36   19.05   2
  -6  -5 -18    5.21    5.74   2
  -7  -5 -18    2.91    7.16   2
  -8  -5 -18  294.72   26.59   2
  -9  -5 -18   34.75   12.45   2
 -10  -5 -18  126.82   21.89   2
 -11  -5 -18   17.14   10.20   2
 -12  -5 -18  102.99   20.52   2
 -13  -5 -18    8.84   10.19   2
 -14  -5 -18   14.45   10.80   2
 -15  -5 -18   50.62   16.27   2
   9  -6 -18   57.43   17.11   1
   8  -6 -18   84.24   18.35   1
   7  -6 -18    8.04    9.33   1
   6  -6 -18   11.52   10.64   1
   5  -6 -18   19.21   11.33   1
   4  -6 -18    4.52    8.39   1
   3  -6 -18   83.64   15.94   1
   2  -6 -18   41.29   11.89   1
   2  -6 -18   35.10   12.25   2
   1  -6 -18   13.74    9.44   1
   1  -6 -18   -5.26    8.72   2
   0  -6 -18   -1.39    7.81   2
   0  -6 -18    4.96    7.78   1
  -1  -6 -18   15.20    9.35   2
  -1  -6 -18   13.35    8.92   1
  -2  -6 -18  116.01   17.38   2
  -3  -6 -18   78.60   15.13   2
  -4  -6 -18  583.38   35.28   2
  -5  -6 -18   74.01   15.20   2
  -6  -6 -18   55.56   13.66   2
  -7  -6 -18  123.91   19.83   2
  -8  -6 -18   98.36   18.65   2
  -9  -6 -18   11.80    9.15   2
 -10  -6 -18   12.50   10.60   2
 -11  -6 -18    3.27    7.37   2
 -12  -6 -18   -5.62    6.96   2
 -13  -6 -18   53.63   16.78   2
 -14  -6 -18   23.12   11.80   2
 -15  -6 -18   63.47   19.97   2
   8  -7 -18  -10.61    9.09   1
   7  -7 -18   59.46   16.33   1
   6  -7 -18   23.47   12.05   1
   5  -7 -18  168.29   23.55   1
   4  -7 -18   36.28   12.68   1
   3  -7 -18  149.99   20.71   1
   2  -7 -18   26.07   11.01   1
   1  -7 -18   -0.67    7.85   1
   1  -7 -18    1.18    8.92   2
   0  -7 -18    6.51    8.65   2
   0  -7 -18   -3.98    6.76   1
  -1  -7 -18  302.01   21.61   1
  -1  -7 -18  253.44   22.56   2
  -2  -7 -18    4.46    6.80   2
  -3  -7 -18    8.19    7.06   2
  -4  -7 -18   16.52    8.43   2
  -5  -7 -18   12.57    8.30   2
  -6  -7 -18   53.00   13.34   2
  -7  -7 -18   41.36   12.91   2
  -8  -7 -18   48.71   13.87   2
  -9  -7 -18    4.32    9.84   2
 -10  -7 -18  117.10   22.63   2
 -11  -7 -18   94.11   20.10   2
 -12  -7 -18   82.75   18.92   2
 -13  -7 -18   60.60   18.06   2
 -14  -7 -18   17.35   11.83   2
   8  -8 -18   37.16   16.64   1
   7  -8 -18    6.38   10.99   1
   6  -8 -18   22.26   11.81   1
   5  -8 -18   10.27    9.87   1
   4  -8 -18   14.00   10.97   1
   3  -8 -18   63.48   15.56   1
   2  -8 -18   20.34   11.00   1
   1  -8 -18   60.16   13.97   1
   0  -8 -18    8.63    8.54   1
   0  -8 -18    2.37    8.00   2
  -1  -8 -18    0.82    6.74   1
  -1  -8 -18    2.69    8.08   2
  -2  -8 -18   55.41   13.35   2
  -3  -8 -18   86.43   16.10   2
  -4  -8 -18  118.68   18.64   2
  -5  -8 -18   19.76    9.91   2
  -6  -8 -18   61.35   14.87   2
  -7  -8 -18    1.61    6.94   2
  -8  -8 -18    0.81    7.28   2
  -9  -8 -18   58.87   15.93   2
 -10  -8 -18    9.90    9.17   2
 -11  -8 -18    8.40    9.69   2
 -12  -8 -18    2.33   10.71   2
 -13  -8 -18    5.25   10.34   2
 -14  -8 -18   24.07   16.01   2
   7  -9 -18   64.73   17.55   1
   6  -9 -18    8.02   12.20   1
   5  -9 -18   43.74   13.25   1
   4  -9 -18   27.08   12.10   1
   3  -9 -18   13.66   10.91   1
   2  -9 -18  126.32   20.24   1
   1  -9 -18   17.14   10.08   1
   0  -9 -18   -6.68    6.60   1
  -1  -9 -18   24.00   10.07   1
  -1  -9 -18   28.01   10.50   2
  -2  -9 -18   40.49   11.24   2
  -3  -9 -18   13.67    8.13   2
  -4  -9 -18   -0.82    5.98   2
  -5  -9 -18   31.86   10.63   2
  -6  -9 -18   73.52   15.99   2
  -7  -9 -18    9.26    8.73   2
  -8  -9 -18  137.96   23.05   2
  -9  -9 -18   37.78   13.83   2
 -10  -9 -18    4.10   10.15   2
 -11  -9 -18   44.16   15.02   2
 -12  -9 -18   -6.33    8.93   2
 -13  -9 -18   33.55   15.34   2
   6 -10 -18    6.34   10.81   1
   5 -10 -18    2.90   11.13   1
   4 -10 -18   26.62   12.13   1
   3 -10 -18    4.58   10.09   1
   2 -10 -18   22.41   10.63   1
   1 -10 -18   63.55   14.65   1
   0 -10 -18   34.52   11.69   1
  -1 -10 -18   43.83   12.33   1
  -2 -10 -18   91.21   16.32   2
  -2 -10 -18   71.00   14.56   1
  -3 -10 -18   23.39    9.94   2
  -4 -10 -18   -1.06    7.58   2
  -5 -10 -18  108.26   18.82   2
  -6 -10 -18    1.36    7.22   2
  -7 -10 -18   32.94   11.85   2
  -8 -10 -18   10.37   10.09   2
  -9 -10 -18   20.11   12.59   2
 -10 -10 -18    7.43    8.37   2
 -11 -10 -18    5.77    8.59   2
 -12 -10 -18  137.51   27.76   2
   5 -11 -18   47.03   16.07   1
   4 -11 -18   26.67   12.87   1
   3 -11 -18    8.82   10.17   1
   2 -11 -18   54.26   15.47   1
   1 -11 -18   -2.04    8.07   1
   0 -11 -18   17.04    9.99   1
  -1 -11 -18    0.65    8.39   1
  -2 -11 -18   -2.43    7.67   1
  -3 -11 -18    0.59    7.54   2
  -4 -11 -18    3.57    7.58   2
  -5 -11 -18   14.42    8.90   2
  -6 -11 -18   52.51   14.63   2
  -7 -11 -18   43.60   13.99   2
  -8 -11 -18   -7.10    6.62   2
  -9 -11 -18   32.07   13.17   2
 -10 -11 -18    2.36    8.70   2
 -11 -11 -18    1.88    7.06   2
 -12 -11 -18    0.47    7.37   2
   3 -12 -18   -8.42    9.93   1
   2 -12 -18   55.30   15.21   1
   1 -12 -18   22.55   11.64   1
   0 -12 -18   71.45   15.74   1
  -1 -12 -18   34.87   12.34   1
  -2 -12 -18  -17.88    7.48   1
  -4 -12 -18   23.28   10.45   2
  -5 -12 -18   82.56   17.30   2
  -6 -12 -18   16.63   10.11   2
  -7 -12 -18   11.98    9.35   2
  -8 -12 -18    5.16    8.38   2
  -9 -12 -18   10.61    9.46   2
 -10 -12 -18   -1.69    6.59   2
 -11 -12 -18   -3.39    7.62   2
   2 -13 -18   -1.49   11.45   1
   1 -13 -18   14.25   10.70   1
   0 -13 -18   21.76   10.92   1
  -1 -13 -18    4.26    9.78   1
  -5 -13 -18   20.15   10.36   2
  -6 -13 -18   -5.15    7.15   2
  -7 -13 -18   82.14   19.06   2
  -8 -13 -18   -7.87    7.95   2
  -9 -13 -18   -7.46    6.50   2
 -10 -13 -18   -5.67    8.02   2
   0 -14 -18   85.03   19.13   1
  -1 -14 -18   15.31   11.85   1
  -6 -14 -18   18.96   10.29   2
  -7 -14 -18    3.38    8.08   2
  -8 -14 -18  -11.29    8.78   2
  -9 -14 -18    4.63   10.07   2
  -7 -15 -18   14.97   11.69   2
  -5 -14  19   18.73   10.47   1
  -4 -14  19   -6.54    7.60   1
  -7 -13  19   18.55   11.30   1
  -6 -13  19   44.26   13.84   1
  -5 -13  19   52.31   13.49   1
  -4 -13  19    1.53    7.47   1
   4  13 -19    6.58   14.13   2
   3  13 -19   19.23   13.59   2
  -3 -13  19   -1.72    7.56   1
   2  13 -19   -1.55   12.79   2
  -4  13 -19   24.37   11.68   3
  -8 -12  19    3.09    9.65   1
  -7 -12  19    2.68    8.04   1
   6  12 -19   87.01   21.25   2
  -6 -12  19   76.49   17.00   1
  -5 -12  19    3.95    9.58   1
   5  12 -19  -12.78   11.07   2
  -4 -12  19   85.23   17.68   1
   4  12 -19   56.22   17.02   2
  -3 -12  19   -7.46    5.90   1
   3  12 -19    4.14   11.95   2
   2  12 -19   25.32   14.26   2
   1  12 -19   58.52   17.40   2
  -3  12 -19   53.69   12.90   3
  -4  12 -19   -2.65    7.21   3
  -5  12 -19   12.26    9.63   3
  -9 -11  19   -8.39    8.30   1
  -8 -11  19  171.68   25.63   1
  -7 -11  19    2.15    9.52   1
   7  11 -19   10.82   13.92   2
   6  11 -19   29.59   14.84   2
  -6 -11  19   26.64   12.00   1
   5  11 -19  -12.12   10.50   2
  -5 -11  19    3.07    7.84   1
  -4 -11  19    2.07    7.20   1
   4  11 -19   -0.60   11.48   2
   3  11 -19    1.85   11.98   2
  -3 -11  19   -3.67    6.73   1
   2  11 -19  -11.54   10.33   2
  -2 -11  19    3.85    6.46   1
   1  11 -19    2.26   12.18   2
   0  11 -19   88.70   19.59   2
  -3  11 -19   78.92   15.38   3
  -4  11 -19    6.51    7.72   3
  -5  11 -19   75.77   16.15   3
  -6  11 -19   16.27    8.51   3
  -7  11 -19   17.97   13.09   3
 -10 -10  19    5.12    8.03   1
  -9 -10  19   36.52   12.21   1
   8  10 -19  122.46   23.22   2
  -8 -10  19  131.35   23.04   1
   7  10 -19   63.26   17.94   2
  -7 -10  19   41.44   13.42   1
   6  10 -19   55.95   18.63   2
  -6 -10  19   78.75   16.30   1
   5  10 -19   21.77   14.99   2
  -5 -10  19   19.14    9.34   1
   4  10 -19   70.33   17.97   2
  -4 -10  19   55.81   14.39   1
   3  10 -19   98.97   20.90   2
  -3 -10  19  135.23   19.56   1
   2  10 -19  117.90   21.57   2
  -2 -10  19  115.29   17.65   1
   1  10 -19   89.12   19.32   2
   0  10 -19   12.68   12.07   2
  -1  10 -19   10.47   11.62   2
  -2  10 -19   48.73   11.37   3
  -3  10 -19    0.05    6.70   3
  -4  10 -19    4.06    7.17   3
  -5  10 -19    2.54    7.13   3
  -6  10 -19   -2.94    7.29   3
  -7  10 -19   23.92    9.31   3
  -8  10 -19    8.44    7.54   3
 -10  -9  19    4.49    7.30   1
  -9  -9  19   22.38   10.82   1
   9   9 -19    7.16    6.38   2
  -8  -9  19   66.76   16.76   1
   8   9 -19   21.65   12.50   2
   7   9 -19    2.50   11.71   2
  -7  -9  19   -3.11    7.17   1
   6   9 -19   14.76   11.45   2
  -6  -9  19    1.49    7.55   1
   5   9 -19   -5.33    9.50   2
  -5  -9  19   10.46    8.44   1
   4   9 -19   16.29   12.90   2
  -4  -9  19    8.53    8.15   1
  -3  -9  19    6.44    7.16   1
   3   9 -19   23.35   13.13   2
   2   9 -19    0.43   10.95   2
  -2  -9  19    0.03    5.34   1
   1   9 -19   26.76   13.78   2
   0   9 -19   97.39   19.27   2
  -1   9 -19  227.17   24.60   2
  -2   9 -19   -4.22   10.46   2
  -2   9 -19    0.15    5.31   3
  -3   9 -19   38.28   11.58   3
  -4   9 -19    9.23    7.42   3
  -5   9 -19   10.14    8.74   3
  -6   9 -19   39.98   12.45   3
  -7   9 -19   14.02    8.65   3
  -8   9 -19   -7.49    4.87   3
  -9   9 -19   -7.79    4.87   3
 -11  -8  19  -12.72    4.64   1
 -11  -8  19   -8.03    5.41   4
 -10  -8  19   -1.38    4.81   4
 -10  -8  19  -10.24    5.35   1
  -9  -8  19    8.24    6.78   4
   9   8 -19  -10.94    9.88   2
  -9  -8  19    0.49    7.55   1
  -8  -8  19   86.49   17.93   1
   8   8 -19   73.41   17.64   2
   7   8 -19   -4.80   10.01   2
  -7  -8  19    2.20    7.25   1
   6   8 -19   61.61   17.24   2
  -6  -8  19  121.82   20.53   1
   5   8 -19   61.90   16.72   2
  -5  -8  19   82.10   16.33   1
  -4  -8  19   10.16    7.26   1
   4   8 -19   13.47   11.67   2
   3   8 -19  359.84   29.50   2
  -3  -8  19  465.58   30.38   1
   2   8 -19  144.31   21.64   2
  -2  -8  19  146.69   18.13   1
   1   8 -19    2.51   10.30   2
   0   8 -19   68.71   16.72   2
  -1   8 -19   35.00   13.47   2
  -2   8 -19   27.86    9.14   3
  -2   8 -19   26.90   13.83   2
  -3   8 -19   -1.13    5.91   3
  -3   8 -19   27.17   13.04   2
  -4   8 -19   14.99    7.67   3
  -5   8 -19  127.65   19.71   3
  -6   8 -19    0.32    6.76   3
  -7   8 -19   36.26   11.83   3
  -8   8 -19    2.32    7.32   3
  -9   8 -19   -1.89    5.19   3
 -11  -7  19   -3.14    6.22   1
 -11  -7  19   -5.81    4.66   4
  10   7 -19    5.26   10.55   2
 -10  -7  19   -5.12    7.02   1
 -10  -7  19    5.52    6.63   4
  -9  -7  19   41.95   13.01   1
  -9  -7  19   50.45   12.11   4
   9   7 -19   87.53   18.70   2
  -8  -7  19   25.59   11.23   1
  -8  -7  19   10.67    7.31   4
   8   7 -19   20.57   12.50   2
   7   7 -19   -1.54    9.62   2
  -7  -7  19    7.62    7.46   1
  -7  -7  19   15.29    7.09   4
   6   7 -19   -0.75   10.24   2
  -6  -7  19    5.15    7.15   1
  -6  -7  19    7.89    6.45   4
  -5  -7  19    0.46    5.46   1
   5   7 -19    8.82   10.70   2
  -4  -7  19   12.37    7.72   1
   4   7 -19   -8.72   10.12   2
  -3  -7  19   67.15   13.31   1
   3   7 -19   79.46   16.32   2
   2   7 -19  138.37   20.40   2
  -2  -7  19  159.20   18.63   1
  -1  -7  19  198.66   18.96   1
   1   7 -19  258.82   25.32   2
   0   7 -19   14.07   12.02   2
  -1   7 -19   40.10   14.20   2
  -2   7 -19   -4.29    4.87   3
  -2   7 -19   -3.96   10.19   2
  -3   7 -19   83.70   14.34   3
  -3   7 -19   89.01   17.27   2
  -4   7 -19  178.86   21.30   3
  -4   7 -19  228.82   23.91   2
  -5   7 -19   10.74    8.19   3
  -6   7 -19  129.08   19.97   3
  -7   7 -19   55.68   13.82   3
  -8   7 -19    7.15    8.62   3
  -9   7 -19   12.25    8.06   3
 -10   7 -19   -3.03    4.89   3
 -11  -6  19    1.95    4.64   4
 -11  -6  19    8.13    6.61   1
  10   6 -19    1.43    9.57   2
 -10  -6  19   11.77    9.42   1
 -10  -6  19    5.01    6.31   4
  -9  -6  19    7.49    6.67   4
   9   6 -19   23.45   12.32   2
  -9  -6  19   18.90   10.03   1
  -8  -6  19   67.21   14.29   4
  -8  -6  19   95.00   18.64   1
   8   6 -19   81.06   17.12   2
   7   6 -19   46.64   14.89   2
  -7  -6  19   58.90   14.69   1
  -7  -6  19   56.49   12.99   4
  -6  -6  19  258.45   25.10   4
  -6  -6  19  317.32   26.54   1
   6   6 -19  283.17   27.64   2
   5   6 -19  156.39   21.29   2
  -5  -6  19  184.22   20.77   4
  -5  -6  19  195.05   22.66   1
  -4  -6  19   -1.28    5.02   1
   4   6 -19    8.22    9.94   2
   3   6 -19   24.48   12.95   2
  -3  -6  19   11.53    6.83   1
   2   6 -19  334.19   27.22   2
  -2  -6  19  296.40   22.23   1
  -1  -6  19   37.73    9.00   1
   1   6 -19   73.03   16.44   2
   0   6 -19  363.73   27.31   2
  -1   6 -19   10.80   11.84   2
  -2   6 -19   95.20   18.00   2
  -2   6 -19  101.25   14.60   3
  -3   6 -19  104.73   17.49   2
  -3   6 -19   76.07   13.95   3
  -4   6 -19   30.28    9.76   3
  -4   6 -19   38.21   14.07   2
  -5   6 -19   14.00    8.31   3
  -5   6 -19   41.88   13.69   2
  -6   6 -19   35.19   11.64   3
  -7   6 -19   80.45   17.17   3
  -8   6 -19   56.21   14.65   3
  -9   6 -19   19.66   10.26   3
 -10   6 -19    9.35    7.12   3
 -11   6 -19   -2.55    5.27   3
  11   5 -19   23.25   11.95   2
  10   5 -19   13.76   10.14   2
  -9  -5  19   22.12    8.17   4
   9   5 -19   19.97   11.71   2
  -9  -5  19   21.62   10.47   1
   8   5 -19  174.81   23.03   2
  -8  -5  19  113.87   19.77   1
  -8  -5  19  123.14   18.64   4
  -7  -5  19   16.05    7.53   4
   7   5 -19   -6.06    8.66   2
  -7  -5  19   16.24    8.64   1
   6   5 -19   23.93   11.77   2
  -6  -5  19   19.88    8.56   1
  -6  -5  19    6.40    5.26   4
   5   5 -19  105.75   18.07   2
  -5  -5  19  148.69   19.74   1
  -5  -5  19  105.57   15.90   4
  -4  -5  19   19.63    7.80   1
  -4  -5  19   33.35    8.89   4
   4   5 -19   18.60   11.57   2
  -3  -5  19   -8.41    3.77   4
   3   5 -19   -3.37   10.21   2
  -3  -5  19   -1.32    5.12   1
   2   5 -19  114.73   18.93   2
  -2  -5  19   80.71   13.27   1
   0   5 -19  348.21   27.04   2
  -1   5 -19    2.23   11.75   2
  -2   5 -19   88.98   17.07   2
  -2   5 -19   93.87   13.94   3
  -3   5 -19  101.46   15.06   3
  -3   5 -19   95.41   17.01   2
  -4   5 -19  161.96   19.52   3
  -4   5 -19  164.45   20.39   2
  -5   5 -19    1.95    5.90   3
  -5   5 -19    6.57   10.93   2
  -6   5 -19   16.62   11.51   2
  -6   5 -19   26.65    9.89   3
  -7   5 -19   35.48   12.15   3
  -8   5 -19   -6.24    5.72   3
  -9   5 -19    9.35    8.33   3
 -10   5 -19    1.12    7.97   3
 -11   5 -19   -4.39    4.63   3
 -12   5 -19    3.33    7.15   3
  11   4 -19    0.85   11.03   1
  11   4 -19   30.32   12.76   2
  10   4 -19   21.02   11.39   2
  10   4 -19    9.75    9.63   1
   9   4 -19   19.72   11.59   2
   9   4 -19   11.10    8.60   1
   8   4 -19   10.88    9.78   2
   8   4 -19    9.08    9.78   1
   7   4 -19  180.78   22.29   2
   7   4 -19  129.21   18.83   1
   6   4 -19    1.61    8.63   2
   6   4 -19    4.76    7.20   1
  -5  -4  19  131.68   17.49   4
   5   4 -19  116.93   18.77   2
  -5  -4  19  114.03   17.87   1
   4   4 -19   13.97   10.58   2
  -4  -4  19   -0.15    6.31   1
  -4  -4  19    2.65    5.34   4
  -3  -4  19   -2.11    4.86   1
  -3  -4  19    1.41    3.73   4
   3   4 -19    6.30   10.92   2
  -2  -4  19  107.39   13.52   4
  -2  -4  19   88.33   13.54   1
   2   4 -19   75.89   17.19   2
   1   4 -19   51.05   15.91   2
  -1  -4  19   32.79    7.90   1
   0   4 -19   84.13   17.09   2
  -1   4 -19   18.10   12.15   2
  -1   4 -19   16.31    6.80   3
  -2   4 -19    5.55   10.54   2
  -2   4 -19   11.30    6.01   3
  -3   4 -19  280.18   21.02   3
  -3   4 -19  257.01   24.02   2
  -4   4 -19    9.32   11.50   2
  -4   4 -19    1.07    4.78   3
  -5   4 -19   -6.25    9.18   2
  -5   4 -19    8.56    6.02   3
  -6   4 -19  212.63   22.68   2
  -6   4 -19  206.33   23.65   3
  -7   4 -19   11.74   13.19   2
  -7   4 -19   20.47    8.38   3
  -8   4 -19   89.58   17.54   3
  -9   4 -19   49.13   12.89   3
 -10   4 -19   68.81   16.83   3
 -11   4 -19    8.69    7.33   3
 -12   4 -19   -9.99    5.32   3
  11   3 -19   76.59   16.86   2
  11   3 -19   75.20   18.29   1
  10   3 -19   84.65   16.78   2
  10   3 -19   61.66   15.84   1
   9   3 -19   11.80    8.51   1
   9   3 -19    7.66    9.44   2
   8   3 -19   11.87   10.33   1
   8   3 -19    2.71    8.56   2
   7   3 -19   24.47   10.40   1
   7   3 -19   39.32   13.03   2
   6   3 -19   25.31   11.74   2
   6   3 -19   25.29    9.73   1
   5   3 -19   -0.49    8.36   2
   5   3 -19    0.45    7.45   1
   4   3 -19    4.29    7.16   1
   4   3 -19    6.63    9.81   2
   3   3 -19  154.56   19.81   2
  -2  -3  19  111.26   13.78   4
   2   3 -19   86.82   16.24   2
  -2  -3  19   67.33   12.23   1
   1   3 -19   27.20   12.40   2
  -1  -3  19   16.93    5.82   4
  -1  -3  19   25.63    6.86   1
   0   3 -19  283.80   24.16   2
  -1   3 -19   10.80   12.76   2
  -1   3 -19   22.21    7.00   3
  -2   3 -19  534.73   32.51   2
  -3   3 -19  165.77   17.66   3
  -3   3 -19  159.13   19.83   2
  -4   3 -19   -0.72    4.47   3
  -4   3 -19    4.73   11.63   2
  -5   3 -19   16.63    7.75   3
  -5   3 -19    4.75   11.68   2
  -6   3 -19   36.91   10.94   3
  -6   3 -19   41.87   14.08   2
  -7   3 -19   90.75   16.97   3
  -7   3 -19  105.51   18.23   2
  -8   3 -19   33.85   10.92   3
  -8   3 -19   39.11   13.65   2
  -9   3 -19   67.17   15.46   3
 -10   3 -19    5.20    6.52   3
 -11   3 -19    9.30    7.49   3
 -12   3 -19  -11.01    4.44   3
 -13   3 -19   -3.97    5.73   3
  11   2 -19   71.61   18.28   1
  10   2 -19   13.92   10.20   1
  10   2 -19    8.42    8.95   2
   9   2 -19  119.32   18.93   2
   9   2 -19  125.97   19.56   1
   8   2 -19    1.59    8.75   2
   8   2 -19    9.94    9.03   1
   7   2 -19  464.64   31.09   1
   7   2 -19  443.54   30.37   2
   6   2 -19  123.42   18.30   2
   6   2 -19  112.44   17.28   1
   5   2 -19    3.99    7.63   1
   5   2 -19    2.04    9.51   2
   4   2 -19   -1.13    9.83   2
   4   2 -19    3.58    7.57   1
   3   2 -19   11.59    8.14   1
   3   2 -19   16.35   11.78   2
   2   2 -19  120.44   17.85   2
   2   2 -19  124.59   14.70   1
   1   2 -19   29.19   11.94   2
   0   2 -19   16.21   11.68   2
  -1   2 -19   73.14   15.62   2
  -1   2 -19   91.01   11.89   3
  -2   2 -19   -3.46   10.10   2
  -2   2 -19   -1.86    2.90   3
  -3   2 -19  248.50   25.36   2
  -3   2 -19  203.56   17.65   3
  -4   2 -19    1.87    5.23   3
  -4   2 -19    8.52   11.04   2
  -5   2 -19   41.51   14.15   2
  -5   2 -19   27.27    8.98   3
  -6   2 -19  683.08   38.26   2
  -6   2 -19  698.61   39.06   3
  -7   2 -19  182.61   21.39   2
  -7   2 -19  130.75   19.65   3
  -8   2 -19  568.94   37.46   3
  -8   2 -19  596.06   36.59   2
  -9   2 -19   91.65   17.66   3
  -9   2 -19  160.07   20.81   2
 -10   2 -19   56.26   13.82   3
 -11   2 -19   17.79    8.39   3
 -12   2 -19    1.36    5.79   3
 -13   2 -19   -3.49    5.14   3
  11   1 -19    7.13   10.85   1
  10   1 -19   27.82   12.37   1
   9   1 -19   21.08   10.73   1
   9   1 -19   20.79    9.98   2
   8   1 -19   36.34   11.51   1
   8   1 -19   39.96   12.23   2
   7   1 -19  128.99   19.25   1
   7   1 -19  120.13   17.78   2
   6   1 -19   21.05   10.41   2
   6   1 -19   20.86    9.78   1
   5   1 -19   64.03   14.73   2
   5   1 -19   61.02   12.78   1
   4   1 -19   71.67   15.28   2
   4   1 -19   83.01   13.59   1
   3   1 -19   28.88   12.68   2
   3   1 -19   50.25   11.14   1
   2   1 -19    0.77   11.20   2
   2   1 -19   -0.54    6.94   1
   1   1 -19   29.96    8.73   1
   1   1 -19   12.55   12.08   2
   0   1 -19  149.89   19.03   2
  -1   1 -19   29.80   12.62   2
  -2   1 -19  947.32   47.57   2
  -3   1 -19  475.38   32.42   2
  -4   1 -19    6.45   10.82   2
  -5   1 -19   18.31   11.45   2
  -6   1 -19   26.31   11.64   2
  -7   1 -19   39.16   12.90   2
  -8   1 -19    5.15    5.43   3
  -8   1 -19   -4.20    6.66   2
  -9   1 -19   -3.46    5.33   3
  -9   1 -19   -7.63    7.74   2
 -10   1 -19   94.84   17.64   2
 -10   1 -19  165.36   24.79   3
 -11   1 -19    6.88    7.02   3
 -12   1 -19   12.95    8.38   3
 -13   1 -19    5.70    6.10   3
  11   0 -19   82.50   19.97   1
  10   0 -19   -2.81    7.96   1
   9   0 -19   35.60   12.28   1
   8   0 -19   55.15   15.09   1
   8   0 -19   65.17   13.62   2
   7   0 -19   17.20   10.43   2
   7   0 -19   52.98   13.93   1
   6   0 -19  469.15   29.92   2
   6   0 -19  512.89   31.79   1
   5   0 -19   36.62   10.42   1
   5   0 -19   66.69   14.24   2
   4   0 -19   75.63   15.09   2
   4   0 -19   81.29   13.89   1
   3   0 -19   -7.97    6.29   1
   3   0 -19    4.61    9.81   2
   2   0 -19   44.12   13.26   2
   2   0 -19   22.08    8.40   1
   1   0 -19    1.99    6.54   1
   1   0 -19    7.34   11.28   2
   0   0 -19   -2.57    9.06   2
  -1   0 -19  141.86   20.18   2
  -2   0 -19    9.22   12.37   2
  -3   0 -19  126.12   18.80   2
  -4   0 -19  508.70   33.00   2
  -5   0 -19   72.08   15.77   2
  -6   0 -19  252.87   24.63   2
  -7   0 -19  332.93   26.65   2
  -8   0 -19  143.08   20.02   2
  -9   0 -19    9.03    8.56   2
 -10   0 -19   -3.39    7.59   2
 -11   0 -19   47.56   13.40   3
 -11   0 -19   85.57   16.44   2
 -12   0 -19   11.70    7.89   3
 -13   0 -19   -0.58    7.88   3
 -14   0 -19   13.80   10.24   3
  11  -1 -19   12.23   13.42   1
  10  -1 -19  107.62   19.91   1
   9  -1 -19   21.63   10.38   1
   8  -1 -19    9.92    8.65   1
   7  -1 -19   65.03   14.30   2
   7  -1 -19   74.30   16.06   1
   6  -1 -19    6.12    8.38   1
   6  -1 -19    1.58    8.56   2
   5  -1 -19  120.39   16.90   2
   5  -1 -19  115.19   17.12   1
   4  -1 -19   15.94    8.71   1
   4  -1 -19    9.30    9.81   2
   3  -1 -19  165.80   17.51   1
   3  -1 -19  151.85   19.19   2
   2  -1 -19   20.38    8.88   1
   2  -1 -19   39.16   13.71   2
   1  -1 -19   19.31   11.68   2
   1  -1 -19   -6.57    6.27   1
   0  -1 -19  102.48   18.31   2
  -1  -1 -19   64.15   16.49   2
  -2  -1 -19   19.29   12.05   2
  -3  -1 -19  529.17   33.81   2
  -4  -1 -19    8.36   10.48   2
  -5  -1 -19   30.12   11.17   2
  -6  -1 -19    4.57    7.76   2
  -7  -1 -19   23.40   10.30   2
  -8  -1 -19   60.29   14.09   2
  -9  -1 -19  216.99   23.69   2
 -10  -1 -19   82.77   16.69   2
 -11  -1 -19   -3.39    7.26   2
 -12  -1 -19   15.70    9.84   2
 -13  -1 -19  143.94   25.12   3
 -14  -1 -19   25.02   10.48   3
  11  -2 -19   45.25   15.03   1
  10  -2 -19   13.54   11.17   1
   9  -2 -19   49.73   14.90   1
   8  -2 -19  125.95   20.44   1
   7  -2 -19  134.27   19.88   1
   6  -2 -19  257.99   24.88   1
   6  -2 -19  231.53   21.67   2
   5  -2 -19   12.27    8.67   1
   5  -2 -19   19.42   10.07   2
   4  -2 -19   88.44   15.39   1
   4  -2 -19  103.78   15.84   2
   3  -2 -19   30.81   12.05   2
   3  -2 -19   28.02   10.04   1
   2  -2 -19  229.66   19.09   1
   2  -2 -19  202.34   21.61   2
   1  -2 -19   51.68   10.80   1
   1  -2 -19   63.17   15.14   2
   0  -2 -19   30.83   13.22   2
   0  -2 -19   13.66    7.86   1
  -1  -2 -19   18.60   11.53   2
  -2  -2 -19   11.86   10.91   2
  -3  -2 -19   39.51   12.79   2
  -4  -2 -19  273.13   23.76   2
  -5  -2 -19   37.17   12.15   2
  -6  -2 -19  145.85   19.72   2
  -7  -2 -19   89.08   16.81   2
  -8  -2 -19   11.07    8.24   2
  -9  -2 -19  271.89   26.95   2
 -10  -2 -19   68.94   15.30   2
 -11  -2 -19    8.90    9.26   2
 -12  -2 -19   17.19   10.53   2
 -13  -2 -19   34.91   12.18   2
  10  -3 -19   20.26   13.85   1
   9  -3 -19   15.36   10.47   1
   8  -3 -19   21.86   10.71   1
   7  -3 -19  110.58   18.74   1
   6  -3 -19   22.36   11.06   1
   5  -3 -19   -4.14    7.21   2
   5  -3 -19    8.40    8.22   1
   4  -3 -19  371.72   25.48   2
   4  -3 -19  374.00   26.09   1
   3  -3 -19   11.73   10.07   2
   3  -3 -19   14.23    8.76   1
   2  -3 -19    4.10   10.50   2
   2  -3 -19   10.35    7.53   1
   1  -3 -19  181.16   22.22   2
   1  -3 -19  166.53   16.84   1
   0  -3 -19   24.91   12.85   2
   0  -3 -19   21.30    8.79   1
  -1  -3 -19  278.19   24.24   2
  -2  -3 -19   69.95   15.39   2
  -3  -3 -19  551.70   34.45   2
  -4  -3 -19   40.75   11.89   2
  -5  -3 -19    8.23    8.17   2
  -6  -3 -19    9.61    7.85   2
  -7  -3 -19  190.01   22.82   2
  -8  -3 -19   66.45   15.20   2
  -9  -3 -19  369.57   29.98   2
 -10  -3 -19   47.27   13.76   2
 -11  -3 -19  221.10   26.92   2
 -12  -3 -19   -4.93    7.76   2
 -13  -3 -19  122.53   22.15   2
 -14  -3 -19   18.66   12.94   2
  10  -4 -19   41.81   14.68   1
   9  -4 -19   37.67   14.02   1
   8  -4 -19   51.02   14.64   1
   7  -4 -19   97.26   18.10   1
   6  -4 -19   16.43    9.99   1
   5  -4 -19   13.41    9.12   1
   4  -4 -19   26.27   11.26   2
   4  -4 -19   37.29   11.37   1
   3  -4 -19   -5.30    7.97   2
   3  -4 -19    1.66    7.02   1
   2  -4 -19   -5.51    7.26   1
   2  -4 -19  -15.43    7.81   2
   1  -4 -19  125.85   16.00   1
   1  -4 -19  179.35   21.42   2
   0  -4 -19   13.83   11.37   2
   0  -4 -19   20.86    9.01   1
  -1  -4 -19   -4.73    8.85   2
  -2  -4 -19   22.27   11.50   2
  -3  -4 -19   44.34   12.98   2
  -4  -4 -19   63.97   14.30   2
  -5  -4 -19  561.71   34.71   2
  -6  -4 -19    5.09    6.40   2
  -7  -4 -19    0.02    6.01   2
  -8  -4 -19   13.74    9.15   2
  -9  -4 -19   30.63   11.47   2
 -10  -4 -19   62.95   15.83   2
 -11  -4 -19   38.02   14.23   2
 -12  -4 -19   -5.49    7.38   2
 -13  -4 -19    8.30    9.51   2
 -14  -4 -19   50.08   15.53   2
   9  -5 -19   21.17   12.12   1
   8  -5 -19    4.58   10.24   1
   7  -5 -19    1.48    7.08   1
   6  -5 -19   53.96   14.27   1
   5  -5 -19   -5.13    7.90   1
   4  -5 -19  245.20   25.14   1
   3  -5 -19  349.06   25.37   2
   3  -5 -19  371.42   26.89   1
   2  -5 -19   18.81   11.50   2
   2  -5 -19   19.52    9.29   1
   1  -5 -19   74.15   13.70   1
   1  -5 -19   66.41   15.26   2
   0  -5 -19   74.83   15.73   2
   0  -5 -19   54.78   12.57   1
  -1  -5 -19    9.86   10.20   2
  -2  -5 -19    8.77    8.37   2
  -3  -5 -19   10.97    8.45   2
  -4  -5 -19   49.53   13.41   2
  -5  -5 -19   47.87   12.83   2
  -6  -5 -19   53.05   13.40   2
  -7  -5 -19   17.30    8.77   2
  -8  -5 -19    0.08    7.10   2
  -9  -5 -19  118.57   20.57   2
 -10  -5 -19   17.11   10.20   2
 -11  -5 -19  313.45   32.88   2
 -12  -5 -19   46.95   14.82   2
 -13  -5 -19    8.03    9.46   2
 -14  -5 -19  125.87   23.97   2
 -15  -5 -19   44.99   17.44   2
   9  -6 -19   30.23   15.26   1
   8  -6 -19   98.72   19.98   1
   7  -6 -19   57.88   15.49   1
   6  -6 -19   -4.41    8.58   1
   5  -6 -19   15.84   10.56   1
   4  -6 -19   -5.58    7.23   1
   3  -6 -19    5.56    9.48   1
   2  -6 -19  -14.19    6.06   1
   2  -6 -19   -3.82    9.72   2
   1  -6 -19   -8.58    8.99   2
   1  -6 -19    8.00    9.07   1
   0  -6 -19   22.39    9.49   1
   0  -6 -19   29.90   11.89   2
  -1  -6 -19   90.09   16.83   2
  -2  -6 -19   55.70   13.08   2
  -3  -6 -19  178.26   21.31   2
  -4  -6 -19    5.50    7.24   2
  -5  -6 -19  127.39   20.05   2
  -6  -6 -19   -1.90    5.50   2
  -7  -6 -19   17.74    9.29   2
  -8  -6 -19  280.24   30.04   2
  -9  -6 -19    1.14    6.11   2
 -10  -6 -19   13.57   10.29   2
 -11  -6 -19   56.87   16.92   2
 -12  -6 -19   14.57    9.54   2
 -13  -6 -19   27.03   12.63   2
 -14  -6 -19   19.11   11.49   2
 -15  -6 -19    2.56    9.56   2
   8  -7 -19   25.11   13.09   1
   7  -7 -19   -0.42    9.44   1
   6  -7 -19  111.19   20.89   1
   5  -7 -19   15.99   10.59   1
   4  -7 -19  158.58   22.73   1
   3  -7 -19  298.69   28.00   1
   2  -7 -19   26.20   10.96   1
   1  -7 -19   44.72   12.79   1
   1  -7 -19   41.19   13.12   2
   0  -7 -19  144.27   18.13   1
   0  -7 -19  137.38   19.97   2
  -1  -7 -19   13.65    9.58   2
  -2  -7 -19    8.16    8.02   2
  -3  -7 -19   26.33   10.55   2
  -4  -7 -19   42.73   12.38   2
  -5  -7 -19   28.98    9.93   2
  -6  -7 -19   76.61   16.08   2
  -7  -7 -19    0.00    6.38   2
  -8  -7 -19   -2.61    6.60   2
  -9  -7 -19  105.09   20.47   2
 -10  -7 -19  114.95   21.99   2
 -11  -7 -19  245.65   32.14   2
 -12  -7 -19  137.15   25.27   2
 -13  -7 -19    1.54    8.77   2
 -14  -7 -19   37.64   16.55   2
   7  -8 -19   42.34   14.74   1
   6  -8 -19   59.14   14.74   1
   5  -8 -19   18.33   12.02   1
   4  -8 -19   33.32   12.23   1
   3  -8 -19   -1.72    8.61   1
   2  -8 -19  111.43   18.67   1
   1  -8 -19   11.76    9.25   1
   0  -8 -19  -11.25    7.26   2
   0  -8 -19   -4.02    7.72   1
  -1  -8 -19   80.69   16.25   2
  -2  -8 -19    2.64    6.55   2
  -3  -8 -19   17.31    9.32   2
  -4  -8 -19  194.12   24.11   2
  -5  -8 -19   87.39   17.06   2
  -6  -8 -19   31.64   10.93   2
  -7  -8 -19    3.70    8.03   2
  -8  -8 -19   20.02   10.44   2
  -9  -8 -19   52.03   15.35   2
 -10  -8 -19   12.09    9.86   2
 -11  -8 -19  -14.17    6.63   2
 -12  -8 -19    9.56   11.61   2
 -13  -8 -19   31.34   14.85   2
   6  -9 -19   10.92   11.56   1
   5  -9 -19   46.26   15.28   1
   4  -9 -19    8.65    9.80   1
   3  -9 -19  120.32   19.90   1
   2  -9 -19   -3.67    8.96   1
   1  -9 -19   62.26   14.29   1
   0  -9 -19  109.89   17.92   1
  -1  -9 -19   -0.39    8.75   2
  -1  -9 -19   14.02    8.96   1
  -2  -9 -19    1.01    7.06   2
  -3  -9 -19   38.98   11.52   2
  -4  -9 -19   -2.04    5.48   2
  -5  -9 -19   -0.19    7.91   2
  -6  -9 -19   -1.50    6.05   2
  -7  -9 -19   49.19   14.61   2
  -8  -9 -19   33.19   12.45   2
  -9  -9 -19   48.15   14.78   2
 -10  -9 -19   94.73   21.48   2
 -11  -9 -19   30.30   13.04   2
 -12  -9 -19  110.69   23.86   2
 -13  -9 -19   19.50   13.12   2
   5 -10 -19   14.27   11.13   1
   4 -10 -19    7.24   10.99   1
   3 -10 -19   15.12   10.68   1
   2 -10 -19   25.60   11.69   1
   1 -10 -19   91.36   17.59   1
   0 -10 -19   19.85   10.21   1
  -1 -10 -19   83.55   15.67   1
  -2 -10 -19  125.74   19.40   2
  -3 -10 -19    7.55    6.80   2
  -4 -10 -19   54.51   13.22   2
  -5 -10 -19   -2.46    6.77   2
  -6 -10 -19   52.32   14.58   2
  -7 -10 -19   77.09   17.26   2
  -8 -10 -19    6.36    8.94   2
  -9 -10 -19   39.41   12.69   2
 -10 -10 -19    1.93    9.67   2
 -11 -10 -19   -3.28    5.51   2
 -12 -10 -19   16.58   14.21   2
   4 -11 -19   23.58   13.88   1
   3 -11 -19   18.00   11.24   1
   2 -11 -19    8.56   10.64   1
   1 -11 -19   27.05   11.90   1
   0 -11 -19   27.24   11.49   1
  -1 -11 -19   33.75   12.25   1
  -3 -11 -19   -5.26    6.40   2
  -4 -11 -19    4.95    7.66   2
  -5 -11 -19    3.53    7.83   2
  -6 -11 -19   39.30   12.63   2
  -7 -11 -19   19.57    9.68   2
  -8 -11 -19   31.62   13.16   2
  -9 -11 -19    6.64   10.44   2
 -10 -11 -19    0.98    5.82   2
 -11 -11 -19    5.14    9.01   2
   3 -12 -19   25.98   13.13   1
   2 -12 -19    0.78    9.35   1
   1 -12 -19   78.17   16.64   1
   0 -12 -19   17.97    9.80   1
  -1 -12 -19    5.08    8.31   1
  -4 -12 -19   -4.36    7.04   2
  -5 -12 -19    6.72    7.60   2
  -6 -12 -19   25.91   12.30   2
  -7 -12 -19   22.84   11.61   2
  -8 -12 -19   27.43   11.97   2
  -9 -12 -19   -2.17    5.41   2
 -10 -12 -19   -6.13    6.69   2
   2 -13 -19   33.12   14.13   1
   1 -13 -19    9.73   10.43   1
   0 -13 -19   -3.08    9.70   1
  -5 -13 -19   17.19    9.71   2
  -6 -13 -19   30.53   11.83   2
  -7 -13 -19    2.13    8.56   2
  -8 -13 -19   68.77   16.28   2
  -9 -13 -19    6.34   10.47   2
   0 -14 -19   10.27   12.51   1
  -6 -14 -19    4.27    8.46   2
  -7 -14 -19   37.27   13.09   2
  -8 -14 -19    0.29    9.49   2
  -6 -13  20   -5.06    8.42   1
   5  13 -20   15.11   16.04   2
  -5 -13  20   11.23    7.63   1
  -4 -13  20    7.47    8.24   1
   4  13 -20  -13.89   12.15   2
   3  13 -20   26.76   15.71   2
   2  13 -20   11.80   14.30   2
  -8 -12  20    3.68    8.98   1
  -7 -12  20    6.28   10.37   1
   6  12 -20   22.32   14.86   2
  -6 -12  20   37.28   12.24   1
  -5 -12  20   46.59   13.77   1
   5  12 -20   63.62   19.26   2
   4  12 -20   -4.06   11.57   2
  -4 -12  20  -10.41    7.27   1
   3  12 -20  -15.26   12.20   2
   2  12 -20   31.61   14.63   2
   1  12 -20   59.15   17.09   2
  -4  12 -20   -0.99    7.30   3
  -5  12 -20    4.36    9.69   3
  -8 -11  20   32.82   12.23   1
  -7 -11  20   -0.89    8.47   1
   7  11 -20    9.97   12.64   2
  -6 -11  20   -5.24    6.74   1
   6  11 -20   -4.58   11.67   2
  -5 -11  20   -4.75    7.16   1
   5  11 -20   10.32   13.46   2
  -4 -11  20   61.58   13.77   1
   4  11 -20   46.64   17.04   2
   3  11 -20   52.70   17.05   2
  -3 -11  20   45.22   12.57   1
   2  11 -20  -20.75    9.88   2
   1  11 -20   10.26   12.82   2
   0  11 -20   22.43   14.93   2
  -4  11 -20   58.57   13.83   3
  -5  11 -20   -1.24    7.80   3
  -6  11 -20   44.22   14.32   3
  -9 -10  20    7.12   10.03   1
   8  10 -20  -16.73   11.62   2
  -8 -10  20   -7.61    7.46   1
  -7 -10  20   11.46    9.72   1
   7  10 -20   20.37   12.91   2
  -6 -10  20   -6.99    6.92   1
   6  10 -20    2.71   12.18   2
   5  10 -20   48.15   15.23   2
  -5 -10  20   67.66   15.13   1
  -4 -10  20   47.82   12.99   1
   4  10 -20   26.73   14.44   2
  -3 -10  20   37.83   10.63   1
   3  10 -20   54.73   17.40   2
   2  10 -20   75.01   18.29   2
   1  10 -20   34.68   15.24   2
  -1  10 -20   76.10   18.25   2
  -3  10 -20   25.26    9.88   3
  -4  10 -20   38.85   11.05   3
  -5  10 -20   23.60   10.88   3
  -6  10 -20   23.36   11.24   3
  -7  10 -20    9.52   10.46   3
 -10  -9  20    4.41    7.72   1
   9   9 -20    0.64    6.39   2
  -9  -9  20  -10.11    6.48   1
   8   9 -20   14.48    8.94   2
  -8  -9  20   96.79   19.69   1
  -7  -9  20   -0.11    7.68   1
   7   9 -20    8.98   12.35   2
   6   9 -20   20.67   12.78   2
  -6  -9  20   10.51    8.56   1
   5   9 -20   -0.52    9.38   2
  -5  -9  20   -2.25    6.82   1
  -4  -9  20    7.36    7.98   1
   4   9 -20   16.58   12.35   2
   3   9 -20   23.31   13.71   2
  -3  -9  20   -2.84    6.39   1
   2   9 -20   20.04   13.33   2
   1   9 -20   30.04   13.14   2
   0   9 -20   29.02   14.02   2
  -1   9 -20   11.64   11.82   2
  -2   9 -20  105.14   19.21   2
  -3   9 -20    4.90    6.86   3
  -4   9 -20   77.46   14.92   3
  -5   9 -20  144.05   20.50   3
  -6   9 -20   12.81    8.34   3
  -7   9 -20   52.63   13.68   3
  -8   9 -20   -2.19    7.88   3
 -10  -8  20   10.17    7.33   1
 -10  -8  20   -3.63    4.98   4
  10   8 -20   13.73    7.07   2
  -9  -8  20   24.68    9.34   4
  -9  -8  20   10.64   10.14   1
   9   8 -20    0.70    5.78   2
  -8  -8  20   14.69   10.25   1
   8   8 -20    5.09   10.11   2
  -7  -8  20  177.09   25.60   1
   7   8 -20  190.74   26.03   2
  -6  -8  20   30.36   11.41   1
   6   8 -20   10.40   12.95   2
  -5  -8  20   16.12    9.04   1
   5   8 -20   14.55   12.56   2
   4   8 -20  182.95   24.32   2
  -4  -8  20  195.04   23.02   1
   3   8 -20    0.82   10.63   2
  -3  -8  20    4.35    6.17   1
   2   8 -20   76.02   17.35   2
   1   8 -20  129.17   20.89   2
   0   8 -20   14.68   12.29   2
  -1   8 -20   83.25   17.76   2
  -2   8 -20   46.37   15.60   2
  -3   8 -20   33.99   10.21   3
  -3   8 -20   14.75   12.90   2
  -4   8 -20    2.86    6.68   3
  -5   8 -20   15.66    9.04   3
  -6   8 -20   30.84   10.84   3
  -7   8 -20    8.53    7.65   3
  -8   8 -20   15.86    9.93   3
  -9   8 -20   -7.04    5.37   3
 -11  -7  20  -11.62    5.60   1
 -11  -7  20   -1.83    4.83   4
 -10  -7  20    6.13    5.65   4
  10   7 -20   11.00    6.07   2
 -10  -7  20   -3.32    5.59   1
   9   7 -20   12.16   12.12   2
  -9  -7  20   35.45   12.22   1
  -9  -7  20   27.52    9.69   4
  -8  -7  20   14.08    9.06   1
   8   7 -20   16.80   12.24   2
  -8  -7  20   13.80    7.04   4
   7   7 -20   22.09   13.54   2
  -7  -7  20   15.32    9.46   1
  -7  -7  20   12.96    7.30   4
  -6  -7  20   13.60    8.99   1
   6   7 -20   14.84   12.31   2
   5   7 -20    0.85    9.76   2
  -5  -7  20   15.28    8.66   1
  -4  -7  20   38.25   11.28   1
   4   7 -20   30.44   13.98   2
  -3  -7  20   25.64    9.15   1
   3   7 -20   21.44   13.35   2
   2   7 -20   31.17   13.59   2
  -2  -7  20   48.71   11.11   1
   1   7 -20   45.28   14.62   2
   0   7 -20    8.81   12.22   2
  -1   7 -20   49.50   14.91   2
  -2   7 -20  241.17   24.72   2
  -3   7 -20    3.72    6.43   3
  -3   7 -20    8.59   11.32   2
  -4   7 -20   -1.68    6.85   3
  -4   7 -20    6.64   12.30   2
  -5   7 -20  272.18   26.85   3
  -6   7 -20   27.72   10.75   3
  -7   7 -20   32.02   10.85   3
  -8   7 -20   52.28   13.87   3
  -9   7 -20    0.51    7.80   3
 -10   7 -20   -2.56    5.26   3
 -11  -6  20    2.58    5.31   1
 -11  -6  20   -1.03    5.04   4
  10   6 -20   14.85   10.73   2
 -10  -6  20    5.28    7.35   1
 -10  -6  20   -0.33    5.13   4
  -9  -6  20    9.26    8.28   1
  -9  -6  20   -4.04    5.11   4
   9   6 -20    0.97    9.38   2
  -8  -6  20   42.63   11.81   1
   8   6 -20   13.26   11.72   2
  -8  -6  20   15.38    8.23   4
  -7  -6  20   79.10   16.26   1
   7   6 -20   73.94   17.00   2
  -7  -6  20   78.31   15.54   4
  -6  -6  20  195.54   22.38   4
  -6  -6  20  240.87   26.22   1
   6   6 -20  216.50   25.18   2
  -5  -6  20    5.98    5.46   4
  -5  -6  20   -4.92    5.79   1
   5   6 -20   -5.39    9.20   2
   4   6 -20   37.45   14.42   2
  -4  -6  20   31.96   10.01   1
  -3  -6  20    8.65    7.16   1
   3   6 -20    1.68   11.12   2
  -2  -6  20  118.19   16.20   1
   2   6 -20   78.75   17.05   2
   1   6 -20  601.30   37.06   2
   0   6 -20    5.94   11.32   2
  -1   6 -20    1.17   10.65   2
  -2   6 -20   97.65   14.47   3
  -2   6 -20   66.02   16.48   2
  -3   6 -20    8.97   11.47   2
  -3   6 -20   15.52    7.77   3
  -4   6 -20   17.06    8.40   3
  -4   6 -20   -7.54   10.07   2
  -5   6 -20   -4.11    5.51   3
  -5   6 -20   -7.49   10.27   2
  -6   6 -20   17.81    9.54   3
  -7   6 -20  105.12   19.28   3
  -8   6 -20    1.00    5.81   3
  -9   6 -20    8.62    8.01   3
 -10   6 -20   -3.32    5.26   3
 -11   6 -20   -6.41    6.30   3
 -11  -5  20    2.28    6.09   1
 -11  -5  20   -2.97    3.90   4
  11   5 -20   11.34    9.86   2
 -10  -5  20   25.35   10.25   1
 -10  -5  20   31.84   10.11   4
  10   5 -20   31.04   11.62   2
  -9  -5  20   33.31   10.16   4
  -9  -5  20   31.49   11.93   1
   9   5 -20   51.19   14.59   2
  -8  -5  20   -6.21    4.72   4
   8   5 -20   11.28   10.23   2
  -8  -5  20    6.78    7.93   1
  -7  -5  20   26.68    9.00   4
   7   5 -20   40.57   14.02   2
  -7  -5  20   48.58   13.42   1
  -6  -5  20   12.63    7.14   4
   6   5 -20    7.35    9.92   2
  -6  -5  20    7.83    7.62   1
  -5  -5  20    0.74    5.11   4
   5   5 -20    3.07    9.54   2
  -5  -5  20   -4.60    5.83   1
  -4  -5  20   53.65   11.71   1
   4   5 -20   37.03   13.13   2
  -4  -5  20   40.42    9.33   4
  -3  -5  20   27.79    7.72   4
  -3  -5  20   40.38   10.01   1
   3   5 -20   32.51   14.12   2
  -2  -5  20  220.07   19.10   1
   2   5 -20  238.42   24.13   2
   1   5 -20   -0.41   10.09   2
   0   5 -20   27.93   12.81   2
  -1   5 -20   55.48   14.39   2
  -2   5 -20   66.54   12.31   3
  -2   5 -20   58.43   15.39   2
  -3   5 -20   34.99    9.79   3
  -3   5 -20   35.18   13.50   2
  -4   5 -20   51.14   14.87   2
  -4   5 -20   54.33   12.05   3
  -5   5 -20  107.90   17.27   3
  -5   5 -20  128.88   18.85   2
  -6   5 -20  276.47   24.51   2
  -6   5 -20  286.78   27.49   3
  -7   5 -20   18.75    8.79   3
  -8   5 -20   44.98   13.85   3
  -9   5 -20   -3.33    5.99   3
 -10   5 -20    0.36    6.62   3
 -11   5 -20    0.19    5.83   3
  11   4 -20    7.01   10.59   2
  11   4 -20   -0.71   11.36   1
  10   4 -20   -0.28    9.78   1
  10   4 -20   10.77   10.19   2
   9   4 -20   47.30   14.21   2
   9   4 -20   32.38   11.74   1
   8   4 -20   14.29   10.15   1
   8   4 -20   13.88   10.32   2
   7   4 -20  131.66   20.15   2
   7   4 -20  135.71   19.80   1
   6   4 -20  176.26   21.98   2
  -5  -4  20  132.89   18.14   4
   5   4 -20   77.12   16.70   2
  -5  -4  20   85.41   16.11   1
   4   4 -20   82.69   17.14   2
  -4  -4  20   95.46   15.93   1
  -4  -4  20   88.88   14.56   4
  -3  -4  20  156.29   18.51   1
   3   4 -20  158.59   20.51   2
  -3  -4  20  165.46   17.73   4
  -2  -4  20    5.19    5.73   1
   2   4 -20   -8.02   10.21   2
  -2  -4  20    6.94    5.35   4
   1   4 -20   19.15   12.95   2
   0   4 -20   -5.23    9.87   2
  -1   4 -20   70.73   16.19   2
  -2   4 -20   98.44   18.01   2
  -2   4 -20   47.81   10.22   3
  -3   4 -20   10.75    6.75   3
  -3   4 -20    2.27   11.01   2
  -4   4 -20   31.47    8.88   3
  -4   4 -20   17.61   11.74   2
  -5   4 -20   62.57   15.57   2
  -5   4 -20   89.65   15.48   3
  -6   4 -20   -4.09    9.95   2
  -6   4 -20    2.42    5.52   3
  -7   4 -20  257.85   25.80   2
  -7   4 -20  242.83   26.67   3
  -8   4 -20    0.53    6.95   3
  -9   4 -20   80.38   17.54   3
 -10   4 -20   15.68   11.43   3
 -11   4 -20   -9.18    5.30   3
 -12   4 -20   -8.56    5.56   3
  11   3 -20   24.08   13.43   1
  11   3 -20   -7.53    8.15   2
  10   3 -20    6.07    9.12   2
  10   3 -20    0.38    8.91   1
   9   3 -20   92.68   18.06   2
   9   3 -20   66.18   15.04   1
   8   3 -20   23.70   11.37   2
   8   3 -20   18.02    9.80   1
   7   3 -20  115.56   18.96   2
   7   3 -20   92.74   17.00   1
   6   3 -20   38.81   12.32   2
   6   3 -20   46.84   13.00   1
   5   3 -20    4.32    9.38   2
   5   3 -20   12.27    8.79   1
   4   3 -20  239.44   23.90   2
   4   3 -20  258.00   20.43   1
   3   3 -20   69.75   16.11   2
  -2  -3  20   22.80    7.36   1
  -2  -3  20   22.10    6.98   4
   2   3 -20   19.46   12.51   2
   1   3 -20   18.24   13.08   2
   0   3 -20  111.58   18.99   2
  -1   3 -20   45.44   15.75   2
  -3   3 -20  792.15   41.27   2
  -3   3 -20  844.18   39.61   3
  -4   3 -20    6.82    6.51   3
  -4   3 -20   26.75   12.89   2
  -5   3 -20   43.98   11.29   3
  -5   3 -20   16.24   13.29   2
  -6   3 -20  373.35   28.12   3
  -6   3 -20  369.96   28.74   2
  -7   3 -20    4.92    6.13   3
  -7   3 -20   16.90   12.20   2
  -8   3 -20    7.03   11.26   2
  -8   3 -20    0.32    6.12   3
  -9   3 -20   26.79   10.56   3
 -10   3 -20    0.57    5.75   3
 -11   3 -20    3.44    7.10   3
 -12   3 -20   -1.25    5.06   3
  11   2 -20   -4.31   11.64   1
  10   2 -20   58.52   16.15   1
  10   2 -20   64.88   15.20   2
   9   2 -20   39.14   13.14   1
   9   2 -20    0.72    8.39   2
   8   2 -20  104.23   17.92   2
   8   2 -20  106.53   18.82   1
   7   2 -20   56.91   13.78   2
   7   2 -20   42.28   12.70   1
   6   2 -20   98.13   16.35   1
   6   2 -20   82.16   16.27   2
   5   2 -20   25.94    9.71   1
   5   2 -20   24.46   11.54   2
   4   2 -20   -0.16    7.03   1
   4   2 -20    9.80    9.12   2
   3   2 -20   22.82    9.23   1
   3   2 -20   29.48   11.95   2
   2   2 -20    3.10   11.01   2
   2   2 -20   12.65    7.75   1
   1   2 -20    7.39   10.76   2
   0   2 -20   35.77   14.47   2
  -1   2 -20   14.68   13.45   2
  -2   2 -20  154.03   20.38   2
  -3   2 -20   60.57   11.69   3
  -3   2 -20   46.04   15.79   2
  -4   2 -20    2.64   11.78   2
  -4   2 -20   23.67    7.88   3
  -5   2 -20   34.87   13.89   2
  -5   2 -20   26.65    9.01   3
  -6   2 -20   -4.30   10.01   2
  -6   2 -20    2.24    5.66   3
  -7   2 -20  483.90   32.91   3
  -7   2 -20  480.69   32.68   2
  -8   2 -20  173.65   23.64   3
  -8   2 -20  208.02   23.73   2
  -9   2 -20   42.83   12.81   3
  -9   2 -20   11.13   12.11   2
 -10   2 -20    4.31    6.32   3
 -11   2 -20   24.01   11.71   3
 -12   2 -20   -6.64    3.99   3
 -13   2 -20   -2.17    6.52   3
  11   1 -20  105.49   21.53   1
  10   1 -20    2.82    9.62   1
   9   1 -20  126.14   19.33   2
   9   1 -20  138.56   21.89   1
   8   1 -20   51.11   13.16   1
   8   1 -20   38.73   12.36   2
   7   1 -20   67.33   14.90   2
   7   1 -20   80.22   16.21   1
   6   1 -20   25.92   10.86   2
   6   1 -20   29.71   10.94   1
   5   1 -20    8.58    7.14   1
   5   1 -20    5.91    9.16   2
   4   1 -20   35.51   12.81   2
   4   1 -20   27.44    9.33   1
   3   1 -20   96.08   17.10   2
   3   1 -20  117.08   15.06   1
   2   1 -20   12.64    7.94   1
   2   1 -20   11.61   11.81   2
   1   1 -20  116.46   18.40   2
   0   1 -20   20.38   11.89   2
  -1   1 -20  109.32   17.92   2
  -2   1 -20  368.60   29.26   2
  -3   1 -20  392.79   30.51   2
  -4   1 -20    6.09   11.12   2
  -5   1 -20    3.37    9.95   2
  -6   1 -20   98.82   17.83   2
  -7   1 -20   29.01   12.51   2
  -8   1 -20   -0.70    9.60   2
  -8   1 -20    0.73    5.63   3
  -9   1 -20   -7.98    8.00   2
  -9   1 -20   -1.73    5.00   3
 -10   1 -20  -11.12    8.05   2
 -10   1 -20    7.11    7.00   3
 -11   1 -20    9.63    8.08   3
 -12   1 -20   -4.06    5.27   3
 -13   1 -20    0.59    5.86   3
  11   0 -20    7.50   12.76   1
  10   0 -20   82.10   18.41   1
   9   0 -20   27.74   11.89   1
   8   0 -20   19.22   10.22   2
   8   0 -20   17.43    9.88   1
   7   0 -20   44.82   12.78   2
   7   0 -20   65.37   14.49   1
   6   0 -20    5.43    9.09   2
   6   0 -20   10.08    8.68   1
   5   0 -20  192.48   20.42   1
   5   0 -20  221.66   21.85   2
   4   0 -20   20.68    9.14   1
   4   0 -20   40.03   13.16   2
   3   0 -20   33.05    9.39   1
   3   0 -20   50.17   12.80   2
   2   0 -20   25.33   12.62   2
   2   0 -20   17.23    8.29   1
   1   0 -20   66.91   16.00   2
   0   0 -20   16.80   11.84   2
  -1   0 -20   90.32   18.34   2
  -2   0 -20   27.31   14.10   2
  -3   0 -20  215.97   23.60   2
  -4   0 -20   12.67   10.71   2
  -5   0 -20   13.45   11.64   2
  -6   0 -20   77.13   17.14   2
  -7   0 -20  367.11   28.31   2
  -8   0 -20  335.12   27.56   2
  -9   0 -20   40.53   12.94   2
 -10   0 -20  172.16   22.59   2
 -11   0 -20   23.33    9.35   3
 -11   0 -20    2.69    9.35   2
 -12   0 -20   -4.98    5.98   3
 -13   0 -20    2.52    4.88   3
  10  -1 -20    2.03   10.39   1
   9  -1 -20   34.59   12.61   1
   8  -1 -20   27.79   11.90   1
   7  -1 -20   12.60    9.95   1
   7  -1 -20   16.05   10.10   2
   6  -1 -20   52.86   14.14   2
   6  -1 -20   53.41   13.44   1
   5  -1 -20   10.19    8.80   1
   5  -1 -20   12.81    9.45   2
   4  -1 -20   36.98   12.17   2
   4  -1 -20   34.83   10.75   1
   3  -1 -20   77.75   13.66   1
   3  -1 -20   95.24   16.17   2
   2  -1 -20   61.23   15.70   2
   2  -1 -20   85.20   13.29   1
   1  -1 -20   18.72   11.71   2
   1  -1 -20   26.35    8.75   1
   0  -1 -20   22.77   13.29   2
  -1  -1 -20   94.81   18.98   2
  -2  -1 -20   10.27   11.44   2
  -3  -1 -20    0.90    9.61   2
  -4  -1 -20  416.91   30.38   2
  -5  -1 -20   52.20   14.06   2
  -6  -1 -20    9.85    9.46   2
  -7  -1 -20   11.27    9.74   2
  -8  -1 -20   28.82   11.64   2
  -9  -1 -20   25.67   10.92   2
 -10  -1 -20   18.38   10.02   2
 -11  -1 -20    5.81    8.42   2
 -12  -1 -20   50.86   14.21   2
 -13  -1 -20    9.60    5.02   3
  10  -2 -20   28.57   14.68   1
   9  -2 -20   32.81   12.13   1
   8  -2 -20   10.09    8.74   1
   7  -2 -20  125.50   20.23   1
   6  -2 -20   73.07   15.03   2
   6  -2 -20   51.00   13.39   1
   5  -2 -20   18.69    9.31   1
   5  -2 -20   15.92   10.16   2
   4  -2 -20  183.55   20.05   2
   4  -2 -20  166.63   19.04   1
   3  -2 -20   -0.97    8.93   2
   3  -2 -20   17.07    8.79   1
   2  -2 -20    6.27    7.13   1
   2  -2 -20   -2.50    9.60   2
   1  -2 -20   32.06   12.99   2
   1  -2 -20   21.27    8.76   1
   0  -2 -20    1.57   10.19   2
  -1  -2 -20   25.38   13.37   2
  -2  -2 -20  128.26   19.73   2
  -3  -2 -20   56.26   15.16   2
  -4  -2 -20  424.63   30.63   2
  -5  -2 -20   -3.73    6.94   2
  -6  -2 -20   58.76   13.92   2
  -7  -2 -20    3.10    7.88   2
  -8  -2 -20  496.85   33.80   2
  -9  -2 -20    6.11    9.08   2
 -10  -2 -20   37.66   12.04   2
 -11  -2 -20   18.70   10.67   2
 -12  -2 -20   17.88   11.14   2
 -13  -2 -20   23.38   11.32   2
  10  -3 -20   19.24   13.70   1
   9  -3 -20    2.00    9.44   1
   8  -3 -20   40.18   13.07   1
   7  -3 -20   18.84    9.74   1
   6  -3 -20   29.99   11.79   1
   5  -3 -20   22.99   11.07   2
   5  -3 -20   14.48    9.38   1
   4  -3 -20    2.46    7.00   1
   4  -3 -20   -3.63    8.57   2
   3  -3 -20   -0.71    6.57   1
   3  -3 -20   17.57   10.80   2
   2  -3 -20   11.98   10.43   2
   2  -3 -20    8.16    7.47   1
   1  -3 -20   22.26   12.34   2
   1  -3 -20    8.29    8.19   1
   0  -3 -20  379.32   29.34   2
  -1  -3 -20   23.06   12.58   2
  -2  -3 -20  383.10   29.98   2
  -3  -3 -20   43.74   13.82   2
  -4  -3 -20  231.94   24.51   2
  -5  -3 -20   91.37   16.44   2
  -6  -3 -20   19.51    9.61   2
  -7  -3 -20  110.64   18.95   2
  -8  -3 -20  234.13   25.69   2
  -9  -3 -20   -7.12    6.34   2
 -10  -3 -20  160.28   23.16   2
 -11  -3 -20   68.19   16.41   2
 -12  -3 -20   74.36   17.59   2
 -13  -3 -20   47.83   14.06   2
   9  -4 -20   34.03   13.89   1
   8  -4 -20   83.21   17.17   1
   7  -4 -20   33.47   12.52   1
   6  -4 -20   89.42   16.78   1
   5  -4 -20   11.34    9.22   1
   4  -4 -20   64.12   14.01   2
   4  -4 -20   53.17   13.48   1
   3  -4 -20    5.07    7.58   1
   3  -4 -20   -2.36    9.14   2
   2  -4 -20   -5.16    8.75   2
   2  -4 -20    2.65    7.26   1
   1  -4 -20  158.33   20.83   2
   1  -4 -20  166.19   17.50   1
   0  -4 -20    9.40   11.10   2
  -1  -4 -20   26.65   12.26   2
  -2  -4 -20    2.52    9.32   2
  -3  -4 -20   -0.47    6.86   2
  -4  -4 -20  300.40   25.32   2
  -5  -4 -20   37.79   11.82   2
  -6  -4 -20   96.65   17.33   2
  -7  -4 -20  115.30   19.42   2
  -8  -4 -20    5.54    8.49   2
  -9  -4 -20    1.52    7.89   2
 -10  -4 -20    0.29    7.29   2
 -11  -4 -20  193.85   27.31   2
 -12  -4 -20    0.41    7.96   2
 -13  -4 -20    6.50    9.15   2
 -14  -4 -20    8.95    9.99   2
   9  -5 -20    3.89   10.12   1
   8  -5 -20   27.71   12.14   1
   7  -5 -20   89.12   18.23   1
   6  -5 -20    1.72    8.71   1
   5  -5 -20    8.84    8.42   1
   4  -5 -20   28.11   11.13   1
   3  -5 -20  136.03   18.27   2
   3  -5 -20  116.77   18.18   1
   2  -5 -20  235.53   22.51   1
   2  -5 -20  258.46   24.11   2
   1  -5 -20   16.29   11.67   2
   1  -5 -20   11.40    7.67   1
   0  -5 -20   67.25   16.02   2
  -1  -5 -20   31.53   12.55   2
  -2  -5 -20   72.62   15.06   2
  -3  -5 -20  259.28   23.40   2
  -4  -5 -20   -2.06    7.31   2
  -5  -5 -20   53.93   13.27   2
  -6  -5 -20  103.40   18.34   2
  -7  -5 -20   20.20   10.89   2
  -8  -5 -20   40.47   13.55   2
  -9  -5 -20    0.54    7.60   2
 -10  -5 -20  261.71   30.29   2
 -11  -5 -20   70.08   17.43   2
 -12  -5 -20   -0.07    7.80   2
 -13  -5 -20  192.90   29.18   2
 -14  -5 -20    5.81   10.63   2
   8  -6 -20   27.99   12.46   1
   7  -6 -20   22.53   12.41   1
   6  -6 -20   50.45   14.55   1
   5  -6 -20   19.31   11.16   1
   4  -6 -20    3.74    8.63   1
   3  -6 -20   29.48   11.29   1
   2  -6 -20    9.98   11.34   2
   2  -6 -20   18.73   10.01   1
   1  -6 -20   87.13   15.19   1
   1  -6 -20   81.32   17.60   2
   0  -6 -20  -10.62    7.26   2
  -1  -6 -20   40.97   13.24   2
  -2  -6 -20   46.25   13.45   2
  -3  -6 -20   13.55    9.31   2
  -4  -6 -20   30.35   11.00   2
  -5  -6 -20   58.32   14.21   2
  -6  -6 -20  104.79   18.72   2
  -7  -6 -20  282.01   29.18   2
  -8  -6 -20   16.21    9.68   2
  -9  -6 -20   12.40    9.76   2
 -10  -6 -20   25.01   12.42   2
 -11  -6 -20   37.33   14.47   2
 -12  -6 -20   16.32   10.95   2
 -13  -6 -20   21.10   12.31   2
 -14  -6 -20   17.95   11.72   2
   7  -7 -20   44.99   14.39   1
   6  -7 -20   13.75    9.81   1
   5  -7 -20   28.27   11.17   1
   4  -7 -20   21.51   10.99   1
   3  -7 -20   16.08   10.34   1
   2  -7 -20   78.93   15.94   1
   1  -7 -20   41.12   12.09   1
   1  -7 -20   26.89   13.43   2
   0  -7 -20   24.57   12.04   2
  -1  -7 -20   63.91   15.30   2
  -2  -7 -20   -4.63    6.40   2
  -3  -7 -20    8.57    7.82   2
  -4  -7 -20    7.14    7.61   2
  -5  -7 -20   18.33   10.47   2
  -6  -7 -20   -1.60    6.73   2
  -7  -7 -20   45.78   13.30   2
  -8  -7 -20    4.29    7.01   2
  -9  -7 -20   40.09   14.07   2
 -10  -7 -20   56.73   15.88   2
 -11  -7 -20  101.63   21.79   2
 -12  -7 -20   18.70   10.48   2
 -13  -7 -20   64.65   19.36   2
   7  -8 -20   95.74   21.47   1
   6  -8 -20    0.07    9.82   1
   5  -8 -20   62.78   15.08   1
   4  -8 -20   14.97   10.58   1
   3  -8 -20   17.56   10.98   1
   2  -8 -20   26.97   11.71   1
   1  -8 -20   19.41   10.23   1
   0  -8 -20   -4.42    8.99   2
   0  -8 -20   29.27   11.96   1
  -1  -8 -20    2.08    9.31   2
  -2  -8 -20  135.32   19.94   2
  -3  -8 -20   40.98   12.06   2
  -4  -8 -20   97.59   17.80   2
  -5  -8 -20  170.20   23.18   2
  -6  -8 -20    6.05    6.59   2
  -7  -8 -20  105.46   19.98   2
  -8  -8 -20   34.53   12.26   2
  -9  -8 -20   36.14   13.41   2
 -10  -8 -20    5.11    9.30   2
 -11  -8 -20    6.88    9.75   2
 -12  -8 -20   28.13   13.05   2
 -13  -8 -20   37.08   15.88   2
   6  -9 -20   82.52   19.19   1
   5  -9 -20  -17.25    7.75   1
   4  -9 -20  152.22   24.10   1
   3  -9 -20   37.05   13.18   1
   2  -9 -20  122.54   20.11   1
   1  -9 -20    9.71    8.99   1
   0  -9 -20   13.03    9.24   1
  -1  -9 -20  109.22   19.01   2
  -2  -9 -20   13.24    9.43   2
  -3  -9 -20   76.45   15.52   2
  -4  -9 -20    2.33    7.31   2
  -5  -9 -20   14.60    8.66   2
  -6  -9 -20   21.72   10.39   2
  -7  -9 -20    7.07    8.17   2
  -8  -9 -20   49.21   14.74   2
  -9  -9 -20   10.69    9.49   2
 -10  -9 -20    3.21    8.88   2
 -11  -9 -20   13.27   11.78   2
 -12  -9 -20   33.80   16.84   2
   5 -10 -20    0.02   10.73   1
   4 -10 -20   14.14   10.93   1
   3 -10 -20   -1.31    8.66   1
   2 -10 -20   19.79   11.02   1
   1 -10 -20   13.27    9.51   1
   0 -10 -20   70.36   16.02   1
  -2 -10 -20   24.27   11.38   2
  -3 -10 -20   40.91   12.92   2
  -4 -10 -20    0.30    7.53   2
  -5 -10 -20   50.40   13.60   2
  -6 -10 -20   77.64   17.57   2
  -7 -10 -20   18.61   10.22   2
  -8 -10 -20   35.99   13.66   2
  -9 -10 -20   28.36   12.77   2
 -10 -10 -20   -5.94    6.60   2
 -11 -10 -20    6.28    7.74   2
   4 -11 -20    8.28   10.92   1
   3 -11 -20   -0.23   10.40   1
   2 -11 -20   -7.06    8.11   1
   1 -11 -20    9.74    9.63   1
   0 -11 -20    8.49    9.49   1
  -3 -11 -20   12.55    9.02   2
  -4 -11 -20    0.96    7.69   2
  -5 -11 -20   15.51    9.13   2
  -6 -11 -20   -2.13    7.40   2
  -7 -11 -20   24.77   12.36   2
  -8 -11 -20    7.31    8.86   2
  -9 -11 -20  -12.36    6.76   2
 -10 -11 -20   -1.30    6.00   2
 -11 -11 -20   -4.45    7.76   2
   3 -12 -20    0.06   11.54   1
   2 -12 -20  -11.44    8.91   1
   1 -12 -20    0.36    9.23   1
   0 -12 -20    8.31   10.53   1
  -4 -12 -20    9.64    9.42   2
  -5 -12 -20   17.03    9.89   2
  -6 -12 -20   -1.52    7.45   2
  -7 -12 -20    1.97    7.53   2
  -8 -12 -20    3.81    7.65   2
  -9 -12 -20   -1.58    8.28   2
 -10 -12 -20   -0.03    7.54   2
   1 -13 -20   16.94   13.14   1
  -5 -13 -20   -6.92    7.73   2
  -6 -13 -20   -4.54    8.27   2
  -7 -13 -20   80.03   17.68   2
  -8 -13 -20   39.07   15.29   2
  -6 -14 -20   17.26   10.20   2
  -7 -14 -20   23.57   12.98   2
  -6 -13  21   93.06   20.41   1
  -5 -13  21    2.65    8.82   1
   4  13 -21   33.67   18.48   2
   3  13 -21   29.59   17.02   2
   2  13 -21   13.49   14.01   2
  -7 -12  21   17.35   10.86   1
  -6 -12  21   19.87    9.20   1
   6  12 -21   15.77   16.89   2
  -5 -12  21    8.57    8.54   1
   5  12 -21   -5.00   13.32   2
   4  12 -21   -2.69   13.71   2
   3  12 -21   21.65   14.21   2
   2  12 -21   23.21   13.57   2
   1  12 -21  154.57   24.38   2
  -8 -11  21   37.26   13.53   1
  -7 -11  21   13.82    9.06   1
   7  11 -21   15.77   15.02   2
   6  11 -21   16.69   13.85   2
  -6 -11  21   -2.19    8.72   1
   5  11 -21  124.90   24.15   2
  -5 -11  21  146.74   22.87   1
   4  11 -21   40.55   15.30   2
  -4 -11  21   25.68   10.98   1
   3  11 -21   18.72   13.77   2
   2  11 -21   21.18   13.97   2
   1  11 -21   19.31   13.81   2
   0  11 -21   11.99   12.59   2
  -4  11 -21   17.35    9.39   3
  -5  11 -21  120.93   19.63   3
  -6  11 -21   86.77   18.34   3
  -9 -10  21   -0.34   10.06   1
   8  10 -21    0.50   12.80   2
  -8 -10  21    3.20    7.13   1
  -7 -10  21   14.75   10.97   1
   7  10 -21   33.04   15.40   2
  -6 -10  21   10.75    9.65   1
   6  10 -21   12.53   13.59   2
  -5 -10  21   28.03   12.00   1
   5  10 -21   26.86   13.98   2
   4  10 -21   -3.01   10.79   2
  -4 -10  21    9.78    8.88   1
   3  10 -21   98.10   21.18   2
   2  10 -21   16.49   13.17   2
   1  10 -21   41.09   15.83   2
   0  10 -21   92.23   19.76   2
  -1  10 -21   50.19   16.47   2
  -4  10 -21   55.53   13.47   3
  -5  10 -21    5.96    7.79   3
  -6  10 -21    7.66    9.36   3
  -7  10 -21   61.76   15.99   3
  -9  -9  21   22.49   11.53   1
   9   9 -21    6.62    6.15   2
   8   9 -21    9.31    6.60   2
  -8  -9  21    5.26    8.82   1
  -7  -9  21  126.52   21.90   1
   7   9 -21  103.86   21.29   2
  -6  -9  21    0.86    7.36   1
   6   9 -21    4.93   11.23   2
  -5  -9  21   28.68   10.86   1
   5   9 -21   12.79   12.70   2
   4   9 -21   12.22   12.68   2
  -4  -9  21   -7.70    7.17   1
   3   9 -21   28.03   13.34   2
   2   9 -21   39.18   14.54   2
   1   9 -21   14.72   12.21   2
   0   9 -21  -11.51   11.39   2
  -1   9 -21  174.34   23.98   2
  -2   9 -21   -1.85   11.71   2
  -4   9 -21    5.78    6.75   3
  -5   9 -21    3.39    6.94   3
  -6   9 -21   66.91   15.06   3
  -7   9 -21   24.72   10.24   3
  -8   9 -21    5.14    9.76   3
 -10  -8  21    5.47    7.24   4
 -10  -8  21   19.45   10.43   1
  -9  -8  21   -4.37    6.53   1
   9   8 -21   -4.59    5.61   2
  -9  -8  21    4.83    6.33   4
  -8  -8  21    8.75    9.08   1
   8   8 -21    6.27    7.17   2
  -7  -8  21   32.85   12.97   1
   7   8 -21   10.78   11.15   2
  -6  -8  21    1.26    6.83   1
   6   8 -21  -11.64    9.69   2
  -5  -8  21   26.28   10.80   1
   5   8 -21   33.56   14.60   2
   4   8 -21   -2.59    9.86   2
  -4  -8  21   11.95    8.11   1
   3   8 -21   71.20   17.80   2
  -3  -8  21   52.95   13.04   1
   2   8 -21   80.95   17.68   2
   1   8 -21    4.77   12.07   2
   0   8 -21  167.74   23.55   2
  -1   8 -21    0.82   11.63   2
  -2   8 -21   58.08   16.53   2
  -3   8 -21    4.67    6.52   3
  -3   8 -21   27.21   13.48   2
  -4   8 -21   -0.50    6.44   3
  -5   8 -21   10.79    8.85   3
  -6   8 -21    7.45    7.91   3
  -7   8 -21   36.06   11.96   3
  -8   8 -21  103.15   20.23   3
  -9   8 -21   -3.63    7.66   3
 -10  -7  21    5.28    6.17   4
 -10  -7  21   12.38    9.03   1
  10   7 -21    7.76    6.68   2
  -9  -7  21    1.56    6.42   4
   9   7 -21    0.01    6.32   2
  -9  -7  21    2.68    9.52   1
   8   7 -21   49.18   16.02   2
  -8  -7  21  105.93   19.58   1
  -8  -7  21   62.37   14.56   4
  -7  -7  21   59.74   13.22   4
  -7  -7  21   37.87   12.41   1
   7   7 -21   59.29   16.03   2
   6   7 -21   59.12   16.03   2
  -6  -7  21   96.88   18.28   1
  -5  -7  21   10.84    8.00   1
   5   7 -21   19.43   12.55   2
   4   7 -21   -9.96   10.50   2
  -4  -7  21   12.71    7.37   1
  -3  -7  21   -5.18    4.61   1
   3   7 -21   -4.80   11.25   2
   2   7 -21   34.72   13.52   2
   1   7 -21   29.45   14.19   2
   0   7 -21   -4.30   10.10   2
  -1   7 -21   23.67   13.34   2
  -2   7 -21  101.81   19.39   2
  -3   7 -21   31.27   13.88   2
  -3   7 -21    9.21    6.71   3
  -4   7 -21  105.73   20.04   2
  -4   7 -21   93.30   16.48   3
  -5   7 -21   42.73   12.57   3
  -6   7 -21   99.01   17.80   3
  -7   7 -21   36.69   12.22   3
  -8   7 -21   13.07    8.65   3
  -9   7 -21    0.81    5.63   3
 -10   7 -21   17.86    7.22   3
  11   6 -21   16.06   14.02   2
 -10  -6  21    5.91    5.45   4
 -10  -6  21   -0.97    6.24   1
  10   6 -21    5.24    9.99   2
  -9  -6  21  -10.72    5.03   4
   9   6 -21   19.26   12.19   2
  -9  -6  21   11.09    8.39   1
  -8  -6  21   21.85    9.39   4
   8   6 -21   15.92   12.02   2
  -8  -6  21   17.69    9.72   1
  -7  -6  21    2.60    5.41   4
  -7  -6  21    6.00    8.15   1
   7   6 -21   12.17   10.60   2
  -6  -6  21   -1.36    5.18   4
   6   6 -21   -0.37    9.29   2
  -6  -6  21    5.20    7.45   1
   5   6 -21  168.80   23.15   2
  -5  -6  21  166.55   20.65   4
  -5  -6  21  147.37   20.74   1
  -4  -6  21    9.14    7.20   1
   4   6 -21   14.08   12.56   2
   3   6 -21   62.69   17.14   2
  -3  -6  21   98.41   16.28   1
   2   6 -21  360.89   30.14   2
   1   6 -21   11.39   10.78   2
   0   6 -21   33.37   14.02   2
  -1   6 -21  154.85   21.60   2
  -2   6 -21   87.55   18.58   2
  -3   6 -21    9.16   11.85   2
  -3   6 -21    1.23    5.13   3
  -4   6 -21   12.92    8.22   3
  -4   6 -21   40.66   14.22   2
  -5   6 -21   58.15   15.85   2
  -5   6 -21   31.63   10.63   3
  -6   6 -21  134.33   20.60   3
  -7   6 -21   -0.43    6.77   3
  -8   6 -21   45.82   13.64   3
  -9   6 -21   -2.96    6.31   3
 -10   6 -21   -0.98    6.23   3
 -11  -5  21  -12.41    5.47   1
 -11  -5  21   -2.81    5.20   4
  11   5 -21   28.83   14.71   2
  10   5 -21   62.29   15.84   2
 -10  -5  21   25.18    8.24   4
 -10  -5  21   25.86   10.10   1
  -9  -5  21   23.68   11.64   1
  -9  -5  21   18.08    8.48   4
   9   5 -21   19.30   12.22   2
  -8  -5  21  169.65   22.06   4
   8   5 -21  151.49   22.75   2
  -8  -5  21  169.96   24.41   1
  -7  -5  21    0.28    4.96   4
  -7  -5  21   -0.80    7.16   1
   7   5 -21    3.44    9.41   2
   6   5 -21   16.38   12.52   2
  -6  -5  21   22.48    9.62   1
  -6  -5  21   11.16    7.33   4
  -5  -5  21    4.69    7.76   1
   5   5 -21    2.51   10.27   2
  -5  -5  21  -12.98    4.34   4
  -4  -5  21    2.96    6.61   1
  -4  -5  21   -4.41    4.19   4
   4   5 -21   -9.23    8.80   2
  -3  -5  21    3.89    5.67   1
  -3  -5  21    1.69    5.08   4
   3   5 -21   11.91   11.57   2
   2   5 -21  173.57   22.34   2
   1   5 -21   98.66   18.51   2
   0   5 -21   13.32   12.49   2
  -1   5 -21   -6.72   10.41   2
  -2   5 -21  138.79   20.21   2
  -3   5 -21   37.35   13.89   2
  -3   5 -21   13.06    6.71   3
  -4   5 -21  100.97   16.17   3
  -4   5 -21   97.70   18.38   2
  -5   5 -21  129.72   19.50   2
  -5   5 -21  146.66   19.96   3
  -6   5 -21   37.66   13.93   2
  -6   5 -21   35.43   11.31   3
  -7   5 -21  183.04   24.23   3
  -8   5 -21    0.52    5.14   3
  -9   5 -21   13.02    8.88   3
 -10   5 -21    0.08    5.87   3
 -11   5 -21   -1.94    5.84   3
  11   4 -21   39.26   12.52   2
  11   4 -21   -7.06   10.24   1
  10   4 -21    6.27   10.43   1
  10   4 -21   26.69   12.24   2
   9   4 -21    9.19   10.18   2
   9   4 -21   20.36   10.73   1
   8   4 -21    5.34    8.38   1
   8   4 -21   11.20   10.97   2
   7   4 -21   58.83   15.45   2
   7   4 -21   59.08   15.02   1
   6   4 -21   39.60   13.13   2
  -5  -4  21  184.04   21.22   4
   5   4 -21  255.30   25.97   2
  -5  -4  21  214.73   24.29   1
  -4  -4  21  134.69   18.68   1
   4   4 -21  161.74   21.24   2
  -4  -4  21  129.93   17.29   4
  -3  -4  21   -2.15    4.90   1
  -3  -4  21   -4.29    4.26   4
   3   4 -21   -3.25    9.13   2
   2   4 -21  138.16   20.85   2
   1   4 -21  193.72   22.77   2
   0   4 -21   27.92   12.96   2
  -1   4 -21  178.34   21.74   2
  -2   4 -21   21.43   12.03   2
  -3   4 -21    2.26   11.26   2
  -3   4 -21   -4.94    5.03   3
  -4   4 -21   24.80   12.40   2
  -4   4 -21   41.61   11.02   3
  -5   4 -21   17.08   11.95   2
  -6   4 -21   22.89   12.50   2
  -6   4 -21   27.65    9.91   3
  -7   4 -21    0.48    5.52   3
  -7   4 -21    0.64   11.48   2
  -8   4 -21   -4.51    6.12   3
  -9   4 -21   34.70   11.64   3
 -10   4 -21   32.72   12.61   3
 -11   4 -21   -2.12    5.17   3
  11   3 -21  -13.83   10.40   1
  10   3 -21   25.86   12.48   1
  10   3 -21   37.98   12.55   2
   9   3 -21   12.77   10.18   1
   9   3 -21    8.87    9.29   2
   8   3 -21   60.41   15.64   2
   8   3 -21   82.27   16.39   1
   7   3 -21  116.11   18.74   1
   7   3 -21  135.88   20.65   2
   6   3 -21   11.54    8.64   1
   6   3 -21   -0.50    8.63   2
   5   3 -21  -12.36    6.26   1
   5   3 -21  -11.10    7.72   2
   4   3 -21   52.24   14.08   2
   4   3 -21   36.05   10.44   1
  -3  -3  21   48.83   10.15   4
  -3  -3  21   43.79   11.09   1
   3   3 -21   45.69   13.78   2
   2   3 -21   27.17   12.34   2
   1   3 -21  262.94   25.44   2
   0   3 -21   65.95   16.38   2
  -1   3 -21  159.69   21.22   2
  -2   3 -21  304.58   26.41   2
  -3   3 -21   53.21   15.40   2
  -3   3 -21   65.91   12.46   3
  -4   3 -21   98.43   18.01   2
  -4   3 -21  110.09   16.19   3
  -5   3 -21  154.17   20.04   3
  -5   3 -21  148.02   20.86   2
  -6   3 -21  -20.01    8.48   2
  -6   3 -21   -1.73    5.40   3
  -7   3 -21    8.04   11.74   2
  -7   3 -21   13.68    8.01   3
  -8   3 -21   78.69   17.82   2
  -8   3 -21   51.74   13.87   3
  -9   3 -21   11.23    9.24   3
 -10   3 -21   -3.54    6.85   3
 -11   3 -21   -1.92    5.74   3
 -12   3 -21   -1.03    5.83   3
  11   2 -21    8.59   13.08   1
  10   2 -21   13.23   10.81   1
  10   2 -21   11.93   10.36   2
   9   2 -21   12.14    9.29   1
   9   2 -21   23.92   11.14   2
   8   2 -21   63.07   15.83   1
   8   2 -21   75.94   16.38   2
   7   2 -21  101.39   17.87   1
   7   2 -21  101.64   17.97   2
   6   2 -21   18.66   10.77   2
   6   2 -21   19.52   10.06   1
   5   2 -21   15.51    9.53   1
   5   2 -21   21.77   11.73   2
   4   2 -21  125.64   19.56   2
   4   2 -21  135.06   16.92   1
   3   2 -21   30.74   12.50   2
   3   2 -21   20.72    8.98   1
   2   2 -21   17.58   11.96   2
   1   2 -21  262.48   25.41   2
   0   2 -21   81.71   17.37   2
  -1   2 -21   97.35   18.00   2
  -2   2 -21   73.62   17.12   2
  -2   2 -21   48.71    9.62   3
  -3   2 -21   21.31   12.72   2
  -3   2 -21   17.59    6.82   3
  -4   2 -21   25.91    8.73   3
  -4   2 -21   47.43   16.48   2
  -5   2 -21   12.25   11.92   2
  -5   2 -21    5.12    4.91   3
  -6   2 -21  129.48   18.95   3
  -6   2 -21  108.29   19.74   2
  -7   2 -21  158.55   21.82   2
  -7   2 -21  139.30   20.73   3
  -8   2 -21   53.61   13.74   3
  -8   2 -21   47.31   15.31   2
  -9   2 -21  111.94   20.04   3
  -9   2 -21  122.33   20.21   2
 -10   2 -21   30.76   11.17   3
 -11   2 -21    9.48    9.31   3
 -12   2 -21  -11.87    4.80   3
  10   1 -21   47.15   15.56   1
   9   1 -21   12.14    9.51   2
   9   1 -21   12.85    9.64   1
   8   1 -21   47.03   13.37   1
   8   1 -21   27.80   11.43   2
   7   1 -21   40.73   12.77   1
   7   1 -21   64.99   14.74   2
   6   1 -21   14.21   10.70   2
   6   1 -21   12.55    8.96   1
   5   1 -21  123.03   18.40   2
   5   1 -21   73.27   13.85   1
   4   1 -21    3.61    9.47   2
   4   1 -21    6.87    7.98   1
   3   1 -21   27.28    9.33   1
   3   1 -21   24.17   11.37   2
   2   1 -21  136.98   19.48   2
   1   1 -21   65.38   15.63   2
   0   1 -21  322.62   27.06   2
  -1   1 -21    6.32   11.03   2
  -2   1 -21  244.85   25.45   2
  -3   1 -21  542.14   35.70   2
  -4   1 -21   12.14   11.34   2
  -5   1 -21    3.44    9.99   2
  -6   1 -21   66.27   15.93   2
  -7   1 -21   70.47   17.19   2
  -7   1 -21   90.10   16.74   3
  -8   1 -21   35.32   10.95   3
  -8   1 -21   31.36   13.22   2
  -9   1 -21   -3.44    9.72   2
  -9   1 -21   12.40    8.60   3
 -10   1 -21    2.30    6.69   3
 -10   1 -21  -15.91    8.85   2
 -11   1 -21   12.05    7.00   3
 -12   1 -21   -5.86    4.60   3
 -13   1 -21    2.78    6.92   3
  10   0 -21   -6.76    8.76   1
   9   0 -21   30.38   12.21   1
   8   0 -21   29.19   11.48   1
   8   0 -21    3.38    9.11   2
   7   0 -21    6.25    9.12   1
   7   0 -21   12.62   10.28   2
   6   0 -21  139.35   19.14   2
   6   0 -21  117.67   17.99   1
   5   0 -21  186.23   20.49   1
   5   0 -21  157.18   20.44   2
   4   0 -21   44.83   11.49   1
   4   0 -21   21.32   11.16   2
   3   0 -21    3.10    6.50   1
   3   0 -21    5.58    9.62   2
   2   0 -21    2.22   10.58   2
   2   0 -21   -0.74    6.05   1
   1   0 -21   48.54   13.74   2
   0   0 -21   95.08   17.61   2
  -1   0 -21  -16.68    9.37   2
  -2   0 -21    4.05   12.12   2
  -3   0 -21   52.18   15.26   2
  -4   0 -21  101.88   18.31   2
  -5   0 -21  189.32   23.31   2
  -6   0 -21   38.06   13.40   2
  -7   0 -21  117.50   20.33   2
  -8   0 -21   -1.24    9.31   2
  -9   0 -21  366.77   30.01   2
 -10   0 -21  172.28   23.62   2
 -10   0 -21  174.57   24.98   3
 -11   0 -21    7.47    7.20   3
 -11   0 -21   -7.71    9.20   2
 -12   0 -21    9.18    8.29   3
 -13   0 -21   14.66    7.02   3
  10  -1 -21    8.44   10.38   1
   9  -1 -21   69.46   16.23   1
   8  -1 -21   -4.38    8.72   1
   7  -1 -21   30.91   11.55   1
   7  -1 -21   44.72   12.84   2
   6  -1 -21   78.29   15.46   1
   6  -1 -21   58.91   14.50   2
   5  -1 -21    9.67    8.67   1
   5  -1 -21   -3.74    8.96   2
   4  -1 -21   44.05   12.81   2
   4  -1 -21   29.46    9.82   1
   3  -1 -21   91.71   16.61   2
   3  -1 -21   61.95   11.95   1
   2  -1 -21  108.92   14.45   1
   2  -1 -21  118.86   18.49   2
   1  -1 -21  293.54   25.71   2
   0  -1 -21   96.96   17.85   2
  -1  -1 -21  106.29   19.61   2
  -2  -1 -21   -2.52   10.67   2
  -3  -1 -21 1148.15   54.58   2
  -4  -1 -21    9.05   11.63   2
  -5  -1 -21   -0.90    9.05   2
  -6  -1 -21   57.15   14.79   2
  -7  -1 -21    4.68    9.25   2
  -8  -1 -21    4.13    8.34   2
  -9  -1 -21    1.60    7.26   2
 -10  -1 -21   15.82   10.73   2
 -11  -1 -21   -1.92    7.99   2
 -12  -1 -21    3.03    8.80   2
 -13  -1 -21   11.06    5.93   3
  10  -2 -21   20.83   13.67   1
   9  -2 -21   -9.88    8.16   1
   8  -2 -21   94.10   18.11   1
   7  -2 -21   -2.34    7.99   1
   6  -2 -21   75.96   16.20   1
   6  -2 -21   75.31   15.82   2
   5  -2 -21  206.21   22.73   1
   5  -2 -21  200.30   21.83   2
   4  -2 -21   -0.83    6.37   1
   4  -2 -21    5.36    9.87   2
   3  -2 -21  124.83   18.67   2
   3  -2 -21  160.34   17.92   1
   2  -2 -21   23.47    8.11   1
   2  -2 -21   30.51   12.91   2
   1  -2 -21  182.95   21.45   2
   0  -2 -21    5.84   10.96   2
  -1  -2 -21    4.33   10.56   2
  -2  -2 -21    7.82   10.72   2
  -3  -2 -21    5.65    9.80   2
  -4  -2 -21   13.68   10.55   2
  -5  -2 -21  216.64   24.52   2
  -6  -2 -21   16.28   10.86   2
  -7  -2 -21  140.81   20.74   2
  -8  -2 -21   23.42   11.06   2
  -9  -2 -21   92.41   17.75   2
 -10  -2 -21   63.54   15.90   2
 -11  -2 -21   11.22    9.25   2
 -12  -2 -21   17.68   11.10   2
 -13  -2 -21    2.54    8.93   2
   9  -3 -21   23.41   11.43   1
   8  -3 -21   20.59   10.78   1
   7  -3 -21    1.62    6.52   1
   6  -3 -21   -7.77    7.81   1
   5  -3 -21   45.23   13.42   1
   5  -3 -21   32.35   12.17   2
   4  -3 -21   -4.16    6.89   1
   4  -3 -21   19.96   10.65   2
   3  -3 -21   40.98   13.19   2
   3  -3 -21   72.64   13.61   1
   2  -3 -21    8.19   10.80   2
   2  -3 -21   36.64    9.48   1
   1  -3 -21  309.89   25.49   2
   0  -3 -21    4.72   11.30   2
  -1  -3 -21  780.95   43.08   2
  -2  -3 -21    7.30   10.43   2
  -3  -3 -21   58.78   16.27   2
  -4  -3 -21   60.95   14.83   2
  -5  -3 -21   11.37    9.59   2
  -6  -3 -21   37.50   13.09   2
  -7  -3 -21   27.05   10.71   2
  -8  -3 -21    2.67    8.07   2
  -9  -3 -21   82.75   16.91   2
 -10  -3 -21    4.38    8.92   2
 -11  -3 -21   26.03   11.67   2
 -12  -3 -21   12.39   10.37   2
 -13  -3 -21    3.65    9.54   2
 -14  -3 -21    0.22    9.43   2
   9  -4 -21    5.64   10.16   1
   8  -4 -21   17.58   10.98   1
   7  -4 -21   94.44   17.94   1
   6  -4 -21    6.51    7.83   1
   5  -4 -21  206.23   23.73   1
   4  -4 -21   19.39   10.66   2
   4  -4 -21    6.71    8.87   1
   3  -4 -21  180.65   21.20   2
   3  -4 -21  204.05   21.04   1
   2  -4 -21   33.59   13.14   2
   2  -4 -21   54.65   12.35   1
   1  -4 -21   16.02   12.10   2
   0  -4 -21   28.73   12.43   2
  -1  -4 -21   57.21   15.62   2
  -2  -4 -21   18.22   11.56   2
  -3  -4 -21    1.52    8.45   2
  -4  -4 -21   68.48   15.57   2
  -5  -4 -21  102.95   17.92   2
  -6  -4 -21   99.93   17.93   2
  -7  -4 -21   14.86    9.94   2
  -8  -4 -21   46.41   13.92   2
  -9  -4 -21   15.49   10.16   2
 -10  -4 -21  172.76   25.17   2
 -11  -4 -21    4.65    8.06   2
 -12  -4 -21   21.23   10.80   2
 -13  -4 -21   42.78   15.58   2
 -14  -4 -21   16.55   11.01   2
   8  -5 -21   -7.82    8.13   1
   7  -5 -21  104.64   18.75   1
   6  -5 -21   -1.97    7.38   1
   5  -5 -21    6.62    9.02   1
   4  -5 -21   -1.41    8.06   1
   3  -5 -21  218.55   22.49   2
   3  -5 -21  235.64   24.06   1
   2  -5 -21   13.89   11.87   2
   2  -5 -21   27.65   10.41   1
   1  -5 -21   49.77   15.51   2
   0  -5 -21   20.42   12.01   2
  -1  -5 -21  152.76   21.57   2
  -2  -5 -21   43.43   13.91   2
  -3  -5 -21   22.15   11.07   2
  -4  -5 -21   41.42   13.02   2
  -5  -5 -21   -2.57    6.36   2
  -6  -5 -21   12.32    7.94   2
  -7  -5 -21   29.03   12.18   2
  -8  -5 -21    5.28    8.03   2
  -9  -5 -21  101.28   19.35   2
 -10  -5 -21    1.39    7.60   2
 -11  -5 -21   37.69   13.75   2
 -12  -5 -21  162.55   26.55   2
 -13  -5 -21    3.70    8.10   2
 -14  -5 -21   25.27   13.39   2
   8  -6 -21  -24.89    9.06   1
   7  -6 -21   90.00   18.56   1
   6  -6 -21   13.47    9.65   1
   5  -6 -21   24.81   11.79   1
   4  -6 -21   74.65   16.29   1
   3  -6 -21    5.69    8.80   1
   2  -6 -21   28.90   11.09   1
   2  -6 -21    8.72   11.19   2
   1  -6 -21   23.38   12.76   2
   0  -6 -21   -7.24    9.25   2
  -1  -6 -21   78.71   16.73   2
  -2  -6 -21   18.27   10.61   2
  -3  -6 -21    6.20    7.27   2
  -4  -6 -21    0.20    7.37   2
  -5  -6 -21    4.08    7.39   2
  -6  -6 -21  386.38   30.87   2
  -7  -6 -21   62.33   15.47   2
  -8  -6 -21   47.94   13.64   2
  -9  -6 -21    6.49   10.05   2
 -10  -6 -21   35.30   12.96   2
 -11  -6 -21    2.25    9.48   2
 -12  -6 -21    6.93   10.21   2
 -13  -6 -21   70.50   19.68   2
 -14  -6 -21   15.70   12.29   2
   7  -7 -21   24.69   12.40   1
   6  -7 -21   18.13   11.12   1
   5  -7 -21   50.21   14.97   1
   4  -7 -21   -7.57    6.73   1
   3  -7 -21  134.91   20.66   1
   2  -7 -21   25.98   11.13   1
   1  -7 -21  139.95   21.54   2
   1  -7 -21  164.58   20.78   1
   0  -7 -21  192.13   23.65   2
  -1  -7 -21   -6.48    9.00   2
  -2  -7 -21  189.54   23.85   2
  -3  -7 -21    0.97    7.27   2
  -4  -7 -21   68.35   15.72   2
  -5  -7 -21  107.43   19.40   2
  -6  -7 -21    7.00    7.93   2
  -7  -7 -21   -0.11    7.06   2
  -8  -7 -21   70.77   17.36   2
  -9  -7 -21   -5.16    7.88   2
 -10  -7 -21   75.43   18.75   2
 -11  -7 -21  138.96   25.45   2
 -12  -7 -21  104.62   23.15   2
 -13  -7 -21   26.01   13.72   2
   6  -8 -21   32.13   15.59   1
   5  -8 -21   35.06   13.42   1
   4  -8 -21   64.82   15.37   1
   3  -8 -21    4.04    9.38   1
   2  -8 -21   22.95   12.07   1
   1  -8 -21   17.91   10.35   1
   0  -8 -21    9.60   10.82   2
  -1  -8 -21   37.10   13.67   2
  -2  -8 -21    2.33    7.91   2
  -3  -8 -21   75.70   15.58   2
  -4  -8 -21  222.74   26.13   2
  -5  -8 -21   -1.50    6.62   2
  -6  -8 -21   15.44    9.73   2
  -7  -8 -21    3.56    7.09   2
  -8  -8 -21  121.66   22.28   2
  -9  -8 -21   47.19   15.06   2
 -10  -8 -21    3.46    8.62   2
 -11  -8 -21    9.64    9.36   2
 -12  -8 -21   23.35   14.41   2
   5  -9 -21   -1.22    9.91   1
   4  -9 -21   -1.93    9.55   1
   3  -9 -21  138.46   22.82   1
   2  -9 -21    9.37   10.20   1
   1  -9 -21   59.93   14.94   1
  -1  -9 -21   97.85   19.11   2
  -2  -9 -21   -2.72    8.07   2
  -3  -9 -21   -4.83    6.89   2
  -4  -9 -21    3.36    8.08   2
  -5  -9 -21   50.44   14.16   2
  -6  -9 -21    3.26    7.09   2
  -7  -9 -21   25.08   11.35   2
  -8  -9 -21    2.34    8.43   2
  -9  -9 -21    6.64    9.90   2
 -10  -9 -21   -2.87    6.63   2
 -11  -9 -21   27.25   14.87   2
 -12  -9 -21   29.38   15.72   2
   4 -10 -21    6.38   12.15   1
   3 -10 -21   19.40   11.81   1
   2 -10 -21   10.28    9.81   1
   1 -10 -21   13.76   10.44   1
  -2 -10 -21   84.23   17.34   2
  -3 -10 -21   -5.47    8.55   2
  -4 -10 -21   59.80   14.85   2
  -5 -10 -21   19.94   10.97   2
  -6 -10 -21   21.64   10.46   2
  -7 -10 -21   22.99   11.37   2
  -8 -10 -21   17.42   10.81   2
  -9 -10 -21   -9.07    7.05   2
 -10 -10 -21   11.53    7.34   2
 -11 -10 -21   -8.50    6.82   2
   3 -11 -21   23.43   12.46   1
   2 -11 -21   57.50   16.56   1
   1 -11 -21   21.98   11.92   1
  -3 -11 -21   -1.36    7.89   2
  -4 -11 -21    8.53    8.60   2
  -5 -11 -21    5.51    7.76   2
  -6 -11 -21   19.57    9.91   2
  -7 -11 -21    2.22    8.69   2
  -8 -11 -21    6.05   10.01   2
  -9 -11 -21   -1.63    5.68   2
 -10 -11 -21   -8.17    6.16   2
   2 -12 -21   14.56   13.55   1
  -4 -12 -21   31.67   12.18   2
  -5 -12 -21    6.81    9.03   2
  -6 -12 -21   31.59   12.92   2
  -7 -12 -21   46.56   13.88   2
  -8 -12 -21   73.14   18.08   2
  -9 -12 -21   -0.31    9.12   2
  -5 -13 -21    7.79   10.03   2
  -6 -13 -21   42.84   11.62   2
  -7 -13 -21   24.13   12.22   2
  -8 -13 -21   29.21   14.32   2
   3  13 -22   -3.19   13.56   2
   2  13 -22  -26.61   12.38   2
  -6 -12  22    1.10    8.91   1
   5  12 -22   15.87   15.25   2
   4  12 -22    4.97   14.24   2
   3  12 -22   77.77   19.86   2
   2  12 -22  109.65   22.54   2
   1  12 -22    1.13   13.98   2
  -7 -11  22  -10.82    8.27   1
  -6 -11  22   60.17   14.92   1
   6  11 -22   46.61   18.69   2
  -5 -11  22    4.26   10.32   1
   5  11 -22   11.01   14.77   2
   4  11 -22   33.07   16.10   2
   3  11 -22   17.36   14.11   2
   2  11 -22   -1.07   12.56   2
   1  11 -22   -4.06   11.82   2
   0  11 -22   25.11   15.30   2
  -5  11 -22   27.28   11.42   3
  -8 -10  22  106.30   21.63   1
   7  10 -22    3.62   14.05   2
  -7 -10  22    6.80    8.51   1
  -6 -10  22   -2.16    8.94   1
   6  10 -22   -6.43   12.30   2
   5  10 -22   22.00   14.72   2
  -5 -10  22   38.54   12.37   1
   4  10 -22   34.68   15.47   2
   3  10 -22    4.51   12.26   2
   2  10 -22  132.95   23.32   2
   1  10 -22   19.92   13.55   2
   0  10 -22   -9.53   10.65   2
  -1  10 -22  117.40   20.92   2
  -5  10 -22    9.67    8.80   3
  -6  10 -22   -0.79    6.19   3
  -7  10 -22    6.99    9.99   3
  -9  -9  22   17.42   11.41   1
  -8  -9  22   80.36   17.29   1
   7   9 -22   16.36   14.95   2
  -7  -9  22   28.17   11.29   1
   6   9 -22   18.03   14.14   2
  -6  -9  22    4.15    7.80   1
  -5  -9  22   24.88   11.28   1
   5   9 -22   15.92   14.09   2
   4   9 -22    4.49   11.77   2
   3   9 -22   51.99   16.03   2
   2   9 -22    5.14   11.97   2
   1   9 -22   16.77   12.99   2
   0   9 -22   11.80   12.44   2
  -1   9 -22    3.24   12.05   2
  -2   9 -22   70.71   18.33   2
  -5   9 -22   37.89   12.13   3
  -6   9 -22    5.93    8.30   3
  -7   9 -22   86.82   16.23   3
  -8   9 -22   10.21   11.13   3
  -9  -8  22   15.20    9.71   1
   9   8 -22    9.65    6.50   2
   8   8 -22   16.68    6.80   2
  -8  -8  22    6.74    9.56   1
  -7  -8  22   35.50   11.79   1
   7   8 -22   -0.26    7.98   2
   6   8 -22   33.70   16.08   2
  -6  -8  22   57.52   13.73   1
   5   8 -22  -17.13    8.94   2
  -5  -8  22   -7.55    6.33   1
   4   8 -22    7.17   12.42   2
  -4  -8  22   22.90    9.99   1
   3   8 -22   71.48   18.12   2
   2   8 -22   40.39   14.88   2
   1   8 -22   28.61   14.83   2
   0   8 -22    4.73   12.21   2
  -1   8 -22  141.15   22.85   2
  -2   8 -22    7.28   12.20   2
  -3   8 -22  -13.19   10.43   2
  -4   8 -22  105.59   17.56   3
  -5   8 -22   -1.08    7.08   3
  -6   8 -22   -5.15    6.41   3
  -7   8 -22   57.00   14.89   3
  -8   8 -22   23.13   12.12   3
 -10  -7  22   28.70   12.47   4
 -10  -7  22   18.03   12.30   1
  -9  -7  22   18.67    7.52   4
   9   7 -22   10.93    6.26   2
  -9  -7  22    4.57    7.57   1
  -8  -7  22   52.37   14.67   1
  -8  -7  22   41.91   11.59   4
   7   7 -22   71.38   18.50   2
  -7  -7  22   67.07   16.13   1
  -7  -7  22  112.31   18.72   4
  -6  -7  22   13.10    8.54   1
   6   7 -22   15.81   11.63   2
  -5  -7  22   64.16   14.95   1
   5   7 -22   45.26   15.62   2
   4   7 -22   26.95   14.05   2
  -4  -7  22   19.09    9.48   1
   3   7 -22   -8.71   11.01   2
   2   7 -22    4.54   12.05   2
   1   7 -22   26.47   13.90   2
   0   7 -22   35.80   14.48   2
  -1   7 -22   20.74   13.61   2
  -2   7 -22   14.20   12.91   2
  -3   7 -22   47.22   16.40   2
  -4   7 -22   26.83    9.76   3
  -4   7 -22   43.76   15.77   2
  -5   7 -22   74.85   15.02   3
  -6   7 -22   53.39   13.34   3
  -7   7 -22   56.87   15.37   3
  -8   7 -22   66.00   16.08   3
  -9   7 -22   16.59   10.22   3
 -10  -6  22   11.03    7.89   4
  10   6 -22    3.19   11.71   2
 -10  -6  22   24.42   10.71   1
   9   6 -22    2.81    5.37   2
  -9  -6  22   -1.76    6.85   1
  -9  -6  22    3.62    6.57   4
  -8  -6  22   -3.02    5.45   4
   8   6 -22    8.63   11.58   2
  -8  -6  22   -7.62    7.49   1
  -7  -6  22    7.03    7.11   4
   7   6 -22    2.15   11.28   2
  -7  -6  22   13.74    8.87   1
  -6  -6  22   44.15   13.20   1
  -6  -6  22   66.04   13.84   4
   6   6 -22   58.57   16.51   2
   5   6 -22   -5.34    9.63   2
  -5  -6  22    5.43    7.81   1
  -5  -6  22   -1.18    6.22   4
  -4  -6  22   22.20   10.02   1
   4   6 -22   17.66   14.10   2
   3   6 -22  205.18   25.15   2
   2   6 -22   29.27   13.76   2
   1   6 -22  125.38   20.90   2
   0   6 -22    8.52   12.64   2
  -1   6 -22   30.88   13.96   2
  -2   6 -22  104.20   19.82   2
  -3   6 -22   49.91   16.47   2
  -4   6 -22   91.13   18.13   2
  -4   6 -22   60.78   13.68   3
  -5   6 -22    5.06    6.12   3
  -5   6 -22    4.75   12.30   2
  -6   6 -22    7.45    7.28   3
  -7   6 -22   19.03    9.20   3
  -8   6 -22   -3.36    7.01   3
  -9   6 -22   14.37    9.51   3
 -10   6 -22   -2.30    6.02   3
  11   5 -22   45.47   17.60   2
 -10  -5  22   -6.12    7.60   1
  10   5 -22   11.30   12.10   2
 -10  -5  22   -0.66    7.10   4
  -9  -5  22   49.33   14.01   1
   9   5 -22   62.49   15.16   2
  -9  -5  22   55.75   13.35   4
  -8  -5  22    9.59    7.21   4
   8   5 -22    9.74   10.95   2
  -8  -5  22   14.30    9.89   1
   7   5 -22  104.28   20.13   2
  -7  -5  22  142.88   20.54   4
  -7  -5  22  113.63   20.00   1
  -6  -5  22   13.73    7.86   4
   6   5 -22   26.76   13.00   2
  -6  -5  22   -1.78    7.10   1
  -5  -5  22   16.10    9.04   1
   5   5 -22   21.71   12.36   2
  -5  -5  22   17.10    8.20   4
  -4  -5  22   54.35   14.14   1
   4   5 -22   40.89   14.12   2
  -4  -5  22   52.94   12.20   4
   3   5 -22  122.71   20.80   2
   2   5 -22   11.84   11.32   2
   1   5 -22    6.29   11.77   2
   0   5 -22   48.84   14.78   2
  -1   5 -22   40.70   14.71   2
  -2   5 -22   18.56   13.34   2
  -3   5 -22   56.94   15.55   2
  -4   5 -22   32.36   14.65   2
  -4   5 -22   22.87    8.84   3
  -5   5 -22    5.67    7.15   3
  -5   5 -22    3.59   11.87   2
  -6   5 -22  301.96   29.00   3
  -6   5 -22  316.07   28.11   2
  -7   5 -22   -1.50    6.45   3
  -8   5 -22    9.21    7.87   3
  -9   5 -22   -4.48    6.41   3
 -10   5 -22   -3.52    5.61   3
  11   4 -22   18.27   13.55   2
  10   4 -22   -6.19    8.13   1
  10   4 -22   23.02   10.67   2
   9   4 -22    9.68   10.56   2
   9   4 -22   33.81   12.46   1
   8   4 -22   24.27   11.51   1
   8   4 -22    9.67   10.84   2
   7   4 -22    4.17   10.19   2
   6   4 -22   69.07   15.82   2
  -6  -4  22   57.62   12.93   4
  -6  -4  22   61.71   15.53   1
   5   4 -22   86.73   17.48   2
  -5  -4  22   88.84   16.70   1
  -5  -4  22   85.64   14.93   4
  -4  -4  22    2.78    7.08   1
  -4  -4  22   -0.05    5.86   4
   4   4 -22    5.18    9.35   2
   3   4 -22  168.21   22.19   2
   2   4 -22  250.57   25.93   2
   1   4 -22  478.08   32.89   2
   0   4 -22   84.58   17.37   2
  -1   4 -22  -10.05   10.07   2
  -2   4 -22   88.40   17.65   2
  -3   4 -22   47.25   11.01   3
  -3   4 -22   59.94   16.24   2
  -4   4 -22    7.95    6.96   3
  -4   4 -22   -1.64   10.96   2
  -5   4 -22    3.44    6.63   3
  -5   4 -22    8.58   12.25   2
  -6   4 -22   -3.99    5.13   3
  -6   4 -22   11.82   11.91   2
  -7   4 -22   20.05   12.96   2
  -7   4 -22   26.34   10.29   3
  -8   4 -22   19.89    9.14   3
  -9   4 -22   46.02   13.86   3
 -10   4 -22   20.67   10.57   3
 -11   4 -22    6.24    6.07   3
  10   3 -22   -1.52    9.63   1
  10   3 -22    9.89   11.07   2
   9   3 -22   71.08   15.97   1
   8   3 -22   24.00   11.75   2
   8   3 -22   50.51   13.90   1
   7   3 -22   96.09   17.12   1
   7   3 -22   63.39   14.83   2
   6   3 -22   78.58   16.62   2
   6   3 -22   90.74   16.54   1
   5   3 -22    5.09    8.59   1
   5   3 -22    0.79    9.01   2
   4   3 -22   -9.13    7.82   2
  -3  -3  22    5.24    7.22   1
  -3  -3  22    7.17    6.29   4
   3   3 -22    6.50    9.57   2
   2   3 -22   17.69   12.56   2
   1   3 -22   17.92   12.38   2
   0   3 -22  -14.27    8.72   2
  -1   3 -22   68.60   16.15   2
  -2   3 -22   89.55   17.44   2
  -3   3 -22    1.26    5.08   3
  -3   3 -22   -1.93   10.78   2
  -4   3 -22   68.51   12.65   3
  -4   3 -22   59.49   15.69   2
  -5   3 -22    9.11   12.30   2
  -5   3 -22    3.37    5.96   3
  -6   3 -22  164.28   22.03   3
  -6   3 -22  159.49   22.91   2
  -7   3 -22   85.16   16.65   3
  -7   3 -22   89.84   19.06   2
  -8   3 -22    7.14    7.46   3
  -8   3 -22   -8.36   10.58   2
  -9   3 -22   18.06    8.09   3
 -10   3 -22    5.01    8.59   3
 -11   3 -22    1.88    4.89   3
  10   2 -22   18.93   10.48   1
   9   2 -22   15.99   10.04   1
   9   2 -22   10.41   10.01   2
   8   2 -22   16.99   10.28   2
   8   2 -22    8.96    9.95   1
   7   2 -22   47.90   13.83   2
   7   2 -22   76.70   16.28   1
   6   2 -22    4.16    8.48   1
   6   2 -22    6.26   10.39   2
   5   2 -22  393.64   30.54   2
   5   2 -22  410.62   27.84   1
   4   2 -22    7.78    7.93   1
   4   2 -22   29.48   13.06   2
   3   2 -22   15.90   10.50   2
   2   2 -22  477.99   32.16   2
   1   2 -22   38.13   13.06   2
   0   2 -22    6.04   11.40   2
  -1   2 -22    6.96   11.24   2
  -2   2 -22    2.48   11.25   2
  -3   2 -22    7.05   11.99   2
  -3   2 -22   22.46    7.22   3
  -4   2 -22   58.53   12.74   3
  -4   2 -22   63.76   17.08   2
  -5   2 -22    4.58   11.59   2
  -5   2 -22    3.92    5.85   3
  -6   2 -22   94.11   17.16   3
  -6   2 -22   44.63   15.53   2
  -7   2 -22   79.51   18.32   2
  -7   2 -22   43.90   11.96   3
  -8   2 -22   57.91   13.83   3
  -8   2 -22   43.66   15.98   2
  -9   2 -22   -4.28    6.33   3
  -9   2 -22    7.73   11.60   2
 -10   2 -22    2.91    8.08   3
 -11   2 -22    7.82    7.09   3
 -12   2 -22   -2.31    5.22   3
  10   1 -22  -11.61    9.84   1
   9   1 -22   67.81   16.75   1
   9   1 -22   50.04   15.08   2
   8   1 -22  105.68   17.47   2
   8   1 -22  100.02   18.74   1
   7   1 -22    6.34    8.89   2
   7   1 -22    2.36    8.75   1
   6   1 -22   43.70   11.96   1
   6   1 -22   29.28   11.86   2
   5   1 -22   55.49   14.92   2
   5   1 -22   11.55    9.10   1
   4   1 -22   26.34    9.27   1
   4   1 -22    7.22   10.83   2
   3   1 -22    7.79    7.81   1
   3   1 -22    6.48   11.43   2
   2   1 -22   27.91   13.01   2
   1   1 -22   37.24   13.97   2
   0   1 -22   37.17   13.25   2
  -1   1 -22   -0.93   10.09   2
  -2   1 -22   65.09   17.18   2
  -3   1 -22    1.12   11.56   2
  -4   1 -22   50.28   16.22   2
  -5   1 -22  108.46   20.31   2
  -6   1 -22   67.35   17.73   2
  -6   1 -22   71.11   14.20   3
  -7   1 -22  350.17   27.84   3
  -7   1 -22  312.79   28.14   2
  -8   1 -22   17.43   14.03   2
  -8   1 -22   52.93   14.19   3
  -9   1 -22  -13.64    9.27   2
  -9   1 -22    7.91    6.99   3
 -10   1 -22    3.85    7.43   3
 -10   1 -22    4.07   10.70   2
 -11   1 -22   -3.21    6.47   3
 -12   1 -22    0.38    5.62   3
  10   0 -22   35.88   14.89   1
   9   0 -22   -4.13    7.31   1
   8   0 -22   11.79    9.53   2
   8   0 -22   -5.23    7.05   1
   7   0 -22  121.50   18.88   2
   7   0 -22  101.26   19.00   1
   6   0 -22   10.57    8.49   1
   6   0 -22   17.30   10.44   2
   5   0 -22   14.98   11.56   2
   5   0 -22   32.78   11.32   1
   4   0 -22  145.46   20.20   2
   4   0 -22  189.03   20.23   1
   3   0 -22   19.40   11.08   2
   3   0 -22   18.75    8.42   1
   2   0 -22  103.00   18.27   2
   1   0 -22  158.40   21.59   2
   0   0 -22   50.84   15.11   2
  -1   0 -22    5.58   11.06   2
  -2   0 -22   -2.00   11.62   2
  -3   0 -22   87.34   18.80   2
  -4   0 -22    6.72   11.89   2
  -5   0 -22    1.75   10.43   2
  -6   0 -22  -11.65    8.98   2
  -7   0 -22    2.87    9.01   2
  -8   0 -22  112.44   20.02   2
  -9   0 -22    8.38   11.05   2
 -10   0 -22  114.37   20.44   3
 -10   0 -22   94.01   19.40   2
 -11   0 -22   49.30   13.74   3
 -11   0 -22    6.41   11.02   2
 -12   0 -22   -1.79    4.55   3
  10  -1 -22   30.55   15.30   1
   9  -1 -22   10.69   10.59   1
   8  -1 -22   63.73   15.56   1
   7  -1 -22   29.59   11.92   2
   7  -1 -22   23.97   11.41   1
   6  -1 -22  254.25   25.29   2
   6  -1 -22  225.49   24.25   1
   5  -1 -22    2.53    7.97   1
   5  -1 -22   35.46   12.47   2
   4  -1 -22   -8.23    6.45   1
   4  -1 -22   -1.74    9.47   2
   3  -1 -22  101.07   18.19   2
   3  -1 -22   98.77   14.92   1
   2  -1 -22  275.42   24.49   2
   1  -1 -22    8.93   11.41   2
   0  -1 -22  485.93   32.84   2
  -1  -1 -22   15.47   13.60   2
  -2  -1 -22  257.44   26.96   2
  -3  -1 -22   69.09   16.70   2
  -4  -1 -22   76.43   18.00   2
  -5  -1 -22    2.52    9.15   2
  -6  -1 -22   -1.12    8.66   2
  -7  -1 -22  219.46   26.18   2
  -8  -1 -22    7.62   10.67   2
  -9  -1 -22   14.07   10.44   2
 -10  -1 -22   18.15   11.06   2
 -11  -1 -22  -12.62    7.87   2
 -12  -1 -22    4.99   10.14   2
 -13  -1 -22   -2.71    5.43   3
   9  -2 -22    3.98    9.89   1
   8  -2 -22   17.75    9.71   1
   7  -2 -22   36.91   12.95   1
   6  -2 -22   51.52   13.37   2
   6  -2 -22   79.40   15.53   1
   5  -2 -22   11.90    8.30   1
   5  -2 -22   12.81   10.04   2
   4  -2 -22  231.77   23.83   2
   4  -2 -22  281.12   23.19   1
   3  -2 -22   27.64   12.26   2
   3  -2 -22   14.37    9.47   1
   2  -2 -22   -5.03   10.22   2
   1  -2 -22    6.61   10.56   2
   0  -2 -22  128.18   20.44   2
  -1  -2 -22   15.05   12.09   2
  -2  -2 -22   57.62   16.55   2
  -3  -2 -22   14.38   10.96   2
  -4  -2 -22   47.35   15.01   2
  -5  -2 -22    3.57    9.37   2
  -6  -2 -22    8.08    9.72   2
  -7  -2 -22    8.11    9.63   2
  -8  -2 -22  284.20   28.68   2
  -9  -2 -22    8.49   10.73   2
 -10  -2 -22   -3.26    6.94   2
 -11  -2 -22   51.92   15.31   2
 -12  -2 -22   51.08   15.17   2
 -13  -2 -22   13.16   11.31   2
   9  -3 -22   -8.17    9.27   1
   8  -3 -22   -1.89    8.95   1
   7  -3 -22   18.69    9.25   1
   6  -3 -22   35.07   11.78   1
   5  -3 -22    2.67    8.85   1
   5  -3 -22   21.33   11.13   2
   4  -3 -22   34.31   12.06   1
   4  -3 -22   31.72   12.66   2
   3  -3 -22   17.28    8.92   1
   3  -3 -22    9.74   11.01   2
   2  -3 -22   91.40   17.83   2
   1  -3 -22   -9.76    9.54   2
   0  -3 -22  602.75   38.36   2
  -1  -3 -22   13.38   11.07   2
  -2  -3 -22    4.07    9.93   2
  -3  -3 -22   93.38   18.88   2
  -4  -3 -22   43.37   14.20   2
  -5  -3 -22   43.90   14.42   2
  -6  -3 -22   13.98    9.69   2
  -7  -3 -22   53.06   14.52   2
  -8  -3 -22   35.89   12.57   2
  -9  -3 -22   -6.09    7.03   2
 -10  -3 -22    0.84    8.96   2
 -11  -3 -22    5.99    8.86   2
 -12  -3 -22    3.15    9.08   2
 -13  -3 -22   53.38   16.24   2
 -14  -3 -22    7.41   11.15   2
   8  -4 -22   41.39   13.11   1
   7  -4 -22   45.34   14.30   1
   6  -4 -22  394.08   30.69   1
   5  -4 -22   12.66    8.95   1
   4  -4 -22  123.06   18.20   1
   4  -4 -22  122.75   18.63   2
   3  -4 -22   43.70   13.97   2
   3  -4 -22   25.32   10.32   1
   2  -4 -22    2.61   10.50   2
   1  -4 -22   -5.35   10.02   2
   0  -4 -22   16.00   12.98   2
  -1  -4 -22   91.34   19.12   2
  -2  -4 -22    9.38   10.08   2
  -3  -4 -22   37.52   13.54   2
  -4  -4 -22   41.06   13.38   2
  -5  -4 -22   10.03    8.48   2
  -6  -4 -22    0.99    8.92   2
  -7  -4 -22  101.87   19.09   2
  -8  -4 -22    4.49    8.68   2
  -9  -4 -22  133.84   22.01   2
 -10  -4 -22   19.68   10.70   2
 -11  -4 -22   88.26   18.92   2
 -12  -4 -22   31.79   12.13   2
 -13  -4 -22    3.95   10.44   2
 -14  -4 -22   25.13   13.50   2
   8  -5 -22    3.14   10.44   1
   7  -5 -22   -0.80    9.49   1
   6  -5 -22   10.02    8.37   1
   5  -5 -22    5.90    7.49   1
   4  -5 -22   47.33   12.95   1
   3  -5 -22   29.71   12.08   2
   3  -5 -22   31.97   10.88   1
   2  -5 -22    1.25   10.35   2
   1  -5 -22    8.65   11.89   2
   0  -5 -22   67.08   17.42   2
  -1  -5 -22  147.13   22.25   2
  -2  -5 -22   50.30   15.13   2
  -3  -5 -22  317.11   28.26   2
  -4  -5 -22   20.48   10.89   2
  -5  -5 -22   -2.13    6.95   2
  -6  -5 -22   23.70   10.41   2
  -7  -5 -22    3.87    8.66   2
  -8  -5 -22   12.95   10.07   2
  -9  -5 -22    1.52    8.13   2
 -10  -5 -22   23.20   11.97   2
 -11  -5 -22   15.85   10.21   2
 -12  -5 -22   18.23   11.27   2
 -13  -5 -22  126.82   24.89   2
   7  -6 -22   27.86   14.01   1
   6  -6 -22    2.38    7.99   1
   4  -6 -22   62.98   15.53   1
   3  -6 -22   85.73   16.76   1
   2  -6 -22  -21.35    9.34   2
   1  -6 -22   27.44   14.18   2
   0  -6 -22   -0.80   11.06   2
  -1  -6 -22    8.39   11.02   2
  -2  -6 -22    3.56    8.92   2
  -3  -6 -22    5.59    9.35   2
  -4  -6 -22    5.60    8.48   2
  -5  -6 -22  105.76   19.67   2
  -6  -6 -22   13.33    8.90   2
  -7  -6 -22   90.48   18.26   2
  -8  -6 -22  147.38   23.51   2
  -9  -6 -22   18.63   11.09   2
 -10  -6 -22   12.36    9.75   2
 -11  -6 -22   15.85   10.89   2
 -12  -6 -22   77.70   20.49   2
 -13  -6 -22   21.67   12.45   2
   7  -7 -22   39.64   15.25   1
   6  -7 -22   22.48   13.49   1
   5  -7 -22    7.28   10.41   1
   4  -7 -22   80.14   17.92   1
   3  -7 -22  -12.24    8.77   1
   2  -7 -22   75.36   16.54   1
   1  -7 -22   55.80   16.34   2
   0  -7 -22   36.75   14.07   2
  -1  -7 -22  154.50   23.22   2
  -2  -7 -22   61.34   15.60   2
  -3  -7 -22  160.46   23.12   2
  -4  -7 -22    5.99    7.99   2
  -5  -7 -22   -2.01    7.12   2
  -6  -7 -22   -9.61    6.34   2
  -7  -7 -22    2.14    6.46   2
  -8  -7 -22   29.69   12.15   2
  -9  -7 -22   71.85   18.15   2
 -10  -7 -22   13.46   10.08   2
 -11  -7 -22   21.89   12.25   2
 -12  -7 -22   -7.82   10.03   2
   6  -8 -22   -2.27   10.81   1
   5  -8 -22   44.47   14.06   1
   4  -8 -22    2.57    8.81   1
   3  -8 -22   27.81   12.15   1
   2  -8 -22   37.22   12.84   1
   0  -8 -22   -7.60    9.82   2
  -1  -8 -22   -2.08    9.87   2
  -2  -8 -22   69.93   16.71   2
  -3  -8 -22  126.49   20.77   2
  -4  -8 -22   14.53    9.97   2
  -5  -8 -22   54.70   14.50   2
  -6  -8 -22   31.94   11.79   2
  -7  -8 -22   26.44   10.93   2
  -8  -8 -22  101.34   20.69   2
  -9  -8 -22   11.99   10.70   2
 -10  -8 -22   84.52   19.77   2
 -11  -8 -22   10.46   12.15   2
 -12  -8 -22   -6.96   10.66   2
   5  -9 -22    5.83   11.79   1
   4  -9 -22   27.90   12.13   1
   3  -9 -22   73.65   17.35   1
   2  -9 -22   28.50   11.88   1
  -1  -9 -22   65.38   16.83   2
  -2  -9 -22   38.61   14.33   2
  -3  -9 -22   55.36   14.31   2
  -4  -9 -22   68.18   16.26   2
  -5  -9 -22   17.54    9.98   2
  -6  -9 -22    2.07    8.22   2
  -7  -9 -22   28.73   12.58   2
  -8  -9 -22   -0.44    8.49   2
  -9  -9 -22    1.49    8.08   2
 -10  -9 -22  -10.15    5.00   2
 -11  -9 -22    0.18    9.01   2
   4 -10 -22   44.04   16.13   1
   3 -10 -22   10.23   10.89   1
  -2 -10 -22   14.93   11.11   2
  -3 -10 -22  205.93   25.26   2
  -4 -10 -22    7.93    8.81   2
  -5 -10 -22  114.96   20.32   2
  -6 -10 -22   28.32   12.88   2
  -7 -10 -22    2.15    8.39   2
  -8 -10 -22    3.09    8.30   2
  -9 -10 -22   -0.55    5.41   2
 -10 -10 -22   -1.71    7.36   2
   3 -11 -22   60.45   17.21   1
  -3 -11 -22   -8.22    7.66   2
  -4 -11 -22    8.95    9.78   2
  -5 -11 -22  -16.44    6.48   2
  -6 -11 -22   -3.76    6.80   2
  -7 -11 -22   13.44    8.96   2
  -8 -11 -22   -2.65    6.37   2
  -9 -11 -22   -8.05    7.26   2
  -4 -12 -22   23.13   11.21   2
  -5 -12 -22   48.21   14.81   2
  -6 -12 -22   35.79   11.82   2
  -7 -12 -22   18.05   11.05   2
  -8 -12 -22   40.29   14.60   2
  -6 -13 -22   -1.24    8.82   2
  -7 -13 -22   33.09   13.72   2
   3  12 -23   53.95   19.95   2
   2  12 -23    2.64   14.05   2
   1  12 -23   57.17   18.69   2
  -7 -11  23   61.31   16.82   1
   5  11 -23   13.44   14.10   2
   4  11 -23   95.62   21.94   2
   3  11 -23    4.49   13.70   2
   2  11 -23    8.05   13.97   2
   1  11 -23   60.49   18.68   2
   0  11 -23   10.09   13.31   2
  -8 -10  23    2.57    9.76   1
  -7 -10  23   -3.77    7.89   1
   6  10 -23   15.67   16.07   2
  -6 -10  23    9.42   10.77   1
   5  10 -23  -10.88   12.29   2
   4  10 -23   -1.59   14.15   2
   3  10 -23   39.22   16.84   2
   2  10 -23   11.28   13.13   2
   1  10 -23   49.62   16.21   2
   0  10 -23   85.21   19.62   2
  -1  10 -23    5.57   13.49   2
  -6  10 -23    2.11    9.92   3
  -8  -9  23   15.00   10.80   1
   7   9 -23    3.90   14.03   2
  -7  -9  23   -8.01    8.09   1
  -6  -9  23   75.29   17.14   1
   6   9 -23   43.33   16.93   2
   5   9 -23   16.22   13.93   2
   4   9 -23   67.43   17.76   2
   3   9 -23    5.26   13.03   2
   2   9 -23  -13.50   11.03   2
   1   9 -23   -2.15   11.78   2
   0   9 -23    4.48   12.27   2
  -1   9 -23    9.47   13.38   2
  -2   9 -23  -14.97   10.41   2
  -5   9 -23   -7.28    6.71   3
  -6   9 -23  127.99   20.77   3
  -7   9 -23   21.99   11.47   3
  -9  -8  23   -1.61    8.29   1
  -8  -8  23    0.99    7.48   1
   8   8 -23   -1.39    5.01   2
  -7  -8  23  -10.32    7.54   1
   7   8 -23   -2.61    4.82   2
   6   8 -23   13.10   13.85   2
  -6  -8  23   23.02    9.85   1
   5   8 -23   -3.48    9.83   2
   4   8 -23    4.32   12.38   2
   3   8 -23    5.97   11.54   2
   2   8 -23   61.97   17.16   2
   1   8 -23   19.08   12.75   2
   0   8 -23   53.85   15.53   2
  -1   8 -23   53.40   16.37   2
  -2   8 -23  120.09   21.45   2
  -3   8 -23   26.31   14.79   2
  -5   8 -23   31.88   11.84   3
  -6   8 -23   -1.78    6.58   3
  -7   8 -23   63.43   15.69   3
  -8   8 -23   11.49   10.66   3
   9   7 -23    7.18    7.34   2
  -9  -7  23   28.13   12.08   1
  -9  -7  23   33.82   10.93   4
  -8  -7  23   50.94   13.20   4
  -8  -7  23   53.30   15.34   1
   7   7 -23   -2.71    7.04   2
  -7  -7  23    1.65    7.00   4
  -7  -7  23   14.21    9.40   1
   6   7 -23   37.46   14.28   2
  -6  -7  23  105.89   19.73   1
  -5  -7  23   10.29    8.78   1
   5   7 -23   35.19   15.34   2
   4   7 -23    7.50   11.86   2
   3   7 -23   71.34   17.48   2
   2   7 -23   10.30   11.64   2
   1   7 -23    8.47   11.28   2
   0   7 -23   11.12   12.82   2
  -1   7 -23    9.67   13.10   2
  -2   7 -23    4.81   11.81   2
  -3   7 -23    2.79   12.04   2
  -4   7 -23   58.40   17.99   2
  -5   7 -23   -1.04    6.52   3
  -6   7 -23   21.23   10.07   3
  -7   7 -23   89.28   17.97   3
  -8   7 -23   11.26    7.34   3
  -9   7 -23   47.74   13.48   3
  -9  -6  23   -6.99    5.31   4
   9   6 -23    7.98    6.39   2
  -9  -6  23   -2.29    7.29   1
  -8  -6  23   22.09    9.29   4
   8   6 -23    5.26    5.24   2
  -8  -6  23   12.08    9.47   1
  -7  -6  23   29.99    9.67   4
   7   6 -23   19.27   12.29   2
  -7  -6  23   23.60   11.08   1
  -6  -6  23   -3.15    6.19   4
   6   6 -23    5.88   10.88   2
  -6  -6  23    0.92    7.59   1
   5   6 -23   32.86   13.52   2
  -5  -6  23   22.61    8.83   4
  -5  -6  23   -2.74    7.70   1
   4   6 -23   18.41   12.41   2
   3   6 -23    1.58   10.31   2
   2   6 -23  208.08   26.05   2
   1   6 -23   31.28   14.47   2
   0   6 -23   71.54   17.53   2
  -1   6 -23   73.97   17.92   2
  -2   6 -23   18.61   13.76   2
  -3   6 -23   73.10   17.64   2
  -4   6 -23    3.19   11.95   2
  -5   6 -23   31.46   10.48   3
  -5   6 -23   30.50   13.94   2
  -6   6 -23  -11.00    5.84   3
  -7   6 -23   66.46   15.66   3
  -8   6 -23    9.39   10.12   3
  -9   6 -23    3.51    7.82   3
 -10   6 -23   29.55   12.79   3
 -10  -5  23   64.22   15.29   4
 -10  -5  23   70.98   17.22   1
  10   5 -23   48.33   16.41   2
   9   5 -23   13.82   11.51   2
  -9  -5  23   10.64    8.09   1
  -9  -5  23    6.12    5.62   4
  -8  -5  23   99.33   17.74   4
   8   5 -23   86.87   18.46   2
  -8  -5  23  128.46   21.12   1
  -7  -5  23   23.62   10.42   1
   7   5 -23   18.51   12.44   2
  -7  -5  23   11.90    7.44   4
   6   5 -23   71.09   16.62   2
  -6  -5  23   44.20   12.63   1
  -6  -5  23   35.04   11.36   4
  -5  -5  23   85.67   16.46   1
   5   5 -23   84.26   17.98   2
  -5  -5  23   90.71   15.79   4
   4   5 -23   -5.20    8.36   2
   3   5 -23  264.06   28.43   2
   2   5 -23   49.13   15.63   2
   1   5 -23   -1.91   11.42   2
   0   5 -23   17.46   12.76   2
  -1   5 -23   48.03   15.57   2
  -2   5 -23  122.95   20.71   2
  -3   5 -23    2.76   11.97   2
  -4   5 -23    7.59   11.65   2
  -4   5 -23   -4.74    6.29   3
  -5   5 -23  186.64   22.54   3
  -5   5 -23  125.19   21.32   2
  -6   5 -23    2.19   11.98   2
  -6   5 -23   21.12    8.99   3
  -7   5 -23  116.08   20.15   3
  -8   5 -23   13.52    8.31   3
  -9   5 -23    7.03    8.94   3
 -10   5 -23   -3.31    5.67   3
  10   4 -23   31.91   14.55   1
  10   4 -23   22.28   13.58   2
   9   4 -23   16.64    9.48   2
   8   4 -23   19.32   11.63   2
  -7  -4  23   20.10    8.00   4
  -7  -4  23   19.52   10.00   1
   7   4 -23   24.78   12.35   2
   6   4 -23   53.34   15.08   2
  -6  -4  23   45.05   13.10   1
  -6  -4  23   38.31   11.40   4
  -5  -4  23    6.68    8.24   1
  -5  -4  23   12.63    7.00   4
   5   4 -23   22.24   10.90   2
   4   4 -23  115.11   19.96   2
   3   4 -23  139.46   21.48   2
   2   4 -23  163.07   23.13   2
   1   4 -23  316.10   28.51   2
   0   4 -23   32.85   13.52   2
  -1   4 -23   -6.58    9.77   2
  -2   4 -23  -12.70   10.63   2
  -3   4 -23  -10.75    9.96   2
  -4   4 -23   14.83    8.77   3
  -4   4 -23   28.93   14.89   2
  -5   4 -23   42.26   15.73   2
  -5   4 -23    7.88    8.00   3
  -6   4 -23   35.06   10.64   3
  -6   4 -23   16.14   12.86   2
  -7   4 -23   13.56   12.49   2
  -7   4 -23   11.70    8.12   3
  -8   4 -23   38.28   12.33   3
  -9   4 -23   31.04   11.71   3
 -10   4 -23    6.59    7.90   3
 -11   4 -23   -8.14    6.07   3
  10   3 -23  106.92   19.58   2
  10   3 -23  108.87   20.94   1
   9   3 -23   57.34   15.11   1
   9   3 -23   83.33   17.86   2
   8   3 -23  100.60   17.78   1
   8   3 -23   99.03   18.74   2
   7   3 -23   72.46   17.06   2
   7   3 -23   82.52   16.05   1
   6   3 -23    6.47    9.00   1
   6   3 -23   12.42   10.02   2
   5   3 -23  340.28   25.27   1
   5   3 -23  262.89   27.19   2
   4   3 -23   31.77   12.95   2
   3   3 -23    2.40   10.49   2
   2   3 -23   29.66   13.35   2
   1   3 -23   24.06   13.22   2
   0   3 -23   23.16   12.58   2
  -1   3 -23    9.91   12.60   2
  -2   3 -23  132.71   21.14   2
  -3   3 -23   26.05   13.52   2
  -4   3 -23   -3.84   10.67   2
  -4   3 -23   28.24    9.19   3
  -5   3 -23  179.83   23.52   2
  -5   3 -23  213.30   23.06   3
  -6   3 -23   60.25   13.56   3
  -6   3 -23   50.69   16.44   2
  -7   3 -23    8.67   14.34   2
  -7   3 -23   18.46    8.70   3
  -8   3 -23   43.48   13.05   3
  -8   3 -23   20.13   14.22   2
  -9   3 -23    1.44    6.47   3
 -10   3 -23   13.52    9.78   3
 -11   3 -23   -5.47    5.62   3
  10   2 -23    4.65   11.52   1
   9   2 -23    2.61    7.81   1
   9   2 -23    3.31    9.29   2
   8   2 -23   19.40   10.66   1
   8   2 -23    7.29    9.34   2
   7   2 -23   12.59    9.79   2
   7   2 -23    3.70    8.51   1
   6   2 -23   61.09   14.01   1
   6   2 -23   35.93   13.53   2
   5   2 -23   12.76    8.66   1
   5   2 -23   -1.92   10.57   2
   4   2 -23   58.59   13.16   1
   4   2 -23   24.01   12.13   2
   3   2 -23  209.67   24.02   2
   2   2 -23   52.59   14.81   2
   1   2 -23  288.51   25.81   2
   0   2 -23    8.58   11.46   2
  -1   2 -23    5.69   10.94   2
  -2   2 -23   27.15   13.59   2
  -3   2 -23    3.27   11.53   2
  -4   2 -23   45.52   16.43   2
  -4   2 -23   42.73   10.75   3
  -5   2 -23   18.32    7.28   3
  -5   2 -23    1.73   12.99   2
  -6   2 -23    5.68    7.92   3
  -6   2 -23   -4.37   10.32   2
  -7   2 -23   21.04    9.48   3
  -7   2 -23    9.56   13.38   2
  -8   2 -23   11.30   12.20   2
  -8   2 -23    9.23    7.75   3
  -9   2 -23   26.31   13.69   2
  -9   2 -23   40.28   12.83   3
 -10   2 -23   14.04    8.95   3
 -11   2 -23    2.34    5.28   3
  10   1 -23   12.70   11.83   1
   9   1 -23   36.74   12.42   1
   8   1 -23    8.74    9.12   1
   8   1 -23   13.87   10.01   2
   7   1 -23  107.04   18.18   1
   7   1 -23  108.95   18.77   2
   6   1 -23   30.70   11.64   1
   6   1 -23   42.20   13.12   2
   5   1 -23   55.93   13.61   1
   5   1 -23   39.61   13.77   2
   4   1 -23   -2.47    9.67   2
   4   1 -23    7.27    8.16   1
   3   1 -23   34.27   13.91   2
   2   1 -23   94.24   17.82   2
   1   1 -23   18.28   11.96   2
   0   1 -23   20.08   12.10   2
  -1   1 -23   84.26   17.84   2
  -2   1 -23   15.08   11.61   2
  -3   1 -23   23.68   13.60   2
  -4   1 -23   28.73   15.05   2
  -5   1 -23   80.50   14.68   3
  -5   1 -23   59.04   17.16   2
  -6   1 -23  114.38   20.93   2
  -6   1 -23  149.76   20.83   3
  -7   1 -23   60.95   14.48   3
  -7   1 -23   62.50   16.91   2
  -8   1 -23   48.00   12.88   3
  -8   1 -23   54.01   16.93   2
  -9   1 -23   -0.11    5.68   3
  -9   1 -23  -11.78    9.50   2
 -10   1 -23  -14.58   10.02   2
 -10   1 -23    4.79    7.25   3
 -11   1 -23    0.85    4.80   3
 -12   1 -23   10.56    6.68   3
   9   0 -23    7.57   10.16   1
   8   0 -23   13.98   10.48   1
   8   0 -23   21.83   10.65   2
   7   0 -23   27.40   10.30   2
   7   0 -23   12.01    9.87   1
   6   0 -23   39.56   12.72   1
   6   0 -23   42.65   13.36   2
   5   0 -23   31.86   11.38   1
   5   0 -23   38.39   12.77   2
   4   0 -23   -1.73    7.15   1
   4   0 -23   11.75   10.84   2
   3   0 -23  118.60   19.94   2
   2   0 -23   14.91   12.01   2
   1   0 -23  631.53   38.53   2
   0   0 -23   56.95   15.83   2
  -1   0 -23    6.99   10.30   2
  -2   0 -23   18.29   13.80   2
  -3   0 -23   56.23   16.57   2
  -4   0 -23    7.32   11.60   2
  -5   0 -23   21.45   12.15   2
  -6   0 -23    5.81   12.11   2
  -7   0 -23   86.45   19.63   2
  -8   0 -23   13.47   12.57   2
  -9   0 -23   85.22   19.14   2
 -10   0 -23    5.71    6.37   3
 -10   0 -23   14.35   12.27   2
 -11   0 -23   -5.60    9.75   2
 -11   0 -23    7.60    6.76   3
 -12   0 -23   14.54    6.53   3
   9  -1 -23   33.24   14.30   1
   8  -1 -23   22.00   11.40   1
   7  -1 -23  193.78   24.64   1
   7  -1 -23  193.40   23.28   2
   6  -1 -23   34.06   12.91   2
   6  -1 -23   12.99   10.34   1
   5  -1 -23   39.35   11.21   1
   5  -1 -23   29.40   13.07   2
   4  -1 -23    9.19   11.67   2
   4  -1 -23    4.48    7.46   1
   3  -1 -23   98.01   18.11   2
   2  -1 -23   59.02   16.10   2
   1  -1 -23  117.61   20.20   2
   0  -1 -23    1.60    9.98   2
  -1  -1 -23  227.46   26.15   2
  -2  -1 -23    1.39   11.39   2
  -3  -1 -23  328.59   31.63   2
  -4  -1 -23   -8.02   10.21   2
  -5  -1 -23   11.50   11.59   2
  -6  -1 -23  120.88   21.47   2
  -7  -1 -23   42.39   14.81   2
  -8  -1 -23   50.31   15.35   2
  -9  -1 -23   88.22   18.76   2
 -10  -1 -23    5.28   11.12   2
 -11  -1 -23   30.39   13.72   2
 -12  -1 -23   10.92    5.75   3
 -12  -1 -23    6.21   10.78   2
   9  -2 -23   25.95   13.32   1
   8  -2 -23   35.45   12.05   1
   7  -2 -23   13.77    9.56   1
   6  -2 -23   26.56   10.36   1
   6  -2 -23   20.81   10.64   2
   5  -2 -23  143.47   20.40   1
   5  -2 -23  166.25   21.77   2
   4  -2 -23   -6.07    9.41   2
   4  -2 -23   12.49    9.20   1
   3  -2 -23    5.10   11.38   2
   2  -2 -23   52.64   15.78   2
   1  -2 -23    1.75   10.98   2
   0  -2 -23   66.60   17.27   2
  -1  -2 -23    0.83   11.72   2
  -2  -2 -23   79.66   18.94   2
  -3  -2 -23  431.33   32.64   2
  -4  -2 -23   30.52   13.69   2
  -5  -2 -23    4.52   11.62   2
  -6  -2 -23   49.91   15.56   2
  -7  -2 -23   26.69   12.42   2
  -8  -2 -23   29.42   12.87   2
  -9  -2 -23   15.93   11.25   2
 -10  -2 -23  102.77   19.84   2
 -11  -2 -23   81.08   18.93   2
 -12  -2 -23   45.96   15.25   2
 -13  -2 -23    8.46   11.69   2
   8  -3 -23   -0.99    8.44   1
   7  -3 -23   41.25   12.98   1
   6  -3 -23   17.66   10.60   1
   5  -3 -23   13.60   10.52   2
   5  -3 -23    1.24    8.02   1
   4  -3 -23   48.76   14.47   2
   4  -3 -23   37.90   11.06   1
   3  -3 -23   38.10   14.33   2
   2  -3 -23   -1.88   10.77   2
   1  -3 -23  129.02   20.79   2
   0  -3 -23   76.34   17.42   2
  -1  -3 -23  260.01   28.38   2
  -2  -3 -23   49.70   15.40   2
  -3  -3 -23    9.51   11.19   2
  -4  -3 -23  226.52   26.76   2
  -5  -3 -23  218.87   27.24   2
  -6  -3 -23  138.14   22.25   2
  -7  -3 -23  174.54   24.83   2
  -8  -3 -23   60.01   15.75   2
  -9  -3 -23   -0.54    7.77   2
 -10  -3 -23   46.22   14.21   2
 -11  -3 -23    9.62    8.92   2
 -12  -3 -23   64.90   16.25   2
 -13  -3 -23    3.44   10.99   2
   8  -4 -23    3.25   10.78   1
   7  -4 -23  112.22   20.35   1
   6  -4 -23   28.80   11.29   1
   5  -4 -23  164.92   22.55   1
   4  -4 -23   71.34   15.78   1
   4  -4 -23   71.30   15.61   2
   3  -4 -23    7.10   10.62   2
   2  -4 -23   74.45   17.15   2
   1  -4 -23    7.12   11.64   2
   0  -4 -23   58.64   16.14   2
  -1  -4 -23   -3.97    9.32   2
  -2  -4 -23  120.53   21.28   2
  -3  -4 -23   16.15   11.74   2
  -4  -4 -23   21.74   10.64   2
  -5  -4 -23   10.26   10.07   2
  -6  -4 -23   33.10   13.03   2
  -7  -4 -23   10.70    9.95   2
  -8  -4 -23  136.47   22.20   2
  -9  -4 -23    8.62    9.77   2
 -10  -4 -23  107.55   20.38   2
 -11  -4 -23   -9.80    6.28   2
 -12  -4 -23    0.70    8.21   2
 -13  -4 -23  -17.46    8.39   2
   7  -5 -23   59.86   16.30   1
   6  -5 -23   27.14   10.68   1
   5  -5 -23    3.13    9.20   1
   4  -5 -23   11.30    8.73   1
   3  -5 -23    4.54   11.04   2
   2  -5 -23  -19.54    8.82   2
   1  -5 -23   48.93   15.85   2
   0  -5 -23  125.07   22.04   2
  -1  -5 -23   24.82   13.64   2
  -2  -5 -23  242.46   27.92   2
  -3  -5 -23    5.24   10.54   2
  -4  -5 -23   74.59   16.96   2
  -5  -5 -23   23.83   10.95   2
  -6  -5 -23   -4.37    8.29   2
  -7  -5 -23   15.44   10.21   2
  -8  -5 -23   20.62   10.93   2
  -9  -5 -23   13.28    9.63   2
 -10  -5 -23    9.06   10.12   2
 -11  -5 -23    7.51    9.32   2
 -12  -5 -23   33.55   14.27   2
 -13  -5 -23   14.55   11.64   2
   7  -6 -23  116.71   21.88   1
   6  -6 -23    9.15    9.84   1
   5  -6 -23   75.58   16.41   1
   4  -6 -23   44.53   13.06   1
   2  -6 -23   86.87   18.20   2
   1  -6 -23   24.01   13.84   2
   0  -6 -23    0.84   10.95   2
  -1  -6 -23   -2.84    9.55   2
  -2  -6 -23   21.16   13.17   2
  -3  -6 -23  -14.72    7.85   2
  -4  -6 -23    6.25   10.16   2
  -5  -6 -23   -3.95    6.44   2
  -6  -6 -23   39.69   13.48   2
  -7  -6 -23   18.27   10.63   2
  -8  -6 -23   26.63   12.36   2
  -9  -6 -23   74.94   18.05   2
 -10  -6 -23   12.52   11.17   2
 -11  -6 -23   84.60   20.86   2
 -12  -6 -23   -9.80    8.25   2
   6  -7 -23    7.90   10.07   1
   5  -7 -23    1.88    9.80   1
   4  -7 -23    7.70   10.12   1
   1  -7 -23   21.69   13.18   2
   0  -7 -23  158.36   24.12   2
  -1  -7 -23   12.07   12.38   2
  -2  -7 -23  164.69   24.35   2
  -3  -7 -23   12.40   11.08   2
  -4  -7 -23   17.11   10.61   2
  -5  -7 -23   65.67   15.20   2
  -6  -7 -23   17.35   10.57   2
  -7  -7 -23   -6.45    6.89   2
  -8  -7 -23   -6.59    6.66   2
  -9  -7 -23   50.24   15.92   2
 -10  -7 -23   10.69   10.49   2
 -11  -7 -23    0.22    9.74   2
 -12  -7 -23   -4.97   10.33   2
   5  -8 -23   22.59   12.87   1
   4  -8 -23   24.91   12.81   1
   0  -8 -23   40.45   15.18   2
  -1  -8 -23   -0.38   10.60   2
  -2  -8 -23   99.62   19.81   2
  -3  -8 -23   42.45   14.13   2
  -4  -8 -23   13.68    9.69   2
  -5  -8 -23   19.11   10.89   2
  -6  -8 -23    5.89    8.62   2
  -7  -8 -23   57.85   15.63   2
  -8  -8 -23   12.58   10.02   2
  -9  -8 -23    8.63    9.23   2
 -10  -8 -23    6.08   10.17   2
 -11  -8 -23   93.70   22.91   2
   5  -9 -23   35.60   13.88   1
   4  -9 -23    5.97   10.37   1
  -1  -9 -23   27.78   14.73   2
  -2  -9 -23   97.68   19.22   2
  -3  -9 -23   43.22   14.24   2
  -4  -9 -23   10.97    9.85   2
  -5  -9 -23    7.31    9.17   2
  -6  -9 -23   78.98   17.46   2
  -7  -9 -23    1.73    8.83   2
  -8  -9 -23   -2.94    8.57   2
  -9  -9 -23    2.73    5.65   2
 -10  -9 -23  -10.37    5.83   2
  -2 -10 -23    7.24   12.16   2
  -3 -10 -23   14.59   10.60   2
  -4 -10 -23   99.35   19.32   2
  -5 -10 -23    7.12    9.25   2
  -6 -10 -23    4.66    8.83   2
  -7 -10 -23   19.31   10.48   2
  -8 -10 -23   -1.73    5.61   2
  -9 -10 -23   -4.82    6.40   2
  -4 -11 -23   -7.81    8.19   2
  -5 -11 -23   32.74   13.75   2
  -6 -11 -23   -7.74    8.37   2
  -7 -11 -23    7.68    8.62   2
  -8 -11 -23   -5.01    6.98   2
  -5 -12 -23   27.66   10.58   2
  -6 -12 -23   -2.60    9.16   2
  -7 -12 -23   63.99   17.72   2
   2  12 -24   60.87   20.31   2
   1  12 -24   22.10   16.23   2
   3  11 -24   75.55   21.68   2
   2  11 -24    9.27   14.41   2
   1  11 -24   15.38   14.91   2
   0  11 -24   91.20   20.62   2
  -7 -10  24   32.35   12.89   1
   5  10 -24    9.06   13.98   2
   4  10 -24    0.53   13.71   2
   3  10 -24    4.34   14.49   2
   2  10 -24   73.75   19.91   2
   1  10 -24   89.28   20.00   2
   0  10 -24    5.70   12.93   2
  -1  10 -24   87.12   20.42   2
  -8  -9  24   37.19   13.15   1
  -7  -9  24    0.85    8.74   1
   6   9 -24   -6.11   13.53   2
   5   9 -24   37.17   17.83   2
   4   9 -24   29.89   15.67   2
   3   9 -24   67.12   17.83   2
   2   9 -24   12.16   12.62   2
   1   9 -24   13.20   13.29   2
   0   9 -24    6.40   12.72   2
  -1   9 -24    4.48   13.15   2
  -2   9 -24   26.33   14.86   2
  -6   9 -24   17.21    8.42   3
  -7   9 -24    9.15    9.46   3
  -8  -8  24    2.48    9.42   1
   7   8 -24    1.71    7.05   2
  -7  -8  24   17.70   11.84   1
   6   8 -24   31.08   16.02   2
   5   8 -24   22.94   13.62   2
   4   8 -24   71.42   18.23   2
   3   8 -24   51.69   16.48   2
   2   8 -24    5.79   12.89   2
   1   8 -24   52.34   17.26   2
   0   8 -24   20.80   13.22   2
  -1   8 -24  102.19   20.63   2
  -2   8 -24   34.28   15.08   2
  -3   8 -24   21.28   14.05   2
  -6   8 -24   44.20   13.26   3
  -7   8 -24    2.11    6.97   3
  -8   8 -24   11.68   10.89   3
  -9  -7  24    6.94    9.01   4
  -9  -7  24    9.01   10.53   1
  -8  -7  24   -5.75    6.31   1
  -8  -7  24   -7.43    5.45   4
   8   7 -24    3.31    5.73   2
  -7  -7  24   35.91   12.56   1
   7   7 -24    3.79    6.34   2
  -6  -7  24   56.96   14.88   1
   5   7 -24   37.32   15.69   2
   4   7 -24   43.26   15.82   2
   3   7 -24   15.89   12.44   2
   2   7 -24   41.17   16.47   2
   1   7 -24    6.95   12.01   2
   0   7 -24   23.97   14.09   2
  -1   7 -24   20.12   13.46   2
  -2   7 -24   17.02   13.27   2
  -3   7 -24   62.36   16.90   2
  -4   7 -24   -3.10   11.79   2
  -6   7 -24  103.57   19.22   3
  -7   7 -24   10.50    9.97   3
  -8   7 -24  101.43   19.22   3
  -9  -6  24   -1.86    7.43   4
  -9  -6  24   -5.60    8.17   1
  -8  -6  24    0.61    8.47   1
  -8  -6  24    3.12    7.18   4
   8   6 -24   11.42    6.39   2
  -7  -6  24    8.39    9.35   1
   7   6 -24    9.07    4.84   2
  -7  -6  24   16.54    8.23   4
  -6  -6  24   -3.37    7.62   1
   6   6 -24    2.82    9.52   2
  -6  -6  24    4.76    6.16   4
   5   6 -24   64.00   17.23   2
   4   6 -24   35.19   13.91   2
   3   6 -24    7.73   12.39   2
   2   6 -24    6.08   12.26   2
   1   6 -24  183.29   24.78   2
   0   6 -24   72.42   18.67   2
  -1   6 -24   40.22   15.72   2
  -2   6 -24   78.25   19.17   2
  -3   6 -24   22.61   14.13   2
  -4   6 -24   73.75   17.63   2
  -5   6 -24   -2.75    5.87   3
  -5   6 -24   23.54   13.80   2
  -6   6 -24   15.03   10.37   3
  -7   6 -24   11.44    8.85   3
  -8   6 -24   15.98    9.65   3
  -9   6 -24   -1.89    8.73   3
  -9  -5  24   21.20   10.95   1
   9   5 -24    9.53   12.59   2
  -9  -5  24   -1.88    6.50   4
  -8  -5  24   34.16   13.19   1
  -8  -5  24   -4.52    5.26   4
   8   5 -24    4.92    5.55   2
  -7  -5  24   59.44   13.42   4
  -7  -5  24   78.45   16.96   1
  -6  -5  24   72.57   15.36   4
  -6  -5  24   68.28   15.98   1
   6   5 -24   51.96   16.28   2
   5   5 -24   10.95   11.30   2
   4   5 -24   97.09   18.99   2
   3   5 -24   23.24   13.46   2
   2   5 -24    5.65   12.11   2
   1   5 -24    8.99   12.64   2
   0   5 -24   31.82   14.63   2
  -1   5 -24    7.15   12.30   2
  -2   5 -24    4.64   11.53   2
  -3   5 -24   10.10   12.68   2
  -4   5 -24   87.21   18.74   2
  -5   5 -24   18.22   13.49   2
  -5   5 -24    2.62    7.72   3
  -6   5 -24  229.14   26.30   2
  -6   5 -24  211.86   25.81   3
  -7   5 -24  -17.96    5.67   3
  -8   5 -24   34.84   12.42   3
  -9   5 -24   56.50   14.79   3
 -10   5 -24   13.49   11.10   3
   9   4 -24    7.73   12.38   2
   8   4 -24   19.32   11.40   2
  -8  -4  24   12.69    7.80   4
  -8  -4  24    3.10    8.14   1
  -7  -4  24    2.58    6.41   4
  -7  -4  24    5.93    8.59   1
   7   4 -24  -10.55    8.31   2
  -6  -4  24   18.97   10.00   1
  -6  -4  24   10.01    6.40   4
   6   4 -24   12.67   10.43   2
   5   4 -24   60.30   16.02   2
   4   4 -24    1.91   10.28   2
   3   4 -24   41.13   15.12   2
   2   4 -24   55.44   17.27   2
   1   4 -24   45.15   15.78   2
   0   4 -24  101.00   20.47   2
  -1   4 -24   62.13   16.64   2
  -2   4 -24  110.94   20.61   2
  -3   4 -24   25.49   14.56   2
  -4   4 -24    6.14   12.24   2
  -5   4 -24   42.33   16.24   2
  -5   4 -24   59.85   14.22   3
  -6   4 -24   24.86    9.57   3
  -6   4 -24   12.23   12.55   2
  -7   4 -24   -2.40   11.90   2
  -7   4 -24    2.27    5.91   3
  -8   4 -24    7.61    8.51   3
  -9   4 -24    1.83    8.65   3
 -10   4 -24   32.58   13.78   3
  10   3 -24   35.17   14.78   2
   9   3 -24   71.62   16.58   2
   9   3 -24   61.74   16.16   1
   8   3 -24   52.15   14.96   2
   8   3 -24   29.10   12.63   1
   7   3 -24   85.40   16.07   1
   7   3 -24   73.21   17.13   2
   6   3 -24   40.26   12.32   1
   6   3 -24   38.35   13.13   2
   5   3 -24    8.52   10.41   2
   4   3 -24   38.09   14.11   2
   3   3 -24  117.76   20.69   2
   2   3 -24   -1.20    9.76   2
   1   3 -24   35.55   15.27   2
   0   3 -24    1.36   12.20   2
  -1   3 -24   -3.64   11.65   2
  -2   3 -24   13.39   13.48   2
  -3   3 -24  -12.54   10.73   2
  -4   3 -24   81.83   18.52   2
  -5   3 -24    1.82   11.94   2
  -5   3 -24    9.70    6.97   3
  -6   3 -24   15.26    8.86   3
  -6   3 -24   16.62   12.80   2
  -7   3 -24  104.65   18.64   3
  -7   3 -24  164.30   24.75   2
  -8   3 -24   10.45    8.01   3
  -8   3 -24   12.05   15.55   2
  -9   3 -24   13.63   11.42   3
 -10   3 -24    4.73    7.87   3
 -11   3 -24    1.36    7.36   3
   9   2 -24    5.20    9.33   1
   9   2 -24   22.83   10.80   2
   8   2 -24   15.58   10.32   1
   8   2 -24    7.04    9.74   2
   7   2 -24    3.22    7.92   1
   7   2 -24   14.08   10.50   2
   6   2 -24   -4.65    9.27   2
   6   2 -24    2.17    8.58   1
   5   2 -24   39.07   12.45   1
   5   2 -24   34.41   13.37   2
   4   2 -24   60.14   16.47   2
   3   2 -24   42.44   14.03   2
   2   2 -24  462.51   33.55   2
   1   2 -24   25.55   13.29   2
   0   2 -24  159.58   23.27   2
  -1   2 -24   96.92   19.74   2
  -2   2 -24   11.24   12.64   2
  -3   2 -24   11.50   12.82   2
  -4   2 -24   -4.45   10.34   2
  -5   2 -24    5.05    6.70   3
  -5   2 -24   -0.48   11.43   2
  -6   2 -24   16.17   12.44   2
  -6   2 -24   25.16    9.01   3
  -7   2 -24   15.50   14.49   2
  -7   2 -24   62.67   14.99   3
  -8   2 -24    7.90    8.16   3
  -8   2 -24   24.43   14.61   2
  -9   2 -24   28.77   10.58   3
  -9   2 -24   15.58   14.53   2
 -10   2 -24   46.47   13.92   3
 -11   2 -24   -7.93    5.35   3
   9   1 -24   29.89   12.56   1
   8   1 -24   64.46   15.42   1
   8   1 -24   47.15   13.97   2
   7   1 -24    3.50    9.96   2
   7   1 -24   12.72   10.47   1
   6   1 -24   70.94   16.04   2
   6   1 -24   75.81   16.58   1
   5   1 -24   23.24   10.61   1
   5   1 -24   11.96   10.74   2
   4   1 -24   19.63   13.46   2
   3   1 -24   47.93   14.80   2
   2   1 -24   14.08   11.30   2
   1   1 -24   27.88   14.09   2
   0   1 -24   14.66   12.23   2
  -1   1 -24    2.83   11.28   2
  -2   1 -24   35.54   14.91   2
  -3   1 -24   24.15   14.67   2
  -4   1 -24   42.88   17.21   2
  -4   1 -24   33.17    9.72   3
  -5   1 -24   65.85   17.75   2
  -5   1 -24   73.24   14.50   3
  -6   1 -24   44.93   11.47   3
  -6   1 -24   36.10   15.91   2
  -7   1 -24   30.10   14.67   2
  -7   1 -24   86.74   16.22   3
  -8   1 -24    7.56   12.46   2
  -8   1 -24   23.98    9.33   3
  -9   1 -24   -5.35    5.31   3
  -9   1 -24    1.86   11.72   2
 -10   1 -24   39.22   16.27   2
 -10   1 -24   40.45   12.84   3
 -11   1 -24    1.33    6.16   3
   9   0 -24   32.70   14.12   1
   8   0 -24   -0.85    9.47   1
   7   0 -24    9.74    9.55   2
   7   0 -24   10.60    8.97   1
   6   0 -24   15.11   11.12   2
   6   0 -24   32.97   11.65   1
   5   0 -24   79.51   15.12   1
   5   0 -24   60.01   16.16   2
   4   0 -24  125.06   20.63   2
   3   0 -24   56.25   16.03   2
   2   0 -24  296.18   28.49   2
   1   0 -24   92.25   19.39   2
   0   0 -24   89.47   18.53   2
  -1   0 -24    9.34   11.76   2
  -2   0 -24   57.49   16.82   2
  -3   0 -24   -5.89   10.71   2
  -4   0 -24   -3.44   11.49   2
  -5   0 -24   -2.26   10.57   2
  -6   0 -24   -8.70   10.87   2
  -7   0 -24   -0.27   10.92   2
  -8   0 -24   43.60   16.50   2
  -9   0 -24  -15.64    9.16   2
 -10   0 -24   -9.30   10.31   2
 -10   0 -24   17.09    7.87   3
 -11   0 -24   46.06   16.71   2
 -12   0 -24    7.93    6.61   3
   9  -1 -24    8.71   11.92   1
   8  -1 -24   98.52   18.74   1
   7  -1 -24   62.03   14.71   1
   6  -1 -24   94.85   17.13   1
   6  -1 -24   81.65   16.63   2
   5  -1 -24   44.34   11.65   1
   5  -1 -24   32.69   13.84   2
   4  -1 -24   -7.32    9.78   2
   3  -1 -24   -2.36   10.60   2
   2  -1 -24    1.27   10.62   2
   1  -1 -24    9.35   11.95   2
   0  -1 -24    1.59   11.85   2
  -1  -1 -24   65.47   16.70   2
  -2  -1 -24  145.01   23.12   2
  -3  -1 -24   12.04   12.50   2
  -4  -1 -24  -18.74    9.72   2
  -5  -1 -24   75.28   18.77   2
  -6  -1 -24    9.89   13.21   2
  -7  -1 -24  215.28   27.48   2
  -8  -1 -24  122.83   22.49   2
  -9  -1 -24    1.80   10.68   2
 -10  -1 -24   -1.49   10.57   2
 -11  -1 -24   -8.04    9.59   2
 -12  -1 -24   10.76   12.79   2
 -12  -1 -24   14.55    6.48   3
   8  -2 -24   -6.36    8.57   1
   7  -2 -24   35.35   12.38   1
   6  -2 -24   53.71   13.84   1
   6  -2 -24   34.24   12.65   2
   5  -2 -24   10.30   10.62   2
   5  -2 -24   13.01    9.36   1
   4  -2 -24  128.16   20.98   2
   3  -2 -24   82.06   18.15   2
   2  -2 -24   12.18   11.44   2
   1  -2 -24  168.38   23.35   2
   0  -2 -24   27.67   14.05   2
  -1  -2 -24   37.61   15.73   2
  -2  -2 -24   16.60   13.42   2
  -3  -2 -24   88.56   19.01   2
  -4  -2 -24   -0.76   10.56   2
  -5  -2 -24    0.97   10.30   2
  -6  -2 -24   34.58   14.54   2
  -7  -2 -24  -17.85    8.60   2
  -8  -2 -24   24.60   12.94   2
  -9  -2 -24   43.80   15.21   2
 -10  -2 -24   14.55   10.82   2
 -11  -2 -24   48.28   16.44   2
 -12  -2 -24   16.03   11.86   2
 -13  -2 -24   20.91   14.46   2
   8  -3 -24   21.14   12.60   1
   7  -3 -24    3.51    9.68   1
   6  -3 -24    7.28    8.66   1
   5  -3 -24    1.18    7.89   1
   5  -3 -24   10.80   10.03   2
   4  -3 -24   18.99   12.15   2
   3  -3 -24    9.70   12.22   2
   2  -3 -24   71.19   17.43   2
   1  -3 -24   39.80   15.31   2
   0  -3 -24  118.85   21.32   2
  -1  -3 -24  164.68   24.18   2
  -2  -3 -24    2.57   10.90   2
  -3  -3 -24  118.41   21.89   2
  -4  -3 -24   11.31   11.63   2
  -5  -3 -24   -3.59   10.27   2
  -6  -3 -24   31.44   13.66   2
  -7  -3 -24  142.71   23.49   2
  -8  -3 -24   18.02   12.77   2
  -9  -3 -24  -14.01    7.48   2
 -10  -3 -24    6.44   10.41   2
 -11  -3 -24    7.08    9.50   2
 -12  -3 -24   -2.41    9.73   2
 -13  -3 -24   69.73   19.46   2
   8  -4 -24   13.72   12.11   1
   7  -4 -24  -20.69    7.38   1
   6  -4 -24   12.11    9.86   1
   5  -4 -24   28.85   11.22   1
   4  -4 -24    6.51    9.48   2
   3  -4 -24  113.80   20.10   2
   2  -4 -24   44.34   15.27   2
   1  -4 -24  137.61   21.71   2
   0  -4 -24   24.91   14.93   2
  -1  -4 -24   -3.17   10.52   2
  -2  -4 -24   15.90   12.55   2
  -3  -4 -24    3.80   10.18   2
  -4  -4 -24   -4.27    9.41   2
  -5  -4 -24    5.64   11.18   2
  -6  -4 -24   26.76   12.79   2
  -7  -4 -24   18.89   11.78   2
  -8  -4 -24   -1.52    9.55   2
  -9  -4 -24   71.91   17.86   2
 -10  -4 -24    4.02   10.12   2
 -11  -4 -24   10.52   10.67   2
 -12  -4 -24   55.07   16.89   2
 -13  -4 -24   16.00   11.14   2
   7  -5 -24   17.94   11.65   1
   6  -5 -24   13.46    9.95   1
   5  -5 -24   20.74   11.30   1
   3  -5 -24   -2.22    9.67   2
   2  -5 -24    7.05   11.98   2
   1  -5 -24  152.29   22.79   2
   0  -5 -24    4.55   12.20   2
  -1  -5 -24  143.01   23.98   2
  -2  -5 -24    9.57   11.01   2
  -3  -5 -24  145.52   23.98   2
  -4  -5 -24   51.94   15.61   2
  -5  -5 -24   -0.30    9.29   2
  -6  -5 -24   14.60   10.32   2
  -7  -5 -24   -3.42    8.81   2
  -8  -5 -24  139.13   23.48   2
  -9  -5 -24    0.29    9.51   2
 -10  -5 -24    4.25    9.47   2
 -11  -5 -24   18.20   10.92   2
 -12  -5 -24   15.40   12.33   2
   6  -6 -24   14.85   11.42   1
   5  -6 -24   45.49   13.75   1
   2  -6 -24   16.98   12.84   2
   1  -6 -24   -2.55   11.52   2
   0  -6 -24   31.80   15.06   2
  -1  -6 -24   -1.09   11.32   2
  -2  -6 -24   12.27   11.56   2
  -3  -6 -24   11.98   11.91   2
  -4  -6 -24    8.08    9.93   2
  -5  -6 -24   37.16   13.41   2
  -6  -6 -24    7.99    8.71   2
  -7  -6 -24   23.85   11.06   2
  -8  -6 -24   44.58   14.73   2
  -9  -6 -24   -3.06    7.49   2
 -10  -6 -24   89.81   20.50   2
 -11  -6 -24   18.26   12.91   2
 -12  -6 -24   62.93   18.99   2
   6  -7 -24   93.52   20.08   1
   5  -7 -24   17.21   10.71   1
   1  -7 -24    9.92   13.01   2
   0  -7 -24   -2.93   11.00   2
  -1  -7 -24  116.25   21.67   2
  -2  -7 -24   16.54   12.59   2
  -3  -7 -24   82.78   18.86   2
  -4  -7 -24  121.27   22.14   2
  -5  -7 -24    1.38    8.74   2
  -6  -7 -24   64.12   16.11   2
  -7  -7 -24   33.81   13.12   2
  -8  -7 -24    7.76    8.30   2
  -9  -7 -24   47.86   15.58   2
 -10  -7 -24   -2.83   10.05   2
 -11  -7 -24   34.48   15.92   2
   5  -8 -24    4.28   12.06   1
   0  -8 -24    1.06   12.11   2
  -1  -8 -24   -4.26   10.75   2
  -2  -8 -24   -4.63   10.26   2
  -3  -8 -24   -5.75    9.97   2
  -4  -8 -24  -14.35    7.17   2
  -5  -8 -24   48.95   14.16   2
  -6  -8 -24   72.41   17.32   2
  -7  -8 -24   13.37    9.62   2
  -8  -8 -24  -10.24    6.02   2
  -9  -8 -24   -3.11    5.88   2
 -10  -8 -24   83.46   21.67   2
  -1  -9 -24   -2.11   11.51   2
  -2  -9 -24   26.80   13.68   2
  -3  -9 -24    0.16    9.97   2
  -4  -9 -24   95.43   19.45   2
  -5  -9 -24    5.27    9.61   2
  -6  -9 -24    3.59    8.36   2
  -7  -9 -24   10.70    8.75   2
  -8  -9 -24  -10.20    4.30   2
  -9  -9 -24   -0.86    6.85   2
  -3 -10 -24  -24.41    7.81   2
  -4 -10 -24   22.13   11.35   2
  -5 -10 -24   21.67   13.08   2
  -6 -10 -24   84.23   19.15   2
  -7 -10 -24    4.21    6.71   2
  -8 -10 -24    3.89    7.24   2
  -9 -10 -24  -10.65    6.07   2
  -4 -11 -24   16.31   12.16   2
  -5 -11 -24    1.80    8.14   2
  -6 -11 -24   28.64   12.21   2
  -7 -11 -24   11.18   11.48   2
  -5 -12 -24   -2.61   10.22   2
  -6 -12 -24    0.03   10.25   2
   2  11 -25   51.12   20.10   2
   1  11 -25   38.41   18.42   2
   0  11 -25    8.92   14.34   2
   3  10 -25    6.86   13.36   2
   2  10 -25   28.71   15.23   2
   1  10 -25   18.81   15.28   2
   0  10 -25  163.78   25.89   2
  -1  10 -25    7.37   13.60   2
   5   9 -25   33.95   17.97   2
   4   9 -25   88.60   21.71   2
   3   9 -25  116.45   23.18   2
   2   9 -25   32.26   16.12   2
   1   9 -25   72.43   19.58   2
   0   9 -25   18.35   14.78   2
  -1   9 -25   33.30   15.57   2
  -2   9 -25   45.46   17.74   2
  -8  -8  25   33.02   13.94   1
   6   8 -25    2.04   13.50   2
   5   8 -25   44.30   16.81   2
   4   8 -25    9.82   13.96   2
   3   8 -25   12.55   11.23   2
   2   8 -25   71.65   19.54   2
   1   8 -25  -11.06   11.96   2
   0   8 -25  242.93   29.18   2
  -1   8 -25   10.16   13.74   2
  -2   8 -25   39.79   15.31   2
  -3   8 -25   39.92   16.37   2
  -7   8 -25  -16.36    7.00   3
  -8  -7  25   40.50   12.96   1
  -8  -7  25   33.65   10.74   4
   7   7 -25    5.21    6.33   2
   6   7 -25   10.55    6.29   2
   5   7 -25   57.17   18.05   2
   4   7 -25   24.77   13.59   2
   3   7 -25   85.16   20.51   2
   2   7 -25   12.20   13.11   2
   1   7 -25    6.44   12.37   2
   0   7 -25   20.82   13.54   2
  -1   7 -25   15.74   14.41   2
  -2   7 -25    7.24   13.89   2
  -3   7 -25   26.63   15.21   2
  -4   7 -25   33.99   15.91   2
  -7   7 -25  106.75   20.76   3
  -8   7 -25    9.75    9.82   3
  -8  -6  25   30.09    9.54   1
  -8  -6  25   13.86    7.67   4
   7   6 -25    2.25    6.02   2
  -7  -6  25   -5.86    7.81   1
  -7  -6  25    4.75    7.42   4
   6   6 -25    1.56    5.30   2
   5   6 -25   10.16    9.63   2
   4   6 -25   38.24   15.50   2
   3   6 -25   -1.46   11.34   2
   2   6 -25   -3.31   12.22   2
   1   6 -25    9.45   12.44   2
   0   6 -25   48.04   16.71   2
  -1   6 -25  170.24   24.74   2
  -2   6 -25   22.68   14.68   2
  -3   6 -25   75.44   18.31   2
  -4   6 -25   31.27   14.91   2
  -5   6 -25    4.02   12.74   2
  -6   6 -25   34.33   11.89   3
  -7   6 -25   -2.42    7.06   3
  -8   6 -25    6.97    8.30   3
  -9   6 -25    5.65   10.48   3
  -9  -5  25   10.90    8.27   4
  -9  -5  25   13.83   10.48   1
  -8  -5  25   44.76   12.67   1
  -8  -5  25   38.90    9.95   4
   8   5 -25    7.79    6.45   2
   7   5 -25    9.53    5.74   2
  -7  -5  25   14.90    8.05   4
  -7  -5  25    9.68    9.14   1
   6   5 -25  -13.05    5.76   2
   5   5 -25   55.51   15.77   2
   4   5 -25   27.14   12.53   2
   3   5 -25   82.42   19.75   2
   2   5 -25   29.85   14.44   2
   1   5 -25   -6.65   11.16   2
   0   5 -25   26.66   13.43   2
  -1   5 -25    7.24   12.27   2
  -2   5 -25   11.65   12.07   2
  -3   5 -25   20.05   13.37   2
  -4   5 -25   21.61   13.62   2
  -5   5 -25  114.42   21.05   2
  -6   5 -25   -0.35    7.46   3
  -6   5 -25   19.02   15.08   2
  -7   5 -25  132.06   21.56   3
  -8   5 -25  125.22   21.71   3
  -9   5 -25    4.27    8.55   3
   9   4 -25   11.10   13.31   2
  -9  -4  25    0.53    6.81   4
  -9  -4  25   15.16   10.19   1
  -8  -4  25    3.81    9.38   1
   8   4 -25   -2.03   10.59   2
  -8  -4  25   -1.76    5.76   4
   7   4 -25   11.55    6.86   2
  -7  -4  25   10.04    6.85   4
  -7  -4  25   18.01    9.63   1
   6   4 -25   29.85   12.83   2
   5   4 -25   -1.01   10.62   2
   4   4 -25   -3.77   10.70   2
   3   4 -25   43.57   15.97   2
   2   4 -25   22.25   14.30   2
   1   4 -25  157.64   23.52   2
   0   4 -25   -2.18   11.29   2
  -1   4 -25  134.83   22.56   2
  -2   4 -25    6.57   13.19   2
  -3   4 -25    9.54   13.89   2
  -4   4 -25   70.51   17.90   2
  -5   4 -25   -7.23   10.23   2
  -6   4 -25    3.65   12.35   2
  -6   4 -25   32.45   11.40   3
  -7   4 -25  -23.09    9.84   2
  -7   4 -25   -1.83    6.27   3
  -8   4 -25   -7.84    6.97   3
  -9   4 -25   10.87    8.63   3
 -10   4 -25    1.73    8.87   3
   9   3 -25    6.21   12.27   2
   9   3 -25   -1.18    9.85   1
   8   3 -25   38.81   12.68   1
   8   3 -25    4.15    9.28   2
   7   3 -25  103.65   19.85   2
   7   3 -25  104.68   18.37   1
   6   3 -25    6.16    8.89   2
   5   3 -25   32.19   13.71   2
   4   3 -25   33.73   14.48   2
   3   3 -25   36.94   14.93   2
   2   3 -25  141.53   22.24   2
   1   3 -25    3.11   11.62   2
   0   3 -25   12.85   13.38   2
  -1   3 -25    9.24   12.60   2
  -2   3 -25   26.28   14.64   2
  -3   3 -25   66.11   17.99   2
  -4   3 -25    2.00   12.48   2
  -5   3 -25   23.59   13.35   2
  -6   3 -25  126.13   20.16   3
  -6   3 -25   88.92   19.84   2
  -7   3 -25   34.05   11.98   3
  -7   3 -25   39.62   15.93   2
  -8   3 -25   19.98   10.77   3
  -8   3 -25   36.09   17.71   2
  -9   3 -25    4.59    9.23   3
 -10   3 -25   97.77   19.35   3
   9   2 -25   23.89   13.36   1
   9   2 -25   -0.33   11.21   2
   8   2 -25    7.79    9.94   1
   8   2 -25   17.59    9.96   2
   7   2 -25    0.79    9.30   1
   7   2 -25   18.39   11.06   2
   6   2 -25   18.16   12.67   2
   5   2 -25    8.65   11.51   2
   4   2 -25   -6.70   10.04   2
   3   2 -25   61.72   16.99   2
   2   2 -25   18.27   11.96   2
   1   2 -25   89.41   18.96   2
   0   2 -25  139.09   23.01   2
  -1   2 -25    3.07   11.75   2
  -2   2 -25   15.38   13.88   2
  -3   2 -25    1.18   11.08   2
  -4   2 -25   10.90   13.76   2
  -5   2 -25    2.26    5.54   3
  -5   2 -25   -1.30   12.29   2
  -6   2 -25   -1.02    5.58   3
  -6   2 -25    6.64   14.35   2
  -7   2 -25   -0.71    6.45   3
  -7   2 -25  -14.30   11.26   2
  -8   2 -25   -5.48   11.72   2
  -8   2 -25    3.58    7.54   3
  -9   2 -25   11.19   13.62   2
  -9   2 -25   13.75    9.13   3
 -10   2 -25   16.78    8.61   3
 -11   2 -25    6.92    7.94   3
   9   1 -25   80.74   19.10   1
   8   1 -25   33.11   12.14   2
   8   1 -25   12.08   10.75   1
   7   1 -25  176.07   23.34   1
   7   1 -25  140.36   22.18   2
   6   1 -25   35.08   13.90   2
   6   1 -25   37.25   11.86   1
   5   1 -25   37.33   13.71   2
   4   1 -25   16.19   11.93   2
   3   1 -25    3.70   12.06   2
   2   1 -25   42.25   14.72   2
   1   1 -25   45.45   15.80   2
   0   1 -25   -3.19   10.67   2
  -1   1 -25   22.83   13.24   2
  -2   1 -25   -0.16   12.15   2
  -3   1 -25   32.06   15.00   2
  -4   1 -25   44.88   17.61   2
  -5   1 -25   14.75    7.64   3
  -5   1 -25    2.79   12.45   2
  -6   1 -25   93.60   16.97   3
  -6   1 -25  111.64   21.57   2
  -7   1 -25   11.74    7.32   3
  -7   1 -25  -16.62   11.21   2
  -8   1 -25   24.83   10.50   3
  -8   1 -25   38.55   15.76   2
  -9   1 -25   42.43   13.26   3
  -9   1 -25   57.89   18.25   2
 -10   1 -25   34.26   11.98   3
 -10   1 -25    7.10   14.04   2
 -11   1 -25   -4.90    5.60   3
   8   0 -25    7.09   10.68   1
   7   0 -25   14.26    9.31   1
   7   0 -25   16.04   11.04   2
   6   0 -25   45.85   14.90   2
   6   0 -25   40.95   12.24   1
   5   0 -25   12.98   11.23   2
   4   0 -25   42.51   15.19   2
   3   0 -25   29.75   13.36   2
   2   0 -25    6.00   10.40   2
   1   0 -25  102.62   19.77   2
   0   0 -25  171.89   23.88   2
  -1   0 -25   -7.27   11.80   2
  -2   0 -25  147.55   23.27   2
  -3   0 -25  -21.00   10.81   2
  -4   0 -25    1.56   11.92   2
  -5   0 -25   31.56   16.45   2
  -6   0 -25   34.50   15.13   2
  -7   0 -25    5.56   12.05   2
  -8   0 -25   -5.52   11.00   2
  -9   0 -25   14.07    7.03   3
  -9   0 -25   -7.14   11.13   2
 -10   0 -25   70.10   20.00   2
 -10   0 -25   76.26   16.23   3
 -11   0 -25    5.74   12.88   2
 -11   0 -25   11.82    6.69   3
   8  -1 -25   -4.10   10.37   1
   7  -1 -25   46.26   14.19   1
   6  -1 -25   33.39   13.05   2
   6  -1 -25   19.34   10.17   1
   5  -1 -25   -3.89    9.24   2
   4  -1 -25   -2.27   11.15   2
   3  -1 -25    8.51   11.96   2
   2  -1 -25    2.34   11.41   2
   1  -1 -25   63.99   17.68   2
   0  -1 -25   29.45   14.94   2
  -1  -1 -25   97.58   19.66   2
  -2  -1 -25   46.88   16.59   2
  -3  -1 -25   53.59   17.85   2
  -4  -1 -25   60.66   17.88   2
  -5  -1 -25   -2.19   11.70   2
  -6  -1 -25  107.76   21.88   2
  -7  -1 -25  111.45   22.08   2
  -8  -1 -25  186.09   26.85   2
  -9  -1 -25   49.27   16.27   2
 -10  -1 -25  -12.76   11.15   2
 -11  -1 -25   -6.78   11.36   2
 -12  -1 -25  -13.60   12.30   2
   8  -2 -25   31.97   13.12   1
   7  -2 -25   17.18    9.92   1
   6  -2 -25   41.68   12.41   1
   5  -2 -25   12.26    9.91   2
   4  -2 -25   17.99   12.63   2
   3  -2 -25   13.92   10.98   2
   2  -2 -25  123.90   21.76   2
   1  -2 -25   -4.71   10.66   2
   0  -2 -25  115.59   21.01   2
  -1  -2 -25   60.23   18.16   2
  -2  -2 -25   18.94   13.86   2
  -3  -2 -25   71.38   19.46   2
  -4  -2 -25   -5.96   11.19   2
  -5  -2 -25    4.03   10.82   2
  -6  -2 -25    4.03   11.29   2
  -7  -2 -25   26.89   14.77   2
  -8  -2 -25   -6.33   10.89   2
  -9  -2 -25    3.70   10.74   2
 -10  -2 -25   29.50   13.73   2
 -11  -2 -25   14.06   12.30   2
 -12  -2 -25   18.92   15.13   2
   8  -3 -25   31.14   14.34   1
   7  -3 -25   19.90   11.71   1
   6  -3 -25   77.23   16.40   1
   4  -3 -25   -4.18   10.04   2
   3  -3 -25    8.01   11.74   2
   2  -3 -25   -9.59   10.29   2
   1  -3 -25   41.67   15.42   2
   0  -3 -25    7.36   11.96   2
  -1  -3 -25  -13.26   11.52   2
  -2  -3 -25  203.28   27.63   2
  -3  -3 -25   34.58   15.48   2
  -4  -3 -25   58.69   17.21   2
  -5  -3 -25  118.44   22.83   2
  -6  -3 -25   11.19   11.91   2
  -7  -3 -25   44.57   16.18   2
  -8  -3 -25   -5.39    9.76   2
  -9  -3 -25   30.74   13.89   2
 -10  -3 -25   38.72   14.79   2
 -11  -3 -25   -3.04    8.91   2
 -12  -3 -25    2.33   12.05   2
   7  -4 -25   14.16   11.82   1
   6  -4 -25   17.13   10.07   1
   3  -4 -25   27.00   13.20   2
   2  -4 -25   27.94   13.96   2
   1  -4 -25   95.82   19.85   2
   0  -4 -25   27.06   15.20   2
  -1  -4 -25   37.79   16.58   2
  -2  -4 -25    6.91   12.43   2
  -3  -4 -25  102.61   21.38   2
  -4  -4 -25   -4.97    9.52   2
  -5  -4 -25    1.58    8.80   2
  -6  -4 -25   -0.27   10.01   2
  -7  -4 -25   -5.26    9.38   2
  -8  -4 -25   34.41   15.15   2
  -9  -4 -25    7.11    9.85   2
 -10  -4 -25   15.03   11.90   2
 -11  -4 -25   71.27   18.49   2
 -12  -4 -25    7.55   11.59   2
   7  -5 -25    6.94   11.64   1
   6  -5 -25  137.78   22.74   1
   2  -5 -25    3.84   10.64   2
   1  -5 -25   -2.18   10.89   2
   0  -5 -25   48.68   17.25   2
  -1  -5 -25  -20.36    9.74   2
  -2  -5 -25  104.57   21.95   2
  -3  -5 -25    0.71   10.77   2
  -4  -5 -25   55.18   17.01   2
  -5  -5 -25  141.54   24.42   2
  -6  -5 -25    9.56    9.99   2
  -7  -5 -25   73.48   18.98   2
  -8  -5 -25   -4.13    8.22   2
  -9  -5 -25   34.49   14.18   2
 -10  -5 -25    9.94   10.31   2
 -11  -5 -25   16.77   12.58   2
   6  -6 -25    5.48   10.57   1
   1  -6 -25    3.25   11.89   2
   0  -6 -25   38.90   14.96   2
  -1  -6 -25   75.25   19.23   2
  -2  -6 -25  -14.91   10.05   2
  -3  -6 -25   61.74   17.61   2
  -4  -6 -25   14.22   11.29   2
  -5  -6 -25  -15.18    7.58   2
  -6  -6 -25   -6.16    7.24   2
  -7  -6 -25    3.20    9.25   2
  -8  -6 -25    0.17    9.78   2
  -9  -6 -25   32.63   13.89   2
 -10  -6 -25   -5.93   10.05   2
 -11  -6 -25  113.61   23.63   2
   0  -7 -25   31.46   15.46   2
  -1  -7 -25  -31.17    7.96   2
  -2  -7 -25   -0.83   10.58   2
  -3  -7 -25   89.90   19.75   2
  -4  -7 -25   38.31   15.17   2
  -5  -7 -25   88.59   19.29   2
  -6  -7 -25   17.64   11.31   2
  -7  -7 -25   12.54    9.51   2
  -8  -7 -25   -9.95    6.10   2
  -9  -7 -25    4.69   10.22   2
 -10  -7 -25   -0.09    9.72   2
  -1  -8 -25   -0.75   11.98   2
  -2  -8 -25   19.78   13.34   2
  -3  -8 -25    4.06   11.89   2
  -4  -8 -25    3.33   10.42   2
  -5  -8 -25   22.04   12.52   2
  -6  -8 -25    4.78    8.27   2
  -7  -8 -25  -10.31    6.12   2
  -8  -8 -25   -0.50    6.02   2
  -9  -8 -25   -2.17    5.56   2
  -2  -9 -25    8.87   12.25   2
  -3  -9 -25   47.33   15.48   2
  -4  -9 -25    5.24    8.82   2
  -5  -9 -25    1.78    9.04   2
  -6  -9 -25    2.93    7.88   2
  -7  -9 -25   -1.33    5.56   2
  -8  -9 -25   -1.92    6.62   2
  -9  -9 -25   -2.81    6.77   2
  -3 -10 -25   22.47   12.78   2
  -4 -10 -25  -10.77    9.32   2
  -5 -10 -25   26.94   11.80   2
  -6 -10 -25   13.56   11.12   2
  -7 -10 -25  -12.49    5.95   2
  -4 -11 -25   39.09   14.63   2
  -5 -11 -25  -16.22    7.66   2
  -6 -11 -25    8.89   11.12   2
   2  10 -26   -0.01   14.28   2
   1  10 -26    9.97   13.81   2
   0  10 -26   15.88   15.44   2
  -1  10 -26   49.47   18.54   2
   3   9 -26   49.69   18.21   2
   2   9 -26   52.70   18.40   2
   1   9 -26   13.09   14.92   2
   0   9 -26   52.85   17.93   2
  -1   9 -26    0.99   13.29   2
  -2   9 -26   29.31   16.49   2
   4   8 -26   12.13   15.78   2
   3   8 -26  -11.39   12.35   2
   2   8 -26    0.28   14.77   2
   1   8 -26   55.81   19.47   2
   0   8 -26   19.47   13.93   2
  -1   8 -26   43.30   18.01   2
  -2   8 -26   20.67   14.70   2
  -3   8 -26   26.90   15.41   2
   5   7 -26    8.58   13.91   2
   4   7 -26   76.11   19.34   2
   3   7 -26   14.13   12.70   2
   2   7 -26    6.85   12.32   2
   1   7 -26    3.96   13.22   2
   0   7 -26    6.20   13.79   2
  -1   7 -26   10.97   13.39   2
  -2   7 -26   11.90   13.81   2
  -3   7 -26   10.63   13.74   2
  -4   7 -26   27.02   14.73   2
  -8  -6  26   19.35    9.59   4
   6   6 -26    3.59    5.71   2
   5   6 -26   -0.26    4.75   2
   4   6 -26   22.90   13.83   2
   3   6 -26    1.52   12.53   2
   2   6 -26   47.36   16.38   2
   1   6 -26   23.36   13.38   2
   0   6 -26   42.26   16.46   2
  -1   6 -26   -7.08   12.33   2
  -2   6 -26  177.69   25.81   2
  -3   6 -26  105.87   22.13   2
  -4   6 -26   13.89   13.92   2
  -5   6 -26   30.61   14.52   2
  -7   6 -26   88.99   18.17   3
  -8   6 -26   24.72   12.33   3
  -8  -5  26   -3.40    6.72   4
  -8  -5  26    4.67    8.72   1
   7   5 -26    5.91    6.65   2
   6   5 -26   -0.54    5.26   2
   5   5 -26    0.35    5.42   2
   4   5 -26   -2.10   10.43   2
   3   5 -26   14.55   13.35   2
   2   5 -26   20.29   13.73   2
   1   5 -26   54.30   17.34   2
   0   5 -26   41.17   16.12   2
  -1   5 -26  -17.76   11.60   2
  -2   5 -26   -2.36   12.47   2
  -3   5 -26   -5.90   11.21   2
  -4   5 -26   36.08   15.47   2
  -5   5 -26    5.85   13.18   2
  -6   5 -26   38.83   16.02   2
  -7   5 -26   56.09   14.07   3
  -8   5 -26   31.00   12.38   3
  -9   5 -26   49.18   16.28   3
  -8  -4  26   -8.97    5.40   4
  -8  -4  26    5.58    7.84   1
   7   4 -26    2.62    4.88   2
   6   4 -26    2.99    4.25   2
   5   4 -26   -3.85   10.11   2
   4   4 -26   51.82   16.09   2
   3   4 -26   24.01   13.13   2
   2   4 -26  123.33   22.76   2
   1   4 -26   -1.14   12.02   2
   0   4 -26  159.12   24.63   2
  -1   4 -26   44.95   16.37   2
  -2   4 -26   -9.77   10.66   2
  -3   4 -26   21.88   14.04   2
  -4   4 -26   -3.24   12.42   2
  -5   4 -26   79.84   19.61   2
  -6   4 -26   -1.64   12.45   2
  -7   4 -26    3.14   12.73   2
  -7   4 -26   18.71    9.46   3
  -8   4 -26    5.44    8.02   3
  -9   4 -26    6.71    8.52   3
   8   3 -26   66.73   16.62   1
   8   3 -26   72.17   19.45   2
   7   3 -26    1.61   10.12   2
   6   3 -26   22.61   11.77   2
   5   3 -26   41.09   15.40   2
   4   3 -26    5.96   11.56   2
   3   3 -26  149.27   24.20   2
   2   3 -26   41.11   15.92   2
   1   3 -26   92.56   19.88   2
   0   3 -26   10.82   12.76   2
  -1   3 -26    3.71   12.20   2
  -2   3 -26   21.93   14.80   2
  -3   3 -26   31.68   15.29   2
  -4   3 -26   12.04   13.49   2
  -5   3 -26   38.44   15.83   2
  -6   3 -26   32.65   15.07   2
  -6   3 -26   52.91   13.55   3
  -7   3 -26   61.82   18.42   2
  -7   3 -26   79.91   17.05   3
  -8   3 -26    4.17   12.85   2
  -8   3 -26    4.36    8.60   3
  -9   3 -26  109.48   20.55   3
 -10   3 -26   31.47   13.57   3
   8   2 -26    3.65   10.41   1
   8   2 -26   -5.05   10.39   2
   7   2 -26   22.34    9.90   2
   6   2 -26  -11.02    9.52   2
   5   2 -26    6.93   11.18   2
   4   2 -26    4.43   11.20   2
   3   2 -26   12.04   12.56   2
   2   2 -26   27.53   14.00   2
   1   2 -26   33.17   15.31   2
   0   2 -26  110.08   21.56   2
  -1   2 -26   75.43   19.22   2
  -2   2 -26   -1.87   10.90   2
  -3   2 -26   36.39   16.25   2
  -4   2 -26   12.98   12.49   2
  -5   2 -26   14.18   13.47   2
  -6   2 -26  320.15   27.26   3
  -6   2 -26  299.56   32.35   2
  -7   2 -26    6.39   14.64   2
  -7   2 -26   20.12    9.24   3
  -8   2 -26   13.45   13.58   2
  -8   2 -26    4.04    7.28   3
  -9   2 -26   -9.60   12.67   2
  -9   2 -26    1.72    8.08   3
 -10   2 -26   13.35    9.06   3
   8   1 -26   35.34   13.89   2
   8   1 -26   25.36   12.40   1
   7   1 -26   23.30   12.00   2
   6   1 -26   22.64   12.60   2
   5   1 -26   42.04   14.24   2
   4   1 -26    7.86   11.34   2
   3   1 -26   62.63   17.40   2
   2   1 -26   -4.51   11.01   2
   1   1 -26   25.21   13.76   2
   0   1 -26   26.12   14.24   2
  -1   1 -26   15.43   13.40   2
  -2   1 -26    8.79   12.47   2
  -3   1 -26   -0.02   11.17   2
  -4   1 -26   33.05   16.52   2
  -5   1 -26   14.64   16.56   2
  -6   1 -26   21.23    8.55   3
  -6   1 -26    1.66   13.07   2
  -7   1 -26   39.82   12.71   3
  -7   1 -26   42.88   16.26   2
  -8   1 -26   17.18   15.18   2
  -8   1 -26   14.32    8.47   3
  -9   1 -26   46.83   16.84   2
  -9   1 -26   49.76   12.91   3
 -10   1 -26  110.24   20.24   3
 -10   1 -26   72.38   20.23   2
 -11   1 -26    7.27   10.54   3
   8   0 -26   44.45   15.16   1
   7   0 -26    9.85   10.29   2
   7   0 -26    5.60   10.46   1
   6   0 -26   12.48   11.03   2
   5   0 -26   -9.47    7.36   2
   4   0 -26    6.96   10.63   2
   3   0 -26   41.87   15.45   2
   2   0 -26   90.66   20.01   2
   1   0 -26   26.02   13.88   2
   0   0 -26  -10.33    9.90   2
  -1   0 -26  122.49   22.13   2
  -2   0 -26   45.76   17.21   2
  -3   0 -26    9.79   13.78   2
  -4   0 -26   26.65   14.78   2
  -5   0 -26   23.97   14.81   2
  -6   0 -26    3.07   12.76   2
  -7   0 -26   19.79   13.48   2
  -8   0 -26    7.91    6.92   3
  -8   0 -26    1.00   13.34   2
  -9   0 -26   14.56   14.54   2
  -9   0 -26   36.84   11.15   3
 -10   0 -26   13.17    7.76   3
 -10   0 -26  -14.15   10.80   2
 -11   0 -26   38.31   18.06   2
 -11   0 -26   40.84   14.31   3
   8  -1 -26   19.70   11.85   1
   7  -1 -26   31.55   12.46   1
   6  -1 -26   11.89   13.04   2
   5  -1 -26   72.32   17.54   2
   4  -1 -26   18.43   12.21   2
   3  -1 -26    8.59   12.23   2
   2  -1 -26  205.90   26.04   2
   1  -1 -26   13.37   13.76   2
   0  -1 -26   10.84   12.01   2
  -1  -1 -26   -1.28   11.37   2
  -2  -1 -26    9.69   12.43   2
  -3  -1 -26   82.71   20.08   2
  -4  -1 -26   -1.18   12.96   2
  -5  -1 -26   29.56   16.23   2
  -6  -1 -26   83.34   20.76   2
  -7  -1 -26  126.40   23.42   2
  -8  -1 -26   36.88   16.94   2
  -9  -1 -26    4.12   12.33   2
 -10  -1 -26   30.67   15.93   2
 -11  -1 -26    3.59   12.79   2
 -11  -1 -26   31.12   10.57   3
 -12  -1 -26    7.21   14.45   2
   7  -2 -26    4.08    9.98   1
   5  -2 -26   27.81   12.62   2
   4  -2 -26   21.93   13.08   2
   3  -2 -26   64.53   16.58   2
   2  -2 -26    6.50   13.48   2
   1  -2 -26  173.71   24.88   2
   0  -2 -26   20.19   13.96   2
  -1  -2 -26   52.32   17.00   2
  -2  -2 -26   37.96   17.07   2
  -3  -2 -26    9.25   13.27   2
  -4  -2 -26  -10.15   10.51   2
  -5  -2 -26   20.15   14.56   2
  -6  -2 -26    5.17   12.41   2
  -7  -2 -26   34.61   16.02   2
  -8  -2 -26    5.98   12.23   2
  -9  -2 -26   32.91   15.52   2
 -10  -2 -26   13.92   13.67   2
 -11  -2 -26  -10.31   10.75   2
 -12  -2 -26  145.58   27.71   2
   7  -3 -26  104.61   21.19   1
   4  -3 -26   27.23   14.98   2
   3  -3 -26   56.07   15.44   2
   2  -3 -26   13.02   12.63   2
   1  -3 -26   -1.58   12.68   2
   0  -3 -26  -10.51   10.36   2
  -1  -3 -26   96.09   21.33   2
  -2  -3 -26   17.37   14.16   2
  -3  -3 -26   49.91   18.32   2
  -4  -3 -26   33.75   14.14   2
  -5  -3 -26   12.91   13.36   2
  -6  -3 -26   60.82   18.71   2
  -7  -3 -26   12.89   13.44   2
  -8  -3 -26  128.24   23.72   2
  -9  -3 -26   42.92   16.74   2
 -10  -3 -26   58.14   17.98   2
 -11  -3 -26   12.69   13.47   2
   3  -4 -26   76.34   18.58   2
   2  -4 -26   31.37   14.09   2
   1  -4 -26   26.36   14.26   2
   0  -4 -26   38.27   16.12   2
  -1  -4 -26    0.65   12.43   2
  -2  -4 -26  104.41   22.84   2
  -3  -4 -26   38.40   15.75   2
  -4  -4 -26   11.46   12.47   2
  -5  -4 -26   -1.26   10.65   2
  -6  -4 -26   14.49   13.16   2
  -7  -4 -26  -23.04    9.52   2
  -8  -4 -26   -2.34   10.62   2
  -9  -4 -26   26.39   14.26   2
 -10  -4 -26   41.50   16.70   2
 -11  -4 -26   10.57   12.17   2
   2  -5 -26   30.28   15.76   2
   1  -5 -26    9.67   11.56   2
   0  -5 -26    6.22   13.19   2
  -1  -5 -26   33.45   16.68   2
  -2  -5 -26   -5.33   11.42   2
  -3  -5 -26  -14.16   10.19   2
  -4  -5 -26   -0.91   11.75   2
  -5  -5 -26   -3.21    9.21   2
  -6  -5 -26   71.10   17.72   2
  -7  -5 -26   14.65   13.39   2
  -8  -5 -26  224.20   30.37   2
  -9  -5 -26    0.61   11.06   2
 -10  -5 -26   -1.30   11.55   2
   1  -6 -26   14.63   14.26   2
   0  -6 -26   14.34   14.12   2
  -1  -6 -26   39.60   16.39   2
  -2  -6 -26    5.81   12.28   2
  -3  -6 -26  -14.85    9.21   2
  -4  -6 -26  -12.26    9.94   2
  -5  -6 -26   -1.39   10.67   2
  -6  -6 -26    2.31    9.75   2
  -7  -6 -26   -1.77    8.95   2
  -8  -6 -26    5.17    9.77   2
  -9  -6 -26    4.57   10.96   2
 -10  -6 -26  162.52   28.34   2
   0  -7 -26   -7.27   11.25   2
  -1  -7 -26   -8.82   11.35   2
  -2  -7 -26   -0.35   12.06   2
  -3  -7 -26   12.55   11.43   2
  -4  -7 -26  281.91   32.73   2
  -5  -7 -26    0.49    9.68   2
  -6  -7 -26    4.17   10.45   2
  -7  -7 -26   -9.33    6.01   2
  -8  -7 -26    0.44    6.58   2
  -9  -7 -26   81.39   20.98   2
  -1  -8 -26  -10.35   11.19   2
  -2  -8 -26  -13.16   11.11   2
  -3  -8 -26   33.57   15.21   2
  -4  -8 -26   -6.34    9.91   2
  -5  -8 -26   16.94   11.55   2
  -6  -8 -26   -0.69    6.27   2
  -7  -8 -26   -7.30    5.19   2
  -8  -8 -26    1.53    6.22   2
  -2  -9 -26    6.86   12.80   2
  -3  -9 -26   13.65   12.26   2
  -4  -9 -26  -13.38    9.13   2
  -5  -9 -26   35.96   13.66   2
  -6  -9 -26    2.26    6.70   2
  -7  -9 -26   -6.60    6.16   2
  -3 -10 -26   45.36   16.03   2
  -4 -10 -26   -2.55    9.71   2
  -5 -10 -26    5.12   11.53   2
  -6 -10 -26   15.76   12.72   2
  -4 -11 -26    2.12   11.62   2
  -5 -11 -26   26.82   14.63   2
   1   9 -27  100.22   22.89   2
   0   9 -27   99.11   22.86   2
  -1   9 -27   49.24   18.19   2
  -2   9 -27   52.14   18.80   2
   3   8 -27   34.10   15.75   2
   2   8 -27   20.13   16.45   2
   1   8 -27    1.19   13.42   2
   0   8 -27   37.63   16.22   2
  -1   8 -27   12.80   14.72   2
  -2   8 -27    0.23   12.88   2
  -3   8 -27   48.43   18.05   2
   4   7 -27   -1.85   12.25   2
   3   7 -27   89.01   22.51   2
   2   7 -27   27.90   16.23   2
   1   7 -27   78.20   20.47   2
   0   7 -27   81.54   21.58   2
  -1   7 -27   33.32   15.62   2
  -2   7 -27    3.91   13.18   2
  -3   7 -27   15.43   14.66   2
  -4   7 -27   26.03   16.16   2
   5   6 -27    7.31    6.47   2
   4   6 -27    8.41   11.12   2
   3   6 -27    9.40   13.29   2
   2   6 -27   -5.60   12.14   2
   1   6 -27   18.41   12.38   2
   0   6 -27    8.27   13.47   2
  -1   6 -27  123.69   23.88   2
  -2   6 -27    4.26   13.12   2
  -3   6 -27   10.87   15.39   2
  -4   6 -27  201.62   26.96   2
  -5   6 -27   14.09   14.14   2
  -8   6 -27   86.24   20.06   3
   6   5 -27    5.02    6.08   2
   5   5 -27   13.13    6.56   2
   4   5 -27   11.05    5.40   2
   3   5 -27    7.16   10.17   2
   2   5 -27   69.77   18.08   2
   1   5 -27   45.94   17.33   2
   0   5 -27   24.09   14.70   2
  -1   5 -27   73.28   19.84   2
  -2   5 -27   53.06   18.11   2
  -3   5 -27    2.09   12.76   2
  -4   5 -27   36.57   17.59   2
  -5   5 -27    1.37   12.65   2
  -6   5 -27   41.71   17.77   2
  -8   5 -27   61.42   14.86   3
   6   4 -27    6.86    6.71   2
   5   4 -27    0.46    4.62   2
   4   4 -27   -0.87    6.43   2
   3   4 -27   -3.06   10.12   2
   2   4 -27    1.14   11.81   2
   1   4 -27   32.58   15.38   2
   0   4 -27    8.73   13.90   2
  -1   4 -27  131.58   24.01   2
  -2   4 -27   61.28   18.02   2
  -3   4 -27    1.16   12.94   2
  -4   4 -27  241.90   29.03   2
  -5   4 -27    7.88   14.65   2
  -6   4 -27   37.77   16.68   2
  -7   4 -27   84.73   20.55   2
  -8   4 -27   10.53    8.72   3
  -9   4 -27   10.84   10.53   3
   7   3 -27   97.35   23.91   2
   6   3 -27    9.16    6.39   2
   5   3 -27    0.42    5.23   2
   4   3 -27   12.66   11.72   2
   3   3 -27    8.89   11.79   2
   2   3 -27   -0.76   10.47   2
   1   3 -27    5.59   13.19   2
   0   3 -27   51.83   18.10   2
  -1   3 -27   45.14   16.87   2
  -2   3 -27   -8.40   13.34   2
  -3   3 -27   -1.46   13.27   2
  -4   3 -27    5.11   14.53   2
  -5   3 -27    6.49   13.38   2
  -6   3 -27   64.29   18.51   2
  -7   3 -27    8.49   13.19   2
  -7   3 -27    5.17    8.31   3
  -8   3 -27  118.37   22.23   3
  -8   3 -27   99.06   22.57   2
  -9   3 -27   28.73   10.26   3
   7   2 -27    0.32   11.99   2
   6   2 -27   27.62   12.88   2
   5   2 -27   11.68   10.50   2
   4   2 -27   34.63   14.33   2
   3   2 -27   24.63   14.13   2
   2   2 -27    3.28   12.37   2
   1   2 -27   58.58   16.81   2
   0   2 -27   13.58   14.18   2
  -1   2 -27   19.98   14.62   2
  -2   2 -27  171.62   25.47   2
  -3   2 -27    1.41   13.14   2
  -4   2 -27    6.60   13.85   2
  -5   2 -27   48.19   17.86   2
  -6   2 -27  -13.30   11.78   2
  -7   2 -27   43.48   13.41   3
  -7   2 -27   81.86   21.86   2
  -8   2 -27   22.96    9.71   3
  -8   2 -27   43.52   18.70   2
  -9   2 -27    6.41    7.64   3
  -9   2 -27  -32.12   11.38   2
 -10   2 -27   30.14   12.66   3
   7   1 -27   77.45   19.18   2
   6   1 -27   21.73   11.10   2
   5   1 -27   18.67   12.69   2
   4   1 -27   70.13   17.76   2
   3   1 -27    7.14   12.31   2
   2   1 -27   35.33   14.75   2
   1   1 -27   60.05   18.11   2
   0   1 -27   -2.24   12.47   2
  -1   1 -27   -4.70   10.85   2
  -2   1 -27   -1.85   13.37   2
  -3   1 -27    1.74   12.14   2
  -4   1 -27   52.75   17.30   2
  -5   1 -27   25.50   17.25   2
  -6   1 -27   46.21   18.35   2
  -7   1 -27   78.32   16.65   3
  -7   1 -27   80.08   21.14   2
  -8   1 -27    3.35   14.32   2
  -8   1 -27   17.37    9.51   3
  -9   1 -27   95.32   19.02   3
  -9   1 -27   79.36   21.77   2
 -10   1 -27  -14.56   14.64   2
 -10   1 -27   13.59   10.41   3
   7   0 -27   19.54   12.68   2
   6   0 -27   49.35   14.77   2
   5   0 -27   25.83   12.70   2
   4   0 -27    6.26   11.33   2
   3   0 -27   61.82   16.67   2
   2   0 -27    1.51   10.94   2
   1   0 -27   57.58   17.89   2
   0   0 -27  162.92   25.56   2
  -1   0 -27   49.19   17.88   2
  -2   0 -27   64.29   19.07   2
  -3   0 -27   89.48   20.79   2
  -4   0 -27   -3.06   13.09   2
  -5   0 -27   55.80   18.58   2
  -6   0 -27    9.87   13.52   2
  -7   0 -27    7.35    6.65   3
  -7   0 -27   13.23   13.35   2
  -8   0 -27   -3.28   12.48   2
  -8   0 -27    2.88    7.48   3
  -9   0 -27   27.02    9.74   3
  -9   0 -27   27.60   16.12   2
 -10   0 -27    4.92   14.16   2
 -10   0 -27   13.96    8.97   3
 -11   0 -27   -9.99   13.71   2
   6  -1 -27   76.45   18.12   2
   5  -1 -27   10.68   12.07   2
   4  -1 -27   66.70   17.24   2
   3  -1 -27   15.82   13.07   2
   2  -1 -27   28.80   14.74   2
   1  -1 -27   32.32   15.37   2
   0  -1 -27   -5.06   11.61   2
  -1  -1 -27   -2.69   11.99   2
  -2  -1 -27   56.46   17.30   2
  -3  -1 -27   11.62   14.45   2
  -4  -1 -27   45.33   17.40   2
  -5  -1 -27   14.25   13.68   2
  -6  -1 -27   82.66   21.24   2
  -7  -1 -27   86.68   20.69   2
  -8  -1 -27   -0.07   12.70   2
  -9  -1 -27   66.33   20.62   2
 -10  -1 -27   28.25   16.30   2
 -11  -1 -27   50.55   19.39   2
   5  -2 -27   25.38   14.34   2
   4  -2 -27   27.99   14.94   2
   3  -2 -27   14.48   13.10   2
   2  -2 -27    8.32   12.53   2
   1  -2 -27   27.98   15.62   2
   0  -2 -27  109.64   22.38   2
  -1  -2 -27   36.41   16.18   2
  -2  -2 -27    2.84   12.02   2
  -3  -2 -27   72.49   19.35   2
  -4  -2 -27   -2.32   13.15   2
  -5  -2 -27   23.25   15.23   2
  -6  -2 -27   19.70   14.94   2
  -7  -2 -27    6.63   11.94   2
  -8  -2 -27   -4.24   12.11   2
  -9  -2 -27   12.00   12.79   2
 -10  -2 -27    1.59   13.12   2
 -11  -2 -27    3.63   14.34   2
   4  -3 -27    3.93   11.81   2
   3  -3 -27   -3.83   11.38   2
   2  -3 -27    0.80   11.20   2
   1  -3 -27   25.58   14.04   2
   0  -3 -27   18.83   14.42   2
  -1  -3 -27   -2.39   11.65   2
  -2  -3 -27   82.32   20.80   2
  -3  -3 -27   18.40   14.99   2
  -4  -3 -27    9.67   12.34   2
  -5  -3 -27   63.97   19.35   2
  -6  -3 -27   16.59   15.42   2
  -7  -3 -27   51.25   18.98   2
  -8  -3 -27   87.29   22.52   2
  -9  -3 -27   15.94   15.66   2
 -10  -3 -27   -3.17   11.67   2
   3  -4 -27   20.17   14.64   2
   2  -4 -27   62.70   18.53   2
   1  -4 -27  -13.95   10.82   2
   0  -4 -27    0.49   11.60   2
  -1  -4 -27   78.84   20.80   2
  -2  -4 -27   70.59   19.54   2
  -3  -4 -27  210.55   29.30   2
  -4  -4 -27   -0.73   11.30   2
  -5  -4 -27    2.71   12.06   2
  -6  -4 -27   -1.54   12.70   2
  -7  -4 -27   11.13   13.23   2
  -8  -4 -27   -7.34   10.16   2
  -9  -4 -27   32.78   15.84   2
 -10  -4 -27    0.26   12.44   2
   2  -5 -27   27.44   15.44   2
   1  -5 -27    0.69   12.06   2
   0  -5 -27  -11.16   10.95   2
  -1  -5 -27   -0.41   10.35   2
  -2  -5 -27  -17.43   10.18   2
  -3  -5 -27   -9.63   11.71   2
  -4  -5 -27   11.24   13.91   2
  -6  -5 -27    5.66   11.12   2
  -7  -5 -27   51.71   18.66   2
  -8  -5 -27   13.18   13.65   2
  -9  -5 -27  -11.08   10.85   2
   1  -6 -27  144.46   24.41   2
   0  -6 -27  -12.96   12.03   2
  -1  -6 -27   49.78   17.96   2
  -2  -6 -27   -7.57   12.05   2
  -3  -6 -27    1.61   11.72   2
  -4  -6 -27    8.94   13.13   2
  -5  -6 -27    6.13   11.00   2
  -6  -6 -27  -10.27    7.26   2
  -7  -6 -27   -5.22    5.47   2
  -8  -6 -27    6.15   11.28   2
  -9  -6 -27    5.74   12.52   2
   0  -7 -27    7.71   14.04   2
  -1  -7 -27    4.40   13.93   2
  -2  -7 -27   -2.28   11.07   2
  -3  -7 -27   15.61   13.03   2
  -4  -7 -27  -12.48    9.48   2
  -5  -7 -27    8.31    8.74   2
  -6  -7 -27   -4.27    5.60   2
  -7  -7 -27   -7.07    6.33   2
  -8  -7 -27   -9.76    5.88   2
  -1  -8 -27  -21.28   11.37   2
  -2  -8 -27   29.40   16.41   2
  -3  -8 -27   10.49   13.75   2
  -4  -8 -27    9.74   11.18   2
  -5  -8 -27   -3.90    5.99   2
  -6  -8 -27   -9.67    6.87   2
  -7  -8 -27   -3.62    6.71   2
  -2  -9 -27   12.24   11.40   2
  -3  -9 -27   -6.93   11.02   2
  -4  -9 -27   -7.28   10.71   2
  -5  -9 -27   -1.95   12.18   2
  -6  -9 -27   -8.30    6.93   2
  -3 -10 -27  -16.37   12.20   2
  -4 -10 -27   -2.53   12.35   2
  -5 -10 -27  -18.08   10.87   2
   1   8 -28   22.91   17.71   2
   0   8 -28   -8.62   13.71   2
  -1   8 -28   11.75   14.32   2
  -2   8 -28   96.71   23.44   2
  -3   8 -28   53.02   19.20   2
   2   7 -28   58.85   19.29   2
   1   7 -28  106.78   23.05   2
   0   7 -28   10.01   16.31   2
  -1   7 -28   33.96   17.33   2
  -2   7 -28   20.06   16.24   2
  -3   7 -28   53.97   18.81   2
  -4   7 -28   21.04   15.99   2
   3   6 -28   14.27   15.35   2
   2   6 -28   20.57   15.73   2
   1   6 -28   13.43   14.17   2
   0   6 -28   97.28   22.74   2
  -1   6 -28  -13.68   11.07   2
  -2   6 -28   21.55   15.06   2
  -3   6 -28   30.10   17.37   2
  -4   6 -28    4.31   13.40   2
  -5   6 -28  107.90   23.17   2
   4   5 -28    5.93    6.69   2
   3   5 -28    0.49    5.70   2
   2   5 -28   10.13   14.69   2
   1   5 -28  122.26   23.12   2
   0   5 -28   22.95   15.34   2
  -1   5 -28   85.26   19.65   2
  -2   5 -28    4.51   14.14   2
  -3   5 -28   -4.84   13.04   2
  -4   5 -28    3.92   13.58   2
  -5   5 -28   14.51   14.81   2
  -6   5 -28   17.79   16.51   2
   5   4 -28   20.31    7.49   2
   4   4 -28    7.43    5.07   2
   3   4 -28   -2.93    5.21   2
   2   4 -28   14.81    8.58   2
   1   4 -28   18.29   15.70   2
   0   4 -28   -6.79   13.61   2
  -1   4 -28  112.32   23.32   2
  -2   4 -28  -19.85   11.54   2
  -3   4 -28  107.54   22.24   2
  -4   4 -28    9.09   12.78   2
  -5   4 -28   -3.48   14.08   2
  -6   4 -28   79.14   21.13   2
  -7   4 -28   -8.82   14.47   2
  -8   4 -28   59.43   14.86   3
   6   3 -28    6.73    7.91   2
   5   3 -28    7.39    6.63   2
   4   3 -28   14.36    6.54   2
   3   3 -28    3.14    6.77   2
   2   3 -28    1.69   10.11   2
   1   3 -28    1.10   12.01   2
   0   3 -28   50.14   17.48   2
  -1   3 -28    3.93   13.67   2
  -2   3 -28   36.28   16.32   2
  -3   3 -28    2.21   12.00   2
  -4   3 -28   -3.28   13.17   2
  -5   3 -28   24.04   14.27   2
  -6   3 -28   24.70   16.48   2
  -7   3 -28   13.16   15.10   2
  -8   3 -28   17.47   10.37   3
  -8   3 -28  -11.35   13.50   2
  -9   3 -28   45.41   15.99   3
   6   2 -28    9.99   14.88   2
   5   2 -28   17.90    7.52   2
   4   2 -28   11.66    6.74   2
   3   2 -28   -1.86    9.73   2
   2   2 -28    1.99   12.20   2
   1   2 -28   39.30   15.91   2
   0   2 -28   13.49   13.34   2
  -1   2 -28   21.26   15.53   2
  -2   2 -28   11.40   14.73   2
  -3   2 -28    7.85   14.32   2
  -4   2 -28  161.01   25.35   2
  -5   2 -28   -1.22   12.55   2
  -6   2 -28   77.74   20.95   2
  -7   2 -28   47.84   19.34   2
  -8   2 -28   84.35   22.87   2
  -8   2 -28   47.82   13.63   3
  -9   2 -28   15.95    9.19   3
  -9   2 -28  -32.32   14.95   2
   6   1 -28   11.12   14.08   2
   5   1 -28  146.28   24.64   2
   4   1 -28   10.84    9.52   2
   3   1 -28   18.89   13.18   2
   2   1 -28   53.71   17.26   2
   1   1 -28    0.67   11.63   2
   0   1 -28   60.96   18.43   2
  -1   1 -28    0.25   13.55   2
  -2   1 -28   11.02   12.28   2
  -3   1 -28   48.76   17.32   2
  -4   1 -28   -5.09   11.38   2
  -5   1 -28   -6.44   13.79   2
  -6   1 -28   24.40   16.97   2
  -7   1 -28   28.97   17.33   2
  -8   1 -28  140.64   26.07   2
  -8   1 -28   93.38   19.42   3
  -9   1 -28   22.64   17.33   2
  -9   1 -28   13.72    8.92   3
 -10   1 -28   48.79   15.87   3
 -10   1 -28   63.57   22.82   2
   6   0 -28   13.37   12.17   2
   5   0 -28    3.37   11.08   2
   4   0 -28   55.77   17.35   2
   3   0 -28   11.41   12.49   2
   2   0 -28   29.86   14.38   2
   1   0 -28    0.90   13.35   2
   0   0 -28   -4.88   12.06   2
  -1   0 -28   19.15   13.21   2
  -2   0 -28   68.47   18.89   2
  -3   0 -28    0.85   11.27   2
  -4   0 -28   98.38   23.44   2
  -5   0 -28  -14.06   14.24   2
  -6   0 -28   16.89   15.32   2
  -7   0 -28   65.09   20.65   2
  -8   0 -28   47.15   19.22   2
  -8   0 -28   61.89   14.37   3
  -9   0 -28   28.89    9.74   3
  -9   0 -28    3.64   14.85   2
 -10   0 -28   -0.74    8.89   3
 -10   0 -28  -20.90   13.17   2
   6  -1 -28   39.69   15.00   2
   5  -1 -28   25.67   12.37   2
   4  -1 -28   38.07   14.94   2
   3  -1 -28   25.85   14.54   2
   2  -1 -28   15.79   13.83   2
   1  -1 -28   11.23   13.99   2
   0  -1 -28    1.15   12.94   2
  -1  -1 -28   -7.88   10.93   2
  -2  -1 -28  -19.74   10.25   2
  -3  -1 -28    6.54   14.19   2
  -4  -1 -28   32.67   17.85   2
  -5  -1 -28   -9.55   13.07   2
  -6  -1 -28   -7.59   12.64   2
  -7  -1 -28    4.02   13.41   2
  -8  -1 -28  152.15   27.07   2
  -9  -1 -28  -15.38   12.66   2
 -10  -1 -28   27.07   11.75   3
 -10  -1 -28   16.96   17.01   2
   5  -2 -28   35.87   13.92   2
   4  -2 -28   16.04   12.47   2
   3  -2 -28   -3.98   11.53   2
   2  -2 -28   31.46   16.17   2
   1  -2 -28    2.53   12.37   2
   0  -2 -28    4.81   12.35   2
  -1  -2 -28   -7.28   12.02   2
  -2  -2 -28  148.84   25.15   2
  -3  -2 -28   24.14   16.21   2
  -4  -2 -28   -9.11   12.67   2
  -5  -2 -28   47.06   18.50   2
  -6  -2 -28   -0.09   13.13   2
  -7  -2 -28   42.64   18.74   2
  -8  -2 -28   15.85   16.22   2
  -9  -2 -28   -5.08   13.99   2
 -10  -2 -28    7.45   15.88   2
   4  -3 -28   10.35   11.96   2
   3  -3 -28   18.00   13.97   2
   2  -3 -28   50.64   17.61   2
   1  -3 -28    9.61   13.90   2
   0  -3 -28    5.59   13.40   2
  -1  -3 -28   16.20   13.44   2
  -2  -3 -28  -18.11   12.47   2
  -3  -3 -28   16.87   15.06   2
  -4  -3 -28   22.50   14.99   2
  -5  -3 -28   -3.26   11.96   2
  -6  -3 -28   38.76   16.79   2
  -7  -3 -28   10.89   13.27   2
  -8  -3 -28   21.37   16.53   2
  -9  -3 -28   65.38   20.22   2
   3  -4 -28   39.40   14.92   2
   2  -4 -28    3.52   11.31   2
   1  -4 -28   19.10   14.41   2
   0  -4 -28   40.69   15.41   2
  -1  -4 -28   51.76   17.54   2
  -2  -4 -28   79.56   20.42   2
  -3  -4 -28   44.27   18.90   2
  -4  -4 -28    0.85   11.98   2
  -5  -4 -28    8.86   12.14   2
  -6  -4 -28   -2.51    8.93   2
  -7  -4 -28   -2.08   12.10   2
  -8  -4 -28   13.53   14.65   2
  -9  -4 -28   24.62   16.18   2
   2  -5 -28   12.99   14.23   2
   1  -5 -28   -5.61   12.32   2
   0  -5 -28   -9.42   11.34   2
  -1  -5 -28   29.02   16.75   2
  -2  -5 -28  -18.47   11.22   2
  -3  -5 -28   -1.08   13.47   2
  -4  -5 -28  -13.87    8.66   2
  -5  -5 -28  -17.42    6.69   2
  -6  -5 -28   -4.03    6.05   2
  -7  -5 -28   -1.02    7.67   2
  -8  -5 -28    6.77   12.46   2
   1  -6 -28   -5.20   13.64   2
   0  -6 -28  145.93   25.56   2
  -1  -6 -28    6.57   13.11   2
  -2  -6 -28   -0.96   13.92   2
  -3  -6 -28    5.45   11.86   2
  -4  -6 -28   -8.82    7.77   2
  -5  -6 -28  -15.32    5.30   2
  -6  -6 -28  -17.38    5.67   2
  -7  -6 -28   -9.41    6.31   2
   0  -7 -28   23.81   14.82   2
  -1  -7 -28   -8.81   11.79   2
  -2  -7 -28   -2.97   12.48   2
  -3  -7 -28    2.75   11.15   2
  -4  -7 -28  -19.17    5.69   2
  -5  -7 -28   -7.32    6.40   2
  -6  -7 -28   -3.05    6.36   2
  -7  -7 -28  -12.90    6.39   2
  -1  -8 -28   33.04   15.94   2
  -2  -8 -28    0.31   12.54   2
  -3  -8 -28   42.08   17.90   2
  -4  -8 -28   10.35   14.69   2
  -5  -8 -28  -11.72    7.23   2
  -2  -9 -28   -5.60   15.12   2
  -3  -9 -28    6.93   14.79   2
  -4  -9 -28   16.34   15.57   2
  -1   7 -29   24.69   17.00   2
  -2   7 -29   83.53   21.94   2
  -3   7 -29   16.59   15.59   2
  -4   7 -29   13.26   16.64   2
   1   6 -29    5.77   14.62   2
   0   6 -29    2.33   14.37   2
  -1   6 -29    3.69   15.21   2
  -2   6 -29   -8.35   14.15   2
  -3   6 -29   -4.37   13.59   2
  -4   6 -29   11.77   16.23   2
  -5   6 -29    5.22   15.73   2
   2   5 -29   35.14   17.32   2
   1   5 -29   27.42   16.22   2
   0   5 -29   71.88   20.20   2
  -1   5 -29   47.73   18.46   2
  -2   5 -29   19.56   16.94   2
  -3   5 -29    6.57   14.66   2
  -4   5 -29   -0.01   14.86   2
  -5   5 -29    5.74   15.67   2
  -6   5 -29   16.15   17.40   2
   3   4 -29   18.59    7.75   2
   2   4 -29    2.21    5.55   2
   1   4 -29    3.69   14.65   2
   0   4 -29    2.64   14.02   2
  -1   4 -29   14.47   13.67   2
  -2   4 -29   55.89   18.13   2
  -3   4 -29   -3.26   13.91   2
  -4   4 -29  127.28   24.56   2
  -5   4 -29   31.01   17.28   2
  -6   4 -29   -9.76   14.84   2
  -7   4 -29   80.61   22.63   2
   4   3 -29   11.50    7.48   2
   3   3 -29    1.67    4.97   2
   2   3 -29    3.70    5.52   2
   1   3 -29    2.92    5.37   2
   0   3 -29    4.96   13.38   2
  -1   3 -29   92.76   21.58   2
  -2   3 -29   -8.08   11.87   2
  -3   3 -29   52.36   17.84   2
  -4   3 -29    0.44   15.01   2
  -5   3 -29    5.46   14.72   2
  -6   3 -29   -9.05   13.78   2
  -7   3 -29    7.19   15.00   2
  -8   3 -29   14.20   16.69   2
   4   2 -29   12.24    6.80   2
   3   2 -29    5.52    6.37   2
   2   2 -29    6.33    5.63   2
   1   2 -29    7.16    7.02   2
   0   2 -29    7.20    8.36   2
  -1   2 -29   -0.60   13.54   2
  -2   2 -29  130.74   24.74   2
  -3   2 -29   16.61   14.80   2
  -4   2 -29    8.09   14.71   2
  -5   2 -29   49.99   18.89   2
  -6   2 -29    6.92   14.31   2
  -7   2 -29  112.62   24.45   2
  -8   2 -29  -22.52   13.79   2
   5   1 -29   -2.32   13.51   2
   4   1 -29    8.35    8.85   2
   3   1 -29    8.42    6.19   2
   2   1 -29    1.47    6.21   2
   1   1 -29    8.88    8.64   2
   0   1 -29   -7.31    9.53   2
  -1   1 -29    1.43   11.74   2
  -2   1 -29    5.50   13.30   2
  -3   1 -29   16.10   15.33   2
  -4   1 -29   46.24   17.77   2
  -5   1 -29    1.03   14.11   2
  -6   1 -29   27.01   16.96   2
  -7   1 -29   19.02   16.09   2
  -8   1 -29    8.92   15.81   2
  -9   1 -29   24.91   11.20   3
  -9   1 -29   30.10   18.55   2
   5   0 -29   33.91   17.24   2
   4   0 -29  -10.00   11.47   2
   3   0 -29   -1.61    7.70   2
   2   0 -29    2.00    8.11   2
   1   0 -29    5.76   10.46   2
   0   0 -29   -9.60   10.59   2
  -1   0 -29   -2.95   12.44   2
  -2   0 -29   -5.83   11.08   2
  -3   0 -29    2.42   13.93   2
  -4   0 -29   -7.72   13.61   2
  -5   0 -29   37.21   17.95   2
  -6   0 -29   20.69   17.27   2
  -7   0 -29   53.66   19.81   2
  -8   0 -29   64.03   22.26   2
  -9   0 -29   24.14   10.47   3
  -9   0 -29    6.48   17.23   2
   5  -1 -29   12.90   14.32   2
   4  -1 -29   13.17   13.88   2
   3  -1 -29   99.03   20.75   2
   2  -1 -29   11.00   10.29   2
   1  -1 -29    2.29   11.44   2
   0  -1 -29  -10.47   11.67   2
  -1  -1 -29  -23.98   10.51   2
  -2  -1 -29   -8.98   12.07   2
  -3  -1 -29  -10.83   10.73   2
  -4  -1 -29    2.65   14.31   2
  -5  -1 -29   65.09   20.00   2
  -6  -1 -29   14.02   15.03   2
  -7  -1 -29   17.18   17.44   2
  -8  -1 -29   37.17   20.61   2
   5  -2 -29   -1.16   12.66   2
   4  -2 -29  -11.54   11.32   2
   3  -2 -29    0.78   10.44   2
   2  -2 -29    1.43   11.85   2
   1  -2 -29   -2.46   10.32   2
   0  -2 -29   -4.02   11.77   2
  -1  -2 -29    6.74   13.14   2
  -2  -2 -29   -5.92   11.92   2
  -3  -2 -29   -5.85   10.40   2
  -4  -2 -29  -12.72    7.22   2
  -5  -2 -29   78.32   21.22   2
  -6  -2 -29   63.57   21.39   2
  -7  -2 -29  -11.48   13.19   2
  -8  -2 -29    9.67   15.86   2
   4  -3 -29   26.92   14.95   2
   3  -3 -29   10.00   13.03   2
   2  -3 -29   31.94   14.96   2
   1  -3 -29  173.21   27.43   2
   0  -3 -29   13.82   13.87   2
  -1  -3 -29    4.10   12.18   2
  -2  -3 -29   -0.57   12.07   2
  -3  -3 -29  -10.58    9.72   2
  -4  -3 -29   -5.05    8.22   2
  -5  -3 -29  -16.22    5.55   2
  -6  -3 -29   53.92   18.70   2
  -7  -3 -29   10.82   15.67   2
  -8  -3 -29   41.83   19.18   2
   3  -4 -29    0.93   10.69   2
   2  -4 -29   -6.44   11.54   2
   1  -4 -29    1.70   14.02   2
   0  -4 -29    3.16   12.78   2
  -1  -4 -29   48.45   17.54   2
  -2  -4 -29  -13.88   10.85   2
  -3  -4 -29  -17.65    7.84   2
  -4  -4 -29   -8.96    6.17   2
  -5  -4 -29   -4.10    6.24   2
  -6  -4 -29   -0.64    6.96   2
  -7  -4 -29   10.28   15.33   2
   2  -5 -29    3.72   11.89   2
   1  -5 -29   44.55   17.08   2
   0  -5 -29   51.75   17.96   2
  -1  -5 -29   -0.55   11.47   2
  -2  -5 -29   14.00   10.28   2
  -3  -5 -29  -10.96    6.45   2
  -4  -5 -29   -7.75    7.11   2
  -5  -5 -29  -19.82    5.63   2
  -6  -5 -29   -7.40    5.79   2
  -7  -5 -29  -16.01    5.60   2
   1  -6 -29   40.55   17.82   2
   0  -6 -29   -8.58   12.24   2
  -1  -6 -29    6.36   14.20   2
  -2  -6 -29  169.72   29.16   2
  -3  -6 -29   -7.43    8.74   2
  -4  -6 -29  -13.93    6.01   2
  -5  -6 -29  -11.87    6.57   2
  -6  -6 -29  -20.38    6.46   2
   0  -7 -29   -3.14   15.02   2
  -1  -7 -29    0.42   15.52   2
  -2  -7 -29  -13.33   13.39   2
  -3  -7 -29    5.10   14.93   2
  -4  -7 -29   -7.83    8.88   2
  -5  -7 -29  -15.58    6.47   2
  -2  -8 -29   31.05   19.05   2
  -3  -8 -29   13.34   16.29   2
  -1   5 -30   43.34   16.97   2
  -2   5 -30   20.00   18.38   2
  -3   5 -30   30.26   17.95   2
  -4   5 -30   32.96   19.37   2
  -5   5 -30    7.28   13.99   2
   1   4 -30   53.74   19.37   2
   0   4 -30   14.12   15.76   2
  -1   4 -30   25.94   16.15   2
  -2   4 -30    8.57   15.66   2
  -3   4 -30   13.88   15.84   2
  -4   4 -30   80.87   23.26   2
  -5   4 -30   16.52   17.87   2
  -6   4 -30   99.60   23.64   2
   2   3 -30   20.24    8.03   2
   1   3 -30   -2.37    5.71   2
   0   3 -30  104.45   25.00   2
  -1   3 -30    0.89   14.93   2
  -2   3 -30   13.49   16.64   2
  -3   3 -30   13.13   14.84   2
  -4   3 -30   11.91   14.49   2
  -5   3 -30    5.01   16.45   2
  -6   3 -30   -5.93   15.78   2
   2   2 -30    9.45    7.09   2
   1   2 -30    0.82    6.09   2
   0   2 -30    2.09    5.10   2
  -1   2 -30    1.12   14.28   2
  -2   2 -30    3.87   15.72   2
  -3   2 -30  -14.98   14.08   2
  -4   2 -30   69.47   20.57   2
  -5   2 -30   20.75   17.68   2
  -6   2 -30    0.06   13.16   2
  -7   2 -30   27.15   17.91   2
   3   1 -30   14.58    7.41   2
   2   1 -30   -7.50    6.10   2
   1   1 -30   -1.55    5.76   2
   0   1 -30   -0.22    5.43   2
  -1   1 -30   -8.65    5.31   2
  -2   1 -30  -15.77   14.76   2
  -3   1 -30   28.55   17.06   2
  -4   1 -30   -5.30   14.55   2
  -5   1 -30    8.85   15.54   2
  -6   1 -30   19.69   16.35   2
  -7   1 -30   29.03   19.19   2
   3   0 -30   28.30   14.62   2
   2   0 -30    1.46    6.16   2
   1   0 -30   -4.79    5.38   2
   0   0 -30   -3.15    6.31   2
  -1   0 -30    6.07    6.72   2
  -2   0 -30   -3.06    5.82   2
  -3   0 -30    1.25   15.64   2
  -4   0 -30   88.89   23.43   2
  -5   0 -30   29.99   18.35   2
  -6   0 -30   16.61   18.64   2
  -7   0 -30   82.14   24.56   2
   4  -1 -30   28.22   17.43   2
   3  -1 -30    9.28   15.38   2
   2  -1 -30   46.86   15.47   2
   1  -1 -30    0.47    7.44   2
   0  -1 -30    8.79    6.60   2
  -1  -1 -30   -7.67    5.63   2
  -2  -1 -30   -2.05    5.92   2
  -3  -1 -30  -12.79    5.33   2
  -4  -1 -30  -15.77   14.22   2
  -5  -1 -30   15.29   18.99   2
  -6  -1 -30    8.36   17.11   2
  -7  -1 -30   16.61   17.86   2
   3  -2 -30    9.75   15.29   2
   2  -2 -30    2.80   13.75   2
   1  -2 -30   12.55   12.55   2
   0  -2 -30   -0.78    6.09   2
  -1  -2 -30   -3.83    6.57   2
  -2  -2 -30  -13.98    5.84   2
  -3  -2 -30   -5.21    6.42   2
  -4  -2 -30  -11.15    6.41   2
  -5  -2 -30  142.40   27.88   2
  -6  -2 -30    3.29   17.30   2
   3  -3 -30   17.70   15.55   2
   2  -3 -30  156.53   27.72   2
   1  -3 -30   74.31   21.25   2
   0  -3 -30    0.88   10.98   2
  -1  -3 -30   -2.04    6.90   2
  -2  -3 -30  -10.82    4.76   2
  -3  -3 -30  -23.09    5.70   2
  -4  -3 -30  -10.18    6.41   2
  -5  -3 -30   -8.83    7.19   2
  -6  -3 -30   -1.96   14.83   2
   2  -4 -30    8.76   15.78   2
   1  -4 -30   19.63   15.53   2
   0  -4 -30   -0.96   13.14   2
  -1  -4 -30   74.61   19.68   2
  -2  -4 -30  -10.47    5.83   2
  -3  -4 -30  -20.97    5.61   2
  -4  -4 -30  -11.33    7.34   2
  -5  -4 -30  -17.13    5.26   2
   1  -5 -30   74.68   22.05   2
   0  -5 -30    8.79   15.80   2
  -1  -5 -30    6.00   15.01   2
  -2  -5 -30  -19.68   11.56   2
  -3  -5 -30  -12.35    7.38   2
  -4  -5 -30  -12.85    7.13   2
   0  -6 -30    8.21   16.09   2
  -1  -6 -30   81.57   23.42   2
  -2  -6 -30   -3.81   14.48   2
  -3  -6 -30  106.73   25.43   2
   0   1 -31    1.04    6.06   2
  -1   1 -31    7.00    7.03   2
  -2   1 -31   22.84   16.22   2
  -3   1 -31   -6.97   15.10   2
   0   0 -31   -4.09    7.27   2
  -1   0 -31   -2.27    5.60   2
  -2   0 -31    5.89    6.66   2
  -3   0 -31   37.55   18.47   2
  -4   0 -31   19.90   17.39   2
   0  -1 -31   -8.44    5.96   2
  -1  -1 -31    2.55    6.35   2
  -2  -1 -31   -4.04    6.74   2
  -3  -1 -31  -12.20    5.02   2
  -4  -1 -31    5.34   15.40   2
   0  -2 -31   -6.35    7.19   2
  -1  -2 -31   -8.65    7.37   2
  -2  -2 -31  -15.27    5.83   2
  -3  -2 -31  -10.00    6.80   2
   0  -3 -31    7.08   15.74   2
  -1  -3 -31   -3.81    7.59   2
  -2  -3 -31  -13.82    7.04   2
   0   0   0    0.00    0.00   0
;
_shelx_hkl_checksum              2245
loop_
_space_group_symop_operation_xyz
'x, y, z'
'-x, -y, -z'
loop_
_atom_site_label
_atom_site_type_symbol
_atom_site_fract_x
_atom_site_fract_y
_atom_site_fract_z
_atom_site_U_iso_or_equiv
_atom_site_adp_type
_atom_site_occupancy
_atom_site_site_symmetry_order
_atom_site_calc_flag
_atom_site_refinement_flags_posn
_atom_site_refinement_flags_adp
_atom_site_refinement_flags_occupancy
_atom_site_disorder_assembly
_atom_site_disorder_group
Zn1 Zn 0.23318(5) -0.03198(5) 0.68272(2) 0.01937(17) Uani 1 1 d . . . . .
Zn2 Zn 0.16344(5) 0.43962(5) 0.76065(2) 0.01904(17) Uani 1 1 d . . . . .
N1 N 0.1539(3) 0.0436(3) 0.75504(17) 0.0186(10) Uani 1 1 d . . . . .
N2 N 0.1165(3) 0.0519(3) 0.63941(17) 0.0203(10) Uani 1 1 d . . . . .
N3 N 0.3298(3) -0.0603(3) 0.60676(17) 0.0200(10) Uani 1 1 d . . . . .
N4 N 0.3688(3) -0.0600(3) 0.72193(17) 0.0189(10) Uani 1 1 d . . . . .
N5 N 0.2691(3) 0.1314(3) 0.90197(17) 0.0197(10) Uani 1 1 d . . . . .
H5A H 0.245472 0.154002 0.871107 0.024 Uiso 1 1 calc R U . . .
N6 N 0.0742(3) 0.4104(3) 0.83364(17) 0.0208(10) Uani 1 1 d . . . . .
N7 N 0.0230(3) 0.5064(3) 0.72856(17) 0.0191(10) Uani 1 1 d . . . . .
N8 N 0.2394(3) 0.5181(3) 0.70189(17) 0.0180(10) Uani 1 1 d . . . . .
N9 N 0.2914(3) 0.4195(3) 0.80542(17) 0.0187(10) Uani 1 1 d . . . . .
N10 N 0.1917(4) -0.1745(4) 0.6977(2) 0.0344(13) Uani 1 1 d . . . . .
C1S C 0.0953(8) -0.2037(9) 0.7161(4) 0.025(3) Uani 0.569(10) 1 d . U P A 1
H1SA H 0.105943 -0.277349 0.707694 0.029 Uiso 0.569(10) 1 calc R U P A 1
C2S C 0.0687(8) -0.1856(8) 0.7783(5) 0.029(3) Uani 0.569(10) 1 d . . P A 1
H2SA H 0.032684 -0.113755 0.786707 0.035 Uiso 0.569(10) 1 calc R U P A 1
H2SB H 0.134551 -0.202508 0.795939 0.035 Uiso 0.569(10) 1 calc R U P A 1
C3S C -0.0132(19) -0.2612(18) 0.8027(10) 0.071(7) Uani 0.569(10) 1 d . . P A 1
H3SA H -0.020370 -0.261115 0.842954 0.107 Uiso 0.569(10) 1 calc R U P A 1
H3SB H 0.017167 -0.330278 0.788297 0.107 Uiso 0.569(10) 1 calc R U P A 1
H3SC H -0.083351 -0.235389 0.790830 0.107 Uiso 0.569(10) 1 calc R U P A 1
C4S C 0.0036(10) -0.1437(9) 0.6872(7) 0.031(3) Uani 0.569(10) 1 d . . P A 1
H4SA H -0.060684 -0.169290 0.697570 0.037 Uiso 0.569(10) 1 calc R U P A 1
H4SB H -0.013196 -0.071420 0.698345 0.037 Uiso 0.569(10) 1 calc R U P A 1
O1S O 0.0347(7) -0.1547(7) 0.6291(3) 0.053(3) Uani 0.569(10) 1 d . . P A 1
H1SB H -0.014740 -0.121424 0.612775 0.080 Uiso 0.569(10) 1 calc R U P A 1
C1SA C 0.0828(10) -0.1627(11) 0.7391(7) 0.020(3) Uiso 0.431(10) 1 d . . P A 2
H1SC H 0.080614 -0.110155 0.767608 0.024 Uiso 0.431(10) 1 calc R U P A 2
C2SA C 0.0795(11) -0.2619(12) 0.7687(6) 0.034(4) Uiso 0.431(10) 1 d . . P A 2
H2SC H 0.140749 -0.284185 0.789573 0.040 Uiso 0.431(10) 1 calc R U P A 2
H2SD H 0.079087 -0.316297 0.742441 0.040 Uiso 0.431(10) 1 calc R U P A 2
C3SA C -0.028(2) -0.232(2) 0.8082(12) 0.037(6) Uiso 0.431(10) 1 d . . P A 2
H3SD H -0.045551 -0.292521 0.824144 0.055 Uiso 0.431(10) 1 calc R U P A 2
H3SE H -0.084777 -0.196365 0.787504 0.055 Uiso 0.431(10) 1 calc R U P A 2
H3SF H -0.020814 -0.186838 0.837753 0.055 Uiso 0.431(10) 1 calc R U P A 2
C4SA C -0.015(2) -0.128(2) 0.7102(10) 0.060(9) Uiso 0.431(10) 1 d . . P A 2
H4SC H -0.079417 -0.124970 0.736578 0.072 Uiso 0.431(10) 1 calc R U P A 2
H4SD H -0.017806 -0.059561 0.695784 0.072 Uiso 0.431(10) 1 calc R U P A 2
O1SA O -0.0107(9) -0.1977(9) 0.6653(5) 0.049(4) Uiso 0.431(10) 1 d . . P A 2
H1SD H -0.064182 -0.177188 0.648905 0.073 Uiso 0.431(10) 1 calc R U P A 2
N11 N 0.1843(4) 0.2885(4) 0.7279(2) 0.0315(12) Uani 1 1 d . . . . .
H11A H 0.198716 0.247058 0.756668 0.038 Uiso 1 1 calc R U . . .
H11B H 0.118647 0.285277 0.720738 0.038 Uiso 1 1 calc R U . . .
C5S C 0.2586(5) 0.2374(5) 0.6802(3) 0.0368(16) Uani 1 1 d . . . . .
C6S C 0.2554(9) 0.2966(6) 0.6291(4) 0.040(3) Uani 0.709(10) 1 d . . P B 4
H6SA H 0.311638 0.260569 0.600238 0.048 Uiso 0.709(10) 1 calc R U P B 4
H6SB H 0.268995 0.363272 0.636206 0.048 Uiso 0.709(10) 1 calc R U P B 4
C7S C 0.1466(8) 0.3112(7) 0.6094(4) 0.040(3) Uani 0.709(10) 1 d . U P B 4
H7SA H 0.146763 0.345941 0.574218 0.060 Uiso 0.709(10) 1 calc R U P B 4
H7SB H 0.091799 0.351810 0.636659 0.060 Uiso 0.709(10) 1 calc R U P B 4
H7SC H 0.131538 0.245099 0.604539 0.060 Uiso 0.709(10) 1 calc R U P B 4
C8S C 0.3739(9) 0.2247(9) 0.7000(5) 0.054(3) Uani 0.709(10) 1 d . . P B 4
H8SA H 0.429058 0.183974 0.672157 0.064 Uiso 0.709(10) 1 calc R U P B 4
H8SB H 0.388731 0.292079 0.702926 0.064 Uiso 0.709(10) 1 calc R U P B 4
O2S O 0.3793(7) 0.1758(6) 0.7527(4) 0.070(3) Uani 0.709(10) 1 d . . P B 4
H2SE H 0.439663 0.170917 0.762277 0.106 Uiso 0.709(10) 1 calc R U P B 4
C6SA C 0.3578(18) 0.2492(17) 0.6692(10) 0.027(6) Uiso 0.291(10) 1 d . . P B 3
H6SC H 0.356447 0.321992 0.670018 0.032 Uiso 0.291(10) 1 calc R U P B 3
H6SD H 0.389089 0.221595 0.631939 0.032 Uiso 0.291(10) 1 calc R U P B 3
C7SA C 0.428(2) 0.193(2) 0.7125(13) 0.046(8) Uiso 0.291(10) 1 d . . P B 3
H7SD H 0.503019 0.181626 0.697803 0.070 Uiso 0.291(10) 1 calc R U P B 3
H7SE H 0.410474 0.128066 0.720665 0.070 Uiso 0.291(10) 1 calc R U P B 3
H7SF H 0.413312 0.234550 0.746344 0.070 Uiso 0.291(10) 1 calc R U P B 3
C8SA C 0.176(2) 0.2949(18) 0.6338(10) 0.033(6) Uiso 0.291(10) 1 d . . P B 3
H8SC H 0.102125 0.289759 0.645836 0.039 Uiso 0.291(10) 1 calc R U P B 3
H8SD H 0.175979 0.367240 0.630925 0.039 Uiso 0.291(10) 1 calc R U P B 3
O2SA O 0.2127(12) 0.2469(12) 0.5849(6) 0.042(5) Uiso 0.291(10) 1 d . . P B 3
H2SF H 0.173790 0.273298 0.561349 0.063 Uiso 0.291(10) 1 calc R U P B 3
C1 C 0.1782(4) 0.0182(4) 0.8076(2) 0.0193(12) Uani 1 1 d . . . . .
C2 C 0.0813(4) 0.0518(4) 0.8473(2) 0.0226(12) Uani 1 1 d . . . . .
C3 C 0.0049(4) 0.1023(4) 0.8177(2) 0.0196(12) Uani 1 1 d . . . . .
C4 C 0.0492(4) 0.0956(4) 0.7611(2) 0.0183(11) Uani 1 1 d . . . . .
C5 C -0.0101(4) 0.1308(4) 0.7179(2) 0.0218(12) Uani 1 1 d . . . . .
H5B H -0.079301 0.172641 0.728326 0.026 Uiso 1 1 calc R U . . .
C6 C 0.0202(4) 0.1118(4) 0.6620(2) 0.0218(12) Uani 1 1 d . . . . .
C7 C -0.0456(4) 0.1483(4) 0.6192(2) 0.0235(13) Uani 1 1 d . . . . .
C8 C 0.0117(4) 0.1110(4) 0.5709(2) 0.0206(12) Uani 1 1 d . . . . .
C9 C 0.1134(4) 0.0503(4) 0.5835(2) 0.0179(11) Uani 1 1 d . . . . .
C10 C 0.1961(4) -0.0010(4) 0.5454(2) 0.0202(12) Uani 1 1 d . . . . .
H10A H 0.182154 -0.001595 0.508428 0.024 Uiso 1 1 calc R U . . .
C11 C 0.2980(4) -0.0519(4) 0.5557(2) 0.0204(12) Uani 1 1 d . . . . .
C12 C 0.3886(4) -0.0904(4) 0.5142(2) 0.0227(12) Uani 1 1 d . . . . .
C13 C 0.4759(4) -0.1187(4) 0.5411(2) 0.0223(12) Uani 1 1 d . . . . .
C14 C 0.4384(4) -0.0975(4) 0.5988(2) 0.0236(13) Uani 1 1 d . . . . .
C15 C 0.5028(4) -0.1077(4) 0.6404(2) 0.0230(12) Uani 1 1 d . . . . .
H15A H 0.576969 -0.132441 0.629472 0.028 Uiso 1 1 calc R U . . .
C16 C 0.4714(4) -0.0858(4) 0.6961(2) 0.0203(12) Uani 1 1 d . . . . .
C17 C 0.5457(4) -0.0898(4) 0.7352(2) 0.0248(13) Uani 1 1 d . . . . .
C18 C 0.4881(4) -0.0712(4) 0.7862(2) 0.0243(13) Uani 1 1 d . . . . .
C19 C 0.3746(4) -0.0514(4) 0.7776(2) 0.0210(12) Uani 1 1 d . . . . .
C20 C 0.2837(4) -0.0269(4) 0.8179(2) 0.0227(12) Uani 1 1 d . . . . .
C21 C 0.0590(4) 0.0324(4) 0.9080(2) 0.0243(13) Uani 1 1 d . . . . .
H21A H 0.122502 0.034132 0.925654 0.029 Uiso 1 1 calc R U . . .
H21B H -0.000457 0.087535 0.924840 0.029 Uiso 1 1 calc R U . . .
C22 C 0.0310(5) -0.0678(5) 0.9199(3) 0.0422(17) Uani 1 1 d . . . . .
H22A H 0.018676 -0.075962 0.959760 0.063 Uiso 1 1 calc R U . . .
H22B H 0.089777 -0.122945 0.903774 0.063 Uiso 1 1 calc R U . . .
H22C H -0.033482 -0.069139 0.903914 0.063 Uiso 1 1 calc R U . . .
C23 C -0.1111(4) 0.1506(4) 0.8376(2) 0.0263(13) Uani 1 1 d . . . . .
H23A H -0.132466 0.215877 0.819090 0.032 Uiso 1 1 calc R U . . .
H23B H -0.119221 0.164915 0.877568 0.032 Uiso 1 1 calc R U . . .
C24 C -0.1849(5) 0.0845(5) 0.8265(2) 0.0350(15) Uani 1 1 d . . . . .
H24A H -0.258506 0.119579 0.839883 0.053 Uiso 1 1 calc R U . . .
H24B H -0.165681 0.020604 0.845675 0.053 Uiso 1 1 calc R U . . .
H24C H -0.178074 0.070861 0.786933 0.053 Uiso 1 1 calc R U . . .
C25 C -0.1542(4) 0.2191(4) 0.6293(2) 0.0304(14) Uani 1 1 d . . . . .
H25A H -0.195949 0.194233 0.660653 0.037 Uiso 1 1 calc R U . . .
H25B H -0.190696 0.217595 0.596557 0.037 Uiso 1 1 calc R U . . .
C26 C -0.1537(5) 0.3274(5) 0.6417(3) 0.0469(19) Uani 1 1 d . . . . .
H26A H -0.226651 0.369452 0.645668 0.070 Uiso 1 1 calc R U . . .
H26B H -0.110754 0.352266 0.611420 0.070 Uiso 1 1 calc R U . . .
H26C H -0.123251 0.330674 0.675853 0.070 Uiso 1 1 calc R U . . .
C27 C -0.0175(4) 0.1364(4) 0.5141(2) 0.0245(13) Uani 1 1 d . . . . .
H27A H -0.095436 0.147856 0.515164 0.029 Uiso 1 1 calc R U . . .
H27B H 0.016648 0.078088 0.488911 0.029 Uiso 1 1 calc R U . . .
C28 C 0.0162(5) 0.2291(5) 0.4918(3) 0.0392(16) Uani 1 1 d . . . . .
H28A H -0.001748 0.240555 0.454306 0.059 Uiso 1 1 calc R U . . .
H28B H 0.093087 0.218792 0.491359 0.059 Uiso 1 1 calc R U . . .
H28C H -0.020992 0.288007 0.515226 0.059 Uiso 1 1 calc R U . . .
C29 C 0.3858(5) -0.1002(4) 0.4531(2) 0.0270(13) Uani 1 1 d . . . . .
H29A H 0.442995 -0.072636 0.433123 0.032 Uiso 1 1 calc R U . . .
H29B H 0.317050 -0.058749 0.444019 0.032 Uiso 1 1 calc R U . . .
C30 C 0.3995(5) -0.2081(4) 0.4334(2) 0.0324(14) Uani 1 1 d . . . . .
H30A H 0.392989 -0.208815 0.394068 0.049 Uiso 1 1 calc R U . . .
H30B H 0.344445 -0.236654 0.453791 0.049 Uiso 1 1 calc R U . . .
H30C H 0.469794 -0.248444 0.439549 0.049 Uiso 1 1 calc R U . . .
C31 C 0.5900(4) -0.1599(4) 0.5167(2) 0.0267(13) Uani 1 1 d . . . . .
H31A H 0.635007 -0.123187 0.533558 0.032 Uiso 1 1 calc R U . . .
H31B H 0.596880 -0.146649 0.476844 0.032 Uiso 1 1 calc R U . . .
C32 C 0.6313(4) -0.2723(4) 0.5248(2) 0.0306(14) Uani 1 1 d . . . . .
H32A H 0.704279 -0.294640 0.506269 0.046 Uiso 1 1 calc R U . . .
H32B H 0.585984 -0.309298 0.509236 0.046 Uiso 1 1 calc R U . . .
H32C H 0.630295 -0.285595 0.564176 0.046 Uiso 1 1 calc R U . . .
C33 C 0.6628(4) -0.1016(5) 0.7197(2) 0.0290(14) Uani 1 1 d . . . . .
H33A H 0.690820 -0.159492 0.693473 0.035 Uiso 1 1 calc R U . . .
H33B H 0.698691 -0.117269 0.752950 0.035 Uiso 1 1 calc R U . . .
C34 C 0.6900(5) -0.0072(5) 0.6936(3) 0.0369(16) Uani 1 1 d . . . . .
H34A H 0.767123 -0.019770 0.683579 0.055 Uiso 1 1 calc R U . . .
H34B H 0.665395 0.049763 0.719892 0.055 Uiso 1 1 calc R U . . .
H34C H 0.654832 0.008738 0.660535 0.055 Uiso 1 1 calc R U . . .
C35 C 0.5370(4) -0.0580(5) 0.8370(2) 0.0289(14) Uani 1 1 d . . . . .
H35A H 0.610270 -0.101419 0.833391 0.035 Uiso 1 1 calc R U . . .
H35B H 0.495561 -0.080635 0.869196 0.035 Uiso 1 1 calc R U . . .
C36 C 0.5403(5) 0.0507(5) 0.8467(2) 0.0364(16) Uani 1 1 d . . . . .
H36A H 0.573820 0.055244 0.879773 0.055 Uiso 1 1 calc R U . . .
H36B H 0.467716 0.093617 0.851710 0.055 Uiso 1 1 calc R U . . .
H36C H 0.581493 0.073377 0.815000 0.055 Uiso 1 1 calc R U . . .
C37 C 0.2980(4) -0.0530(4) 0.8769(2) 0.0243(13) Uani 1 1 d . . . . .
H37A H 0.238139 -0.081214 0.892871 0.029 Uiso 1 1 calc R U . . .
H37B H 0.364016 -0.107104 0.876809 0.029 Uiso 1 1 calc R U . . .
C38 C 0.3039(4) 0.0307(4) 0.9137(2) 0.0206(12) Uani 1 1 d . . . . .
C39 C 0.3333(4) 0.0261(4) 0.9665(2) 0.0184(12) Uani 1 1 d . . . . .
C40 C 0.3695(4) -0.0707(4) 0.9960(2) 0.0244(13) Uani 1 1 d . . . . .
H40A H 0.415942 -0.060126 1.023052 0.029 Uiso 1 1 calc R U . . .
H40B H 0.411809 -0.123457 0.969165 0.029 Uiso 1 1 calc R U . . .
C41 C 0.2761(5) -0.1069(5) 1.0256(3) 0.0356(16) Uani 1 1 d . . . . .
H41A H 0.302849 -0.167753 1.046076 0.053 Uiso 1 1 calc R U . . .
H41B H 0.232948 -0.122459 0.998607 0.053 Uiso 1 1 calc R U . . .
H41C H 0.232415 -0.053750 1.051147 0.053 Uiso 1 1 calc R U . . .
C42 C 0.3175(4) 0.1274(4) 0.9855(2) 0.0176(11) Uani 1 1 d . . . . .
C43 C 0.3383(4) 0.1615(4) 1.0404(2) 0.0258(13) Uani 1 1 d . . . . .
H43A H 0.370713 0.219857 1.034793 0.031 Uiso 1 1 calc R U . . .
H43B H 0.390259 0.106138 1.055480 0.031 Uiso 1 1 calc R U . . .
C44 C 0.2389(5) 0.1918(5) 1.0823(2) 0.0338(15) Uani 1 1 d . . . . .
H44A H 0.257031 0.217787 1.115897 0.051 Uiso 1 1 calc R U . . .
H44B H 0.210112 0.132672 1.090901 0.051 Uiso 1 1 calc R U . . .
H44C H 0.185515 0.244354 1.067032 0.051 Uiso 1 1 calc R U . . .
C45 C 0.2764(4) 0.1914(4) 0.9449(2) 0.0168(11) Uani 1 1 d . . . . .
C46 C 0.2441(4) 0.3033(4) 0.9451(2) 0.0216(12) Uani 1 1 d . . . . .
H46A H 0.302065 0.329747 0.956804 0.026 Uiso 1 1 calc R U . . .
H46B H 0.180693 0.326341 0.972723 0.026 Uiso 1 1 calc R U . . .
C51 C 0.1103(4) 0.3683(4) 0.8810(2) 0.0204(12) Uani 1 1 d . . . . .
C52 C 0.0191(4) 0.3490(4) 0.9180(2) 0.0213(12) Uani 1 1 d . . . . .
C53 C -0.0681(4) 0.3833(4) 0.8925(2) 0.0221(12) Uani 1 1 d . . . . .
C54 C -0.0328(4) 0.4210(4) 0.8398(2) 0.0213(12) Uani 1 1 d . . . . .
C55 C -0.1017(4) 0.4608(4) 0.8011(2) 0.0216(12) Uani 1 1 d . . . . .
H55A H -0.174142 0.459709 0.810843 0.026 Uiso 1 1 calc R U . . .
C56 C -0.0767(4) 0.5014(4) 0.7505(2) 0.0189(12) Uani 1 1 d . . . . .
C57 C -0.1538(4) 0.5478(4) 0.7140(2) 0.0210(12) Uani 1 1 d . . . . .
C58 C -0.0980(4) 0.5797(4) 0.6700(2) 0.0241(13) Uani 1 1 d . . . . .
C59 C 0.0132(4) 0.5536(4) 0.6796(2) 0.0231(13) Uani 1 1 d . . . . .
C60 C 0.0965(4) 0.5777(4) 0.6452(2) 0.0191(12) Uani 1 1 d . . . . .
H60A H 0.080803 0.605960 0.610839 0.023 Uiso 1 1 calc R U . . .
C61 C 0.2004(4) 0.5644(4) 0.6564(2) 0.0220(12) Uani 1 1 d . . . . .
C62 C 0.2823(4) 0.6020(4) 0.6229(2) 0.0216(12) Uani 1 1 d . . . . .
C63 C 0.3699(4) 0.5796(4) 0.6497(2) 0.0203(12) Uani 1 1 d . . . . .
C64 C 0.3428(4) 0.5254(4) 0.6985(2) 0.0178(11) Uani 1 1 d . . . . .
C65 C 0.4103(4) 0.4844(4) 0.7362(2) 0.0212(12) Uani 1 1 d . . . . .
H65A H 0.480765 0.492506 0.728470 0.025 Uiso 1 1 calc R U . . .
C66 C 0.3889(4) 0.4325(4) 0.7841(2) 0.0204(12) Uani 1 1 d . . . . .
C67 C 0.4679(4) 0.3878(4) 0.8191(2) 0.0211(12) Uani 1 1 d . . . . .
C68 C 0.4170(4) 0.3484(4) 0.8629(2) 0.0217(12) Uani 1 1 d . . . . .
C69 C 0.3039(4) 0.3710(4) 0.8546(2) 0.0183(12) Uani 1 1 d . . . . .
C70 C 0.2187(4) 0.3488(4) 0.8902(2) 0.0205(12) Uani 1 1 d . . . . .
C71 C 0.0119(5) 0.2971(5) 0.9738(2) 0.0299(14) Uani 1 1 d . . . . .
H71A H -0.045052 0.260327 0.975699 0.036 Uiso 1 1 calc R U . . .
H71B H 0.079736 0.246633 0.976082 0.036 Uiso 1 1 calc R U . . .
C72 C -0.0109(5) 0.3695(5) 1.0230(2) 0.0377(16) Uani 1 1 d . . . . .
H72A H -0.014146 0.331391 1.056963 0.057 Uiso 1 1 calc R U . . .
H72B H -0.079018 0.418570 1.021716 0.057 Uiso 1 1 calc R U . . .
H72C H 0.045909 0.405166 1.021966 0.057 Uiso 1 1 calc R U . . .
C73 C -0.1820(4) 0.3896(4) 0.9132(2) 0.0245(13) Uani 1 1 d . . . . .
H73A H -0.185444 0.339892 0.942622 0.029 Uiso 1 1 calc R U . . .
H73B H -0.216849 0.370546 0.882864 0.029 Uiso 1 1 calc R U . . .
C74 C -0.2444(4) 0.4946(5) 0.9358(2) 0.0345(15) Uani 1 1 d . . . . .
H74A H -0.319157 0.494118 0.946524 0.052 Uiso 1 1 calc R U . . .
H74B H -0.239591 0.544856 0.907453 0.052 Uiso 1 1 calc R U . . .
H74C H -0.214465 0.511741 0.968007 0.052 Uiso 1 1 calc R U . . .
C75 C -0.2723(4) 0.5589(5) 0.7251(2) 0.0323(15) Uani 1 1 d . . . . .
H75A H -0.285783 0.493062 0.736708 0.039 Uiso 1 1 calc R U . . .
H75B H -0.303224 0.576732 0.690481 0.039 Uiso 1 1 calc R U . . .
C76 C -0.3283(5) 0.6389(5) 0.7691(3) 0.0482(19) Uani 1 1 d . . . . .
H76A H -0.405480 0.649484 0.770452 0.072 Uiso 1 1 calc R U . . .
H76B H -0.308402 0.702524 0.760140 0.072 Uiso 1 1 calc R U . . .
H76C H -0.307208 0.616227 0.804870 0.072 Uiso 1 1 calc R U . . .
C77 C -0.1371(4) 0.6321(4) 0.6193(2) 0.0266(13) Uani 1 1 d . . . . .
H77A H -0.104665 0.690068 0.611827 0.032 Uiso 1 1 calc R U . . .
H77B H -0.215107 0.659090 0.626727 0.032 Uiso 1 1 calc R U . . .
C78 C -0.1113(5) 0.5631(5) 0.5684(2) 0.0313(14) Uani 1 1 d . . . . .
H78A H -0.132049 0.602858 0.536324 0.047 Uiso 1 1 calc R U . . .
H78B H -0.150399 0.510240 0.573647 0.047 Uiso 1 1 calc R U . . .
H78C H -0.034755 0.531947 0.562320 0.047 Uiso 1 1 calc R U . . .
C79 C 0.2676(4) 0.6561(4) 0.5700(2) 0.0253(13) Uani 1 1 d . . . . .
H79A H 0.325208 0.691298 0.560710 0.030 Uiso 1 1 calc R U . . .
H79B H 0.199124 0.707786 0.574647 0.030 Uiso 1 1 calc R U . . .
C80 C 0.2685(5) 0.5834(5) 0.5223(2) 0.0388(16) Uani 1 1 d . . . . .
H80A H 0.255813 0.621889 0.488901 0.058 Uiso 1 1 calc R U . . .
H80B H 0.212509 0.547319 0.531630 0.058 Uiso 1 1 calc R U . . .
H80C H 0.337761 0.534553 0.516077 0.058 Uiso 1 1 calc R U . . .
C81 C 0.4773(4) 0.6008(4) 0.6333(2) 0.0275(13) Uani 1 1 d . . . . .
H81A H 0.504877 0.618565 0.666607 0.033 Uiso 1 1 calc R U . . .
H81B H 0.469384 0.659835 0.608971 0.033 Uiso 1 1 calc R U . . .
C82 C 0.5571(5) 0.5118(5) 0.6038(3) 0.0400(16) Uani 1 1 d . . . . .
H82A H 0.626369 0.528149 0.595836 0.060 Uiso 1 1 calc R U . . .
H82B H 0.532875 0.497118 0.569349 0.060 Uiso 1 1 calc R U . . .
H82C H 0.563710 0.452562 0.627225 0.060 Uiso 1 1 calc R U . . .
C83 C 0.5844(4) 0.3844(5) 0.8065(2) 0.0271(14) Uani 1 1 d . . . . .
H83A H 0.617989 0.368973 0.840520 0.033 Uiso 1 1 calc R U . . .
H83B H 0.592500 0.451924 0.794449 0.033 Uiso 1 1 calc R U . . .
C84 C 0.6421(5) 0.3066(5) 0.7624(3) 0.0401(17) Uani 1 1 d . . . . .
H84A H 0.717080 0.308554 0.755456 0.060 Uiso 1 1 calc R U . . .
H84B H 0.609638 0.321625 0.728495 0.060 Uiso 1 1 calc R U . . .
H84C H 0.637018 0.239183 0.774674 0.060 Uiso 1 1 calc R U . . .
C85 C 0.4779(4) 0.2943(4) 0.9074(2) 0.0231(13) Uani 1 1 d . . . . .
H85A H 0.548653 0.255082 0.890465 0.028 Uiso 1 1 calc R U . . .
H85B H 0.439316 0.246095 0.925401 0.028 Uiso 1 1 calc R U . . .
C86 C 0.4924(5) 0.3678(5) 0.9511(2) 0.0347(15) Uani 1 1 d . . . . .
H86A H 0.529902 0.329512 0.979618 0.052 Uiso 1 1 calc R U . . .
H86B H 0.422578 0.407453 0.967683 0.052 Uiso 1 1 calc R U . . .
H86C H 0.533948 0.413334 0.933841 0.052 Uiso 1 1 calc R U . . .
C9S C 0.3703(6) 0.6329(5) 0.8725(3) 0.053(2) Uani 1 1 d . . . . .
H9SA H 0.381607 0.560687 0.860663 0.064 Uiso 1 1 calc R U . . .
Cl1 Cl 0.2608(2) 0.6642(2) 0.92053(15) 0.1309(13) Uani 1 1 d . . . . .
Cl2 Cl 0.48402(19) 0.6477(2) 0.89967(9) 0.0792(7) Uani 1 1 d . . . . .
Cl3 Cl 0.35728(16) 0.70986(14) 0.81397(9) 0.0596(6) Uani 1 1 d . . . . .
loop_
_atom_site_aniso_label
_atom_site_aniso_U_11
_atom_site_aniso_U_22
_atom_site_aniso_U_33
_atom_site_aniso_U_23
_atom_site_aniso_U_13
_atom_site_aniso_U_12
Zn1 0.0179(3) 0.0241(4) 0.0164(3) 0.0014(3) -0.0044(3) -0.0048(3)
Zn2 0.0154(3) 0.0253(4) 0.0170(3) 0.0037(3) -0.0025(3) -0.0060(3)
N1 0.017(2) 0.020(2) 0.020(3) 0.0019(19) -0.0031(19) -0.0069(19)
N2 0.020(2) 0.025(2) 0.015(2) 0.0008(19) -0.0039(19) -0.0012(19)
N3 0.019(2) 0.026(3) 0.016(2) 0.0005(19) -0.0045(19) -0.005(2)
N4 0.014(2) 0.031(3) 0.013(2) 0.0028(19) -0.0056(18) -0.0055(19)
N5 0.016(2) 0.028(3) 0.014(2) 0.0035(19) -0.0036(18) -0.0042(19)
N6 0.017(2) 0.030(3) 0.016(2) 0.003(2) -0.0048(19) -0.005(2)
N7 0.011(2) 0.025(2) 0.021(3) 0.006(2) -0.0009(18) -0.0041(19)
N8 0.012(2) 0.026(2) 0.016(2) 0.0061(19) -0.0028(18) -0.0031(18)
N9 0.016(2) 0.023(2) 0.020(2) 0.0071(19) -0.0067(19) -0.0073(19)
N10 0.038(3) 0.023(3) 0.046(3) 0.005(2) 0.000(3) -0.018(2)
C1S 0.030(4) 0.027(4) 0.021(4) -0.007(4) -0.010(3) -0.013(3)
C2S 0.024(6) 0.023(6) 0.041(7) -0.005(5) -0.004(5) -0.009(4)
C3S 0.053(12) 0.10(2) 0.050(11) -0.031(12) 0.035(8) -0.018(13)
C4S 0.024(7) 0.019(6) 0.054(11) 0.012(7) -0.013(7) -0.011(5)
O1S 0.070(7) 0.068(6) 0.041(6) 0.014(4) -0.031(5) -0.040(5)
N11 0.025(3) 0.033(3) 0.034(3) 0.001(2) 0.005(2) -0.008(2)
C5S 0.039(4) 0.030(4) 0.036(4) -0.004(3) 0.005(3) -0.001(3)
C6S 0.063(8) 0.023(5) 0.031(6) -0.004(4) 0.012(5) -0.013(5)
C7S 0.069(6) 0.032(5) 0.015(5) -0.003(4) -0.017(4) -0.002(4)
C8S 0.044(8) 0.051(7) 0.063(10) -0.036(7) 0.008(7) -0.013(6)
O2S 0.079(6) 0.057(5) 0.081(7) 0.006(4) -0.056(5) -0.004(4)
C1 0.025(3) 0.024(3) 0.013(3) 0.000(2) -0.008(2) -0.012(2)
C2 0.023(3) 0.031(3) 0.017(3) 0.000(2) -0.005(2) -0.011(2)
C3 0.015(3) 0.024(3) 0.020(3) -0.004(2) 0.000(2) -0.009(2)
C4 0.017(3) 0.020(3) 0.020(3) -0.001(2) -0.003(2) -0.008(2)
C5 0.023(3) 0.026(3) 0.017(3) -0.001(2) -0.003(2) -0.007(2)
C6 0.018(3) 0.024(3) 0.023(3) 0.007(2) -0.004(2) -0.003(2)
C7 0.019(3) 0.022(3) 0.031(3) 0.007(2) -0.004(2) -0.007(2)
C8 0.020(3) 0.022(3) 0.024(3) 0.002(2) -0.006(2) -0.010(2)
C9 0.014(3) 0.025(3) 0.018(3) 0.004(2) -0.008(2) -0.009(2)
C10 0.023(3) 0.027(3) 0.014(3) 0.002(2) -0.007(2) -0.010(2)
C11 0.024(3) 0.025(3) 0.014(3) -0.001(2) -0.001(2) -0.010(2)
C12 0.025(3) 0.026(3) 0.015(3) -0.003(2) -0.002(2) -0.002(2)
C13 0.023(3) 0.026(3) 0.018(3) 0.001(2) -0.001(2) -0.009(2)
C14 0.024(3) 0.027(3) 0.018(3) -0.001(2) -0.002(2) -0.003(2)
C15 0.016(3) 0.028(3) 0.024(3) -0.004(2) -0.003(2) -0.001(2)
C16 0.018(3) 0.024(3) 0.019(3) 0.002(2) -0.008(2) -0.004(2)
C17 0.017(3) 0.035(3) 0.022(3) 0.006(3) -0.006(2) -0.003(2)
C18 0.019(3) 0.031(3) 0.025(3) 0.009(3) -0.011(2) -0.006(2)
C19 0.017(3) 0.022(3) 0.021(3) 0.003(2) -0.007(2) 0.003(2)
C20 0.025(3) 0.022(3) 0.024(3) 0.002(2) -0.007(2) -0.008(2)
C21 0.020(3) 0.035(3) 0.020(3) -0.001(2) -0.003(2) -0.011(3)
C22 0.049(4) 0.062(5) 0.027(4) 0.015(3) -0.014(3) -0.030(4)
C23 0.020(3) 0.035(3) 0.019(3) -0.001(3) -0.001(2) 0.002(3)
C24 0.027(3) 0.054(4) 0.027(4) 0.006(3) -0.005(3) -0.014(3)
C25 0.020(3) 0.042(4) 0.027(3) 0.006(3) -0.008(3) 0.001(3)
C26 0.037(4) 0.038(4) 0.051(5) 0.009(3) 0.009(3) 0.009(3)
C27 0.021(3) 0.035(3) 0.019(3) 0.005(2) -0.011(2) -0.005(2)
C28 0.038(4) 0.053(4) 0.033(4) 0.016(3) -0.017(3) -0.020(3)
C29 0.025(3) 0.045(4) 0.012(3) 0.004(3) -0.003(2) -0.009(3)
C30 0.036(4) 0.038(4) 0.022(3) -0.007(3) -0.004(3) -0.006(3)
C31 0.024(3) 0.031(3) 0.023(3) 0.000(3) 0.004(2) -0.008(3)
C32 0.023(3) 0.038(4) 0.026(3) 0.003(3) 0.005(3) -0.002(3)
C33 0.024(3) 0.044(4) 0.021(3) 0.005(3) -0.009(2) -0.009(3)
C34 0.026(3) 0.053(4) 0.033(4) 0.011(3) -0.004(3) -0.010(3)
C35 0.018(3) 0.049(4) 0.023(3) 0.005(3) -0.011(2) -0.011(3)
C36 0.033(4) 0.057(4) 0.022(3) -0.003(3) -0.004(3) -0.016(3)
C37 0.019(3) 0.038(3) 0.014(3) 0.004(2) -0.005(2) -0.001(2)
C38 0.013(3) 0.031(3) 0.020(3) 0.004(2) -0.005(2) -0.009(2)
C39 0.013(3) 0.033(3) 0.011(3) 0.002(2) -0.002(2) -0.009(2)
C40 0.023(3) 0.034(3) 0.015(3) 0.002(2) -0.004(2) -0.003(3)
C41 0.033(4) 0.037(4) 0.034(4) 0.017(3) -0.002(3) -0.007(3)
C42 0.014(3) 0.030(3) 0.010(3) 0.001(2) -0.001(2) -0.008(2)
C43 0.026(3) 0.028(3) 0.024(3) 0.004(2) -0.005(2) -0.007(3)
C44 0.033(4) 0.048(4) 0.020(3) 0.000(3) -0.007(3) -0.006(3)
C45 0.010(3) 0.026(3) 0.016(3) 0.001(2) 0.000(2) -0.009(2)
C46 0.012(3) 0.034(3) 0.021(3) 0.005(2) -0.001(2) -0.010(2)
C51 0.021(3) 0.023(3) 0.017(3) 0.001(2) -0.001(2) -0.008(2)
C52 0.015(3) 0.028(3) 0.020(3) -0.003(2) 0.000(2) -0.003(2)
C53 0.021(3) 0.024(3) 0.022(3) 0.001(2) -0.001(2) -0.007(2)
C54 0.015(3) 0.024(3) 0.024(3) -0.002(2) -0.001(2) -0.004(2)
C55 0.019(3) 0.027(3) 0.020(3) 0.005(2) -0.005(2) -0.006(2)
C56 0.020(3) 0.016(3) 0.021(3) 0.005(2) -0.004(2) -0.006(2)
C57 0.014(3) 0.026(3) 0.024(3) 0.006(2) -0.005(2) -0.007(2)
C58 0.021(3) 0.031(3) 0.021(3) 0.004(2) -0.006(2) -0.004(2)
C59 0.017(3) 0.031(3) 0.021(3) 0.013(2) -0.008(2) -0.004(2)
C60 0.023(3) 0.022(3) 0.014(3) 0.006(2) -0.005(2) -0.007(2)
C61 0.024(3) 0.021(3) 0.023(3) 0.001(2) -0.004(2) -0.009(2)
C62 0.022(3) 0.026(3) 0.016(3) -0.001(2) 0.009(2) -0.010(2)
C63 0.016(3) 0.022(3) 0.021(3) 0.000(2) 0.000(2) -0.001(2)
C64 0.016(3) 0.024(3) 0.014(3) 0.004(2) 0.001(2) -0.009(2)
C65 0.014(3) 0.030(3) 0.019(3) 0.003(2) 0.001(2) -0.008(2)
C66 0.015(3) 0.025(3) 0.022(3) 0.001(2) -0.001(2) -0.006(2)
C67 0.016(3) 0.028(3) 0.022(3) 0.000(2) -0.009(2) -0.008(2)
C68 0.019(3) 0.030(3) 0.018(3) 0.001(2) -0.002(2) -0.007(2)
C69 0.013(3) 0.024(3) 0.019(3) 0.000(2) 0.001(2) -0.008(2)
C70 0.020(3) 0.028(3) 0.013(3) 0.004(2) -0.005(2) -0.003(2)
C71 0.021(3) 0.047(4) 0.025(3) 0.010(3) -0.008(2) -0.012(3)
C72 0.037(4) 0.042(4) 0.031(4) 0.006(3) 0.000(3) -0.005(3)
C73 0.020(3) 0.037(3) 0.014(3) 0.003(2) -0.002(2) -0.002(2)
C74 0.018(3) 0.054(4) 0.030(4) -0.001(3) -0.004(3) -0.004(3)
C75 0.017(3) 0.046(4) 0.036(4) 0.019(3) -0.009(3) -0.010(3)
C76 0.029(4) 0.043(4) 0.066(5) 0.012(4) 0.010(3) -0.004(3)
C77 0.015(3) 0.040(4) 0.024(3) 0.010(3) -0.009(2) -0.003(3)
C78 0.035(4) 0.039(4) 0.025(3) 0.014(3) -0.014(3) -0.014(3)
C79 0.024(3) 0.034(3) 0.020(3) 0.009(3) -0.004(2) -0.012(3)
C80 0.042(4) 0.055(4) 0.019(3) 0.011(3) 0.002(3) -0.014(3)
C81 0.020(3) 0.036(3) 0.027(3) 0.009(3) -0.001(2) -0.009(3)
C82 0.029(4) 0.048(4) 0.041(4) 0.003(3) -0.002(3) -0.008(3)
C83 0.016(3) 0.042(4) 0.026(3) 0.009(3) -0.004(2) -0.010(3)
C84 0.020(3) 0.044(4) 0.051(4) 0.016(3) 0.004(3) -0.002(3)
C85 0.014(3) 0.032(3) 0.024(3) 0.009(2) -0.005(2) -0.006(2)
C86 0.030(4) 0.049(4) 0.030(4) 0.002(3) -0.011(3) -0.018(3)
C9S 0.059(5) 0.028(4) 0.062(5) -0.002(3) 0.000(4) 0.006(3)
Cl1 0.091(2) 0.095(2) 0.177(3) 0.010(2) 0.076(2) -0.0151(17)
Cl2 0.0738(16) 0.110(2) 0.0524(14) 0.0065(13) -0.0235(12) -0.0111(14)
Cl3 0.0645(13) 0.0469(11) 0.0658(14) -0.0049(9) -0.0309(11) 0.0013(9)
loop_
_atom_type_symbol
_atom_type_description
_atom_type_scat_dispersion_real
_atom_type_scat_dispersion_imag
_atom_type_scat_source
C C 0.0033 0.0016 'International Tables Vol C Tables 4.2.6.8 and 6.1.1.4'
H H 0.0000 0.0000 'International Tables Vol C Tables 4.2.6.8 and 6.1.1.4'
N N 0.0061 0.0033 'International Tables Vol C Tables 4.2.6.8 and 6.1.1.4'
O O 0.0106 0.0060 'International Tables Vol C Tables 4.2.6.8 and 6.1.1.4'
Zn Zn 0.2839 1.4301 'International Tables Vol C Tables 4.2.6.8 and 6.1.1.4'
Cl Cl 0.1484 0.1585 'International Tables Vol C Tables 4.2.6.8 and 6.1.1.4'
loop_
_geom_angle_atom_site_label_1
_geom_angle_atom_site_label_2
_geom_angle_atom_site_label_3
_geom_angle
_geom_angle_site_symmetry_1
_geom_angle_site_symmetry_3
_geom_angle_publ_flag
N2 Zn1 N4 156.17(18) . . ?
N2 Zn1 N1 89.92(17) . . ?
N4 Zn1 N1 86.08(17) . . ?
N2 Zn1 N3 86.26(17) . . ?
N4 Zn1 N3 89.42(17) . . ?
N1 Zn1 N3 159.76(17) . . ?
N2 Zn1 N10 105.38(19) . . ?
N4 Zn1 N10 98.44(18) . . ?
N1 Zn1 N10 98.22(18) . . ?
N3 Zn1 N10 101.96(18) . . ?
N8 Zn2 N9 90.01(16) . . ?
N8 Zn2 N7 86.76(16) . . ?
N9 Zn2 N7 161.12(18) . . ?
N8 Zn2 N6 159.83(18) . . ?
N9 Zn2 N6 86.69(16) . . ?
N7 Zn2 N6 89.97(16) . . ?
N8 Zn2 N11 107.30(18) . . ?
N9 Zn2 N11 101.20(18) . . ?
N7 Zn2 N11 97.52(18) . . ?
N6 Zn2 N11 92.85(18) . . ?
C4 N1 C1 106.3(4) . . ?
C4 N1 Zn1 123.5(3) . . ?
C1 N1 Zn1 125.5(3) . . ?
C6 N2 C9 105.9(4) . . ?
C6 N2 Zn1 126.0(3) . . ?
C9 N2 Zn1 127.8(3) . . ?
C11 N3 C14 106.3(4) . . ?
C11 N3 Zn1 127.4(3) . . ?
C14 N3 Zn1 126.2(3) . . ?
C16 N4 C19 106.8(4) . . ?
C16 N4 Zn1 125.3(3) . . ?
C19 N4 Zn1 127.8(3) . . ?
C45 N5 C38 110.7(4) . . ?
C45 N5 H5A 124.6 . . ?
C38 N5 H5A 124.6 . . ?
C54 N6 C51 107.3(4) . . ?
C54 N6 Zn2 124.0(3) . . ?
C51 N6 Zn2 128.4(3) . . ?
C56 N7 C59 106.5(4) . . ?
C56 N7 Zn2 125.7(3) . . ?
C59 N7 Zn2 127.5(3) . . ?
C64 N8 C61 106.3(4) . . ?
C64 N8 Zn2 126.1(3) . . ?
C61 N8 Zn2 127.3(3) . . ?
C66 N9 C69 106.8(4) . . ?
C66 N9 Zn2 123.5(3) . . ?
C69 N9 Zn2 128.2(3) . . ?
C1S N10 Zn1 134.7(6) . . ?
C1SA N10 Zn1 112.4(6) . . ?
N10 C1S C2S 109.1(8) . . ?
N10 C1S C4S 110.9(8) . . ?
C2S C1S C4S 109.9(10) . . ?
N10 C1S H1SA 109.0 . . ?
C2S C1S H1SA 109.0 . . ?
C4S C1S H1SA 109.0 . . ?
C1S C2S C3S 107.8(11) . . ?
C1S C2S H2SA 110.1 . . ?
C3S C2S H2SA 110.1 . . ?
C1S C2S H2SB 110.1 . . ?
C3S C2S H2SB 110.1 . . ?
H2SA C2S H2SB 108.5 . . ?
C2S C3S H3SA 109.5 . . ?
C2S C3S H3SB 109.5 . . ?
H3SA C3S H3SB 109.5 . . ?
C2S C3S H3SC 109.5 . . ?
H3SA C3S H3SC 109.5 . . ?
H3SB C3S H3SC 109.5 . . ?
O1S C4S C1S 108.6(11) . . ?
O1S C4S H4SA 110.0 . . ?
C1S C4S H4SA 110.0 . . ?
O1S C4S H4SB 110.0 . . ?
C1S C4S H4SB 110.0 . . ?
H4SA C4S H4SB 108.4 . . ?
C4S O1S H1SB 109.5 . . ?
C4SA C1SA C2SA 109.8(15) . . ?
C4SA C1SA N10 112.2(14) . . ?
C2SA C1SA N10 111.2(10) . . ?
C4SA C1SA H1SC 107.8 . . ?
C2SA C1SA H1SC 107.8 . . ?
N10 C1SA H1SC 107.8 . . ?
C1SA C2SA C3SA 102.4(15) . . ?
C1SA C2SA H2SC 111.3 . . ?
C3SA C2SA H2SC 111.3 . . ?
C1SA C2SA H2SD 111.3 . . ?
C3SA C2SA H2SD 111.3 . . ?
H2SC C2SA H2SD 109.2 . . ?
C2SA C3SA H3SD 109.5 . . ?
C2SA C3SA H3SE 109.5 . . ?
H3SD C3SA H3SE 109.5 . . ?
C2SA C3SA H3SF 109.5 . . ?
H3SD C3SA H3SF 109.5 . . ?
H3SE C3SA H3SF 109.5 . . ?
O1SA C4SA C1SA 109.9(18) . . ?
O1SA C4SA H4SC 109.7 . . ?
C1SA C4SA H4SC 109.7 . . ?
O1SA C4SA H4SD 109.7 . . ?
C1SA C4SA H4SD 109.7 . . ?
H4SC C4SA H4SD 108.2 . . ?
C4SA O1SA H1SD 109.5 . . ?
C5S N11 Zn2 128.6(4) . . ?
C5S N11 H11A 105.1 . . ?
Zn2 N11 H11A 105.1 . . ?
C5S N11 H11B 105.1 . . ?
Zn2 N11 H11B 105.1 . . ?
H11A N11 H11B 105.9 . . ?
C6SA C5S N11 122.0(12) . . ?
N11 C5S C6S 114.4(6) . . ?
N11 C5S C8S 103.4(6) . . ?
C6S C5S C8S 108.3(8) . . ?
C6SA C5S C8SA 113.6(14) . . ?
N11 C5S C8SA 92.8(9) . . ?
C5S C6S C7S 109.9(8) . . ?
C5S C6S H6SA 109.7 . . ?
C7S C6S H6SA 109.7 . . ?
C5S C6S H6SB 109.7 . . ?
C7S C6S H6SB 109.7 . . ?
H6SA C6S H6SB 108.2 . . ?
C6S C7S H7SA 109.5 . . ?
C6S C7S H7SB 109.5 . . ?
H7SA C7S H7SB 109.5 . . ?
C6S C7S H7SC 109.5 . . ?
H7SA C7S H7SC 109.5 . . ?
H7SB C7S H7SC 109.5 . . ?
O2S C8S C5S 111.4(9) . . ?
O2S C8S H8SA 109.4 . . ?
C5S C8S H8SA 109.4 . . ?
O2S C8S H8SB 109.4 . . ?
C5S C8S H8SB 109.4 . . ?
H8SA C8S H8SB 108.0 . . ?
C8S O2S H2SE 109.5 . . ?
C5S C6SA C7SA 110.1(18) . . ?
C5S C6SA H6SC 109.6 . . ?
C7SA C6SA H6SC 109.6 . . ?
C5S C6SA H6SD 109.6 . . ?
C7SA C6SA H6SD 109.6 . . ?
H6SC C6SA H6SD 108.2 . . ?
C6SA C7SA H7SD 109.5 . . ?
C6SA C7SA H7SE 109.5 . . ?
H7SD C7SA H7SE 109.5 . . ?
C6SA C7SA H7SF 109.5 . . ?
H7SD C7SA H7SF 109.5 . . ?
H7SE C7SA H7SF 109.5 . . ?
O2SA C8SA C5S 107.3(17) . . ?
O2SA C8SA H8SC 110.3 . . ?
C5S C8SA H8SC 110.3 . . ?
O2SA C8SA H8SD 110.3 . . ?
C5S C8SA H8SD 110.3 . . ?
H8SC C8SA H8SD 108.5 . . ?
C8SA O2SA H2SF 109.5 . . ?
N1 C1 C20 122.0(5) . . ?
N1 C1 C2 109.1(4) . . ?
C20 C1 C2 128.8(5) . . ?
C3 C2 C1 105.9(5) . . ?
C3 C2 C21 122.7(5) . . ?
C1 C2 C21 131.3(5) . . ?
C2 C3 C4 108.0(5) . . ?
C2 C3 C23 128.4(5) . . ?
C4 C3 C23 123.4(5) . . ?
N1 C4 C5 125.5(5) . . ?
N1 C4 C3 110.6(4) . . ?
C5 C4 C3 123.8(5) . . ?
C6 C5 C4 127.9(5) . . ?
C6 C5 H5B 116.1 . . ?
C4 C5 H5B 116.1 . . ?
N2 C6 C5 124.2(5) . . ?
N2 C6 C7 110.2(5) . . ?
C5 C6 C7 125.5(5) . . ?
C8 C7 C6 107.0(5) . . ?
C8 C7 C25 128.8(5) . . ?
C6 C7 C25 124.1(5) . . ?
C7 C8 C9 106.9(5) . . ?
C7 C8 C27 127.0(5) . . ?
C9 C8 C27 125.7(5) . . ?
N2 C9 C10 124.4(5) . . ?
N2 C9 C8 110.0(5) . . ?
C10 C9 C8 125.6(5) . . ?
C9 C10 C11 126.9(5) . . ?
C9 C10 H10A 116.5 . . ?
C11 C10 H10A 116.5 . . ?
N3 C11 C10 123.8(5) . . ?
N3 C11 C12 109.9(5) . . ?
C10 C11 C12 125.7(5) . . ?
C13 C12 C11 107.0(5) . . ?
C13 C12 C29 126.6(5) . . ?
C11 C12 C29 126.4(5) . . ?
C12 C13 C14 106.3(5) . . ?
C12 C13 C31 128.1(5) . . ?
C14 C13 C31 125.6(5) . . ?
N3 C14 C15 124.2(5) . . ?
N3 C14 C13 110.4(5) . . ?
C15 C14 C13 125.2(5) . . ?
C16 C15 C14 127.6(5) . . ?
C16 C15 H15A 116.2 . . ?
C14 C15 H15A 116.2 . . ?
N4 C16 C15 126.3(5) . . ?
N4 C16 C17 110.6(5) . . ?
C15 C16 C17 123.1(5) . . ?
C18 C17 C16 107.4(5) . . ?
C18 C17 C33 128.1(5) . . ?
C16 C17 C33 124.2(5) . . ?
C17 C18 C19 106.2(5) . . ?
C17 C18 C35 122.9(5) . . ?
C19 C18 C35 130.2(5) . . ?
N4 C19 C20 123.2(5) . . ?
N4 C19 C18 108.9(5) . . ?
C20 C19 C18 127.9(5) . . ?
C19 C20 C1 125.6(5) . . ?
C19 C20 C37 118.1(5) . . ?
C1 C20 C37 116.3(5) . . ?
C22 C21 C2 113.7(5) . . ?
C22 C21 H21A 108.8 . . ?
C2 C21 H21A 108.8 . . ?
C22 C21 H21B 108.8 . . ?
C2 C21 H21B 108.8 . . ?
H21A C21 H21B 107.7 . . ?
C21 C22 H22A 109.5 . . ?
C21 C22 H22B 109.5 . . ?
H22A C22 H22B 109.5 . . ?
C21 C22 H22C 109.5 . . ?
H22A C22 H22C 109.5 . . ?
H22B C22 H22C 109.5 . . ?
C3 C23 C24 113.0(5) . . ?
C3 C23 H23A 109.0 . . ?
C24 C23 H23A 109.0 . . ?
C3 C23 H23B 109.0 . . ?
C24 C23 H23B 109.0 . . ?
H23A C23 H23B 107.8 . . ?
C23 C24 H24A 109.5 . . ?
C23 C24 H24B 109.5 . . ?
H24A C24 H24B 109.5 . . ?
C23 C24 H24C 109.5 . . ?
H24A C24 H24C 109.5 . . ?
H24B C24 H24C 109.5 . . ?
C7 C25 C26 114.3(5) . . ?
C7 C25 H25A 108.7 . . ?
C26 C25 H25A 108.7 . . ?
C7 C25 H25B 108.7 . . ?
C26 C25 H25B 108.7 . . ?
H25A C25 H25B 107.6 . . ?
C25 C26 H26A 109.5 . . ?
C25 C26 H26B 109.5 . . ?
H26A C26 H26B 109.5 . . ?
C25 C26 H26C 109.5 . . ?
H26A C26 H26C 109.5 . . ?
H26B C26 H26C 109.5 . . ?
C8 C27 C28 112.7(5) . . ?
C8 C27 H27A 109.0 . . ?
C28 C27 H27A 109.0 . . ?
C8 C27 H27B 109.0 . . ?
C28 C27 H27B 109.0 . . ?
H27A C27 H27B 107.8 . . ?
C27 C28 H28A 109.5 . . ?
C27 C28 H28B 109.5 . . ?
H28A C28 H28B 109.5 . . ?
C27 C28 H28C 109.5 . . ?
H28A C28 H28C 109.5 . . ?
H28B C28 H28C 109.5 . . ?
C12 C29 C30 113.5(5) . . ?
C12 C29 H29A 108.9 . . ?
C30 C29 H29A 108.9 . . ?
C12 C29 H29B 108.9 . . ?
C30 C29 H29B 108.9 . . ?
H29A C29 H29B 107.7 . . ?
C29 C30 H30A 109.5 . . ?
C29 C30 H30B 109.5 . . ?
H30A C30 H30B 109.5 . . ?
C29 C30 H30C 109.5 . . ?
H30A C30 H30C 109.5 . . ?
H30B C30 H30C 109.5 . . ?
C13 C31 C32 113.9(5) . . ?
C13 C31 H31A 108.8 . . ?
C32 C31 H31A 108.8 . . ?
C13 C31 H31B 108.8 . . ?
C32 C31 H31B 108.8 . . ?
H31A C31 H31B 107.7 . . ?
C31 C32 H32A 109.5 . . ?
C31 C32 H32B 109.5 . . ?
H32A C32 H32B 109.5 . . ?
C31 C32 H32C 109.5 . . ?
H32A C32 H32C 109.5 . . ?
H32B C32 H32C 109.5 . . ?
C17 C33 C34 113.1(5) . . ?
C17 C33 H33A 109.0 . . ?
C34 C33 H33A 109.0 . . ?
C17 C33 H33B 109.0 . . ?
C34 C33 H33B 109.0 . . ?
H33A C33 H33B 107.8 . . ?
C33 C34 H34A 109.5 . . ?
C33 C34 H34B 109.5 . . ?
H34A C34 H34B 109.5 . . ?
C33 C34 H34C 109.5 . . ?
H34A C34 H34C 109.5 . . ?
H34B C34 H34C 109.5 . . ?
C18 C35 C36 112.5(5) . . ?
C18 C35 H35A 109.1 . . ?
C36 C35 H35A 109.1 . . ?
C18 C35 H35B 109.1 . . ?
C36 C35 H35B 109.1 . . ?
H35A C35 H35B 107.8 . . ?
C35 C36 H36A 109.5 . . ?
C35 C36 H36B 109.5 . . ?
H36A C36 H36B 109.5 . . ?
C35 C36 H36C 109.5 . . ?
H36A C36 H36C 109.5 . . ?
H36B C36 H36C 109.5 . . ?
C38 C37 C20 116.7(5) . . ?
C38 C37 H37A 108.1 . . ?
C20 C37 H37A 108.1 . . ?
C38 C37 H37B 108.1 . . ?
C20 C37 H37B 108.1 . . ?
H37A C37 H37B 107.3 . . ?
N5 C38 C39 107.2(5) . . ?
N5 C38 C37 123.4(5) . . ?
C39 C38 C37 129.1(5) . . ?
C38 C39 C42 107.0(5) . . ?
C38 C39 C40 123.9(5) . . ?
C42 C39 C40 129.0(5) . . ?
C39 C40 C41 111.9(4) . . ?
C39 C40 H40A 109.2 . . ?
C41 C40 H40A 109.2 . . ?
C39 C40 H40B 109.2 . . ?
C41 C40 H40B 109.2 . . ?
H40A C40 H40B 107.9 . . ?
C40 C41 H41A 109.5 . . ?
C40 C41 H41B 109.5 . . ?
H41A C41 H41B 109.5 . . ?
C40 C41 H41C 109.5 . . ?
H41A C41 H41C 109.5 . . ?
H41B C41 H41C 109.5 . . ?
C45 C42 C39 108.0(5) . . ?
C45 C42 C43 125.0(5) . . ?
C39 C42 C43 126.9(5) . . ?
C42 C43 C44 113.7(5) . . ?
C42 C43 H43A 108.8 . . ?
C44 C43 H43A 108.8 . . ?
C42 C43 H43B 108.8 . . ?
C44 C43 H43B 108.8 . . ?
H43A C43 H43B 107.7 . . ?
C43 C44 H44A 109.5 . . ?
C43 C44 H44B 109.5 . . ?
H44A C44 H44B 109.5 . . ?
C43 C44 H44C 109.5 . . ?
H44A C44 H44C 109.5 . . ?
H44B C44 H44C 109.5 . . ?
N5 C45 C42 107.0(5) . . ?
N5 C45 C46 123.7(4) . . ?
C42 C45 C46 129.3(5) . . ?
C45 C46 C70 115.0(5) . . ?
C45 C46 H46A 108.5 . . ?
C70 C46 H46A 108.5 . . ?
C45 C46 H46B 108.5 . . ?
C70 C46 H46B 108.5 . . ?
H46A C46 H46B 107.5 . . ?
N6 C51 C70 123.3(5) . . ?
N6 C51 C52 108.6(4) . . ?
C70 C51 C52 128.2(5) . . ?
C53 C52 C51 106.7(5) . . ?
C53 C52 C71 121.2(5) . . ?
C51 C52 C71 132.0(5) . . ?
C52 C53 C54 107.1(5) . . ?
C52 C53 C73 129.2(5) . . ?
C54 C53 C73 123.6(5) . . ?
N6 C54 C55 126.4(5) . . ?
N6 C54 C53 110.3(5) . . ?
C55 C54 C53 123.3(5) . . ?
C56 C55 C54 127.8(5) . . ?
C56 C55 H55A 116.1 . . ?
C54 C55 H55A 116.1 . . ?
N7 C56 C55 124.8(5) . . ?
N7 C56 C57 110.3(4) . . ?
C55 C56 C57 124.9(5) . . ?
C58 C57 C56 106.4(5) . . ?
C58 C57 C75 127.9(5) . . ?
C56 C57 C75 125.7(5) . . ?
C57 C58 C59 106.6(5) . . ?
C57 C58 C77 129.2(5) . . ?
C59 C58 C77 124.1(5) . . ?
N7 C59 C60 124.8(5) . . ?
N7 C59 C58 110.1(5) . . ?
C60 C59 C58 125.1(5) . . ?
C61 C60 C59 126.2(5) . . ?
C61 C60 H60A 116.9 . . ?
C59 C60 H60A 116.9 . . ?
N8 C61 C60 125.0(5) . . ?
N8 C61 C62 110.0(5) . . ?
C60 C61 C62 124.9(5) . . ?
C63 C62 C61 106.8(5) . . ?
C63 C62 C79 128.7(5) . . ?
C61 C62 C79 124.5(5) . . ?
C62 C63 C64 106.5(5) . . ?
C62 C63 C81 129.2(5) . . ?
C64 C63 C81 124.2(5) . . ?
N8 C64 C65 123.7(4) . . ?
N8 C64 C63 110.3(4) . . ?
C65 C64 C63 126.0(5) . . ?
C64 C65 C66 128.8(5) . . ?
C64 C65 H65A 115.6 . . ?
C66 C65 H65A 115.6 . . ?
N9 C66 C65 125.5(5) . . ?
N9 C66 C67 110.5(4) . . ?
C65 C66 C67 124.0(5) . . ?
C68 C67 C66 107.3(5) . . ?
C68 C67 C83 128.3(5) . . ?
C66 C67 C83 124.4(5) . . ?
C67 C68 C69 106.1(4) . . ?
C67 C68 C85 120.8(5) . . ?
C69 C68 C85 133.1(5) . . ?
N9 C69 C70 123.4(5) . . ?
N9 C69 C68 109.2(4) . . ?
C70 C69 C68 127.4(5) . . ?
C69 C70 C51 126.9(5) . . ?
C69 C70 C46 116.8(4) . . ?
C51 C70 C46 116.2(5) . . ?
C72 C71 C52 113.9(5) . . ?
C72 C71 H71A 108.8 . . ?
C52 C71 H71A 108.8 . . ?
C72 C71 H71B 108.8 . . ?
C52 C71 H71B 108.8 . . ?
H71A C71 H71B 107.7 . . ?
C71 C72 H72A 109.5 . . ?
C71 C72 H72B 109.5 . . ?
H72A C72 H72B 109.5 . . ?
C71 C72 H72C 109.5 . . ?
H72A C72 H72C 109.5 . . ?
H72B C72 H72C 109.5 . . ?
C53 C73 C74 114.0(5) . . ?
C53 C73 H73A 108.7 . . ?
C74 C73 H73A 108.7 . . ?
C53 C73 H73B 108.7 . . ?
C74 C73 H73B 108.7 . . ?
H73A C73 H73B 107.6 . . ?
C73 C74 H74A 109.5 . . ?
C73 C74 H74B 109.5 . . ?
H74A C74 H74B 109.5 . . ?
C73 C74 H74C 109.5 . . ?
H74A C74 H74C 109.5 . . ?
H74B C74 H74C 109.5 . . ?
C57 C75 C76 113.6(5) . . ?
C57 C75 H75A 108.9 . . ?
C76 C75 H75A 108.9 . . ?
C57 C75 H75B 108.9 . . ?
C76 C75 H75B 108.9 . . ?
H75A C75 H75B 107.7 . . ?
C75 C76 H76A 109.5 . . ?
C75 C76 H76B 109.5 . . ?
H76A C76 H76B 109.5 . . ?
C75 C76 H76C 109.5 . . ?
H76A C76 H76C 109.5 . . ?
H76B C76 H76C 109.5 . . ?
C58 C77 C78 113.4(5) . . ?
C58 C77 H77A 108.9 . . ?
C78 C77 H77A 108.9 . . ?
C58 C77 H77B 108.9 . . ?
C78 C77 H77B 108.9 . . ?
H77A C77 H77B 107.7 . . ?
C77 C78 H78A 109.5 . . ?
C77 C78 H78B 109.5 . . ?
H78A C78 H78B 109.5 . . ?
C77 C78 H78C 109.5 . . ?
H78A C78 H78C 109.5 . . ?
H78B C78 H78C 109.5 . . ?
C62 C79 C80 112.0(5) . . ?
C62 C79 H79A 109.2 . . ?
C80 C79 H79A 109.2 . . ?
C62 C79 H79B 109.2 . . ?
C80 C79 H79B 109.2 . . ?
H79A C79 H79B 107.9 . . ?
C79 C80 H80A 109.5 . . ?
C79 C80 H80B 109.5 . . ?
H80A C80 H80B 109.5 . . ?
C79 C80 H80C 109.5 . . ?
H80A C80 H80C 109.5 . . ?
H80B C80 H80C 109.5 . . ?
C63 C81 C82 112.7(5) . . ?
C63 C81 H81A 109.1 . . ?
C82 C81 H81A 109.1 . . ?
C63 C81 H81B 109.1 . . ?
C82 C81 H81B 109.1 . . ?
H81A C81 H81B 107.8 . . ?
C81 C82 H82A 109.5 . . ?
C81 C82 H82B 109.5 . . ?
H82A C82 H82B 109.5 . . ?
C81 C82 H82C 109.5 . . ?
H82A C82 H82C 109.5 . . ?
H82B C82 H82C 109.5 . . ?
C67 C83 C84 113.0(5) . . ?
C67 C83 H83A 109.0 . . ?
C84 C83 H83A 109.0 . . ?
C67 C83 H83B 109.0 . . ?
C84 C83 H83B 109.0 . . ?
H83A C83 H83B 107.8 . . ?
C83 C84 H84A 109.5 . . ?
C83 C84 H84B 109.5 . . ?
H84A C84 H84B 109.5 . . ?
C83 C84 H84C 109.5 . . ?
H84A C84 H84C 109.5 . . ?
H84B C84 H84C 109.5 . . ?
C68 C85 C86 112.3(5) . . ?
C68 C85 H85A 109.1 . . ?
C86 C85 H85A 109.1 . . ?
C68 C85 H85B 109.1 . . ?
C86 C85 H85B 109.1 . . ?
H85A C85 H85B 107.9 . . ?
C85 C86 H86A 109.5 . . ?
C85 C86 H86B 109.5 . . ?
H86A C86 H86B 109.5 . . ?
C85 C86 H86C 109.5 . . ?
H86A C86 H86C 109.5 . . ?
H86B C86 H86C 109.5 . . ?
Cl1 C9S Cl2 110.8(5) . . ?
Cl1 C9S Cl3 112.1(4) . . ?
Cl2 C9S Cl3 107.0(4) . . ?
Cl1 C9S H9SA 108.9 . . ?
Cl2 C9S H9SA 108.9 . . ?
Cl3 C9S H9SA 108.9 . . ?
loop_
_geom_bond_atom_site_label_1
_geom_bond_atom_site_label_2
_geom_bond_distance
_geom_bond_site_symmetry_2
_geom_bond_publ_flag
Zn1 N2 2.076(4) . ?
Zn1 N4 2.080(4) . ?
Zn1 N1 2.081(4) . ?
Zn1 N3 2.095(4) . ?
Zn1 N10 2.158(5) . ?
Zn2 N8 2.081(4) . ?
Zn2 N9 2.081(4) . ?
Zn2 N7 2.091(4) . ?
Zn2 N6 2.098(4) . ?
Zn2 N11 2.162(5) . ?
N1 C4 1.370(6) . ?
N1 C1 1.388(6) . ?
N2 C6 1.375(7) . ?
N2 C9 1.378(6) . ?
N3 C11 1.366(6) . ?
N3 C14 1.376(7) . ?
N4 C16 1.371(7) . ?
N4 C19 1.387(6) . ?
N5 C45 1.368(7) . ?
N5 C38 1.378(7) . ?
N5 H5A 0.8800 . ?
N6 C54 1.361(7) . ?
N6 C51 1.379(6) . ?
N7 C56 1.362(6) . ?
N7 C59 1.363(6) . ?
N8 C64 1.372(6) . ?
N8 C61 1.373(6) . ?
N9 C66 1.367(6) . ?
N9 C69 1.380(6) . ?
N10 C1S 1.431(11) . ?
N10 C1SA 1.615(15) . ?
C1S C2S 1.531(16) . ?
C1S C4S 1.531(15) . ?
C1S H1SA 1.0000 . ?
C2S C3S 1.71(3) . ?
C2S H2SA 0.9900 . ?
C2S H2SB 0.9900 . ?
C3S H3SA 0.9800 . ?
C3S H3SB 0.9800 . ?
C3S H3SC 0.9800 . ?
C4S O1S 1.430(17) . ?
C4S H4SA 0.9900 . ?
C4S H4SB 0.9900 . ?
O1S H1SB 0.8400 . ?
C1SA C4SA 1.51(3) . ?
C1SA C2SA 1.54(2) . ?
C1SA H1SC 1.0000 . ?
C2SA C3SA 1.57(3) . ?
C2SA H2SC 0.9900 . ?
C2SA H2SD 0.9900 . ?
C3SA H3SD 0.9800 . ?
C3SA H3SE 0.9800 . ?
C3SA H3SF 0.9800 . ?
C4SA O1SA 1.45(3) . ?
C4SA H4SC 0.9900 . ?
C4SA H4SD 0.9900 . ?
O1SA H1SD 0.8400 . ?
N11 C5S 1.482(7) . ?
N11 H11A 0.9100 . ?
N11 H11B 0.9100 . ?
C5S C6SA 1.34(2) . ?
C5S C6S 1.484(10) . ?
C5S C8S 1.613(14) . ?
C5S C8SA 1.72(3) . ?
C6S C7S 1.529(15) . ?
C6S H6SA 0.9900 . ?
C6S H6SB 0.9900 . ?
C7S H7SA 0.9800 . ?
C7S H7SB 0.9800 . ?
C7S H7SC 0.9800 . ?
C8S O2S 1.452(15) . ?
C8S H8SA 0.9900 . ?
C8S H8SB 0.9900 . ?
O2S H2SE 0.8400 . ?
C6SA C7SA 1.56(3) . ?
C6SA H6SC 0.9900 . ?
C6SA H6SD 0.9900 . ?
C7SA H7SD 0.9800 . ?
C7SA H7SE 0.9800 . ?
C7SA H7SF 0.9800 . ?
C8SA O2SA 1.35(3) . ?
C8SA H8SC 0.9900 . ?
C8SA H8SD 0.9900 . ?
O2SA H2SF 0.8400 . ?
C1 C20 1.422(7) . ?
C1 C2 1.473(7) . ?
C2 C3 1.358(7) . ?
C2 C21 1.516(7) . ?
C3 C4 1.429(7) . ?
C3 C23 1.517(7) . ?
C4 C5 1.405(7) . ?
C5 C6 1.388(7) . ?
C5 H5B 0.9500 . ?
C6 C7 1.452(7) . ?
C7 C8 1.349(8) . ?
C7 C25 1.503(7) . ?
C8 C9 1.455(7) . ?
C8 C27 1.508(7) . ?
C9 C10 1.385(7) . ?
C10 C11 1.398(7) . ?
C10 H10A 0.9500 . ?
C11 C12 1.453(7) . ?
C12 C13 1.366(7) . ?
C12 C29 1.512(7) . ?
C13 C14 1.446(7) . ?
C13 C31 1.506(7) . ?
C14 C15 1.391(7) . ?
C15 C16 1.388(7) . ?
C15 H15A 0.9500 . ?
C16 C17 1.444(7) . ?
C17 C18 1.368(8) . ?
C17 C33 1.499(8) . ?
C18 C19 1.485(7) . ?
C18 C35 1.503(7) . ?
C19 C20 1.418(7) . ?
C20 C37 1.512(7) . ?
C21 C22 1.515(8) . ?
C21 H21A 0.9900 . ?
C21 H21B 0.9900 . ?
C22 H22A 0.9800 . ?
C22 H22B 0.9800 . ?
C22 H22C 0.9800 . ?
C23 C24 1.522(8) . ?
C23 H23A 0.9900 . ?
C23 H23B 0.9900 . ?
C24 H24A 0.9800 . ?
C24 H24B 0.9800 . ?
C24 H24C 0.9800 . ?
C25 C26 1.514(9) . ?
C25 H25A 0.9900 . ?
C25 H25B 0.9900 . ?
C26 H26A 0.9800 . ?
C26 H26B 0.9800 . ?
C26 H26C 0.9800 . ?
C27 C28 1.513(8) . ?
C27 H27A 0.9900 . ?
C27 H27B 0.9900 . ?
C28 H28A 0.9800 . ?
C28 H28B 0.9800 . ?
C28 H28C 0.9800 . ?
C29 C30 1.516(8) . ?
C29 H29A 0.9900 . ?
C29 H29B 0.9900 . ?
C30 H30A 0.9800 . ?
C30 H30B 0.9800 . ?
C30 H30C 0.9800 . ?
C31 C32 1.517(8) . ?
C31 H31A 0.9900 . ?
C31 H31B 0.9900 . ?
C32 H32A 0.9800 . ?
C32 H32B 0.9800 . ?
C32 H32C 0.9800 . ?
C33 C34 1.530(8) . ?
C33 H33A 0.9900 . ?
C33 H33B 0.9900 . ?
C34 H34A 0.9800 . ?
C34 H34B 0.9800 . ?
C34 H34C 0.9800 . ?
C35 C36 1.517(8) . ?
C35 H35A 0.9900 . ?
C35 H35B 0.9900 . ?
C36 H36A 0.9800 . ?
C36 H36B 0.9800 . ?
C36 H36C 0.9800 . ?
C37 C38 1.485(8) . ?
C37 H37A 0.9900 . ?
C37 H37B 0.9900 . ?
C38 C39 1.395(7) . ?
C39 C42 1.421(7) . ?
C39 C40 1.503(7) . ?
C40 C41 1.524(8) . ?
C40 H40A 0.9900 . ?
C40 H40B 0.9900 . ?
C41 H41A 0.9800 . ?
C41 H41B 0.9800 . ?
C41 H41C 0.9800 . ?
C42 C45 1.391(7) . ?
C42 C43 1.508(7) . ?
C43 C44 1.523(8) . ?
C43 H43A 0.9900 . ?
C43 H43B 0.9900 . ?
C44 H44A 0.9800 . ?
C44 H44B 0.9800 . ?
C44 H44C 0.9800 . ?
C45 C46 1.481(7) . ?
C46 C70 1.519(7) . ?
C46 H46A 0.9900 . ?
C46 H46B 0.9900 . ?
C51 C70 1.425(7) . ?
C51 C52 1.478(7) . ?
C52 C53 1.353(7) . ?
C52 C71 1.537(7) . ?
C53 C54 1.450(7) . ?
C53 C73 1.492(7) . ?
C54 C55 1.407(7) . ?
C55 C56 1.389(7) . ?
C55 H55A 0.9500 . ?
C56 C57 1.460(7) . ?
C57 C58 1.353(7) . ?
C57 C75 1.509(7) . ?
C58 C59 1.461(7) . ?
C58 C77 1.512(7) . ?
C59 C60 1.393(7) . ?
C60 C61 1.389(7) . ?
C60 H60A 0.9500 . ?
C61 C62 1.454(7) . ?
C62 C63 1.363(7) . ?
C62 C79 1.500(7) . ?
C63 C64 1.453(7) . ?
C63 C81 1.506(7) . ?
C64 C65 1.380(7) . ?
C65 C66 1.400(7) . ?
C65 H65A 0.9500 . ?
C66 C67 1.445(7) . ?
C67 C68 1.366(7) . ?
C67 C83 1.506(7) . ?
C68 C69 1.477(7) . ?
C68 C85 1.515(7) . ?
C69 C70 1.416(7) . ?
C71 C72 1.520(8) . ?
C71 H71A 0.9900 . ?
C71 H71B 0.9900 . ?
C72 H72A 0.9800 . ?
C72 H72B 0.9800 . ?
C72 H72C 0.9800 . ?
C73 C74 1.535(8) . ?
C73 H73A 0.9900 . ?
C73 H73B 0.9900 . ?
C74 H74A 0.9800 . ?
C74 H74B 0.9800 . ?
C74 H74C 0.9800 . ?
C75 C76 1.525(9) . ?
C75 H75A 0.9900 . ?
C75 H75B 0.9900 . ?
C76 H76A 0.9800 . ?
C76 H76B 0.9800 . ?
C76 H76C 0.9800 . ?
C77 C78 1.524(8) . ?
C77 H77A 0.9900 . ?
C77 H77B 0.9900 . ?
C78 H78A 0.9800 . ?
C78 H78B 0.9800 . ?
C78 H78C 0.9800 . ?
C79 C80 1.538(8) . ?
C79 H79A 0.9900 . ?
C79 H79B 0.9900 . ?
C80 H80A 0.9800 . ?
C80 H80B 0.9800 . ?
C80 H80C 0.9800 . ?
C81 C82 1.514(8) . ?
C81 H81A 0.9900 . ?
C81 H81B 0.9900 . ?
C82 H82A 0.9800 . ?
C82 H82B 0.9800 . ?
C82 H82C 0.9800 . ?
C83 C84 1.514(8) . ?
C83 H83A 0.9900 . ?
C83 H83B 0.9900 . ?
C84 H84A 0.9800 . ?
C84 H84B 0.9800 . ?
C84 H84C 0.9800 . ?
C85 C86 1.535(8) . ?
C85 H85A 0.9900 . ?
C85 H85B 0.9900 . ?
C86 H86A 0.9800 . ?
C86 H86B 0.9800 . ?
C86 H86C 0.9800 . ?
C9S Cl1 1.703(8) . ?
C9S Cl2 1.762(8) . ?
C9S Cl3 1.772(7) . ?
C9S H9SA 1.0000 . ?
