#------------------------------------------------------------------------------
#$Date: 2022-05-05 01:57:36 +0300 (Thu, 05 May 2022) $
#$Revision: 274900 $
#$URL: file:///home/coder/svn-repositories/cod/cif/7/71/01/7710183.cif $
#------------------------------------------------------------------------------
#
# This file is available in the Crystallography Open Database (COD),
# http://www.crystallography.net/
#
# All data on this site have been placed in the public domain by the
# contributors.
#
data_7710183
loop_
_publ_author_name
'Coutsolelos, Athanassios G.'
'Angaridis, Panagiots'
'Orfanos, Emmanuel'
'Ladomenou, Kalliopi'
_publ_section_title
;
 Shape-dependent photocatalytic H2 production photosensitized by different
 self-assembled forms of a zinc(II) porphyrin
;
_journal_name_full               'Dalton Transactions'
_journal_paper_doi               10.1039/D2DT00556E
_journal_year                    2022
_chemical_formula_sum            'C26 H22 N2 O Zn0.5'
_chemical_formula_weight         411.14
_space_group_crystal_system      triclinic
_space_group_IT_number           2
_space_group_name_Hall           '-P 1'
_space_group_name_H-M_alt        'P -1'
_atom_sites_solution_hydrogens   geom
_audit_block_doi                 10.5517/ccdc.csd.cc2b8pr2
_audit_creation_method           SHELXL-2018/3
_audit_update_record
;
2022-02-19 deposited with the CCDC.	2022-05-04 downloaded from the CCDC.
;
_cell_angle_alpha                65.13(3)
_cell_angle_beta                 76.23(3)
_cell_angle_gamma                64.73(3)
_cell_formula_units_Z            2
_cell_length_a                   9.6632(19)
_cell_length_b                   11.266(2)
_cell_length_c                   11.812(2)
_cell_measurement_reflns_used    14146
_cell_measurement_temperature    293(2)
_cell_measurement_theta_max      51.2
_cell_measurement_theta_min      3.8
_cell_volume                     1052.3(5)
_computing_structure_refinement  'SHELXL-2018/3 (Sheldrick, 2018)'
_diffrn_ambient_temperature      293(2)
_diffrn_measured_fraction_theta_full 1.000
_diffrn_measured_fraction_theta_max 0.992
_diffrn_measurement_device_type  STOE
_diffrn_measurement_method       '\w scans'
_diffrn_radiation_type           MoK\a
_diffrn_radiation_wavelength     0.71073
_diffrn_reflns_av_R_equivalents  0.0
_diffrn_reflns_av_unetI/netI     0.1256
_diffrn_reflns_Laue_measured_fraction_full 1.000
_diffrn_reflns_Laue_measured_fraction_max 0.992
_diffrn_reflns_number            3938
_diffrn_reflns_point_group_measured_fraction_full 1.000
_diffrn_reflns_point_group_measured_fraction_max 0.992
_diffrn_reflns_theta_full        25.242
_diffrn_reflns_theta_max         25.610
_diffrn_reflns_theta_min         1.905
_exptl_absorpt_coefficient_mu    0.630
_exptl_absorpt_correction_T_max  0.9559
_exptl_absorpt_correction_T_min  0.8198
_exptl_absorpt_correction_type   numerical
_exptl_crystal_colour            orange
_exptl_crystal_density_diffrn    1.297
_exptl_crystal_description       plank
_exptl_crystal_F_000             430
_exptl_crystal_size_max          0.6
_exptl_crystal_size_mid          0.2
_exptl_crystal_size_min          0.07
_refine_diff_density_max         0.419
_refine_diff_density_min         -0.299
_refine_diff_density_rms         0.051
_refine_ls_extinction_method     none
_refine_ls_goodness_of_fit_ref   0.742
_refine_ls_hydrogen_treatment    constr
_refine_ls_matrix_type           full
_refine_ls_number_parameters     268
_refine_ls_number_reflns         3938
_refine_ls_number_restraints     0
_refine_ls_restrained_S_all      0.742
_refine_ls_R_factor_all          0.0737
_refine_ls_R_factor_gt           0.0382
_refine_ls_shift/su_max          0.000
_refine_ls_shift/su_mean         0.000
_refine_ls_structure_factor_coef Fsqd
_refine_ls_weighting_details
'w=1/[\s^2^(Fo^2^)+(0.0245P)^2^] where P=(Fo^2^+2Fc^2^)/3'
_refine_ls_weighting_scheme      calc
_refine_ls_wR_factor_gt          0.0665
_refine_ls_wR_factor_ref         0.0721
_reflns_Friedel_coverage         0.000
_reflns_number_gt                2347
_reflns_number_total             3938
_reflns_threshold_expression     'I > 2\s(I)'
_cod_data_source_file            d2dt00556e2.cif
_cod_data_source_block           zntpp1
_cod_original_cell_volume        1052.4(5)
_cod_original_formula_sum        'C26 H22 N2 O Zn0.50'
_cod_database_code               7710183
_shelx_shelxl_version_number     2018/3
_shelx_space_group_comment
;
The symmetry employed for this shelxl refinement is uniquely defined
by the following loop, which should always be used as a source of
symmetry information in preference to the above space-group names.
They are only intended as comments.
;
_shelx_res_file
;
TITL zntpp1 in P-1 #2
    zntpp1.res
    created by SHELXL-2018/3 at 02:28:40 on 10-Feb-2022
REM Best SHELXD solution FINAL CC 82.61
REM Fragments: 28
REM reset to P-1 #2
CELL 0.71073 9.6632 11.2661 11.8122 65.128 76.23 64.73
ZERR 2 0.0019 0.0023 0.0024 0.03 0.03 0.03
LATT 1
SFAC C H N O Zn
UNIT 52 44 4 2 1

L.S. 10
PLAN  10
CONF
MORE -1
BOND $H
fmap 2
acta
REM <olex2.extras>
REM <HklSrc "%.\\zntpp1.hkl">
REM </olex2.extras>

WGHT    0.024500
FVAR       0.30221
ZN1   5    0.000000    0.000000    0.000000    10.50000    0.03090    0.03783 =
         0.02543   -0.01871    0.00676   -0.02189
N1    3   -0.128220   -0.103985   -0.007503    11.00000    0.02754    0.02630 =
         0.02097   -0.01077    0.00191   -0.01392
N2    3   -0.124591    0.019648    0.163241    11.00000    0.02403    0.02369 =
         0.02145   -0.01057    0.00223   -0.01195
C6    1   -0.247525   -0.020452    0.219165    11.00000    0.02365    0.02725 =
         0.02125   -0.00784    0.00301   -0.01205
C4    1   -0.239673   -0.140130    0.079052    11.00000    0.02090    0.02384 =
         0.02244   -0.00642    0.00038   -0.00985
C9    1   -0.118505    0.098699    0.222988    11.00000    0.03077    0.02317 =
         0.02435   -0.01082   -0.00384   -0.00876
C1    1   -0.099328   -0.168761   -0.091368    11.00000    0.02923    0.02218 =
         0.02428   -0.01027   -0.00336   -0.00942
O1    4    0.181847   -0.230165    0.109132    11.00000    0.04080    0.04086 =
         0.05206   -0.01042   -0.00488   -0.01444
C2    1   -0.199356   -0.246736   -0.057000    11.00000    0.03603    0.02897 =
         0.02896   -0.01137   -0.00303   -0.01793
AFIX  43
H2    2   -0.204264   -0.298201   -0.099208    11.00000   -1.20000
AFIX   0
C7    1   -0.321544    0.036202    0.317697    11.00000    0.03227    0.03795 =
         0.02660   -0.01549    0.00854   -0.01906
AFIX  43
H7    2   -0.407321    0.024490    0.369735    11.00000   -1.20000
AFIX   0
C17   1   -0.022492    0.242415    0.273280    11.00000    0.02890    0.02705 =
         0.02557   -0.01331    0.00358   -0.01643
C8    1   -0.241696    0.109388    0.319285    11.00000    0.03891    0.03538 =
         0.02821   -0.01849    0.00503   -0.01608
AFIX  43
H8    2   -0.262592    0.157512    0.372619    11.00000   -1.20000
AFIX   0
C11   1   -0.419716   -0.152183    0.270011    11.00000    0.02489    0.02404 =
         0.02271   -0.01166    0.00524   -0.01283
C3    1   -0.283965   -0.230123    0.048150    11.00000    0.03123    0.03209 =
         0.03023   -0.00826   -0.00113   -0.01905
AFIX  43
H3    2   -0.357167   -0.269264    0.092518    11.00000   -1.20000
AFIX   0
C16   1   -0.562193   -0.113612    0.228642    11.00000    0.02729    0.03034 =
         0.03413   -0.00941   -0.00351   -0.00920
AFIX  43
H16   2   -0.585228   -0.050726    0.147557    11.00000   -1.20000
AFIX   0
C15   1   -0.669861   -0.168394    0.307602    11.00000    0.02631    0.04696 =
         0.05016   -0.02554    0.00464   -0.01709
AFIX  43
H15   2   -0.764770   -0.141379    0.279567    11.00000   -1.20000
AFIX   0
C12   1   -0.388757   -0.245706    0.392681    11.00000    0.03363    0.03913 =
         0.03063   -0.01310   -0.00062   -0.01665
AFIX  43
H12   2   -0.295502   -0.270987    0.422507    11.00000   -1.20000
AFIX   0
C18   1    0.046522    0.171658    0.385594    11.00000    0.04458    0.03147 =
         0.03810   -0.01662   -0.01245   -0.00582
AFIX  43
H18   2    0.100995    0.074925    0.411323    11.00000   -1.20000
AFIX   0
C13   1   -0.495983   -0.301109    0.470282    11.00000    0.05073    0.04207 =
         0.02543   -0.00900    0.00351   -0.02108
AFIX  43
H13   2   -0.473727   -0.364273    0.551416    11.00000   -1.20000
AFIX   0
C14   1   -0.635639   -0.262923    0.427641    11.00000    0.04642    0.04873 =
         0.04388   -0.02285    0.01573   -0.03281
AFIX  43
H14   2   -0.706836   -0.300954    0.479888    11.00000   -1.20000
AFIX   0
C10   1   -0.012301    0.165388    0.192775    11.00000    0.03047    0.02249 =
         0.02315   -0.01193   -0.00201   -0.00882
C19   1    0.035026    0.244480    0.460821    11.00000    0.05088    0.05388 =
         0.04234   -0.02436   -0.01329   -0.01823
AFIX  43
H19   2    0.081704    0.195849    0.536124    11.00000   -1.20000
AFIX   0
C21   1   -0.112849    0.458674    0.312631    11.00000    0.06935    0.02640 =
         0.03965   -0.01736    0.00058   -0.01677
AFIX  43
H21   2   -0.166738    0.555468    0.287458    11.00000   -1.20000
AFIX   0
C22   1   -0.101643    0.387064    0.237325    11.00000    0.05858    0.03015 =
         0.03079   -0.01075   -0.00895   -0.01246
AFIX  43
H22   2   -0.147847    0.436815    0.161790    11.00000   -1.20000
AFIX   0
C5    1   -0.299018   -0.100408    0.185112    11.00000    0.02534    0.02357 =
         0.02270   -0.00862   -0.00131   -0.00925
C20   1   -0.044453    0.386595    0.424019    11.00000    0.05321    0.04955 =
         0.04139   -0.03045    0.00935   -0.03236
AFIX  43
H20   2   -0.052221    0.434484    0.474389    11.00000   -1.20000
AFIX   0
C027  1    0.336015   -0.288881    0.057205    11.00000    0.04127    0.05680 =
         0.05625   -0.01657   -0.00942   -0.00163
AFIX  23
H02A  2    0.392567   -0.229324    0.041041    11.00000   -1.20000
H02B  2    0.333287   -0.297189   -0.020635    11.00000   -1.20000
AFIX   0
C25   1    0.134512   -0.344712    0.190694    11.00000    0.07315    0.05431 =
         0.08430    0.01814   -0.01644   -0.03628
AFIX  23
H25A  2    0.062454   -0.351818    0.151304    11.00000   -1.20000
H25B  2    0.085325   -0.330587    0.268233    11.00000   -1.20000
AFIX   0
C24   1    0.410900   -0.433422    0.154678    11.00000    0.08061    0.06735 =
         0.09237   -0.02422   -0.01350   -0.00606
AFIX  23
H24A  2    0.485645   -0.498554    0.116027    11.00000   -1.20000
H24B  2    0.460111   -0.427942    0.213993    11.00000   -1.20000
AFIX   0
C23   1    0.275830   -0.474972    0.215621    11.00000    0.08509    0.05816 =
         0.25056    0.03650   -0.07053   -0.03531
AFIX  23
H23A  2    0.270433   -0.537820    0.181928    11.00000   -1.20000
H23B  2    0.285478   -0.523710    0.305029    11.00000   -1.20000
AFIX   0
HKLF 4




REM  zntpp1 in P-1 #2
REM wR2 = 0.0721, GooF = S = 0.742, Restrained GooF = 0.742 for all data
REM R1 = 0.0382 for 2347 Fo > 4sig(Fo) and 0.0737 for all 3938 data
REM 268 parameters refined using 0 restraints

END

WGHT      0.0245      0.0000

REM Highest difference peak  0.419,  deepest hole -0.299,  1-sigma level  0.051
Q1    1   0.5222 -0.4375  0.0568  11.00000  0.05    0.42
Q2    1   0.2658 -0.4375  0.2556  11.00000  0.05    0.29
Q3    1   0.3537 -0.4564  0.1000  11.00000  0.05    0.26
Q4    1   0.2995 -0.4214  0.0823  11.00000  0.05    0.25
Q5    1   0.1805 -0.4341  0.1493  11.00000  0.05    0.23
Q6    1  -0.3025  0.0232  0.2571  11.00000  0.05    0.22
Q7    1  -0.4945 -0.1202  0.2479  11.00000  0.05    0.21
Q8    1  -0.0063 -0.0411  0.1195  11.00000  0.05    0.20
Q9    1  -0.2665 -0.1185  0.1260  11.00000  0.05    0.20
Q10   1   0.0969 -0.0943 -0.0351  11.00000  0.05    0.20
;
_shelx_res_checksum              6089
_shelx_hkl_file
;
   1   0   0  487.56    8.19
   2   0   0   15.06    3.29
   3   0   0  126.36    3.37
   4   0   0    9.35    2.53
   5   0   0    4.51    2.39
   6   0   0   11.64    2.47
   7   0   0   41.28    2.68
   8   0   0   28.53    2.78
   9   0   0   23.79    3.01
  10   0   0    5.41    3.18
 -10   1   0   -0.68    3.39
  -9   1   0   11.00    3.10
  -8   1   0   22.89    2.88
  -7   1   0   10.48    2.70
  -6   1   0    5.72    2.56
  -5   1   0   70.71    2.81
  -4   1   0   27.63    2.71
  -3   1   0   24.51    2.70
  -2   1   0    2.21    3.06
  -1   1   0   40.59    4.48
   0   1   0  590.01   11.84
   1   1   0  173.67    5.64
   2   1   0    0.74    3.14
   3   1   0  138.96    3.30
   4   1   0   54.11    2.56
   5   1   0    2.41    2.32
   6   1   0   15.91    2.22
   7   1   0   96.20    2.65
   8   1   0    9.94    2.52
   9   1   0   53.09    2.86
  10   1   0    9.16    2.87
  -9   2   0    7.33    3.19
  -8   2   0   24.08    3.13
  -7   2   0    8.95    2.84
  -6   2   0    2.75    2.66
  -5   2   0    0.94    2.59
  -4   2   0   43.32    2.86
  -3   2   0   41.18    3.12
  -2   2   0   84.62    3.70
  -1   2   0  274.55    6.00
   0   2   0   30.26    4.45
   1   2   0   13.09    3.59
   2   2   0   50.59    3.41
   3   2   0   84.83    2.91
   4   2   0    5.10    2.30
   5   2   0   18.17    2.30
   6   2   0    0.32    2.34
   7   2   0  106.49    2.71
   8   2   0   12.59    2.50
   9   2   0   28.15    2.71
  10   2   0    1.81    2.92
  11   2   0    1.27    3.26
  -9   3   0    0.52    3.62
  -8   3   0    6.14    3.32
  -7   3   0    9.27    3.10
  -6   3   0   31.38    3.00
  -5   3   0    2.26    2.75
  -4   3   0    5.63    2.83
  -3   3   0    4.78    2.83
  -2   3   0   10.64    3.18
  -1   3   0    3.56    3.60
   0   3   0   14.19    3.58
   1   3   0  117.06    3.76
   2   3   0  108.79    3.37
   3   3   0  109.55    3.01
   4   3   0   13.76    2.40
   5   3   0   55.45    2.45
   6   3   0   56.27    2.47
   7   3   0    0.37    2.26
   8   3   0   26.77    2.47
   9   3   0    1.72    2.59
  10   3   0    2.53    2.64
  11   3   0    5.04    3.02
  -8   4   0    5.49    3.74
  -7   4   0    0.72    3.25
  -6   4   0   35.74    3.45
  -5   4   0   25.52    3.00
  -4   4   0   11.71    3.05
  -3   4   0   22.91    3.14
  -2   4   0    1.27    3.13
  -1   4   0    5.93    3.31
   0   4   0   69.83    3.95
   1   4   0   21.89    3.13
   2   4   0    0.69    2.70
   3   4   0  213.19    3.46
   4   4   0   70.88    2.70
   5   4   0   98.45    2.71
   6   4   0   91.31    2.50
   7   4   0    0.63    2.17
   8   4   0    8.73    2.24
   9   4   0    0.10    2.33
  10   4   0   19.58    2.61
  11   4   0   10.22    3.01
  -7   5   0    3.45    3.88
  -6   5   0    4.56    3.53
  -5   5   0   24.33    3.38
  -4   5   0   11.33    3.31
  -3   5   0    7.40    3.21
  -2   5   0   32.74    3.44
  -1   5   0   69.04    3.61
   0   5   0   32.07    3.22
   1   5   0  247.22    4.37
   2   5   0  101.25    3.22
   3   5   0  196.54    3.40
   4   5   0   27.13    2.45
   5   5   0   52.09    2.40
   6   5   0   12.24    2.40
   7   5   0    6.73    2.20
   8   5   0    2.66    2.45
   9   5   0    3.76    2.46
  10   5   0   16.45    2.85
  11   5   0    4.54    2.88
  -7   6   0   -0.57    4.27
  -6   6   0    2.30    3.97
  -5   6   0    4.19    3.58
  -4   6   0   11.08    3.59
  -3   6   0    6.83    3.26
  -2   6   0    4.45    3.27
  -1   6   0   18.15    3.37
   0   6   0    1.71    3.17
   1   6   0   31.22    3.10
   2   6   0  113.32    3.48
   3   6   0   49.24    2.77
   4   6   0   44.40    2.43
   5   6   0    2.18    2.35
   6   6   0   10.70    2.46
   7   6   0   41.62    2.54
   8   6   0   26.71    2.43
   9   6   0   21.73    2.51
  10   6   0    9.05    2.78
  11   6   0    3.26    3.07
  -6   7   0    1.57    4.35
  -5   7   0   21.32    4.14
  -4   7   0    2.01    3.92
  -3   7   0   21.78    3.66
  -2   7   0   26.53    3.63
  -1   7   0    0.82    3.31
   0   7   0   55.22    3.72
   1   7   0   12.52    3.12
   2   7   0    9.64    3.13
   3   7   0    9.82    2.77
   4   7   0   51.70    2.70
   5   7   0   -0.15    2.37
   6   7   0    2.53    2.50
   7   7   0   11.49    2.37
   8   7   0   40.42    2.61
   9   7   0   14.99    2.75
  10   7   0    6.91    2.86
  11   7   0    9.69    2.87
  -5   8   0   17.63    4.81
  -4   8   0   -0.08    4.29
  -3   8   0    2.34    3.98
  -2   8   0    7.67    3.80
  -1   8   0   17.20    3.73
   0   8   0   55.87    3.85
   1   8   0   18.96    3.42
   2   8   0    5.50    3.02
   3   8   0   11.37    2.78
   4   8   0   85.53    2.90
   5   8   0    9.19    2.67
   6   8   0    2.30    2.42
   7   8   0   54.82    2.77
   8   8   0   22.61    2.68
   9   8   0    5.20    2.66
  10   8   0    4.62    2.95
  -4   9   0   -0.04    4.82
  -3   9   0    2.25    4.55
  -2   9   0    2.14    4.26
  -1   9   0    5.78    4.06
   0   9   0   16.07    3.91
   1   9   0    6.49    3.75
   2   9   0    4.00    3.51
   3   9   0    1.02    3.07
   4   9   0   29.52    3.06
   5   9   0    0.03    2.71
   6   9   0    0.90    2.76
   7   9   0   66.13    2.85
   8   9   0   17.65    2.94
   9   9   0    9.48    2.89
  10   9   0    8.19    2.94
  -2  10   0    1.30    4.90
  -1  10   0    4.13    4.94
   0  10   0    0.30    4.70
   1  10   0    1.59    4.27
   2  10   0   12.48    3.66
   3  10   0   10.24    3.48
   4  10   0    0.57    3.09
   5  10   0    3.30    2.99
   6  10   0    4.77    2.85
   7  10   0   14.19    3.07
   8  10   0    7.84    3.05
   9  10   0    2.45    3.12
  -1  11   0    3.45    4.81
   0  11   0    5.85    4.00
   1  11   0   22.35    4.82
   2  11   0   12.60    4.10
   3  11   0   15.86    3.85
   4  11   0    1.43    3.49
   5  11   0    1.11    3.29
   6  11   0    6.34    3.22
   7  11   0    2.73    2.95
   8  11   0    8.96    3.12
   2  12   0    1.51    3.73
   3  12   0   14.75    4.31
   4  12   0    0.34    3.92
   5  12   0   11.01    3.72
   6  12   0    5.97    3.58
  -7 -11   1    8.19    3.36
  -6 -11   1    7.31    3.43
  -5 -11   1    3.75    3.62
  -4 -11   1    4.99    3.65
  -3 -11   1   -0.50    4.30
  -2 -11   1    4.35    3.38
  -1 -11   1    6.93    3.72
   0 -11   1    2.62    4.25
  -9 -10   1    7.44    3.03
  -8 -10   1   10.60    3.11
  -7 -10   1   17.55    3.01
  -6 -10   1   35.37    3.13
  -5 -10   1    0.33    3.18
  -4 -10   1    5.75    3.30
  -3 -10   1   62.88    3.95
  -2 -10   1    2.43    4.71
  -1 -10   1    1.33    3.09
   0 -10   1    0.54    3.48
   1 -10   1    4.36    3.88
   2 -10   1    2.63    4.11
  -9  -9   1    3.45    3.06
  -8  -9   1   12.93    2.83
  -7  -9   1   26.31    2.84
  -6  -9   1   39.25    2.89
  -5  -9   1    1.01    2.88
  -4  -9   1    0.35    3.07
  -3  -9   1   43.92    3.51
  -2  -9   1   14.13    3.83
  -1  -9   1    3.20    3.07
   0  -9   1   16.68    3.40
   1  -9   1   20.37    3.51
   2  -9   1    4.38    3.82
   3  -9   1   -0.96    4.16
 -10  -8   1   17.26    3.08
  -9  -8   1    3.28    2.80
  -8  -8   1    2.54    2.67
  -7  -8   1   44.79    2.71
  -6  -8   1   13.08    2.60
  -5  -8   1    2.49    2.65
  -4  -8   1    9.95    2.73
  -3  -8   1    1.01    3.25
  -2  -8   1    2.24    3.17
  -1  -8   1    9.49    3.53
   0  -8   1   26.83    3.12
   1  -8   1   35.11    3.39
   2  -8   1    3.63    3.96
   3  -8   1    2.57    4.27
   4  -8   1    8.57    4.43
   5  -8   1    0.60    4.79
 -10  -7   1    7.77    2.80
  -9  -7   1   24.95    2.81
  -8  -7   1    6.99    2.63
  -7  -7   1   34.21    2.64
  -6  -7   1   17.94    2.36
  -5  -7   1   20.29    2.38
  -4  -7   1   23.07    2.70
  -3  -7   1   37.91    2.89
  -2  -7   1   20.17    2.96
  -1  -7   1   11.51    3.26
   0  -7   1   12.19    3.76
   1  -7   1    4.68    3.87
   2  -7   1   19.16    3.88
   3  -7   1   13.28    3.88
   4  -7   1    1.21    3.96
   5  -7   1    5.22    4.25
   6  -7   1    2.38    4.54
 -11  -6   1    3.86    3.12
 -10  -6   1    5.69    2.81
  -9  -6   1   33.47    2.74
  -8  -6   1   13.22    2.67
  -7  -6   1    4.90    2.52
  -6  -6   1    1.00    2.40
  -5  -6   1    5.59    2.49
  -4  -6   1   48.76    2.48
  -3  -6   1  149.33    3.33
  -2  -6   1  229.47    3.93
  -1  -6   1   43.85    3.38
   0  -6   1   52.82    3.65
   1  -6   1    1.47    3.37
   2  -6   1    6.19    3.38
   3  -6   1   28.88    3.67
   4  -6   1   -0.25    3.62
   5  -6   1    6.53    3.87
   6  -6   1    2.32    4.01
   7  -6   1    5.95    4.27
 -11  -5   1    1.59    3.06
 -10  -5   1   14.36    2.75
  -9  -5   1   16.44    2.58
  -8  -5   1    9.42    2.55
  -7  -5   1   15.72    2.47
  -6  -5   1   43.50    2.54
  -5  -5   1    6.22    2.33
  -4  -5   1   15.19    2.49
  -3  -5   1   -0.03    2.54
  -2  -5   1   57.56    2.97
  -1  -5   1   21.42    3.17
   0  -5   1   31.87    3.52
   1  -5   1    4.36    3.38
   2  -5   1    9.65    3.20
   3  -5   1    1.08    3.26
   4  -5   1    7.60    3.21
   5  -5   1    5.96    3.51
   6  -5   1    3.27    3.54
   7  -5   1    7.61    4.03
 -11  -4   1    1.51    3.08
 -10  -4   1    2.27    2.72
  -9  -4   1    2.10    2.41
  -8  -4   1    9.16    2.42
  -7  -4   1    6.23    2.19
  -6  -4   1   28.73    2.27
  -5  -4   1   67.42    2.61
  -4  -4   1   80.87    2.70
  -3  -4   1    1.68    2.41
  -2  -4   1    0.97    2.67
  -1  -4   1    5.60    2.96
   0  -4   1   20.07    3.47
   1  -4   1    4.45    3.32
   2  -4   1   10.86    3.14
   3  -4   1   23.72    3.12
   4  -4   1    8.18    2.98
   5  -4   1   15.43    3.16
   6  -4   1   12.63    3.21
   7  -4   1    5.52    3.40
   8  -4   1    0.52    3.71
 -11  -3   1    6.95    3.00
 -10  -3   1    0.33    2.65
  -9  -3   1    8.90    2.54
  -8  -3   1   33.41    2.61
  -7  -3   1    0.85    2.37
  -6  -3   1   32.99    2.25
  -5  -3   1    6.16    2.20
  -4  -3   1  117.08    2.85
  -3  -3   1   20.57    2.50
  -2  -3   1    0.78    2.51
  -1  -3   1   36.09    3.26
   0  -3   1   39.59    3.84
   1  -3   1  378.29    5.86
   2  -3   1   32.34    3.49
   3  -3   1   27.68    2.97
   4  -3   1    2.57    2.68
   5  -3   1    1.81    2.87
   6  -3   1   11.26    3.02
   7  -3   1    4.03    3.10
   8  -3   1    3.04    3.21
   9  -3   1    6.67    3.53
 -10  -2   1   -0.03    2.75
  -9  -2   1    3.90    2.67
  -8  -2   1  204.12    3.15
  -7  -2   1   41.62    2.45
  -6  -2   1  139.37    2.84
  -5  -2   1  140.56    2.80
  -4  -2   1   13.02    2.43
  -3  -2   1  159.43    3.19
  -2  -2   1  115.49    3.40
  -1  -2   1   47.53    3.78
   0  -2   1   97.13    3.94
   1  -2   1  897.97    8.19
   2  -2   1  598.31    6.22
   3  -2   1   19.53    2.85
   4  -2   1   29.65    2.77
   5  -2   1    2.38    2.73
   6  -2   1    0.85    2.61
   7  -2   1    1.25    2.75
   8  -2   1   12.36    3.10
   9  -2   1    2.59    3.33
 -10  -1   1    3.78    3.14
  -9  -1   1    9.40    2.57
  -8  -1   1   47.83    2.66
  -7  -1   1   80.55    2.70
  -6  -1   1   69.47    2.65
  -5  -1   1    1.17    2.45
  -4  -1   1   51.62    2.70
  -3  -1   1  315.61    3.96
  -2  -1   1  469.02    5.41
  -1  -1   1  288.22    5.59
   0  -1   1  119.73    4.79
   2  -1   1  198.18    4.25
   3  -1   1   64.57    3.08
   4  -1   1  106.22    3.03
   5  -1   1   11.01    2.72
   6  -1   1    0.86    2.53
   7  -1   1    0.61    2.65
   8  -1   1   32.45    2.88
   9  -1   1   19.56    3.12
  10  -1   1    8.11    3.35
 -10   0   1    2.20    3.19
  -9   0   1    7.71    2.79
  -8   0   1    4.32    2.64
  -7   0   1  108.43    2.94
  -6   0   1   31.73    2.52
  -5   0   1    1.28    2.33
  -4   0   1    9.47    2.41
  -3   0   1    8.85    2.53
  -2   0   1  225.44    4.39
  -1   0   1   15.34    3.83
   0   0   1  337.68    8.55
   1   0   1  422.31    7.24
   2   0   1    8.19    3.16
   3   0   1    8.10    2.50
   4   0   1   45.74    2.61
   5   0   1   36.77    2.78
   6   0   1    3.09    2.50
   7   0   1    5.87    2.57
   8   0   1   18.70    2.68
   9   0   1   34.58    2.89
  10   0   1   15.33    3.09
 -10   1   1    0.96    3.16
  -9   1   1    1.03    3.00
  -8   1   1   -0.48    2.85
  -7   1   1   21.61    2.75
  -6   1   1    8.73    2.62
  -5   1   1   10.53    2.46
  -4   1   1    4.53    2.51
  -3   1   1    4.16    2.62
  -2   1   1   39.43    3.39
  -1   1   1  178.50    5.00
   0   1   1  441.12    9.49
   1   1   1    8.42    4.02
   2   1   1   59.26    3.48
   3   1   1    1.50    2.57
   4   1   1    1.00    2.20
   5   1   1   21.83    2.44
   6   1   1   16.28    2.36
   7   1   1   35.21    2.49
   8   1   1   34.98    2.66
   9   1   1    9.58    2.75
  10   1   1    8.86    2.89
  -9   2   1    3.11    3.21
  -8   2   1    8.17    2.98
  -7   2   1    2.33    2.81
  -6   2   1    1.33    2.78
  -5   2   1   38.64    2.82
  -4   2   1    7.96    2.66
  -3   2   1   30.15    2.90
  -2   2   1   25.51    3.12
  -1   2   1   37.67    4.27
   0   2   1   94.11    5.22
   1   2   1   18.73    3.70
   2   2   1 1000.00    7.41
   3   2   1  266.86    3.81
   4   2   1   65.17    2.61
   5   2   1    2.32    2.35
   6   2   1   16.44    2.24
   7   2   1   57.08    2.51
   8   2   1    4.07    2.38
   9   2   1    3.12    2.67
  10   2   1    1.66    3.06
  11   2   1    2.41    3.23
  -9   3   1    4.93    3.46
  -8   3   1    3.21    3.25
  -7   3   1   15.94    3.03
  -6   3   1   15.21    2.84
  -5   3   1   51.42    3.03
  -4   3   1   44.29    3.05
  -3   3   1  133.99    3.69
  -2   3   1  140.09    4.14
  -1   3   1   11.31    3.64
   0   3   1    3.93    3.53
   1   3   1   38.24    3.31
   2   3   1   23.48    2.88
   3   3   1   85.16    2.96
   4   3   1  177.84    3.12
   5   3   1  115.23    2.81
   6   3   1    5.68    2.16
   7   3   1   48.98    2.54
   8   3   1    3.40    2.36
   9   3   1    1.17    2.64
  10   3   1    0.54    2.67
  11   3   1    4.28    3.05
  -8   4   1    1.75    3.68
  -7   4   1    3.54    3.33
  -6   4   1   29.57    3.37
  -5   4   1   18.58    3.09
  -4   4   1   35.46    3.13
  -3   4   1    4.15    3.02
  -2   4   1   39.31    3.45
  -1   4   1  197.04    4.69
   0   4   1   33.97    3.70
   1   4   1  176.03    4.13
   2   4   1   55.86    2.96
   3   4   1  111.26    2.99
   4   4   1  263.81    3.43
   5   4   1   23.93    2.15
   6   4   1    5.82    2.23
   7   4   1    6.78    2.26
   8   4   1   -0.31    2.29
   9   4   1    9.26    2.65
  10   4   1   16.62    2.81
  11   4   1   15.16    2.89
  -8   5   1    5.61    3.93
  -7   5   1    2.07    3.71
  -6   5   1    2.03    3.61
  -5   5   1   10.75    3.22
  -4   5   1   42.32    3.54
  -3   5   1    0.51    3.17
  -2   5   1    6.51    3.41
  -1   5   1    2.33    3.14
   0   5   1    9.36    3.27
   1   5   1   24.47    3.20
   2   5   1   34.89    2.90
   3   5   1   56.13    2.70
   4   5   1  105.05    2.86
   5   5   1  102.64    2.68
   6   5   1   10.13    2.07
   7   5   1    0.18    2.32
   8   5   1   47.02    2.47
   9   5   1    4.33    2.27
  10   5   1   32.16    2.85
  11   5   1   23.75    3.04
  -7   6   1    4.49    4.33
  -6   6   1   -0.60    3.94
  -5   6   1    7.23    3.77
  -4   6   1   60.56    3.95
  -3   6   1   10.17    3.43
  -2   6   1    7.06    3.29
  -1   6   1   55.18    3.69
   0   6   1    0.94    2.95
   1   6   1  113.79    3.54
   2   6   1   70.08    2.97
   3   6   1   28.59    2.54
   4   6   1   22.41    2.53
   5   6   1   47.84    2.50
   6   6   1   13.70    2.39
   7   6   1    1.37    2.34
   8   6   1   73.25    2.72
   9   6   1   15.63    2.47
  10   6   1    3.71    2.66
  11   6   1    2.76    2.88
  -6   7   1   -0.24    4.44
  -5   7   1    4.40    4.06
  -4   7   1   18.40    4.10
  -3   7   1   15.09    3.76
  -2   7   1    1.11    3.42
  -1   7   1    6.60    3.23
   0   7   1   11.44    3.38
   1   7   1  118.69    3.84
   2   7   1   61.22    3.11
   3   7   1   12.62    2.65
   4   7   1   25.74    2.59
   5   7   1   50.61    2.58
   6   7   1    0.10    2.40
   7   7   1    3.33    2.37
   8   7   1   62.36    2.56
   9   7   1   60.97    2.73
  10   7   1    3.22    2.81
  11   7   1   -0.54    2.87
  -5   8   1    2.43    4.52
  -4   8   1    1.18    4.36
  -3   8   1    0.69    4.12
  -2   8   1    0.27    3.73
  -1   8   1    1.18    3.50
   0   8   1   12.22    3.49
   1   8   1   20.38    3.40
   2   8   1    3.36    3.05
   3   8   1   -0.17    2.69
   4   8   1   82.17    2.95
   5   8   1   27.01    2.65
   6   8   1    1.74    2.56
   7   8   1   -0.78    2.51
   8   8   1   42.45    2.72
   9   8   1   30.47    2.84
  10   8   1   13.04    2.91
  11   8   1    4.13    2.79
  -4   9   1    0.35    4.09
  -3   9   1    0.97    4.35
  -2   9   1    1.29    4.01
  -1   9   1    1.27    3.83
   0   9   1   29.96    3.89
   1   9   1    5.41    3.38
   2   9   1    5.55    3.14
   3   9   1    2.24    2.99
   4   9   1   38.65    2.95
   5   9   1    9.18    2.74
   6   9   1    0.66    2.67
   7   9   1    6.01    2.65
   8   9   1   14.33    2.78
   9   9   1    3.92    2.78
  10   9   1    0.86    2.83
  -3  10   1    1.96    5.21
  -2  10   1    0.99    4.67
  -1  10   1    3.77    4.19
   0  10   1   13.38    3.96
   1  10   1   22.47    3.81
   2  10   1   57.72    3.63
   3  10   1   19.91    3.25
   4  10   1    1.47    2.98
   5  10   1    0.56    2.79
   6  10   1   -0.04    2.75
   7  10   1   15.89    2.93
   8  10   1    4.69    2.81
   9  10   1    8.00    3.00
  10  10   1    3.23    3.10
  -1  11   1    2.40    4.93
   0  11   1    1.30    4.43
   1  11   1    7.33    4.10
   2  11   1   31.37    3.80
   3  11   1    8.12    3.55
   4  11   1   16.78    3.33
   5  11   1    2.10    3.28
   6  11   1    7.26    3.09
   7  11   1    5.68    3.02
   8  11   1    0.68    3.13
   9  11   1    3.31    3.27
   1  12   1    3.72    4.73
   2  12   1    2.14    4.26
   3  12   1    2.54    4.04
   4  12   1    7.29    3.80
   5  12   1   13.06    3.43
   6  12   1   10.45    3.43
   7  12   1    5.26    3.33
  -6 -11   2   15.78    3.71
  -5 -11   2   13.55    3.75
  -4 -11   2    4.72    4.19
  -3 -11   2    3.12    3.40
  -2 -11   2   15.91    3.83
  -1 -11   2    3.89    3.85
  -8 -10   2    3.68    3.37
  -7 -10   2    7.37    3.30
  -6 -10   2   25.56    3.33
  -5 -10   2   11.29    3.24
  -4 -10   2    7.12    3.62
  -3 -10   2    0.10    4.80
  -2 -10   2   26.75    3.21
  -1 -10   2    1.19    3.42
   0 -10   2    1.57    3.69
   1 -10   2    4.53    3.69
  -9  -9   2    7.06    3.22
  -8  -9   2    3.13    3.12
  -7  -9   2    5.61    2.80
  -6  -9   2   28.26    2.77
  -5  -9   2   12.11    2.95
  -4  -9   2    7.49    3.36
  -3  -9   2   19.21    3.85
  -2  -9   2    8.22    3.00
  -1  -9   2    0.46    3.21
   0  -9   2    1.58    3.32
   1  -9   2    4.74    3.53
   2  -9   2    4.80    3.70
   3  -9   2    2.58    4.01
  -9  -8   2   12.14    2.84
  -8  -8   2   25.22    2.98
  -7  -8   2   15.75    2.75
  -6  -8   2   35.76    2.91
  -5  -8   2   24.94    2.69
  -4  -8   2    2.11    2.99
  -3  -8   2   13.76    3.13
  -2  -8   2    3.92    3.67
  -1  -8   2   42.63    2.94
   0  -8   2   24.62    3.22
   1  -8   2    3.96    3.19
   2  -8   2   -0.72    3.15
   3  -8   2   -0.11    3.67
   4  -8   2    2.45    3.97
 -10  -7   2   11.64    2.98
  -9  -7   2    4.99    2.95
  -8  -7   2   17.84    2.76
  -7  -7   2    1.08    2.44
  -6  -7   2   15.95    2.56
  -5  -7   2   18.07    2.52
  -4  -7   2   15.80    2.87
  -3  -7   2   21.81    2.82
  -2  -7   2   17.14    3.24
  -1  -7   2   22.40    2.78
   0  -7   2   13.22    2.96
   1  -7   2   19.61    3.11
   2  -7   2    6.25    3.06
   3  -7   2    0.37    3.46
   4  -7   2   13.18    4.22
   5  -7   2    2.20    4.39
 -10  -6   2    3.45    2.82
  -9  -6   2   29.72    2.89
  -8  -6   2   13.80    2.56
  -7  -6   2    0.51    2.52
  -6  -6   2    9.93    2.53
  -5  -6   2    9.77    2.46
  -4  -6   2   22.15    2.70
  -3  -6   2    6.00    2.67
  -2  -6   2   41.61    2.90
  -1  -6   2    6.32    2.51
   0  -6   2    0.64    2.48
   1  -6   2   14.79    2.97
   2  -6   2    4.82    3.28
   3  -6   2    6.05    3.82
   4  -6   2    5.29    3.81
   5  -6   2   -0.85    3.89
   6  -6   2    4.26    4.17
 -10  -5   2    1.49    2.75
  -9  -5   2    3.50    2.77
  -8  -5   2    0.69    2.60
  -7  -5   2    8.14    2.41
  -6  -5   2    2.04    2.43
  -5  -5   2   24.21    2.53
  -4  -5   2   27.42    2.56
  -3  -5   2   15.88    2.56
  -2  -5   2   14.96    2.75
  -1  -5   2   14.40    3.30
   0  -5   2    3.52    2.70
   1  -5   2   16.91    3.00
   2  -5   2    4.89    3.51
   3  -5   2    7.54    3.63
   4  -5   2   18.19    3.38
   5  -5   2   18.38    3.54
   6  -5   2    0.90    3.60
   7  -5   2    3.68    4.01
 -10  -4   2    4.49    2.69
  -9  -4   2    1.59    2.68
  -8  -4   2    4.90    2.60
  -7  -4   2   39.43    2.39
  -6  -4   2   43.30    2.53
  -5  -4   2   55.38    2.60
  -4  -4   2   43.71    2.68
  -3  -4   2   12.45    2.51
  -2  -4   2   10.54    2.76
  -1  -4   2   60.88    3.38
   0  -4   2  143.45    3.53
   1  -4   2    3.90    2.75
   2  -4   2   87.14    3.89
   3  -4   2   30.90    3.35
   4  -4   2    0.94    3.09
   5  -4   2   17.22    3.17
   6  -4   2    1.65    3.31
   7  -4   2    0.56    3.47
   8  -4   2   -0.16    3.77
 -10  -3   2    6.45    2.78
  -9  -3   2    7.97    2.68
  -8  -3   2   26.53    2.66
  -7  -3   2  170.27    2.95
  -6  -3   2  246.15    3.21
  -5  -3   2  155.67    2.90
  -4  -3   2  222.92    3.28
  -3  -3   2    1.63    2.42
  -2  -3   2   31.10    2.86
  -1  -3   2    0.53    2.89
   0  -3   2    9.57    2.51
   1  -3   2   95.98    3.23
   2  -3   2  214.98    4.51
   3  -3   2  116.98    3.62
   4  -3   2    1.45    2.84
   5  -3   2    0.39    2.89
   6  -3   2    0.76    2.90
   7  -3   2    2.66    3.12
   8  -3   2    4.22    3.25
   9  -3   2    4.39    3.77
 -10  -2   2   -0.18    2.80
  -9  -2   2   10.09    2.53
  -8  -2   2   21.78    2.57
  -7  -2   2   42.34    2.39
  -6  -2   2   47.70    2.55
  -5  -2   2  116.32    2.76
  -4  -2   2    8.16    2.27
  -3  -2   2   55.55    2.62
  -2  -2   2  183.56    3.56
  -1  -2   2   43.47    3.29
   0  -2   2  100.51    3.36
   1  -2   2  456.35    4.93
   2  -2   2  761.12    6.59
   3  -2   2   36.14    2.93
   4  -2   2   10.90    2.69
   5  -2   2   14.89    2.57
   6  -2   2   21.28    2.76
   7  -2   2   15.49    2.93
   8  -2   2    2.28    3.08
   9  -2   2   15.28    3.48
 -10  -1   2    4.64    2.81
  -9  -1   2    0.68    2.67
  -8  -1   2   21.89    2.53
  -7  -1   2    7.89    2.25
  -6  -1   2   44.16    2.59
  -5  -1   2    2.23    2.45
  -4  -1   2   59.18    2.68
  -3  -1   2   11.08    2.29
  -2  -1   2   29.45    2.81
  -1  -1   2   77.49    3.63
   0  -1   2   28.96    4.08
   1  -1   2  657.70    6.80
   2  -1   2  585.22    5.83
   3  -1   2   47.91    2.91
   4  -1   2    1.79    2.52
   5  -1   2   34.86    2.72
   6  -1   2    2.60    2.51
   7  -1   2    0.32    2.74
   8  -1   2   37.87    2.92
   9  -1   2   17.32    3.13
  10  -1   2   19.63    3.56
 -10   0   2    1.19    3.16
  -9   0   2    7.67    2.90
  -8   0   2    6.14    2.65
  -7   0   2    1.24    2.56
  -6   0   2   77.14    2.69
  -5   0   2   19.09    2.39
  -4   0   2    0.32    2.48
  -3   0   2   88.45    2.95
  -2   0   2   73.78    3.07
  -1   0   2  174.60    4.40
   0   0   2   15.35    4.01
   1   0   2    2.92    3.51
   2   0   2   74.62    3.43
   3   0   2    0.91    2.44
   4   0   2  185.39    3.44
   5   0   2   44.63    2.71
   6   0   2   28.68    2.60
   7   0   2    1.73    2.63
   8   0   2    6.54    2.62
   9   0   2    2.76    2.93
  10   0   2    3.54    3.19
 -10   1   2    2.30    3.19
  -9   1   2    1.52    3.10
  -8   1   2    2.23    2.95
  -7   1   2   16.81    2.53
  -6   1   2    8.30    2.42
  -5   1   2   34.33    2.50
  -4   1   2   38.75    2.44
  -3   1   2    7.85    2.58
  -2   1   2   91.58    3.28
  -1   1   2  592.43    6.80
   0   1   2   78.71    4.66
   1   1   2  330.59    5.51
   2   1   2   17.86    3.09
   3   1   2    3.28    2.49
   4   1   2   84.25    2.77
   5   1   2    2.71    2.32
   6   1   2   19.78    2.48
   7   1   2   17.66    2.55
   8   1   2    9.75    2.62
   9   1   2    0.69    2.72
  10   1   2    0.59    2.98
  -9   2   2    7.87    3.18
  -8   2   2    0.33    2.88
  -7   2   2   19.20    2.71
  -6   2   2   13.38    2.66
  -5   2   2   95.33    2.94
  -4   2   2  284.52    3.70
  -3   2   2   54.37    2.93
  -2   2   2    8.89    2.85
  -1   2   2  112.68    4.40
   0   2   2  259.42    5.97
   1   2   2   16.62    3.48
   2   2   2  271.14    4.48
   3   2   2   51.06    2.83
   4   2   2   16.00    2.35
   5   2   2   61.27    2.58
   6   2   2   20.30    2.21
   7   2   2    7.90    2.32
   8   2   2    9.88    2.40
   9   2   2   -0.64    2.63
  10   2   2    2.53    2.95
  11   2   2    5.01    2.94
  -9   3   2    5.26    3.59
  -8   3   2    0.77    3.14
  -7   3   2    4.43    2.99
  -6   3   2    1.73    2.82
  -5   3   2   13.97    2.75
  -4   3   2   61.72    3.30
  -3   3   2  182.07    3.68
  -2   3   2   63.77    3.34
  -1   3   2    4.91    2.53
   0   3   2  486.58    6.28
   1   3   2  235.68    4.66
   2   3   2  192.59    3.91
   3   3   2  149.99    3.24
   4   3   2   77.60    2.76
   5   3   2  194.04    3.09
   6   3   2   44.57    2.31
   7   3   2   12.92    2.21
   8   3   2   27.77    2.47
   9   3   2    1.25    2.50
  10   3   2    1.36    2.78
  11   3   2    6.80    3.09
  -8   4   2    1.22    3.75
  -7   4   2   13.38    3.16
  -6   4   2   15.69    2.97
  -5   4   2    1.27    3.11
  -4   4   2    2.33    2.96
  -3   4   2   66.04    3.57
  -2   4   2   21.48    2.72
  -1   4   2    0.27    2.69
   0   4   2  189.15    4.63
   1   4   2    2.60    2.85
   2   4   2   16.39    2.52
   3   4   2  148.87    3.10
   4   4   2  119.87    2.90
   5   4   2   89.96    2.69
   6   4   2   32.30    2.29
   7   4   2    8.63    2.25
   8   4   2   -0.67    2.37
   9   4   2   61.59    2.78
  10   4   2   17.29    2.78
  11   4   2    7.13    2.99
  -8   5   2   -0.51    3.97
  -7   5   2   19.89    3.81
  -6   5   2    7.83    3.39
  -5   5   2    6.14    3.16
  -4   5   2   16.77    3.40
  -3   5   2   55.35    3.66
  -2   5   2   15.35    2.94
  -1   5   2   34.70    3.23
   0   5   2   41.15    3.51
   1   5   2   54.48    3.22
   2   5   2   72.95    2.90
   3   5   2   40.99    2.54
   4   5   2   79.32    2.60
   5   5   2   11.14    2.22
   6   5   2    4.24    2.16
   7   5   2   28.89    2.41
   8   5   2   25.22    2.27
   9   5   2   46.76    2.62
  10   5   2   28.40    2.60
  11   5   2    2.29    2.75
  -7   6   2    4.14    4.59
  -6   6   2   -2.01    3.81
  -5   6   2    2.40    3.68
  -4   6   2   53.40    3.65
  -3   6   2   12.04    3.06
  -2   6   2   14.89    3.28
  -1   6   2    3.50    3.06
   0   6   2    0.06    3.16
   1   6   2   83.64    3.29
   2   6   2  206.97    3.63
   3   6   2   14.87    2.51
   4   6   2    0.94    2.33
   5   6   2   89.54    2.61
   6   6   2  114.48    2.73
   7   6   2    5.93    2.26
   8   6   2    6.33    2.45
   9   6   2   21.41    2.53
  10   6   2   25.07    2.67
  11   6   2    4.83    2.82
  -6   7   2   -1.81    3.71
  -5   7   2    2.73    3.23
  -4   7   2    9.20    3.26
  -3   7   2    7.96    3.16
  -2   7   2    0.58    3.48
  -1   7   2    0.83    3.35
   0   7   2    1.64    3.17
   1   7   2   42.40    3.32
   2   7   2   94.85    3.09
   3   7   2   27.37    2.73
   4   7   2   13.07    2.51
   5   7   2   36.36    2.51
   6   7   2   55.33    2.62
   7   7   2    3.29    2.30
   8   7   2   37.09    2.50
   9   7   2   32.17    2.68
  10   7   2   18.31    2.53
  11   7   2    5.64    2.98
  -5   8   2    5.89    3.82
  -4   8   2    5.49    3.71
  -3   8   2    6.69    3.19
  -2   8   2    2.71    3.92
  -1   8   2   -0.16    3.42
   0   8   2    0.22    3.33
   1   8   2   37.61    3.27
   2   8   2   11.74    2.92
   3   8   2   85.84    3.04
   4   8   2   21.18    2.50
   5   8   2   63.95    2.67
   6   8   2    0.45    2.50
   7   8   2   14.59    2.52
   8   8   2    6.45    2.45
   9   8   2   16.48    2.74
  10   8   2    3.56    2.82
  11   8   2    1.78    2.82
  -4   9   2    5.19    3.90
  -3   9   2    3.84    3.67
  -2   9   2    4.39    3.46
  -1   9   2   25.86    4.07
   0   9   2    6.97    3.77
   1   9   2    5.34    3.27
   2   9   2    3.28    3.07
   3   9   2   21.37    3.09
   4   9   2   38.88    2.86
   5   9   2    8.94    2.60
   6   9   2    5.96    2.60
   7   9   2    3.25    2.62
   8   9   2    4.51    2.56
   9   9   2    6.38    2.77
  10   9   2    4.89    2.83
  -3  10   2    0.55    4.20
  -2  10   2    1.19    4.03
  -1  10   2    0.88    4.49
   0  10   2   18.46    4.10
   1  10   2    5.81    3.59
   2  10   2   30.98    3.55
   3  10   2   22.58    3.20
   4  10   2   10.13    2.94
   5  10   2    2.91    2.93
   6  10   2   12.88    2.78
   7  10   2    7.68    2.75
   8  10   2    5.43    2.85
   9  10   2    0.46    2.94
  10  10   2    5.71    2.94
  -1  11   2    0.05    5.28
   0  11   2    4.91    4.32
   1  11   2    2.51    3.92
   2  11   2    3.58    3.60
   3  11   2   11.93    3.59
   4  11   2   12.50    3.18
   5  11   2   22.21    3.16
   6  11   2   49.12    3.11
   7  11   2   33.04    3.07
   8  11   2   10.19    3.05
   9  11   2   12.56    3.16
   0  12   2    0.47    4.83
   1  12   2    0.92    4.48
   2  12   2    0.90    4.06
   3  12   2    1.68    3.85
   4  12   2   27.93    3.67
   5  12   2   11.18    3.44
   6  12   2    3.58    3.43
   7  12   2   12.14    3.29
   8  12   2    2.46    3.34
   4  13   2   24.32    4.11
   5  13   2    9.90    3.80
  -7 -10   3    2.61    3.32
  -6 -10   3    3.63    3.49
  -5 -10   3   15.67    3.63
  -4 -10   3    4.91    4.24
  -3 -10   3    2.59    3.10
  -2 -10   3    6.56    3.13
  -1 -10   3    3.94    3.60
   0 -10   3   -0.47    3.68
  -8  -9   3   13.84    3.27
  -7  -9   3   15.75    3.19
  -6  -9   3    7.09    3.21
  -5  -9   3    4.49    3.26
  -4  -9   3   17.46    3.73
  -3  -9   3    3.41    2.80
  -2  -9   3   16.28    2.96
  -1  -9   3    0.04    2.95
   0  -9   3    2.69    3.42
   1  -9   3    8.35    3.59
   2  -9   3    1.63    3.64
  -9  -8   3    1.34    2.99
  -8  -8   3    4.46    2.94
  -7  -8   3   19.89    2.95
  -6  -8   3    2.29    2.88
  -5  -8   3    2.47    2.85
  -4  -8   3    8.92    3.23
  -3  -8   3    0.72    3.10
  -2  -8   3   20.91    2.82
  -1  -8   3   20.25    2.96
   0  -8   3   11.83    3.20
   1  -8   3    3.73    3.28
   2  -8   3    4.16    3.58
   3  -8   3    3.82    3.92
   4  -8   3    2.76    4.12
  -9  -7   3    3.56    2.99
  -8  -7   3    8.07    2.84
  -7  -7   3    5.28    2.72
  -6  -7   3    0.58    2.58
  -5  -7   3    0.38    2.76
  -4  -7   3    3.41    2.63
  -3  -7   3   39.58    3.17
  -2  -7   3    0.96    3.60
  -1  -7   3   37.38    2.77
   0  -7   3   31.39    3.25
   1  -7   3    6.62    2.98
   2  -7   3    6.03    3.17
   3  -7   3   -0.46    3.37
   4  -7   3    0.28    3.65
   5  -7   3    2.87    4.84
 -10  -6   3    3.35    3.17
  -9  -6   3    3.40    2.76
  -8  -6   3    7.55    2.68
  -7  -6   3    1.36    2.61
  -6  -6   3   10.43    2.68
  -5  -6   3   37.09    2.86
  -4  -6   3   20.51    2.60
  -3  -6   3   83.53    2.99
  -2  -6   3    1.59    2.75
  -1  -6   3    0.73    2.55
   0  -6   3    5.29    2.67
   1  -6   3   16.50    2.83
   2  -6   3   32.22    3.28
   3  -6   3    4.19    3.07
   4  -6   3    4.24    4.08
   5  -6   3    1.58    4.11
   6  -6   3    2.04    4.32
 -10  -5   3   14.56    3.11
  -9  -5   3    7.38    2.89
  -8  -5   3    4.26    2.56
  -7  -5   3    7.85    2.57
  -6  -5   3   22.05    2.54
  -5  -5   3   33.79    2.63
  -4  -5   3  121.97    3.04
  -3  -5   3   50.02    2.64
  -2  -5   3   27.14    2.73
  -1  -5   3    3.27    2.44
   0  -5   3    5.95    2.59
   1  -5   3    4.80    2.72
   2  -5   3    1.29    2.74
   3  -5   3    4.18    3.73
   4  -5   3   43.65    3.80
   5  -5   3    1.93    3.71
   6  -5   3    1.76    3.82
   7  -5   3    1.62    3.99
 -10  -4   3   10.91    2.94
  -9  -4   3    7.48    2.75
  -8  -4   3    4.52    2.71
  -7  -4   3  102.53    2.89
  -6  -4   3  136.22    2.93
  -5  -4   3  115.34    2.88
  -4  -4   3   23.69    2.35
  -3  -4   3    2.81    2.51
  -2  -4   3    0.91    2.64
  -1  -4   3   80.49    3.30
   0  -4   3    9.06    2.52
   1  -4   3    1.66    2.73
   2  -4   3   45.87    3.01
   3  -4   3   78.09    3.57
   4  -4   3   28.31    3.35
   5  -4   3    2.92    3.13
   6  -4   3    2.58    3.41
   7  -4   3    0.92    3.51
   8  -4   3   -0.04    3.92
 -10  -3   3    2.10    3.07
  -9  -3   3    0.99    2.75
  -8  -3   3    1.84    2.49
  -7  -3   3   22.41    2.57
  -6  -3   3   57.63    2.56
  -5  -3   3  115.38    2.80
  -4  -3   3   83.24    2.80
  -3  -3   3   -0.04    2.37
  -2  -3   3    4.08    2.67
  -1  -3   3   16.47    3.02
   0  -3   3   50.66    2.76
   1  -3   3   25.69    2.75
   2  -3   3  159.01    3.98
   3  -3   3  478.57    5.30
   4  -3   3   23.94    2.96
   5  -3   3   27.44    3.06
   6  -3   3   21.41    3.24
   7  -3   3   10.50    3.36
   8  -3   3    0.26    3.50
 -10  -2   3    5.61    3.12
  -9  -2   3    7.96    2.95
  -8  -2   3    1.58    2.55
  -7  -2   3   -0.08    2.42
  -6  -2   3    5.66    2.39
  -5  -2   3   12.52    2.33
  -4  -2   3   42.67    2.56
  -3  -2   3   16.65    2.51
  -2  -2   3   28.67    2.65
  -1  -2   3   31.65    3.11
   0  -2   3   53.90    3.39
   1  -2   3    6.58    3.30
   2  -2   3  343.14    4.81
   3  -2   3   91.27    3.26
   4  -2   3   -1.09    2.86
   5  -2   3    2.57    2.64
   6  -2   3   33.63    2.87
   7  -2   3   20.49    2.92
   8  -2   3    0.68    2.98
   9  -2   3    7.89    3.40
 -10  -1   3    3.93    3.08
  -9  -1   3   12.74    2.95
  -8  -1   3    2.89    2.70
  -7  -1   3   17.27    2.56
  -6  -1   3    8.52    2.55
  -5  -1   3   56.18    2.58
  -4  -1   3  196.48    3.11
  -3  -1   3    1.01    2.38
  -2  -1   3   66.73    2.79
  -1  -1   3   47.40    2.89
   0  -1   3   28.66    3.33
   1  -1   3   22.39    3.24
   2  -1   3  152.73    3.71
   3  -1   3   72.42    3.04
   4  -1   3    1.48    2.70
   5  -1   3    7.07    2.58
   6  -1   3    2.12    2.77
   7  -1   3    3.23    2.86
   8  -1   3    0.46    3.05
   9  -1   3    2.64    3.01
  10  -1   3    1.39    3.59
 -10   0   3    5.66    3.21
  -9   0   3    7.58    2.87
  -8   0   3    0.71    2.81
  -7   0   3    7.63    2.62
  -6   0   3   29.72    2.54
  -5   0   3    5.29    2.41
  -4   0   3   24.22    2.52
  -3   0   3  287.16    3.59
  -2   0   3   76.80    2.95
  -1   0   3  206.81    4.03
   0   0   3   11.35    3.19
   1   0   3   21.49    3.07
   2   0   3  123.07    3.39
   3   0   3   17.55    2.66
   4   0   3    7.88    2.50
   5   0   3   47.71    2.74
   6   0   3    4.09    2.44
   7   0   3    0.09    2.56
   8   0   3    6.91    2.71
   9   0   3   11.73    2.85
  10   0   3    1.35    3.06
  -9   1   3    3.37    3.22
  -8   1   3   47.09    2.81
  -7   1   3    0.42    2.50
  -6   1   3   41.11    2.82
  -5   1   3   40.76    2.63
  -4   1   3   10.88    2.25
  -3   1   3  205.89    3.48
  -2   1   3   82.97    3.22
  -1   1   3   20.75    2.95
   0   1   3  345.78    5.18
   1   1   3   91.53    3.68
   2   1   3   78.15    3.20
   3   1   3   45.48    2.72
   4   1   3   71.85    2.80
   5   1   3   34.37    2.54
   6   1   3   67.70    2.71
   7   1   3   13.29    2.61
   8   1   3    4.96    2.56
   9   1   3    1.65    2.78
  10   1   3    2.79    3.11
  -9   2   3    4.72    3.27
  -8   2   3   16.08    3.04
  -7   2   3    3.84    2.77
  -6   2   3    8.04    2.59
  -5   2   3   28.53    2.75
  -4   2   3   67.75    2.89
  -3   2   3   40.95    2.74
  -2   2   3   73.31    3.34
  -1   2   3   99.27    3.64
   0   2   3    2.41    3.25
   1   2   3  630.85    6.00
   2   2   3   31.37    2.81
   3   2   3    0.55    2.30
   4   2   3  213.35    3.19
   5   2   3   69.79    2.60
   6   2   3  219.08    3.02
   7   2   3   59.93    2.50
   8   2   3   20.41    2.58
   9   2   3    2.57    2.56
  10   2   3    0.63    2.86
  11   2   3    0.74    3.09
  -9   3   3   12.58    3.69
  -8   3   3    1.04    3.33
  -7   3   3   -0.13    3.10
  -6   3   3    5.38    2.93
  -5   3   3   14.09    2.83
  -4   3   3   29.77    2.84
  -3   3   3   35.73    3.10
  -2   3   3   21.31    3.25
  -1   3   3  114.48    3.67
   0   3   3  118.03    4.06
   1   3   3  146.75    3.71
   2   3   3  102.35    3.08
   3   3   3   45.14    2.57
   4   3   3   96.65    2.82
   5   3   3   45.53    2.49
   6   3   3   48.94    2.42
   7   3   3   20.87    2.42
   8   3   3    8.58    2.30
   9   3   3    3.66    2.50
  10   3   3    6.10    2.82
  11   3   3   12.79    3.10
  -8   4   3    3.64    3.64
  -7   4   3    9.54    3.38
  -6   4   3   27.53    3.28
  -5   4   3    1.60    3.12
  -4   4   3    1.77    3.12
  -3   4   3   87.58    3.77
  -2   4   3  212.88    3.42
  -1   4   3   20.95    2.66
   0   4   3   75.79    3.31
   1   4   3    2.26    2.76
   2   4   3   13.02    2.58
   3   4   3  225.73    3.42
   4   4   3   47.27    2.51
   5   4   3   27.63    2.24
   6   4   3    9.12    2.17
   7   4   3    0.13    2.34
   8   4   3   10.27    2.19
   9   4   3    2.83    2.54
  10   4   3    5.20    2.77
  11   4   3   15.26    3.05
  -7   5   3    2.46    3.73
  -6   5   3   17.50    3.76
  -5   5   3    4.95    3.47
  -4   5   3    6.81    2.59
  -3   5   3   53.53    2.75
  -2   5   3   66.99    3.22
  -1   5   3    1.74    2.71
   0   5   3  154.71    4.20
   1   5   3   36.37    2.83
   2   5   3  134.00    3.28
   3   5   3  344.99    3.92
   4   5   3  103.50    2.78
   5   5   3    2.28    2.26
   6   5   3   69.98    2.47
   7   5   3   51.60    2.42
   8   5   3    1.43    2.20
   9   5   3    8.88    2.34
  10   5   3   42.67    2.82
  11   5   3   12.45    2.87
  -7   6   3    4.26    3.27
  -6   6   3    3.70    3.24
  -5   6   3   17.29    3.13
  -4   6   3    6.06    3.11
  -3   6   3   34.13    2.85
  -2   6   3   15.56    2.75
  -1   6   3    1.76    2.68
   0   6   3    6.49    3.58
   1   6   3    4.46    2.98
   2   6   3   50.24    2.82
   3   6   3   45.11    2.58
   4   6   3    4.19    2.34
   5   6   3    8.99    2.23
   6   6   3   44.37    2.34
   7   6   3   84.15    2.63
   8   6   3   23.97    2.53
   9   6   3   11.19    2.45
  10   6   3   33.53    2.58
  11   6   3   11.58    2.84
  -6   7   3   16.26    3.45
  -5   7   3   15.83    3.11
  -4   7   3   25.09    3.11
  -3   7   3    8.95    3.14
  -2   7   3    2.58    2.78
  -1   7   3    1.34    2.84
   0   7   3    1.75    3.24
   1   7   3   33.18    3.11
   2   7   3   69.55    3.05
   3   7   3   19.32    2.56
   4   7   3   20.02    2.59
   5   7   3    4.72    2.34
   6   7   3   38.67    2.52
   7   7   3   16.74    2.24
   8   7   3   25.65    2.21
   9   7   3    6.81    2.49
  10   7   3    5.12    2.51
  11   7   3    1.60    2.93
  -5   8   3   10.04    3.52
  -4   8   3    8.84    3.44
  -3   8   3    7.32    3.20
  -2   8   3   19.57    3.05
  -1   8   3   -0.02    2.91
   0   8   3    2.92    3.50
   1   8   3    3.46    3.34
   2   8   3    3.56    2.82
   3   8   3   19.74    2.74
   4   8   3   61.29    2.85
   5   8   3   26.29    2.52
   6   8   3   10.13    2.53
   7   8   3    7.74    2.40
   8   8   3   31.67    2.52
   9   8   3    8.46    2.50
  10   8   3    9.40    2.56
  11   8   3    3.33    2.69
  -4   9   3    3.45    3.74
  -3   9   3   -1.22    3.51
  -2   9   3    9.85    3.30
  -1   9   3   22.89    3.25
   0   9   3   10.15    3.62
   1   9   3   26.66    3.60
   2   9   3    8.16    3.00
   3   9   3   79.02    3.18
   4   9   3   43.59    2.77
   5   9   3   43.69    2.67
   6   9   3    7.82    2.56
   7   9   3    2.91    2.59
   8   9   3   39.69    2.68
   9   9   3    5.15    2.62
  10   9   3   13.90    2.81
  11   9   3   10.02    2.92
  -3  10   3    0.74    3.60
  -2  10   3    5.05    3.46
  -1  10   3   25.70    3.47
   0  10   3    4.78    4.25
   1  10   3   13.44    3.56
   2  10   3    4.06    3.30
   3  10   3   17.59    3.12
   4  10   3   23.32    3.02
   5  10   3   75.43    3.07
   6  10   3   61.99    2.96
   7  10   3   52.15    2.82
   8  10   3   17.60    2.67
   9  10   3    3.55    2.83
  10  10   3    3.94    3.04
  -2  11   3   10.48    4.12
  -1  11   3   12.55    4.13
   0  11   3    3.20    4.75
   1  11   3    8.71    3.90
   2  11   3    1.54    3.60
   3  11   3    8.85    3.31
   4  11   3    5.19    3.17
   5  11   3    4.23    3.08
   6  11   3   26.61    3.01
   7  11   3    8.35    2.95
   8  11   3    9.36    2.92
   9  11   3    4.17    2.91
   0  12   3    2.05    4.98
   1  12   3    0.54    4.25
   2  12   3    1.05    3.97
   3  12   3    2.83    3.72
   4  12   3    5.22    3.35
   5  12   3   10.90    3.40
   6  12   3    7.20    3.21
   7  12   3   -0.03    3.09
   8  12   3    1.39    3.18
   3  13   3    1.84    4.08
   4  13   3    4.37    3.88
   5  13   3   11.63    3.79
   6  13   3    9.64    3.63
  -5 -10   4    0.69    3.89
  -4 -10   4    7.66    3.31
  -3 -10   4    6.55    3.20
  -2 -10   4    3.24    3.25
  -1 -10   4    0.56    3.52
  -7  -9   4    4.38    3.33
  -6  -9   4    9.42    3.44
  -5  -9   4    1.29    3.75
  -4  -9   4    0.16    3.44
  -3  -9   4    6.35    2.94
  -2  -9   4    1.68    3.03
  -1  -9   4    1.40    3.46
   0  -9   4    8.29    3.21
   1  -9   4   11.56    3.52
  -8  -8   4    0.09    3.17
  -7  -8   4    7.91    2.98
  -6  -8   4    4.01    2.99
  -5  -8   4    0.90    3.21
  -4  -8   4    6.95    3.08
  -3  -8   4    8.80    3.63
  -2  -8   4   38.75    2.94
  -1  -8   4    5.59    3.02
   0  -8   4    1.19    2.95
   1  -8   4    2.04    3.24
   2  -8   4    2.30    3.52
   3  -8   4   -0.56    3.75
  -9  -7   4    2.65    3.09
  -8  -7   4    4.52    2.90
  -7  -7   4   15.60    2.93
  -6  -7   4    1.58    2.76
  -5  -7   4    0.22    3.04
  -4  -7   4   33.56    3.09
  -3  -7   4    0.71    2.96
  -2  -7   4   33.03    2.78
  -1  -7   4    6.04    2.72
   0  -7   4    5.14    2.85
   1  -7   4    3.51    2.88
   2  -7   4   -1.52    3.10
   3  -7   4    1.26    3.43
   4  -7   4   -0.43    3.66
  -9  -6   4    8.50    3.00
  -8  -6   4    2.36    2.64
  -7  -6   4    0.78    2.68
  -6  -6   4   18.08    2.82
  -5  -6   4   48.30    2.95
  -4  -6   4   39.80    2.79
  -3  -6   4   55.35    3.08
  -2  -6   4   -0.37    2.91
  -1  -6   4   10.71    2.69
   0  -6   4   -0.01    2.70
   1  -6   4    1.07    2.70
   2  -6   4    0.48    2.96
   3  -6   4   -0.57    3.05
   4  -6   4    1.01    3.37
   5  -6   4   12.90    3.58
  -9  -5   4   18.64    2.93
  -8  -5   4    8.69    2.80
  -7  -5   4    1.72    2.51
  -6  -5   4   29.83    2.55
  -5  -5   4   88.51    2.96
  -4  -5   4   38.20    2.70
  -3  -5   4  136.72    3.26
  -2  -5   4    2.10    2.91
  -1  -5   4    2.08    2.56
   0  -5   4   12.68    2.65
   1  -5   4    6.56    2.87
   2  -5   4    2.81    2.66
   3  -5   4   33.11    3.09
   4  -5   4   37.60    3.70
   5  -5   4   11.25    3.90
   6  -5   4   -0.55    3.95
 -10  -4   4   -1.56    3.08
  -9  -4   4   -1.80    2.90
  -8  -4   4    3.62    2.76
  -7  -4   4    0.63    2.54
  -6  -4   4   43.12    2.63
  -5  -4   4   25.04    2.53
  -4  -4   4   39.06    2.54
  -3  -4   4   74.14    2.93
  -2  -4   4    4.52    2.58
  -1  -4   4   25.74    3.09
   0  -4   4   26.99    2.61
   1  -4   4   11.57    2.64
   2  -4   4    9.23    2.75
   3  -4   4   98.55    3.12
   4  -4   4  295.14    4.84
   5  -4   4    8.45    3.41
   6  -4   4    3.24    3.55
   7  -4   4    4.11    3.83
 -10  -3   4    1.74    3.02
  -9  -3   4    3.68    2.78
  -8  -3   4    1.51    2.68
  -7  -3   4    5.35    2.61
  -6  -3   4    8.26    2.54
  -5  -3   4   27.37    2.50
  -4  -3   4   37.35    2.49
  -3  -3   4   15.73    2.53
  -2  -3   4   11.80    2.63
  -1  -3   4   52.17    2.85
   0  -3   4   59.98    3.21
   1  -3   4    4.93    2.45
   2  -3   4    4.14    2.54
   3  -3   4   68.43    3.28
   4  -3   4   58.42    3.26
   5  -3   4    6.06    3.08
   6  -3   4    7.88    3.33
   7  -3   4    5.58    3.29
   8  -3   4    0.76    3.61
 -10  -2   4    1.61    3.23
  -9  -2   4   15.64    2.91
  -8  -2   4    8.46    2.73
  -7  -2   4    1.03    2.60
  -6  -2   4    4.18    2.49
  -5  -2   4   68.93    2.57
  -4  -2   4   51.11    2.56
  -3  -2   4   43.47    2.57
  -2  -2   4    1.02    2.47
  -1  -2   4    7.80    2.74
   0  -2   4   28.18    3.20
   1  -2   4   68.05    3.58
   2  -2   4    1.93    2.97
   3  -2   4    9.28    2.86
   4  -2   4    3.03    2.76
   5  -2   4    3.18    2.81
   6  -2   4   -0.40    2.77
   7  -2   4    1.65    2.93
   8  -2   4    0.34    3.22
   9  -2   4    1.70    3.59
 -10  -1   4    8.58    3.28
  -9  -1   4   13.74    2.88
  -8  -1   4   12.65    2.71
  -7  -1   4    2.75    2.46
  -6  -1   4    1.10    2.31
  -5  -1   4   20.91    2.36
  -4  -1   4   41.24    2.49
  -3  -1   4   40.15    2.61
  -2  -1   4  106.20    3.01
  -1  -1   4   15.92    2.65
   0  -1   4   52.91    3.30
   1  -1   4   10.66    2.89
   2  -1   4    3.33    2.85
   3  -1   4   31.69    2.77
   4  -1   4    5.80    2.57
   5  -1   4   40.11    2.75
   6  -1   4   15.29    2.90
   7  -1   4   31.49    2.95
   8  -1   4    9.01    2.98
   9  -1   4    0.30    3.01
  -9   0   4    8.03    2.99
  -8   0   4    7.92    2.74
  -7   0   4   49.47    2.90
  -6   0   4    8.95    2.61
  -5   0   4    2.16    2.32
  -4   0   4   85.66    2.81
  -3   0   4   34.18    2.56
  -2   0   4  254.75    3.56
  -1   0   4   65.78    2.92
   0   0   4  145.70    3.51
   1   0   4   39.06    2.98
   2   0   4   17.37    2.78
   3   0   4   20.30    2.66
   4   0   4   33.93    2.59
   5   0   4   25.00    2.64
   6   0   4   13.53    2.62
   7   0   4   22.61    2.69
   8   0   4   28.70    3.00
   9   0   4   22.79    3.09
  10   0   4    2.67    3.33
  -9   1   4    8.91    3.28
  -8   1   4    6.29    3.00
  -7   1   4   22.58    2.93
  -6   1   4    2.47    2.52
  -5   1   4    4.09    2.54
  -4   1   4   12.02    2.35
  -3   1   4   91.98    2.79
  -2   1   4  190.55    3.56
  -1   1   4  143.93    3.42
   0   1   4   75.86    3.17
   1   1   4   15.19    2.71
   2   1   4    9.07    2.41
   3   1   4  146.30    3.09
   4   1   4  123.95    2.90
   5   1   4  153.21    3.09
   6   1   4   74.06    2.83
   7   1   4   43.33    2.80
   8   1   4    0.27    2.63
   9   1   4   12.42    2.79
  10   1   4    0.71    3.07
  -9   2   4   11.30    3.49
  -8   2   4   35.44    3.32
  -7   2   4    0.75    2.73
  -6   2   4    2.78    2.75
  -5   2   4   44.58    2.65
  -4   2   4    8.61    2.61
  -3   2   4    3.39    2.54
  -2   2   4   31.16    2.91
  -1   2   4   66.49    3.26
   0   2   4  101.59    3.39
   1   2   4   98.87    3.21
   2   2   4    2.30    2.44
   3   2   4    9.51    2.36
   4   2   4    1.00    2.33
   5   2   4   71.30    2.62
   6   2   4   42.80    2.46
   7   2   4   42.45    2.54
   8   2   4    6.00    2.55
   9   2   4    1.22    2.65
  10   2   4    5.00    2.85
  11   2   4    2.97    3.16
  -8   3   4   19.79    3.39
  -7   3   4   19.01    3.20
  -6   3   4   17.59    2.89
  -5   3   4   61.45    2.93
  -4   3   4   16.71    2.70
  -3   3   4    7.52    2.82
  -2   3   4   70.92    2.97
  -1   3   4  191.42    4.07
   0   3   4   35.15    3.15
   1   3   4  113.14    3.29
   2   3   4  208.32    3.50
   3   3   4    3.11    2.26
   4   3   4  101.05    2.79
   5   3   4    7.99    2.30
   6   3   4   14.74    2.21
   7   3   4    5.43    2.25
   8   3   4   12.99    2.31
   9   3   4    1.12    2.52
  10   3   4    2.53    2.79
  11   3   4    6.18    2.97
  -8   4   4    2.13    3.73
  -7   4   4    1.84    3.40
  -6   4   4    4.96    3.29
  -5   4   4   18.98    3.23
  -4   4   4    4.37    3.10
  -3   4   4   13.26    3.14
  -2   4   4  103.60    2.89
  -1   4   4  139.91    3.18
   0   4   4   39.57    3.27
   1   4   4  124.37    3.46
   2   4   4    9.56    2.58
   3   4   4  173.44    3.16
   4   4   4  405.83    3.76
   5   4   4    5.56    2.28
   6   4   4    1.89    2.16
   7   4   4   36.98    2.45
   8   4   4   54.58    2.57
   9   4   4    1.00    2.26
  10   4   4    3.36    2.56
  11   4   4   16.35    3.05
  -7   5   4   -0.59    3.88
  -6   5   4    6.26    3.71
  -5   5   4    7.10    2.75
  -4   5   4   17.02    2.72
  -3   5   4   15.31    2.60
  -2   5   4   87.67    2.95
  -1   5   4  133.91    3.11
   0   5   4   57.33    3.26
   1   5   4    0.64    2.81
   2   5   4   34.92    2.75
   3   5   4   20.26    2.35
   4   5   4   94.58    2.66
   5   5   4    0.73    2.15
   6   5   4    1.09    2.12
   7   5   4   33.94    2.46
   8   5   4   35.07    2.33
   9   5   4    0.54    2.50
  10   5   4    3.08    2.62
  11   5   4   26.49    3.10
  -7   6   4    3.74    3.22
  -6   6   4    3.86    2.99
  -5   6   4   24.48    2.91
  -4   6   4   18.85    3.09
  -3   6   4    3.92    2.60
  -2   6   4    5.15    2.57
  -1   6   4    2.60    2.83
   0   6   4   43.43    2.80
   1   6   4   12.28    2.93
   2   6   4   42.78    2.88
   3   6   4   27.87    2.50
   4   6   4   13.14    2.28
   5   6   4   22.60    2.30
   6   6   4   12.51    2.23
   7   6   4   14.11    2.22
   8   6   4   10.46    2.47
   9   6   4   10.18    2.55
  10   6   4   10.42    2.73
  11   6   4   19.69    2.99
  -6   7   4    0.38    3.52
  -5   7   4   21.08    3.26
  -4   7   4   22.01    3.17
  -3   7   4   19.35    2.85
  -2   7   4    2.94    2.77
  -1   7   4    0.56    2.84
   0   7   4   27.11    2.83
   1   7   4    0.86    2.98
   2   7   4   33.28    2.81
   3   7   4   21.23    2.65
   4   7   4   37.26    2.58
   5   7   4  151.65    2.92
   6   7   4  124.47    2.65
   7   7   4   32.32    2.37
   8   7   4    5.61    2.27
   9   7   4    9.39    2.47
  10   7   4    4.32    2.64
  11   7   4    4.71    2.75
  -5   8   4    0.53    3.43
  -4   8   4   -0.02    3.20
  -3   8   4   18.53    3.11
  -2   8   4   16.72    3.17
  -1   8   4   42.76    2.96
   0   8   4   91.06    3.28
   1   8   4   83.32    3.57
   2   8   4   55.08    3.15
   3   8   4   17.11    2.66
   4   8   4   61.08    2.65
   5   8   4   23.75    2.57
   6   8   4   14.79    2.51
   7   8   4   82.02    2.70
   8   8   4    6.88    2.42
   9   8   4   65.37    2.69
  10   8   4    1.53    2.75
  11   8   4   -0.75    2.93
  -4   9   4    5.24    3.60
  -3   9   4    2.01    3.19
  -2   9   4   15.07    3.22
  -1   9   4   16.50    2.90
   0   9   4   16.64    3.10
   1   9   4   24.77    3.38
   2   9   4   33.32    3.16
   3   9   4   24.98    3.00
   4   9   4   70.56    3.02
   5   9   4   16.55    2.57
   6   9   4    7.42    2.56
   7   9   4   35.31    2.65
   8   9   4   22.46    2.73
   9   9   4   20.04    2.61
  10   9   4    3.89    2.85
  11   9   4    3.95    2.77
  -3  10   4    0.52    3.67
  -2  10   4    6.37    3.38
  -1  10   4   39.70    3.42
   0  10   4   13.77    3.23
   1  10   4    1.69    3.83
   2  10   4    2.07    3.14
   3  10   4   14.45    3.13
   4  10   4   22.96    2.97
   5  10   4    1.88    2.64
   6  10   4   19.76    2.75
   7  10   4   15.68    2.67
   8  10   4   25.76    2.77
   9  10   4    3.18    2.85
  10  10   4    4.63    2.77
  -2  11   4    4.47    4.03
  -1  11   4   22.83    3.77
   0  11   4   -1.45    3.69
   1  11   4    2.40    3.84
   2  11   4    2.30    3.52
   3  11   4    2.64    3.25
   4  11   4   27.68    3.13
   5  11   4    9.10    3.06
   6  11   4   19.63    2.94
   7  11   4    4.30    2.82
   8  11   4    8.81    2.88
   9  11   4    1.77    2.97
  10  11   4   -0.07    3.01
   0  12   4    5.24    3.59
   1  12   4    0.79    4.34
   2  12   4    3.91    3.83
   3  12   4    4.37    3.54
   4  12   4    0.62    3.45
   5  12   4   19.63    3.33
   6  12   4   38.73    3.36
   7  12   4   29.20    3.23
   8  12   4   28.78    3.26
   9  12   4    7.78    3.18
   2  13   4   19.86    4.62
   3  13   4   14.44    4.04
   4  13   4    2.44    3.93
   5  13   4    3.41    3.66
   6  13   4    6.69    3.52
   7  13   4    7.84    3.35
  -6  -9   5    6.49    4.30
  -5  -9   5    5.92    3.99
  -4  -9   5    1.02    4.05
  -3  -9   5    2.82    3.13
  -2  -9   5    7.85    3.25
  -1  -9   5    0.87    3.45
   0  -9   5    2.51    3.73
  -7  -8   5    1.82    3.16
  -6  -8   5    4.72    3.34
  -5  -8   5    2.00    3.31
  -4  -8   5    2.30    3.23
  -3  -8   5   11.89    3.05
  -2  -8   5    7.92    3.00
  -1  -8   5    3.15    3.01
   0  -8   5    0.21    3.28
   1  -8   5    2.12    3.17
   2  -8   5    0.83    3.49
  -8  -7   5    8.11    3.16
  -7  -7   5    3.71    3.15
  -6  -7   5    2.39    2.93
  -5  -7   5    9.92    3.20
  -4  -7   5   13.52    3.11
  -3  -7   5   14.86    3.27
  -2  -7   5   14.90    2.67
  -1  -7   5    3.02    2.81
   0  -7   5    4.62    3.04
   1  -7   5    1.94    2.98
   2  -7   5    3.19    3.10
   3  -7   5    6.38    3.42
   4  -7   5    2.39    3.67
  -8  -6   5   10.81    3.09
  -7  -6   5    0.92    2.81
  -6  -6   5   -0.23    2.91
  -5  -6   5   26.15    2.80
  -4  -6   5  106.07    3.31
  -3  -6   5   19.82    2.97
  -2  -6   5   72.75    3.73
  -1  -6   5   13.90    2.73
   0  -6   5   13.40    2.86
   1  -6   5   30.01    2.89
   2  -6   5    2.00    3.07
   3  -6   5    0.24    3.09
   4  -6   5    7.62    3.15
   5  -6   5   19.77    3.74
  -9  -5   5    3.21    3.17
  -8  -5   5    3.63    2.84
  -7  -5   5    2.85    2.80
  -6  -5   5    3.06    2.61
  -5  -5   5   45.81    2.85
  -4  -5   5   79.76    3.11
  -3  -5   5    8.27    2.86
  -2  -5   5   44.34    3.00
  -1  -5   5    3.94    2.50
   0  -5   5    8.87    2.68
   1  -5   5   60.28    2.91
   2  -5   5   23.09    2.79
   3  -5   5   12.90    2.79
   4  -5   5   21.59    3.00
   5  -5   5   46.77    3.61
   6  -5   5    2.88    4.08
  -9  -4   5    4.18    2.93
  -8  -4   5   10.20    2.88
  -7  -4   5    7.94    2.83
  -6  -4   5    2.71    2.53
  -5  -4   5    3.35    2.41
  -4  -4   5   20.45    2.54
  -3  -4   5  104.37    3.04
  -2  -4   5   14.56    2.85
  -1  -4   5    4.02    3.07
   0  -4   5    1.56    2.31
   1  -4   5   -1.52    2.62
   2  -4   5    7.25    2.74
   3  -4   5    0.10    2.80
   4  -4   5   17.37    3.63
   5  -4   5   23.24    3.52
   6  -4   5    6.80    3.67
   7  -4   5    1.94    3.82
  -9  -3   5    2.44    2.97
  -8  -3   5   32.88    2.92
  -7  -3   5   12.41    2.55
  -6  -3   5    5.72    2.59
  -5  -3   5    0.78    2.52
  -4  -3   5    6.90    2.48
  -3  -3   5   45.74    2.61
  -2  -3   5    0.95    2.68
  -1  -3   5   26.14    2.85
   0  -3   5   53.70    3.25
   1  -3   5    7.14    2.47
   2  -3   5    5.79    2.54
   3  -3   5    1.28    3.33
   4  -3   5    1.21    3.08
   5  -3   5    0.55    3.15
   6  -3   5    2.39    3.42
   7  -3   5    0.38    3.40
   8  -3   5    2.47    3.68
  -9  -2   5    3.77    3.09
  -8  -2   5   15.98    2.83
  -7  -2   5    2.23    2.61
  -6  -2   5   12.91    2.60
  -5  -2   5   11.57    2.57
  -4  -2   5   15.94    2.44
  -3  -2   5    5.20    2.34
  -2  -2   5   15.71    2.58
  -1  -2   5   17.06    2.63
   0  -2   5   23.76    2.91
   1  -2   5   87.50    3.29
   2  -2   5   -1.05    2.72
   3  -2   5    0.41    2.90
   4  -2   5   26.08    2.90
   5  -2   5    0.03    2.84
   6  -2   5   59.43    3.25
   7  -2   5   10.18    3.18
   8  -2   5    0.64    3.54
  -9  -1   5    7.24    3.01
  -8  -1   5    6.64    2.97
  -7  -1   5   15.07    2.67
  -6  -1   5    7.31    2.53
  -5  -1   5   30.25    2.64
  -4  -1   5    4.82    2.40
  -3  -1   5   55.51    2.65
  -2  -1   5  130.21    2.97
  -1  -1   5  257.13    3.70
   0  -1   5   48.41    2.90
   1  -1   5  277.54    3.80
   2  -1   5   42.82    2.83
   3  -1   5   16.34    2.57
   4  -1   5    5.73    2.58
   5  -1   5    9.99    2.75
   6  -1   5   32.71    2.88
   7  -1   5   27.64    3.05
   8  -1   5   10.21    3.07
   9  -1   5    3.81    3.36
  -9   0   5    0.96    3.21
  -8   0   5    8.13    2.85
  -7   0   5   42.38    2.89
  -6   0   5    3.92    2.60
  -5   0   5    0.52    2.46
  -4   0   5    4.45    2.33
  -3   0   5   51.19    2.75
  -2   0   5   80.07    2.94
  -1   0   5  120.73    3.21
   0   0   5   70.84    2.99
   1   0   5   53.32    3.06
   2   0   5  117.77    3.18
   3   0   5   62.79    2.79
   4   0   5    5.01    2.33
   5   0   5   36.82    2.68
   6   0   5    6.68    2.59
   7   0   5   21.82    2.79
   8   0   5   31.22    2.93
   9   0   5    1.78    3.08
  10   0   5    1.04    3.43
  -9   1   5    1.55    3.25
  -8   1   5   28.31    3.01
  -7   1   5   48.43    2.98
  -6   1   5    5.92    2.60
  -5   1   5    0.94    2.62
  -4   1   5   39.59    2.57
  -3   1   5   22.52    2.59
  -2   1   5   30.30    2.71
  -1   1   5   27.91    2.72
   0   1   5  122.18    3.16
   1   1   5   21.68    2.59
   2   1   5   33.97    2.56
   3   1   5   13.91    2.47
   4   1   5   15.99    2.50
   5   1   5   13.58    2.37
   6   1   5   10.20    2.45
   7   1   5    8.27    2.67
   8   1   5   12.16    2.71
   9   1   5    9.28    2.83
  10   1   5    0.90    3.05
  -8   2   5   11.64    3.26
  -7   2   5   29.50    3.10
  -6   2   5    4.24    2.87
  -5   2   5   21.94    2.78
  -4   2   5  133.64    3.13
  -3   2   5   -0.67    2.51
  -2   2   5   58.40    2.87
  -1   2   5  202.20    3.57
   0   2   5  325.70    4.14
   1   2   5   15.82    2.49
   2   2   5    6.55    2.41
   3   2   5   24.46    2.47
   4   2   5   22.24    2.44
   5   2   5   80.49    2.66
   6   2   5   25.16    2.33
   7   2   5    6.99    2.50
   8   2   5   -0.51    2.63
   9   2   5    5.85    2.83
  10   2   5    1.96    2.95
  -8   3   5    3.49    3.42
  -7   3   5    2.89    3.29
  -6   3   5    2.13    2.85
  -5   3   5   18.21    2.76
  -4   3   5   58.25    3.04
  -3   3   5    1.00    2.63
  -2   3   5    2.15    2.77
  -1   3   5  178.80    3.61
   0   3   5  121.41    3.37
   1   3   5   61.50    2.83
   2   3   5   19.97    2.40
   3   3   5    1.55    2.37
   4   3   5    6.91    2.21
   5   3   5  198.19    2.97
   6   3   5   11.47    2.37
   7   3   5    5.87    2.39
   8   3   5   22.82    2.65
   9   3   5   22.19    2.75
  10   3   5    1.30    2.74
  11   3   5    2.58    3.10
  -8   4   5    4.23    3.84
  -7   4   5    3.50    3.36
  -6   4   5    3.87    3.28
  -5   4   5   14.09    3.21
  -4   4   5   25.73    2.97
  -3   4   5   65.97    3.18
  -2   4   5    8.11    2.76
  -1   4   5    2.58    2.93
   0   4   5   13.59    2.94
   1   4   5  106.42    3.23
   2   4   5    2.97    2.38
   3   4   5   12.99    2.34
   4   4   5   16.90    2.36
   5   4   5   52.24    2.47
   6   4   5    0.66    2.29
   7   4   5    2.76    2.33
   8   4   5   53.50    2.62
   9   4   5   12.62    2.57
  10   4   5    0.62    2.84
  11   4   5    1.95    2.87
  -7   5   5    0.74    3.71
  -6   5   5    1.65    2.90
  -5   5   5    1.23    2.72
  -4   5   5    9.77    2.67
  -3   5   5   43.77    2.73
  -2   5   5   48.01    2.63
  -1   5   5   33.67    2.55
   0   5   5    8.18    3.01
   1   5   5   21.89    2.72
   2   5   5    1.55    2.59
   3   5   5   21.93    2.50
   4   5   5  133.84    2.88
   5   5   5    4.53    2.25
   6   5   5   25.89    2.31
   7   5   5   17.21    2.31
   8   5   5   61.33    2.63
   9   5   5    3.03    2.47
  10   5   5    0.96    2.55
  11   5   5   -0.41    3.06
  -6   6   5    2.49    3.07
  -5   6   5   15.99    2.93
  -4   6   5   19.37    2.80
  -3   6   5   15.26    2.74
  -2   6   5    6.94    2.63
  -1   6   5   81.37    2.84
   0   6   5    1.81    2.83
   1   6   5  141.53    3.46
   2   6   5   30.30    2.52
   3   6   5   52.58    2.50
   4   6   5  150.31    2.97
   5   6   5   77.36    2.60
   6   6   5   82.47    2.47
   7   6   5   46.12    2.50
   8   6   5   12.26    2.48
   9   6   5    4.86    2.54
  10   6   5    8.92    2.65
  11   6   5    8.25    2.89
  -6   7   5    3.96    3.26
  -5   7   5    4.56    3.00
  -4   7   5   27.85    2.94
  -3   7   5   12.04    2.95
  -2   7   5   29.01    2.79
  -1   7   5   97.01    3.05
   0   7   5   91.24    2.93
   1   7   5  133.48    3.34
   2   7   5   61.72    2.98
   3   7   5    9.18    2.50
   4   7   5    2.28    2.36
   5   7   5   79.02    2.56
   6   7   5   61.12    2.61
   7   7   5    3.88    2.38
   8   7   5   36.69    2.47
   9   7   5    5.31    2.56
  10   7   5   10.42    2.57
  11   7   5   10.22    2.94
  -5   8   5    1.63    3.29
  -4   8   5    4.24    3.25
  -3   8   5    4.45    2.91
  -2   8   5    2.40    3.12
  -1   8   5    1.28    2.80
   0   8   5   94.46    3.13
   1   8   5   20.43    3.18
   2   8   5   72.67    3.29
   3   8   5   24.96    2.71
   4   8   5    0.59    2.53
   5   8   5    3.37    2.47
   6   8   5   16.95    2.49
   7   8   5    4.37    2.36
   8   8   5   44.36    2.47
   9   8   5   22.76    2.66
  10   8   5    8.03    2.65
  11   8   5    5.08    2.95
  -4   9   5    5.41    3.46
  -3   9   5    6.69    3.24
  -2   9   5    1.19    3.05
  -1   9   5   -1.61    2.88
   0   9   5   24.91    3.25
   1   9   5    1.70    3.51
   2   9   5    1.70    3.08
   3   9   5    0.93    2.82
   4   9   5    4.55    2.71
   5   9   5   11.35    2.49
   6   9   5   -0.32    2.52
   7   9   5   60.98    2.75
   8   9   5   26.19    2.56
   9   9   5   47.37    2.82
  10   9   5    3.77    2.58
  11   9   5    1.60    2.75
  -3  10   5    0.06    3.40
  -2  10   5   -0.20    3.20
  -1  10   5   26.33    3.15
   0  10   5   59.17    3.23
   1  10   5   12.85    3.75
   2  10   5    7.41    3.32
   3  10   5   11.74    3.09
   4  10   5    7.96    2.86
   5  10   5    7.38    2.72
   6  10   5    1.65    2.65
   7  10   5   48.30    2.84
   8  10   5    1.31    2.69
   9  10   5   30.30    2.75
  10  10   5    3.98    3.05
  -2  11   5    0.51    3.69
  -1  11   5   19.35    3.61
   0  11   5   35.84    3.52
   1  11   5   -2.66    3.45
   2  11   5    2.91    3.62
   3  11   5   17.79    3.34
   4  11   5   26.73    3.17
   5  11   5   17.84    3.05
   6  11   5   45.88    2.95
   7  11   5   35.11    2.94
   8  11   5   14.03    2.87
   9  11   5    9.29    2.74
  10  11   5    2.20    3.12
   0  12   5   10.42    3.73
   1  12   5    3.37    3.48
   2  12   5    4.51    4.00
   3  12   5   22.90    3.69
   4  12   5    2.23    3.27
   5  12   5    2.03    3.21
   6  12   5    6.93    3.11
   7  12   5    4.69    3.03
   8  12   5   20.04    3.08
   9  12   5    6.87    3.20
   2  13   5    5.80    4.50
   3  13   5   26.27    4.17
   4  13   5   13.38    3.68
   5  13   5    5.73    3.55
   6  13   5    0.52    3.39
   7  13   5    2.35    3.25
  -6  -8   6    3.35    3.20
  -5  -8   6    0.48    3.31
  -4  -8   6    1.66    3.64
  -3  -8   6   13.08    2.88
  -2  -8   6    9.02    2.94
  -1  -8   6   10.34    3.19
   0  -8   6    2.37    3.25
   1  -8   6    3.45    3.31
  -7  -7   6   16.10    3.25
  -6  -7   6    2.05    3.53
  -5  -7   6    5.54    3.12
  -4  -7   6   39.44    3.51
  -3  -7   6   71.00    3.71
  -2  -7   6   46.34    2.93
  -1  -7   6   20.78    3.01
   0  -7   6    2.20    3.08
   1  -7   6    7.10    3.10
   2  -7   6    7.18    3.45
   3  -7   6    0.30    3.40
  -8  -6   6    3.46    3.09
  -7  -6   6    2.00    3.21
  -6  -6   6    3.19    3.25
  -5  -6   6    1.80    3.00
  -4  -6   6    4.18    2.98
  -3  -6   6   23.25    3.14
  -2  -6   6    2.83    3.00
  -1  -6   6   23.41    2.92
   0  -6   6    7.10    2.92
   1  -6   6    1.44    2.87
   2  -6   6    6.68    2.99
   3  -6   6    3.69    3.33
   4  -6   6   -0.18    3.47
  -8  -5   6    3.59    3.07
  -7  -5   6    4.10    2.92
  -6  -5   6    8.91    3.06
  -5  -5   6    7.72    2.77
  -4  -5   6    2.67    2.80
  -3  -5   6    1.72    2.98
  -2  -5   6    4.55    2.98
  -1  -5   6    4.48    2.43
   0  -5   6    2.42    2.70
   1  -5   6    6.10    2.79
   2  -5   6    1.83    2.77
   3  -5   6    4.77    2.95
   4  -5   6   -0.42    2.96
   5  -5   6   13.15    3.62
  -8  -4   6    2.45    3.01
  -7  -4   6   18.64    3.02
  -6  -4   6   -0.89    2.81
  -5  -4   6    3.12    2.64
  -4  -4   6   14.67    2.84
  -3  -4   6    8.15    2.81
  -2  -4   6   76.68    3.11
  -1  -4   6    2.66    3.15
   0  -4   6    2.15    2.52
   1  -4   6   25.92    2.76
   2  -4   6   20.28    2.72
   3  -4   6    0.91    2.78
   4  -4   6    2.51    2.95
   5  -4   6    0.97    3.86
   6  -4   6    1.45    3.85
  -9  -3   6    8.91    3.10
  -8  -3   6    7.32    2.89
  -7  -3   6   44.50    2.95
  -6  -3   6    6.92    2.69
  -5  -3   6    1.73    2.71
  -4  -3   6    7.15    2.64
  -3  -3   6    4.81    2.71
  -2  -3   6   29.60    2.74
  -1  -3   6   38.74    3.06
   0  -3   6   34.05    3.19
   1  -3   6   17.00    2.51
   2  -3   6   48.05    2.72
   3  -3   6   23.42    3.60
   4  -3   6    1.39    3.33
   5  -3   6   10.65    3.46
   6  -3   6    0.25    3.27
   7  -3   6    1.53    3.56
  -9  -2   6   10.51    3.27
  -8  -2   6    7.49    2.86
  -7  -2   6   12.48    2.81
  -6  -2   6   44.02    2.83
  -5  -2   6   40.10    2.64
  -4  -2   6    2.10    2.51
  -3  -2   6   28.41    2.66
  -2  -2   6   17.95    2.74
  -1  -2   6  154.90    3.20
   0  -2   6  193.78    3.73
   1  -2   6   28.10    3.04
   2  -2   6   20.32    2.81
   3  -2   6   18.92    3.09
   4  -2   6   14.81    3.09
   5  -2   6    5.69    2.89
   6  -2   6    5.33    3.02
   7  -2   6    5.46    3.35
   8  -2   6    4.35    3.57
  -9  -1   6    1.65    3.29
  -8  -1   6    4.70    2.96
  -7  -1   6    1.23    2.75
  -6  -1   6   61.64    2.84
  -5  -1   6   21.11    2.75
  -4  -1   6    0.95    2.51
  -3  -1   6    9.51    2.59
  -2  -1   6    1.67    2.58
  -1  -1   6   48.38    2.77
   0  -1   6   62.42    2.94
   1  -1   6   67.18    3.09
   2  -1   6   39.25    2.94
   3  -1   6    2.05    2.74
   4  -1   6   21.03    2.86
   5  -1   6    0.84    2.74
   6  -1   6   16.34    3.00
   7  -1   6    6.45    3.02
   8  -1   6    3.44    3.27
   9  -1   6    5.97    3.61
  -9   0   6    6.49    3.21
  -8   0   6    7.74    3.03
  -7   0   6   41.15    3.04
  -6   0   6   39.72    2.70
  -5   0   6    0.12    2.60
  -4   0   6    6.04    2.33
  -3   0   6   41.67    2.70
  -2   0   6   26.71    2.64
  -1   0   6    7.76    2.56
   0   0   6    3.02    2.44
   1   0   6   62.47    2.76
   2   0   6    7.46    2.58
   3   0   6    4.33    2.42
   4   0   6   15.42    2.39
   5   0   6    2.03    2.55
   6   0   6   32.46    2.83
   7   0   6   13.51    2.81
   8   0   6   11.20    3.05
   9   0   6    2.55    3.24
  -8   1   6    9.54    3.08
  -7   1   6   46.62    3.10
  -6   1   6   18.83    2.86
  -5   1   6    0.69    2.65
  -4   1   6   16.83    2.43
  -3   1   6  190.55    3.24
  -2   1   6    7.63    2.55
  -1   1   6   12.36    2.71
   0   1   6   58.68    2.79
   1   1   6  172.66    3.36
   2   1   6   17.32    2.42
   3   1   6   70.27    2.68
   4   1   6   28.11    2.46
   5   1   6    1.83    2.45
   6   1   6   15.49    2.43
   7   1   6    6.15    2.58
   8   1   6    6.98    2.76
   9   1   6    5.98    2.97
  10   1   6    0.89    3.15
  -8   2   6   15.09    3.42
  -7   2   6   11.19    3.17
  -6   2   6    0.56    2.79
  -5   2   6    0.84    2.75
  -4   2   6    2.77    2.71
  -3   2   6   36.93    2.66
  -2   2   6    2.17    2.40
  -1   2   6    6.57    2.48
   0   2   6  204.98    3.56
   1   2   6    6.80    2.59
   2   2   6    2.23    2.48
   3   2   6   12.78    2.49
   4   2   6   20.20    2.43
   5   2   6   81.84    2.83
   6   2   6   40.77    2.59
   7   2   6    3.53    2.36
   8   2   6    0.88    2.54
   9   2   6    9.38    2.69
  10   2   6   11.98    3.02
  -8   3   6    0.60    3.62
  -7   3   6   10.85    3.26
  -6   3   6    1.31    2.86
  -5   3   6    1.19    2.69
  -4   3   6   50.40    2.89
  -3   3   6    0.89    2.49
  -2   3   6   10.69    2.57
  -1   3   6    6.94    2.63
   0   3   6   82.47    2.83
   1   3   6    4.75    2.45
   2   3   6    1.19    2.39
   3   3   6   12.14    2.40
   4   3   6    6.60    2.30
   5   3   6   65.89    2.49
   6   3   6   48.36    2.45
   7   3   6    0.63    2.45
   8   3   6    1.37    2.42
   9   3   6   15.35    2.80
  10   3   6    5.16    2.95
  -7   4   6    8.89    3.66
  -6   4   6    1.89    2.95
  -5   4   6    1.82    3.13
  -4   4   6   29.94    3.01
  -3   4   6   54.12    3.05
  -2   4   6   67.85    3.11
  -1   4   6   61.89    2.97
   0   4   6   80.23    3.06
   1   4   6   60.35    2.78
   2   4   6   49.59    2.68
   3   4   6   13.76    2.39
   4   4   6    0.66    2.25
   5   4   6   56.75    2.44
   6   4   6   21.88    2.32
   7   4   6   19.32    2.49
   8   4   6   10.63    2.53
   9   4   6   41.73    2.73
  10   4   6    0.04    2.90
  11   4   6    1.63    2.97
  -7   5   6    4.07    3.23
  -6   5   6   20.81    3.76
  -5   5   6   18.90    3.78
  -4   5   6   18.36    2.55
  -3   5   6   91.81    2.90
  -2   5   6   56.71    3.45
  -1   5   6    2.25    2.89
   0   5   6   66.32    3.15
   1   5   6   56.20    2.85
   2   5   6   80.96    2.74
   3   5   6  232.96    3.35
   4   5   6   12.88    2.23
   5   5   6   26.19    2.09
   6   5   6    7.46    2.36
   7   5   6   29.28    2.37
   8   5   6   13.76    2.35
   9   5   6   12.69    2.51
  10   5   6    2.85    2.59
  11   5   6    1.55    2.98
  -6   6   6   15.32    3.14
  -5   6   6   15.68    2.99
  -4   6   6    4.66    2.59
  -3   6   6   40.86    2.61
  -2   6   6   48.02    2.61
  -1   6   6   27.11    2.62
   0   6   6   64.12    3.30
   1   6   6   21.72    2.69
   2   6   6   36.55    2.69
   3   6   6   25.70    2.40
   4   6   6   22.83    2.58
   5   6   6    4.54    2.27
   6   6   6   44.34    2.32
   7   6   6   27.54    2.35
   8   6   6    7.71    2.24
   9   6   6   11.76    2.62
  10   6   6   23.87    2.62
  11   6   6    4.54    3.01
  -6   7   6   12.13    3.25
  -5   7   6    0.54    3.07
  -4   7   6   10.66    2.99
  -3   7   6   21.63    2.86
  -2   7   6    3.66    2.71
  -1   7   6    8.24    2.73
   0   7   6    7.00    2.60
   1   7   6  164.67    3.66
   2   7   6   43.08    2.88
   3   7   6   12.38    2.41
   4   7   6   14.34    2.31
   5   7   6   -0.64    2.36
   6   7   6   10.35    2.43
   7   7   6    9.42    2.44
   8   7   6   19.21    2.52
   9   7   6   38.65    2.63
  10   7   6   56.45    2.76
  11   7   6   18.28    2.88
  -5   8   6    2.57    3.30
  -4   8   6   -0.36    3.08
  -3   8   6    3.73    2.94
  -2   8   6    1.32    2.75
  -1   8   6   -0.70    2.75
   0   8   6    7.81    2.71
   1   8   6  107.04    3.40
   2   8   6    3.86    2.68
   3   8   6    3.47    2.68
   4   8   6   11.26    2.54
   5   8   6    2.06    2.46
   6   8   6    4.61    2.45
   7   8   6    2.88    2.46
   8   8   6   30.85    2.54
   9   8   6   20.58    2.66
  10   8   6    7.77    2.63
  11   8   6    7.16    2.83
  -4   9   6    0.73    3.24
  -3   9   6    8.61    3.16
  -2   9   6   10.61    3.00
  -1   9   6    6.72    2.87
   0   9   6   84.98    3.22
   1   9   6  122.40    3.97
   2   9   6   31.51    3.15
   3   9   6   10.17    2.71
   4   9   6    5.76    2.57
   5   9   6    1.02    2.57
   6   9   6    2.07    2.63
   7   9   6   10.16    2.46
   8   9   6   75.24    2.87
   9   9   6    4.63    2.62
  10   9   6    5.17    2.85
  11   9   6    2.27    2.64
  -3  10   6    8.80    3.58
  -2  10   6    0.14    3.45
  -1  10   6    1.01    3.11
   0  10   6   52.45    3.06
   1  10   6   18.45    2.87
   2  10   6    7.21    3.49
   3  10   6   23.00    3.04
   4  10   6   39.73    2.88
   5  10   6   16.95    2.80
   6  10   6    2.41    2.78
   7  10   6    9.42    2.72
   8  10   6   23.06    2.81
   9  10   6   10.53    2.89
  10  10   6   13.87    2.89
  -2  11   6    1.90    3.48
  -1  11   6    8.58    3.60
   0  11   6   31.39    3.37
   1  11   6    2.59    3.31
   2  11   6    3.48    3.84
   3  11   6   -0.17    3.18
   4  11   6   28.33    3.07
   5  11   6   15.60    3.02
   6  11   6    4.63    2.82
   7  11   6   18.12    2.84
   8  11   6    1.28    2.88
   9  11   6   33.04    2.90
  10  11   6    7.44    3.14
   0  12   6    1.69    3.61
   1  12   6    2.55    3.67
   2  12   6    7.33    4.05
   3  12   6    8.28    3.49
   4  12   6   38.76    3.49
   5  12   6   12.61    3.13
   6  12   6    7.12    3.15
   7  12   6    9.39    2.97
   8  12   6   -0.60    3.02
   9  12   6   15.67    3.25
   2  13   6    4.76    3.51
   3  13   6    2.73    3.97
   4  13   6    9.27    3.70
   5  13   6    4.07    3.46
   6  13   6    4.76    3.31
   7  13   6    7.18    3.37
  -5  -7   7    0.48    3.57
  -4  -7   7    0.41    3.44
  -3  -7   7   11.56    4.02
  -2  -7   7    4.94    2.90
  -1  -7   7    8.58    3.20
   0  -7   7    5.28    3.12
   1  -7   7    0.39    3.27
  -7  -6   7    6.75    3.25
  -6  -6   7    5.01    3.42
  -5  -6   7    4.07    3.36
  -4  -6   7    0.50    3.14
  -3  -6   7    0.46    3.45
  -2  -6   7    0.97    2.51
  -1  -6   7    5.37    2.89
   0  -6   7    1.27    3.01
   1  -6   7    2.46    3.03
   2  -6   7    4.74    3.14
   3  -6   7    6.54    3.70
  -7  -5   7    1.54    3.05
  -6  -5   7   18.26    3.08
  -5  -5   7    8.64    2.94
  -4  -5   7    1.16    3.10
  -3  -5   7    7.17    2.97
  -2  -5   7    0.98    3.28
  -1  -5   7   21.30    2.77
   0  -5   7   29.69    2.86
   1  -5   7    3.29    2.85
   2  -5   7   11.00    2.70
   3  -5   7    1.05    3.00
   4  -5   7    1.18    3.34
   5  -5   7    3.81    3.36
  -8  -4   7   11.45    3.23
  -7  -4   7    7.39    3.13
  -6  -4   7   28.13    3.01
  -5  -4   7   22.17    2.99
  -4  -4   7    0.23    2.91
  -3  -4   7   11.01    2.86
  -2  -4   7    0.73    2.85
  -1  -4   7    5.63    3.04
   0  -4   7   12.43    2.66
   1  -4   7   34.51    2.84
   2  -4   7   38.80    2.89
   3  -4   7   18.65    2.94
   4  -4   7    0.87    2.88
   5  -4   7    4.81    3.24
   6  -4   7    6.26    3.27
  -8  -3   7   14.55    3.13
  -7  -3   7    8.96    3.01
  -6  -3   7   11.83    2.88
  -5  -3   7   13.83    2.77
  -4  -3   7   51.85    2.97
  -3  -3   7    7.65    2.65
  -2  -3   7   27.62    2.79
  -1  -3   7   13.43    2.95
   0  -3   7   16.97    2.96
   1  -3   7   18.78    2.99
   2  -3   7    8.52    2.48
   3  -3   7   15.60    2.82
   4  -3   7    7.01    3.71
   5  -3   7    1.39    3.62
   6  -3   7    0.93    3.72
   7  -3   7    4.17    3.89
  -8  -2   7    2.65    3.18
  -7  -2   7   10.43    2.95
  -6  -2   7   12.76    2.88
  -5  -2   7   25.15    2.83
  -4  -2   7   14.16    2.68
  -3  -2   7   26.66    2.74
  -2  -2   7   28.07    2.69
  -1  -2   7   12.62    2.80
   0  -2   7   59.80    2.95
   1  -2   7   23.89    2.80
   2  -2   7    6.66    2.98
   3  -2   7   20.03    3.25
   4  -2   7    2.20    3.17
   5  -2   7    5.11    3.23
   6  -2   7    2.99    3.41
   7  -2   7    3.48    3.39
  -8  -1   7    3.91    3.20
  -7  -1   7   10.83    2.85
  -6  -1   7   51.51    2.88
  -5  -1   7   67.97    2.98
  -4  -1   7    1.08    2.63
  -3  -1   7    0.25    2.50
  -2  -1   7   12.31    2.54
  -1  -1   7   10.46    2.67
   0  -1   7    9.24    2.63
   1  -1   7   22.60    2.89
   2  -1   7   13.92    2.90
   3  -1   7   18.35    2.86
   4  -1   7    4.16    2.69
   5  -1   7   28.73    3.05
   6  -1   7    2.91    3.03
   7  -1   7    6.83    3.03
   8  -1   7    2.65    3.22
  -8   0   7    3.86    3.24
  -7   0   7    4.85    3.00
  -6   0   7   49.59    2.90
  -5   0   7   16.62    2.64
  -4   0   7    1.05    2.59
  -3   0   7   63.75    2.89
  -2   0   7   33.51    2.69
  -1   0   7    7.40    2.56
   0   0   7   12.34    2.48
   1   0   7   55.11    2.83
   2   0   7  108.14    3.09
   3   0   7    8.17    2.71
   4   0   7    2.08    2.46
   5   0   7   29.48    2.72
   6   0   7    3.86    2.65
   7   0   7   16.80    2.92
   8   0   7    2.59    3.13
   9   0   7   -0.11    3.35
  -8   1   7    2.89    3.36
  -7   1   7    3.85    3.08
  -6   1   7   15.25    2.90
  -5   1   7   13.79    2.81
  -4   1   7    1.36    2.60
  -3   1   7   49.98    2.86
  -2   1   7   37.93    2.76
  -1   1   7   -0.43    2.69
   0   1   7    5.50    2.60
   1   1   7  107.72    2.99
   2   1   7   34.28    2.36
   3   1   7   10.42    2.64
   4   1   7   18.00    2.63
   5   1   7    6.64    2.51
   6   1   7   48.30    2.76
   7   1   7   15.74    2.66
   8   1   7    5.60    2.83
   9   1   7    1.51    3.06
  -8   2   7    5.43    3.51
  -7   2   7    6.60    3.25
  -6   2   7   11.83    2.92
  -5   2   7    4.74    2.90
  -4   2   7    1.93    2.53
  -3   2   7   44.58    2.85
  -2   2   7   31.91    2.64
  -1   2   7   18.43    2.62
   0   2   7    9.50    2.65
   1   2   7  136.88    3.19
   2   2   7    2.00    2.56
   3   2   7    4.02    2.47
   4   2   7   26.92    2.71
   5   2   7    1.41    2.45
   6   2   7   30.73    2.52
   7   2   7    5.09    2.44
   8   2   7    2.41    2.66
   9   2   7    6.32    2.90
  10   2   7   13.29    3.17
  -7   3   7    2.72    3.21
  -6   3   7    8.35    3.23
  -5   3   7   27.65    3.10
  -4   3   7    5.94    2.88
  -3   3   7   53.55    2.88
  -2   3   7  119.24    3.15
  -1   3   7  138.26    3.02
   0   3   7   36.45    2.66
   1   3   7   46.92    2.72
   2   3   7    1.09    2.38
   3   3   7    4.10    2.39
   4   3   7   12.51    2.39
   5   3   7   37.05    2.52
   6   3   7   22.84    2.43
   7   3   7    8.10    2.42
   8   3   7    1.49    2.43
   9   3   7   -0.32    2.69
  10   3   7   10.49    3.13
  -7   4   7   10.75    3.40
  -6   4   7   23.94    3.31
  -5   4   7   29.25    3.09
  -4   4   7   20.92    3.15
  -3   4   7   12.28    2.79
  -2   4   7   38.40    2.88
  -1   4   7   41.54    2.96
   0   4   7   44.61    2.80
   1   4   7   31.09    2.68
   2   4   7  121.55    2.98
   3   4   7    2.39    2.21
   4   4   7    8.78    2.25
   5   4   7    5.44    2.42
   6   4   7    7.30    2.45
   7   4   7   14.53    2.36
   8   4   7   23.57    2.62
   9   4   7    9.08    2.71
  10   4   7    5.63    2.91
  -6   5   7    5.91    3.88
  -5   5   7   30.24    3.31
  -4   5   7   46.21    3.36
  -3   5   7    6.19    3.20
  -2   5   7   22.64    3.15
  -1   5   7    1.35    2.74
   0   5   7    0.48    2.83
   1   5   7   10.41    2.64
   2   5   7  103.76    2.93
   3   5   7  125.67    3.00
   4   5   7   59.38    2.49
   5   5   7   10.74    2.27
   6   5   7   11.73    2.39
   7   5   7   44.61    2.43
   8   5   7   18.83    2.53
   9   5   7   12.08    2.72
  10   5   7    5.67    2.60
  11   5   7    7.44    3.12
  -6   6   7   -0.35    3.03
  -5   6   7    2.25    3.06
  -4   6   7   -0.66    2.65
  -3   6   7   12.64    2.77
  -2   6   7   -0.40    2.35
  -1   6   7    3.78    3.17
   0   6   7    8.73    2.86
   1   6   7   32.67    2.89
   2   6   7   83.38    2.76
   3   6   7  114.15    2.89
   4   6   7   30.76    2.56
   5   6   7   22.87    2.40
   6   6   7    4.13    2.40
   7   6   7   29.50    2.39
   8   6   7   12.98    2.21
   9   6   7   37.58    2.65
  10   6   7   27.38    2.88
  11   6   7   14.93    3.09
  -5   7   7    9.16    3.17
  -4   7   7   -0.83    3.01
  -3   7   7    4.64    2.65
  -2   7   7    1.56    2.67
  -1   7   7    3.07    2.55
   0   7   7   23.95    3.11
   1   7   7    6.63    2.59
   2   7   7  129.01    3.00
   3   7   7   56.01    2.69
   4   7   7    7.76    2.35
   5   7   7   34.84    2.53
   6   7   7    3.75    2.34
   7   7   7    5.59    2.40
   8   7   7    2.95    2.53
   9   7   7   10.41    2.39
  10   7   7   20.48    2.71
  11   7   7    4.57    2.86
  -5   8   7    1.18    3.39
  -4   8   7   -0.19    3.12
  -3   8   7   10.86    2.77
  -2   8   7   24.61    2.94
  -1   8   7   16.20    2.85
   0   8   7   17.76    2.76
   1   8   7   83.22    3.37
   2   8   7   81.77    3.19
   3   8   7    3.38    2.67
   4   8   7    3.38    2.50
   5   8   7    7.14    2.44
   6   8   7    4.71    2.37
   7   8   7    4.77    2.52
   8   8   7    6.35    2.45
   9   8   7   10.12    2.72
  10   8   7    5.11    2.73
  11   8   7    2.07    2.86
  -4   9   7    3.08    3.37
  -3   9   7   10.33    3.14
  -2   9   7    5.01    2.99
  -1   9   7    1.58    2.90
   0   9   7    3.39    2.81
   1   9   7  144.18    4.06
   2   9   7   28.99    3.01
   3   9   7    0.75    2.89
   4   9   7   16.47    2.70
   5   9   7   10.21    2.55
   6   9   7    6.85    2.49
   7   9   7   10.36    2.59
   8   9   7   12.94    2.69
   9   9   7   13.79    2.54
  10   9   7   12.31    2.90
  -3  10   7    6.73    3.39
  -2  10   7    9.97    3.21
  -1  10   7    2.39    3.23
   0  10   7    3.69    3.12
   1  10   7   30.01    3.01
   2  10   7    0.58    3.23
   3  10   7    1.63    2.86
   4  10   7   15.04    2.90
   5  10   7   57.22    2.97
   6  10   7   26.15    2.74
   7  10   7   11.05    2.63
   8  10   7   36.67    2.82
   9  10   7    4.26    2.83
  10  10   7   14.54    2.90
  -1  11   7    0.72    3.26
   0  11   7    5.15    3.28
   1  11   7    2.83    3.15
   2  11   7    8.46    4.35
   3  11   7   10.71    3.27
   4  11   7   21.02    3.08
   5  11   7   60.25    2.90
   6  11   7   26.85    3.00
   7  11   7    0.70    2.94
   8  11   7   21.87    3.13
   9  11   7    2.83    2.91
  10  11   7   12.78    3.06
   0  12   7    2.51    3.54
   1  12   7    2.65    3.39
   2  12   7    6.49    4.01
   3  12   7   12.72    3.64
   4  12   7    7.84    3.27
   5  12   7   23.88    3.28
   6  12   7   11.08    3.12
   7  12   7    1.61    3.07
   8  12   7    1.93    3.00
   9  12   7    2.29    2.99
   2  13   7   16.93    3.58
   3  13   7    6.90    4.03
   4  13   7    9.42    3.63
   5  13   7    1.61    3.39
   6  13   7    5.30    3.40
   7  13   7   15.08    3.17
  -2  -7   8   -0.30    2.84
  -1  -7   8    0.41    3.32
  -5  -6   8   17.44    3.49
  -4  -6   8    5.96    3.48
  -3  -6   8    4.32    3.71
  -2  -6   8    0.65    3.00
  -1  -6   8    5.12    2.87
   0  -6   8    1.29    2.90
   1  -6   8   -1.51    3.19
   2  -6   8    1.88    3.30
  -6  -5   8    8.60    3.59
  -5  -5   8   20.71    3.27
  -4  -5   8    3.40    3.13
  -3  -5   8    1.66    3.17
  -2  -5   8    0.75    3.22
  -1  -5   8    7.74    2.86
   0  -5   8    8.51    2.73
   1  -5   8    8.26    3.01
   2  -5   8    4.85    2.82
   3  -5   8    4.12    3.15
   4  -5   8    2.15    3.30
  -7  -4   8    8.43    3.19
  -6  -4   8    3.30    3.07
  -5  -4   8   21.40    3.10
  -4  -4   8   19.22    3.05
  -3  -4   8    9.56    2.97
  -2  -4   8   -0.53    2.95
  -1  -4   8   -0.68    3.39
   0  -4   8   10.94    2.54
   1  -4   8   15.15    2.65
   2  -4   8   21.58    2.97
   3  -4   8    4.45    2.98
   4  -4   8   12.17    3.12
   5  -4   8    0.12    3.23
  -7  -3   8    2.38    3.16
  -6  -3   8    1.80    3.23
  -5  -3   8   10.02    2.96
  -4  -3   8   21.50    2.91
  -3  -3   8   35.41    2.91
  -2  -3   8    5.98    3.01
  -1  -3   8    5.02    3.13
   0  -3   8    9.22    2.84
   1  -3   8    8.22    3.17
   2  -3   8   23.78    2.80
   3  -3   8    8.63    2.85
   4  -3   8   10.10    2.79
   5  -3   8    2.43    4.05
   6  -3   8    0.84    4.06
  -7  -2   8    6.18    3.08
  -6  -2   8    9.93    3.10
  -5  -2   8   38.08    3.05
  -4  -2   8   16.02    2.93
  -3  -2   8    8.38    2.76
  -2  -2   8    1.42    2.72
  -1  -2   8   23.79    2.93
   0  -2   8   10.13    2.94
   1  -2   8    0.22    2.98
   2  -2   8    4.92    2.96
   3  -2   8   15.33    3.29
   4  -2   8   10.82    3.43
   5  -2   8    3.52    3.46
   6  -2   8    1.50    3.55
   7  -2   8    0.83    3.83
  -7  -1   8    6.25    3.18
  -6  -1   8   17.98    2.96
  -5  -1   8   50.76    2.99
  -4  -1   8   15.86    2.88
  -3  -1   8   37.60    2.90
  -2  -1   8   82.47    2.97
  -1  -1   8   35.83    2.86
   0  -1   8    9.23    2.70
   1  -1   8   14.49    2.91
   2  -1   8   15.16    2.91
   3  -1   8   19.70    2.90
   4  -1   8   13.21    2.74
   5  -1   8    2.15    3.14
   6  -1   8    8.23    3.02
   7  -1   8    3.69    3.33
   8  -1   8    1.99    3.64
  -7   0   8    2.35    3.19
  -6   0   8    2.35    3.01
  -5   0   8   21.41    2.88
  -4   0   8    8.76    2.84
  -3   0   8   10.22    2.66
  -2   0   8   63.64    3.00
  -1   0   8   19.97    2.75
   0   0   8    0.49    2.55
   1   0   8   15.61    2.80
   2   0   8   63.88    2.80
   3   0   8    7.53    2.69
   4   0   8    0.04    2.78
   5   0   8   19.82    2.72
   6   0   8    0.63    2.93
   7   0   8   13.18    3.21
   8   0   8    9.53    3.21
  -7   1   8    6.39    3.10
  -6   1   8    4.90    2.99
  -5   1   8    7.87    2.89
  -4   1   8    0.99    2.80
  -3   1   8   17.94    2.69
  -2   1   8   27.21    2.72
  -1   1   8   36.86    2.66
   0   1   8   21.78    2.65
   1   1   8   12.39    2.61
   2   1   8   67.12    2.84
   3   1   8   16.24    2.70
   4   1   8   19.27    2.79
   5   1   8   12.54    2.58
   6   1   8    1.95    2.68
   7   1   8   14.50    2.95
   8   1   8    5.98    3.09
   9   1   8    5.29    3.22
  -7   2   8    1.37    3.19
  -6   2   8   16.86    3.20
  -5   2   8   14.02    2.94
  -4   2   8   15.45    2.84
  -3   2   8   38.52    2.86
  -2   2   8   25.25    2.79
  -1   2   8   46.55    2.84
   0   2   8   33.06    2.70
   1   2   8    1.49    2.64
   2   2   8   18.28    2.60
   3   2   8   18.47    2.62
   4   2   8   14.31    2.59
   5   2   8    1.49    2.49
   6   2   8    5.14    2.67
   7   2   8    8.08    2.46
   8   2   8    4.53    2.79
   9   2   8    5.01    2.97
  -7   3   8    3.82    3.20
  -6   3   8    9.44    3.14
  -5   3   8   17.05    3.12
  -4   3   8   19.18    2.78
  -3   3   8    5.63    2.57
  -2   3   8   37.44    2.75
  -1   3   8   73.13    2.89
   0   3   8   19.29    2.62
   1   3   8   13.88    2.64
   2   3   8    1.59    2.51
   3   3   8   17.50    2.49
   4   3   8   70.78    2.73
   5   3   8    4.50    2.42
   6   3   8   21.03    2.52
   7   3   8    2.10    2.68
   8   3   8    6.92    2.74
   9   3   8   19.44    2.74
  10   3   8   11.54    3.15
  -6   4   8    5.07    3.57
  -5   4   8   23.19    3.42
  -4   4   8   25.23    2.93
  -3   4   8   16.64    2.83
  -2   4   8    0.24    2.78
  -1   4   8   25.48    2.69
   0   4   8    0.95    2.58
   1   4   8   55.76    2.69
   2   4   8   44.60    2.64
   3   4   8  104.80    2.81
   4   4   8  150.01    2.97
   5   4   8   70.99    2.70
   6   4   8   34.13    2.66
   7   4   8    7.10    2.37
   8   4   8   22.00    2.55
   9   4   8    5.66    2.58
  10   4   8    2.14    2.86
  -6   5   8    1.35    3.68
  -5   5   8    6.18    3.63
  -4   5   8   13.10    3.33
  -3   5   8   23.72    3.04
  -2   5   8    4.69    3.01
  -1   5   8    1.65    2.82
   0   5   8   17.82    2.82
   1   5   8   15.25    2.69
   2   5   8   69.18    2.76
   3   5   8   88.56    2.73
   4   5   8   43.51    2.49
   5   5   8   26.65    2.52
   6   5   8   11.82    2.35
   7   5   8   14.36    2.45
   8   5   8   14.79    2.52
   9   5   8    2.45    2.78
  10   5   8    2.98    2.71
  -5   6   8   15.99    3.19
  -4   6   8   35.31    3.00
  -3   6   8    2.81    2.37
  -2   6   8   -0.87    2.99
  -1   6   8    1.87    3.04
   0   6   8    8.07    2.89
   1   6   8    4.63    2.62
   2   6   8   67.86    2.87
   3   6   8   92.85    2.81
   4   6   8   32.90    2.43
   5   6   8    4.96    2.38
   6   6   8    5.38    2.20
   7   6   8   16.04    2.36
   8   6   8    6.90    2.34
   9   6   8    1.36    2.78
  10   6   8    4.81    2.78
  -5   7   8    8.26    3.28
  -4   7   8   23.03    3.12
  -3   7   8    3.93    2.71
  -2   7   8   21.08    2.88
  -1   7   8   36.44    2.77
   0   7   8    2.22    3.10
   1   7   8    0.68    2.80
   2   7   8   42.03    2.75
   3   7   8   51.46    2.91
   4   7   8    7.27    2.39
   5   7   8   16.46    2.43
   6   7   8    6.14    2.51
   7   7   8    1.20    2.42
   8   7   8    4.01    2.47
   9   7   8   12.12    2.62
  10   7   8    7.65    2.63
  11   7   8    5.57    3.06
  -4   8   8   -0.12    3.21
  -3   8   8    0.66    3.09
  -2   8   8   14.64    2.93
  -1   8   8   15.22    2.82
   0   8   8    8.18    2.73
   1   8   8    0.83    3.06
   2   8   8   83.66    3.14
   3   8   8   45.34    2.90
   4   8   8    9.69    2.34
   5   8   8   41.54    2.57
   6   8   8   28.99    2.51
   7   8   8   12.38    2.56
   8   8   8   12.10    2.52
   9   8   8   44.15    2.86
  10   8   8   24.26    2.81
  -3   9   8   14.55    3.24
  -2   9   8   16.26    2.92
  -1   9   8    0.47    2.93
   0   9   8    7.76    2.89
   1   9   8    2.51    3.20
   2   9   8   50.44    3.27
   3   9   8   17.74    3.07
   4   9   8    0.94    2.69
   5   9   8   40.87    2.88
   6   9   8   95.90    2.92
   7   9   8   33.81    2.78
   8   9   8    6.84    2.63
   9   9   8    7.92    2.80
  10   9   8    3.33    2.87
  -2  10   8    7.84    3.26
  -1  10   8    9.35    3.11
   0  10   8    3.44    2.96
   1  10   8   11.01    2.90
   2  10   8    7.68    3.15
   3  10   8    4.45    3.27
   4  10   8   12.85    2.88
   5  10   8   16.69    2.83
   6  10   8   51.43    2.91
   7  10   8   36.34    2.81
   8  10   8    6.91    2.70
   9  10   8    3.05    2.88
  10  10   8    1.76    2.82
  -1  11   8    6.64    3.50
   0  11   8   -1.45    3.15
   1  11   8    4.57    3.02
   2  11   8    0.86    4.04
   3  11   8   14.81    3.32
   4  11   8   23.22    3.03
   5  11   8    4.98    2.98
   6  11   8    7.54    2.83
   7  11   8    2.42    2.95
   8  11   8    1.84    2.97
   9  11   8    1.23    2.80
   0  12   8    1.85    3.45
   1  12   8   -0.01    3.21
   2  12   8    6.18    3.59
   3  12   8   15.46    3.69
   4  12   8   12.60    3.33
   5  12   8   13.95    3.07
   6  12   8    6.37    3.11
   7  12   8    1.76    3.08
   8  12   8    9.23    2.99
   9  12   8   -0.30    3.09
   3  13   8    7.22    3.98
   4  13   8    1.33    3.67
   5  13   8    4.33    3.45
   6  13   8    7.07    3.36
   7  13   8    3.20    3.38
  -2  -6   9    4.94    3.12
  -1  -6   9   -1.29    3.32
  -4  -5   9   10.98    3.44
  -3  -5   9    9.76    3.68
  -2  -5   9    3.42    3.52
  -1  -5   9    2.03    3.03
   0  -5   9    2.47    2.85
   1  -5   9    1.25    3.26
   2  -5   9    5.27    3.05
  -5  -4   9    4.00    3.32
  -4  -4   9    9.19    3.18
  -3  -4   9   21.34    3.39
  -2  -4   9    2.46    3.41
  -1  -4   9    2.71    3.50
   0  -4   9    4.16    2.88
   1  -4   9   12.44    2.76
   2  -4   9    6.24    3.00
   3  -4   9   -0.56    2.90
   4  -4   9    3.54    3.31
  -6  -3   9    2.06    3.46
  -5  -3   9    6.37    3.15
  -4  -3   9   54.11    3.42
  -3  -3   9   17.18    3.21
  -2  -3   9   -0.52    2.80
  -1  -3   9    1.37    3.21
   0  -3   9    7.05    3.09
   1  -3   9    6.93    3.52
   2  -3   9    6.14    2.62
   3  -3   9    1.84    2.62
   4  -3   9    1.32    2.69
   5  -3   9    0.06    3.30
  -6  -2   9    6.20    3.14
  -5  -2   9    7.16    2.94
  -4  -2   9   29.76    3.06
  -3  -2   9   22.59    2.96
  -2  -2   9    3.81    2.89
  -1  -2   9   24.93    3.07
   0  -2   9   32.38    3.03
   1  -2   9    3.21    3.09
   2  -2   9    6.93    2.97
   3  -2   9   16.37    3.12
   4  -2   9   19.75    3.43
   5  -2   9    3.25    3.50
   6  -2   9    2.94    3.71
  -7  -1   9    1.32    3.32
  -6  -1   9    7.62    3.13
  -5  -1   9   14.41    3.04
  -4  -1   9    0.86    3.05
  -3  -1   9    5.20    2.88
  -2  -1   9    2.67    2.72
  -1  -1   9   54.40    3.05
   0  -1   9   18.21    2.81
   1  -1   9    1.95    2.77
   2  -1   9   -0.06    3.03
   3  -1   9   20.61    3.17
   4  -1   9    6.84    3.13
   5  -1   9    1.87    3.34
   6  -1   9    3.48    3.50
   7  -1   9   -1.33    3.64
  -7   0   9    5.31    3.38
  -6   0   9    6.60    3.16
  -5   0   9   13.75    2.98
  -4   0   9   10.54    2.92
  -3   0   9    0.91    2.73
  -2   0   9    9.36    2.77
  -1   0   9   37.22    2.95
   0   0   9   16.87    2.61
   1   0   9   13.25    2.67
   2   0   9   10.07    2.83
   3   0   9    4.83    2.84
   4   0   9    3.41    2.82
   5   0   9    2.97    3.03
   6   0   9    1.25    3.15
   7   0   9   -1.43    3.21
   8   0   9   -1.61    3.51
  -7   1   9   10.37    3.48
  -6   1   9    0.60    3.17
  -5   1   9    7.15    3.03
  -4   1   9   48.79    3.16
  -3   1   9   -0.55    2.82
  -2   1   9   23.50    2.79
  -1   1   9    1.18    2.61
   0   1   9   22.96    2.72
   1   1   9   23.05    2.76
   2   1   9   17.94    2.52
   3   1   9   12.06    2.75
   4   1   9    7.49    2.80
   5   1   9   10.58    2.85
   6   1   9    8.32    2.89
   7   1   9    4.22    3.14
   8   1   9    5.86    3.38
  -6   2   9    2.07    3.29
  -5   2   9    6.38    3.07
  -4   2   9   32.08    3.06
  -3   2   9   34.43    2.91
  -2   2   9   35.30    2.91
  -1   2   9   29.56    2.85
   0   2   9   51.01    2.94
   1   2   9   15.26    2.66
   2   2   9    5.89    2.70
   3   2   9   32.56    2.58
   4   2   9    8.91    2.67
   5   2   9   46.46    2.78
   6   2   9    7.90    2.82
   7   2   9   14.48    2.95
   8   2   9   15.66    2.93
   9   2   9    7.23    3.11
  -6   3   9    4.67    3.17
  -5   3   9   10.31    3.18
  -4   3   9   13.40    2.91
  -3   3   9   47.87    3.01
  -2   3   9   12.93    2.75
  -1   3   9   16.85    2.75
   0   3   9   42.82    2.83
   1   3   9    7.05    2.64
   2   3   9   55.66    2.82
   3   3   9  102.10    2.81
   4   3   9   69.91    2.75
   5   3   9  104.39    2.95
   6   3   9    2.53    2.69
   7   3   9    0.72    2.81
   8   3   9    0.20    2.85
   9   3   9   10.17    3.23
  -6   4   9    8.88    3.26
  -5   4   9    4.77    3.37
  -4   4   9   29.65    3.15
  -3   4   9   39.84    3.17
  -2   4   9   10.10    2.95
  -1   4   9    0.28    2.61
   0   4   9    1.06    2.50
   1   4   9    0.07    2.56
   2   4   9    0.93    2.59
   3   4   9   10.81    2.57
   4   4   9   68.56    2.76
   5   4   9   39.62    2.61
   6   4   9   26.84    2.69
   7   4   9    0.91    2.59
   8   4   9   -0.02    2.66
   9   4   9    1.33    2.86
  10   4   9    3.22    3.13
  -5   5   9   12.87    3.48
  -4   5   9   13.20    3.48
  -3   5   9   34.09    3.13
  -2   5   9    0.86    2.85
  -1   5   9    1.81    2.73
   0   5   9    1.30    2.59
   1   5   9   33.10    2.81
   2   5   9   -0.25    2.55
   3   5   9    4.33    2.64
   4   5   9   20.49    2.57
   5   5   9    4.92    2.51
   6   5   9    4.90    2.53
   7   5   9    3.06    2.61
   8   5   9    3.43    2.71
   9   5   9    0.93    2.80
  10   5   9    3.17    2.99
  -5   6   9   17.83    2.98
  -4   6   9    9.29    3.85
  -3   6   9   32.23    3.64
  -2   6   9   -0.77    3.18
  -1   6   9    1.14    3.07
   0   6   9    6.33    2.87
   1   6   9   14.48    2.81
   2   6   9    0.38    2.59
   3   6   9  107.37    2.73
   4   6   9   90.53    2.84
   5   6   9    5.94    2.41
   6   6   9   15.52    2.33
   7   6   9   20.72    2.58
   8   6   9    2.94    2.70
   9   6   9    1.49    2.69
  10   6   9    4.91    3.00
  -4   7   9    0.36    3.20
  -3   7   9    5.70    2.94
  -2   7   9   20.55    2.64
  -1   7   9   57.31    3.35
   0   7   9   28.20    3.07
   1   7   9   -0.49    2.84
   2   7   9   12.77    2.70
   3   7   9   70.78    2.71
   4   7   9   55.14    2.67
   5   7   9    1.77    2.62
   6   7   9   29.25    2.64
   7   7   9   52.70    2.78
   8   7   9   32.53    2.80
   9   7   9   11.43    2.81
  10   7   9   19.07    2.95
  -4   8   9    4.30    3.32
  -3   8   9    4.26    3.12
  -2   8   9   35.25    3.11
  -1   8   9   42.22    2.74
   0   8   9   23.75    3.43
   1   8   9    2.94    3.04
   2   8   9   26.11    2.84
   3   8   9   44.05    3.01
   4   8   9   21.10    2.75
   5   8   9    4.72    2.58
   6   8   9   30.88    2.55
   7   8   9   32.71    2.73
   8   8   9    8.85    2.45
   9   8   9    2.42    2.72
  10   8   9    2.78    2.69
  -3   9   9   -0.09    3.27
  -2   9   9    5.36    3.15
  -1   9   9   15.81    3.05
   0   9   9   10.54    2.92
   1   9   9    5.78    3.45
   2   9   9    1.74    2.97
   3   9   9    1.20    3.05
   4   9   9   -0.73    2.61
   5   9   9   10.91    2.62
   6   9   9   38.70    2.74
   7   9   9   51.64    2.85
   8   9   9    7.58    2.68
   9   9   9    5.61    2.79
  10   9   9   -0.18    2.75
  -2  10   9    3.60    3.36
  -1  10   9    1.97    3.14
   0  10   9   27.23    3.13
   1  10   9   -0.50    2.96
   2  10   9    2.44    3.36
   3  10   9    0.00    3.28
   4  10   9    2.90    2.94
   5  10   9   17.15    2.73
   6  10   9    6.32    2.71
   7  10   9   18.71    2.86
   8  10   9    3.78    2.67
   9  10   9    1.63    2.82
  10  10   9    1.16    3.13
  -1  11   9    2.99    3.35
   0  11   9    6.21    2.94
   1  11   9    0.69    2.84
   2  11   9    3.73    3.80
   3  11   9    9.44    3.44
   4  11   9   25.91    3.10
   5  11   9   16.99    3.06
   6  11   9   10.16    3.06
   7  11   9   10.37    2.91
   8  11   9    7.10    2.96
   9  11   9    8.05    3.09
   1  12   9    2.15    3.24
   2  12   9    0.51    3.30
   3  12   9    1.88    3.45
   4  12   9   17.60    3.35
   5  12   9    4.56    3.20
   6  12   9    4.70    3.19
   7  12   9    6.96    3.25
   8  12   9    1.07    2.97
   3  13   9    0.07    3.55
   4  13   9    4.86    3.72
   5  13   9    4.91    3.61
   6  13   9    1.34    3.20
  -4  -4  10    7.29    3.54
  -3  -4  10   17.16    3.37
  -2  -4  10   20.70    3.52
  -1  -4  10    0.43    3.08
   0  -4  10    0.25    3.05
   1  -4  10    3.30    3.13
   2  -4  10    2.02    3.17
  -5  -3  10    1.20    3.52
  -4  -3  10    9.07    3.51
  -3  -3  10   20.80    3.38
  -2  -3  10    0.53    3.26
  -1  -3  10   -1.85    3.37
   0  -3  10   10.74    2.89
   1  -3  10   25.10    3.61
   2  -3  10    1.97    2.75
   3  -3  10    2.04    3.17
   4  -3  10    7.39    3.32
  -5  -2  10    1.17    3.25
  -4  -2  10    6.56    3.19
  -3  -2  10    8.07    3.21
  -2  -2  10    2.55    3.00
  -1  -2  10   -0.07    2.99
   0  -2  10    7.77    3.05
   1  -2  10    6.29    2.93
   2  -2  10    0.96    3.42
   3  -2  10    5.61    3.61
   4  -2  10    6.28    3.94
   5  -2  10    1.02    3.93
  -5  -1  10    2.00    3.26
  -4  -1  10    2.20    3.03
  -3  -1  10    5.16    2.80
  -2  -1  10    3.72    3.03
  -1  -1  10    5.89    2.99
   0  -1  10   30.05    3.10
   1  -1  10    1.39    2.90
   2  -1  10   -1.10    3.13
   3  -1  10    3.24    3.29
   4  -1  10   10.43    3.27
   5  -1  10   -1.81    3.43
   6  -1  10    1.02    3.61
  -6   0  10    4.31    3.43
  -5   0  10    3.02    3.29
  -4   0  10    0.55    3.03
  -3   0  10   18.19    3.04
  -2   0  10   -0.30    2.86
  -1   0  10   19.68    3.00
   0   0  10   24.87    2.92
   1   0  10   25.13    2.95
   2   0  10   23.40    3.06
   3   0  10    5.06    2.89
   4   0  10   13.59    3.04
   5   0  10    4.47    3.06
   6   0  10    5.19    3.40
   7   0  10    2.12    3.57
  -6   1  10    9.53    3.54
  -5   1  10   12.33    3.14
  -4   1  10   12.56    3.13
  -3   1  10   92.01    3.16
  -2   1  10   14.73    2.76
  -1   1  10   30.81    2.86
   0   1  10   26.02    2.91
   1   1  10   28.78    2.91
   2   1  10   17.98    2.77
   3   1  10    1.16    2.85
   4   1  10   10.39    3.03
   5   1  10   19.84    2.92
   6   1  10   22.05    3.04
   7   1  10   11.63    3.42
   8   1  10   -0.06    3.41
  -6   2  10    4.84    3.48
  -5   2  10    4.19    3.19
  -4   2  10   18.97    2.97
  -3   2  10   23.54    3.09
  -2   2  10   70.58    3.03
  -1   2  10    9.97    2.69
   0   2  10   18.42    2.72
   1   2  10   33.82    2.86
   2   2  10    6.59    2.75
   3   2  10    9.87    2.67
   4   2  10   22.54    2.87
   5   2  10    3.77    2.86
   6   2  10   28.95    2.92
   7   2  10    3.76    2.94
   8   2  10   -0.34    3.05
  -5   3  10    7.05    3.22
  -4   3  10   14.95    2.94
  -3   3  10    5.70    3.06
  -2   3  10   54.59    3.09
  -1   3  10    3.63    2.78
   0   3  10   26.45    2.76
   1   3  10    9.38    2.68
   2   3  10    2.59    2.63
   3   3  10    1.89    2.45
   4   3  10   19.13    2.68
   5   3  10   26.06    2.84
   6   3  10    7.74    2.80
   7   3  10    4.95    2.87
   8   3  10   -0.08    2.76
   9   3  10    1.71    3.26
  -5   4  10   10.60    3.39
  -4   4  10    8.12    3.13
  -3   4  10   10.16    3.02
  -2   4  10   34.31    2.94
  -1   4  10    3.57    2.83
   0   4  10    1.91    2.72
   1   4  10    1.57    2.70
   2   4  10    2.01    2.71
   3   4  10    1.46    2.62
   4   4  10    1.37    2.48
   5   4  10   75.55    2.80
   6   4  10    1.79    2.65
   7   4  10    3.70    2.84
   8   4  10    3.55    2.87
   9   4  10    0.01    3.14
  -5   5  10   12.15    3.60
  -4   5  10   11.92    3.34
  -3   5  10   13.85    2.94
  -2   5  10    5.79    2.89
  -1   5  10    5.08    2.82
   0   5  10   28.73    2.97
   1   5  10   29.46    2.88
   2   5  10   42.97    2.72
   3   5  10   18.67    2.76
   4   5  10   76.20    2.75
   5   5  10  124.56    3.02
   6   5  10   10.17    2.60
   7   5  10   10.88    2.54
   8   5  10    4.62    2.72
   9   5  10    1.32    2.91
  -4   6  10   10.33    3.88
  -3   6  10   14.43    3.55
  -2   6  10   17.88    3.28
  -1   6  10   18.91    2.92
   0   6  10   74.75    3.25
   1   6  10   49.48    3.03
   2   6  10    0.69    2.60
   3   6  10    5.39    2.67
   4   6  10   72.83    2.75
   5   6  10    4.74    2.63
   6   6  10    8.61    2.50
   7   6  10   25.75    2.76
   8   6  10   27.70    2.75
   9   6  10    8.54    2.84
  10   6  10    5.33    3.13
  -4   7  10    4.52    3.20
  -3   7  10    9.25    2.64
  -2   7  10    8.44    3.07
  -1   7  10   51.00    3.32
   0   7  10   25.91    3.18
   1   7  10   45.52    3.13
   2   7  10    1.33    2.84
   3   7  10   26.20    2.84
   4   7  10   40.38    2.77
   5   7  10    2.82    2.54
   6   7  10    3.38    2.48
   7   7  10    9.81    2.63
   8   7  10   29.20    2.71
   9   7  10    4.12    2.81
  10   7  10    4.29    3.14
  -3   8  10    5.48    3.24
  -2   8  10    5.70    2.96
  -1   8  10   23.02    3.28
   0   8  10    9.03    3.36
   1   8  10    3.35    3.07
   2   8  10   -0.20    3.01
   3   8  10    3.56    2.81
   4   8  10    6.27    2.61
   5   8  10    6.80    2.72
   6   8  10    8.17    2.68
   7   8  10   29.36    2.82
   8   8  10   43.34    3.00
   9   8  10    7.69    2.89
  10   8  10    2.63    2.79
  -2   9  10    0.73    3.08
  -1   9  10    2.94    3.05
   0   9  10   17.63    3.01
   1   9  10   23.70    3.47
   2   9  10    6.03    3.12
   3   9  10    1.97    2.83
   4   9  10    2.23    2.81
   5   9  10    8.25    2.85
   6   9  10   23.11    2.83
   7   9  10    9.03    2.65
   8   9  10   18.17    2.70
   9   9  10    5.95    3.00
  -1  10  10    1.43    3.30
   0  10  10    7.43    3.13
   1  10  10   22.84    3.42
   2  10  10    8.92    3.47
   3  10  10    2.57    3.34
   4  10  10   20.41    3.06
   5  10  10   28.32    3.01
   6  10  10   19.99    2.90
   7  10  10   14.44    2.64
   8  10  10    2.74    2.84
   9  10  10    2.90    2.90
   0  11  10   -1.52    3.28
   1  11  10   -2.32    2.88
   2  11  10    7.18    3.30
   3  11  10    5.66    3.38
   4  11  10    0.25    3.27
   5  11  10   20.32    3.20
   6  11  10    2.46    2.88
   7  11  10    5.32    3.01
   8  11  10    6.03    2.91
   2  12  10   14.11    3.39
   3  12  10    9.61    3.51
   4  12  10    1.15    3.37
   5  12  10   11.42    3.36
   6  12  10    3.91    3.20
   7  12  10    2.28    3.14
  -2  -3  11    4.31    3.33
  -1  -3  11    8.02    3.46
   0  -3  11    5.38    3.62
   1  -3  11   10.65    3.84
   2  -3  11    2.87    3.17
  -4  -2  11    2.30    3.77
  -3  -2  11    3.90    3.24
  -2  -2  11    4.36    3.27
  -1  -2  11   -0.17    3.12
   0  -2  11    4.29    3.23
   1  -2  11   12.66    3.38
   2  -2  11    3.89    3.46
   3  -2  11    2.52    3.83
  -4  -1  11    1.51    3.36
  -3  -1  11    5.79    3.26
  -2  -1  11   16.47    3.28
  -1  -1  11   12.91    3.32
   0  -1  11    9.20    3.19
   1  -1  11   23.47    2.94
   2  -1  11   11.59    3.03
   3  -1  11   15.44    3.34
   4  -1  11    2.45    3.30
   5  -1  11    2.88    3.87
  -5   0  11    7.89    3.50
  -4   0  11    7.98    3.18
  -3   0  11    6.64    3.04
  -2   0  11   60.79    3.16
  -1   0  11   21.14    2.91
   0   0  11    4.52    3.02
   1   0  11   12.66    3.12
   2   0  11    5.75    3.12
   3   0  11    3.56    3.11
   4   0  11    2.67    3.13
   5   0  11    6.48    3.39
   6   0  11    8.57    3.62
  -5   1  11    0.00    3.39
  -4   1  11    1.39    3.23
  -3   1  11    5.52    3.27
  -2   1  11   18.04    3.02
  -1   1  11   39.62    2.94
   0   1  11   12.79    2.90
   1   1  11    0.63    2.79
   2   1  11    5.87    2.69
   3   1  11    6.01    2.75
   4   1  11    0.88    2.98
   5   1  11    5.70    3.09
   6   1  11   16.26    3.45
   7   1  11    9.30    3.53
  -5   2  11    2.33    3.44
  -4   2  11    2.21    3.20
  -3   2  11   20.67    3.20
  -2   2  11    1.66    2.95
  -1   2  11    6.95    2.84
   0   2  11    4.13    2.80
   1   2  11   12.40    2.97
   2   2  11    1.65    2.85
   3   2  11    0.24    2.80
   4   2  11    1.82    2.75
   5   2  11   10.42    2.98
   6   2  11   20.94    3.03
   7   2  11   13.42    3.30
  -5   3  11    3.36    3.62
  -4   3  11    6.32    3.42
  -3   3  11   29.88    3.32
  -2   3  11   31.69    3.11
  -1   3  11   37.97    2.99
   0   3  11    1.95    2.86
   1   3  11   -0.11    2.68
   2   3  11    1.76    2.68
   3   3  11    5.71    2.83
   4   3  11    7.93    2.91
   5   3  11    3.64    2.76
   6   3  11   36.57    2.95
   7   3  11    9.44    3.05
   8   3  11   -0.66    3.33
  -4   4  11   22.09    3.45
  -3   4  11    0.24    3.15
  -2   4  11   44.63    3.04
  -1   4  11   15.39    3.02
   0   4  11   14.68    2.88
   1   4  11   45.78    2.94
   2   4  11   64.76    2.97
   3   4  11   21.06    2.80
   4   4  11   21.34    2.82
   5   4  11   23.15    3.00
   6   4  11   17.15    2.92
   7   4  11    2.55    2.82
   8   4  11    2.48    3.13
  -4   5  11   23.12    3.69
  -3   5  11    4.60    3.15
  -2   5  11   19.12    3.08
  -1   5  11   12.22    3.10
   0   5  11   19.51    2.86
   1   5  11   37.79    2.93
   2   5  11   13.38    2.80
   3   5  11    1.33    2.75
   4   5  11    1.03    2.67
   5   5  11   74.11    3.06
   6   5  11    1.66    2.87
   7   5  11    1.67    2.63
   8   5  11    7.72    2.90
   9   5  11    3.64    3.06
  -3   6  11    5.09    3.20
  -2   6  11    1.78    3.33
  -1   6  11   10.03    3.22
   0   6  11   70.67    3.17
   1   6  11   40.71    3.00
   2   6  11   17.53    2.78
   3   6  11    0.96    2.69
   4   6  11    1.96    2.69
   5   6  11   28.32    2.84
   6   6  11    6.69    2.79
   7   6  11    3.17    2.75
   8   6  11   16.23    2.84
   9   6  11   16.11    3.00
  -3   7  11    2.57    3.97
  -2   7  11    2.16    3.59
  -1   7  11    2.97    3.40
   0   7  11   13.20    3.07
   1   7  11    9.06    2.97
   2   7  11   15.07    2.81
   3   7  11    6.53    2.83
   4   7  11    5.46    2.74
   5   7  11    6.29    2.74
   6   7  11    3.33    2.76
   7   7  11   11.97    2.92
   8   7  11   21.64    2.99
   9   7  11   21.33    3.06
  -2   8  11    5.68    2.89
  -1   8  11   13.63    3.50
   0   8  11    6.34    3.43
   1   8  11   17.07    3.08
   2   8  11   20.18    2.95
   3   8  11    7.82    2.95
   4   8  11    1.57    2.72
   5   8  11    1.50    2.81
   6   8  11   20.91    2.86
   7   8  11   11.15    2.77
   8   8  11    9.05    3.00
   9   8  11    6.80    3.16
  -1   9  11    4.57    3.12
   0   9  11    4.66    3.51
   1   9  11   25.58    3.44
   2   9  11   12.26    3.16
   3   9  11   11.35    2.98
   4   9  11    2.35    2.85
   5   9  11   20.77    2.81
   6   9  11   32.15    2.91
   7   9  11    6.10    2.70
   8   9  11    2.91    2.95
   9   9  11    1.59    3.03
   0  10  11    5.15    2.91
   1  10  11    8.40    3.87
   2  10  11    2.34    3.29
   3  10  11    2.92    3.15
   4  10  11    4.90    3.08
   5  10  11    3.32    3.03
   6  10  11   17.96    3.01
   7  10  11    5.26    2.96
   8  10  11    1.54    3.02
   1  11  11    7.30    3.32
   2  11  11    3.46    3.70
   3  11  11   12.57    3.57
   4  11  11    8.00    3.23
   5  11  11   -0.69    3.10
   6  11  11   10.87    3.15
   7  11  11    7.03    3.22
   8  11  11    6.53    3.03
   3  12  11   13.46    3.64
   4  12  11    2.65    3.48
   5  12  11    6.54    3.27
   6  12  11   15.79    3.49
  -2  -1  12    6.74    3.42
  -1  -1  12    3.77    3.42
   0  -1  12    9.31    3.43
   1  -1  12    1.18    3.09
   2  -1  12   10.05    3.58
   3  -1  12    9.40    3.57
  -3   0  12    2.48    3.42
  -2   0  12    8.78    3.21
  -1   0  12   16.30    3.29
   0   0  12   10.57    3.35
   1   0  12    4.15    3.19
   2   0  12   -0.91    3.14
   3   0  12    1.31    3.44
   4   0  12    0.84    3.37
  -3   1  12    2.40    3.18
  -2   1  12    1.33    3.08
  -1   1  12   12.96    3.08
   0   1  12    6.27    3.06
   1   1  12    4.24    3.16
   2   1  12    2.05    3.06
   3   1  12    2.06    3.19
   4   1  12    0.26    3.46
   5   1  12    5.12    3.47
  -3   2  12   14.17    3.21
  -2   2  12   21.07    3.16
  -1   2  12   21.27    3.00
   0   2  12   26.51    3.09
   1   2  12    0.84    2.82
   2   2  12    1.34    2.88
   3   2  12    4.14    3.15
   4   2  12    2.24    3.07
   5   2  12    1.89    3.33
   6   2  12   11.15    3.35
  -3   3  12   30.40    3.39
  -2   3  12    2.53    3.08
  -1   3  12   23.61    3.13
   0   3  12   21.92    2.99
   1   3  12    8.39    2.92
   2   3  12   28.98    3.05
   3   3  12   19.94    2.96
   4   3  12    0.52    2.96
   5   3  12    0.48    3.11
   6   3  12   11.03    3.14
   7   3  12    6.45    3.39
  -3   4  12   23.34    3.42
  -2   4  12   -0.09    3.22
  -1   4  12   10.94    3.02
   0   4  12    1.81    3.01
   1   4  12    4.20    2.89
   2   4  12   39.67    3.07
   3   4  12   14.91    2.94
   4   4  12    1.89    2.87
   5   4  12    2.90    3.09
   6   4  12   16.32    3.03
   7   4  12    2.72    2.95
  -3   5  12    1.20    3.40
  -2   5  12    4.29    3.27
  -1   5  12    5.74    3.23
   0   5  12   15.54    3.03
   1   5  12   39.49    3.20
   2   5  12   27.21    2.97
   3   5  12    2.83    2.91
   4   5  12    4.19    3.01
   5   5  12    1.58    2.93
   6   5  12   27.89    3.13
   7   5  12   -0.13    2.94
   8   5  12    3.10    3.12
  -3   6  12   -1.08    4.62
  -2   6  12    6.49    3.48
  -1   6  12    1.49    3.15
   0   6  12    9.53    3.23
   1   6  12   28.42    3.07
   2   6  12   15.78    2.91
   3   6  12   12.18    2.96
   4   6  12    9.94    2.88
   5   6  12    3.35    2.84
   6   6  12    9.03    3.03
   7   6  12    0.87    2.92
   8   6  12    0.67    2.98
  -2   7  12   10.98    3.53
  -1   7  12    3.34    3.52
   0   7  12    7.55    3.27
   1   7  12   11.45    3.17
   2   7  12   19.32    3.14
   3   7  12   22.08    2.96
   4   7  12    0.09    3.07
   5   7  12   -0.17    2.88
   6   7  12    1.68    2.94
   7   7  12    7.93    2.97
   8   7  12    5.33    3.11
  -1   8  12    5.78    3.66
   0   8  12    3.16    3.48
   1   8  12    3.04    3.11
   2   8  12   37.83    3.36
   3   8  12   22.78    3.15
   4   8  12   -0.47    2.82
   5   8  12    7.52    2.82
   6   8  12    2.31    2.96
   7   8  12    9.26    3.00
   8   8  12    3.46    3.01
   0   9  12    7.38    3.35
   1   9  12    2.88    3.38
   2   9  12    4.15    3.17
   3   9  12    3.47    3.36
   4   9  12    5.85    2.96
   5   9  12    2.62    2.95
   6   9  12    8.39    2.99
   7   9  12    4.47    3.15
   8   9  12    3.22    3.15
   1  10  12   29.28    3.90
   2  10  12    1.67    3.36
   3  10  12    4.86    3.63
   4  10  12   18.47    3.21
   5  10  12    3.89    3.23
   6  10  12    8.91    3.14
   7  10  12    3.22    2.94
   3  11  12    5.34    3.57
   4  11  12    8.42    3.30
   5  11  12    2.80    3.22
   6  11  12   10.80    3.38
  -1   1  13    4.40    3.36
   0   1  13    7.58    3.35
   1   1  13    1.89    3.40
   2   1  13    1.14    3.42
   3   1  13    1.84    3.42
  -2   2  13    4.75    3.40
  -1   2  13    7.87    3.30
   0   2  13    7.33    3.13
   1   2  13   10.54    3.18
   2   2  13   -1.06    3.03
   3   2  13    4.57    3.17
   4   2  13    3.80    3.43
  -2   3  13    5.91    3.23
  -1   3  13    1.61    3.26
   0   3  13    1.91    3.14
   1   3  13    9.24    3.13
   2   3  13    7.43    3.06
   3   3  13   37.27    3.15
   4   3  13   12.19    3.25
   5   3  13    0.28    3.42
  -2   4  13    7.91    3.23
  -1   4  13    1.56    3.30
   0   4  13    4.34    3.15
   1   4  13   11.16    3.04
   2   4  13   38.65    3.18
   3   4  13   19.76    2.97
   4   4  13    7.78    3.21
   5   4  13    0.96    3.30
   6   4  13    6.89    3.47
  -2   5  13    2.59    3.80
  -1   5  13   12.15    3.38
   0   5  13    3.40    3.26
   1   5  13    7.04    3.10
   2   5  13   24.41    3.13
   3   5  13   15.67    3.15
   4   5  13    4.05    3.02
   5   5  13    0.89    3.26
   6   5  13    1.00    3.13
  -1   6  13   12.25    3.56
   0   6  13    6.17    3.37
   1   6  13    5.37    3.20
   2   6  13    4.58    3.08
   3   6  13    8.22    3.22
   4   6  13   13.17    2.95
   5   6  13   -0.30    3.02
   6   6  13    1.68    3.16
   7   6  13    3.68    3.22
  -1   7  13    3.59    3.32
   0   7  13    2.96    3.23
   1   7  13    9.65    3.32
   2   7  13    2.63    3.28
   3   7  13   14.18    3.23
   4   7  13   17.82    3.16
   5   7  13    1.56    3.05
   6   7  13    3.70    3.10
   7   7  13    6.61    3.21
   0   8  13    1.51    3.64
   1   8  13    4.10    3.51
   2   8  13    7.04    3.23
   3   8  13    6.82    3.29
   4   8  13    1.46    3.19
   5   8  13    1.31    2.86
   6   8  13    2.23    3.15
   7   8  13    4.24    3.10
   1   9  13    7.73    3.50
   2   9  13   22.21    3.59
   3   9  13    6.44    3.37
   4   9  13    3.26    3.09
   5   9  13   28.85    3.45
   6   9  13   -0.73    3.08
   3  10  13    3.58    3.45
   4  10  13    6.32    3.40
   5  10  13   21.35    3.39
   1   4  14    5.12    3.30
   2   4  14    2.13    3.31
   3   4  14    5.33    3.27
   1   5  14    5.73    3.41
   2   5  14    2.14    3.40
   3   5  14    4.61    3.26
   4   5  14    6.68    3.25
   1   6  14    1.26    3.36
   2   6  14    3.70    3.41
   3   6  14    3.07    3.35
   4   6  14    6.91    3.22
   5   6  14   20.97    3.39
   2   7  14    3.54    3.43
   3   7  14    4.04    3.43
   4   7  14    1.44    3.26
   5   7  14    2.29    3.27
   3   8  14   12.55    3.57
   4   8  14    9.08    3.33
   0   0   0    0.00    0.00
;
_shelx_hkl_checksum              7578
loop_
_space_group_symop_operation_xyz
'x, y, z'
'-x, -y, -z'
loop_
_atom_site_label
_atom_site_type_symbol
_atom_site_fract_x
_atom_site_fract_y
_atom_site_fract_z
_atom_site_U_iso_or_equiv
_atom_site_adp_type
_atom_site_occupancy
_atom_site_site_symmetry_order
_atom_site_calc_flag
_atom_site_refinement_flags_posn
_atom_site_refinement_flags_adp
_atom_site_refinement_flags_occupancy
_atom_site_disorder_assembly
_atom_site_disorder_group
Zn1 Zn 0.000000 0.000000 0.000000 0.02701(17) Uani 1 2 d S . P . .
N1 N -0.1282(2) -0.1040(2) -0.00750(19) 0.0234(6) Uani 1 1 d . . . . .
N2 N -0.1246(2) 0.0196(2) 0.1632(2) 0.0218(5) Uani 1 1 d . . . . .
C6 C -0.2475(3) -0.0205(3) 0.2192(2) 0.0243(7) Uani 1 1 d . . . . .
C4 C -0.2397(3) -0.1401(3) 0.0791(2) 0.0229(6) Uani 1 1 d . . . . .
C9 C -0.1185(3) 0.0987(3) 0.2230(2) 0.0254(7) Uani 1 1 d . . . . .
C1 C -0.0993(3) -0.1688(3) -0.0914(2) 0.0243(7) Uani 1 1 d . . . . .
O1 O 0.1818(2) -0.2302(2) 0.1091(2) 0.0469(6) Uani 1 1 d . . . . .
C2 C -0.1994(3) -0.2467(3) -0.0570(3) 0.0287(7) Uani 1 1 d . . . . .
H2 H -0.204264 -0.298201 -0.099208 0.034 Uiso 1 1 calc R U . . .
C7 C -0.3215(3) 0.0362(3) 0.3177(3) 0.0307(7) Uani 1 1 d . . . . .
H7 H -0.407321 0.024490 0.369735 0.037 Uiso 1 1 calc R U . . .
C17 C -0.0225(3) 0.2424(3) 0.2733(3) 0.0246(7) Uani 1 1 d . . . . .
C8 C -0.2417(3) 0.1094(3) 0.3193(3) 0.0322(7) Uani 1 1 d . . . . .
H8 H -0.262592 0.157512 0.372619 0.039 Uiso 1 1 calc R U . . .
C11 C -0.4197(3) -0.1522(3) 0.2700(2) 0.0226(7) Uani 1 1 d . . . . .
C3 C -0.2840(3) -0.2301(3) 0.0481(3) 0.0298(7) Uani 1 1 d . . . . .
H3 H -0.357167 -0.269264 0.092518 0.036 Uiso 1 1 calc R U . . .
C16 C -0.5622(3) -0.1136(3) 0.2286(3) 0.0317(7) Uani 1 1 d . . . . .
H16 H -0.585228 -0.050726 0.147557 0.038 Uiso 1 1 calc R U . . .
C15 C -0.6699(3) -0.1684(3) 0.3076(3) 0.0384(8) Uani 1 1 d . . . . .
H15 H -0.764770 -0.141379 0.279567 0.046 Uiso 1 1 calc R U . . .
C12 C -0.3888(3) -0.2457(3) 0.3927(3) 0.0334(7) Uani 1 1 d . . . . .
H12 H -0.295502 -0.270987 0.422507 0.040 Uiso 1 1 calc R U . . .
C18 C 0.0465(3) 0.1717(3) 0.3856(3) 0.0378(8) Uani 1 1 d . . . . .
H18 H 0.100995 0.074925 0.411323 0.045 Uiso 1 1 calc R U . . .
C13 C -0.4960(4) -0.3011(3) 0.4703(3) 0.0404(8) Uani 1 1 d . . . . .
H13 H -0.473727 -0.364273 0.551416 0.048 Uiso 1 1 calc R U . . .
C14 C -0.6356(4) -0.2629(4) 0.4276(3) 0.0421(9) Uani 1 1 d . . . . .
H14 H -0.706836 -0.300954 0.479888 0.051 Uiso 1 1 calc R U . . .
C10 C -0.0123(3) 0.1654(3) 0.1928(2) 0.0244(7) Uani 1 1 d . . . . .
C19 C 0.0350(4) 0.2445(4) 0.4608(3) 0.0450(9) Uani 1 1 d . . . . .
H19 H 0.081704 0.195849 0.536124 0.054 Uiso 1 1 calc R U . . .
C21 C -0.1128(4) 0.4587(4) 0.3126(3) 0.0444(9) Uani 1 1 d . . . . .
H21 H -0.166738 0.555468 0.287458 0.053 Uiso 1 1 calc R U . . .
C22 C -0.1016(4) 0.3871(3) 0.2373(3) 0.0403(8) Uani 1 1 d . . . . .
H22 H -0.147847 0.436815 0.161790 0.048 Uiso 1 1 calc R U . . .
C5 C -0.2990(3) -0.1004(3) 0.1851(2) 0.0238(6) Uani 1 1 d . . . . .
C20 C -0.0445(4) 0.3866(4) 0.4240(3) 0.0404(9) Uani 1 1 d . . . . .
H20 H -0.052221 0.434484 0.474389 0.048 Uiso 1 1 calc R U . . .
C027 C 0.3360(4) -0.2889(4) 0.0572(3) 0.0579(10) Uani 1 1 d . . . . .
H02A H 0.392567 -0.229324 0.041041 0.070 Uiso 1 1 calc R U . . .
H02B H 0.333287 -0.297189 -0.020635 0.070 Uiso 1 1 calc R U . . .
C25 C 0.1345(5) -0.3447(4) 0.1907(4) 0.0797(14) Uani 1 1 d . . . . .
H25A H 0.062454 -0.351818 0.151304 0.096 Uiso 1 1 calc R U . . .
H25B H 0.085325 -0.330587 0.268233 0.096 Uiso 1 1 calc R U . . .
C24 C 0.4109(5) -0.4334(5) 0.1547(4) 0.0885(14) Uani 1 1 d . . . . .
H24A H 0.485645 -0.498554 0.116027 0.106 Uiso 1 1 calc R U . . .
H24B H 0.460111 -0.427942 0.213993 0.106 Uiso 1 1 calc R U . . .
C23 C 0.2758(6) -0.4750(6) 0.2156(7) 0.151(3) Uani 1 1 d . . . . .
H23A H 0.270433 -0.537820 0.181928 0.181 Uiso 1 1 calc R U . . .
H23B H 0.285478 -0.523710 0.305029 0.181 Uiso 1 1 calc R U . . .
loop_
_atom_site_aniso_label
_atom_site_aniso_U_11
_atom_site_aniso_U_22
_atom_site_aniso_U_33
_atom_site_aniso_U_23
_atom_site_aniso_U_13
_atom_site_aniso_U_12
Zn1 0.0309(3) 0.0378(4) 0.0254(3) -0.0187(3) 0.0068(3) -0.0219(3)
N1 0.0275(14) 0.0263(15) 0.0210(13) -0.0108(12) 0.0019(11) -0.0139(12)
N2 0.0240(13) 0.0237(15) 0.0214(12) -0.0106(11) 0.0022(10) -0.0120(12)
C6 0.0237(16) 0.0272(18) 0.0213(15) -0.0078(14) 0.0030(12) -0.0120(14)
C4 0.0209(15) 0.0238(18) 0.0224(15) -0.0064(13) 0.0004(12) -0.0098(14)
C9 0.0308(17) 0.0232(18) 0.0244(16) -0.0108(14) -0.0038(13) -0.0088(14)
C1 0.0292(17) 0.0222(18) 0.0243(15) -0.0103(14) -0.0034(13) -0.0094(14)
O1 0.0408(14) 0.0409(15) 0.0521(15) -0.0104(12) -0.0049(11) -0.0144(12)
C2 0.0360(18) 0.0290(19) 0.0290(16) -0.0114(15) -0.0030(14) -0.0179(16)
C7 0.0323(18) 0.038(2) 0.0266(16) -0.0155(15) 0.0085(13) -0.0191(16)
C17 0.0289(16) 0.0271(19) 0.0256(16) -0.0133(14) 0.0036(13) -0.0164(15)
C8 0.0389(18) 0.035(2) 0.0282(16) -0.0185(15) 0.0050(14) -0.0161(17)
C11 0.0249(16) 0.0240(18) 0.0227(16) -0.0117(14) 0.0052(12) -0.0128(14)
C3 0.0312(17) 0.032(2) 0.0302(17) -0.0083(15) -0.0011(14) -0.0191(16)
C16 0.0273(17) 0.030(2) 0.0341(17) -0.0094(15) -0.0035(14) -0.0092(15)
C15 0.0263(17) 0.047(2) 0.050(2) -0.0255(19) 0.0046(15) -0.0171(17)
C12 0.0336(17) 0.039(2) 0.0306(17) -0.0131(16) -0.0006(14) -0.0166(16)
C18 0.0446(19) 0.031(2) 0.0381(19) -0.0166(16) -0.0125(15) -0.0058(17)
C13 0.051(2) 0.042(2) 0.0254(16) -0.0090(16) 0.0035(15) -0.0211(18)
C14 0.046(2) 0.049(2) 0.044(2) -0.0229(19) 0.0157(17) -0.0328(19)
C10 0.0305(16) 0.0225(18) 0.0232(15) -0.0119(13) -0.0020(12) -0.0088(14)
C19 0.051(2) 0.054(3) 0.042(2) -0.0244(19) -0.0133(17) -0.018(2)
C21 0.069(2) 0.026(2) 0.040(2) -0.0174(17) 0.0006(18) -0.0168(19)
C22 0.059(2) 0.030(2) 0.0308(17) -0.0107(16) -0.0090(15) -0.0125(18)
C5 0.0253(16) 0.0236(18) 0.0227(15) -0.0086(14) -0.0013(12) -0.0092(14)
C20 0.053(2) 0.050(2) 0.041(2) -0.0304(19) 0.0093(16) -0.032(2)
C027 0.041(2) 0.057(3) 0.056(2) -0.017(2) -0.0094(18) -0.002(2)
C25 0.073(3) 0.054(3) 0.084(3) 0.018(2) -0.016(2) -0.036(3)
C24 0.081(4) 0.067(4) 0.092(4) -0.024(3) -0.013(3) -0.006(3)
C23 0.085(4) 0.058(4) 0.251(8) 0.036(4) -0.071(4) -0.035(4)
loop_
_atom_type_symbol
_atom_type_description
_atom_type_scat_dispersion_real
_atom_type_scat_dispersion_imag
_atom_type_scat_source
C C 0.0033 0.0016 'International Tables Vol C Tables 4.2.6.8 and 6.1.1.4'
H H 0.0000 0.0000 'International Tables Vol C Tables 4.2.6.8 and 6.1.1.4'
N N 0.0061 0.0033 'International Tables Vol C Tables 4.2.6.8 and 6.1.1.4'
O O 0.0106 0.0060 'International Tables Vol C Tables 4.2.6.8 and 6.1.1.4'
Zn Zn 0.2839 1.4301 'International Tables Vol C Tables 4.2.6.8 and 6.1.1.4'
loop_
_geom_angle_atom_site_label_1
_geom_angle_atom_site_label_2
_geom_angle_atom_site_label_3
_geom_angle
_geom_angle_site_symmetry_1
_geom_angle_site_symmetry_3
_geom_angle_publ_flag
N2 Zn1 N2 180.0 2 . ?
N2 Zn1 N1 90.60(8) 2 . ?
N2 Zn1 N1 89.40(8) . . ?
N2 Zn1 N1 89.40(8) 2 2 ?
N2 Zn1 N1 90.60(8) . 2 ?
N1 Zn1 N1 180.0 . 2 ?
N2 Zn1 O1 92.89(9) 2 2 ?
N2 Zn1 O1 87.11(9) . 2 ?
N1 Zn1 O1 93.24(8) . 2 ?
N1 Zn1 O1 86.76(8) 2 2 ?
N2 Zn1 O1 87.11(9) 2 . ?
N2 Zn1 O1 92.89(9) . . ?
N1 Zn1 O1 86.76(8) . . ?
N1 Zn1 O1 93.24(8) 2 . ?
O1 Zn1 O1 180.00(10) 2 . ?
C4 N1 C1 107.0(2) . . ?
C4 N1 Zn1 127.04(16) . . ?
C1 N1 Zn1 125.22(16) . . ?
C6 N2 C9 106.8(2) . . ?
C6 N2 Zn1 126.56(16) . . ?
C9 N2 Zn1 125.61(16) . . ?
N2 C6 C5 126.2(2) . . ?
N2 C6 C7 109.3(2) . . ?
C5 C6 C7 124.5(2) . . ?
N1 C4 C5 125.6(2) . . ?
N1 C4 C3 109.4(2) . . ?
C5 C4 C3 125.1(2) . . ?
N2 C9 C10 126.0(2) . . ?
N2 C9 C8 109.7(2) . . ?
C10 C9 C8 124.2(2) . . ?
N1 C1 C10 126.3(2) . 2 ?
N1 C1 C2 109.3(2) . . ?
C10 C1 C2 124.4(2) 2 . ?
C25 O1 C027 107.9(3) . . ?
C25 O1 Zn1 122.0(2) . . ?
C027 O1 Zn1 123.00(19) . . ?
C3 C2 C1 106.8(2) . . ?
C3 C2 H2 126.6 . . ?
C1 C2 H2 126.6 . . ?
C8 C7 C6 106.9(2) . . ?
C8 C7 H7 126.5 . . ?
C6 C7 H7 126.5 . . ?
C18 C17 C22 118.1(3) . . ?
C18 C17 C10 121.0(3) . . ?
C22 C17 C10 120.9(3) . . ?
C7 C8 C9 107.2(2) . . ?
C7 C8 H8 126.4 . . ?
C9 C8 H8 126.4 . . ?
C12 C11 C16 118.5(2) . . ?
C12 C11 C5 119.8(2) . . ?
C16 C11 C5 121.7(2) . . ?
C2 C3 C4 107.4(2) . . ?
C2 C3 H3 126.3 . . ?
C4 C3 H3 126.3 . . ?
C15 C16 C11 120.6(3) . . ?
C15 C16 H16 119.7 . . ?
C11 C16 H16 119.7 . . ?
C14 C15 C16 119.9(3) . . ?
C14 C15 H15 120.0 . . ?
C16 C15 H15 120.0 . . ?
C13 C12 C11 120.5(3) . . ?
C13 C12 H12 119.7 . . ?
C11 C12 H12 119.7 . . ?
C17 C18 C19 120.6(3) . . ?
C17 C18 H18 119.7 . . ?
C19 C18 H18 119.7 . . ?
C14 C13 C12 120.3(3) . . ?
C14 C13 H13 119.9 . . ?
C12 C13 H13 119.9 . . ?
C13 C14 C15 120.2(3) . . ?
C13 C14 H14 119.9 . . ?
C15 C14 H14 119.9 . . ?
C1 C10 C9 125.5(2) 2 . ?
C1 C10 C17 117.2(2) 2 . ?
C9 C10 C17 117.3(2) . . ?
C20 C19 C18 120.3(3) . . ?
C20 C19 H19 119.9 . . ?
C18 C19 H19 119.9 . . ?
C20 C21 C22 120.1(3) . . ?
C20 C21 H21 120.0 . . ?
C22 C21 H21 120.0 . . ?
C17 C22 C21 121.0(3) . . ?
C17 C22 H22 119.5 . . ?
C21 C22 H22 119.5 . . ?
C6 C5 C4 124.6(2) . . ?
C6 C5 C11 117.8(2) . . ?
C4 C5 C11 117.6(2) . . ?
C19 C20 C21 120.0(3) . . ?
C19 C20 H20 120.0 . . ?
C21 C20 H20 120.0 . . ?
O1 C027 C24 106.1(3) . . ?
O1 C027 H02A 110.5 . . ?
C24 C027 H02A 110.5 . . ?
O1 C027 H02B 110.5 . . ?
C24 C027 H02B 110.5 . . ?
H02A C027 H02B 108.7 . . ?
O1 C25 C23 106.7(3) . . ?
O1 C25 H25A 110.4 . . ?
C23 C25 H25A 110.4 . . ?
O1 C25 H25B 110.4 . . ?
C23 C25 H25B 110.4 . . ?
H25A C25 H25B 108.6 . . ?
C23 C24 C027 101.6(4) . . ?
C23 C24 H24A 111.5 . . ?
C027 C24 H24A 111.5 . . ?
C23 C24 H24B 111.5 . . ?
C027 C24 H24B 111.5 . . ?
H24A C24 H24B 109.3 . . ?
C25 C23 C24 108.3(4) . . ?
C25 C23 H23A 110.0 . . ?
C24 C23 H23A 110.0 . . ?
C25 C23 H23B 110.0 . . ?
C24 C23 H23B 110.0 . . ?
H23A C23 H23B 108.4 . . ?
loop_
_geom_bond_atom_site_label_1
_geom_bond_atom_site_label_2
_geom_bond_distance
_geom_bond_site_symmetry_2
_geom_bond_publ_flag
Zn1 N2 2.060(2) 2 ?
Zn1 N2 2.060(2) . ?
Zn1 N1 2.072(2) . ?
Zn1 N1 2.072(2) 2 ?
Zn1 O1 2.419(3) 2 ?
Zn1 O1 2.419(3) . ?
N1 C4 1.368(3) . ?
N1 C1 1.376(3) . ?
N2 C6 1.373(3) . ?
N2 C9 1.374(3) . ?
C6 C5 1.415(3) . ?
C6 C7 1.453(4) . ?
C4 C5 1.417(3) . ?
C4 C3 1.449(4) . ?
C9 C10 1.415(3) . ?
C9 C8 1.440(4) . ?
C1 C10 1.408(4) 2 ?
C1 C2 1.452(3) . ?
O1 C25 1.432(4) . ?
O1 C027 1.448(4) . ?
C2 C3 1.352(4) . ?
C2 H2 0.9300 . ?
C7 C8 1.356(4) . ?
C7 H7 0.9300 . ?
C17 C18 1.385(4) . ?
C17 C22 1.389(4) . ?
C17 C10 1.498(4) . ?
C8 H8 0.9300 . ?
C11 C12 1.397(4) . ?
C11 C16 1.398(4) . ?
C11 C5 1.496(3) . ?
C3 H3 0.9300 . ?
C16 C15 1.391(4) . ?
C16 H16 0.9300 . ?
C15 C14 1.381(4) . ?
C15 H15 0.9300 . ?
C12 C13 1.386(4) . ?
C12 H12 0.9300 . ?
C18 C19 1.401(4) . ?
C18 H18 0.9300 . ?
C13 C14 1.380(4) . ?
C13 H13 0.9300 . ?
C14 H14 0.9300 . ?
C19 C20 1.366(5) . ?
C19 H19 0.9300 . ?
C21 C20 1.373(4) . ?
C21 C22 1.392(4) . ?
C21 H21 0.9300 . ?
C22 H22 0.9300 . ?
C20 H20 0.9300 . ?
C027 C24 1.521(5) . ?
C027 H02A 0.9700 . ?
C027 H02B 0.9700 . ?
C25 C23 1.491(6) . ?
C25 H25A 0.9700 . ?
C25 H25B 0.9700 . ?
C24 C23 1.494(6) . ?
C24 H24A 0.9700 . ?
C24 H24B 0.9700 . ?
C23 H23A 0.9700 . ?
C23 H23B 0.9700 . ?
loop_
_geom_torsion_atom_site_label_1
_geom_torsion_atom_site_label_2
_geom_torsion_atom_site_label_3
_geom_torsion_atom_site_label_4
_geom_torsion
_geom_torsion_site_symmetry_1
_geom_torsion_site_symmetry_2
_geom_torsion_site_symmetry_3
_geom_torsion_site_symmetry_4
_geom_torsion_publ_flag
C9 N2 C6 C5 178.3(3) . . . . ?
Zn1 N2 C6 C5 9.4(4) . . . . ?
C9 N2 C6 C7 0.2(3) . . . . ?
Zn1 N2 C6 C7 -168.75(19) . . . . ?
C1 N1 C4 C5 177.3(3) . . . . ?
Zn1 N1 C4 C5 6.6(4) . . . . ?
C1 N1 C4 C3 -0.5(3) . . . . ?
Zn1 N1 C4 C3 -171.23(19) . . . . ?
C6 N2 C9 C10 -177.8(3) . . . . ?
Zn1 N2 C9 C10 -8.8(4) . . . . ?
C6 N2 C9 C8 -0.2(3) . . . . ?
Zn1 N2 C9 C8 168.81(19) . . . . ?
C4 N1 C1 C10 -177.0(3) . . . 2 ?
Zn1 N1 C1 C10 -6.0(4) . . . 2 ?
C4 N1 C1 C2 1.1(3) . . . . ?
Zn1 N1 C1 C2 172.04(19) . . . . ?
N1 C1 C2 C3 -1.3(3) . . . . ?
C10 C1 C2 C3 176.8(3) 2 . . . ?
N2 C6 C7 C8 0.0(3) . . . . ?
C5 C6 C7 C8 -178.2(3) . . . . ?
C6 C7 C8 C9 -0.1(4) . . . . ?
N2 C9 C8 C7 0.2(4) . . . . ?
C10 C9 C8 C7 177.9(3) . . . . ?
C1 C2 C3 C4 1.0(3) . . . . ?
N1 C4 C3 C2 -0.3(3) . . . . ?
C5 C4 C3 C2 -178.2(3) . . . . ?
C12 C11 C16 C15 -0.7(4) . . . . ?
C5 C11 C16 C15 176.9(3) . . . . ?
C11 C16 C15 C14 -0.7(4) . . . . ?
C16 C11 C12 C13 1.4(4) . . . . ?
C5 C11 C12 C13 -176.2(3) . . . . ?
C22 C17 C18 C19 0.6(4) . . . . ?
C10 C17 C18 C19 -179.4(3) . . . . ?
C11 C12 C13 C14 -0.9(4) . . . . ?
C12 C13 C14 C15 -0.5(5) . . . . ?
C16 C15 C14 C13 1.3(5) . . . . ?
N2 C9 C10 C1 4.0(5) . . . 2 ?
C8 C9 C10 C1 -173.2(3) . . . 2 ?
N2 C9 C10 C17 -177.8(3) . . . . ?
C8 C9 C10 C17 4.9(4) . . . . ?
C18 C17 C10 C1 -98.6(3) . . . 2 ?
C22 C17 C10 C1 81.4(3) . . . 2 ?
C18 C17 C10 C9 83.1(3) . . . . ?
C22 C17 C10 C9 -96.9(3) . . . . ?
C17 C18 C19 C20 -0.1(5) . . . . ?
C18 C17 C22 C21 -0.7(4) . . . . ?
C10 C17 C22 C21 179.2(3) . . . . ?
C20 C21 C22 C17 0.4(5) . . . . ?
N2 C6 C5 C4 -6.5(5) . . . . ?
C7 C6 C5 C4 171.4(3) . . . . ?
N2 C6 C5 C11 170.7(3) . . . . ?
C7 C6 C5 C11 -11.5(4) . . . . ?
N1 C4 C5 C6 -2.1(5) . . . . ?
C3 C4 C5 C6 175.4(3) . . . . ?
N1 C4 C5 C11 -179.2(3) . . . . ?
C3 C4 C5 C11 -1.7(4) . . . . ?
C12 C11 C5 C6 -62.5(4) . . . . ?
C16 C11 C5 C6 120.0(3) . . . . ?
C12 C11 C5 C4 114.9(3) . . . . ?
C16 C11 C5 C4 -62.7(4) . . . . ?
C18 C19 C20 C21 -0.3(5) . . . . ?
C22 C21 C20 C19 0.2(5) . . . . ?
C25 O1 C027 C24 -29.1(4) . . . . ?
Zn1 O1 C027 C24 -179.9(2) . . . . ?
C027 O1 C25 C23 15.4(5) . . . . ?
Zn1 O1 C25 C23 166.5(3) . . . . ?
O1 C027 C24 C23 30.2(5) . . . . ?
O1 C25 C23 C24 4.5(6) . . . . ?
C027 C24 C23 C25 -21.0(6) . . . . ?
