#------------------------------------------------------------------------------
#$Date: 2022-10-13 01:58:59 +0300 (Thu, 13 Oct 2022) $
#$Revision: 278556 $
#$URL: file:///home/coder/svn-repositories/cod/cif/7/71/14/7711470.cif $
#------------------------------------------------------------------------------
#
# This file is available in the Crystallography Open Database (COD),
# http://www.crystallography.net/
#
# All data on this site have been placed in the public domain by the
# contributors.
#
data_7711470
loop_
_publ_author_name
'Cheng, Ying'
'Zhang, Zeyuan'
'Duan, Xianglong'
'Zhang, Mingming'
_publ_section_title
;
 cis-Dipyridyl Porphyrin-Based Multicomponent Organoplatinum(II)
 Bismetallacycles for Photocatalytic Oxidation
;
_journal_name_full               'Dalton Transactions'
_journal_paper_doi               10.1039/D2DT02197H
_journal_year                    2022
_chemical_formula_moiety         'C148 H178 N12 O8 P8 Pt4, 16[C2H3N], 5[C6H14O]'
_chemical_formula_sum            'C210 H296 N28 O13 P8 Pt4'
_chemical_formula_weight         4448.85
_space_group_crystal_system      monoclinic
_space_group_IT_number           15
_space_group_name_Hall           '-C 2yc'
_space_group_name_H-M_alt        'C 1 2/c 1'
_atom_sites_solution_hydrogens   mixed
_audit_creation_date             2022-10-06
_audit_creation_method
;
Olex2 1.5
(compiled 2022.04.07 svn.rca3783a0 for OlexSys, GUI svn.r6498)
;
_audit_update_record
;
2022-10-09 deposited with the CCDC.	2022-10-11 downloaded from the CCDC.
;
_cell_angle_alpha                90
_cell_angle_beta                 93.216(7)
_cell_angle_gamma                90
_cell_formula_units_Z            8
_cell_length_a                   31.577(4)
_cell_length_b                   32.060(4)
_cell_length_c                   39.781(4)
_cell_measurement_reflns_used    9873
_cell_measurement_temperature    193.0
_cell_measurement_theta_max      51.18
_cell_measurement_theta_min      2.40
_cell_volume                     40209(8)
_computing_cell_refinement       'SAINT v8.37A (Bruker, 2015)'
_computing_data_reduction        'SAINT v8.37A (Bruker, 2015)'
_computing_molecular_graphics    'Olex2 1.5 (Dolomanov et al., 2009)'
_computing_publication_material  'Olex2 1.5 (Dolomanov et al., 2009)'
_computing_structure_refinement  'SHELXL 2014/1 (Sheldrick, 2015)'
_diffrn_ambient_temperature      193.0
_diffrn_measured_fraction_theta_full 0.940
_diffrn_measured_fraction_theta_max 0.997
_diffrn_measurement_device_type  'Bruker APEX-II CCD'
_diffrn_measurement_method       '\f and \w scans'
_diffrn_radiation_type           MoK\a
_diffrn_radiation_wavelength     0.71073
_diffrn_reflns_av_unetI/netI     0.0601
_diffrn_reflns_Laue_measured_fraction_full 0.940
_diffrn_reflns_Laue_measured_fraction_max 0.997
_diffrn_reflns_limit_h_max       37
_diffrn_reflns_limit_h_min       -37
_diffrn_reflns_limit_k_max       37
_diffrn_reflns_limit_k_min       0
_diffrn_reflns_limit_l_max       46
_diffrn_reflns_limit_l_min       0
_diffrn_reflns_number            34193
_diffrn_reflns_point_group_measured_fraction_full 0.940
_diffrn_reflns_point_group_measured_fraction_max 0.997
_diffrn_reflns_theta_full        25.242
_diffrn_reflns_theta_max         24.713
_diffrn_reflns_theta_min         0.906
_exptl_absorpt_coefficient_mu    2.906
_exptl_absorpt_correction_T_max  0.7506
_exptl_absorpt_correction_T_min  0.4875
_exptl_absorpt_correction_type   multi-scan
_exptl_absorpt_process_details
;
SADABS-2016/2 (Bruker,2016/2) was used for absorption correction.
wR2(int) was 0.1304 before and 0.0920 after correction.
The Ratio of minimum to maximum transmission is 0.6495.
The \l/2 correction factor is Not present.
;
_exptl_crystal_colour            colourless
_exptl_crystal_colour_primary    colourless
_exptl_crystal_density_diffrn    1.470
_exptl_crystal_description       block
_exptl_crystal_F_000             18304
_exptl_crystal_size_max          0.13
_exptl_crystal_size_mid          0.12
_exptl_crystal_size_min          0.1
_refine_diff_density_max         3.344
_refine_diff_density_min         -2.343
_refine_diff_density_rms         0.179
_refine_ls_extinction_method     none
_refine_ls_goodness_of_fit_ref   1.188
_refine_ls_hydrogen_treatment    constr
_refine_ls_matrix_type           full
_refine_ls_number_parameters     1520
_refine_ls_number_reflns         34193
_refine_ls_number_restraints     1832
_refine_ls_restrained_S_all      1.193
_refine_ls_R_factor_all          0.1491
_refine_ls_R_factor_gt           0.1157
_refine_ls_shift/su_max          0.005
_refine_ls_shift/su_mean         0.000
_refine_ls_structure_factor_coef Fsqd
_refine_ls_weighting_details
'w=1/[\s^2^(Fo^2^)+(0.1200P)^2^+300.0000P] where P=(Fo^2^+2Fc^2^)/3'
_refine_ls_weighting_scheme      calc
_refine_ls_wR_factor_gt          0.3025
_refine_ls_wR_factor_ref         0.3238
_reflns_Friedel_coverage         0.000
_reflns_number_gt                20690
_reflns_number_total             34193
_reflns_threshold_expression     'I > 2\s(I)'
_cod_data_source_file            d2dt02197h2.cif
_cod_data_source_block           539
_cod_original_cell_volume        40210(7)
_cod_database_code               7711470
_shelxl_version_number           2014-1
_shelx_space_group_comment
;
The symmetry employed for this shelxl refinement is uniquely defined
by the following loop, which should always be used as a source of
symmetry information in preference to the above space-group names.
They are only intended as comments.
;
_shelx_estimated_absorpt_t_max   0.760
_shelx_estimated_absorpt_t_min   0.704
_olex2_refinement_description
;
1. Twinned data refinement
 Scales: 0.54(3)
 0.46(3)
2. Fixed Uiso
 At 1.2 times of:
  All C(H) groups, All C(H,H) groups
 At 1.5 times of:
  All C(H,H,H) groups
3. Restrained distances
 C358-C167
 1.52 with sigma of 0.02
 C239-C237
 1.45 with sigma of 0.02
 C147-C141
 1.45 with sigma of 0.02
 C337-C129
 1.45 with sigma of 0.02
 C352-C310
 1.45 with sigma of 0.02
 C41-C261
 1.45 with sigma of 0.02
 C89-C177
 1.45 with sigma of 0.02
 C37-C331
 1.45 with sigma of 0.02
 C49-C270
 1.5 with sigma of 0.02
 C144-C201
 1.5 with sigma of 0.02
 H17B-H81C
 2.1 with sigma of 0.02
 H34D-H89B
 2.1 with sigma of 0.02
 C261-C41
 1.48 with sigma of 0.02
 P94-C261
 1.93 with sigma of 0.02
 C41-C141
 4.1 with sigma of 0.02
 H25C-H41A
 2.1 with sigma of 0.02
 H13A-H41B
 2.1 with sigma of 0.02
 H25B-H41A
 2.1 with sigma of 0.02
 C174-C146
 1.47 with sigma of 0.01
 P94-C41
 3.208 with sigma of 0.04
 C9-C198 \\sim C308-C222 \\sim C84-C16 \\sim C8-C238 \\sim C46-C38 \\sim
C160-C154 \\sim C49-C270 ~
 C185-C180
 with sigma of 0.02
 C270-C132 \\sim C348-C270 \\sim C308-C194 \\sim C346-C308 \\sim C226-C198
\\sim C198-C168 \\sim C180-
 C121 \\sim C280-C180 \\sim C8-C224 \\sim C8-C108 \\sim C84-C70 \\sim C84-C26
\\sim C160-C14 \\sim C160-
 C156 \\sim C38-C164 \\sim C38-C146
 with sigma of 0.02
 C324-C274 \\sim C274-C194 \\sim C348-C324 \\sim C252-C132 \\sim C252-C248
\\sim C280-C248 \\sim C296-
 C121 \\sim C3-C296 \\sim C3-C168 \\sim C346-C128 \\sim C136-C128 \\sim
C226-C136 \\sim C250-C224 ~
 C250-C174 \\sim C174-C146 \\sim C290-C164 \\sim C290-C216 \\sim C216-C156
\\sim C192-C14 \\sim C192-C1
 \\sim C26-C1 \\sim C70-C178 \\sim C300-C178 \\sim C300-C108
 with sigma of 0.02
 C287-C269 \\sim C69-C255 \\sim C41-C261 \\sim C35-C135 \\sim C239-C237 \\sim
C147-C141 \\sim C337-
 C129 \\sim C345-C301 \\sim C21-C159 \\sim C89-C177 \\sim C81-C77 \\sim
C37-C331 \\sim C361-C342 \\sim C27-
 C123 \\sim C282-C264 \\sim C95-C212 \\sim C328-C243 \\sim C352-C310 \\sim
C330-C241 \\sim C349-C173 ~
 C358-C167 \\sim C79-C175 \\sim C356-C219 \\sim C231-C199
 with sigma of 0.02
4. Rigid bond restraints
 C261, C41
 with sigma for 1-2 distances of 0.001 and sigma for 1-3 distances of 0.001
 C141, C147
 with sigma for 1-2 distances of 0.001 and sigma for 1-3 distances of 0.001
5. Uiso/Uaniso restraints and constraints
All non-hydrogen atoms have similar U: within -2A with sigma of 0.01 and sigma
for terminal atoms of 0.02 within -2A
6.a Riding coordinates:
 C231(H23A,H23B,H23C), C358(H35F,H35G,H35H), C147(H14C,H14D,H14E), C237(H23F,
 H23G,H23H), C159(H15A,H15B,H15C), C337(H33F,H33G,H33H)
6.b Secondary CH2 refined with riding coordinates:
 C212(H21A,H21B), C264(H26A,H26B), C310(H31A,H31B), C328(H32A,H32B), C330(H33A,
 H33B), C342(H34A,H34B), C356(H35A,H35B), C27(H27A,H27B), C199(H19A,H19B),
 C135(H13A,H13B), C141(H14A,H14B), C261(H26C,H26D), C129(H12A,H12B), C69(H69A,
 H69B), C287(H28D,H28E), C239(H23D,H23E), C77(H77A,H77B), C37(H37A,H37B),
 C21(H21F,H21G), C345(H34C,H34D), C177(H17A,H17B), C167(H16A,H16B), C173(H17C,
 H17D), C79(H79A,H79B)
6.c Aromatic/amide H refined with riding coordinates:
 C240(H240), C104(H104), C204(H204), C210(H210), C1(H1), C234(H234),
 C130(H130), C286(H286), C334(H334), C120(H120), C20(H20), C48(H48), C116(H116),
  C122(H122), C268(H268), C306(H306), C318(H318), C228(H228), C74(H74),
 C78(H78), C200(H200), C216(H216), C174(H174), C124(H124), C56(H56), C202(H202),
  C192(H192), C136(H136), C128(H128), C178(H178), C152(H152), C162(H162),
 C184(H184), C260(H260), C254(H254), C290(H290), C252(H252), C324(H324),
 C300(H300), C274(H274), C250(H250), C248(H248), C296(H296), C189(H189),
 C217(H217), C205(H205), C109(H109), C53(H53), C3(H3), C227(H227), C7(H7),
 C51(H51), C115(H115), C207(H207), C245(H245), C63(H63), C265(H265), C259(H259)
6.d Fitted hexagon refined as free rotating group:
 N86(C240,C104,C16,C204,C210), N36(C234,C130,C238,C286,C334), C46(C120,C20,C48,
 C116,C122), N76(C268,C306,C222,C318,C228), C148(C74,C232,C78,C230,C200),
 C220(C124,C144,C56,C42,C202), C154(C152,C162,C184,C260,C254), C49(C189,C217,
 C205,C109,C53), C185(C227,C7,C51,C115,C207), N61(C245,C63,C9,C265,C259)
6.e Idealised Me refined as rotating group:
 C282(H28A,H28B,H28C), C361(H36A,H36B,H36C), C219(H21C,H21D,H21E), C95(H95A,
 H95B,H95C), C352(H35C,H35D,H35E), C243(H24A,H24B,H24C), C241(H24D,H24E,H24F),
 C123(H12C,H12D,H12E), C255(H25A,H25B,H25C), C269(H26E,H26F,H26G), C35(H35I,
 H35J,H35K), C41(H41A,H41B,H41C), C331(H33C,H33D,H33E), C81(H81A,H81B,H81C),
 C301(H30A,H30B,H30C), C349(H34E,H34F,H34G), C175(H17E,H17F,H17G), C89(H89A,
 H89B,H89C)
;
_smtbx_masks_special_details
;
A solvent mask was calculated and 4622 electrons were 
found in a volume of 16109\%A^3^ in 1 void per unit cell. 
This is consistent with the presence of 
16[C2H3N], 5[C6H14O] per Asymmetric Unit 
which account for 5136 electrons 
per unit cell.
;
_shelx_res_file
;
TITL 1_a.res in C2/c
REM Old TITL 1 in C2/c
REM SHELXT solution in C2/c
REM R1 0.442, Rweak 0.047, Alpha 0.112, Orientation as input
REM Formula found by SHELXT: C113 N29 O16 P6 Pt35
CELL 0.71073 31.5775 32.0604 39.7805 90 93.216 90
ZERR 8 0.0035 0.0035 0.0038 0 0.007 0
LATT 7
SYMM -X,+Y,0.5-Z
SFAC C H N O P Pt
UNIT 1680 2368 224 104 64 32
DFIX 1.52 C358 C167
DFIX 1.45 C239 C237
DFIX 1.45 C147 C141
DFIX 1.45 C337 C129
DFIX 1.45 C352 C310
DFIX 1.45 C41 C261
DFIX 1.45 C89 C177
DFIX 1.45 C37 C331
DFIX 1.5 C49 C270
DFIX 1.5 C144 C201
DFIX 2.1 H17b H81c
DFIX 2.1 H34d H89b
DFIX 1.48 C261 C41
DFIX 1.93 P94 C261
DFIX 4.1 C41 C141
DFIX 2.1 H25c H41a
DFIX 2.1 H13a H41b
DFIX 2.1 H25b H41a
DFIX 1.47 0.01 C174 C146
SADI C9 C198 C308 C222 C84 C16 C8 C238 C46 C38 C160 C154 C49 C270 C185 C180
SADI C270 C132 C348 C270 C308 C194 C346 C308 C226 C198 C198 C168 C180 C121 =
 C280 C180 C8 C224 C8 C108 C84 C70 C84 C26 C160 C14 C160 C156 C38 C164 C38 C146
SADI C324 C274 C274 C194 C348 C324 C252 C132 C252 C248 C280 C248 C296 C121 =
 C3 C296 C3 C168 C346 C128 C136 C128 C226 C136 C250 C224 C250 C174 C174 C146 =
 C290 C164 C290 C216 C216 C156 C192 C14 C192 C1 C26 C1 C70 C178 C300 C178 =
 C300 C108
SADI C287 C269 C69 C255 C41 C261 C35 C135 C239 C237 C147 C141 C337 C129 =
 C345 C301 C21 C159 C89 C177 C81 C77 C37 C331 C361 C342 C27 C123 C282 C264 =
 C95 C212 C328 C243 C352 C310 C330 C241 C349 C173 C358 C167 C79 C175 C356 =
 C219 C231 C199
DANG 3.208 P94 C41
DELU 0.001 0.001 C261 C41
DELU 0.001 0.001 C141 C147
SIMU 0.01 0.02 -2

L.S. 3 0 592
PLAN  153
SIZE 0.1 0.12 0.13
TEMP -80.15
CONF
FREE C207 C51
MORE -1
ABIN
BOND $H
fmap 2 53
ACTA
SHEL 999 0.85
OMIT 2 6 5
OMIT -8 4 15
OMIT -3 5 16
OMIT -3 11 6
OMIT 4 8 3
OMIT 0 2 15
OMIT -3 1 7
OMIT 1 1 11
OMIT -5 3 7
OMIT 9 13 6
OMIT 14 2 0
OMIT -15 11 7
OMIT -5 3 15
OMIT 0 8 13
OMIT -9 9 14
OMIT -2 2 3
OMIT 1 1 2
OMIT 0 6 14
OMIT -7 3 2
OMIT 6 2 3
OMIT -1 3 2
OMIT -1 1 6
OMIT -1 7 7
OMIT 0 2 0
OMIT 3 7 6
OMIT 4 12 15
OMIT 0 8 0
OMIT 1 1 3
OMIT 2 2 0
OMIT -6 2 1
OMIT 3 1 4
OMIT 0 4 1
OMIT 6 2 0
OMIT 4 2 2
OMIT 1 3 7
OMIT 6 0 4
OMIT 4 2 3
OMIT 1 9 10
OMIT 2 4 1
OMIT -9 3 7
OMIT -3 1 2
OMIT -2 4 9
OMIT 3 9 8
OMIT 6 6 3
OMIT 2 4 16
OMIT 2 6 0
OMIT 1 5 3
OMIT -6 2 12
OMIT 5 5 16
OMIT -6 4 5
OMIT -9 3 8
OMIT 1 9 16
OMIT -11 3 11
OMIT -4 8 2
OMIT 1 3 20
OMIT -1 3 7
OMIT 1 1 15
OMIT 2 0 2
OMIT -7 11 1
OMIT 8 6 10
OMIT 12 4 3
OMIT 3 9 6
OMIT -1 1 11
OMIT -11 9 8
OMIT -1 1 12
OMIT 2 10 2
OMIT 9 9 0
OMIT -3 5 18
OMIT -15 5 12
OMIT -10 2 2
OMIT -6 4 7
OMIT 3 5 8
OMIT -6 10 4
OMIT -4 10 5
OMIT 6 0 2
OMIT -10 6 1
OMIT -7 5 21
OMIT -4 10 3
OMIT -5 7 8
OMIT 1 13 8
OMIT -5 7 17
OMIT -5 13 10
OMIT -7 1 6
OMIT 1 1 27
OMIT -1 11 22
OMIT 6 4 3
OMIT -2 10 10
OMIT -17 11 11
OMIT -11 1 16
OMIT 2 2 14
OMIT 2 4 19
OMIT 9 11 8
OMIT 5 3 4
OMIT 6 8 1
OMIT -9 7 3
OMIT -6 12 11
OMIT 5 9 0
OMIT -12 8 2
OMIT -1 7 2
OMIT 0 4 10
OMIT 0 8 4
OMIT 3 5 2
REM <olex2.extras>
REM <HklSrc "%.\\539.hkl">
REM </olex2.extras>

WGHT    0.120000  300.000000
BASF   0.46018
FVAR       1.33371
PART 1
PT32  6    0.369418    0.362928    0.269529    11.00000    0.06756    0.12940 =
         0.04743   -0.00059    0.00196   -0.00342
PT58  6    0.584845    0.242730    0.551405    11.00000    0.06977    0.18849 =
         0.08677    0.04678   -0.00850    0.01076
PT28  6    0.631428    0.520913    0.483446    11.00000    0.12801    0.11679 =
         0.07864   -0.02605   -0.00167   -0.01629
PT90  6    0.525620    0.139629    0.368439    11.00000    0.17519    0.10097 =
         0.12457    0.01192    0.00002   -0.00748
PART 0
P24   5    0.404198    0.376857    0.222794    11.00000    0.06463    0.12503 =
         0.05017    0.00551    0.00694    0.00094
P66   5    0.303010    0.368515    0.248112    11.00000    0.06770    0.14576 =
         0.04988    0.00367   -0.00161   -0.00242
P30   5    0.684282    0.567168    0.485073    11.00000    0.10342    0.11284 =
         0.10653   -0.03831    0.01708   -0.01825
P92   5    0.586316    0.558754    0.514724    11.00000    0.09226    0.15015 =
         0.10162   -0.04671    0.00446   -0.01712
P94   5    0.655834    0.248273    0.550052    11.00000    0.06039    0.26510 =
         0.11009    0.07951   -0.00777    0.00546
P52   5    0.584086    0.202343    0.597371    11.00000    0.08958    0.23747 =
         0.10682    0.08933   -0.00231    0.01921
P60   5    0.457299    0.125599    0.374835    11.00000    0.16623    0.08962 =
         0.21756    0.00671   -0.00985   -0.01151
P88   5    0.546145    0.074169    0.362013    11.00000    0.22420    0.09528 =
         0.17846    0.02514    0.03499    0.01517
O82   4    0.435013    0.400321    0.325459    11.00000    0.07932    0.08907 =
         0.07940   -0.00765   -0.01860    0.01310
O106  4    0.427272    0.344906    0.291149    11.00000    0.05900    0.10118 =
         0.04902   -0.00508    0.00143   -0.00213
O96   4    0.576466    0.280747    0.508059    11.00000    0.05709    0.13767 =
         0.07131    0.01748   -0.00415   -0.00184
N68   3    0.339987    0.292690    0.472434    11.00000    0.05396    0.10095 =
         0.04737    0.00092    0.00339   -0.00079
AFIX  66
N86   3    0.349885    0.349007    0.317159    11.00000    0.06255    0.10415 =
         0.04904    0.00126   -0.00326   -0.00688
C240  1    0.339594    0.380678    0.339126    11.00000    0.06438    0.10232 =
         0.05911   -0.00309    0.00004    0.00370
AFIX  43
H240  2    0.340029    0.408932    0.331958    11.00000   -1.20000
AFIX  65
C104  1    0.328667    0.371008    0.371582    11.00000    0.06464    0.10663 =
         0.05112   -0.01044   -0.00159   -0.00005
AFIX  43
H104  2    0.321634    0.392654    0.386595    11.00000   -1.20000
AFIX  65
C16   1    0.328031    0.329668    0.382070    11.00000    0.06033    0.10031 =
         0.04739   -0.00323    0.00381    0.00199
C204  1    0.338321    0.297997    0.360104    11.00000    0.06822    0.10546 =
         0.05104   -0.00220   -0.00325   -0.00341
AFIX  43
H204  2    0.337886    0.269743    0.367272    11.00000   -1.20000
AFIX  65
C210  1    0.349248    0.307666    0.327648    11.00000    0.06543    0.10343 =
         0.05290   -0.00669    0.00171   -0.00308
AFIX  43
H210  2    0.356281    0.286020    0.312634    11.00000   -1.20000
AFIX   0
N40   3    0.232483    0.308367    0.522816    11.00000    0.06402    0.10789 =
         0.05252    0.00235    0.01578   -0.00136
N98   3    0.318255    0.278013    0.541824    11.00000    0.06929    0.12246 =
         0.04283   -0.00021   -0.00327    0.00750
N100  3    0.253830    0.322603    0.454160    11.00000    0.05583    0.11369 =
         0.04774   -0.00412    0.00469   -0.00172
O12   4    0.566280    0.480012    0.429006    11.00000    0.14701    0.09553 =
         0.08719    0.00073   -0.01646    0.00209
C84   1    0.315324    0.321321    0.417401    11.00000    0.06038    0.09823 =
         0.04108    0.00259    0.00507    0.00162
C1    1    0.243398    0.352248    0.402489    11.00000    0.06189    0.10798 =
         0.04761   -0.00053   -0.00444    0.00098
AFIX  43
H1    2    0.246459    0.360480    0.379813    11.00000   -1.20000
AFIX   0
C70   1    0.345590    0.302350    0.439314    11.00000    0.05586    0.10098 =
         0.04430    0.00033    0.00339    0.00146
O64   4    0.590567    0.472738    0.482714    11.00000    0.11302    0.11205 =
         0.06934   -0.02588   -0.02434   -0.01958
O22   4    0.578994    0.337452    0.540708    11.00000    0.13498    0.14451 =
         0.07022    0.00866   -0.03923   -0.02901
C108  1    0.378606    0.279951    0.485358    11.00000    0.06050    0.10894 =
         0.05624    0.00036   -0.00108    0.00327
O34   4    0.509257    0.214394    0.319612    11.00000    0.13105    0.10147 =
         0.07781   -0.01328   -0.01611    0.00576
C118  1    0.573242    0.320639    0.512676    11.00000    0.06368    0.12776 =
         0.06468    0.01152   -0.01012   -0.00244
O10   4    0.513974    0.203700    0.375658    11.00000    0.13257    0.14824 =
         0.08508    0.01290   -0.01083    0.00087
N54   3    0.781459    0.380298    0.353821    11.00000    0.11111    0.08651 =
         0.09163   -0.00305   -0.03767   -0.00534
AFIX  66
N36   3    0.518773    0.245174    0.546844    11.00000    0.07149    0.14747 =
         0.07599    0.01841   -0.00474    0.02539
C234  1    0.499889    0.281572    0.557685    11.00000    0.07320    0.14325 =
         0.06964    0.01797   -0.01639    0.01401
AFIX  43
H234  2    0.515912    0.300871    0.571326    11.00000   -1.20000
AFIX  65
C130  1    0.457562    0.289731    0.548566    11.00000    0.06494    0.13359 =
         0.07316    0.01572   -0.01464    0.01712
AFIX  43
H130  2    0.444656    0.314607    0.555975    11.00000   -1.20000
AFIX  65
C238  1    0.434119    0.261494    0.528607    11.00000    0.06352    0.12701 =
         0.06278    0.01332   -0.00612    0.01021
C286  1    0.453002    0.225096    0.517766    11.00000    0.06159    0.13646 =
         0.08059    0.01734   -0.00069    0.01127
AFIX  43
H286  2    0.436979    0.205797    0.504125    11.00000   -1.20000
AFIX  65
C334  1    0.495329    0.216936    0.526884    11.00000    0.07068    0.13944 =
         0.08492    0.02008   -0.00021    0.01853
AFIX  43
H334  2    0.508235    0.192060    0.519475    11.00000   -1.20000
AFIX   0
C8    1    0.388304    0.269782    0.519157    11.00000    0.06146    0.12443 =
         0.05753    0.00538   -0.00461    0.01806
C14   1    0.214096    0.337855    0.452133    11.00000    0.05643    0.11364 =
         0.05813    0.00098    0.00785    0.00132
C38   1    0.258569    0.285931    0.579801    11.00000    0.07883    0.12112 =
         0.04876   -0.00191    0.01045   -0.01085
C26   1    0.274505    0.332797    0.424174    11.00000    0.06042    0.10444 =
         0.04624   -0.00374    0.00095   -0.00267
C4    1    0.443878    0.365759    0.318076    11.00000    0.06345    0.10223 =
         0.05247   -0.00863    0.00952    0.00063
N44   3    0.720723    0.316500    0.371297    11.00000    0.11876    0.09236 =
         0.06481   -0.00318   -0.02319    0.01613
AFIX  66
C46   1    0.248437    0.286245    0.616406    11.00000    0.09450    0.13017 =
         0.05123   -0.00598    0.01272   -0.02531
C120  1    0.230086    0.321383    0.629990    11.00000    0.11042    0.13640 =
         0.06215   -0.00657    0.01494   -0.01406
AFIX  43
H120  2    0.223782    0.345010    0.616191    11.00000   -1.20000
AFIX  65
C20   1    0.220958    0.321952    0.663765    11.00000    0.13225    0.14137 =
         0.07123   -0.01597    0.02207   -0.01231
AFIX  43
H20   2    0.208416    0.345968    0.673050    11.00000   -1.20000
AFIX  65
C48   1    0.230182    0.287382    0.683956    11.00000    0.13534    0.14122 =
         0.06545   -0.01186    0.02119   -0.02260
AFIX  43
H48   2    0.223944    0.287771    0.707040    11.00000   -1.20000
AFIX  65
C116  1    0.248533    0.252244    0.670372    11.00000    0.12550    0.13030 =
         0.06127   -0.00778    0.00938   -0.03356
AFIX  43
H116  2    0.254837    0.228617    0.684172    11.00000   -1.20000
AFIX  65
C122  1    0.257661    0.251674    0.636597    11.00000    0.10957    0.12923 =
         0.05728    0.00420    0.00938   -0.03365
AFIX  43
H122  2    0.270204    0.227659    0.627313    11.00000   -1.20000
AFIX  66
N76   3    0.663314    0.479871    0.453712    11.00000    0.12444    0.10150 =
         0.06822   -0.01786   -0.00091    0.00323
C268  1    0.683808    0.445314    0.468095    11.00000    0.12643    0.10374 =
         0.07443   -0.00941   -0.01205    0.00659
AFIX  43
H268  2    0.685066    0.441657    0.491828    11.00000   -1.20000
AFIX  65
C306  1    0.702460    0.416107    0.447752    11.00000    0.13441    0.10583 =
         0.07732   -0.00260   -0.01514    0.01209
AFIX  43
H306  2    0.716467    0.392489    0.457582    11.00000   -1.20000
AFIX  65
C222  1    0.700619    0.421457    0.413026    11.00000    0.11519    0.09302 =
         0.08225   -0.01071   -0.01843    0.00922
C318  1    0.680126    0.456013    0.398643    11.00000    0.12173    0.09782 =
         0.08798   -0.00887   -0.01491    0.00718
AFIX  43
H318  2    0.678868    0.459670    0.374909    11.00000   -1.20000
AFIX  65
C228  1    0.661473    0.485221    0.418985    11.00000    0.12501    0.10275 =
         0.08122   -0.01163   -0.00161    0.01238
AFIX  43
H228  2    0.647467    0.508839    0.409154    11.00000   -1.20000
AFIX  66
C148  1    0.535877    0.351515    0.424287    11.00000    0.06657    0.10317 =
         0.05847   -0.00131   -0.00679   -0.00235
C74   1    0.544547    0.394016    0.425327    11.00000    0.07680    0.10033 =
         0.05580   -0.00640   -0.00874    0.00677
AFIX  43
H74   2    0.538658    0.410745    0.405914    11.00000   -1.20000
AFIX  65
C232  1    0.561833    0.412041    0.454771    11.00000    0.07641    0.10564 =
         0.06238   -0.01289   -0.01348   -0.00023
C78   1    0.570450    0.387564    0.483175    11.00000    0.06741    0.10699 =
         0.05494   -0.01024   -0.01313   -0.00193
AFIX  43
H78   2    0.582264    0.399884    0.503298    11.00000   -1.20000
AFIX  65
C230  1    0.561781    0.345063    0.482135    11.00000    0.05825    0.11528 =
         0.05699    0.00029   -0.00971   -0.00585
C200  1    0.544495    0.327038    0.452692    11.00000    0.05793    0.10457 =
         0.05714   -0.00113   -0.00337   -0.00278
AFIX  43
H200  2    0.538570    0.297990    0.451981    11.00000   -1.20000
AFIX   0
C216  1    0.163046    0.314591    0.533921    11.00000    0.07173    0.11197 =
         0.07184   -0.00054    0.01571   -0.00140
AFIX  43
H216  2    0.133450    0.319542    0.530547    11.00000   -1.20000
AFIX   0
C146  1    0.301228    0.279408    0.572690    11.00000    0.07141    0.12777 =
         0.04788    0.00690    0.00039    0.00040
C174  1    0.335219    0.270057    0.597837    11.00000    0.08002    0.13856 =
         0.05337    0.00973   -0.00749    0.00247
AFIX  43
H174  2    0.333106    0.267271    0.621459    11.00000   -1.20000
AFIX   0
C224  1    0.360317    0.271422    0.545470    11.00000    0.06754    0.12978 =
         0.05006    0.01038   -0.00383    0.00400
C212  1    0.290392    0.323725    0.220262    11.00000    0.08359    0.14587 =
         0.05829   -0.00846   -0.01012   -0.01151
AFIX  23
H21A  2    0.261493    0.327206    0.209654    11.00000   -1.20000
H21B  2    0.310603    0.322940    0.202126    11.00000   -1.20000
AFIX   0
C164  1    0.227340    0.298434    0.556152    11.00000    0.07443    0.11228 =
         0.05655   -0.00940    0.01837   -0.00673
AFIX  66
C220  1    0.513833    0.331337    0.392785    11.00000    0.06107    0.10204 =
         0.05409    0.00246   -0.00206   -0.00431
C124  1    0.519464    0.289165    0.386266    11.00000    0.07185    0.09237 =
         0.06100   -0.00081   -0.00399   -0.01221
AFIX  43
H124  2    0.535562    0.272319    0.401923    11.00000   -1.20000
AFIX  65
C144  1    0.501542    0.271640    0.356838    11.00000    0.08165    0.09693 =
         0.06252   -0.00185   -0.00141   -0.00501
C56   1    0.477988    0.296287    0.333928    11.00000    0.07388    0.09759 =
         0.05081   -0.01301    0.00145   -0.00781
AFIX  43
H56   2    0.465739    0.284309    0.313816    11.00000   -1.20000
AFIX  65
C42   1    0.472357    0.338459    0.340447    11.00000    0.06002    0.09222 =
         0.04375   -0.00866    0.00417   -0.00326
C202  1    0.490279    0.355984    0.369875    11.00000    0.05662    0.09347 =
         0.05142   -0.00357   -0.00233   -0.00095
AFIX  43
H202  2    0.486430    0.384807    0.374330    11.00000   -1.20000
AFIX   0
C156  1    0.193684    0.319942    0.510183    11.00000    0.06875    0.10877 =
         0.05859    0.00153    0.01476    0.00471
C194  1    0.758770    0.402958    0.375698    11.00000    0.11297    0.09082 =
         0.08914   -0.00544   -0.02487    0.00060
C226  1    0.689302    0.285814    0.374099    11.00000    0.12524    0.09620 =
         0.07054   -0.00769   -0.02755    0.01107
N126  3    0.820848    0.317937    0.313256    11.00000    0.10136    0.11945 =
         0.09899   -0.01279   -0.03385    0.01482
C160  1    0.184267    0.333813    0.477309    11.00000    0.06583    0.11957 =
         0.07165    0.00384    0.01247    0.00398
C198  1    0.693335    0.245603    0.360634    11.00000    0.13541    0.09566 =
         0.07991   -0.00500   -0.02320    0.01304
C168  1    0.727472    0.231931    0.343213    11.00000    0.12741    0.09469 =
         0.10199   -0.01170   -0.03361    0.01758
C180  1    0.818634    0.244174    0.296699    11.00000    0.12216    0.12283 =
         0.13117   -0.03131   -0.02843    0.02451
C192  1    0.207450    0.356976    0.420835    11.00000    0.05969    0.11758 =
         0.06201    0.00323   -0.00353    0.00447
AFIX  43
H192  2    0.182257    0.371074    0.413191    11.00000   -1.20000
AFIX   0
C136  1    0.654603    0.299643    0.390750    11.00000    0.12791    0.10073 =
         0.07214   -0.01180   -0.01970    0.00370
AFIX  43
H136  2    0.629315    0.284645    0.394371    11.00000   -1.20000
AFIX   0
C128  1    0.664519    0.340028    0.401043    11.00000    0.12312    0.09795 =
         0.06921   -0.00537   -0.01492    0.01095
AFIX  43
H128  2    0.647805    0.357668    0.414181    11.00000   -1.20000
AFIX   0
C178  1    0.388203    0.293095    0.430734    11.00000    0.06451    0.11152 =
         0.05246    0.00771    0.00447    0.01795
AFIX  43
H178  2    0.399507    0.295371    0.409177    11.00000   -1.20000
AFIX   0
C132  1    0.845754    0.352002    0.305314    11.00000    0.10136    0.12065 =
         0.09773    0.00090   -0.03673    0.00607
AFIX  66
C154  1    0.141771    0.353004    0.470309    11.00000    0.07006    0.14730 =
         0.09489    0.01163    0.01452    0.00625
C152  1    0.117209    0.339565    0.442296    11.00000    0.08124    0.16203 =
         0.11553    0.02201    0.00813    0.00553
AFIX  43
H152  2    0.127390    0.318135    0.428364    11.00000   -1.20000
AFIX  65
C162  1    0.077751    0.357480    0.434666    11.00000    0.08430    0.16997 =
         0.13167    0.02909    0.01104    0.01056
AFIX  43
H162  2    0.060965    0.348295    0.415519    11.00000   -1.20000
AFIX  65
C184  1    0.062854    0.388835    0.455049    11.00000    0.08791    0.17700 =
         0.14097    0.02708    0.02348    0.01847
AFIX  43
H184  2    0.035887    0.401079    0.449834    11.00000   -1.20000
AFIX  65
C260  1    0.087416    0.402274    0.483063    11.00000    0.08541    0.17004 =
         0.13022    0.01635    0.03074    0.02259
AFIX  43
H260  2    0.077234    0.423703    0.496994    11.00000   -1.20000
AFIX  65
C254  1    0.126874    0.384359    0.490693    11.00000    0.07853    0.16103 =
         0.11549    0.01038    0.02480    0.00800
AFIX  43
H254  2    0.143660    0.393544    0.509840    11.00000   -1.20000
AFIX   0
C282  1    0.409251    0.402344    0.156187    11.00000    0.08381    0.14495 =
         0.05726    0.00832    0.01168    0.01269
AFIX 137
H28A  2    0.414591    0.375588    0.145289    11.00000   -1.50000
H28B  2    0.435988    0.413544    0.166118    11.00000   -1.50000
H28C  2    0.397115    0.422027    0.139438    11.00000   -1.50000
AFIX   0
C270  1    0.841977    0.392168    0.319090    11.00000    0.12175    0.11152 =
         0.10547    0.00686   -0.04492   -0.00353
C308  1    0.721703    0.389913    0.390653    11.00000    0.11154    0.09446 =
         0.08101   -0.00591   -0.01893    0.00319
C280  1    0.836730    0.284067    0.295861    11.00000    0.10100    0.12694 =
         0.10953   -0.01644   -0.03069    0.01550
C346  1    0.704169    0.349945    0.388290    11.00000    0.11713    0.09087 =
         0.06798   -0.00109   -0.01797    0.00759
C290  1    0.184241    0.300636    0.563396    11.00000    0.08078    0.11479 =
         0.06906   -0.00507    0.01792   -0.00353
AFIX  43
H290  2    0.172179    0.293984    0.584076    11.00000   -1.20000
AFIX   0
C264  1    0.378267    0.395930    0.183714    11.00000    0.08060    0.12730 =
         0.04718    0.01118   -0.00082   -0.00749
AFIX  23
H26A  2    0.356228    0.375706    0.175762    11.00000   -1.20000
H26B  2    0.364010    0.422721    0.188124    11.00000   -1.20000
AFIX   0
C348  1    0.811553    0.405350    0.340810    11.00000    0.11903    0.09922 =
         0.10139    0.00173   -0.04027   -0.00382
C252  1    0.878662    0.340718    0.283882    11.00000    0.09841    0.12863 =
         0.09611   -0.00452   -0.03882    0.00503
AFIX  43
H252  2    0.900338    0.357901    0.275714    11.00000   -1.20000
AFIX   0
N244  3    0.763457    0.255934    0.332965    11.00000    0.11526    0.09119 =
         0.09934   -0.02017   -0.02933    0.02364
C324  1    0.807672    0.444806    0.355361    11.00000    0.12390    0.10248 =
         0.12017    0.00143   -0.02423    0.00102
AFIX  43
H324  2    0.823898    0.468757    0.350398    11.00000   -1.20000
AFIX   0
C300  1    0.409046    0.280391    0.459859    11.00000    0.06438    0.11839 =
         0.06343   -0.00674    0.00442    0.01339
AFIX  43
H300  2    0.438204    0.273186    0.462754    11.00000   -1.20000
AFIX   0
C322  1    0.571499    0.458213    0.453904    11.00000    0.09548    0.11132 =
         0.06835   -0.01706   -0.01468   -0.00428
C310  1    0.286733    0.414479    0.225081    11.00000    0.08798    0.14813 =
         0.07509   -0.00275    0.00199    0.01960
AFIX  23
H31A  2    0.303116    0.416628    0.204650    11.00000   -1.20000
H31B  2    0.256351    0.411975    0.217774    11.00000   -1.20000
AFIX   0
C274  1    0.776075    0.443071    0.378308    11.00000    0.11601    0.09471 =
         0.10708    0.00047   -0.01252    0.00393
AFIX  43
H274  2    0.767883    0.464779    0.392844    11.00000   -1.20000
AFIX   0
C250  1    0.370828    0.266162    0.580047    11.00000    0.07355    0.13913 =
         0.05474    0.00242   -0.00332    0.00021
AFIX  43
H250  2    0.398522    0.260718    0.589607    11.00000   -1.20000
AFIX   0
C328  1    0.433695    0.330953    0.211841    11.00000    0.07146    0.14679 =
         0.06664   -0.00126    0.01107    0.01561
AFIX  23
H32A  2    0.455167    0.339460    0.195982    11.00000   -1.20000
H32B  2    0.449199    0.320617    0.232506    11.00000   -1.20000
AFIX   0
C248  1    0.871354    0.298383    0.277805    11.00000    0.09647    0.12966 =
         0.10473   -0.01290   -0.02506    0.00978
AFIX  43
H248  2    0.887361    0.281497    0.263546    11.00000   -1.20000
AFIX   0
C296  1    0.769989    0.189193    0.313961    11.00000    0.12326    0.10428 =
         0.12695   -0.02648   -0.02823    0.02123
AFIX  43
H296  2    0.781314    0.165571    0.303181    11.00000   -1.20000
AFIX   0
C330  1    0.712813    0.574123    0.528435    11.00000    0.11386    0.13122 =
         0.11193   -0.04368    0.00774   -0.00883
AFIX  23
H33A  2    0.738608    0.591356    0.526661    11.00000   -1.20000
H33B  2    0.693965    0.588047    0.544035    11.00000   -1.20000
AFIX   0
C342  1    0.264852    0.364144    0.281052    11.00000    0.05730    0.16360 =
         0.07298    0.00920   -0.00096   -0.01628
AFIX  23
H34A  2    0.272487    0.339576    0.295201    11.00000   -1.20000
H34B  2    0.267539    0.389148    0.295619    11.00000   -1.20000
AFIX   0
C201  1    0.509685    0.226347    0.348972    11.00000    0.11436    0.11616 =
         0.07875    0.00761   -0.00854   -0.00613
AFIX  66
C49   1    0.871915    0.424973    0.305981    11.00000    0.16839    0.13583 =
         0.14086    0.02658   -0.05193   -0.02044
C189  1    0.908247    0.436877    0.324912    11.00000    0.18422    0.14927 =
         0.16531    0.03606   -0.04458   -0.03370
AFIX  43
H189  2    0.914746    0.424478    0.346270    11.00000   -1.20000
AFIX  65
C217  1    0.935069    0.466924    0.312592    11.00000    0.19551    0.16152 =
         0.17555    0.04147   -0.04625   -0.03822
AFIX  43
H217  2    0.959901    0.475059    0.325530    11.00000   -1.20000
AFIX  65
C205  1    0.925560    0.485066    0.281341    11.00000    0.20313    0.16677 =
         0.17750    0.04580   -0.04299   -0.04377
AFIX  43
H205  2    0.943892    0.505601    0.272921    11.00000   -1.20000
AFIX  65
C109  1    0.889228    0.473163    0.262410    11.00000    0.20074    0.17055 =
         0.17503    0.04887   -0.04564   -0.03612
AFIX  43
H109  2    0.882728    0.485562    0.241052    11.00000   -1.20000
AFIX  65
C53   1    0.862405    0.443116    0.274729    11.00000    0.19451    0.15657 =
         0.16483    0.04157   -0.04770   -0.03111
AFIX  43
H53   2    0.837573    0.434981    0.261791    11.00000   -1.20000
AFIX   0
C361  1    0.219431    0.359971    0.268374    11.00000    0.07836    0.19135 =
         0.08311    0.00873    0.00906   -0.00233
AFIX 137
H36A  2    0.213600    0.379474    0.249717    11.00000   -1.50000
H36B  2    0.200854    0.366333    0.286621    11.00000   -1.50000
H36C  2    0.214152    0.331379    0.260499    11.00000   -1.50000
AFIX   0
C219  1    0.575691    0.602367    0.572985    11.00000    0.08310    0.15076 =
         0.11636   -0.06470    0.01146   -0.00446
AFIX 137
H21C  2    0.556447    0.621603    0.560555    11.00000   -1.50000
H21D  2    0.589804    0.616984    0.592134    11.00000   -1.50000
H21E  2    0.559473    0.578766    0.581202    11.00000   -1.50000
AFIX   0
C356  1    0.608586    0.586569    0.549973    11.00000    0.08715    0.15534 =
         0.10118   -0.04510    0.00396   -0.00946
AFIX  23
H35A  2    0.628597    0.568100    0.562957    11.00000   -1.20000
H35B  2    0.624928    0.610567    0.541895    11.00000   -1.20000
AFIX   0
C27   1    0.442982    0.414380    0.234587    11.00000    0.07861    0.13223 =
         0.06398    0.01059    0.01190    0.00105
AFIX  23
H27A  2    0.461657    0.402841    0.253133    11.00000   -1.20000
H27B  2    0.460690    0.419443    0.215232    11.00000   -1.20000
AFIX   0
C95   1    0.292750    0.283286    0.239387    11.00000    0.12537    0.13165 =
         0.08945    0.00322   -0.02350   -0.00775
AFIX 137
H95A  2    0.278625    0.261302    0.225810    11.00000   -1.50000
H95B  2    0.278629    0.286462    0.260555    11.00000   -1.50000
H95C  2    0.322533    0.275727    0.244267    11.00000   -1.50000
AFIX   0
C3    1    0.733213    0.191558    0.331573    11.00000    0.13153    0.10200 =
         0.11926   -0.01683   -0.03159    0.01695
AFIX  43
H3    2    0.714684    0.168833    0.335133    11.00000   -1.20000
AFIX  66
C185  1    0.841859    0.215364    0.274307    11.00000    0.15077    0.14057 =
         0.17038   -0.04545   -0.02464    0.03394
C227  1    0.832831    0.213779    0.239728    11.00000    0.16869    0.15001 =
         0.18492   -0.05153   -0.01779    0.03880
AFIX  43
H227  2    0.813095    0.232811    0.229343    11.00000   -1.20000
AFIX  65
C7    1    0.852679    0.184346    0.220344    11.00000    0.18328    0.15721 =
         0.19960   -0.04854   -0.01427    0.03459
AFIX  43
H7    2    0.846508    0.183262    0.196710    11.00000   -1.20000
AFIX  65
C51   1    0.881555    0.156498    0.235539    11.00000    0.18441    0.15537 =
         0.20631   -0.04815   -0.01073    0.04001
AFIX  43
H51   2    0.895120    0.136382    0.222290    11.00000   -1.20000
AFIX  65
C115  1    0.890583    0.158083    0.270118    11.00000    0.17905    0.14650 =
         0.20115   -0.04252   -0.01673    0.04392
AFIX  43
H115  2    0.910319    0.139051    0.280503    11.00000   -1.20000
AFIX  65
C207  1    0.870736    0.187516    0.289503    11.00000    0.16667    0.14221 =
         0.19140   -0.04467   -0.02666    0.03765
AFIX  43
H207  2    0.876906    0.188599    0.313136    11.00000   -1.20000
AFIX   0
C231  1    0.654116    0.618187    0.435146    11.00000    0.15820    0.15072 =
         0.11692   -0.00265   -0.00519   -0.00923
AFIX   3
H23A  2    0.676726    0.608447    0.421186    11.00000   -1.50000
H23B  2    0.645746    0.646537    0.428376    11.00000   -1.50000
H23C  2    0.629576    0.599547    0.432156    11.00000   -1.50000
AFIX   0
C352  1    0.293157    0.452971    0.245428    11.00000    0.13775    0.13253 =
         0.10498    0.00397   -0.00717   -0.00072
AFIX 137
H35C  2    0.287975    0.477438    0.231013    11.00000   -1.50000
H35D  2    0.322355    0.453745    0.255157    11.00000   -1.50000
H35E  2    0.273386    0.453158    0.263556    11.00000   -1.50000
AFIX   0
C358  1    0.564509    0.493474    0.557659    11.00000    0.18888    0.20685 =
         0.12710    0.00598    0.03890   -0.04139
AFIX   3
H35F  2    0.571849    0.468534    0.544949    11.00000   -1.50000
H35G  2    0.544259    0.485954    0.574439    11.00000   -1.50000
H35H  2    0.590209    0.505064    0.568999    11.00000   -1.50000
AFIX   0
C199  1    0.670012    0.618214    0.471909    11.00000    0.11010    0.12734 =
         0.11259   -0.01895    0.01068   -0.01349
AFIX  23
H19A  2    0.647533    0.628998    0.485954    11.00000   -1.20000
H19B  2    0.694933    0.636851    0.474935    11.00000   -1.20000
AFIX   0
C135  1    0.626909    0.164312    0.606705    11.00000    0.10662    0.24805 =
         0.12159    0.08110   -0.00372    0.02672
AFIX  23
H13A  2    0.654903    0.177200    0.603568    11.00000   -1.20000
H13B  2    0.626254    0.154407    0.630241    11.00000   -1.20000
AFIX   0
C141  1    0.590898    0.234420    0.636211    11.00000    0.11204    0.24769 =
         0.11652    0.08316   -0.00389    0.00968
AFIX  23
H14A  2    0.590982    0.215696    0.656004    11.00000   -1.20000
H14B  2    0.618884    0.248372    0.636482    11.00000   -1.20000
AFIX   0
C261  1    0.681832    0.272615    0.589397    11.00000    0.09579    0.29234 =
         0.12886    0.06143   -0.00596   -0.01525
AFIX  23
H26C  2    0.695580    0.298775    0.582518    11.00000   -1.20000
H26D  2    0.658886    0.280620    0.604092    11.00000   -1.20000
AFIX   0
C243  1    0.408938    0.295519    0.196428    11.00000    0.13429    0.16582 =
         0.08203   -0.01047    0.02127    0.01435
AFIX 137
H24A  2    0.398299    0.303200    0.173650    11.00000   -1.50000
H24B  2    0.384975    0.289120    0.210180    11.00000   -1.50000
H24C  2    0.427272    0.270950    0.195325    11.00000   -1.50000
AFIX   0
C241  1    0.724282    0.531747    0.540852    11.00000    0.16918    0.16123 =
         0.13226   -0.00651   -0.02959    0.00629
AFIX 137
H24D  2    0.736838    0.515880    0.522855    11.00000   -1.50000
H24E  2    0.698762    0.517410    0.547734    11.00000   -1.50000
H24F  2    0.744823    0.533958    0.560170    11.00000   -1.50000
AFIX   0
C129  1    0.529733    0.033823    0.388075    11.00000    0.23907    0.10566 =
         0.19975    0.04574    0.03687    0.02163
AFIX  23
H12A  2    0.534350    0.045060    0.411170    11.00000   -1.20000
H12B  2    0.498576    0.032703    0.383727    11.00000   -1.20000
AFIX   0
C123  1    0.425570    0.455281    0.245741    11.00000    0.12947    0.11663 =
         0.12817    0.02019   -0.02504   -0.02554
AFIX 137
H12C  2    0.407985    0.467637    0.227252    11.00000   -1.50000
H12D  2    0.449043    0.474187    0.252138    11.00000   -1.50000
H12E  2    0.408295    0.450764    0.265126    11.00000   -1.50000
AFIX   0
C121  1    0.786665    0.230381    0.315861    11.00000    0.11605    0.10757 =
         0.11706   -0.02427   -0.02879    0.02165
AFIX  66
N61   3    0.585106    0.165285    0.365581    11.00000    0.21484    0.11038 =
         0.08868   -0.00124   -0.00745    0.02515
C245  1    0.605251    0.179561    0.395351    11.00000    0.19351    0.11150 =
         0.09134   -0.00203   -0.00709    0.00555
AFIX  43
H245  2    0.594558    0.172155    0.416389    11.00000   -1.20000
AFIX  65
C63   1    0.641041    0.204671    0.394339    11.00000    0.17491    0.10916 =
         0.09088    0.00010   -0.01169    0.00915
AFIX  43
H63   2    0.654809    0.214427    0.414686    11.00000   -1.20000
AFIX  65
C9    1    0.656687    0.215506    0.363557    11.00000    0.15577    0.09707 =
         0.08707    0.00052   -0.01173    0.00776
C265  1    0.636542    0.201231    0.333787    11.00000    0.16686    0.10119 =
         0.08711    0.00201   -0.00470    0.01040
AFIX  43
H265  2    0.647236    0.208636    0.312749    11.00000   -1.20000
AFIX  65
C259  1    0.600752    0.176121    0.334798    11.00000    0.18858    0.11045 =
         0.09397   -0.00404   -0.00949    0.01473
AFIX  43
H259  2    0.586985    0.166364    0.314451    11.00000   -1.20000
AFIX   0
C69   1    0.685241    0.198405    0.540458    11.00000    0.07569    0.27127 =
         0.12839    0.07198    0.00122    0.02132
AFIX  23
H69A  2    0.678892    0.176493    0.556973    11.00000   -1.20000
H69B  2    0.676334    0.188233    0.517649    11.00000   -1.20000
AFIX   0
C287  1    0.673592    0.285590    0.519059    11.00000    0.06324    0.27343 =
         0.12288    0.07154   -0.00767   -0.00522
AFIX  23
H28D  2    0.658441    0.312273    0.521950    11.00000   -1.20000
H28E  2    0.704225    0.290942    0.523789    11.00000   -1.20000
AFIX   0
C239  1    0.532873    0.174089    0.599029    11.00000    0.09428    0.24804 =
         0.13252    0.10524    0.01033    0.02009
AFIX  23
H23D  2    0.510223    0.195021    0.601555    11.00000   -1.20000
H23E  2    0.527034    0.160136    0.577055    11.00000   -1.20000
AFIX   0
C255  1    0.731893    0.208065    0.542503    11.00000    0.09390    0.27545 =
         0.16353    0.06650    0.00936    0.03218
AFIX 137
H25A  2    0.744630    0.197921    0.522137    11.00000   -1.50000
H25B  2    0.745454    0.194285    0.562291    11.00000   -1.50000
H25C  2    0.736013    0.238286    0.544412    11.00000   -1.50000
AFIX   0
C269  1    0.666855    0.272113    0.483597    11.00000    0.06639    0.31073 =
         0.14408    0.06791    0.00360    0.01145
AFIX 137
H26E  2    0.688484    0.284792    0.470116    11.00000   -1.50000
H26F  2    0.638641    0.280956    0.474850    11.00000   -1.50000
H26G  2    0.668976    0.241664    0.482332    11.00000   -1.50000
AFIX   0
C35   1    0.619224    0.128264    0.582319    11.00000    0.13587    0.26047 =
         0.14328    0.07646    0.00705    0.05713
AFIX 137
H35I  2    0.616916    0.138964    0.559213    11.00000   -1.50000
H35J  2    0.592852    0.113994    0.587290    11.00000   -1.50000
H35K  2    0.642949    0.108585    0.584729    11.00000   -1.50000
AFIX   0
C147  1    0.557589    0.266653    0.639561    11.00000    0.14070    0.26318 =
         0.15473    0.05947   -0.00014    0.02741
AFIX   3
H14C  2    0.531949    0.256343    0.627241    11.00000   -1.50000
H14D  2    0.567119    0.292303    0.628951    11.00000   -1.50000
H14E  2    0.551359    0.272433    0.662971    11.00000   -1.50000
AFIX   0
C237  1    0.529337    0.141972    0.626214    11.00000    0.13482    0.27908 =
         0.18530    0.13335    0.02037    0.02945
AFIX   3
H23F  2    0.549847    0.120812    0.619984    11.00000   -1.50000
H23G  2    0.500867    0.129812    0.625434    11.00000   -1.50000
H23H  2    0.536847    0.152022    0.649044    11.00000   -1.50000
AFIX   0
C41   1    0.713797    0.248760    0.610445    11.00000    0.18973    0.30806 =
         0.20404    0.05778   -0.02816    0.06109
AFIX 137
H41A  2    0.738356    0.242686    0.597254    11.00000   -1.50000
H41B  2    0.701214    0.222545    0.617698    11.00000   -1.50000
H41C  2    0.722892    0.265325    0.630259    11.00000   -1.50000
AFIX   0
C77   1    0.424569    0.174247    0.362749    11.00000    0.16566    0.09474 =
         0.22817    0.01296   -0.01518   -0.00128
AFIX  23
H77A  2    0.432614    0.196531    0.379112    11.00000   -1.20000
H77B  2    0.433008    0.183765    0.340414    11.00000   -1.20000
AFIX   0
C331  1    0.462890    0.141369    0.442854    11.00000    0.16497    0.17902 =
         0.23317   -0.00833    0.05866   -0.00384
AFIX 137
H33C  2    0.482068    0.163223    0.435603    11.00000   -1.50000
H33D  2    0.477098    0.125075    0.461027    11.00000   -1.50000
H33E  2    0.437216    0.154199    0.450981    11.00000   -1.50000
AFIX   0
C37   1    0.451241    0.113588    0.414076    11.00000    0.16680    0.11007 =
         0.22753   -0.00225    0.00379   -0.01268
AFIX  23
H37A  2    0.420828    0.106855    0.415701    11.00000   -1.20000
H37B  2    0.466989    0.087239    0.418329    11.00000   -1.20000
AFIX   0
C21   1    0.601940    0.069871    0.356619    11.00000    0.24013    0.11915 =
         0.19297    0.01191    0.02752    0.02127
AFIX  23
H21F  2    0.608374    0.043564    0.344913    11.00000   -1.20000
H21G  2    0.611942    0.093573    0.343221    11.00000   -1.20000
AFIX   0
C345  1    0.526312    0.049870    0.321396    11.00000    0.23316    0.11321 =
         0.19276    0.02728    0.02171    0.00915
AFIX  23
H34C  2    0.536469    0.020715    0.320283    11.00000   -1.20000
H34D  2    0.494913    0.049523    0.320018    11.00000   -1.20000
AFIX   0
C177  1    0.428910    0.086498    0.346795    11.00000    0.19489    0.10053 =
         0.21855    0.00731   -0.01318   -0.00602
AFIX  23
H17A  2    0.443711    0.059343    0.349130    11.00000   -1.20000
H17B  2    0.399784    0.082696    0.354278    11.00000   -1.20000
AFIX   0
C81   1    0.377425    0.170279    0.361198    11.00000    0.17774    0.13034 =
         0.25374    0.00980   -0.00694    0.01317
AFIX 137
H81A  2    0.365263    0.186598    0.342190    11.00000   -1.50000
H81B  2    0.366512    0.180738    0.382184    11.00000   -1.50000
H81C  2    0.369533    0.140896    0.358201    11.00000   -1.50000
AFIX   0
C159  1    0.622793    0.070350    0.391190    11.00000    0.26192    0.14500 =
         0.23948    0.00012   -0.00057    0.05242
AFIX   3
H15A  2    0.637033    0.043620    0.395790    11.00000   -1.50000
H15B  2    0.601773    0.075220    0.407980    11.00000   -1.50000
H15C  2    0.643803    0.092880    0.392340    11.00000   -1.50000
AFIX   0
C301  1    0.542135    0.074454    0.292471    11.00000    0.26382    0.15560 =
         0.22134    0.02386    0.03118   -0.02045
AFIX 137
H30A  2    0.573044    0.077206    0.295226    11.00000   -1.50000
H30B  2    0.529148    0.102225    0.292030    11.00000   -1.50000
H30C  2    0.534530    0.059958    0.271297    11.00000   -1.50000
AFIX   0
C167  1    0.547329    0.524653    0.532017    11.00000    0.10967    0.16490 =
         0.12717   -0.02822    0.01145   -0.01910
AFIX  23
H16A  2    0.525908    0.542110    0.542604    11.00000   -1.20000
H16B  2    0.532594    0.509232    0.513236    11.00000   -1.20000
AFIX   0
C337  1    0.542841   -0.010934    0.391162    11.00000    0.28581    0.15058 =
         0.24068    0.04640    0.02453    0.02783
AFIX   3
H33F  2    0.561991   -0.016824    0.373242    11.00000   -1.50000
H33G  2    0.517691   -0.028784    0.388342    11.00000   -1.50000
H33H  2    0.557451   -0.016464    0.413092    11.00000   -1.50000
AFIX   0
C349  1    0.763890    0.581808    0.457905    11.00000    0.13553    0.16111 =
         0.16213   -0.05429    0.03089   -0.03483
AFIX 137
H34E  2    0.753386    0.610309    0.454275    11.00000   -1.50000
H34F  2    0.782470    0.574291    0.439935    11.00000   -1.50000
H34G  2    0.779852    0.580173    0.479713    11.00000   -1.50000
AFIX   0
C173  1    0.726793    0.551951    0.457583    11.00000    0.11274    0.12174 =
         0.13276   -0.02704    0.02894   -0.01774
AFIX  23
H17C  2    0.737432    0.524050    0.464584    11.00000   -1.20000
H17D  2    0.714552    0.549527    0.434203    11.00000   -1.20000
AFIX   0
C79   1    0.555112    0.601961    0.488964    11.00000    0.10595    0.16010 =
         0.12586   -0.04140   -0.00915    0.01101
AFIX  23
H79A  2    0.538926    0.619351    0.504317    11.00000   -1.20000
H79B  2    0.575267    0.620233    0.477724    11.00000   -1.20000
AFIX   0
C175  1    0.525173    0.581900    0.462998    11.00000    0.13739    0.18988 =
         0.16469   -0.03191   -0.03464    0.01181
AFIX 137
H17E  2    0.541108    0.563354    0.448741    11.00000   -1.50000
H17F  2    0.511102    0.603564    0.449042    11.00000   -1.50000
H17G  2    0.503813    0.565717    0.474303    11.00000   -1.50000
AFIX   0
C89   1    0.426486    0.099030    0.310512    11.00000    0.23860    0.14543 =
         0.24016   -0.00744    0.02431    0.01292
AFIX 137
H89A  2    0.396697    0.100739    0.302287    11.00000   -1.50000
H89B  2    0.441164    0.078255    0.297336    11.00000   -1.50000
H89C  2    0.440011    0.126304    0.308146    11.00000   -1.50000
AFIX   0
HKLF 5

REM  1_a.res in C2/c
REM R1 =  0.1157 for   20690 Fo > 4sig(Fo)  and  0.1491 for all   34193 data
REM   1520 parameters refined using   1832 restraints

END

WGHT      0.2000      0.0000

REM Highest difference peak  3.344,  deepest hole -2.343,  1-sigma level  0.179
Q1    1   0.3773  0.3967  0.2773  11.00000  0.05    3.34
Q2    1   0.5891  0.2815  0.5597  11.00000  0.05    3.30
Q3    1   0.6598  0.5034  0.4828  11.00000  0.05    3.11
Q4    1   0.6267  0.5194  0.4591  11.00000  0.05    2.20
Q5    1   0.5548  0.1557  0.3630  11.00000  0.05    2.16
Q6    1   0.5612  0.1369  0.3742  11.00000  0.05    2.03
Q7    1   0.5236  0.1635  0.3817  11.00000  0.05    1.82
Q8    1   0.6611  0.3022  0.5984  11.00000  0.05    1.38
Q9    1   0.5955  0.2408  0.5932  11.00000  0.05    0.87
Q10   1   0.5593  0.0575  0.4171  11.00000  0.05    0.80
Q11   1   0.5806  0.1206  0.2995  11.00000  0.05    0.79
Q12   1   0.5060  0.1586  0.3357  11.00000  0.05    0.71
Q13   1   0.3819  0.0805  0.3612  11.00000  0.05    0.70
Q14   1   0.8795  0.3594  0.2610  11.00000  0.05    0.65
Q15   1   0.8802  0.3820  0.2751  11.00000  0.05    0.65
Q16   1   0.3174  0.3753  0.2596  11.00000  0.05    0.64
Q17   1   0.5994  0.5205  0.5292  11.00000  0.05    0.64
Q18   1   0.6752  0.5186  0.4152  11.00000  0.05    0.64
Q19   1   0.4073  0.3678  0.2199  11.00000  0.05    0.63
Q20   1   0.7601  0.5989  0.4218  11.00000  0.05    0.61
Q21   1   0.5282  0.1623  0.6595  11.00000  0.05    0.59
Q22   1   0.8563  0.1610  0.2602  11.00000  0.05    0.58
Q23   1   0.7598  0.2797  0.3410  11.00000  0.05    0.57
Q24   1   0.4080  0.2353  0.4437  11.00000  0.05    0.57
Q25   1   0.3038  0.3804  0.3416  11.00000  0.05    0.56
Q26   1   0.5282  0.0240  0.3571  11.00000  0.05    0.56
Q27   1   0.6676  0.2398  0.6262  11.00000  0.05    0.56
Q28   1   0.4425  0.2548  0.3769  11.00000  0.05    0.55
Q29   1   0.8143  0.2345  0.2955  11.00000  0.05    0.53
Q30   1   0.6188  0.5958  0.4222  11.00000  0.05    0.53
Q31   1   0.4846  0.5396  0.4589  11.00000  0.05    0.53
Q32   1   0.4986  0.0910  0.3649  11.00000  0.05    0.52
Q33   1   0.3411  0.3210  0.3654  11.00000  0.05    0.52
Q34   1   0.4281  0.4181  0.1958  11.00000  0.05    0.52
Q35   1   0.6169  0.2842  0.4829  11.00000  0.05    0.52
Q36   1   0.4037  0.3141  0.4447  11.00000  0.05    0.52
Q37   1   0.2637  0.2430  0.6216  11.00000  0.05    0.52
Q38   1   0.3407  0.3397  0.4172  11.00000  0.05    0.51
Q39   1   0.5529  0.1915  0.5453  11.00000  0.05    0.51
Q40   1   0.8236  0.2535  0.2802  11.00000  0.05    0.51
Q41   1   0.3010  0.3235  0.4208  11.00000  0.05    0.50
Q42   1   0.4458  0.0603  0.3783  11.00000  0.05    0.49
Q43   1   0.2137  0.3395  0.4432  11.00000  0.05    0.49
Q44   1   0.5402  0.5442  0.4386  11.00000  0.05    0.49
Q45   1   0.2809  0.3873  0.4000  11.00000  0.05    0.48
Q46   1   0.2359  0.2989  0.5241  11.00000  0.05    0.48
Q47   1   0.3834  0.2441  0.5224  11.00000  0.05    0.48
Q48   1   0.6851  0.2532  0.5789  11.00000  0.05    0.48
Q49   1   0.4756  0.2592  0.3761  11.00000  0.05    0.48
Q50   1   0.7012  0.4590  0.4583  11.00000  0.05    0.48
Q51   1   0.7774  0.1804  0.3369  11.00000  0.05    0.47
Q52   1   0.2587  0.3233  0.4447  11.00000  0.05    0.47
Q53   1   0.5157  0.2978  0.3811  11.00000  0.05    0.47
Q54   1   0.5970  0.1982  0.6194  11.00000  0.05    0.47
Q55   1   0.6777  0.2040  0.4056  11.00000  0.05    0.46
Q56   1   0.8025  0.2456  0.3356  11.00000  0.05    0.46
Q57   1   0.4591  0.1353  0.6182  11.00000  0.05    0.46
Q58   1   0.7372  0.3887  0.4602  11.00000  0.05    0.46
Q59   1   0.2628  0.2828  0.4767  11.00000  0.05    0.46
Q60   1   0.4621  0.1265  0.4015  11.00000  0.05    0.46
Q61   1   0.5383  0.5364  0.5028  11.00000  0.05    0.46
Q62   1   0.1426  0.3252  0.4544  11.00000  0.05    0.46
Q63   1   0.3377  0.3595  0.3345  11.00000  0.05    0.46
Q64   1   0.6276  0.1540  0.4004  11.00000  0.05    0.46
Q65   1   0.3390  0.3064  0.4449  11.00000  0.05    0.45
Q66   1   0.5270  0.5192  0.4958  11.00000  0.05    0.45
Q67   1   0.6382  0.2390  0.4808  11.00000  0.05    0.45
Q68   1   0.5564  0.5343  0.5571  11.00000  0.05    0.45
Q69   1   0.7417  0.6176  0.4409  11.00000  0.05    0.45
Q70   1   0.8388  0.2020  0.2812  11.00000  0.05    0.45
Q71   1   0.8980  0.4330  0.3001  11.00000  0.05    0.44
Q72   1   0.3402  0.3554  0.3836  11.00000  0.05    0.44
Q73   1   0.6585  0.2206  0.4837  11.00000  0.05    0.44
Q74   1   0.3550  0.3393  0.3230  11.00000  0.05    0.44
Q75   1   0.4949 -0.0596  0.3827  11.00000  0.05    0.43
Q76   1   0.3036  0.2461  0.5618  11.00000  0.05    0.43
Q77   1   0.4359  0.2793  0.5451  11.00000  0.05    0.43
Q78   1   0.8732  0.3099  0.2584  11.00000  0.05    0.43
Q79   1   0.0827  0.3591  0.4750  11.00000  0.05    0.43
Q80   1   0.7198  0.3070  0.3813  11.00000  0.05    0.43
Q81   1   0.8040  0.3463  0.3381  11.00000  0.05    0.43
Q82   1   0.5644  0.3011  0.6234  11.00000  0.05    0.43
Q83   1   0.4375  0.0834  0.4446  11.00000  0.05    0.43
Q84   1   0.3565  0.3792  0.3215  11.00000  0.05    0.42
Q85   1   0.7583  0.4217  0.3627  11.00000  0.05    0.42
Q86   1   0.5410  0.3812  0.4139  11.00000  0.05    0.42
Q87   1   0.5396  0.2935  0.5565  11.00000  0.05    0.42
Q88   1   0.2230  0.2591  0.6162  11.00000  0.05    0.42
Q89   1   0.4958  0.5836  0.4376  11.00000  0.05    0.41
Q90   1   0.3756  0.4595  0.2357  11.00000  0.05    0.41
Q91   1   0.6440  0.3444  0.4593  11.00000  0.05    0.41
Q92   1   0.5237  0.2391  0.3193  11.00000  0.05    0.41
Q93   1   0.3170  0.4408  0.2210  11.00000  0.05    0.40
Q94   1   0.5755  0.0725  0.3261  11.00000  0.05    0.40
Q95   1   0.5424  0.6220  0.5411  11.00000  0.05    0.40
Q96   1   0.1542  0.2999  0.4162  11.00000  0.05    0.40
Q97   1   0.6819  0.6612  0.4646  11.00000  0.05    0.40
Q98   1   0.7141  0.4705  0.4448  11.00000  0.05    0.40
Q99   1   0.5393  0.2271  0.3661  11.00000  0.05    0.40
Q100  1   0.5075  0.2331  0.5425  11.00000  0.05    0.40
Q101  1   0.3442  0.4607  0.2401  11.00000  0.05    0.40
Q102  1   0.1891  0.3137  0.6809  11.00000  0.05    0.39
Q103  1   0.6664  0.5819  0.4603  11.00000  0.05    0.39
Q104  1   0.8396  0.3379  0.3044  11.00000  0.05    0.39
Q105  1   0.6677  0.2448  0.6517  11.00000  0.05    0.39
Q106  1   0.4790  0.0198  0.3808  11.00000  0.05    0.39
Q107  1   0.3618  0.4404  0.2739  11.00000  0.05    0.39
Q108  1   0.6182  0.1002  0.3612  11.00000  0.05    0.39
Q109  1   0.6036  0.1624  0.3401  11.00000  0.05    0.39
Q110  1   0.8936  0.5048  0.2833  11.00000  0.05    0.39
Q111  1   0.3153  0.2984  0.5187  11.00000  0.05    0.38
Q112  1   0.7455  0.3965  0.3820  11.00000  0.05    0.38
Q113  1   0.1667  0.2810  0.4806  11.00000  0.05    0.38
Q114  1   0.5447 -0.0391  0.3586  11.00000  0.05    0.38
Q115  1   0.4629  0.1667  0.4355  11.00000  0.05    0.38
Q116  1   0.4552  0.3993  0.3259  11.00000  0.05    0.38
Q117  1   0.7266  0.4497  0.4439  11.00000  0.05    0.38
Q118  1   0.2916  0.2494  0.5199  11.00000  0.05    0.38
Q119  1   0.3198  0.3019  0.4805  11.00000  0.05    0.38
Q120  1   0.1053  0.4171  0.4982  11.00000  0.05    0.38
Q121  1   0.4030  0.1069  0.4157  11.00000  0.05    0.37
Q122  1   0.0617  0.3595  0.4410  11.00000  0.05    0.37
Q123  1   0.5764  0.1801  0.2986  11.00000  0.05    0.37
Q124  1   0.2885  0.2581  0.5287  11.00000  0.05    0.37
Q125  1   0.5234  0.3929  0.4029  11.00000  0.05    0.37
Q126  1   0.5838  0.1461  0.5590  11.00000  0.05    0.37
Q127  1   0.5423  0.2607  0.4000  11.00000  0.05    0.37
Q128  1   0.4395  0.3589  0.2988  11.00000  0.05    0.37
Q129  1   0.7955  0.5772  0.4430  11.00000  0.05    0.36
Q130  1   0.7144  0.3485  0.4651  11.00000  0.05    0.36
Q131  1   0.5966  0.4672  0.5611  11.00000  0.05    0.36
Q132  1   0.6148  0.1285  0.5434  11.00000  0.05    0.36
Q133  1   0.4010  0.2831  0.5180  11.00000  0.05    0.36
Q134  1   0.8823  0.2572  0.2889  11.00000  0.05    0.36
Q135  1   0.5786  0.6387  0.5013  11.00000  0.05    0.36
Q136  1   0.5342  0.4815  0.4976  11.00000  0.05    0.36
Q137  1   0.7189  0.3307  0.3831  11.00000  0.05    0.35
Q138  1   0.5335  0.6434  0.4417  11.00000  0.05    0.35
Q139  1   0.1842  0.3159  0.5160  11.00000  0.05    0.35
Q140  1   0.4162  0.3196  0.2359  11.00000  0.05    0.35
Q141  1   0.4875  0.3731  0.3772  11.00000  0.05    0.35
Q142  1   0.6343  0.1775  0.5403  11.00000  0.05    0.35
Q143  1   0.9003  0.5071  0.2186  11.00000  0.05    0.35
Q144  1   0.6610  0.3224  0.5239  11.00000  0.05    0.35
Q145  1   0.2198  0.2396  0.5448  11.00000  0.05    0.34
Q146  1   0.5007  0.3780  0.3206  11.00000  0.05    0.34
Q147  1   0.4952  0.1025  0.2943  11.00000  0.05    0.34
Q148  1   0.5640  0.4785  0.4383  11.00000  0.05    0.34
Q149  1   0.7143  0.2358  0.3587  11.00000  0.05    0.34
Q150  1   0.5778  0.3746  0.5011  11.00000  0.05    0.34
Q151  1   0.8531  0.2389  0.2643  11.00000  0.05    0.34
Q152  1   0.2995  0.2808  0.2744  11.00000  0.05    0.33
Q153  1   0.4633  0.3255  0.5613  11.00000  0.05    0.33
;
_shelx_res_checksum              1956
_shelx_fab_file
;
2 0 0 39.8457 -39.7863
4 0 0 2.1245 57.5579
6 0 0 265.8500 19.8479
8 0 0 -84.6831 -30.2763
10 0 0 -59.5923 11.5265
12 0 0 -50.1429 34.5650
14 0 0 14.2440 -6.1135
16 0 0 90.8088 -4.9726
18 0 0 80.8149 42.9016
20 0 0 -17.5919 33.5488
22 0 0 12.5864 -18.5922
24 0 0 -4.5055 -23.4684
26 0 0 -9.2969 8.7846
28 0 0 -9.4469 13.9133
30 0 0 28.1922 -3.0297
32 0 0 -6.8108 -4.2169
34 0 0 1.0254 2.0572
36 0 0 -6.2937 -2.2350
1 1 0 -223.8273 -15.3463
5 1 0 -135.3161 11.1613
7 1 0 284.1071 -12.9101
9 1 0 18.3388 2.5998
11 1 0 21.7950 26.3919
13 1 0 24.8934 -3.4218
15 1 0 -23.2897 -34.8891
17 1 0 4.9855 -8.2251
19 1 0 8.6831 23.1732
21 1 0 16.9082 6.9914
23 1 0 6.5306 -13.3479
25 1 0 11.1050 -3.5582
27 1 0 7.6481 5.8289
29 1 0 -11.8682 -3.0109
31 1 0 11.6652 -3.9519
33 1 0 0.6573 6.6533
35 1 0 -0.5392 6.8181
37 1 0 14.0583 -4.8098
4 2 0 -62.5897 -3.8164
8 2 0 108.3118 -7.1855
10 2 0 -2.9409 12.3732
12 2 0 2.6452 14.3972
16 2 0 -10.5447 -7.5776
18 2 0 -26.9747 2.5317
20 2 0 -2.1337 3.3554
22 2 0 1.8123 -0.5345
24 2 0 2.5571 1.9866
26 2 0 17.3738 2.8024
28 2 0 6.4755 -3.5111
30 2 0 -11.2998 -5.0994
32 2 0 2.1579 -0.3066
34 2 0 16.3201 2.3527
36 2 0 -2.5366 -0.3863
1 3 0 254.3600 4.9314
3 3 0 -188.6350 3.3770
5 3 0 -3.3668 5.6515
7 3 0 -47.6754 7.0979
9 3 0 56.9663 1.1654
11 3 0 -34.2100 -3.6186
13 3 0 119.0260 -0.7472
15 3 0 30.8368 5.1367
17 3 0 16.5257 4.6555
19 3 0 -0.4586 -0.3000
21 3 0 -66.8742 -0.9259
23 3 0 -2.6550 0.8279
25 3 0 5.0654 -1.2473
27 3 0 -6.6227 -2.1980
29 3 0 5.8108 1.1798
31 3 0 10.3736 3.3817
33 3 0 -3.8692 1.1705
35 3 0 -0.7167 -1.5107
0 4 0 -78.4323 0.4674
2 4 0 378.0861 7.3319
4 4 0 -222.7776 0.6265
6 4 0 13.5348 -12.0913
8 4 0 90.0153 -7.1678
10 4 0 -82.3876 10.2459
12 4 0 48.8120 8.8533
14 4 0 -45.7986 -7.0146
16 4 0 -21.6743 -7.6686
18 4 0 -38.8338 3.2765
20 4 0 21.3872 2.8019
22 4 0 -8.2616 -1.9017
24 4 0 22.9090 1.3414
26 4 0 9.8221 3.1309
28 4 0 16.3338 -1.7892
30 4 0 11.7164 -3.2225
32 4 0 16.1537 1.3877
34 4 0 7.5064 4.3992
36 4 0 3.7272 -0.6213
1 5 0 -237.5787 -3.4021
3 5 0 -173.2430 15.2809
5 5 0 68.7915 12.1635
7 5 0 86.3855 -6.7609
9 5 0 10.7197 -6.5664
11 5 0 -20.4262 9.4476
13 5 0 -42.0248 7.7520
15 5 0 -30.7056 -4.5083
17 5 0 -15.8951 -3.7431
19 5 0 -5.7714 2.8751
21 5 0 -16.0953 -1.3201
23 5 0 9.8890 -6.1710
25 5 0 -1.6712 -0.2159
27 5 0 3.5157 5.0285
29 5 0 9.4228 -0.5689
31 5 0 -2.4265 -4.3601
33 5 0 8.6862 -1.4690
35 5 0 7.6783 0.5420
0 6 0 -13.1880 -5.0130
4 6 0 -64.1031 6.6441
6 6 0 55.5233 -0.7345
8 6 0 74.7421 -4.1812
10 6 0 -56.2656 -0.3377
12 6 0 75.3147 0.2276
14 6 0 37.6749 -3.0089
16 6 0 -33.2745 -1.9210
18 6 0 1.7885 3.2833
20 6 0 -6.9336 2.9436
22 6 0 5.1776 -2.4585
24 6 0 26.8840 -3.1453
26 6 0 -4.7745 1.6224
28 6 0 3.7451 2.7915
30 6 0 -4.9152 -0.0768
32 6 0 2.2748 -0.8533
34 6 0 4.9942 0.5634
36 6 0 -3.9436 1.0088
1 7 0 102.6398 -0.6704
3 7 0 161.3534 -1.9116
5 7 0 -99.3715 1.7777
7 7 0 82.6447 2.3380
9 7 0 -47.3669 -0.3181
11 7 0 4.5936 -3.4475
13 7 0 -26.4487 -0.9198
15 7 0 60.4341 2.6422
17 7 0 -14.7518 1.4610
19 7 0 -3.8086 -1.1036
21 7 0 -10.4198 -0.8515
23 7 0 11.4117 0.2496
25 7 0 23.3487 -0.6441
27 7 0 17.5020 -0.0562
29 7 0 -1.9650 2.1195
31 7 0 -0.2669 -0.1064
33 7 0 2.1971 -1.8982
35 7 0 13.5181 -0.4128
2 8 0 5.7064 -1.7937
4 8 0 -96.8609 0.2292
6 8 0 12.0294 5.1737
8 8 0 10.9994 2.0902
10 8 0 14.7488 -6.4640
12 8 0 33.8595 -7.8883
14 8 0 44.0628 -0.2492
16 8 0 12.9292 4.3435
18 8 0 -5.4477 0.1863
20 8 0 9.7954 -3.2081
22 8 0 9.6260 -1.4632
24 8 0 3.6654 -0.3488
26 8 0 1.4219 -0.6790
28 8 0 0.2326 0.4457
30 8 0 -8.8553 2.5023
32 8 0 10.0267 0.5271
34 8 0 -4.0567 -2.3869
36 8 0 -13.6042 -2.6795
1 9 0 60.9978 -3.6446
3 9 0 -35.8257 -3.0293
7 9 0 64.5436 4.8168
11 9 0 -11.8527 -0.7482
13 9 0 -48.2471 0.0578
15 9 0 -16.6125 1.0553
17 9 0 -11.3136 1.6670
19 9 0 8.1680 1.6171
21 9 0 -8.9347 0.7719
23 9 0 17.8097 -0.7474
25 9 0 -8.2721 -0.3251
27 9 0 -0.3970 -0.1024
29 9 0 0.7054 -0.1464
31 9 0 -4.7999 0.3664
33 9 0 -4.9449 0.6633
35 9 0 7.5307 0.4993
0 10 0 24.7549 -2.8619
2 10 0 -5.2478 -0.8390
4 10 0 -79.1448 4.0336
6 10 0 32.9127 2.5855
8 10 0 -40.4188 -3.4845
10 10 0 -10.5596 -4.4254
12 10 0 30.5655 0.0043
14 10 0 50.8998 1.3922
16 10 0 8.3131 -0.4250
18 10 0 -2.0693 -0.4785
20 10 0 -4.0245 0.5865
22 10 0 -2.5941 -1.1198
24 10 0 -14.0003 -1.7424
26 10 0 18.4839 0.5597
28 10 0 -3.3170 2.9342
30 10 0 -2.6458 0.0471
32 10 0 8.9055 -2.1041
34 10 0 -4.9859 -0.4644
1 11 0 149.7238 -1.5532
3 11 0 -68.6528 -2.0625
5 11 0 66.2761 -0.2762
7 11 0 0.5872 -0.2970
9 11 0 8.9021 -1.2113
11 11 0 -60.7293 1.0097
13 11 0 -21.2671 1.7296
15 11 0 -20.5653 -0.9115
17 11 0 20.8044 -1.8325
19 11 0 35.1425 1.0107
21 11 0 14.0437 1.9806
23 11 0 17.2179 -0.3089
25 11 0 -5.5024 -1.1433
27 11 0 -10.2130 0.7410
29 11 0 5.7804 0.3009
31 11 0 4.8282 -0.9592
33 11 0 3.2523 0.1060
35 11 0 0.7599 -0.3214
0 12 0 -118.1234 3.5108
2 12 0 -118.5656 -0.7673
4 12 0 -86.2788 -4.2596
6 12 0 -14.9228 -0.0424
8 12 0 -5.3109 2.0898
10 12 0 -7.2649 -0.9796
12 12 0 40.5274 -0.5460
14 12 0 -0.5649 2.4947
16 12 0 -37.5426 1.5453
18 12 0 -7.6395 -2.5720
20 12 0 -30.5655 -1.4075
22 12 0 9.8181 2.7555
24 12 0 1.8805 1.6319
26 12 0 -14.6401 -1.5017
28 12 0 4.9674 -0.9648
30 12 0 -1.5617 0.7112
32 12 0 -6.2826 -0.8083
34 12 0 -5.8566 -1.1888
1 13 0 5.6863 1.7255
3 13 0 4.4001 -4.0981
5 13 0 112.8241 -1.8656
7 13 0 36.9047 2.8501
9 13 0 -78.8684 0.9652
11 13 0 -17.0632 -2.2299
13 13 0 4.2633 0.9134
15 13 0 -41.4748 3.0604
17 13 0 7.5363 -0.6863
19 13 0 30.1212 -2.8606
21 13 0 -0.2715 -0.0040
23 13 0 5.2669 2.5976
25 13 0 -4.5358 0.4193
27 13 0 1.7135 -1.5551
29 13 0 3.9038 -0.6154
31 13 0 1.1122 1.3726
33 13 0 4.1730 1.0345
0 14 0 -22.9514 0.6015
2 14 0 30.2033 0.1914
4 14 0 62.2528 -1.2692
6 14 0 -48.3919 -2.4207
8 14 0 -51.2736 0.1447
10 14 0 -13.2068 3.0125
12 14 0 -3.4137 2.6345
14 14 0 -5.7240 0.3036
16 14 0 -33.4209 -1.2402
18 14 0 -2.6529 -0.5744
20 14 0 9.4275 0.2838
22 14 0 -6.7551 0.7742
24 14 0 7.8375 0.9927
26 14 0 2.0770 0.4153
28 14 0 16.9177 -1.4143
30 14 0 -1.8082 -1.1178
32 14 0 2.4318 0.0989
34 14 0 2.9073 3.3508
1 15 0 -29.9190 -1.0561
3 15 0 3.4487 0.8339
5 15 0 -42.0373 2.3196
7 15 0 44.3300 -0.1225
9 15 0 -35.5283 -2.7485
11 15 0 -18.3039 0.5929
13 15 0 11.1012 3.4741
15 15 0 16.7013 0.4668
17 15 0 -2.7773 -2.3744
19 15 0 2.7838 0.2529
21 15 0 -5.8299 1.6319
23 15 0 1.9270 -0.6841
25 15 0 -3.2398 -1.3686
27 15 0 14.1624 1.3163
29 15 0 8.0818 0.4919
31 15 0 8.6725 -0.9338
33 15 0 -5.9170 -1.5796
0 16 0 30.2454 1.0180
2 16 0 -49.9132 -0.8754
4 16 0 90.7490 -1.0608
6 16 0 0.8089 0.6423
8 16 0 -5.6947 0.5193
10 16 0 33.0783 0.0539
12 16 0 -9.6850 0.5449
14 16 0 -3.5327 0.4765
16 16 0 11.7180 -1.1092
18 16 0 4.1380 -1.4974
20 16 0 9.0038 0.6282
22 16 0 -2.0010 1.2457
24 16 0 -3.0056 -1.0428
26 16 0 6.7690 -0.8234
28 16 0 0.1880 1.4051
30 16 0 2.5293 0.5509
32 16 0 5.3825 -0.7105
1 17 0 -10.3980 2.5616
3 17 0 -14.7210 -3.2408
5 17 0 -16.3498 -1.3523
7 17 0 1.1030 4.5207
9 17 0 -28.6417 1.9503
11 17 0 -30.4150 -3.7364
13 17 0 43.6930 -0.7989
15 17 0 23.6869 3.8584
17 17 0 -12.9031 0.5292
19 17 0 9.9950 -3.2456
21 17 0 3.3969 -0.2504
23 17 0 -5.7898 2.7392
25 17 0 -8.3600 -0.5116
27 17 0 -1.5755 -2.3504
29 17 0 -11.5889 0.2748
31 17 0 -6.5931 1.1187
33 17 0 -6.5835 -0.6237
0 18 0 60.1212 2.2666
2 18 0 -42.7432 -1.1692
4 18 0 28.1070 -2.3313
6 18 0 -16.7788 1.4064
8 18 0 -2.9099 3.7405
10 18 0 16.0732 0.4816
12 18 0 1.1765 -2.9997
14 18 0 12.2463 -1.3597
16 18 0 9.7378 1.7334
18 18 0 2.7899 1.0822
20 18 0 -4.6911 -1.2498
22 18 0 7.9949 -0.4049
24 18 0 0.5783 0.7385
26 18 0 8.2463 -0.8564
28 18 0 4.3179 -1.2304
30 18 0 -3.5341 1.1532
32 18 0 10.3864 3.5608
1 19 0 -15.0278 0.7936
3 19 0 -26.3445 -0.5408
5 19 0 8.2791 -0.5691
7 19 0 17.8313 0.3416
9 19 0 14.5068 0.3956
11 19 0 -9.4791 -0.5248
13 19 0 17.0340 -0.6184
15 19 0 -10.5411 -0.2856
17 19 0 -4.9823 -0.1065
19 19 0 13.1688 -0.3220
21 19 0 11.9133 -0.3065
23 19 0 -19.0477 -0.1299
25 19 0 -11.4504 0.4239
27 19 0 -10.2937 0.1219
29 19 0 -5.4469 -0.6293
31 19 0 -10.6061 0.9445
0 20 0 5.8625 -1.1721
2 20 0 -6.1392 -0.2596
4 20 0 0.9016 1.1528
6 20 0 -0.2721 0.6266
8 20 0 -11.1624 -1.2967
10 20 0 12.7326 -0.6217
12 20 0 -7.1231 1.0139
14 20 0 27.3583 -0.2939
16 20 0 9.0537 -1.6814
18 20 0 25.7989 0.0031
20 20 0 -22.2815 1.6523
22 20 0 -1.0426 -0.0317
24 20 0 12.3217 -1.3084
26 20 0 -5.3268 -0.4058
28 20 0 -5.1820 1.0671
30 20 0 -7.5248 -0.4969
1 21 0 -2.6762 0.8980
3 21 0 11.1773 -0.5390
5 21 0 8.1427 -0.4032
7 21 0 3.7805 0.7240
9 21 0 -25.8404 -0.1669
11 21 0 -18.8459 -1.3364
13 21 0 11.2948 0.0139
15 21 0 -4.0980 0.7143
17 21 0 -6.3753 -0.6167
19 21 0 7.3463 -1.1483
21 21 0 24.5085 0.4773
23 21 0 1.7769 0.6237
25 21 0 -1.6384 -0.3938
27 21 0 -3.6354 -0.1979
29 21 0 16.6713 1.2432
0 22 0 1.3674 1.5844
2 22 0 -13.0918 0.3363
4 22 0 -10.8779 -1.0326
6 22 0 13.4525 -0.2767
8 22 0 10.7267 0.1265
10 22 0 -0.2455 -0.5754
12 22 0 -11.2229 -0.7213
14 22 0 -8.3726 0.5811
16 22 0 6.1407 1.4644
18 22 0 12.1523 -0.5160
20 22 0 7.0652 -1.2232
22 22 0 -12.3310 0.1737
24 22 0 -8.9620 1.5756
26 22 0 -5.6742 0.0361
28 22 0 -4.7268 -1.1882
30 22 0 -16.9381 -0.7108
1 23 0 17.1737 0.0377
3 23 0 -11.1833 -1.1316
5 23 0 -4.8790 -0.5967
7 23 0 10.1042 1.0690
9 23 0 18.4867 0.5473
11 23 0 9.8360 -1.1503
13 23 0 20.2339 -1.3230
15 23 0 6.4721 0.2630
17 23 0 -9.0489 1.2065
19 23 0 -3.0816 -0.2267
21 23 0 -0.7509 -0.6268
23 23 0 1.1951 0.2269
25 23 0 11.3148 0.5560
27 23 0 12.3243 -0.9271
29 23 0 8.7671 -0.1278
0 24 0 -13.5308 -0.4769
2 24 0 -5.2268 -0.0342
4 24 0 3.0576 0.1389
6 24 0 32.6352 -0.1153
8 24 0 20.3116 -0.5032
10 24 0 10.4889 -0.6432
12 24 0 13.5161 0.1262
14 24 0 -13.0026 0.6095
16 24 0 13.8965 0.4828
18 24 0 -0.4026 0.0373
20 24 0 6.4368 0.2548
22 24 0 16.0069 -0.0590
24 24 0 -11.9976 0.2267
26 24 0 -5.9866 0.2335
28 24 0 -4.1717 0.8890
1 25 0 10.4641 -1.0027
3 25 0 -6.7132 0.1333
5 25 0 14.4253 1.0470
7 25 0 -6.0692 0.3502
9 25 0 -15.0523 -0.9821
11 25 0 -4.0384 -0.4869
13 25 0 1.7209 0.6420
15 25 0 -5.4073 0.4145
17 25 0 -1.4160 -0.2066
19 25 0 13.9651 0.2938
21 25 0 2.3171 0.6485
23 25 0 -11.5374 -0.8260
25 25 0 -12.7652 -0.8830
27 25 0 2.8010 -0.3100
0 26 0 -25.8557 -0.2578
2 26 0 -0.9346 0.1478
4 26 0 -22.2547 -0.1186
6 26 0 -1.1745 0.6080
8 26 0 5.2381 0.7683
10 26 0 -7.4036 -0.4739
12 26 0 8.3487 -0.4943
14 26 0 -29.5381 0.9015
16 26 0 1.5066 1.0487
18 26 0 -14.7059 -0.3078
20 26 0 -12.9296 -0.3956
22 26 0 14.9978 0.1755
24 26 0 -4.5994 0.0036
26 26 0 7.7304 -0.9080
1 27 0 5.5534 0.8940
3 27 0 -7.6971 -1.0914
5 27 0 8.2331 -0.7338
7 27 0 -14.7391 1.1065
9 27 0 -6.8450 0.7977
11 27 0 -11.7834 -0.7512
13 27 0 5.6336 -0.1877
15 27 0 -0.3508 1.3625
17 27 0 11.9881 0.6148
19 27 0 3.4999 -0.6805
21 27 0 4.7409 -0.5512
23 27 0 -0.2466 0.1870
25 27 0 -8.1658 0.9227
0 28 0 -3.8980 1.3908
2 28 0 13.1776 0.1104
4 28 0 -2.6453 -1.1494
6 28 0 -8.8336 0.4341
8 28 0 -7.8619 1.5250
10 28 0 16.1008 0.3798
12 28 0 24.7877 -1.1863
14 28 0 1.5265 -0.2681
16 28 0 22.1021 1.1683
18 28 0 16.9846 0.4531
20 28 0 4.5350 -1.2482
22 28 0 5.1512 -0.4691
24 28 0 1.8825 0.1911
1 29 0 2.9206 0.1616
3 29 0 -14.3486 0.0739
5 29 0 26.7275 -0.0437
7 29 0 9.6334 -0.2443
9 29 0 7.6566 0.0951
11 29 0 -0.2648 0.4703
13 29 0 16.7754 0.2763
15 29 0 -13.7565 -0.1424
17 29 0 3.5897 -0.0224
19 29 0 -13.3760 0.1146
21 29 0 5.2152 0.1918
23 29 0 2.6785 -0.9122
0 30 0 -41.9257 -0.2663
2 30 0 -5.1355 0.3782
4 30 0 -1.1375 1.3408
6 30 0 7.8530 0.0360
8 30 0 -2.8244 -0.8160
10 30 0 -3.9649 0.6563
12 30 0 -16.3915 1.5066
14 30 0 6.6414 -0.0248
16 30 0 2.3153 -0.9592
18 30 0 -12.3417 -0.2840
20 30 0 -29.5889 1.2162
22 30 0 -1.4119 -0.5255
1 31 0 16.7775 -0.2037
3 31 0 0.7715 0.0058
5 31 0 -12.4945 -0.0125
7 31 0 -17.0053 -0.3693
9 31 0 6.6702 -0.6689
11 31 0 4.0033 0.5186
13 31 0 0.4310 0.7780
15 31 0 -2.2895 -0.2804
17 31 0 -8.3254 -0.7637
19 31 0 0.2574 -0.4420
21 31 0 0.1780 0.4061
0 32 0 -15.5881 0.6154
2 32 0 4.1670 0.3049
4 32 0 -2.3211 -0.0988
6 32 0 -9.1234 -0.2197
8 32 0 -4.0314 0.0572
10 32 0 -18.2620 -0.2131
12 32 0 5.9506 -0.4457
14 32 0 10.1215 -0.1542
16 32 0 6.0678 1.0948
18 32 0 1.1772 -0.6857
1 33 0 -13.7584 -0.0502
3 33 0 3.9220 -0.3656
5 33 0 -11.0076 -0.7248
7 33 0 14.3343 -0.0176
9 33 0 9.6108 0.4601
11 33 0 -3.3275 -0.1264
13 33 0 -5.7104 -1.2480
15 33 0 1.9019 0.4780
17 33 0 -19.6213 1.0274
0 34 0 -0.4683 -0.8875
2 34 0 -1.4437 -0.0887
4 34 0 1.5261 0.9069
6 34 0 -9.8883 -0.0802
8 34 0 -1.9035 -0.0548
10 34 0 6.5165 0.2959
12 34 0 0.0153 0.0610
14 34 0 -17.3967 -0.1448
16 34 0 -0.4828 -0.1063
1 35 0 -10.2946 -0.4542
3 35 0 5.4425 0.3996
5 35 0 -8.2444 -0.0527
7 35 0 -8.1243 -0.8643
9 35 0 -2.6431 -0.9050
11 35 0 0.8309 0.2520
13 35 0 20.6857 0.3921
0 36 0 6.8130 -0.8777
2 36 0 -13.3313 0.0522
4 36 0 -1.2173 0.7837
6 36 0 -1.7263 -0.3382
8 36 0 -1.0950 -0.5050
10 36 0 17.4799 -0.0818
1 37 0 -1.5117 1.0072
3 37 0 -5.9403 0.5419
5 37 0 2.6688 -0.5613
7 37 0 -7.7933 -0.0341
-37 1 1 -5.6123 -6.8930
-35 1 1 -10.5092 5.0901
-33 1 1 -16.0745 7.3236
-31 1 1 -5.8905 -4.3097
-29 1 1 -9.2201 -6.8614
-27 1 1 -1.9015 1.6681
-25 1 1 5.0757 -1.3197
-23 1 1 6.9205 -6.1249
-21 1 1 -23.8166 14.5671
-19 1 1 -8.3959 28.9982
-17 1 1 3.7306 -2.0660
-15 1 1 -10.5232 -27.0835
-13 1 1 -9.4391 9.1054
-11 1 1 23.3127 40.1723
-9 1 1 -51.8876 9.1734
-7 1 1 -118.3134 -18.1820
-5 1 1 100.5048 -4.4197
-3 1 1 -534.7924 -6.0002
-1 1 1 -260.8318 -33.0248
1 1 1 -689.8181 -8.6659
3 1 1 -172.0525 28.9374
5 1 1 -145.7535 0.0181
7 1 1 -14.4287 -42.0736
9 1 1 34.5953 -27.1195
11 1 1 -6.6386 18.0522
13 1 1 9.7271 21.0997
15 1 1 -78.3731 -2.0749
17 1 1 1.7197 -3.9309
19 1 1 -59.9142 -1.3572
21 1 1 -6.3933 -10.7658
23 1 1 2.4316 -7.0261
25 1 1 -20.8827 12.4134
27 1 1 -3.3878 13.7062
29 1 1 -5.1694 -5.1235
31 1 1 -0.2998 -11.1619
33 1 1 6.8616 -0.6788
35 1 1 15.3218 4.2064
37 1 1 13.1625 0.9691
-36 2 1 6.0173 0.2809
-34 2 1 2.2321 4.0339
-32 2 1 7.0699 -0.9728
-30 2 1 -0.4464 -3.5619
-28 2 1 13.1615 11.0162
-26 2 1 7.5973 12.2498
-24 2 1 6.9520 -15.4183
-22 2 1 -42.9834 -21.2947
-20 2 1 5.3403 15.4026
-18 2 1 -27.8075 26.8405
-16 2 1 6.9858 -12.4440
-14 2 1 28.9153 -25.3397
-12 2 1 53.0818 5.4889
-10 2 1 -32.0129 -2.2894
-8 2 1 214.4775 -37.4064
-4 2 1 7.8540 50.1637
-2 2 1 206.8654 -6.9883
0 2 1 -916.9639 -48.0309
2 2 1 219.4887 2.0251
4 2 1 -194.2037 33.4622
6 2 1 166.1350 15.1208
8 2 1 -63.2611 -4.8149
10 2 1 77.2442 9.1877
12 2 1 -23.3222 10.2324
14 2 1 -4.8116 -13.8191
16 2 1 -57.7819 -13.4383
18 2 1 -54.4505 14.1047
20 2 1 23.6584 15.9143
22 2 1 -40.9132 -9.3608
24 2 1 11.4702 -15.3486
26 2 1 15.4775 1.4096
28 2 1 7.3985 6.4143
30 2 1 -0.5005 -2.2112
32 2 1 -2.8772 -2.2826
34 2 1 11.6923 3.8881
36 2 1 -5.2920 2.1812
-37 3 1 -7.7380 -2.0822
-35 3 1 1.3911 1.7655
-33 3 1 -4.0966 1.3444
-31 3 1 12.6149 -1.2287
-29 3 1 10.3964 0.2738
-27 3 1 4.2083 2.0124
-25 3 1 -0.9405 -3.1863
-23 3 1 -18.4168 -7.3596
-21 3 1 -0.0453 3.0917
-19 3 1 -13.9454 14.0113
-17 3 1 -9.2633 2.8901
-15 3 1 -27.8412 -10.9711
-13 3 1 3.0699 -1.1004
-11 3 1 47.9480 13.2263
-9 3 1 -60.2636 5.5496
-7 3 1 -82.8444 -5.5288
-5 3 1 254.6581 2.0118
-3 3 1 -50.2671 4.6199
-1 3 1 -227.8805 -10.6037
1 3 1 -549.1251 -6.8356
3 3 1 -116.3794 7.1649
5 3 1 -213.0786 2.3009
7 3 1 -51.4062 -10.5304
9 3 1 -22.0802 -11.0121
11 3 1 -11.8423 1.2841
13 3 1 96.7409 6.9201
15 3 1 34.3832 2.6360
17 3 1 47.3657 -2.1300
19 3 1 -16.9587 -2.5173
21 3 1 -13.7642 -1.7466
23 3 1 19.4129 1.2895
25 3 1 -7.1613 4.2630
27 3 1 7.5993 3.3281
29 3 1 5.1942 -0.8614
31 3 1 3.9122 -2.1052
33 3 1 -0.0697 -0.2109
35 3 1 12.9818 1.0357
-36 4 1 -10.1378 -0.1330
-34 4 1 7.1595 -0.6204
-32 4 1 13.4321 -1.4733
-30 4 1 -6.2800 -0.8249
-28 4 1 -17.6793 0.1741
-26 4 1 -9.2600 1.3534
-24 4 1 16.0587 1.1359
-22 4 1 -20.4522 -0.6541
-20 4 1 0.2345 -1.7436
-18 4 1 6.6292 -0.5681
-16 4 1 39.4071 1.1967
-14 4 1 7.8784 2.2618
-12 4 1 -42.5572 -0.5818
-10 4 1 -23.4868 -6.9308
-8 4 1 -50.9306 -7.2853
-6 4 1 -174.7910 1.1519
-4 4 1 -58.6330 3.1055
-2 4 1 150.7759 -8.9905
4 4 1 -87.9605 -4.0080
6 4 1 -15.7282 -0.8599
8 4 1 -2.6359 12.8102
10 4 1 -41.1802 7.6977
12 4 1 -20.4624 -6.5445
14 4 1 -93.3739 -3.6235
16 4 1 -38.7195 7.6756
18 4 1 -14.9478 4.8655
20 4 1 14.9867 -3.6519
22 4 1 8.9285 -2.6905
24 4 1 -8.2869 0.4919
26 4 1 4.5769 -1.9229
28 4 1 12.6660 -1.8516
30 4 1 6.1646 2.0939
32 4 1 -8.4424 2.7075
34 4 1 6.3428 -1.6530
36 4 1 -3.4920 -2.0949
-35 5 1 3.8412 0.3767
-33 5 1 6.0573 -0.2927
-31 5 1 -10.0718 0.7586
-29 5 1 6.9208 2.2088
-27 5 1 7.7073 3.7713
-25 5 1 2.0175 -0.5085
-23 5 1 -15.8429 -3.3137
-21 5 1 0.7846 -0.7774
-19 5 1 -23.1412 1.6809
-17 5 1 -0.9701 0.0834
-15 5 1 -7.2882 0.8333
-13 5 1 -13.5734 2.3893
-11 5 1 93.1716 -3.4001
-9 5 1 88.6136 -9.0653
-7 5 1 133.4132 -0.1663
-5 5 1 -1.7700 10.4455
-3 5 1 243.5828 4.3855
-1 5 1 -616.8804 -2.6734
1 5 1 167.7294 -4.7774
3 5 1 14.1824 -3.7516
5 5 1 -188.8528 0.1169
7 5 1 -65.4784 0.5762
9 5 1 59.5403 3.3640
11 5 1 72.9486 2.3219
13 5 1 -51.0073 -6.9386
15 5 1 53.2601 -8.2540
17 5 1 31.0198 1.8676
19 5 1 1.7441 6.1090
21 5 1 7.9836 0.2248
23 5 1 12.9991 -1.8734
25 5 1 12.2415 -0.2308
27 5 1 11.2476 -0.8604
29 5 1 -13.8484 -1.4224
31 5 1 -5.9045 2.4149
33 5 1 -11.9574 3.0065
35 5 1 6.0811 -1.1419
-36 6 1 -3.9531 1.4597
-34 6 1 5.5485 2.2867
-32 6 1 12.1856 -2.6967
-30 6 1 5.0748 -4.3580
-28 6 1 -27.2887 1.7523
-26 6 1 21.2014 4.7336
-24 6 1 2.9627 -1.7877
-22 6 1 2.7947 -4.2204
-20 6 1 14.0840 1.4504
-18 6 1 -0.9208 0.7244
-16 6 1 36.7693 -5.7134
-14 6 1 20.6694 -0.3898
-12 6 1 -29.2562 8.4241
-8 6 1 -127.3723 -13.3698
-6 6 1 100.1715 -6.0896
-4 6 1 -3.9990 7.6189
-2 6 1 72.1357 3.9062
0 6 1 98.3194 -8.2943
2 6 1 -191.7438 -1.8079
4 6 1 186.6252 7.5490
6 6 1 -15.3309 -2.2523
8 6 1 -23.9142 -4.1261
10 6 1 33.5304 8.5830
12 6 1 62.7954 9.8688
14 6 1 23.1392 -2.8513
16 6 1 15.1404 -6.1609
18 6 1 -4.3038 4.1580
20 6 1 -8.8422 6.6978
22 6 1 -9.4234 -1.2859
24 6 1 8.3244 -2.6220
26 6 1 13.8704 2.0697
28 6 1 5.9000 1.3531
30 6 1 -11.7422 -2.4956
32 6 1 -1.8271 -1.0868
34 6 1 4.5699 2.4974
36 6 1 -12.4032 1.1584
-35 7 1 -2.6868 1.8305
-33 7 1 -9.5825 -2.4934
-31 7 1 -24.2786 -4.6209
-29 7 1 5.3581 1.4062
-27 7 1 1.3025 4.6285
-25 7 1 -2.8712 -0.4186
-23 7 1 -26.0483 -3.7567
-21 7 1 -18.7369 0.2409
-19 7 1 2.1785 1.0336
-17 7 1 0.5392 -3.9377
-15 7 1 -18.5539 -0.7797
-13 7 1 -25.7558 7.3861
-11 7 1 58.9010 3.5108
-9 7 1 -55.8191 -7.7696
-7 7 1 9.9319 -3.5253
-5 7 1 8.6573 10.4788
-3 7 1 -78.0790 10.4282
-1 7 1 -370.5188 -0.1607
1 7 1 178.1846 -4.4855
3 7 1 -30.5930 1.2562
5 7 1 -14.6952 3.9314
7 7 1 -75.1054 -1.9885
9 7 1 65.2486 -1.2427
11 7 1 38.8415 3.2329
13 7 1 -29.6759 -2.9758
15 7 1 36.8795 -9.1643
17 7 1 58.4420 -2.8991
19 7 1 1.7019 5.7248
21 7 1 30.7757 2.2919
23 7 1 -9.7050 -4.4554
25 7 1 -12.9027 -3.2495
27 7 1 1.3961 1.8976
29 7 1 7.5892 1.7834
31 7 1 3.3731 0.2348
33 7 1 0.3736 0.0847
35 7 1 -1.4621 1.6312
-36 8 1 1.1703 -0.2812
-34 8 1 -8.9486 0.4086
-32 8 1 10.4233 -0.1514
-30 8 1 11.2052 0.7473
-28 8 1 -25.7266 1.2089
-26 8 1 -8.8048 0.0150
-24 8 1 -2.8071 -0.5502
-22 8 1 1.9401 1.7464
-20 8 1 -5.9470 1.8563
-18 8 1 18.8590 -0.9166
-16 8 1 11.3891 -1.2514
-14 8 1 -33.8332 1.5595
-12 8 1 -60.6720 1.6325
-10 8 1 54.6847 -1.3277
-8 8 1 15.3739 -1.4593
-6 8 1 -52.7484 -0.7323
-4 8 1 -72.8529 -2.1170
-2 8 1 -161.0126 -2.0231
0 8 1 108.9498 1.4358
2 8 1 25.9217 2.4578
4 8 1 26.6442 -1.8031
8 8 1 -21.6348 -0.2259
10 8 1 102.2266 2.0292
12 8 1 -27.9944 1.6283
14 8 1 -54.2277 0.0574
16 8 1 30.9413 -0.4045
18 8 1 10.9365 -1.1758
20 8 1 0.8381 -1.2506
22 8 1 -10.1792 0.6065
24 8 1 8.7728 1.7093
26 8 1 36.9409 0.3694
28 8 1 8.7129 -1.2175
30 8 1 1.1147 -0.9662
32 8 1 -1.9640 -0.3869
34 8 1 7.2005 0.0833
36 8 1 1.0186 0.2379
-35 9 1 4.5351 -1.3911
-33 9 1 -4.3058 -1.2661
-31 9 1 -12.3082 0.5413
-29 9 1 -1.1469 -0.3957
-27 9 1 -16.5622 -2.0611
-25 9 1 -3.0514 0.1434
-23 9 1 -24.7090 2.1130
-21 9 1 3.7204 -1.6326
-19 9 1 -7.0626 -4.9694
-17 9 1 38.7614 -1.4028
-15 9 1 -34.9209 3.1596
-13 9 1 -40.1390 0.9668
-11 9 1 28.2931 -2.1318
-9 9 1 -27.2874 0.5836
-7 9 1 11.9437 2.5528
-5 9 1 161.4776 0.5789
-3 9 1 -188.2704 -0.1858
-1 9 1 -20.9864 1.4583
1 9 1 45.8740 4.0637
3 9 1 -85.5414 1.9697
5 9 1 -3.0525 -2.6438
7 9 1 -68.5472 -1.3044
9 9 1 71.6435 3.0527
11 9 1 -16.2395 1.0875
13 9 1 47.7404 -3.8340
15 9 1 21.6436 -0.8240
17 9 1 31.0439 3.3797
19 9 1 -10.5077 0.1574
21 9 1 -17.3049 -3.3541
23 9 1 -5.9981 0.4613
25 9 1 -8.7549 2.6699
27 9 1 -14.5856 -0.6521
29 9 1 4.0584 -1.8612
31 9 1 24.2390 0.4442
33 9 1 5.2296 1.4937
35 9 1 -2.6669 -0.7717
-34 10 1 1.9490 1.6125
-32 10 1 8.0764 2.2062
-30 10 1 11.4038 -1.4319
-28 10 1 8.2554 -1.6398
-26 10 1 -14.8327 1.1763
-24 10 1 0.5237 0.9719
-22 10 1 8.7897 -0.8978
-20 10 1 10.3019 1.7274
-18 10 1 13.9896 3.2539
-16 10 1 -3.7269 -3.2043
-14 10 1 29.0740 -5.4415
-12 10 1 3.5828 3.1094
-10 10 1 36.9996 6.9193
-8 10 1 -3.2479 -1.0757
-6 10 1 -72.3758 -3.5398
-4 10 1 46.0006 3.0200
-2 10 1 -92.0567 0.6640
0 10 1 -6.9942 -3.1990
2 10 1 65.0468 2.9793
4 10 1 18.0993 6.4419
6 10 1 122.7463 -2.4787
8 10 1 -16.2558 -8.5009
10 10 1 -25.8158 -0.5816
12 10 1 -38.0093 4.1905
14 10 1 -18.1351 -1.1888
16 10 1 4.9472 -3.2776
18 10 1 25.1649 1.0992
20 10 1 9.8982 0.1038
22 10 1 0.9958 -2.9722
24 10 1 14.0650 0.4911
26 10 1 28.2623 3.9313
28 10 1 1.8116 0.6995
30 10 1 20.9495 -2.4523
32 10 1 -4.8158 -0.0809
34 10 1 4.9628 1.4713
-35 11 1 7.7836 0.7746
-33 11 1 -8.4798 1.3610
-31 11 1 -16.2641 -1.2939
-29 11 1 -4.5200 -0.4340
-27 11 1 8.2869 1.7394
-25 11 1 0.8034 -0.1607
-23 11 1 4.4374 -3.1573
-21 11 1 -7.4109 2.1535
-19 11 1 -4.6749 6.0813
-17 11 1 40.1196 -0.8382
-15 11 1 -43.1598 -6.1689
-13 11 1 -42.5852 0.8626
-11 11 1 -0.7950 6.1739
-9 11 1 -43.6139 -0.5069
-5 11 1 109.8003 0.5174
-3 11 1 -83.0481 3.4623
-1 11 1 10.7639 -3.4939
1 11 1 -11.0478 -3.9620
3 11 1 -66.0011 5.5944
5 11 1 -50.7838 4.0011
7 11 1 19.8822 -7.0264
9 11 1 10.8677 -4.5642
11 11 1 26.0909 5.8672
13 11 1 12.6878 4.5369
15 11 1 -82.8891 -3.3988
17 11 1 -18.8365 -2.6074
19 11 1 -12.8920 1.9267
21 11 1 9.1201 0.6642
23 11 1 9.2359 -1.8822
25 11 1 9.8349 1.2796
27 11 1 -8.3665 2.5770
29 11 1 4.0691 -1.4977
31 11 1 6.1861 -3.3971
33 11 1 -15.4521 -0.1650
35 11 1 7.2042 1.1759
-34 12 1 -3.6236 0.7848
-32 12 1 -2.2155 -2.1656
-30 12 1 7.6479 -2.0554
-28 12 1 0.1608 1.7829
-26 12 1 2.1896 0.6013
-24 12 1 10.4988 -3.0220
-22 12 1 0.5916 -1.2989
-20 12 1 7.3292 3.0704
-18 12 1 -20.0619 0.0845
-16 12 1 -12.9678 -4.9628
-14 12 1 22.8318 -1.1986
-12 12 1 0.1232 5.6247
-10 12 1 51.2641 2.0840
-8 12 1 46.0236 -3.3281
-6 12 1 5.6106 0.8729
-4 12 1 -43.0351 5.3282
-2 12 1 -37.7623 -0.4298
0 12 1 -107.0705 -4.4026
2 12 1 34.5975 2.1286
4 12 1 16.1424 4.9868
6 12 1 4.3705 -2.2580
8 12 1 31.5483 -6.1030
10 12 1 37.1269 -0.4656
12 12 1 -23.4754 3.0241
14 12 1 38.4755 -0.9434
16 12 1 2.7345 -2.5646
18 12 1 14.0235 1.5269
20 12 1 -3.7815 2.1128
22 12 1 -16.0597 -1.6269
24 12 1 3.9269 -2.2546
26 12 1 10.4824 1.7670
28 12 1 1.5898 2.5466
30 12 1 11.6016 -0.6498
32 12 1 6.6592 -2.2514
34 12 1 9.1684 0.3481
-33 13 1 7.9048 0.2597
-31 13 1 0.9223 0.8537
-29 13 1 12.4717 0.8931
-27 13 1 23.9864 -1.6566
-25 13 1 2.1349 -1.6324
-23 13 1 -3.9725 1.4518
-21 13 1 -13.9490 3.3589
-19 13 1 5.4238 0.9827
-17 13 1 56.2748 -0.9889
-15 13 1 32.1850 -0.5150
-13 13 1 -40.7933 -0.4960
-11 13 1 -46.7049 0.3342
-9 13 1 7.9158 1.4852
-7 13 1 -24.6283 0.7296
-5 13 1 49.7771 -1.8622
-3 13 1 50.3926 -3.6617
-1 13 1 100.9414 -1.1880
1 13 1 -18.7880 2.1977
3 13 1 50.2902 1.2867
5 13 1 -19.7817 -1.1998
7 13 1 46.9998 -1.5461
9 13 1 29.1900 -0.5360
11 13 1 5.7148 -0.3777
13 13 1 -19.9591 1.0646
15 13 1 -15.9427 2.0534
17 13 1 1.7748 -0.2522
19 13 1 -23.4783 -2.7347
21 13 1 -0.7800 -0.6210
23 13 1 -1.1148 1.7263
25 13 1 3.3227 1.0071
27 13 1 4.5920 -0.7912
29 13 1 1.5861 0.0280
31 13 1 29.6642 0.2742
33 13 1 -0.2704 -1.3142
-34 14 1 -14.8531 -1.7061
-32 14 1 -1.5446 1.1739
-30 14 1 17.7742 1.2076
-28 14 1 -8.6838 -0.8389
-26 14 1 36.3061 -0.2716
-24 14 1 8.8492 1.4218
-22 14 1 5.7760 -0.1621
-20 14 1 5.7686 -1.9556
-18 14 1 -31.3885 -0.1099
-16 14 1 -7.2164 2.2853
-14 14 1 7.8834 0.6380
-12 14 1 20.9759 -2.0173
-10 14 1 23.8547 -1.2069
-8 14 1 -9.9281 0.9077
-6 14 1 51.6490 0.4112
-4 14 1 -42.2799 -0.4229
-2 14 1 -6.2346 0.1538
0 14 1 -36.6055 0.8104
2 14 1 2.2892 -0.4269
4 14 1 20.4385 -2.1227
6 14 1 0.3610 0.1033
8 14 1 -25.0790 2.8194
10 14 1 -5.8391 0.5163
12 14 1 -28.0814 -1.9405
14 14 1 31.0239 -0.1605
16 14 1 13.7841 2.0048
18 14 1 -9.2858 0.3632
20 14 1 -1.5325 -0.5726
22 14 1 5.8359 0.3325
24 14 1 1.3532 0.4820
26 14 1 3.7038 -0.7901
28 14 1 -10.7651 -1.0733
30 14 1 -5.2322 0.0682
32 14 1 -7.6546 1.4520
34 14 1 -4.0201 -1.6726
-33 15 1 -9.1460 1.0959
-31 15 1 -11.4904 0.6530
-29 15 1 1.6245 -0.3898
-27 15 1 3.2681 -0.5466
-25 15 1 -0.8955 0.3103
-23 15 1 5.3138 0.0909
-21 15 1 4.1267 -0.6660
-19 15 1 -2.7645 0.1054
-17 15 1 16.8344 0.1248
-15 15 1 5.8005 -0.3002
-13 15 1 -24.2653 -0.9283
-11 15 1 -20.5020 0.0291
-9 15 1 46.1613 0.2253
-7 15 1 -4.8303 -1.2577
-5 15 1 -27.8676 -0.7099
-3 15 1 -47.9994 0.5256
-1 15 1 -29.6007 -0.5469
1 15 1 -26.2723 -0.7596
3 15 1 18.0614 0.1339
5 15 1 -29.7964 0.0692
7 15 1 26.3625 0.1733
9 15 1 108.7995 0.8006
11 15 1 6.9096 0.5462
13 15 1 9.0255 -0.7679
15 15 1 -9.6195 -0.3408
17 15 1 -8.6437 1.1303
19 15 1 -3.1327 0.7415
21 15 1 23.5847 -0.1349
23 15 1 3.8634 0.0335
25 15 1 -16.9036 -0.2062
27 15 1 9.1288 -0.6633
29 15 1 -5.3501 0.2111
31 15 1 10.4602 0.9519
33 15 1 -8.0936 0.1121
-32 16 1 -9.5793 -1.0298
-30 16 1 15.7851 -1.0475
-28 16 1 -28.3001 0.5436
-26 16 1 12.5896 0.8164
-24 16 1 -7.8885 -0.8490
-22 16 1 -0.2282 -0.4330
-20 16 1 2.4810 1.3304
-18 16 1 2.5565 0.2230
-16 16 1 15.1995 -1.0030
-14 16 1 15.6758 0.2271
-12 16 1 19.9658 1.3688
-10 16 1 -1.1812 -0.2557
-8 16 1 28.8530 -2.4908
-6 16 1 9.2096 -0.9523
-4 16 1 -57.9696 1.8377
-2 16 1 -2.6986 0.9067
0 16 1 53.1594 -1.4381
2 16 1 -51.1616 -0.9338
4 16 1 -59.6637 1.0471
6 16 1 21.7810 -0.1495
8 16 1 -17.0276 -1.0012
10 16 1 -8.4552 1.4061
12 16 1 6.9310 2.3422
14 16 1 -4.1046 -0.7057
16 16 1 18.8378 -2.3460
18 16 1 4.6375 0.3482
20 16 1 -34.7636 2.2947
22 16 1 -1.9949 0.3962
24 16 1 4.0119 -1.4457
26 16 1 -0.5162 0.0697
28 16 1 -18.4615 0.6075
30 16 1 -5.6050 -0.8905
32 16 1 1.0352 -0.9569
-33 17 1 1.9913 -0.0013
-31 17 1 -10.9497 -0.7569
-29 17 1 -20.1550 1.8870
-27 17 1 5.9768 0.9571
-25 17 1 -9.1155 -1.5505
-23 17 1 0.5796 -0.6379
-21 17 1 3.7471 0.1991
-19 17 1 -4.8503 -0.5698
-17 17 1 18.5522 -0.6047
-15 17 1 1.4058 1.1047
-13 17 1 -4.5577 0.4014
-11 17 1 -23.2888 -0.9945
-9 17 1 17.7281 -1.3114
-7 17 1 12.1593 -0.6918
-5 17 1 14.8427 1.1032
-3 17 1 -44.1810 1.1050
-1 17 1 -5.3969 -0.6548
1 17 1 18.4883 -1.7445
3 17 1 -7.2716 -0.4264
5 17 1 4.5562 1.4101
7 17 1 17.5187 0.7348
9 17 1 34.3456 0.1794
11 17 1 -27.3745 1.1652
13 17 1 12.7099 0.7252
15 17 1 -7.4291 -1.1497
17 17 1 -5.3835 -0.7634
19 17 1 -2.2619 1.6286
21 17 1 24.7629 1.4218
23 17 1 -1.3170 -1.1037
25 17 1 -1.5325 -2.1110
27 17 1 -10.7670 0.2408
29 17 1 5.5577 0.6374
31 17 1 3.8323 0.2098
33 17 1 8.5204 -0.6276
-32 18 1 -7.9662 0.2342
-30 18 1 6.2047 2.0786
-28 18 1 -8.7455 -0.9081
-26 18 1 -0.0329 -0.8566
-24 18 1 0.1068 0.9193
-22 18 1 4.1872 0.7673
-20 18 1 3.1910 -1.2769
-18 18 1 5.2841 -0.1611
-16 18 1 -18.5791 1.4536
-14 18 1 -13.5184 -0.5632
-12 18 1 5.4692 -1.7390
-10 18 1 -13.5261 0.7176
-8 18 1 19.1443 1.3257
-6 18 1 -10.1772 -0.8438
-4 18 1 -39.5215 -1.4906
-2 18 1 9.2509 0.2550
0 18 1 -50.4322 1.4463
2 18 1 -34.7248 0.0300
4 18 1 -43.4688 -0.6985
6 18 1 22.3814 0.9454
8 18 1 -5.5247 0.6491
10 18 1 11.8071 -1.5115
12 18 1 42.9425 -0.5649
14 18 1 -39.6081 1.7251
16 18 1 -20.2799 0.1661
18 18 1 13.8656 -2.1415
20 18 1 -19.5438 -0.5814
22 18 1 -4.0783 1.3645
24 18 1 -3.9195 -0.0257
26 18 1 -12.1612 -0.8050
28 18 1 -2.0811 0.0940
30 18 1 5.0886 1.0947
32 18 1 -1.1859 0.0424
-31 19 1 -1.1329 2.0925
-29 19 1 0.9303 -0.2180
-27 19 1 -7.0169 -0.7836
-25 19 1 -8.2852 0.4866
-23 19 1 7.6551 0.6121
-21 19 1 3.6653 -1.5104
-19 19 1 7.5980 -0.8242
-17 19 1 0.1773 2.0148
-15 19 1 -6.0495 1.3167
-13 19 1 -7.3095 -1.8384
-11 19 1 -43.0810 -1.6124
-9 19 1 -1.2477 0.9314
-7 19 1 9.4152 1.2335
-5 19 1 -0.1333 -0.4031
-3 19 1 -59.7761 -0.5120
-1 19 1 -1.4441 0.6983
1 19 1 -17.7554 0.2958
3 19 1 -12.1368 -0.6977
5 19 1 14.2598 0.3221
7 19 1 5.4518 1.7316
9 19 1 -15.3149 0.9846
11 19 1 -7.6145 -0.8973
13 19 1 19.4923 -1.0616
15 19 1 -19.5843 0.8024
17 19 1 -3.1960 1.0361
19 19 1 -2.2745 -0.4238
21 19 1 4.2903 -1.1181
23 19 1 4.6285 0.1762
25 19 1 5.8396 0.4634
27 19 1 -2.3889 -0.4757
29 19 1 11.0093 -0.2716
31 19 1 0.3112 1.7038
-30 20 1 -7.4615 0.2684
-28 20 1 7.1143 -0.5227
-26 20 1 4.0146 0.2930
-24 20 1 -15.6571 -0.0617
-22 20 1 -9.1700 -1.1582
-20 20 1 15.9985 -0.4391
-18 20 1 -10.7162 1.5499
-16 20 1 11.9844 0.1579
-14 20 1 -30.1782 -1.6653
-12 20 1 17.9763 -0.7837
-10 20 1 -19.0521 1.1045
-8 20 1 -5.2081 0.6127
-6 20 1 -2.6486 -0.3682
-4 20 1 -28.7194 0.4835
-2 20 1 35.4209 0.1300
0 20 1 7.1274 -0.8582
2 20 1 5.0353 -0.0070
4 20 1 -20.8042 1.5025
6 20 1 -6.5120 0.5544
8 20 1 -0.2600 -1.0070
10 20 1 14.3884 -0.0510
12 20 1 10.3626 0.7580
14 20 1 -23.8063 -0.3905
16 20 1 -4.4369 -0.4989
18 20 1 6.8849 0.5227
20 20 1 8.3454 0.1886
22 20 1 -14.2528 -1.0281
24 20 1 -2.0144 -0.4550
26 20 1 -6.5496 1.0372
28 20 1 6.5853 0.1564
30 20 1 -1.7755 -0.2508
-29 21 1 -2.9946 -0.5782
-27 21 1 -8.3463 1.0939
-25 21 1 -15.8328 -0.4073
-23 21 1 10.8352 -0.9248
-21 21 1 -10.5811 0.5856
-19 21 1 15.5822 1.2886
-17 21 1 -13.0731 -0.5682
-15 21 1 7.8163 -1.0509
-13 21 1 -13.2669 0.9934
-11 21 1 20.0847 1.4535
-9 21 1 7.5110 -0.5119
-7 21 1 8.5869 -1.2972
-5 21 1 -6.1969 1.0478
-3 21 1 -42.1836 1.8566
-1 21 1 -8.2559 -0.8677
1 21 1 1.4365 -1.7886
3 21 1 -33.4662 1.0496
5 21 1 -2.9561 1.9590
7 21 1 22.3840 -1.1056
9 21 1 39.7018 -1.9092
11 21 1 -2.9477 0.9279
13 21 1 19.2357 1.3867
15 21 1 -26.8826 -1.3292
17 21 1 1.8313 -1.4472
19 21 1 -10.0852 1.3180
21 21 1 15.4022 1.0095
23 21 1 -3.1638 -1.4178
25 21 1 -4.8737 -0.9294
27 21 1 -3.3570 1.7663
29 21 1 -1.4742 1.3952
-30 22 1 4.2513 0.1505
-28 22 1 18.6469 0.7794
-26 22 1 9.3871 -0.4163
-24 22 1 -7.5873 -0.9790
-22 22 1 -4.3949 0.0489
-20 22 1 10.3380 0.9908
-18 22 1 -26.6917 -0.0003
-16 22 1 0.8975 -0.6567
-14 22 1 -26.5184 0.5649
-12 22 1 15.4856 1.0898
-10 22 1 12.9422 -0.4773
-8 22 1 21.5625 -1.0286
-6 22 1 6.3096 0.4797
-4 22 1 -7.3672 1.4137
-2 22 1 -7.7302 0.5432
0 22 1 4.9473 -0.8490
2 22 1 6.8376 -1.0480
4 22 1 19.0686 0.4969
6 22 1 25.7373 1.0684
8 22 1 -2.6054 -0.2865
10 22 1 -21.0448 -1.0854
12 22 1 15.5082 -0.2705
14 22 1 6.8190 0.2583
16 22 1 -3.3516 -0.7453
18 22 1 -4.8843 -1.0535
20 22 1 5.1805 0.7395
22 22 1 6.1559 0.8150
24 22 1 -2.1299 -0.5859
26 22 1 2.6271 -0.8684
28 22 1 7.3650 0.7822
30 22 1 5.7754 1.3169
-29 23 1 0.0116 1.2873
-27 23 1 0.6210 -0.2536
-25 23 1 2.4423 -0.4955
-23 23 1 4.3564 1.2375
-21 23 1 -1.3816 0.2621
-19 23 1 8.1985 -1.4969
-17 23 1 -0.6676 -0.5762
-15 23 1 7.9985 1.7123
-13 23 1 -0.6331 1.0569
-11 23 1 36.1669 -0.9842
-9 23 1 -11.6018 -0.3836
-7 23 1 9.8963 0.8573
-5 23 1 10.2603 -0.2057
-3 23 1 -20.2961 -0.6399
-1 23 1 -6.8820 1.3554
1 23 1 3.2113 1.4490
3 23 1 -28.5447 -1.4780
5 23 1 6.4341 -1.8190
7 23 1 -24.3810 0.7012
9 23 1 14.7345 0.8852
11 23 1 4.8307 -1.2390
13 23 1 -7.1178 -0.8219
15 23 1 -19.2874 1.0119
17 23 1 2.8712 0.1395
19 23 1 -5.5464 -1.6971
21 23 1 -5.4042 0.0811
23 23 1 -11.1652 1.6364
25 23 1 -17.3297 -0.0875
27 23 1 0.5526 -0.6802
29 23 1 -7.9395 0.8839
-28 24 1 5.2380 -1.1552
-26 24 1 -7.8678 -0.2576
-24 24 1 -9.2069 2.0227
-22 24 1 0.7638 0.1034
-20 24 1 4.9429 -1.9153
-18 24 1 5.5509 -0.3846
-16 24 1 -13.3676 2.0865
-14 24 1 -12.1973 0.8999
-12 24 1 -5.1849 -1.3511
-10 24 1 -10.2240 -0.4572
-8 24 1 7.7654 1.3483
-6 24 1 -11.4783 0.2137
-4 24 1 -28.3618 -1.5214
-2 24 1 3.7552 -0.4033
0 24 1 8.1608 1.1851
2 24 1 8.3787 -0.3911
4 24 1 2.7363 -1.8697
6 24 1 6.0298 0.0043
8 24 1 -3.6843 2.1372
10 24 1 -12.8615 0.2175
12 24 1 31.3095 -2.3461
14 24 1 -8.1872 -0.8512
16 24 1 0.2931 2.1677
18 24 1 -13.6613 1.0811
20 24 1 2.8191 -1.2494
22 24 1 7.5428 -0.6933
24 24 1 -18.6009 1.6332
26 24 1 -16.4445 0.5314
28 24 1 -10.9703 0.3172
-27 25 1 -3.8485 0.5714
-25 25 1 3.2063 0.0813
-23 25 1 4.6788 0.3184
-21 25 1 10.7535 -0.4378
-19 25 1 -16.9642 -0.1972
-17 25 1 -10.6783 0.6001
-15 25 1 7.1611 0.1953
-13 25 1 0.8520 -0.4838
-11 25 1 -12.0786 0.0599
-9 25 1 -23.1612 0.4815
-7 25 1 0.5741 0.1195
-5 25 1 -2.7192 -0.6226
-3 25 1 -2.5535 -0.1432
-1 25 1 6.1853 0.6755
1 25 1 7.8822 0.6304
3 25 1 -8.4105 -0.6324
5 25 1 20.1074 -0.7462
7 25 1 -21.8624 -0.2858
9 25 1 -13.7406 0.2013
11 25 1 4.0950 0.3723
13 25 1 15.0508 0.1241
15 25 1 1.7078 -0.0401
17 25 1 1.6026 -0.2909
19 25 1 2.8771 0.0260
21 25 1 -10.5862 -0.0691
23 25 1 7.4526 0.1264
25 25 1 -8.2055 0.7021
27 25 1 8.3045 0.6558
-26 26 1 -13.6135 0.5621
-24 26 1 -2.6921 0.0709
-22 26 1 -2.2765 -0.1311
-20 26 1 -2.9765 0.2128
-18 26 1 2.5859 0.0273
-16 26 1 3.1763 -0.4956
-14 26 1 -11.7048 -0.2580
-12 26 1 -2.3291 0.4338
-10 26 1 0.5511 0.2338
-8 26 1 4.4639 -0.6085
-6 26 1 -6.7137 -1.0257
-4 26 1 -12.1935 -0.1634
-2 26 1 -1.7458 0.3660
0 26 1 8.5114 -0.4837
2 26 1 -5.1625 -0.7263
4 26 1 4.8829 0.1768
6 26 1 -12.5286 0.3556
8 26 1 -6.0821 -0.7028
10 26 1 0.6321 -0.7174
12 26 1 12.2102 0.7710
14 26 1 10.9022 0.9334
16 26 1 7.4956 -0.4547
18 26 1 -1.9377 -0.2333
20 26 1 -10.6330 0.8956
22 26 1 1.1233 0.3939
24 26 1 9.5734 -0.1176
26 26 1 -5.3974 -0.4054
-25 27 1 -1.7832 -0.9141
-23 27 1 -0.4682 0.5672
-21 27 1 5.3057 0.9141
-19 27 1 -11.2027 0.0595
-17 27 1 -6.0542 -0.9521
-15 27 1 8.7011 -0.0777
-13 27 1 33.7537 0.2582
-11 27 1 -5.2905 0.0783
-9 27 1 -8.1270 0.1212
-7 27 1 -8.2526 -0.0840
-5 27 1 -3.1650 -0.2487
-3 27 1 1.0445 -0.4636
-1 27 1 -3.5879 0.0684
1 27 1 8.3633 0.3259
3 27 1 20.0964 0.3937
5 27 1 5.7767 0.1012
7 27 1 2.6476 -0.3205
9 27 1 4.4759 -0.4169
11 27 1 11.4872 -0.2008
13 27 1 -5.1332 0.8627
15 27 1 4.8824 0.6911
17 27 1 15.1257 -0.7593
19 27 1 13.2175 -0.5400
21 27 1 1.6101 0.6594
23 27 1 4.5115 0.7951
25 27 1 -5.4433 -0.0636
-24 28 1 -4.8295 1.3552
-22 28 1 -1.8784 0.2671
-20 28 1 -8.8028 -0.6433
-18 28 1 1.6172 -0.1173
-16 28 1 7.8758 1.1647
-14 28 1 -5.7028 -0.1568
-12 28 1 -5.2631 -1.5006
-10 28 1 4.3541 0.0020
-8 28 1 13.3996 1.5189
-6 28 1 3.3598 -0.1504
-4 28 1 5.0824 -1.6487
-2 28 1 3.6036 -0.1682
0 28 1 13.2852 1.2274
2 28 1 -6.1416 -0.1757
4 28 1 14.1944 -1.0883
6 28 1 19.5617 0.4827
8 28 1 -0.2228 0.7889
10 28 1 -14.8363 -0.2642
12 28 1 2.9549 -0.1165
14 28 1 44.3856 1.0551
16 28 1 -22.5779 0.3447
18 28 1 -12.1604 -0.4335
20 28 1 -20.5463 -0.2971
22 28 1 2.1371 -0.2059
24 28 1 1.4846 1.6415
-23 29 1 0.1581 0.3924
-21 29 1 -2.8877 -0.6180
-19 29 1 -30.7882 -0.2761
-17 29 1 -23.6515 0.7669
-15 29 1 9.0729 0.2293
-13 29 1 3.0423 -1.6057
-11 29 1 -15.6022 -0.5113
-9 29 1 3.9632 1.2209
-7 29 1 -11.0618 0.2756
-5 29 1 16.2921 -1.2438
-3 29 1 -2.8667 -0.7250
-1 29 1 13.9538 0.9088
1 29 1 -23.5908 0.9184
3 29 1 25.9265 -0.2697
5 29 1 -16.1020 0.0684
7 29 1 -14.8198 0.6110
9 29 1 -4.2764 0.2675
11 29 1 -4.7646 -0.5019
13 29 1 -20.7210 -0.1480
15 29 1 10.6390 0.8214
17 29 1 0.6457 0.9860
19 29 1 -9.6683 -0.3096
21 29 1 -3.1325 -0.6649
23 29 1 13.8148 0.1237
-22 30 1 2.0089 -1.4379
-20 30 1 -6.4892 0.4477
-18 30 1 1.3773 1.0433
-16 30 1 -8.4456 0.1085
-14 30 1 1.4842 -1.3739
-12 30 1 12.2707 -0.4638
-10 30 1 -13.3636 1.0145
-8 30 1 7.4412 0.3927
-6 30 1 -23.5624 -0.8846
-4 30 1 -3.6498 -0.2350
-2 30 1 1.2873 0.4115
0 30 1 -12.0581 0.2482
2 30 1 -0.2780 -0.1762
4 30 1 -14.3818 -0.2193
6 30 1 -16.0863 0.1636
8 30 1 3.7861 -0.0071
10 30 1 -9.6970 -0.1487
12 30 1 -3.8376 0.5334
14 30 1 4.4496 0.6831
16 30 1 -16.3170 -0.2087
18 30 1 -11.1097 -0.5661
20 30 1 -10.9953 0.8095
22 30 1 7.3067 0.5086
-21 31 1 10.1276 1.0333
-19 31 1 3.0340 1.5747
-17 31 1 9.3622 -0.7021
-15 31 1 0.1517 -0.3487
-13 31 1 -8.6511 0.2361
-11 31 1 -3.2598 0.3615
-9 31 1 -5.7793 -0.3318
-7 31 1 -13.3727 -0.5651
-5 31 1 5.8400 0.3551
-3 31 1 10.4597 0.8068
-1 31 1 20.6502 -0.2011
1 31 1 -13.7312 -0.6880
3 31 1 13.3549 0.1320
5 31 1 -10.7015 0.9982
7 31 1 5.4842 0.4519
9 31 1 -3.1325 -0.1797
11 31 1 -5.3748 0.0944
13 31 1 -18.4968 0.0987
15 31 1 9.5595 -0.5267
17 31 1 2.2197 -0.6479
19 31 1 -2.2402 1.0700
21 31 1 4.6952 0.6066
-18 32 1 -6.2249 -0.0721
-16 32 1 4.5750 -0.4115
-14 32 1 3.2621 0.2758
-12 32 1 2.4083 0.0008
-10 32 1 -2.8044 -0.3538
-8 32 1 -4.2816 0.3902
-6 32 1 -6.7165 0.4082
-4 32 1 -3.8840 -0.0530
-2 32 1 -10.4543 0.3093
0 32 1 -9.4259 0.5014
2 32 1 -3.1899 -0.1149
4 32 1 8.0584 -0.2145
6 32 1 -2.8295 0.5401
8 32 1 11.7126 0.0884
10 32 1 -9.3250 -0.3153
12 32 1 -1.8347 0.0166
14 32 1 -1.2008 0.9117
16 32 1 -1.6870 -0.6614
18 32 1 2.8603 -0.9151
-17 33 1 14.4373 0.3762
-15 33 1 -14.8412 1.2227
-13 33 1 4.7714 -0.0804
-11 33 1 -2.4640 -0.9778
-9 33 1 8.8015 0.2049
-7 33 1 -6.3407 0.9266
-5 33 1 -8.2408 -0.2952
-3 33 1 6.6329 -0.2715
-1 33 1 -1.7984 0.7372
1 33 1 0.3240 0.3859
3 33 1 2.2844 -1.0652
5 33 1 -2.2281 -0.5017
7 33 1 5.4963 0.8286
9 33 1 -0.2744 0.7303
11 33 1 19.6952 -0.8611
13 33 1 -6.0898 -1.0746
15 33 1 -7.3889 0.4994
17 33 1 3.2347 0.2557
-16 34 1 11.4340 1.3439
-14 34 1 -6.6511 0.8859
-12 34 1 -0.0796 -1.8391
-10 34 1 9.3453 -0.1315
-8 34 1 -12.3937 1.5568
-6 34 1 4.1200 0.1504
-4 34 1 6.1973 -1.1429
-2 34 1 -10.8573 0.3222
0 34 1 -6.9076 1.3321
2 34 1 -8.0458 -0.1274
4 34 1 1.9665 -1.1223
6 34 1 0.9333 0.1887
8 34 1 -6.1094 1.1748
10 34 1 -0.8461 -0.1335
12 34 1 15.3917 -2.1046
14 34 1 -2.2249 0.1557
-13 35 1 -7.9559 -0.5937
-11 35 1 -9.5463 -0.2151
-9 35 1 17.4130 1.2565
-7 35 1 -2.9961 0.4475
-5 35 1 2.4951 -0.9606
-3 35 1 -9.8537 -0.7808
-1 35 1 11.7713 0.3961
1 35 1 -11.0472 0.3936
3 35 1 -13.6325 -0.6135
5 35 1 11.2481 -0.6617
7 35 1 -12.3132 0.4083
9 35 1 1.8483 0.3240
11 35 1 5.8951 -0.8101
13 35 1 8.3643 -1.2814
-10 36 1 -1.9889 -0.4266
-8 36 1 -1.0034 0.0825
-6 36 1 7.4461 0.1485
-4 36 1 -2.6265 0.0312
-2 36 1 -4.1565 0.2201
0 36 1 0.3161 -0.3124
2 36 1 0.1065 -0.4529
4 36 1 -0.1925 0.0847
6 36 1 0.9085 -0.1935
8 36 1 7.4536 -0.8379
10 36 1 -1.8431 0.0233
-7 37 1 2.3852 -0.4414
-5 37 1 17.7982 -0.3220
-3 37 1 -12.1074 -0.4752
-1 37 1 12.2231 -1.0296
1 37 1 -1.6660 -1.0056
3 37 1 -5.8157 0.0283
5 37 1 4.3974 0.4528
7 37 1 -0.9556 -0.6195
-36 0 2 -18.4498 -4.3795
-34 0 2 -1.3349 -7.3627
-32 0 2 -11.4504 3.7671
-30 0 2 -15.7243 12.3979
-28 0 2 15.3214 -2.2903
-26 0 2 27.9066 -16.7806
-24 0 2 3.5240 -7.7513
-22 0 2 -22.0999 7.3802
-20 0 2 -31.4934 12.2798
-18 0 2 19.9540 15.3527
-16 0 2 -53.7579 16.7494
-14 0 2 39.4089 5.5226
-12 0 2 110.9584 -0.6689
-10 0 2 -94.1388 17.5507
-8 0 2 62.7548 38.8622
-6 0 2 -580.8267 40.3498
-4 0 2 134.1034 11.0299
-2 0 2 -385.4906 -24.9057
4 0 2 -42.0263 -14.5624
8 0 2 -59.3697 -18.4059
10 0 2 -53.2213 -37.3748
12 0 2 -207.5136 -39.4346
14 0 2 -44.2923 -6.3649
16 0 2 -84.7230 15.2686
18 0 2 -9.6735 1.0062
20 0 2 14.7565 -10.8614
22 0 2 -11.7292 -0.5580
24 0 2 -11.2518 6.2220
26 0 2 -1.0355 0.1674
28 0 2 -9.3441 2.1275
30 0 2 -29.9530 9.5805
32 0 2 -0.7662 2.4523
34 0 2 19.3549 -7.8393
36 0 2 6.4455 -3.8586
-37 1 2 -4.1716 -0.5561
-35 1 2 11.2027 -6.0201
-33 1 2 -24.8010 -2.0370
-31 1 2 23.0577 8.2140
-29 1 2 17.0065 2.3072
-27 1 2 12.4168 -8.3737
-25 1 2 -2.8592 1.9579
-23 1 2 -36.7065 11.4297
-21 1 2 35.2709 -6.8906
-19 1 2 4.6695 -15.3488
-17 1 2 26.4046 14.8949
-15 1 2 63.2364 25.2452
-13 1 2 43.0723 -15.2116
-11 1 2 -5.1150 -32.2383
-9 1 2 -43.0035 4.3699
-7 1 2 -108.7158 15.1331
-5 1 2 -16.5672 -15.2862
-1 1 2 -157.7287 18.4641
3 1 2 -36.7451 -23.7351
5 1 2 -114.8759 -17.1301
7 1 2 56.9806 40.8940
9 1 2 -17.5618 32.4333
11 1 2 63.7468 -21.2612
13 1 2 8.2032 -18.7414
15 1 2 -9.6964 16.4130
17 1 2 -34.9270 5.4935
19 1 2 -50.5616 -19.2987
21 1 2 -29.1356 -3.1504
23 1 2 24.6820 14.8950
25 1 2 -17.7701 -3.2790
27 1 2 -19.4655 -18.5155
29 1 2 -0.8768 -1.3984
31 1 2 13.8970 13.2782
33 1 2 0.5805 2.0100
35 1 2 4.0741 -6.6101
-36 2 2 -3.9483 0.1969
-34 2 2 1.7146 -2.2820
-32 2 2 12.8654 0.2536
-30 2 2 1.6734 -0.8759
-28 2 2 -9.8422 -1.7436
-26 2 2 13.9651 3.5725
-24 2 2 -3.3011 5.3304
-22 2 2 -11.6952 -6.4936
-20 2 2 13.9702 -12.3737
-18 2 2 7.1818 -0.0088
-16 2 2 15.9442 9.9482
-14 2 2 -34.3928 3.8032
-12 2 2 -9.9726 0.8132
-8 2 2 82.1981 2.5562
-6 2 2 24.1564 -5.9803
-4 2 2 240.7454 7.1026
-2 2 2 572.6880 13.6522
0 2 2 173.4598 -1.7799
2 2 2 67.4825 -9.4598
6 2 2 -68.7781 -3.9921
8 2 2 19.1251 -3.0183
10 2 2 -3.0617 1.2831
12 2 2 -33.2799 0.4585
14 2 2 -27.0254 -1.8842
16 2 2 -7.4124 0.0763
18 2 2 19.8293 3.5112
20 2 2 17.1004 2.7694
22 2 2 -16.2292 1.7097
24 2 2 9.7091 1.2053
26 2 2 3.6865 0.1074
28 2 2 19.1320 -1.3232
30 2 2 0.8937 -0.5530
32 2 2 -9.3311 0.8368
34 2 2 -5.2760 0.1753
36 2 2 -7.1943 -1.1793
-37 3 2 -4.0292 -2.3076
-35 3 2 9.9038 3.2599
-33 3 2 6.8265 2.1492
-31 3 2 -5.0656 -1.7001
-29 3 2 0.1231 -1.3211
-27 3 2 13.8862 -0.5641
-25 3 2 -10.6372 -2.7259
-23 3 2 -17.7128 -0.2840
-21 3 2 18.0759 9.1654
-19 3 2 -1.9045 8.5359
-17 3 2 -31.6270 -4.2780
-15 3 2 4.3585 -7.4756
-13 3 2 39.9827 4.2343
-11 3 2 -3.2880 8.1455
-9 3 2 119.5723 -0.6704
-5 3 2 46.9128 2.5153
-3 3 2 -32.6208 -8.0441
1 3 2 -371.6968 6.7812
3 3 2 212.9788 0.4021
5 3 2 86.4238 -7.3007
7 3 2 -266.0179 -0.9314
9 3 2 55.5783 -0.0508
11 3 2 -36.6751 -3.7804
13 3 2 -58.3868 0.1884
15 3 2 32.0119 3.0225
17 3 2 -21.9697 -2.7848
19 3 2 21.7116 -4.9223
21 3 2 8.0778 1.2859
23 3 2 6.0608 3.1434
25 3 2 0.9422 -0.8979
27 3 2 -0.3408 -1.9344
29 3 2 -12.7790 1.0226
31 3 2 -6.7309 0.9712
33 3 2 -1.8638 0.4795
35 3 2 -10.2422 0.2260
-36 4 2 -2.9678 0.6425
-34 4 2 4.1902 -0.8686
-32 4 2 17.5077 -0.4816
-30 4 2 0.9627 0.0022
-28 4 2 -7.2434 -0.1103
-26 4 2 13.3120 0.7208
-24 4 2 -1.7288 1.6846
-22 4 2 16.7905 0.1868
-20 4 2 0.3035 -4.4909
-18 4 2 -1.6097 -4.9146
-16 4 2 17.4484 2.0077
-14 4 2 -23.1533 5.3736
-12 4 2 87.9163 0.6409
-10 4 2 12.9101 -2.3019
-8 4 2 -90.7419 -0.4351
-6 4 2 340.1355 -0.6401
-4 4 2 -88.6113 -0.3965
-2 4 2 245.7244 5.6657
2 4 2 -18.4156 -0.4075
6 4 2 162.7067 -2.6397
8 4 2 44.1967 8.0460
10 4 2 -32.3519 1.7898
12 4 2 0.9317 -3.9384
14 4 2 -40.6795 0.1120
16 4 2 -5.9523 -0.5609
18 4 2 4.2196 -6.3485
20 4 2 -15.8957 -2.3426
22 4 2 2.9268 5.6018
24 4 2 7.6765 2.2997
26 4 2 -12.6348 -4.8275
28 4 2 8.9366 -3.3672
30 4 2 -16.0719 2.6000
32 4 2 0.4393 1.6018
34 4 2 -12.4968 -1.6581
36 4 2 -8.5207 0.1218
-35 5 2 5.7190 -1.0304
-33 5 2 -10.9393 -2.9504
-31 5 2 -9.4593 2.8027
-29 5 2 6.0276 2.0037
-27 5 2 21.6183 -5.1024
-25 5 2 9.7356 -2.0341
-23 5 2 -31.6821 8.8204
-21 5 2 -0.4555 4.7358
-19 5 2 12.6104 -9.0797
-17 5 2 -0.8238 -4.8721
-15 5 2 47.4025 9.0010
-13 5 2 -86.2171 2.7841
-11 5 2 -29.4655 -9.9004
-9 5 2 70.5203 -0.1090
-7 5 2 -50.1460 8.0787
-5 5 2 -11.8386 -9.2437
-3 5 2 -67.2670 -16.2978
-1 5 2 -118.8431 5.6638
1 5 2 46.6495 15.6341
3 5 2 224.3270 -5.6968
5 5 2 77.2488 -15.6747
7 5 2 -169.1213 4.0836
9 5 2 30.9682 12.9320
11 5 2 24.3274 -2.5254
13 5 2 -4.3125 -3.8555
15 5 2 42.1115 10.2196
17 5 2 28.6714 4.4872
19 5 2 7.3737 -10.3628
21 5 2 -0.9079 -3.3613
23 5 2 -29.5151 9.8883
25 5 2 13.2772 4.2695
27 5 2 1.3718 -6.2849
29 5 2 -6.5480 -3.5511
31 5 2 -10.9020 2.7012
33 5 2 11.1151 0.0581
35 5 2 -0.3453 -1.5277
-36 6 2 2.2422 -1.3342
-34 6 2 -6.4010 0.2622
-32 6 2 -6.2313 3.4419
-30 6 2 -12.3768 0.5465
-28 6 2 -31.1285 -4.5882
-26 6 2 -13.5986 -2.5838
-24 6 2 4.9939 4.3478
-22 6 2 9.8134 3.2326
-20 6 2 -1.1786 -2.7259
-18 6 2 -7.3616 -1.2601
-16 6 2 -5.4138 3.5278
-14 6 2 -24.2597 -1.5021
-12 6 2 7.9731 -6.4793
-10 6 2 -24.4187 2.3023
-8 6 2 -107.2930 9.3926
-6 6 2 9.0924 0.8941
-4 6 2 -54.7694 -9.1271
-2 6 2 -30.5704 -3.3113
0 6 2 128.8756 6.9084
2 6 2 -56.4772 3.0063
4 6 2 63.3814 -2.3877
6 6 2 -33.8935 3.4685
8 6 2 -39.3071 5.8916
10 6 2 84.5414 -3.0707
12 6 2 -22.1383 -6.7737
14 6 2 16.7376 2.2613
16 6 2 -17.2664 7.1146
18 6 2 20.2526 -0.0286
20 6 2 -8.4071 -5.5711
22 6 2 1.1255 -1.7805
24 6 2 -1.4622 1.4104
26 6 2 -8.4439 -1.0801
28 6 2 -1.4041 -1.0860
30 6 2 0.5867 2.2718
32 6 2 14.3867 2.9447
34 6 2 -6.4679 -0.7785
36 6 2 -8.7324 -2.5031
-35 7 2 -2.6654 -0.9702
-33 7 2 -19.1555 0.3488
-31 7 2 4.4843 1.0839
-29 7 2 2.1215 0.6706
-27 7 2 6.9494 2.3801
-25 7 2 -5.4674 0.5329
-23 7 2 -2.3226 -3.6738
-21 7 2 3.8258 -2.5663
-19 7 2 -11.4739 2.8908
-17 7 2 17.5866 1.9934
-15 7 2 -45.1575 -3.1480
-13 7 2 -12.2063 -2.7055
-11 7 2 43.3662 1.2232
-9 7 2 52.9146 -1.2210
-7 7 2 -13.6358 -2.9176
-5 7 2 -79.6257 4.5458
-3 7 2 -100.4177 3.8114
1 7 2 -68.5983 -4.0898
3 7 2 240.6578 3.8185
5 7 2 180.8727 3.8746
7 7 2 133.1677 -3.3880
9 7 2 -53.6327 -2.9912
11 7 2 -90.7407 1.9245
13 7 2 25.9471 0.8134
15 7 2 -12.5395 -1.8764
17 7 2 27.2015 0.5587
19 7 2 -9.1800 2.1674
21 7 2 -1.9612 -1.2938
23 7 2 -12.1747 -2.6809
25 7 2 -18.1252 1.5685
27 7 2 10.0127 3.1163
29 7 2 -10.3333 -0.6853
31 7 2 -2.1183 -1.8027
33 7 2 5.3984 -0.6136
35 7 2 5.2698 1.5017
-36 8 2 5.7499 -0.5198
-34 8 2 -0.1646 2.1268
-32 8 2 -1.5860 -1.2012
-30 8 2 -8.5424 -0.6662
-28 8 2 0.7454 1.2114
-26 8 2 -17.5932 0.0703
-24 8 2 -4.6498 -4.3298
-22 8 2 -14.2175 -1.8146
-20 8 2 7.5941 5.0859
-18 8 2 -0.9295 3.4230
-16 8 2 44.8109 -5.3581
-14 8 2 22.9181 -6.3153
-10 8 2 -5.3815 2.0696
-8 8 2 -112.2144 -1.3395
-6 8 2 -39.6299 0.1589
-2 8 2 42.0613 -1.9221
0 8 2 174.5553 -5.8595
2 8 2 -76.1859 3.2446
4 8 2 -24.1827 11.1100
6 8 2 -27.7787 5.3757
8 8 2 -63.5907 -4.7514
10 8 2 -43.0320 -3.3727
12 8 2 -4.3992 4.1505
14 8 2 3.2318 2.9847
16 8 2 -27.0781 -1.8892
18 8 2 22.7531 0.1777
20 8 2 19.1342 1.8070
22 8 2 -7.3780 -3.3510
24 8 2 -4.8463 -4.0741
26 8 2 5.2875 1.8244
28 8 2 -9.8263 3.6815
30 8 2 8.4900 -1.2358
32 8 2 1.7795 -3.0187
34 8 2 -2.3991 0.7427
36 8 2 -9.4964 1.1763
-35 9 2 12.2186 1.3952
-33 9 2 10.9930 -0.9868
-31 9 2 3.3688 -0.2946
-29 9 2 -21.3178 1.4217
-27 9 2 16.3709 1.4907
-25 9 2 10.3224 -1.8176
-23 9 2 1.9185 -2.2008
-21 9 2 7.9509 0.6594
-19 9 2 3.6959 2.7678
-17 9 2 21.8556 2.0904
-15 9 2 7.0458 1.2090
-13 9 2 -10.9336 0.0994
-11 9 2 -6.5698 -0.7607
-9 9 2 227.8595 1.1232
-7 9 2 79.2250 3.1587
-5 9 2 18.7192 1.8484
-3 9 2 54.6707 -1.4540
-1 9 2 114.5385 -1.6790
1 9 2 -52.6027 -3.2003
3 9 2 -54.6276 -3.3690
5 9 2 -69.5600 1.2524
7 9 2 46.9851 1.0019
9 9 2 30.0492 -2.6011
11 9 2 -30.1255 -3.3916
13 9 2 51.5258 -0.4860
15 9 2 -7.4395 1.2275
17 9 2 -6.4133 0.2986
19 9 2 6.6400 0.1976
21 9 2 -0.9610 0.1365
23 9 2 9.6077 -0.2141
25 9 2 7.9692 -0.7978
27 9 2 -3.1471 1.0458
29 9 2 -10.5859 1.4897
31 9 2 -3.4714 0.3689
33 9 2 0.3191 -0.9314
35 9 2 -1.8729 0.2219
-34 10 2 -12.5629 -1.4323
-32 10 2 2.4312 1.2213
-30 10 2 14.8093 2.7104
-28 10 2 2.2042 0.8728
-26 10 2 10.3276 -1.5732
-24 10 2 5.1135 -0.3137
-22 10 2 4.4987 1.6252
-20 10 2 -54.9610 0.0043
-18 10 2 -32.9064 -0.6180
-16 10 2 18.6394 0.2926
-14 10 2 56.8704 -1.2858
-12 10 2 29.4016 -4.4748
-10 10 2 16.7485 -3.4741
-8 10 2 -46.8481 0.8145
-6 10 2 -84.2109 1.5171
-4 10 2 0.6991 -3.0213
-2 10 2 75.7351 -3.8987
0 10 2 -0.5375 2.8776
4 10 2 -39.4577 -0.6739
6 10 2 -33.3039 0.0802
8 10 2 54.4472 2.9977
10 10 2 -49.4485 0.7808
12 10 2 15.9397 -1.6637
14 10 2 -15.8233 0.6276
16 10 2 -48.5154 2.5022
18 10 2 -18.6122 -0.6707
20 10 2 -10.2442 -3.4605
22 10 2 0.1869 -0.9899
24 10 2 -22.5874 2.6168
26 10 2 2.4391 1.4310
28 10 2 -3.0256 -1.2439
30 10 2 9.7727 -0.6214
32 10 2 1.8045 0.7076
34 10 2 -2.4025 1.1239
-35 11 2 -2.6665 0.2990
-33 11 2 1.3361 0.1240
-31 11 2 -9.0115 -0.0767
-29 11 2 -6.9245 -1.6704
-27 11 2 18.6980 -0.3981
-25 11 2 14.7165 0.8224
-23 11 2 5.5547 -0.8270
-21 11 2 -8.3109 -1.4444
-19 11 2 23.7068 0.5804
-17 11 2 8.3036 0.9582
-15 11 2 13.3128 0.1172
-13 11 2 -35.3796 1.3085
-11 11 2 -50.8731 2.2839
-9 11 2 59.5740 0.4265
-7 11 2 -0.8102 0.6397
-5 11 2 40.9511 2.5573
-3 11 2 66.2965 1.1488
-1 11 2 120.6365 -0.6427
1 11 2 -95.7754 -0.3539
3 11 2 32.3658 -0.2133
5 11 2 68.5786 -1.6048
7 11 2 -4.9699 -1.5283
9 11 2 -37.7155 1.2692
11 11 2 23.8564 0.4266
13 11 2 -31.6340 -2.8485
15 11 2 -17.3543 -1.4971
17 11 2 8.4538 1.7689
19 11 2 -3.4329 1.1968
21 11 2 25.3359 -1.1834
23 11 2 7.0356 0.1297
25 11 2 -11.8547 1.2336
27 11 2 -14.5386 -0.5076
29 11 2 2.7880 -1.4895
31 11 2 -16.8555 1.6399
33 11 2 10.1121 0.9717
35 11 2 -8.9765 1.1825
-34 12 2 7.7941 1.9580
-32 12 2 8.4936 0.5754
-30 12 2 19.8036 -0.8343
-28 12 2 1.2068 1.1084
-26 12 2 17.6582 1.6200
-24 12 2 -8.6901 -1.8575
-22 12 2 9.3176 -1.7439
-20 12 2 -8.0341 2.7829
-18 12 2 -24.5349 1.5472
-16 12 2 16.3929 -3.0881
-14 12 2 15.2049 -0.5797
-12 12 2 20.2142 4.5634
-10 12 2 90.7117 0.1518
-8 12 2 66.0813 -5.2201
-6 12 2 71.4631 -0.0907
-4 12 2 -32.8776 3.7995
-2 12 2 63.3119 -0.6250
0 12 2 15.3241 -2.8218
2 12 2 -102.9153 1.0977
4 12 2 -21.1776 1.7064
6 12 2 -33.8544 -2.4796
8 12 2 24.3257 -2.9192
10 12 2 4.3061 2.2534
12 12 2 67.2303 3.0726
14 12 2 23.6761 -1.8745
16 12 2 0.1146 -3.4321
18 12 2 7.1657 0.9364
20 12 2 10.3786 2.1406
22 12 2 2.7701 -0.1504
24 12 2 -10.3489 -0.1063
26 12 2 3.2048 1.3156
28 12 2 10.0034 0.0274
30 12 2 -3.7015 -1.4123
32 12 2 -1.5717 0.8245
34 12 2 3.6142 2.4031
-33 13 2 -1.0644 -0.7910
-31 13 2 -1.7048 -2.7459
-29 13 2 -7.5094 1.0149
-27 13 2 -8.0734 3.1398
-25 13 2 19.1929 -0.8155
-23 13 2 -6.8349 -1.9714
-21 13 2 -27.0926 2.4029
-19 13 2 -21.2056 2.1993
-17 13 2 9.7818 -2.8580
-15 13 2 4.1208 -1.8132
-13 13 2 -12.0190 4.2532
-11 13 2 -5.6801 2.3876
-9 13 2 60.4602 -3.3255
-7 13 2 13.1575 -2.4317
-5 13 2 -47.6890 1.8898
-3 13 2 37.3337 1.6114
-1 13 2 84.3079 -1.7418
1 13 2 -14.4673 -0.8662
3 13 2 7.9168 1.7673
5 13 2 -77.2991 -0.7014
7 13 2 -37.2828 -3.6200
9 13 2 -10.8205 -0.4976
11 13 2 16.1437 2.8173
13 13 2 -15.0246 0.5378
15 13 2 22.0642 -2.5131
17 13 2 5.7158 -1.2294
19 13 2 -38.6980 0.8259
21 13 2 -2.4376 0.5259
23 13 2 -2.7473 -0.6408
25 13 2 -9.9831 -0.3029
27 13 2 -3.7238 0.1079
29 13 2 -11.9268 -0.0629
31 13 2 -11.6441 -0.8331
33 13 2 2.6624 -0.4979
-34 14 2 -2.5206 -1.5009
-32 14 2 -1.0989 -2.1854
-30 14 2 20.4157 -0.7680
-28 14 2 -14.4260 0.5976
-26 14 2 -13.8291 -0.2952
-24 14 2 8.0270 0.2845
-22 14 2 24.5959 0.5845
-20 14 2 -4.8994 -0.6884
-18 14 2 -2.4141 -2.3352
-16 14 2 22.8683 0.5265
-14 14 2 2.0555 3.6191
-12 14 2 -6.7320 2.0594
-10 14 2 35.5751 -1.0086
-8 14 2 -34.2161 -1.4758
-6 14 2 8.0677 -0.1682
-4 14 2 -18.8885 0.1846
-2 14 2 -32.6511 0.7380
0 14 2 7.0858 1.5818
2 14 2 -30.9304 -0.8131
4 14 2 34.3516 -3.7847
6 14 2 56.7020 -2.4615
8 14 2 2.9341 1.1085
10 14 2 -2.8036 2.3712
12 14 2 14.0122 -0.0745
14 14 2 -50.8797 -1.4843
16 14 2 5.9022 -0.5236
18 14 2 18.7295 0.0758
20 14 2 2.3587 0.2527
22 14 2 18.9986 1.9487
24 14 2 12.7975 1.6096
26 14 2 5.5744 -0.6824
28 14 2 -5.7776 -1.5299
30 14 2 3.0873 0.2208
32 14 2 -9.3962 0.4042
34 14 2 0.5556 -0.4471
-33 15 2 -0.8727 -1.0474
-31 15 2 -17.4420 0.5324
-29 15 2 -7.9175 0.1095
-27 15 2 -23.6284 -0.8890
-25 15 2 -8.2900 0.3795
-23 15 2 -15.6232 1.9455
-21 15 2 -0.6327 1.0972
-19 15 2 7.2294 -1.0591
-17 15 2 14.0359 -1.0704
-15 15 2 -1.6749 0.9728
-13 15 2 6.8055 0.9398
-11 15 2 -2.9960 -0.5774
-9 15 2 11.0362 -0.5991
-7 15 2 32.9140 1.0789
-5 15 2 8.2005 -0.0772
-3 15 2 26.5084 -2.6062
-1 15 2 52.3249 -0.8482
1 15 2 17.3883 2.9973
3 15 2 -18.2132 0.7133
5 15 2 -36.7971 -3.1077
7 15 2 3.0477 -1.3046
9 15 2 -54.4165 1.8504
11 15 2 -5.1816 0.5376
13 15 2 23.6477 -1.5368
15 15 2 2.0356 -0.3309
17 15 2 11.9740 1.8965
19 15 2 -8.6845 0.2663
21 15 2 -6.2890 -1.3791
23 15 2 -12.3784 0.7346
25 15 2 -8.0030 2.0917
27 15 2 -1.9742 -0.3171
29 15 2 6.3313 -1.7578
31 15 2 -9.9359 0.4222
33 15 2 1.7420 0.2969
-32 16 2 3.8240 1.6182
-30 16 2 7.4996 -0.9964
-28 16 2 -3.1362 -0.4345
-26 16 2 5.6391 1.6781
-24 16 2 -4.9334 1.7382
-22 16 2 7.9464 -1.7329
-20 16 2 -8.9245 -2.3154
-18 16 2 -0.6212 0.9250
-16 16 2 -1.0276 1.7378
-14 16 2 11.5346 -0.1024
-12 16 2 -7.0110 -0.2715
-10 16 2 33.3092 0.4741
-8 16 2 13.7522 -0.7819
-6 16 2 -24.5071 -1.2489
-4 16 2 26.9979 1.5834
-2 16 2 4.8009 1.7639
0 16 2 5.4293 -1.1028
2 16 2 -13.5601 -1.4303
4 16 2 -39.6601 0.0017
6 16 2 -24.8380 0.0990
8 16 2 -22.1653 0.2114
10 16 2 11.3116 0.7986
12 16 2 13.0379 0.1699
14 16 2 -16.0077 -1.1209
16 16 2 -12.3578 -0.2179
18 16 2 11.3927 1.4706
20 16 2 6.1315 0.0879
22 16 2 4.4652 -1.1102
24 16 2 13.5147 -0.6613
26 16 2 32.3049 0.3344
28 16 2 -3.3900 -0.5952
30 16 2 16.9593 -1.0073
32 16 2 -3.1479 0.5635
-33 17 2 -1.8882 1.0092
-31 17 2 -2.1451 -1.7951
-29 17 2 2.0391 -0.9449
-27 17 2 -31.7388 1.6236
-25 17 2 -7.2782 0.7303
-23 17 2 1.5518 -2.1117
-21 17 2 2.0352 -0.3645
-19 17 2 0.5400 2.1725
-17 17 2 3.6054 -0.2907
-15 17 2 -15.1818 -2.7220
-13 17 2 14.3458 0.3986
-11 17 2 -17.1099 2.8011
-9 17 2 15.9189 -1.3392
-7 17 2 -17.8888 -2.9084
-5 17 2 -17.6973 1.2536
-3 17 2 -35.8331 2.0408
-1 17 2 53.1711 -2.2742
1 17 2 11.3510 -2.4438
3 17 2 -18.7990 2.0629
5 17 2 -17.7002 2.2988
7 17 2 12.0122 -1.9194
9 17 2 -16.3465 -1.6473
11 17 2 31.6217 2.1915
13 17 2 9.6745 1.4208
15 17 2 -3.9296 -1.7862
17 17 2 7.7797 -0.2408
19 17 2 -3.8413 2.4678
21 17 2 -16.4753 0.8786
23 17 2 -10.1521 -2.0554
25 17 2 -1.3279 -0.0355
27 17 2 -4.3222 1.7594
29 17 2 3.3828 0.4267
31 17 2 3.6906 -1.4495
-32 18 2 13.6992 -2.4584
-30 18 2 -2.0319 -0.7561
-28 18 2 12.1611 1.5781
-26 18 2 -0.6153 0.9364
-24 18 2 -11.4818 -1.8566
-22 18 2 13.2368 -1.2335
-20 18 2 1.8140 2.2337
-18 18 2 -6.3191 1.8610
-16 18 2 8.3938 -1.5889
-14 18 2 -3.5061 -1.5167
-12 18 2 -21.0340 1.4039
-10 18 2 -13.7684 0.8372
-8 18 2 -6.2460 -2.4346
-6 18 2 -1.5658 -0.6394
-4 18 2 7.0501 3.4304
-2 18 2 -3.8026 0.2538
0 18 2 -9.8249 -4.4886
2 18 2 -25.3969 -1.0040
4 18 2 8.3247 3.5193
6 18 2 -4.3230 1.5068
8 18 2 18.4388 -1.7815
10 18 2 24.5288 -0.8239
12 18 2 -8.2428 1.4450
14 18 2 0.0996 0.4408
16 18 2 -1.0131 -0.9408
18 18 2 11.2794 1.1057
20 18 2 1.0133 1.8418
22 18 2 -2.8931 -1.0417
24 18 2 -4.9074 -2.8409
26 18 2 3.8914 -0.0518
28 18 2 16.3231 1.7625
30 18 2 -6.1467 0.0789
32 18 2 -5.7431 -2.1707
-31 19 2 5.5908 -1.1420
-29 19 2 13.5069 1.2031
-27 19 2 -11.1355 0.4959
-25 19 2 2.8438 -0.8608
-23 19 2 -2.6444 -0.8698
-21 19 2 -3.4943 0.3146
-19 19 2 9.5287 -0.1683
-17 19 2 -13.9123 -1.3258
-15 19 2 -2.6189 -0.0825
-13 19 2 -12.1492 1.2810
-11 19 2 21.1751 -0.0630
-9 19 2 -14.2422 -1.8987
-7 19 2 -21.9753 -0.9199
-5 19 2 -0.3119 1.4016
-3 19 2 6.2953 0.9290
-1 19 2 26.7188 -0.5974
1 19 2 2.6630 -0.3104
3 19 2 14.5716 1.2052
5 19 2 17.8428 0.4325
7 19 2 -19.0601 -0.5680
9 19 2 1.1187 0.5404
11 19 2 8.3438 0.9738
13 19 2 11.8661 0.0679
15 19 2 -3.3627 -0.4783
17 19 2 -16.7528 -0.2508
19 19 2 4.9608 0.1256
21 19 2 -6.2018 0.1447
23 19 2 1.6992 -0.5987
25 19 2 11.4969 -0.9560
27 19 2 15.4530 -0.1261
29 19 2 2.4485 1.0781
31 19 2 -0.9484 -1.0282
-30 20 2 2.5354 0.8568
-28 20 2 -0.4920 -1.3002
-26 20 2 0.1582 -1.2844
-24 20 2 -16.3147 0.6038
-22 20 2 21.0093 1.3596
-20 20 2 -21.5039 -0.2574
-18 20 2 -21.3704 -0.8261
-16 20 2 9.0098 -0.1326
-14 20 2 -3.1944 -0.2919
-12 20 2 15.1584 -0.8371
-10 20 2 29.9566 0.2344
-8 20 2 -13.7106 1.3207
-6 20 2 -32.0554 0.4120
-4 20 2 20.7455 -0.9519
-2 20 2 -7.0342 -0.4101
0 20 2 15.0317 1.0333
2 20 2 12.1204 0.8262
4 20 2 -11.9432 -0.3255
6 20 2 -7.9977 -0.2956
8 20 2 12.0296 0.6580
10 20 2 10.4964 0.3118
12 20 2 -27.5427 -1.1845
14 20 2 14.1067 -0.5023
16 20 2 11.1035 0.8861
18 20 2 0.4277 0.5069
20 20 2 -2.1898 -0.4706
22 20 2 10.9943 -0.1063
24 20 2 -17.9345 0.2504
26 20 2 2.9700 -0.2020
28 20 2 -7.9686 -1.1409
30 20 2 -9.5002 0.1843
-29 21 2 5.0517 -0.3600
-27 21 2 7.6877 -0.4042
-25 21 2 9.0381 0.7775
-23 21 2 4.7498 -0.1112
-21 21 2 -4.0032 -0.2917
-19 21 2 13.1212 0.4315
-17 21 2 -11.4605 0.1744
-15 21 2 -11.2691 -0.4688
-13 21 2 -25.4288 -0.0819
-11 21 2 24.2737 0.6779
-9 21 2 -3.0700 -0.1289
-7 21 2 2.5643 -1.0337
-5 21 2 -36.3428 -0.2258
-3 21 2 10.3912 0.2007
-1 21 2 -11.9854 0.0769
1 21 2 11.7804 0.5118
3 21 2 17.5129 0.5516
5 21 2 25.4886 -0.2806
7 21 2 -2.8999 -0.1558
9 21 2 18.3170 0.9020
11 21 2 -9.6633 1.0389
13 21 2 3.4089 -0.6222
15 21 2 -0.8739 -0.7445
17 21 2 -20.3936 0.6938
19 21 2 0.3641 0.3592
21 21 2 -14.2652 -0.9714
23 21 2 -4.9075 -0.8039
25 21 2 -4.5304 0.1377
27 21 2 18.2897 0.3682
29 21 2 1.2589 0.0030
-30 22 2 12.9409 -0.0795
-28 22 2 -6.2413 0.3945
-26 22 2 12.0753 0.4102
-24 22 2 7.5496 -0.9201
-22 22 2 17.9350 0.2607
-20 22 2 -7.0052 1.2169
-18 22 2 -0.8243 -0.5137
-16 22 2 5.2844 -2.0875
-14 22 2 -6.9963 -0.5386
-12 22 2 -16.5225 1.9785
-10 22 2 -14.4561 1.1475
-8 22 2 -19.0954 -1.5912
-6 22 2 -11.1271 -1.0379
-4 22 2 18.0777 0.8462
-2 22 2 -8.3727 0.2595
0 22 2 -3.9802 -0.1398
2 22 2 8.0807 0.9313
4 22 2 -0.7143 1.1505
6 22 2 8.3273 -1.0566
8 22 2 17.9468 -1.8069
10 22 2 2.2700 0.5758
12 22 2 7.4608 1.7630
14 22 2 10.0039 -0.0585
16 22 2 1.9640 -1.6327
18 22 2 -14.9819 -0.4343
20 22 2 -2.4899 0.3683
22 22 2 -2.2246 -0.0993
24 22 2 -4.4695 -0.4466
26 22 2 -6.9432 0.7968
28 22 2 -12.4059 0.5024
-29 23 2 -6.5557 1.7919
-27 23 2 -5.9609 0.3199
-25 23 2 -3.6320 -1.5015
-23 23 2 8.1773 -0.7360
-21 23 2 8.5992 1.8479
-19 23 2 -5.7444 0.8973
-17 23 2 11.5172 -1.2859
-15 23 2 -6.2330 -1.1575
-13 23 2 18.7233 0.9930
-11 23 2 -6.3220 1.1095
-9 23 2 -18.9454 -0.7047
-7 23 2 0.7797 -0.4431
-5 23 2 -16.0173 1.2357
-3 23 2 13.1516 0.6249
-1 23 2 -14.1188 -1.5692
1 23 2 15.7523 -0.9212
3 23 2 3.7765 1.5269
5 23 2 25.4306 1.4613
7 23 2 -25.6487 -0.9716
9 23 2 -13.8705 -1.5134
11 23 2 20.3500 0.4198
13 23 2 2.5417 0.6359
15 23 2 13.9740 -0.6750
17 23 2 0.2734 -0.4118
19 23 2 3.1404 0.6188
21 23 2 -13.4153 0.6052
23 23 2 -9.5349 -0.8285
25 23 2 -19.4766 -1.1076
27 23 2 4.2794 1.0855
29 23 2 5.7512 1.2926
-28 24 2 -11.2874 0.2883
-26 24 2 10.5524 -0.4813
-24 24 2 -4.7370 0.0576
-22 24 2 8.5704 1.2048
-20 24 2 -14.1325 -0.5503
-18 24 2 0.1514 -1.0152
-16 24 2 -14.1699 1.0953
-14 24 2 -18.6357 1.1640
-12 24 2 -37.1941 -0.1744
-10 24 2 -32.3474 -0.6670
-8 24 2 -24.0824 0.6415
-6 24 2 -19.8858 0.7857
-4 24 2 -9.6629 -0.5294
-2 24 2 -10.4800 -0.2987
0 24 2 -3.8201 0.7051
2 24 2 5.1806 0.3694
4 24 2 0.1480 -0.8887
6 24 2 7.8252 -0.6547
8 24 2 17.6699 -0.1921
10 24 2 -5.6328 -0.8207
12 24 2 8.3908 -0.7326
14 24 2 6.3605 0.4900
16 24 2 -10.1922 0.0924
18 24 2 1.8482 -1.4928
20 24 2 7.6132 -1.0775
22 24 2 -25.0960 0.7135
24 24 2 11.9142 0.8015
26 24 2 -1.1188 0.5192
28 24 2 -7.0535 0.3124
-27 25 2 -5.5716 -0.5997
-25 25 2 -5.5470 0.6602
-23 25 2 -4.7032 0.9792
-21 25 2 -6.4137 -0.2330
-19 25 2 -8.8673 -0.3807
-17 25 2 -4.4354 0.6781
-15 25 2 -1.2693 0.3693
-13 25 2 9.5779 -1.1063
-11 25 2 -11.2817 -0.6747
-9 25 2 -14.9781 0.9967
-7 25 2 -27.4296 1.2260
-5 25 2 -11.4253 -0.2749
-3 25 2 17.3933 -1.3227
-1 25 2 -10.8924 -0.2653
1 25 2 28.0044 0.4599
3 25 2 2.2988 0.0523
5 25 2 -4.0189 -0.1348
7 25 2 5.1904 0.1125
9 25 2 9.6067 0.0665
11 25 2 16.4594 -0.5523
13 25 2 3.4112 -0.8459
15 25 2 20.1029 0.3134
17 25 2 -4.0457 1.0792
19 25 2 3.1766 -0.2214
21 25 2 0.6808 -1.7730
23 25 2 5.8931 0.1764
25 25 2 1.4713 1.5031
27 25 2 5.4805 0.2638
-26 26 2 4.2890 1.1296
-24 26 2 -0.3899 0.3157
-22 26 2 20.7660 -0.4094
-20 26 2 -5.0048 0.0245
-18 26 2 1.5378 1.1549
-16 26 2 -7.4884 0.5570
-14 26 2 -8.9197 -0.3890
-12 26 2 3.4259 -0.0808
-10 26 2 11.0189 0.2353
-8 26 2 -7.9638 -0.1428
-6 26 2 -0.5464 0.2590
-4 26 2 10.2558 0.3135
-2 26 2 -7.4429 -0.5451
0 26 2 -2.6654 -0.6694
2 26 2 19.7203 -0.1377
4 26 2 26.5011 0.2144
6 26 2 4.9578 -0.1497
8 26 2 10.4524 -0.3742
10 26 2 11.7540 -0.2344
12 26 2 -1.1340 -0.0349
14 26 2 16.3777 -0.3231
16 26 2 -4.5916 -0.0807
18 26 2 18.3752 0.7315
20 26 2 6.5224 0.1326
22 26 2 -3.3606 -0.6857
24 26 2 0.3431 0.0428
26 26 2 5.5542 1.0875
-25 27 2 2.2996 -0.4522
-23 27 2 -3.3208 -1.2399
-21 27 2 -11.1122 0.0053
-19 27 2 0.1679 1.6036
-17 27 2 6.6736 0.0934
-15 27 2 7.6253 -1.3711
-13 27 2 8.6693 0.3414
-11 27 2 -5.4424 1.3109
-9 27 2 19.5165 -0.6847
-7 27 2 -4.8840 -1.6180
-5 27 2 -2.3377 0.4720
-3 27 2 10.7178 1.3060
-1 27 2 -7.8338 -0.7525
1 27 2 20.3644 -1.7905
3 27 2 -5.4227 0.5132
5 27 2 -18.7147 1.2113
7 27 2 16.2203 -1.2735
9 27 2 10.1403 -1.5617
11 27 2 17.5217 1.3194
13 27 2 -14.2596 1.3920
15 27 2 5.5976 -1.2952
17 27 2 1.8597 -1.3811
19 27 2 -0.8315 1.0608
21 27 2 -2.0010 1.0885
23 27 2 -4.6465 -0.2422
25 27 2 -4.1272 -0.4106
-24 28 2 8.3130 -0.7751
-22 28 2 7.6243 -0.0165
-20 28 2 -7.7773 1.1600
-18 28 2 -8.6119 -0.0236
-16 28 2 -14.3286 -0.6725
-14 28 2 -4.3262 0.0248
-12 28 2 -22.1504 1.0001
-10 28 2 3.5930 -0.2418
-8 28 2 5.4817 -1.4275
-6 28 2 -2.1412 0.1503
-4 28 2 1.3217 1.1794
-2 28 2 -0.0090 -0.2973
0 28 2 -0.4784 -1.6748
2 28 2 -3.0859 -0.4314
4 28 2 15.4083 0.8928
6 28 2 -13.0922 0.4627
8 28 2 -5.0261 -0.8429
10 28 2 -22.1401 -0.6454
12 28 2 -11.5552 0.6084
14 28 2 4.0119 0.3837
16 28 2 -10.3589 -0.5615
18 28 2 -9.2565 -0.1480
20 28 2 11.8499 0.8915
22 28 2 4.0833 0.8196
24 28 2 -7.9459 -0.4022
-23 29 2 8.0229 1.0477
-21 29 2 1.1865 -0.0438
-19 29 2 16.8671 -0.0546
-17 29 2 0.4489 -0.1117
-15 29 2 -9.8776 0.2399
-13 29 2 4.5212 0.4025
-11 29 2 4.0581 -0.3974
-9 29 2 -28.3766 -0.4881
-7 29 2 -20.5964 -0.1145
-5 29 2 -6.0373 0.1394
-3 29 2 2.1834 -0.1703
-1 29 2 -21.6546 0.4635
1 29 2 6.9749 0.4454
3 29 2 -17.9638 -0.4239
5 29 2 -15.2540 -0.4065
7 29 2 -0.7825 0.2417
9 29 2 14.2468 0.4336
11 29 2 31.1111 0.3703
13 29 2 -1.2158 0.4347
15 29 2 -3.3020 0.0745
17 29 2 18.2233 -0.3521
19 29 2 1.9529 -0.4984
21 29 2 -3.2635 -0.4746
23 29 2 -0.3761 1.8143
-22 30 2 17.3328 1.0386
-20 30 2 6.4103 -0.6845
-18 30 2 2.1735 -0.3690
-16 30 2 1.8038 0.5006
-14 30 2 9.7191 0.4354
-12 30 2 -6.0178 -0.3963
-10 30 2 0.6987 -0.7321
-8 30 2 -18.2399 0.4282
-6 30 2 -6.7840 0.2566
-4 30 2 -8.8324 -0.7710
-2 30 2 4.3850 -0.5713
0 30 2 12.4951 0.5775
2 30 2 4.7802 0.2515
4 30 2 -2.3813 -0.8063
6 30 2 -3.2808 -0.4163
8 30 2 23.9935 0.9895
10 30 2 -1.0251 0.8214
12 30 2 10.5935 -0.3638
14 30 2 -7.1593 -0.4745
16 30 2 31.4815 0.6964
18 30 2 2.4721 1.1883
20 30 2 15.5351 -0.7887
22 30 2 -2.9932 0.3511
-21 31 2 -9.2829 -0.3000
-19 31 2 12.3462 -0.4727
-17 31 2 -0.6625 0.3594
-15 31 2 -4.6301 0.4475
-13 31 2 -3.7612 -0.1678
-11 31 2 -9.0209 -0.3410
-9 31 2 -5.1255 -0.3088
-7 31 2 16.6572 -0.1787
-5 31 2 -1.4346 -0.1668
-3 31 2 -7.7557 0.0790
-1 31 2 -25.3614 0.5835
1 31 2 22.7749 0.4865
3 31 2 -0.6686 -0.2720
5 31 2 32.4969 -0.4626
7 31 2 20.8847 0.2631
9 31 2 9.5883 0.9841
11 31 2 15.0305 0.5115
13 31 2 9.7421 -0.1262
15 31 2 -7.7600 -0.2523
17 31 2 3.8379 -0.3636
19 31 2 6.0794 0.3730
-18 32 2 -7.2163 0.1946
-16 32 2 -5.5022 -1.1813
-14 32 2 -9.5427 -0.2181
-12 32 2 -0.2023 0.5765
-10 32 2 1.2573 -0.0227
-8 32 2 -16.5875 -0.4871
-6 32 2 2.1045 -0.0644
-4 32 2 -20.8635 0.2532
-2 32 2 -7.9234 -0.0836
0 32 2 -2.9763 0.1212
2 32 2 -5.1520 0.0707
4 32 2 7.8428 0.3246
6 32 2 6.3323 0.0152
8 32 2 8.7715 -0.1826
10 32 2 2.2525 0.1910
12 32 2 16.8814 0.4143
14 32 2 -9.1555 -0.1872
16 32 2 3.9333 -1.0220
18 32 2 4.7800 -0.1483
-17 33 2 1.3102 -0.6364
-15 33 2 2.5938 -0.1148
-13 33 2 -2.9615 0.4221
-11 33 2 -15.9968 0.0282
-9 33 2 -7.9111 -0.4670
-7 33 2 7.1566 -0.3551
-5 33 2 -11.7850 0.3575
-3 33 2 1.1409 0.4799
-1 33 2 0.3332 0.0691
1 33 2 22.3594 0.0335
3 33 2 2.2759 0.0942
5 33 2 2.3492 0.4521
7 33 2 -9.0666 0.2987
9 33 2 10.9201 -0.0126
11 33 2 15.1354 0.1539
13 33 2 32.5802 0.7833
15 33 2 17.7185 -0.4229
17 33 2 14.2610 -0.9138
-16 34 2 -9.8866 0.1322
-14 34 2 -0.0774 -0.2227
-12 34 2 -11.4760 -0.1164
-10 34 2 -12.2232 0.0914
-8 34 2 -7.7091 0.9811
-6 34 2 11.8847 0.4508
-4 34 2 -13.8266 -0.1504
-2 34 2 -4.9723 -0.3861
0 34 2 -1.4204 0.1326
2 34 2 -18.2122 0.0205
4 34 2 9.9223 0.0707
6 34 2 6.9438 -0.1492
8 34 2 -7.7982 -0.0207
10 34 2 -0.6574 -0.8270
12 34 2 11.4725 -0.0506
14 34 2 7.5132 -0.4090
-13 35 2 -9.0559 -1.1790
-11 35 2 4.5469 -1.0967
-9 35 2 -6.6494 0.8505
-7 35 2 11.0414 0.9061
-5 35 2 7.5993 -0.4668
-3 35 2 3.6642 -0.4730
-1 35 2 14.1514 0.7208
1 35 2 3.3950 0.5115
3 35 2 3.0577 -0.6029
5 35 2 11.8334 -0.1026
7 35 2 2.6556 0.4450
9 35 2 9.2118 0.2808
11 35 2 -1.0535 -0.9773
13 35 2 7.8593 -0.5863
-10 36 2 -1.5259 0.8893
-8 36 2 -10.3373 1.3788
-6 36 2 1.7461 0.0514
-4 36 2 4.5102 -0.6127
-2 36 2 8.0337 0.0977
0 36 2 -6.2250 0.5282
2 36 2 11.7874 -0.0339
4 36 2 13.3497 -0.5610
6 36 2 1.5618 -0.6393
8 36 2 -3.8141 0.1782
10 36 2 0.4078 -0.8080
-7 37 2 2.8482 -0.8669
-5 37 2 -3.5921 -0.8197
-3 37 2 -3.0672 -0.3546
-1 37 2 6.3579 0.0792
1 37 2 11.7515 -0.0039
3 37 2 3.3829 -0.3291
5 37 2 -9.5358 0.4229
-37 1 3 3.7968 6.0373
-35 1 3 1.0764 2.0355
-33 1 3 13.8508 -0.2063
-31 1 3 8.8215 0.4510
-29 1 3 -13.5550 -4.1993
-27 1 3 2.7217 -11.0343
-25 1 3 -3.6707 0.0624
-23 1 3 -8.4416 16.8850
-21 1 3 13.6321 6.9882
-19 1 3 19.4468 -19.6308
-17 1 3 -17.0132 -19.5617
-15 1 3 24.5165 3.8233
-13 1 3 -45.8765 11.8121
-11 1 3 66.8926 8.9097
-9 1 3 118.2705 14.3928
-7 1 3 14.1414 7.2617
-5 1 3 395.6251 -23.6477
-3 1 3 437.5191 -28.5447
-1 1 3 482.4141 16.5676
3 1 3 -19.7685 15.1569
5 1 3 -29.3535 -42.2365
7 1 3 -50.7149 -18.0136
9 1 3 163.7323 15.0668
11 1 3 91.4373 1.7931
13 1 3 126.7589 2.8112
15 1 3 40.6727 24.2179
17 1 3 8.4710 4.0577
19 1 3 -11.4099 -32.8892
21 1 3 -7.2794 -19.0061
23 1 3 -5.7321 19.7682
25 1 3 10.7648 19.2387
27 1 3 27.5017 -5.6244
29 1 3 13.1598 -9.9829
31 1 3 -15.3564 -1.2832
33 1 3 -3.9356 -0.8503
35 1 3 -3.1939 -0.3859
-36 2 3 6.8182 -3.7084
-34 2 3 -5.0623 -5.5523
-32 2 3 11.3150 2.8258
-30 2 3 -15.3848 11.0519
-28 2 3 -1.1753 0.6728
-26 2 3 -7.6653 -10.7649
-24 2 3 12.3767 -1.1170
-22 2 3 8.9421 10.3541
-20 2 3 -26.5276 2.4075
-18 2 3 -17.5828 -1.1960
-16 2 3 -51.0959 13.8873
-14 2 3 29.2634 9.7681
-12 2 3 25.0580 -22.3113
-10 2 3 -45.9035 -23.1964
-8 2 3 47.6067 16.5458
-6 2 3 66.3330 22.5691
-4 2 3 -280.0946 -17.9366
0 2 3 -128.0061 4.9996
2 2 3 423.8110 -5.2036
8 2 3 -111.0818 26.5726
10 2 3 -56.5237 -3.6499
12 2 3 -39.0101 -25.6471
14 2 3 -69.6834 -2.1541
16 2 3 11.6210 18.9311
18 2 3 -9.2711 5.6493
20 2 3 29.0226 -5.8980
22 2 3 -23.6326 3.5116
24 2 3 18.8689 5.0513
26 2 3 3.3992 -7.3471
28 2 3 -3.8500 -5.9846
30 2 3 11.2967 7.3184
32 2 3 -10.2979 6.5578
34 2 3 -11.9286 -4.1199
36 2 3 -14.8911 -5.7775
-37 3 3 4.8777 3.0160
-35 3 3 7.9231 -1.0313
-33 3 3 -3.9279 1.9251
-31 3 3 -10.5220 1.3327
-29 3 3 3.1990 -3.0706
-27 3 3 8.5528 -3.8540
-25 3 3 -10.5722 2.5019
-23 3 3 2.1243 5.4411
-21 3 3 18.9146 -0.0881
-19 3 3 -0.5187 -3.5847
-17 3 3 8.7808 -2.6303
-15 3 3 26.6552 -5.1523
-13 3 3 -61.6355 -2.2945
-11 3 3 119.3951 6.9671
-9 3 3 54.1119 6.3797
-7 3 3 0.2242 -7.4277
-5 3 3 -51.5078 -12.4194
-3 3 3 -252.1194 1.1104
-1 3 3 413.0974 4.9347
1 3 3 -466.5122 8.8533
3 3 3 291.2846 8.4007
5 3 3 65.1307 -5.4310
7 3 3 -99.9031 -6.6195
9 3 3 29.2936 0.0636
11 3 3 -20.3188 4.2098
13 3 3 -18.6880 3.6949
15 3 3 76.3914 2.4275
17 3 3 13.3570 -3.3277
19 3 3 -1.9534 -8.0802
21 3 3 -12.9729 -3.1349
23 3 3 -35.5511 4.7419
25 3 3 2.6827 4.5104
27 3 3 2.3933 -1.4063
29 3 3 -5.6997 -3.0777
31 3 3 -3.4100 -0.6746
33 3 3 8.5260 0.9332
35 3 3 0.5254 1.3414
-36 4 3 -2.4411 0.7841
-34 4 3 -7.7322 0.7488
-32 4 3 2.7809 -1.3648
-30 4 3 -8.8869 -2.9822
-28 4 3 -0.2562 0.7572
-26 4 3 5.1537 3.4199
-24 4 3 28.4760 -1.4577
-22 4 3 1.9625 -4.2800
-20 4 3 14.2425 1.4195
-18 4 3 9.8314 5.2734
-16 4 3 -42.1991 1.2233
-14 4 3 84.0022 0.0609
-12 4 3 -38.0036 4.4334
-10 4 3 0.4335 3.5489
-8 4 3 -51.8340 -2.4632
-6 4 3 -18.6751 0.5845
-4 4 3 58.4555 6.3843
-2 4 3 4.5093 -2.2376
0 4 3 -27.2310 -13.4691
2 4 3 31.4310 -6.1996
4 4 3 109.7153 3.6150
8 4 3 47.1180 -6.4462
10 4 3 39.4308 -1.6720
14 4 3 -29.8826 -1.0050
16 4 3 -51.5098 1.0804
18 4 3 -12.8863 6.1373
20 4 3 -28.8267 3.6543
22 4 3 -3.2648 -3.1781
24 4 3 5.5980 -3.6005
26 4 3 -7.8234 1.7832
28 4 3 -17.2311 3.8518
30 4 3 -12.7646 -0.1119
32 4 3 -10.3437 -2.7906
34 4 3 0.4142 -2.2619
36 4 3 0.0167 -0.4883
-35 5 3 -5.6861 1.0309
-33 5 3 -24.1578 -1.8594
-31 5 3 -15.3532 -0.5202
-29 5 3 5.1101 2.3839
-27 5 3 1.8862 1.2794
-25 5 3 -19.6412 -0.3561
-23 5 3 4.1611 -0.6828
-21 5 3 9.1750 -0.9346
-19 5 3 -33.0934 0.0014
-17 5 3 31.8138 4.0410
-15 5 3 0.3715 4.5398
-13 5 3 6.6756 -3.5165
-11 5 3 23.6367 -7.4399
-9 5 3 -72.4100 -1.4263
-7 5 3 72.3244 4.6709
-5 5 3 -97.8164 3.3502
-3 5 3 -73.5888 0.8636
-1 5 3 293.3389 -2.2529
3 5 3 3.7571 -1.7451
5 5 3 -7.4787 4.7958
7 5 3 64.5212 9.2795
9 5 3 -101.7869 2.8127
11 5 3 16.4601 -7.5559
13 5 3 48.9983 -6.6222
15 5 3 85.0301 1.9600
17 5 3 12.3396 4.0179
19 5 3 16.1306 1.8703
21 5 3 -6.0271 0.0320
23 5 3 -10.4850 -2.4456
25 5 3 -1.1262 -4.3713
27 5 3 -10.9548 -0.4192
29 5 3 9.3819 4.1954
31 5 3 9.4726 2.2927
33 5 3 -3.7993 -1.6063
35 5 3 3.4380 -1.1338
-36 6 3 -2.9646 -0.4188
-34 6 3 12.8258 -3.4830
-32 6 3 -5.7322 -1.3806
-30 6 3 0.4580 2.8665
-28 6 3 -2.8787 0.7590
-26 6 3 -9.8508 -2.3738
-24 6 3 23.8483 2.7157
-22 6 3 9.2014 3.4139
-20 6 3 23.2549 -6.6096
-18 6 3 22.0535 -5.8109
-16 6 3 2.0262 9.5468
-14 6 3 61.7015 11.1370
-12 6 3 31.4421 -5.6387
-10 6 3 23.6581 -7.5825
-8 6 3 -8.3524 6.9661
-6 6 3 -118.3972 4.8636
-4 6 3 -13.5739 -6.3066
-2 6 3 59.2513 -0.5530
0 6 3 242.1340 5.0795
2 6 3 41.1800 -7.4633
4 6 3 29.2151 -12.7180
8 6 3 -12.2460 6.8268
10 6 3 -67.4263 -0.3521
12 6 3 -55.7002 -7.5100
14 6 3 -12.3277 -1.7279
16 6 3 12.2424 4.4468
18 6 3 13.1874 1.2031
20 6 3 14.4263 -1.1433
22 6 3 -35.4966 2.3155
24 6 3 -12.8176 1.5045
26 6 3 13.4816 -2.5700
28 6 3 -3.3871 -1.6274
30 6 3 -20.7929 2.6282
32 6 3 8.1207 1.2488
34 6 3 0.5092 -2.2785
36 6 3 -5.9913 -0.4775
-35 7 3 0.2150 -2.9024
-33 7 3 -6.1392 -1.5892
-31 7 3 -3.5141 1.3118
-29 7 3 -5.9313 0.7994
-27 7 3 12.3410 -0.5763
-25 7 3 20.9536 2.3565
-23 7 3 -5.0290 1.4465
-21 7 3 -0.9482 -5.9963
-19 7 3 -21.1177 -6.4791
-17 7 3 -7.4107 4.7958
-15 7 3 -8.6125 6.8638
-13 7 3 24.5290 -5.8967
-11 7 3 34.6810 -10.9367
-7 7 3 61.3376 4.9163
-5 7 3 -68.0381 -0.4133
-3 7 3 19.2536 -1.4112
-1 7 3 221.8401 5.5033
1 7 3 -51.3258 2.9856
3 7 3 -89.0312 -6.9795
5 7 3 -101.0025 -0.4544
7 7 3 48.1301 15.5280
9 7 3 69.8150 7.9246
11 7 3 26.9160 -9.4214
13 7 3 4.4735 -5.6388
15 7 3 -11.7148 6.7487
17 7 3 -6.1544 4.4238
19 7 3 -28.9441 -3.4426
21 7 3 -0.0498 -1.6283
23 7 3 8.4273 1.6287
25 7 3 -3.1984 -2.3023
27 7 3 -51.6233 -4.1358
29 7 3 5.3513 1.1846
31 7 3 12.4138 3.0650
33 7 3 -6.5988 -0.9333
35 7 3 -0.1795 -2.4954
-36 8 3 -10.1449 -0.9623
-34 8 3 5.1406 0.5221
-32 8 3 0.4304 0.9931
-30 8 3 12.7954 0.4149
-28 8 3 12.4730 -1.6260
-26 8 3 3.2318 -0.1457
-24 8 3 -11.1443 1.9189
-22 8 3 22.4368 0.4444
-20 8 3 -19.0003 -0.8118
-18 8 3 14.6369 0.8899
-16 8 3 32.8088 1.9827
-14 8 3 105.7926 0.9715
-12 8 3 48.0876 1.1134
-10 8 3 -37.8374 2.6184
-8 8 3 60.7816 0.9391
-6 8 3 -1.5222 -1.9097
-4 8 3 89.9959 -0.3104
-2 8 3 78.7062 0.7717
0 8 3 77.1449 -0.0233
2 8 3 -155.7875 -0.4001
6 8 3 81.7816 -3.0427
8 8 3 -31.0453 0.0836
10 8 3 -10.4690 1.2768
12 8 3 58.2962 1.6487
14 8 3 36.9241 0.0995
16 8 3 -55.7931 -1.6430
18 8 3 -25.2127 -1.0493
20 8 3 25.0040 0.8018
22 8 3 -6.7926 1.8508
24 8 3 13.1566 0.8140
26 8 3 9.5793 -0.1889
28 8 3 -0.3298 -0.7061
30 8 3 -15.3556 -1.1155
32 8 3 -4.5875 0.1734
34 8 3 -9.5389 1.9525
36 8 3 -16.4046 0.9824
-35 9 3 -6.5590 0.3030
-33 9 3 3.7961 -0.3605
-31 9 3 -4.6632 -1.0031
-29 9 3 14.8247 -0.1733
-27 9 3 18.6771 2.5367
-25 9 3 39.7900 0.4962
-23 9 3 -11.9711 -2.2581
-21 9 3 23.1070 -2.0641
-19 9 3 -6.6567 -0.1597
-17 9 3 -21.0336 -0.2563
-15 9 3 -23.9106 -1.3675
-13 9 3 -24.6011 -1.0710
-11 9 3 41.2518 -1.1247
-9 9 3 50.3778 -2.2302
-7 9 3 25.9120 -2.0065
-5 9 3 -51.1816 0.3393
-3 9 3 -22.2440 1.7463
-1 9 3 105.1004 0.8881
1 9 3 -110.9071 -0.8010
3 9 3 -105.3036 -0.4098
5 9 3 17.1185 1.5910
7 9 3 10.1409 2.2016
9 9 3 4.4138 0.7739
11 9 3 32.7968 -0.9307
13 9 3 -43.0659 0.8799
15 9 3 33.3507 1.6008
17 9 3 14.0903 -1.4396
19 9 3 -17.3168 -1.1643
21 9 3 7.4702 1.6210
23 9 3 -11.7456 0.3367
25 9 3 -3.7007 -1.7670
27 9 3 -23.8584 -0.2120
29 9 3 26.8682 1.3464
31 9 3 -1.8905 -0.3210
33 9 3 -2.2576 -2.1790
35 9 3 -5.8311 0.0887
-34 10 3 -13.0545 -0.5110
-32 10 3 -7.0633 -1.1153
-30 10 3 8.9218 0.3902
-28 10 3 -4.5396 -0.4621
-26 10 3 6.2219 -1.8113
-24 10 3 16.3374 0.4075
-22 10 3 0.2222 3.6249
-20 10 3 -20.8045 0.1521
-18 10 3 -8.5908 -3.5805
-16 10 3 -36.5785 -1.5645
-14 10 3 32.4050 1.5102
-12 10 3 -8.2215 0.6488
-10 10 3 0.3428 0.8086
-8 10 3 8.5485 2.5549
-6 10 3 -34.6045 -0.7455
-2 10 3 20.5664 0.8058
0 10 3 85.3460 6.1983
2 10 3 -150.3524 4.0832
4 10 3 50.2454 -1.0706
6 10 3 63.3920 -0.7994
8 10 3 24.5099 1.0397
10 10 3 5.6185 -0.0030
12 10 3 20.7702 0.3341
14 10 3 -20.2958 2.3599
16 10 3 -31.0538 0.5327
18 10 3 -3.5402 -4.4448
20 10 3 -13.0823 -3.5767
22 10 3 -0.9254 1.3734
24 10 3 8.2995 1.9908
26 10 3 -15.0756 -1.3561
28 10 3 0.6005 -0.9125
30 10 3 -4.7721 0.3987
32 10 3 9.1293 -0.0556
34 10 3 11.7021 -0.2946
-35 11 3 1.4979 -2.0301
-33 11 3 10.6568 -0.2476
-31 11 3 2.7099 1.7885
-29 11 3 11.2450 0.9221
-27 11 3 8.7313 -3.4763
-25 11 3 -7.7114 -1.4980
-23 11 3 -8.6327 3.8145
-21 11 3 23.5064 2.0582
-19 11 3 -14.4910 -3.5430
-17 11 3 25.3160 -1.2558
-15 11 3 0.2848 4.1145
-13 11 3 -53.8638 0.2947
-11 11 3 60.2155 -3.6308
-9 11 3 14.1811 2.6125
-7 11 3 95.4495 5.4808
-5 11 3 -20.3274 -3.3505
-3 11 3 52.2754 -6.4110
-1 11 3 -71.8066 3.0162
1 11 3 -27.6535 5.9953
3 11 3 -80.4960 -2.3089
5 11 3 -17.7773 -5.9428
7 11 3 -5.2955 1.0562
9 11 3 -28.2806 4.5043
11 11 3 39.1083 -1.6912
13 11 3 28.0497 -2.2270
15 11 3 31.1017 3.3218
17 11 3 7.2334 1.6774
19 11 3 -15.0510 -4.1659
21 11 3 3.8566 -1.4320
23 11 3 2.4554 4.5856
25 11 3 0.8559 1.9676
27 11 3 -20.1119 -3.1037
29 11 3 -0.9739 -2.3194
31 11 3 11.6827 1.3904
33 11 3 -5.9476 1.6112
35 11 3 -10.6760 -1.0238
-34 12 3 -7.5618 -0.0898
-32 12 3 -0.5859 1.5733
-30 12 3 7.1291 1.6421
-28 12 3 9.4246 -2.1678
-26 12 3 -7.1458 -0.8451
-24 12 3 24.4119 3.0058
-22 12 3 -15.5239 1.6662
-20 12 3 1.9265 -3.6173
-18 12 3 -21.8398 -2.9015
-16 12 3 -21.5768 1.7378
-14 12 3 32.5099 0.3486
-12 12 3 15.5202 -4.1432
-10 12 3 32.5411 -1.2037
-8 12 3 -79.7090 3.8376
-6 12 3 53.8163 0.7813
-4 12 3 11.0699 -4.8012
-2 12 3 65.5920 -1.0726
0 12 3 22.5390 6.9118
2 12 3 -79.6176 3.1007
4 12 3 68.5966 -3.1765
6 12 3 15.4440 -0.4643
8 12 3 -68.8868 3.2227
10 12 3 -37.6694 -0.0863
12 12 3 19.9904 -3.5054
14 12 3 1.7516 0.1746
16 12 3 20.7518 3.4192
18 12 3 -2.2662 -0.7925
20 12 3 3.0686 -4.1564
22 12 3 -11.2732 -0.4910
24 12 3 9.8375 3.2118
26 12 3 -8.3575 0.3731
28 12 3 10.2512 -2.0726
30 12 3 -9.0222 0.4523
32 12 3 -9.0628 1.7741
34 12 3 5.7792 0.0414
-33 13 3 -10.1145 1.7378
-31 13 3 0.4791 -0.5685
-29 13 3 3.2708 -2.9109
-27 13 3 0.4001 -1.2381
-25 13 3 -8.4445 0.6117
-23 13 3 12.9290 0.7246
-21 13 3 15.2847 0.6935
-19 13 3 5.0287 0.6989
-17 13 3 23.0555 -0.8451
-15 13 3 -26.5058 -1.8491
-13 13 3 -50.6285 0.5444
-11 13 3 27.3743 3.6209
-9 13 3 -39.6508 1.7098
-7 13 3 -21.9376 -1.6398
-5 13 3 -90.5669 -1.7069
-3 13 3 41.8965 -0.7703
-1 13 3 -82.2931 -0.3847
1 13 3 91.4601 1.0351
3 13 3 -7.2309 1.4720
5 13 3 47.4940 -1.2590
7 13 3 29.7040 -2.9332
9 13 3 -3.4611 -0.6444
11 13 3 -23.7219 2.5308
13 13 3 28.5010 1.6729
15 13 3 -38.2298 -1.3395
17 13 3 -11.8417 -1.4624
19 13 3 3.7576 0.3589
21 13 3 7.9275 0.3149
23 13 3 -3.1899 -0.6555
25 13 3 16.8435 0.5119
27 13 3 10.2072 1.3632
29 13 3 -7.6943 -1.3255
31 13 3 17.5685 -1.0669
33 13 3 -12.4696 0.0274
-34 14 3 7.9193 1.8080
-32 14 3 2.3126 -1.2732
-30 14 3 -1.5460 -1.2441
-28 14 3 -0.1147 0.9103
-26 14 3 -5.6255 1.4729
-24 14 3 10.6500 -0.9190
-22 14 3 -9.7225 -1.0568
-20 14 3 -12.5030 1.4012
-18 14 3 -5.9236 1.6796
-16 14 3 -23.9640 -0.9521
-14 14 3 40.2507 -1.2515
-12 14 3 7.0861 0.6600
-10 14 3 52.0169 0.3507
-8 14 3 24.9071 -0.9658
-6 14 3 33.5130 -0.2342
-4 14 3 15.1653 2.0386
-2 14 3 1.7631 1.3940
0 14 3 -21.9171 -1.2214
2 14 3 15.0559 -2.1051
4 14 3 -41.1462 0.6368
6 14 3 -48.0651 3.2299
8 14 3 -34.4199 -0.2657
10 14 3 -12.7543 -2.5510
12 14 3 -32.4509 0.4496
14 14 3 7.6037 1.0526
16 14 3 33.7414 -1.5784
18 14 3 -9.4279 -1.1193
20 14 3 6.0268 2.1479
22 14 3 -3.1139 1.6080
24 14 3 2.9445 -1.3426
26 14 3 4.9183 -0.9068
28 14 3 -8.2401 1.7864
30 14 3 18.4577 0.7614
32 14 3 3.5990 -0.9302
34 14 3 7.1705 -0.0028
-33 15 3 -8.3158 -0.2584
-31 15 3 5.0383 -0.2409
-29 15 3 19.0568 0.5942
-27 15 3 13.3949 0.7936
-25 15 3 0.9558 -0.3131
-23 15 3 -0.1531 0.5486
-21 15 3 2.8827 0.9544
-19 15 3 -2.8033 -0.0739
-17 15 3 9.4638 -0.7472
-15 15 3 -0.3917 0.1453
-13 15 3 -7.0072 0.9432
-11 15 3 -27.0275 0.2093
-9 15 3 -19.2409 -1.0482
-7 15 3 33.3511 -0.2958
-5 15 3 37.2175 0.3898
-3 15 3 27.6098 -0.7353
-1 15 3 16.4811 -0.6515
1 15 3 46.0214 0.1179
3 15 3 -74.1085 -0.7437
5 15 3 26.4093 -1.0483
7 15 3 -42.7884 0.6876
9 15 3 -1.5216 0.4146
11 15 3 -22.8815 -1.1911
13 15 3 22.3762 -0.5494
15 15 3 -4.0077 0.3692
17 15 3 5.7811 0.1170
19 15 3 19.7186 -0.3366
21 15 3 8.9964 0.3018
23 15 3 -3.8509 -0.0982
25 15 3 8.3560 -1.1108
27 15 3 4.2212 -0.1832
29 15 3 3.3307 1.3035
31 15 3 16.9323 0.6558
33 15 3 -2.9039 -0.0959
-32 16 3 18.5907 0.2896
-30 16 3 1.0795 0.4316
-28 16 3 6.8461 -0.7741
-26 16 3 -5.7993 -1.4211
-24 16 3 0.9632 0.2106
-22 16 3 11.7826 0.7189
-20 16 3 -15.4947 -1.2316
-18 16 3 -3.8381 -1.2549
-16 16 3 -16.4501 2.0653
-14 16 3 27.7410 1.8341
-12 16 3 49.8683 -1.6780
-10 16 3 10.7960 -2.1793
-8 16 3 8.0315 1.7785
-6 16 3 -24.6597 2.1107
-4 16 3 35.7712 -1.7856
-2 16 3 -34.2057 -1.3499
0 16 3 0.6646 1.6361
2 16 3 18.0161 0.3391
4 16 3 -42.4361 -3.0647
6 16 3 17.6638 -0.8939
8 16 3 -22.3740 3.2195
10 16 3 -17.4199 1.1356
12 16 3 30.5695 -2.8581
14 16 3 27.7428 -1.3594
16 16 3 7.8981 1.8549
18 16 3 -14.1604 1.0449
20 16 3 13.5155 -0.9216
22 16 3 0.5007 0.3354
24 16 3 -5.8897 1.4973
26 16 3 1.6932 -0.3330
28 16 3 1.3513 -1.6942
30 16 3 -0.0559 0.4599
32 16 3 1.1706 1.8582
-33 17 3 -6.6375 0.4568
-31 17 3 4.1573 1.3921
-29 17 3 6.9968 0.3612
-27 17 3 3.5117 -0.2135
-25 17 3 3.7324 1.0692
-23 17 3 -4.1144 0.3420
-21 17 3 -1.3885 -1.8505
-19 17 3 -6.3911 0.1487
-17 17 3 -25.6624 2.5268
-15 17 3 -41.7763 1.0771
-13 17 3 -11.5414 -1.6862
-11 17 3 3.1773 -1.5188
-9 17 3 -8.7651 0.6009
-7 17 3 14.1417 1.0297
-5 17 3 11.1291 -0.5208
-3 17 3 -47.3485 -0.6687
-1 17 3 12.7594 -0.4297
1 17 3 -26.5678 -1.4302
3 17 3 -19.4410 -1.3201
5 17 3 23.3557 -0.1158
7 17 3 -22.1620 0.5067
9 17 3 32.7716 0.5325
11 17 3 -5.7649 -0.5542
13 17 3 -13.7071 -1.3150
15 17 3 -10.3785 -0.1941
17 17 3 -2.8899 1.8718
19 17 3 1.7468 1.5502
21 17 3 4.7664 -0.1941
23 17 3 -0.9180 -0.7862
25 17 3 0.3869 0.4430
27 17 3 1.2218 0.1762
29 17 3 6.4353 0.0761
31 17 3 -13.5893 0.1681
-32 18 3 12.9832 -0.8696
-30 18 3 5.3195 -0.8715
-28 18 3 15.2525 0.3569
-26 18 3 6.6604 1.0254
-24 18 3 -6.7484 -0.7109
-22 18 3 10.9046 -1.2741
-20 18 3 -16.2116 1.7212
-18 18 3 -3.0661 1.4611
-16 18 3 10.7000 -1.8306
-14 18 3 27.3226 -1.6065
-12 18 3 -1.3633 1.7559
-10 18 3 -1.8318 1.0858
-8 18 3 -3.6963 -1.8873
-6 18 3 2.9498 -0.9784
-4 18 3 55.1105 0.8122
-2 18 3 2.7915 -0.2131
0 18 3 8.7825 -1.0879
2 18 3 25.8826 0.4832
4 18 3 -32.2761 1.2717
6 18 3 -8.3324 -0.4230
8 18 3 -30.0942 -1.0110
10 18 3 -22.0401 0.6770
12 18 3 12.0181 1.5332
14 18 3 -9.6954 -0.0647
16 18 3 -8.4034 -1.0887
18 18 3 -29.0912 0.0226
20 18 3 -5.6284 0.7400
22 18 3 18.7769 -0.1610
24 18 3 -2.2687 -0.9910
26 18 3 3.9749 -0.2795
28 18 3 0.6616 0.0001
30 18 3 -0.8914 -0.3527
32 18 3 7.9783 0.0246
-31 19 3 -4.4684 -1.5963
-29 19 3 3.0099 -0.1231
-27 19 3 -10.0794 1.4749
-25 19 3 -1.3995 -0.9940
-23 19 3 4.3017 -2.1739
-21 19 3 -0.5824 0.4974
-19 19 3 -3.7171 2.3657
-17 19 3 6.2740 -0.5441
-15 19 3 -23.7875 -1.7158
-13 19 3 -3.9924 0.2354
-11 19 3 32.7623 1.1074
-9 19 3 -4.6538 -0.6277
-7 19 3 41.0098 -0.6946
-5 19 3 -6.7977 0.8735
-3 19 3 13.4883 0.6666
-1 19 3 14.1625 -1.3713
1 19 3 1.5896 -1.4038
3 19 3 22.1665 0.9272
5 19 3 -15.8510 1.2903
7 19 3 15.5615 -0.5600
9 19 3 6.2823 -1.4083
11 19 3 -19.4978 0.2642
13 19 3 -13.6253 1.6893
15 19 3 16.2448 0.0946
17 19 3 0.8695 -0.4293
19 19 3 16.7837 0.4668
21 19 3 -3.7703 1.0044
23 19 3 -4.4516 -0.3116
25 19 3 -2.9943 -0.3469
27 19 3 7.2255 0.4601
29 19 3 -6.3296 0.4331
31 19 3 -5.3057 -0.9481
-30 20 3 15.1443 0.7851
-28 20 3 12.3790 1.1643
-26 20 3 7.6092 -1.2999
-24 20 3 5.2898 -0.8987
-22 20 3 12.8563 1.5581
-20 20 3 -4.5646 0.9696
-18 20 3 -10.8561 -1.1975
-16 20 3 -10.1790 -0.8992
-14 20 3 8.6743 0.7572
-12 20 3 -0.9997 -0.1161
-10 20 3 20.7576 -1.0534
-8 20 3 -7.6985 0.4988
-6 20 3 10.0719 1.3765
-4 20 3 25.1592 -0.5739
-2 20 3 -5.7552 -2.0535
0 20 3 -35.5191 0.3461
2 20 3 18.6632 2.0492
4 20 3 18.5744 -0.0460
6 20 3 14.6984 -1.1397
8 20 3 -0.9066 0.6511
10 20 3 -17.4236 0.8251
12 20 3 -0.2442 -0.3964
14 20 3 -13.0704 -0.0113
16 20 3 10.2666 1.2451
18 20 3 -22.9271 0.3719
20 20 3 -8.1502 -1.0446
22 20 3 -0.5448 -0.0531
24 20 3 10.1282 0.6689
26 20 3 -2.8288 -0.4809
28 20 3 -1.1923 -0.7415
30 20 3 11.3811 -0.2658
-29 21 3 -3.8573 0.5505
-27 21 3 -2.9837 -1.1306
-25 21 3 13.3621 0.3739
-23 21 3 -3.8794 1.1717
-21 21 3 -2.1749 -0.7676
-19 21 3 1.1616 -1.4221
-17 21 3 28.2945 0.6610
-15 21 3 0.4398 1.4172
-13 21 3 -0.0217 -0.5487
-11 21 3 -28.0518 -1.3948
-9 21 3 -52.4939 0.7508
-7 21 3 2.3910 1.6376
-5 21 3 -7.9066 -1.0490
-3 21 3 20.0711 -1.6885
-1 21 3 15.5944 0.3589
1 21 3 -6.5410 1.7946
3 21 3 -7.9533 0.4213
5 21 3 -22.3665 -1.2236
7 21 3 5.3277 0.4073
9 21 3 -1.9995 1.5907
11 21 3 -4.6065 -0.5642
13 21 3 -1.4565 -1.1539
15 21 3 5.1316 1.2604
17 21 3 -12.3967 1.9579
19 21 3 -16.7762 -0.9317
21 21 3 -6.1129 -1.8113
23 21 3 -2.7142 -0.0692
25 21 3 5.2710 1.4056
27 21 3 -1.1465 -0.2996
29 21 3 -4.0082 -0.5062
-30 22 3 3.0620 0.1021
-28 22 3 -1.3497 -0.3181
-26 22 3 -7.0765 0.4331
-24 22 3 -5.9268 0.8736
-22 22 3 -4.4963 -0.8891
-20 22 3 -11.1772 -1.2225
-18 22 3 6.6926 0.3334
-16 22 3 -17.0960 0.7073
-14 22 3 4.5993 -0.3329
-12 22 3 9.8023 -0.8982
-10 22 3 1.3680 -0.0639
-8 22 3 2.1864 0.5374
-6 22 3 1.7132 0.6369
-4 22 3 -1.8741 0.5638
-2 22 3 -10.0258 -0.1597
0 22 3 -0.4278 -0.4441
2 22 3 2.1869 0.5423
4 22 3 -21.2650 0.5471
6 22 3 -16.1619 -0.1023
8 22 3 -0.2536 0.7833
10 22 3 14.0849 0.6894
12 22 3 -3.4105 -1.0363
14 22 3 -1.8655 -1.0427
16 22 3 11.5822 1.2831
18 22 3 13.0270 1.6662
20 22 3 27.1319 -1.1670
22 22 3 -29.7472 -1.8157
24 22 3 8.8711 0.1982
26 22 3 -15.0580 1.1721
28 22 3 10.2884 -0.3850
-29 23 3 -8.0189 -1.1028
-27 23 3 -14.8326 1.3665
-25 23 3 4.9769 1.1077
-23 23 3 7.5596 -1.0313
-21 23 3 26.7925 -0.9083
-19 23 3 -8.2571 0.9496
-17 23 3 9.4311 0.4875
-15 23 3 12.1832 -1.2717
-13 23 3 -2.7850 0.0778
-11 23 3 -10.8961 1.4389
-9 23 3 -8.3433 -0.6981
-7 23 3 -2.5325 -1.9299
-5 23 3 14.6972 0.5065
-3 23 3 3.3726 2.2588
-1 23 3 21.1384 0.1496
1 23 3 -6.5899 -1.1071
3 23 3 -4.0204 0.7021
5 23 3 -7.3105 1.0072
7 23 3 26.1910 -0.5100
9 23 3 -4.3184 -0.2756
11 23 3 6.9794 1.2464
13 23 3 7.0086 0.5930
15 23 3 0.3788 -1.0683
17 23 3 19.0098 -0.5079
19 23 3 -12.5087 0.7952
21 23 3 -7.4831 0.2005
23 23 3 2.5851 -0.9238
25 23 3 14.4601 -0.0445
27 23 3 -7.4070 0.1983
29 23 3 5.9455 -0.0648
-28 24 3 6.1493 0.2974
-26 24 3 -9.4417 1.0447
-24 24 3 -17.8150 -1.2130
-22 24 3 -14.0960 -1.2434
-20 24 3 -27.7902 0.4245
-18 24 3 10.1852 0.3963
-16 24 3 -5.4661 -1.1578
-14 24 3 1.9187 -0.0957
-12 24 3 10.1492 1.6970
-10 24 3 13.2143 0.2828
-8 24 3 -18.0810 -1.9569
-6 24 3 -25.9303 0.1629
-4 24 3 13.8913 2.8175
-2 24 3 21.0853 0.3554
0 24 3 -3.6132 -2.3710
2 24 3 4.4984 -0.2874
4 24 3 -2.2235 1.9676
6 24 3 2.2539 0.1236
8 24 3 -2.2495 -1.3769
10 24 3 19.1698 -0.2026
12 24 3 -8.8861 0.7026
14 24 3 -0.2297 -0.0430
16 24 3 -4.0346 -0.8957
18 24 3 -1.8797 0.0405
20 24 3 9.2211 0.8627
22 24 3 8.4923 -0.4097
24 24 3 20.6408 -1.5575
26 24 3 3.8191 0.3609
28 24 3 0.7422 0.5927
-27 25 3 -10.3034 -0.5726
-25 25 3 -0.2027 0.0667
-23 25 3 6.1976 -0.2746
-21 25 3 -0.3463 0.0928
-19 25 3 -2.7016 0.2379
-17 25 3 -5.3159 -0.2772
-15 25 3 17.0067 -0.3849
-13 25 3 0.1356 0.4497
-11 25 3 4.5257 0.6794
-9 25 3 15.4091 -0.2990
-7 25 3 8.5649 -0.8217
-5 25 3 11.1316 0.1528
-3 25 3 2.1024 0.7642
-1 25 3 10.6460 0.2246
1 25 3 -5.5930 -0.0193
3 25 3 2.9803 -0.0294
5 25 3 -26.1610 0.0283
7 25 3 9.0312 -0.1125
9 25 3 -7.7797 -0.2220
11 25 3 -25.5970 0.2054
13 25 3 -14.3322 0.3916
15 25 3 11.8230 -0.1398
17 25 3 22.4544 -0.9218
19 25 3 8.4322 -0.4959
21 25 3 -1.8427 0.8265
23 25 3 0.5513 0.0075
25 25 3 -10.1175 -0.6548
27 25 3 6.6399 -1.1583
-26 26 3 -4.4560 0.9497
-24 26 3 4.6666 0.3715
-22 26 3 17.1725 0.1958
-20 26 3 14.1382 -0.8223
-18 26 3 8.2106 -0.4608
-16 26 3 12.7694 0.5608
-14 26 3 9.6163 0.6522
-12 26 3 -3.4494 0.1718
-10 26 3 7.3212 -0.0188
-8 26 3 16.6230 -0.1487
-6 26 3 -17.8993 0.0182
-4 26 3 2.1459 -0.0261
-2 26 3 26.6413 -0.0797
0 26 3 3.7452 0.3361
2 26 3 -2.5355 0.3653
4 26 3 -20.8144 -0.5208
6 26 3 -6.3721 -0.9216
8 26 3 -11.0028 -0.0237
10 26 3 7.4773 0.1710
12 26 3 3.7758 -0.5674
14 26 3 -16.5552 -0.4305
16 26 3 -5.1286 0.3687
18 26 3 -3.5253 0.1993
20 26 3 1.9084 -0.9744
22 26 3 0.7275 0.0168
24 26 3 -2.9903 0.4071
26 26 3 8.9062 -0.3508
-25 27 3 -6.1171 0.6515
-23 27 3 15.3117 0.3472
-21 27 3 -16.1574 -0.0459
-19 27 3 -0.8488 -0.2305
-17 27 3 1.9131 -0.0978
-15 27 3 17.8041 -0.2063
-13 27 3 13.6169 -0.1766
-11 27 3 4.3542 0.5097
-9 27 3 -12.5491 0.3334
-7 27 3 16.3691 -0.3289
-5 27 3 4.5073 -0.6385
-3 27 3 -1.8884 -0.4545
-1 27 3 -2.5867 0.0984
1 27 3 -23.0371 0.8759
3 27 3 -4.1848 0.5485
5 27 3 -0.9041 -0.8961
7 27 3 -7.9676 -0.9188
9 27 3 -10.9197 0.1831
11 27 3 -3.5438 0.3771
13 27 3 -3.0891 -0.1620
15 27 3 0.2551 -0.0022
17 27 3 7.4913 0.5406
19 27 3 -1.7702 -0.3051
21 27 3 4.1068 -1.0583
23 27 3 5.7054 -0.1863
25 27 3 1.0344 0.2761
-24 28 3 -17.1923 -1.1831
-22 28 3 12.1286 -0.2752
-20 28 3 0.9168 0.6906
-18 28 3 5.9845 0.3929
-16 28 3 4.8556 -0.6767
-14 28 3 -4.4494 -0.5821
-12 28 3 -17.7806 0.8437
-10 28 3 22.3450 0.5469
-8 28 3 -2.7453 -0.8427
-6 28 3 -24.5958 -0.3748
-4 28 3 5.3944 0.7008
-2 28 3 -7.0192 -0.1213
0 28 3 -7.1764 -0.8931
2 28 3 0.7923 -0.1233
4 28 3 -26.5230 0.4862
6 28 3 1.0703 -0.5611
8 28 3 13.6030 -1.0667
10 28 3 0.7726 0.2988
12 28 3 9.3456 1.0455
14 28 3 6.4101 -0.2995
16 28 3 5.1949 -1.2310
18 28 3 -12.4693 -0.1075
20 28 3 -4.1969 0.7309
22 28 3 -4.1283 0.6792
24 28 3 -0.2817 -0.6783
-23 29 3 14.7361 -0.7446
-21 29 3 0.9682 1.2435
-19 29 3 7.2371 0.7913
-17 29 3 -11.1166 -1.0401
-15 29 3 16.0555 -0.8015
-13 29 3 24.4666 0.9174
-11 29 3 -17.3476 1.3040
-9 29 3 -40.7735 -0.6771
-7 29 3 9.6772 -0.9977
-5 29 3 6.7363 0.4176
-3 29 3 1.2182 0.4680
-1 29 3 -8.0940 -1.0276
1 29 3 4.5463 -0.6505
3 29 3 -10.1650 0.8672
5 29 3 24.1103 0.4825
7 29 3 13.7380 -1.2265
9 29 3 -3.6985 -1.2738
11 29 3 6.6161 0.3800
13 29 3 -10.1863 1.1644
15 29 3 -12.3759 0.0607
17 29 3 16.7855 -0.5210
19 29 3 11.4579 -0.0770
21 29 3 -10.9460 0.3963
23 29 3 -13.3096 -0.3043
-22 30 3 5.9444 1.1205
-20 30 3 -11.6335 0.0875
-18 30 3 12.4649 -0.7061
-16 30 3 5.5270 -0.9952
-14 30 3 -6.7966 0.1972
-12 30 3 -6.7093 0.6503
-10 30 3 12.6027 -0.3563
-8 30 3 1.0034 -0.6960
-6 30 3 -2.1586 0.0836
-4 30 3 -11.5402 0.2135
-2 30 3 -8.7261 -0.5352
0 30 3 -14.0983 -0.2896
2 30 3 14.9415 0.2184
4 30 3 22.6168 -0.3355
6 30 3 3.5493 -0.4257
8 30 3 -0.3902 0.2720
10 30 3 -3.4632 0.4241
12 30 3 3.7501 0.1777
14 30 3 3.5091 0.0092
16 30 3 -3.7349 -0.2635
18 30 3 -11.6189 -0.3773
20 30 3 4.2965 -0.6670
22 30 3 -4.2006 -0.0653
-21 31 3 -9.5992 0.3367
-19 31 3 -6.5425 -1.2941
-17 31 3 -2.8695 -0.0777
-15 31 3 13.5784 0.7524
-13 31 3 -0.6089 -0.1200
-11 31 3 -4.2747 -0.5480
-9 31 3 -7.0325 -0.0795
-7 31 3 8.4916 0.4633
-5 31 3 -18.6466 0.1874
-3 31 3 -0.6309 -0.6755
-1 31 3 -16.4710 -0.4964
1 31 3 21.8493 0.1153
3 31 3 -8.0366 0.3604
5 31 3 2.4189 -0.2176
7 31 3 -6.6186 -0.2230
9 31 3 -12.7254 0.5929
11 31 3 -1.6422 0.4532
13 31 3 7.5474 -0.9203
15 31 3 -3.3175 -0.0320
17 31 3 -4.0206 2.0371
19 31 3 -2.7750 -0.2811
-18 32 3 -0.8525 0.0242
-16 32 3 -22.5300 0.5203
-14 32 3 -4.0719 -0.4497
-12 32 3 -1.3254 -0.2094
-10 32 3 -2.7313 0.2284
-8 32 3 -3.4405 -0.2288
-6 32 3 9.6219 -0.5879
-4 32 3 6.2671 -0.0520
-2 32 3 9.3210 0.0457
0 32 3 -8.9671 -0.1346
2 32 3 -7.1617 0.1519
4 32 3 6.9489 0.0908
6 32 3 3.9781 -0.2986
8 32 3 -12.0866 0.2185
10 32 3 9.2013 1.1377
12 32 3 -2.5685 0.2764
14 32 3 11.8214 -1.1943
16 32 3 -1.3018 -0.0039
18 32 3 -0.8001 0.6133
-17 33 3 4.4396 -0.3256
-15 33 3 2.4079 -1.3448
-13 33 3 -4.9743 -0.5616
-11 33 3 -5.6053 0.7226
-9 33 3 -9.9613 -0.3605
-7 33 3 20.4473 -0.6211
-5 33 3 -3.9428 0.8877
-3 33 3 2.6427 1.3898
-1 33 3 -4.8161 -0.4403
1 33 3 12.3713 -1.4077
3 33 3 2.3626 0.2732
5 33 3 6.8037 1.1347
7 33 3 -8.8451 -0.2178
9 33 3 -5.4220 -0.4776
11 33 3 5.2493 0.9003
13 33 3 5.1067 0.7967
15 33 3 -3.0880 -1.1473
17 33 3 0.0227 -0.2013
-16 34 3 -3.3619 -1.5177
-14 34 3 2.7788 -0.3978
-12 34 3 6.7812 1.3176
-10 34 3 10.2370 0.2812
-8 34 3 -7.1063 -1.2885
-6 34 3 -5.0694 -0.4959
-4 34 3 17.1365 1.2602
-2 34 3 14.1362 0.3747
0 34 3 -3.5810 -0.9110
2 34 3 8.6847 -0.2651
4 34 3 -4.1383 1.4270
6 34 3 2.8359 0.5223
8 34 3 -14.8973 -1.0779
10 34 3 -10.7750 -0.1983
12 34 3 -21.5924 1.2211
14 34 3 -5.8598 0.6390
-13 35 3 -1.1088 0.4503
-11 35 3 -0.0664 0.6260
-9 35 3 2.4818 -0.2006
-7 35 3 4.0829 -0.4100
-5 35 3 -4.9846 0.9885
-3 35 3 -1.5257 0.3825
-1 35 3 -5.4550 -0.6947
1 35 3 16.6192 -0.3162
3 35 3 -7.1714 0.4223
5 35 3 8.4473 0.1571
7 35 3 6.1842 -0.3662
9 35 3 -0.8101 -0.2686
11 35 3 1.5420 0.8694
13 35 3 -20.3754 0.5845
-10 36 3 -1.7318 -0.3908
-8 36 3 -2.2545 0.0986
-6 36 3 -2.7638 -0.0820
-4 36 3 4.2290 -0.3898
-2 36 3 4.9219 -0.2499
0 36 3 -3.4630 0.1170
2 36 3 16.6007 0.5170
4 36 3 -1.9691 0.3953
6 36 3 -0.4960 -0.7398
8 36 3 3.8480 -0.2730
10 36 3 3.5186 0.7878
-5 37 3 -7.9139 0.5902
-3 37 3 -0.9366 -0.6033
-1 37 3 -13.4825 -0.5055
1 37 3 8.5662 0.5431
3 37 3 -9.2770 -0.1488
5 37 3 3.4747 -1.5348
-36 0 4 13.8205 -3.3553
-34 0 4 -32.4636 9.7009
-32 0 4 0.8514 5.9784
-30 0 4 7.1153 -10.1058
-28 0 4 -17.8729 -3.1236
-26 0 4 -25.3695 10.2975
-24 0 4 -5.8555 -9.3346
-22 0 4 -8.8084 -26.2901
-20 0 4 -13.5052 7.3761
-18 0 4 -15.0708 25.3540
-16 0 4 -44.8899 -31.1759
-14 0 4 -12.9689 -58.8027
-12 0 4 45.9883 8.6030
-10 0 4 194.1689 44.1898
-8 0 4 96.1682 -11.6021
-6 0 4 144.3064 -18.9861
-4 0 4 222.7769 53.3261
-2 0 4 429.2917 37.9705
0 0 4 79.2542 -26.7297
2 0 4 -464.5707 27.5634
8 0 4 -177.4888 -48.9874
10 0 4 78.7150 -15.9938
12 0 4 -21.6042 29.7617
14 0 4 103.3324 -0.2472
16 0 4 -7.2923 -25.3354
18 0 4 22.0140 -0.3335
20 0 4 -4.0092 3.4871
22 0 4 -9.2392 -22.9662
24 0 4 34.6941 -16.7943
26 0 4 -16.7847 14.6710
28 0 4 0.7136 14.6707
30 0 4 20.6148 -7.8965
34 0 4 -27.0064 2.9922
36 0 4 -14.4013 4.8303
-37 1 4 -5.3423 -2.6140
-35 1 4 2.6908 4.6303
-33 1 4 7.3051 3.4766
-31 1 4 -3.6862 -8.6534
-29 1 4 -14.3245 -3.7042
-27 1 4 -4.4551 12.3161
-25 1 4 -27.3129 4.5481
-23 1 4 11.4378 -15.0229
-21 1 4 16.9909 -3.8715
-19 1 4 20.0380 19.5871
-17 1 4 -48.6619 6.0247
-15 1 4 89.0793 -16.5864
-13 1 4 -26.6281 1.5174
-11 1 4 -57.5906 17.0933
-9 1 4 8.4896 -12.5382
-7 1 4 -94.0886 -28.9886
-5 1 4 -322.3991 7.9764
-3 1 4 -232.1445 26.8961
-1 1 4 -621.7130 -9.6247
5 1 4 -151.1400 17.8085
7 1 4 29.4812 2.5513
9 1 4 1.8641 -3.7319
11 1 4 104.6910 16.5749
13 1 4 26.0267 13.5638
15 1 4 -39.7370 -14.7010
17 1 4 8.1118 -13.5362
19 1 4 -46.2285 12.8731
21 1 4 -14.3443 12.8760
23 1 4 -7.5424 -8.9635
25 1 4 -2.9652 -10.6935
27 1 4 -2.1613 3.5126
29 1 4 2.8748 1.9300
31 1 4 -10.2242 -4.8142
33 1 4 -4.9274 0.1023
35 1 4 -3.1188 4.2763
-36 2 4 -2.2571 0.6399
-34 2 4 -12.3430 0.7666
-32 2 4 -7.1485 -0.3318
-30 2 4 -7.5171 -0.8952
-28 2 4 3.4266 2.2858
-26 2 4 -10.8573 3.1599
-24 2 4 -8.7295 -3.7532
-22 2 4 -16.7417 -6.9478
-20 2 4 39.1969 0.6077
-18 2 4 14.6701 5.7840
-16 2 4 -25.6845 -2.2016
-14 2 4 26.0534 -5.9559
-12 2 4 -46.6337 3.0852
-10 2 4 31.9919 4.0791
-8 2 4 -136.5947 -5.7282
-6 2 4 103.6117 -2.0616
-4 2 4 -92.5941 14.7795
-2 2 4 268.4698 9.4706
0 2 4 -388.3433 -3.6616
2 2 4 -90.5442 3.5923
4 2 4 119.4031 7.8880
6 2 4 115.5323 -1.2506
8 2 4 -106.0539 -5.4339
10 2 4 -86.6444 1.4635
12 2 4 -87.5155 2.2703
14 2 4 3.3741 -4.5063
16 2 4 8.7460 -5.0369
18 2 4 -15.5476 -1.8883
20 2 4 10.2269 -1.7938
22 2 4 -14.4950 -1.5857
24 2 4 -8.9093 1.9799
26 2 4 2.8541 2.7185
28 2 4 -7.0057 -0.3742
30 2 4 0.5852 -1.6015
32 2 4 -20.4018 -0.2348
34 2 4 7.6865 1.8621
36 2 4 5.2768 0.0159
-37 3 4 3.6312 2.6986
-35 3 4 -4.1121 1.0722
-33 3 4 -0.5418 1.5344
-31 3 4 -1.4514 -1.2719
-29 3 4 18.3343 -4.6035
-27 3 4 -18.2352 -2.4777
-25 3 4 -32.4690 3.4291
-23 3 4 32.6901 5.4332
-21 3 4 -13.2824 -0.7191
-19 3 4 -9.1059 -6.0211
-17 3 4 35.9746 -4.2526
-15 3 4 28.5186 0.2654
-13 3 4 13.8655 3.3093
-11 3 4 -50.5793 3.5308
-9 3 4 12.1332 2.3643
-7 3 4 -119.0557 -3.1320
-5 3 4 -232.1456 -2.8296
-3 3 4 -8.1917 4.0573
-1 3 4 -166.8273 5.0891
1 3 4 366.8714 1.7154
3 3 4 -134.5814 0.2782
7 3 4 -185.6445 -2.7928
9 3 4 -77.4104 0.7449
11 3 4 52.1567 4.6137
13 3 4 75.1804 -1.8028
15 3 4 -17.6427 -7.0240
17 3 4 58.0657 -0.1590
19 3 4 -7.3151 5.3292
21 3 4 -38.6562 0.6086
23 3 4 35.9682 -3.0749
25 3 4 -19.3611 -0.8353
27 3 4 -58.5161 0.1317
29 3 4 -11.5633 -0.5159
31 3 4 0.0735 1.3211
33 3 4 -11.5354 1.6176
35 3 4 -5.0717 -0.7556
-36 4 4 -5.0409 1.0189
-34 4 4 -2.5464 1.8863
-32 4 4 4.8664 -1.8257
-30 4 4 -7.5313 -3.0896
-28 4 4 -9.0188 1.8388
-26 4 4 1.9581 5.4981
-24 4 4 -1.1638 -0.5546
-22 4 4 15.5390 -5.0245
-20 4 4 28.0713 0.6009
-18 4 4 -38.5533 2.8701
-16 4 4 11.2357 -4.2707
-14 4 4 -21.2195 -1.9048
-12 4 4 -81.4689 7.0606
-10 4 4 14.2406 -0.5226
-8 4 4 -85.5541 -13.9272
-6 4 4 83.4034 -4.6415
-4 4 4 -68.0206 13.3354
-2 4 4 342.9637 7.1750
0 4 4 -278.9149 -8.0461
2 4 4 125.9660 -3.8080
4 4 4 -114.7613 7.6681
6 4 4 -83.2295 2.1435
8 4 4 -12.4693 -3.3867
10 4 4 48.5068 6.6637
12 4 4 12.5456 8.2896
14 4 4 2.3221 -5.1898
16 4 4 9.2408 -8.6483
18 4 4 -39.8034 3.4916
20 4 4 46.2868 7.5277
22 4 4 12.6330 -0.7145
24 4 4 -17.6278 -4.4900
26 4 4 17.0047 -0.7195
28 4 4 -1.9226 0.4367
30 4 4 -12.5706 -1.9109
32 4 4 -17.0780 0.3589
34 4 4 0.2219 1.8957
36 4 4 -5.1445 -1.1053
-35 5 4 1.1011 1.5989
-33 5 4 -6.1148 2.1295
-31 5 4 -19.9678 -4.3178
-29 5 4 8.4884 -3.7075
-27 5 4 -9.7427 5.5888
-25 5 4 -14.3519 6.0005
-23 5 4 -0.2683 -4.2802
-21 5 4 -11.7354 -4.6271
-19 5 4 39.2791 4.2704
-17 5 4 3.2023 1.7845
-15 5 4 -19.9076 -5.2635
-13 5 4 72.3272 3.5336
-11 5 4 -23.3367 12.4666
-9 5 4 28.5263 -2.6324
-7 5 4 -3.1900 -16.7242
-5 5 4 -114.2235 -1.0234
-3 5 4 26.6134 12.6714
-1 5 4 -245.4123 0.8254
1 5 4 138.6264 -7.4212
3 5 4 -47.3325 -2.5666
5 5 4 83.4675 -0.7345
7 5 4 -121.9996 -6.9968
9 5 4 -34.2580 -5.4033
11 5 4 -18.0477 8.3355
13 5 4 14.6195 7.3980
15 5 4 -40.8752 -6.9286
17 5 4 83.6384 -8.4633
19 5 4 -6.5614 3.1880
21 5 4 2.4587 6.1588
23 5 4 -2.9883 0.1053
25 5 4 6.0835 -0.1217
27 5 4 -32.2991 2.7211
29 5 4 5.5962 -0.2056
31 5 4 13.1400 -3.0307
33 5 4 1.8567 0.1081
35 5 4 3.2511 3.1717
-36 6 4 -6.7301 2.6566
-34 6 4 7.6439 2.0113
-32 6 4 9.7987 -1.5618
-30 6 4 -1.1235 -2.8446
-28 6 4 -10.0602 1.2340
-26 6 4 -7.3973 0.0824
-24 6 4 -10.7820 -3.3723
-22 6 4 8.2112 0.3679
-20 6 4 -9.5446 5.5477
-18 6 4 18.2459 -0.3959
-16 6 4 43.4476 -8.4820
-14 6 4 -19.3462 -3.1489
-12 6 4 7.8918 6.3348
-10 6 4 -24.2532 2.9572
-8 6 4 -37.6562 -3.7872
-6 6 4 -58.7464 -1.4410
-4 6 4 70.8567 -0.9686
-2 6 4 -106.8122 -4.5971
0 6 4 43.6114 -2.6676
2 6 4 -198.7568 3.4629
4 6 4 -159.9535 4.5567
6 6 4 36.9369 -0.6175
8 6 4 -114.6915 -4.3811
10 6 4 44.6423 -2.6434
12 6 4 -18.1728 3.7849
14 6 4 15.9907 5.5647
16 6 4 -23.8537 1.3433
18 6 4 -52.7143 -1.3656
20 6 4 12.0319 -0.1100
22 6 4 12.5997 -0.2142
24 6 4 -7.4844 -1.9626
26 6 4 -1.9849 -0.0741
28 6 4 -22.4150 2.2438
30 6 4 -7.1548 0.8634
32 6 4 -12.5210 -3.0172
34 6 4 0.2317 -2.0677
36 6 4 -8.6963 1.3978
-35 7 4 -3.2200 -0.7678
-33 7 4 -7.2456 -1.4435
-31 7 4 -6.0891 1.4487
-29 7 4 13.9135 3.1838
-27 7 4 10.6505 0.0588
-25 7 4 12.1742 -1.7803
-23 7 4 -21.6988 0.0758
-21 7 4 25.6825 2.1240
-19 7 4 -0.2874 1.7697
-17 7 4 -23.0616 1.6158
-15 7 4 -37.8911 1.3491
-13 7 4 -14.9975 -0.8546
-11 7 4 -3.7956 -2.8253
-9 7 4 34.7166 -0.0198
-7 7 4 65.7344 3.1241
-5 7 4 -161.1565 1.2985
-3 7 4 -79.0949 -1.2062
-1 7 4 -228.9793 -1.2825
1 7 4 -246.3158 2.3308
3 7 4 45.7518 2.4383
5 7 4 -40.1875 -1.9143
7 7 4 -135.7254 -1.1776
9 7 4 86.1635 0.7200
11 7 4 50.8731 -1.1490
13 7 4 -9.1896 -1.4968
15 7 4 -19.6888 0.9213
17 7 4 3.7352 -0.3262
19 7 4 -22.8283 -3.4817
21 7 4 -0.4836 -1.8716
23 7 4 -4.6304 2.5116
25 7 4 14.0733 2.3892
27 7 4 -16.7578 -0.4526
29 7 4 4.2812 -1.6845
31 7 4 4.3487 -0.6860
33 7 4 -8.3341 -0.0817
35 7 4 -2.3781 1.0081
-36 8 4 -1.6529 -2.7042
-34 8 4 -1.5520 -1.8879
-32 8 4 13.4466 1.2757
-30 8 4 2.2417 2.3671
-28 8 4 -3.8368 -1.8265
-26 8 4 -4.4710 -4.2339
-24 8 4 -5.6493 1.4830
-22 8 4 -9.5565 4.8499
-20 8 4 -5.2578 -0.5997
-18 8 4 0.6407 -3.2080
-16 8 4 15.6313 0.7025
-14 8 4 37.6971 0.5812
-12 8 4 -34.3687 -4.2587
-10 8 4 -70.1820 -1.4803
-8 8 4 -67.7323 5.0852
-6 8 4 -104.1067 0.1212
-4 8 4 -7.3937 -9.5384
-2 8 4 -217.3190 -7.6742
0 8 4 34.6890 1.1750
2 8 4 -201.4708 3.6950
4 8 4 -2.0745 -2.1701
6 8 4 13.9602 -3.1339
8 8 4 -17.2367 1.6338
10 8 4 -18.2671 0.0210
12 8 4 -0.7540 -2.2417
14 8 4 1.0846 3.2459
16 8 4 -2.1644 7.4502
18 8 4 -4.0691 1.2931
20 8 4 -0.4243 -4.9177
22 8 4 12.7618 -0.9939
24 8 4 4.9723 4.1797
26 8 4 -13.4056 1.4891
28 8 4 -7.9752 -1.7749
30 8 4 9.9657 -0.3427
32 8 4 7.0030 0.5154
34 8 4 -0.1388 -2.0070
-35 9 4 -7.1567 0.0261
-33 9 4 2.4912 0.5882
-31 9 4 -11.1749 2.3867
-29 9 4 9.3968 0.1490
-27 9 4 -0.2910 -1.7934
-25 9 4 -3.7146 -0.9702
-23 9 4 -5.2678 -0.0952
-21 9 4 8.1567 -0.6098
-19 9 4 33.4713 -0.6404
-17 9 4 -20.0979 0.8849
-15 9 4 -76.6301 -0.2959
-13 9 4 -65.5059 -3.2015
-11 9 4 0.8762 -1.3252
-9 9 4 -85.9646 4.1668
-7 9 4 -25.1007 3.6120
-5 9 4 89.4285 -1.0058
-3 9 4 51.9195 -0.6359
-1 9 4 -76.6489 0.6360
1 9 4 -57.8487 -1.4143
3 9 4 -9.7170 2.5680
5 9 4 59.1237 4.8647
7 9 4 -107.0042 -2.0023
9 9 4 -30.0241 -3.8318
11 9 4 38.3103 0.0424
13 9 4 -25.8238 0.4130
15 9 4 35.1782 -0.0412
17 9 4 -7.7372 1.6688
19 9 4 1.0894 1.6114
21 9 4 -10.2237 -2.6149
23 9 4 -9.5404 -3.1625
25 9 4 -2.6231 1.1980
27 9 4 0.4062 2.2732
29 9 4 -12.1653 -0.4465
31 9 4 4.4617 -1.4419
33 9 4 3.1645 0.6488
35 9 4 13.9653 -0.2923
-34 10 4 -2.0100 0.6337
-32 10 4 12.0087 0.4545
-30 10 4 -6.0632 -0.7192
-28 10 4 -1.2317 0.6080
-26 10 4 -1.2090 0.8651
-24 10 4 -9.5647 -0.1217
-22 10 4 2.3739 -0.3771
-20 10 4 15.0536 2.5916
-18 10 4 -7.7043 3.5960
-16 10 4 20.7487 0.6991
-14 10 4 26.0280 -1.2201
-12 10 4 -3.0716 0.2632
-10 10 4 -22.5814 1.2372
-8 10 4 -11.5961 -0.0268
-4 10 4 -79.5077 -2.0871
-2 10 4 -29.5083 -0.9346
0 10 4 -167.1892 -2.2608
2 10 4 -67.8335 -3.0982
4 10 4 130.5519 -0.0829
6 10 4 -54.9835 1.3106
8 10 4 1.1252 -1.3346
10 10 4 -31.3362 -1.3422
12 10 4 31.1923 1.7396
14 10 4 15.5429 2.6261
16 10 4 -13.2869 -0.6819
18 10 4 -3.7234 -1.5347
20 10 4 4.6325 0.5411
22 10 4 -4.4148 1.3481
24 10 4 -3.4791 -0.2486
26 10 4 -13.1620 -0.1536
28 10 4 6.4505 0.5109
30 10 4 -1.6933 -0.3121
32 10 4 3.4543 -1.3147
34 10 4 -7.3045 0.7536
-35 11 4 16.2598 0.3276
-33 11 4 4.9831 -0.0261
-31 11 4 -10.1359 -1.1662
-29 11 4 13.2351 0.9475
-27 11 4 3.3510 0.5155
-25 11 4 0.3710 -1.6102
-23 11 4 12.8766 -1.3341
-21 11 4 -11.8715 -0.1193
-19 11 4 21.4670 -0.6688
-17 11 4 -15.0290 -1.8759
-15 11 4 15.6321 -1.0178
-13 11 4 -20.8406 -0.3122
-11 11 4 44.4685 -0.2122
-9 11 4 -0.2542 -0.1035
-7 11 4 -39.8854 -0.3057
-5 11 4 111.1152 1.6316
-3 11 4 -31.0636 2.8907
-1 11 4 -37.8835 -0.1385
1 11 4 51.9812 -1.8814
3 11 4 26.1053 1.9952
5 11 4 1.0736 3.0388
7 11 4 -49.1391 -0.5323
9 11 4 -11.0060 -1.9131
11 11 4 19.0033 -0.1824
13 11 4 -23.2728 0.8186
15 11 4 8.6514 -0.6569
17 11 4 -14.9697 -0.5040
19 11 4 -7.6933 1.4182
21 11 4 -5.4927 0.9259
23 11 4 -9.8034 -1.1587
25 11 4 5.1060 -1.8258
27 11 4 -1.2355 0.5744
29 11 4 -22.3745 1.2911
31 11 4 -3.6093 0.1766
33 11 4 -6.8941 -1.5794
35 11 4 6.1285 -2.4661
-34 12 4 -1.5231 -0.9522
-32 12 4 19.4726 -0.8058
-30 12 4 2.2051 1.2198
-28 12 4 0.3187 -0.4638
-26 12 4 14.3133 -1.5583
-24 12 4 0.7346 0.4160
-22 12 4 -12.3668 1.8884
-20 12 4 -15.0957 -0.8514
-18 12 4 17.3669 -2.1347
-16 12 4 14.2632 1.9180
-14 12 4 38.3797 3.4586
-12 12 4 -25.1228 -1.3686
-10 12 4 -96.7512 -2.3163
-8 12 4 -19.9599 2.0411
-6 12 4 2.6731 2.4453
-4 12 4 -38.5148 -1.7348
-2 12 4 34.3270 -1.0989
0 12 4 -103.2260 3.8976
2 12 4 43.4264 0.3328
4 12 4 32.3955 -5.4367
6 12 4 -42.1116 -0.6089
8 12 4 -8.9376 4.5546
10 12 4 34.6697 0.8700
12 12 4 -36.3667 -3.2887
14 12 4 8.2443 -0.8207
16 12 4 19.8237 1.3035
18 12 4 -12.1401 -1.6637
20 12 4 26.8156 -1.8106
22 12 4 0.0823 1.8779
24 12 4 -11.1370 1.5288
26 12 4 -2.6964 -2.0677
28 12 4 -2.0902 -1.7821
30 12 4 12.3479 1.0230
32 12 4 19.7117 1.4825
34 12 4 6.6202 -0.7280
-33 13 4 -6.1424 -0.2776
-31 13 4 -15.0671 2.0288
-29 13 4 23.8578 -0.5636
-27 13 4 -17.0200 -2.6606
-25 13 4 12.6535 1.0252
-23 13 4 7.0191 3.6133
-21 13 4 7.7633 -1.1575
-19 13 4 -8.1093 -4.1344
-17 13 4 -42.9479 1.6089
-15 13 4 -14.2568 4.1019
-13 13 4 -21.7480 -1.1658
-11 13 4 16.8116 -2.8826
-9 13 4 0.4634 1.8630
-7 13 4 60.2260 2.1388
-5 13 4 96.1525 -2.0686
-3 13 4 -33.3684 -1.0007
-1 13 4 80.8579 3.0316
1 13 4 48.2134 2.9125
3 13 4 16.9637 -2.2099
5 13 4 48.2143 -2.9755
7 13 4 -42.5274 2.7318
9 13 4 -19.2092 3.5465
11 13 4 -11.8469 -1.4235
13 13 4 -29.8157 -2.2641
15 13 4 16.3050 1.0103
17 13 4 18.2195 1.0642
19 13 4 6.0925 -1.3416
21 13 4 7.3225 -0.7667
23 13 4 2.0862 1.5351
25 13 4 -0.7432 0.4175
27 13 4 6.1670 -1.9022
29 13 4 5.6098 -1.2511
31 13 4 -3.7849 1.5285
33 13 4 -6.9827 0.3955
-34 14 4 9.6963 1.8866
-32 14 4 7.7581 0.4248
-30 14 4 2.6912 -0.3957
-28 14 4 -1.5720 0.3235
-26 14 4 8.8726 1.7530
-24 14 4 -13.0399 0.6354
-22 14 4 2.9366 -1.7816
-20 14 4 -2.9741 -2.0245
-18 14 4 6.4811 0.2558
-16 14 4 3.0174 0.8244
-14 14 4 38.1849 0.8330
-12 14 4 35.8302 0.6567
-10 14 4 -17.4492 -0.5076
-8 14 4 28.5211 -1.3092
-6 14 4 14.5525 -0.1716
-4 14 4 18.5998 2.0370
-2 14 4 -46.9486 2.7772
0 14 4 -83.5111 0.1259
2 14 4 5.8655 -2.1945
4 14 4 -62.1309 -1.1656
6 14 4 -1.1000 0.0199
8 14 4 17.5405 0.9553
10 14 4 13.7518 1.3771
12 14 4 -2.6722 -0.1098
14 14 4 10.2996 -2.0371
16 14 4 -2.6628 -1.5469
18 14 4 -22.1887 0.5607
20 14 4 27.9475 1.6719
22 14 4 10.1744 0.9132
24 14 4 -1.9477 -0.2581
26 14 4 -6.0780 -0.8705
28 14 4 -8.4507 -0.3876
30 14 4 3.2794 0.1433
32 14 4 -1.9384 1.4795
34 14 4 -2.2906 2.9786
-33 15 4 8.1354 -0.1267
-31 15 4 -9.4207 -1.3586
-29 15 4 6.1737 -0.8507
-27 15 4 4.1873 0.5475
-25 15 4 15.0741 0.1736
-23 15 4 -10.8110 -0.6707
-21 15 4 -0.7371 0.0692
-19 15 4 -2.0598 0.6363
-17 15 4 -27.4190 -0.4675
-15 15 4 9.5120 -0.9478
-13 15 4 17.0734 0.5620
-11 15 4 -4.3841 1.3969
-9 15 4 -29.3406 0.7156
-7 15 4 42.7138 -1.0975
-5 15 4 -25.4913 -1.0496
-3 15 4 -98.2400 1.4735
-1 15 4 84.2823 1.8902
1 15 4 59.3495 -1.2331
3 15 4 -38.4924 -1.4933
5 15 4 -22.6561 2.0329
7 15 4 -19.7010 0.7428
9 15 4 27.0148 -2.5795
11 15 4 23.0328 -0.7630
13 15 4 17.2828 2.1246
15 15 4 10.3757 -0.2873
17 15 4 -8.4117 -3.3127
19 15 4 -5.3259 -0.3445
21 15 4 -2.4772 2.4486
23 15 4 -5.2814 -0.0507
25 15 4 -8.9576 -2.3897
27 15 4 -18.5987 0.0714
29 15 4 6.5471 1.5427
31 15 4 -10.9969 0.0982
33 15 4 9.9890 -1.4265
-32 16 4 6.3865 -2.7788
-30 16 4 9.0843 0.2259
-28 16 4 -22.7548 2.2230
-26 16 4 -12.9005 0.1324
-24 16 4 -1.6397 -1.9341
-22 16 4 1.3903 -0.2129
-20 16 4 0.7724 1.0791
-18 16 4 -2.5536 -0.4457
-16 16 4 -8.0954 0.1120
-14 16 4 -3.5480 1.7812
-12 16 4 -13.9865 -0.1132
-10 16 4 -39.2890 -2.0746
-8 16 4 12.6638 0.0643
-6 16 4 52.6065 2.1757
-4 16 4 61.9309 1.1372
-2 16 4 -7.5490 -0.3443
0 16 4 -35.8201 0.0321
2 16 4 14.0415 -0.6528
4 16 4 -11.9543 -0.7304
6 16 4 46.0271 1.1844
8 16 4 22.2665 0.7765
10 16 4 3.1702 -1.4936
12 16 4 5.6916 -1.0801
14 16 4 -47.7698 1.1813
16 16 4 17.8219 0.7831
18 16 4 2.2089 -1.1890
20 16 4 -10.5936 -0.0147
22 16 4 14.3695 1.6960
24 16 4 -9.7827 -0.0522
26 16 4 -8.8372 -1.2688
28 16 4 -3.5427 0.6339
30 16 4 0.2215 1.1541
32 16 4 -6.2435 -0.7095
-33 17 4 1.9385 -1.7333
-31 17 4 -6.0631 1.0505
-29 17 4 -0.6083 0.9980
-27 17 4 16.2247 -1.5696
-25 17 4 -3.0697 -0.6519
-23 17 4 -6.5424 2.6071
-21 17 4 5.0967 0.6793
-19 17 4 3.3720 -3.0378
-17 17 4 -20.0240 0.0224
-15 17 4 -16.9615 3.6031
-13 17 4 -14.5196 -0.6439
-11 17 4 -9.0230 -3.7794
-9 17 4 -7.5272 1.0775
-7 17 4 27.7912 4.1722
-5 17 4 -34.9226 -1.2936
-3 17 4 -20.2354 -4.6042
-1 17 4 9.1333 1.5527
1 17 4 -35.3356 3.6224
3 17 4 50.8592 -2.5229
5 17 4 -9.4625 -3.3841
7 17 4 9.4389 2.9686
9 17 4 -11.7963 2.2480
11 17 4 -6.2747 -3.8158
13 17 4 11.9450 -2.4345
15 17 4 -18.8318 2.9228
17 17 4 -35.0876 1.3880
19 17 4 -13.1488 -3.1204
21 17 4 -0.1585 -0.9203
23 17 4 5.7459 2.7445
25 17 4 2.9033 0.4894
27 17 4 11.0485 -1.9124
29 17 4 -0.6325 -0.1757
31 17 4 -8.3988 2.8571
-32 18 4 -4.5685 0.7350
-30 18 4 7.2210 0.9328
-28 18 4 4.4019 -1.9066
-26 18 4 2.5165 -1.4127
-24 18 4 14.3015 1.5265
-22 18 4 -0.0791 1.2234
-20 18 4 11.6306 -1.1545
-18 18 4 3.2836 -0.3621
-16 18 4 -0.5606 1.6991
-14 18 4 12.9362 0.3399
-12 18 4 3.9494 -2.4994
-10 18 4 -19.4097 -0.3856
-8 18 4 8.2942 3.1971
-6 18 4 41.3781 1.0542
-4 18 4 -12.4057 -3.0129
-2 18 4 21.7449 -2.2168
0 18 4 -31.5216 1.5640
2 18 4 11.1130 0.9799
4 18 4 8.5907 -1.3730
6 18 4 13.3469 0.0095
8 18 4 -6.7014 1.3764
10 18 4 12.6780 -0.7162
12 18 4 -14.8103 -2.2326
14 18 4 -12.4638 0.3497
16 18 4 5.2952 3.0305
18 18 4 0.4326 1.0828
20 18 4 -1.6878 -1.8197
22 18 4 5.3976 -1.2360
24 18 4 10.9685 0.9200
26 18 4 -3.6834 1.1357
28 18 4 3.7841 -0.2760
30 18 4 17.6248 -0.0844
32 18 4 4.8765 2.7113
-31 19 4 0.0144 1.9888
-29 19 4 0.8050 -1.0443
-27 19 4 13.5354 -0.1368
-25 19 4 3.9525 0.8415
-23 19 4 3.9446 0.4932
-21 19 4 -0.0945 -0.6657
-19 19 4 15.7930 -0.5816
-17 19 4 -12.7421 1.0273
-15 19 4 -16.3865 0.6237
-13 19 4 -21.4483 -1.0394
-11 19 4 0.6164 -1.0955
-9 19 4 -1.8235 0.0297
-7 19 4 12.4530 0.0344
-5 19 4 -10.1075 -0.7626
-3 19 4 8.8775 -0.3359
-1 19 4 17.2128 -0.2262
1 19 4 16.6501 -0.6869
3 19 4 16.1177 -0.6616
5 19 4 -27.9792 -0.0687
7 19 4 10.4834 0.4356
9 19 4 16.5355 0.2260
11 19 4 0.4994 0.4062
13 19 4 -19.8547 0.1062
15 19 4 14.8009 -0.2928
17 19 4 3.2758 0.5890
19 19 4 -11.2741 0.9373
21 19 4 -1.0638 -0.0626
23 19 4 -19.9918 -0.5674
25 19 4 5.8192 0.6481
27 19 4 -3.8485 0.5405
29 19 4 -1.5836 -0.0900
31 19 4 5.7453 0.3898
-30 20 4 6.4985 -1.6902
-28 20 4 1.8003 0.3316
-26 20 4 -0.9810 0.1957
-24 20 4 18.2118 -0.1081
-22 20 4 -8.2499 0.3514
-20 20 4 4.6064 0.9288
-18 20 4 -1.7321 -0.3231
-16 20 4 6.7073 -1.6323
-14 20 4 -9.8045 -0.6332
-12 20 4 -0.1753 1.3069
-10 20 4 -23.4389 0.6910
-8 20 4 23.9667 -0.8377
-6 20 4 16.6106 -1.1930
-4 20 4 -21.6522 -0.0092
-2 20 4 -4.8254 1.0194
0 20 4 -31.4628 -0.3444
2 20 4 -10.1906 -1.1430
4 20 4 -3.1400 0.8622
6 20 4 -0.9007 1.4768
8 20 4 -11.9148 -1.0747
10 20 4 11.5448 -1.2247
12 20 4 -8.7336 1.1002
14 20 4 3.4232 0.9533
16 20 4 -11.9908 -1.2142
18 20 4 2.0669 -0.5597
20 20 4 -6.2257 1.5105
22 20 4 1.4040 0.3686
24 20 4 8.0488 -1.6775
26 20 4 -1.8940 -0.3018
28 20 4 2.2846 1.7344
30 20 4 -5.5047 0.9667
-29 21 4 3.6481 -0.3108
-27 21 4 8.4958 -0.3022
-25 21 4 2.1204 -0.7316
-23 21 4 -1.4262 0.3725
-21 21 4 7.3644 0.1031
-19 21 4 1.0511 -0.3048
-17 21 4 -1.3232 0.0561
-15 21 4 -9.4594 0.6822
-13 21 4 8.8329 0.0320
-11 21 4 2.8350 -0.4171
-9 21 4 7.2428 -0.0452
-7 21 4 4.0328 0.3146
-5 21 4 8.1380 -0.3524
-3 21 4 -14.2379 -0.6339
-1 21 4 -5.5754 0.2199
1 21 4 -3.3178 -0.3121
3 21 4 -17.3223 -0.9641
5 21 4 0.9723 -0.4341
7 21 4 3.6532 0.5862
9 21 4 1.3291 0.4808
11 21 4 -4.0094 -0.2866
13 21 4 -7.4204 -0.1607
15 21 4 11.8581 0.6322
17 21 4 2.1793 0.5344
19 21 4 8.1483 -0.1386
21 21 4 7.5418 0.1839
23 21 4 0.7199 0.1496
25 21 4 25.5761 0.4005
27 21 4 -19.1813 0.0941
29 21 4 12.2194 1.0954
-30 22 4 -8.3567 -0.6953
-28 22 4 1.7748 -0.6816
-26 22 4 -15.2343 -0.5101
-24 22 4 8.1327 1.3996
-22 22 4 -7.0489 0.6955
-20 22 4 7.0813 -1.1201
-18 22 4 -2.9775 -0.9157
-16 22 4 -12.0586 0.3922
-14 22 4 -11.3475 0.7365
-12 22 4 -0.9446 0.0928
-10 22 4 -13.4600 -0.4361
-8 22 4 2.6720 -0.0467
-6 22 4 -4.4004 -0.8193
-4 22 4 7.4088 -1.3371
-2 22 4 -3.9456 0.4880
0 22 4 4.1185 2.0554
2 22 4 -24.9870 0.1757
4 22 4 0.9371 -1.9638
6 22 4 6.2724 -0.5003
8 22 4 -10.1419 1.5710
10 22 4 -22.2668 1.1994
12 22 4 9.8512 -0.1972
14 22 4 -8.9827 -0.0470
16 22 4 -1.5586 0.0199
18 22 4 6.4824 -0.6662
20 22 4 6.8799 -0.5774
22 22 4 5.0956 0.3219
24 22 4 -9.8023 1.3327
26 22 4 7.8486 0.0904
28 22 4 2.7979 -1.3618
-29 23 4 -4.0224 -1.3193
-27 23 4 2.6759 -1.5178
-25 23 4 -5.6782 0.7527
-23 23 4 -3.5245 1.1731
-21 23 4 -3.6312 -0.3518
-19 23 4 0.5192 -0.7914
-17 23 4 -4.6041 0.2923
-15 23 4 -7.5132 0.4606
-13 23 4 1.3622 -1.0635
-11 23 4 8.7413 -0.8270
-9 23 4 8.8127 1.1294
-7 23 4 0.8994 1.2238
-5 23 4 4.9816 -1.0613
-3 23 4 -2.9225 -1.6904
-1 23 4 16.4099 0.5466
1 23 4 2.3841 1.3932
3 23 4 -1.0942 -0.0620
5 23 4 -31.9052 -0.3960
7 23 4 -21.1479 0.1626
9 23 4 -17.3195 0.3588
11 23 4 0.5633 -0.1342
13 23 4 1.7697 -0.3100
15 23 4 -13.2984 0.4956
17 23 4 -6.0829 1.1873
19 23 4 -0.1745 -0.0663
21 23 4 -8.8298 -0.7318
23 23 4 15.3358 -0.3855
25 23 4 4.8347 0.8843
27 23 4 2.5069 -0.3904
29 23 4 -1.2166 -0.0977
-28 24 4 16.3851 -0.6363
-26 24 4 -11.1109 0.1855
-24 24 4 7.7459 -0.1224
-22 24 4 8.1846 -1.2630
-20 24 4 17.0291 -0.2707
-18 24 4 -2.9403 0.5466
-16 24 4 -2.5106 0.0222
-14 24 4 7.7137 -0.3678
-12 24 4 8.1947 -0.1155
-10 24 4 -5.2008 0.4940
-8 24 4 35.2485 0.0899
-6 24 4 24.4576 -0.3264
-4 24 4 -11.7132 0.0879
-2 24 4 0.1216 0.8023
0 24 4 -9.3321 0.6513
2 24 4 -22.6393 0.0801
4 24 4 23.1609 -0.0758
6 24 4 -1.7583 0.2976
8 24 4 10.5841 0.2180
10 24 4 -35.4274 0.0746
12 24 4 -8.5234 0.7622
14 24 4 -22.3058 0.5219
16 24 4 8.7877 -0.6933
18 24 4 -18.3398 -1.2425
20 24 4 -0.8538 0.1060
22 24 4 12.3828 0.4682
24 24 4 -3.3749 -0.1060
26 24 4 2.1486 -0.5594
28 24 4 1.1255 -0.5879
-27 25 4 4.6256 0.1380
-25 25 4 -11.4256 -0.4600
-23 25 4 0.5844 -1.0309
-21 25 4 -4.9924 0.6719
-19 25 4 25.8564 1.2123
-17 25 4 -0.1673 -0.4570
-15 25 4 5.1033 -1.2923
-13 25 4 -1.6628 -0.0484
-11 25 4 1.5511 0.7338
-9 25 4 -9.9968 0.7001
-7 25 4 19.0608 0.1272
-5 25 4 5.7392 -0.2728
-3 25 4 -8.4916 0.0753
-1 25 4 0.6662 -0.1099
1 25 4 -5.8640 0.1414
3 25 4 -2.8401 0.9263
5 25 4 -4.5967 0.7625
7 25 4 -8.6275 -0.3064
9 25 4 -5.2925 -0.9740
11 25 4 1.6943 -0.5934
13 25 4 -12.2855 0.5711
15 25 4 0.4099 0.7294
17 25 4 -4.6214 -0.7396
19 25 4 18.1768 -0.7939
21 25 4 -3.6362 0.4974
23 25 4 -12.0397 0.1651
25 25 4 -3.3753 -0.2904
27 25 4 6.0059 -0.8210
-26 26 4 -5.0003 -0.9353
-24 26 4 -8.7047 -1.0998
-22 26 4 -19.3251 -0.3313
-20 26 4 2.3463 0.7668
-18 26 4 -7.7576 -0.0768
-16 26 4 -4.8412 -0.2475
-14 26 4 -9.7695 0.5051
-12 26 4 0.0378 -0.0672
-10 26 4 -3.6436 -0.5337
-8 26 4 -3.3548 0.9484
-6 26 4 -0.9253 1.1642
-4 26 4 -5.5126 -0.5070
-2 26 4 -6.7922 -1.0156
0 26 4 -2.0524 0.3161
2 26 4 -25.4933 0.4810
4 26 4 22.1031 -0.1907
6 26 4 -13.4774 0.1515
8 26 4 11.4166 0.5166
10 26 4 -9.3137 -0.5081
12 26 4 14.0529 -0.9002
14 26 4 -6.0039 0.7355
16 26 4 -16.2959 1.1539
18 26 4 -11.7652 -0.8129
20 26 4 -6.6352 -1.0251
22 26 4 1.1681 0.4668
24 26 4 4.2878 0.9073
26 26 4 13.0910 -0.6138
-25 27 4 1.2282 -0.9332
-23 27 4 -11.3751 0.8291
-21 27 4 5.0168 0.3171
-19 27 4 2.0120 -0.9854
-17 27 4 3.8129 -0.2435
-15 27 4 2.6011 1.3919
-13 27 4 7.6488 0.4093
-11 27 4 -8.5146 -1.6037
-9 27 4 -10.5493 -0.2220
-7 27 4 12.9685 1.8070
-5 27 4 6.3555 0.4372
-3 27 4 0.2917 -1.0149
-1 27 4 -15.3569 0.3678
1 27 4 -12.9266 1.6838
3 27 4 0.7078 -0.2501
5 27 4 -7.1753 -1.4627
7 27 4 14.6216 0.5179
9 27 4 -8.7148 1.2339
11 27 4 6.9566 -0.4563
13 27 4 -6.9599 -1.1616
15 27 4 11.6458 0.3861
17 27 4 -14.8374 0.2599
19 27 4 4.1942 -0.8965
21 27 4 0.6737 -0.8552
23 27 4 -12.6953 0.8594
25 27 4 7.8954 0.8664
-24 28 4 -2.4384 1.1674
-22 28 4 -22.0077 -0.7068
-20 28 4 12.1741 -1.1200
-18 28 4 7.3637 0.1288
-16 28 4 6.7370 1.4851
-14 28 4 9.2231 -0.0422
-12 28 4 17.0407 -1.5152
-10 28 4 -0.0001 0.0121
-8 28 4 -7.6192 1.7274
-6 28 4 -15.0397 0.5351
-4 28 4 -0.9972 -1.0383
-2 28 4 -13.9756 -0.6402
0 28 4 24.4850 0.6967
2 28 4 -0.5431 0.5115
4 28 4 42.5836 -1.0831
6 28 4 4.5366 -0.5783
8 28 4 6.4620 0.9749
10 28 4 3.2462 0.1036
12 28 4 -15.0484 -1.5272
14 28 4 1.2609 -0.6136
16 28 4 -10.3448 1.1829
18 28 4 -7.8493 0.7914
20 28 4 -5.7612 -1.0432
22 28 4 -11.7192 -0.6268
24 28 4 -9.8314 0.6102
-23 29 4 -8.9535 -0.6196
-21 29 4 2.4479 -0.7058
-19 29 4 5.4675 -0.0648
-17 29 4 2.7522 0.6108
-15 29 4 -5.2677 -0.1739
-13 29 4 -12.6222 -0.3536
-11 29 4 -1.2494 0.0657
-9 29 4 -2.1658 0.0320
-7 29 4 7.1163 -0.5529
-5 29 4 0.0596 -0.3573
-3 29 4 -4.8036 0.5891
-1 29 4 -9.0044 0.3066
1 29 4 -16.0460 -0.3385
3 29 4 13.9011 -0.3669
5 29 4 2.3526 -0.0791
7 29 4 14.8112 0.0188
9 29 4 -13.6542 0.4048
11 29 4 10.4071 0.5421
13 29 4 -5.3693 -0.3103
15 29 4 -6.0505 -0.7700
17 29 4 -5.3633 -0.2519
19 29 4 7.6190 0.5900
21 29 4 6.7657 1.0564
23 29 4 -1.9693 0.1514
-22 30 4 -33.2358 -1.3652
-20 30 4 -2.7182 0.9322
-18 30 4 -7.1241 1.0752
-16 30 4 8.2985 -0.6380
-14 30 4 -5.4780 -0.6092
-12 30 4 -2.1353 1.0192
-10 30 4 -5.1704 0.8439
-8 30 4 7.4230 -0.8444
-6 30 4 7.9795 -0.8942
-4 30 4 -4.8374 0.8078
-2 30 4 12.1920 0.5791
0 30 4 7.8333 -1.4043
2 30 4 2.0950 -1.0232
4 30 4 15.3367 0.5380
6 30 4 -12.1165 0.1816
8 30 4 -8.8115 -0.6924
10 30 4 -5.7152 -0.0175
12 30 4 -10.9155 0.8455
14 30 4 5.9810 -0.0355
16 30 4 -2.5721 -0.8318
18 30 4 -14.8796 0.2864
20 30 4 7.9063 1.2520
22 30 4 3.4513 0.3141
-21 31 4 2.9483 0.2052
-19 31 4 8.4222 -0.0675
-17 31 4 10.6636 -1.3916
-15 31 4 -0.4093 0.1851
-13 31 4 7.7615 0.6444
-11 31 4 0.9253 0.1746
-9 31 4 -3.8366 -1.1570
-7 31 4 -12.9149 -0.7547
-5 31 4 6.3508 0.6054
-3 31 4 9.1231 0.5696
-1 31 4 8.0431 -0.0170
1 31 4 1.9242 -0.3250
3 31 4 10.6788 -0.1509
5 31 4 -15.1698 -0.0335
7 31 4 1.1325 0.1922
9 31 4 2.6902 -0.0128
11 31 4 1.7598 -0.0503
13 31 4 -11.3587 0.3265
15 31 4 7.7973 -0.0339
17 31 4 0.9707 -0.3209
19 31 4 -0.2752 0.0845
-18 32 4 -3.1450 -0.2403
-16 32 4 -0.3712 0.5287
-14 32 4 1.3865 0.3486
-12 32 4 5.3581 -0.2131
-10 32 4 -2.2576 -0.0044
-8 32 4 -1.7843 -0.0377
-6 32 4 9.5740 0.0312
-4 32 4 2.5009 -0.2838
-2 32 4 12.9763 -0.0550
0 32 4 -3.4128 0.2079
2 32 4 3.6391 -0.3522
4 32 4 6.9364 -0.4889
6 32 4 3.4441 0.0648
8 32 4 -12.0563 0.2056
10 32 4 -11.7851 0.0589
12 32 4 2.5766 -0.2142
14 32 4 10.0870 -0.5100
16 32 4 -3.0053 0.7969
18 32 4 -13.0357 0.7661
-17 33 4 6.3992 -0.1992
-15 33 4 0.5465 0.8157
-13 33 4 -6.7640 -0.3036
-11 33 4 -3.2254 -0.6968
-9 33 4 16.6471 -0.1903
-7 33 4 -2.1282 0.0832
-5 33 4 10.1291 -0.0468
-3 33 4 9.3256 -0.1626
-1 33 4 1.5456 -0.3211
1 33 4 -1.8617 0.2947
3 33 4 17.7401 0.1840
5 33 4 0.9109 -0.3051
7 33 4 0.9384 0.1805
9 33 4 -0.7088 1.0185
11 33 4 -6.4662 -0.0431
13 33 4 -17.0148 -0.7249
15 33 4 -7.0665 0.5774
17 33 4 1.4735 0.7807
-14 34 4 11.8337 -0.7593
-12 34 4 4.6842 -0.0705
-10 34 4 -11.5663 0.7449
-8 34 4 -0.9927 -0.0312
-6 34 4 -9.5081 -0.2108
-4 34 4 7.8312 0.5000
-2 34 4 6.9405 0.1386
0 34 4 0.6789 -0.5318
2 34 4 0.7864 -0.2370
4 34 4 -11.9529 0.6955
6 34 4 2.3560 0.1764
8 34 4 8.2362 -0.1691
10 34 4 5.2517 0.3477
12 34 4 -14.3392 0.5415
14 34 4 -5.5902 0.1734
-13 35 4 -5.6604 0.8451
-11 35 4 -4.6720 1.3955
-9 35 4 5.5047 -0.4555
-7 35 4 -4.6868 -0.6886
-5 35 4 -5.8026 0.3970
-3 35 4 -6.3546 0.4010
-1 35 4 -10.6007 -0.8316
1 35 4 8.9312 -0.5636
3 35 4 4.7310 0.8093
5 35 4 -3.0275 0.6318
7 35 4 -10.5236 -0.2867
9 35 4 1.8669 -1.0175
11 35 4 6.6582 0.1591
13 35 4 4.6752 0.5396
-10 36 4 -0.1231 -0.4089
-8 36 4 -4.6903 -0.6020
-6 36 4 2.5155 -0.2480
-4 36 4 2.0725 0.9458
-2 36 4 -4.9167 0.2163
0 36 4 -4.0660 -0.6909
2 36 4 4.6334 -0.3340
4 36 4 1.3033 0.7752
6 36 4 3.4018 0.4317
8 36 4 5.8993 0.2611
10 36 4 5.7016 0.0758
-5 37 4 -2.5847 0.4104
-3 37 4 -2.3658 -0.4095
-1 37 4 -9.0316 -0.2833
1 37 4 -3.0977 0.1881
3 37 4 6.2009 -0.0047
5 37 4 8.0941 -0.6640
-37 1 5 -0.5976 -2.9541
-35 1 5 4.5594 6.7537
-33 1 5 2.0549 8.0479
-31 1 5 4.0253 -7.7812
-29 1 5 19.7451 -16.1873
-27 1 5 -7.0540 3.0439
-25 1 5 -17.7905 17.5249
-23 1 5 12.4221 5.1301
-21 1 5 -21.1178 -5.2308
-19 1 5 22.9031 -1.7160
-17 1 5 52.3735 -12.1370
-15 1 5 25.8157 -19.4298
-13 1 5 7.7755 14.2170
-11 1 5 -119.5874 39.7400
-9 1 5 -116.7003 0.8145
-7 1 5 -186.2824 -45.6975
-5 1 5 -78.3393 -25.9462
-3 1 5 -403.4228 18.5923
1 1 5 523.0363 -7.8224
3 1 5 -191.0506 10.4041
5 1 5 -75.0509 0.9664
7 1 5 -285.7834 -39.6951
9 1 5 -84.6872 -16.8834
11 1 5 -57.9430 44.4161
13 1 5 71.8223 35.6054
15 1 5 3.8449 -20.2612
17 1 5 36.1445 -23.0083
19 1 5 14.5657 10.8461
21 1 5 -10.0572 11.8460
23 1 5 1.8669 -3.3544
25 1 5 -17.4786 3.5070
27 1 5 -22.9785 10.1393
29 1 5 -2.1013 -5.5622
31 1 5 13.8804 -13.7226
33 1 5 8.8971 0.8683
35 1 5 3.2570 10.8957
-36 2 5 -3.4650 -1.3725
-34 2 5 3.5806 3.8234
-32 2 5 25.9119 0.6792
-30 2 5 -13.3329 -4.0105
-28 2 5 4.1606 3.2396
-26 2 5 10.6031 5.6184
-24 2 5 12.2109 -10.2686
-22 2 5 35.8105 -13.1268
-20 2 5 4.7782 11.9561
-18 2 5 -49.9760 20.4791
-16 2 5 -6.5685 -6.5089
-14 2 5 -78.8094 -17.8267
-12 2 5 -35.5449 6.5016
-10 2 5 10.0937 14.3600
-8 2 5 91.5898 -4.1215
-6 2 5 132.7877 0.9251
-4 2 5 210.6503 22.6460
-2 2 5 131.3790 4.7278
0 2 5 -544.8680 -24.9696
4 2 5 -38.0041 20.2769
6 2 5 -12.7621 16.0264
8 2 5 -19.1141 -16.6149
10 2 5 10.4178 -17.4132
12 2 5 -39.4103 3.6535
14 2 5 -56.2203 1.2106
16 2 5 5.4047 -10.3496
18 2 5 -30.2279 1.6107
20 2 5 60.0051 12.6718
22 2 5 25.2880 -2.7673
24 2 5 -12.6286 -13.7664
26 2 5 14.1403 -0.0315
28 2 5 0.1645 10.5429
30 2 5 -27.3852 1.8481
32 2 5 -3.2170 -4.7197
34 2 5 7.5314 -0.4238
36 2 5 8.9333 3.2908
-35 3 5 -5.6185 2.8343
-33 3 5 -1.5299 2.1968
-31 3 5 -1.0868 -2.7743
-29 3 5 6.8080 -4.5409
-27 3 5 10.9239 0.5161
-25 3 5 -19.3805 5.5117
-23 3 5 -4.2759 2.3393
-21 3 5 -15.5347 -1.4407
-19 3 5 18.7529 -1.0310
-17 3 5 26.0584 -1.8945
-15 3 5 -34.4030 -3.1924
-13 3 5 -1.4894 3.4859
-11 3 5 21.1681 10.8226
-9 3 5 -9.6958 1.9543
-7 3 5 -84.1164 -13.4842
-5 3 5 90.9817 -8.4014
-3 3 5 -168.7362 4.4563
-1 3 5 243.4679 4.4074
1 3 5 -5.7683 5.2281
3 3 5 -360.2666 1.6671
5 3 5 132.9396 -7.6195
7 3 5 -38.7841 -6.8436
9 3 5 74.5862 3.8890
11 3 5 1.5102 9.7383
13 3 5 43.6848 4.0409
15 3 5 -7.4462 -2.7587
17 3 5 26.9211 -5.4997
19 3 5 -4.9555 -4.7299
21 3 5 0.8266 -0.3465
23 3 5 22.2180 3.6096
25 3 5 6.9088 2.0771
27 3 5 -1.1775 -2.3747
29 3 5 -1.1563 -3.9298
31 3 5 3.4266 -1.2439
33 3 5 11.9639 1.5663
35 3 5 4.5542 1.1973
-36 4 5 -3.6879 0.4889
-34 4 5 -4.9247 -1.9750
-32 4 5 -0.2431 -1.8758
-30 4 5 -8.7794 2.7664
-28 4 5 -11.5817 2.6760
-26 4 5 -14.7395 -2.4540
-24 4 5 21.4500 -3.3467
-22 4 5 2.2294 1.6433
-20 4 5 -21.7657 1.0504
-18 4 5 -6.2402 -4.4655
-16 4 5 13.1508 -1.6614
-14 4 5 -7.1309 5.5860
-12 4 5 -12.5633 0.9583
-10 4 5 -153.0288 -5.9416
-8 4 5 -13.3640 4.5536
-4 4 5 -51.0463 0.7515
-2 4 5 -201.1589 -7.4590
0 4 5 214.9395 4.0533
2 4 5 102.0062 10.6901
4 4 5 12.7857 0.4101
6 4 5 -51.9590 -7.9706
8 4 5 -79.0540 -0.4083
10 4 5 -45.9528 0.2765
12 4 5 -34.9278 -8.0569
14 4 5 21.9208 -3.2824
16 4 5 -59.2368 7.7532
18 4 5 9.4244 3.0401
20 4 5 19.9594 -7.4728
22 4 5 6.0218 -4.1324
24 4 5 -19.8562 4.6506
26 4 5 3.7244 3.6340
28 4 5 8.5988 -0.3942
30 4 5 -8.5754 -0.0075
32 4 5 4.0204 0.7148
34 4 5 -3.4187 -1.7083
36 4 5 -0.9422 -1.2636
-35 5 5 -0.0383 -3.8454
-33 5 5 -5.2802 1.4069
-31 5 5 7.7094 2.1103
-29 5 5 1.3518 -1.1519
-27 5 5 9.1186 -1.3029
-25 5 5 -5.5593 -1.2826
-23 5 5 -21.1128 -2.6353
-21 5 5 22.1599 -1.1637
-19 5 5 23.5191 6.0158
-17 5 5 0.2541 6.8026
-15 5 5 -13.8809 -2.4296
-13 5 5 5.3071 -6.4130
-11 5 5 -3.6557 0.4750
-9 5 5 39.3215 5.3764
-7 5 5 -59.5152 4.4496
-5 5 5 -206.2098 4.7536
-3 5 5 -23.8071 -0.5706
-1 5 5 -105.2129 -9.0519
1 5 5 -14.3504 -4.1985
3 5 5 102.7004 2.5492
5 5 5 -37.3351 7.0756
7 5 5 -90.6962 4.3161
9 5 5 41.2864 -5.0534
11 5 5 -8.7304 -6.0174
13 5 5 -39.5398 -1.5883
15 5 5 24.6800 2.4616
17 5 5 -31.2014 3.9949
19 5 5 -9.3553 2.5742
21 5 5 13.0027 -2.0662
23 5 5 9.0956 -4.5882
25 5 5 -4.3369 -1.0351
27 5 5 6.5666 2.7513
29 5 5 -3.9671 1.4588
31 5 5 13.3400 0.0688
33 5 5 -0.0127 -0.7509
35 5 5 3.5735 0.7615
-36 6 5 1.7128 -0.1102
-34 6 5 -10.7361 1.0803
-32 6 5 17.4518 -0.1427
-30 6 5 6.1887 -0.7063
-28 6 5 6.8196 2.1750
-26 6 5 -11.3725 4.2479
-24 6 5 4.9640 -3.2158
-22 6 5 -7.5574 -7.3742
-20 6 5 -0.3384 0.7538
-18 6 5 6.8219 6.9475
-16 6 5 -11.0065 -0.2082
-14 6 5 -59.0498 -4.8928
-12 6 5 2.7421 1.7941
-10 6 5 -104.4522 3.0898
-8 6 5 -29.2970 -4.6164
-6 6 5 45.5372 0.5782
-4 6 5 47.5653 14.0518
-2 6 5 -152.4285 6.2431
0 6 5 15.4986 -7.8953
4 6 5 -73.3865 7.7464
6 6 5 38.6036 2.7408
8 6 5 62.8441 -4.1670
10 6 5 -17.4322 -1.5989
12 6 5 -21.4046 1.2708
14 6 5 3.9861 -2.7954
16 6 5 -86.8197 -4.3418
18 6 5 0.3160 0.5077
20 6 5 -8.0553 2.2087
22 6 5 3.6730 -2.0673
24 6 5 28.8174 -3.1774
26 6 5 -24.4214 0.5846
28 6 5 6.3274 2.2730
30 6 5 -17.6672 -0.8056
32 6 5 3.2815 -1.1918
34 6 5 -10.8045 0.3358
36 6 5 -1.4775 -0.2168
-35 7 5 -6.7937 0.6307
-33 7 5 -11.2984 -0.2080
-31 7 5 0.1397 -3.3091
-29 7 5 2.9083 1.2156
-27 7 5 -0.3332 5.8287
-25 7 5 -8.2872 0.1784
-23 7 5 -17.2608 -7.1977
-21 7 5 7.4631 -1.1805
-19 7 5 -0.2302 8.0283
-17 7 5 -29.5482 3.7831
-15 7 5 -13.7112 -4.7566
-13 7 5 6.4158 -1.9405
-11 7 5 -49.5274 1.8574
-9 7 5 19.3493 -3.0875
-7 7 5 -120.1962 -4.3219
-5 7 5 24.3292 2.9155
-3 7 5 14.7491 4.0137
-1 7 5 -38.2423 -6.3432
1 7 5 -23.4599 -11.7378
3 7 5 -20.0847 0.0747
5 7 5 12.8061 10.4613
7 7 5 5.9163 1.9457
9 7 5 2.7641 -6.7550
11 7 5 -39.4743 -1.5079
13 7 5 40.0925 4.3202
15 7 5 19.4447 0.9620
17 7 5 -43.4883 -0.5482
19 7 5 21.3728 4.2669
21 7 5 -7.8911 2.4786
23 7 5 3.7132 -4.7919
25 7 5 -23.1385 -3.0456
27 7 5 25.9386 4.3751
29 7 5 1.7365 4.0394
31 7 5 6.6290 -2.6183
33 7 5 -7.7792 -3.6853
35 7 5 8.3085 0.8097
-36 8 5 5.2295 -0.8272
-34 8 5 3.7240 0.3192
-32 8 5 48.0102 -0.9079
-30 8 5 3.7663 -1.0675
-28 8 5 3.7341 0.2491
-26 8 5 1.8161 -0.5411
-24 8 5 -2.1427 -1.9081
-22 8 5 -7.5995 -0.6042
-20 8 5 -2.6842 -0.5217
-18 8 5 12.1435 -1.9387
-16 8 5 -13.5669 -1.4831
-14 8 5 8.6394 2.1520
-12 8 5 -23.3018 2.6520
-10 8 5 -126.4970 -0.6733
-8 8 5 -16.7622 -0.8700
-6 8 5 33.6037 2.7354
-4 8 5 81.3695 3.4857
-2 8 5 216.2651 0.1568
0 8 5 59.1642 1.2815
2 8 5 140.0952 2.7869
4 8 5 21.4614 -1.4122
6 8 5 -95.9230 -3.8437
8 8 5 -47.1303 0.4644
10 8 5 -100.3943 3.1824
12 8 5 -32.0263 -0.7377
14 8 5 20.6487 -3.0448
16 8 5 -13.3553 -0.5604
18 8 5 -6.7756 0.6628
20 8 5 4.2691 -0.3455
22 8 5 -16.9322 0.0231
24 8 5 16.2616 1.2390
26 8 5 -6.4341 -0.1620
28 8 5 16.9555 -1.7104
30 8 5 -17.8349 0.0527
32 8 5 -1.8462 1.0105
34 8 5 -11.3713 1.3997
-35 9 5 0.3995 -1.6679
-33 9 5 -1.1622 -1.1854
-31 9 5 -0.3167 1.3700
-29 9 5 11.6003 1.8558
-27 9 5 -11.9775 0.7072
-25 9 5 -0.1126 0.2507
-23 9 5 1.8736 0.4534
-21 9 5 9.9703 0.9717
-19 9 5 2.4085 1.0201
-17 9 5 -13.4789 1.7392
-15 9 5 -5.5478 1.9578
-13 9 5 -44.4253 0.0003
-11 9 5 4.7736 -2.6377
-9 9 5 52.8102 -2.5049
-7 9 5 2.2329 -0.1717
-5 9 5 90.6271 1.6107
-3 9 5 -54.3874 -0.6566
-1 9 5 -67.5124 -3.9353
1 9 5 -45.7944 -1.7559
3 9 5 -17.7613 0.1260
5 9 5 -44.1922 -0.4775
7 9 5 21.4949 -0.6450
9 9 5 -23.4650 1.1571
11 9 5 35.8580 1.8393
13 9 5 4.3533 -1.4193
15 9 5 -11.5356 -1.9448
17 9 5 12.4127 2.0261
19 9 5 6.3395 2.5964
21 9 5 -6.6155 -1.0792
23 9 5 -1.6464 -0.6713
25 9 5 -52.8140 1.4227
27 9 5 -0.2860 0.5170
29 9 5 -6.0246 -1.5314
31 9 5 7.9525 0.0024
33 9 5 -4.6063 1.8864
35 9 5 2.6634 1.1695
-34 10 5 12.1021 1.0535
-32 10 5 14.7670 1.3220
-30 10 5 -3.6051 -2.1903
-28 10 5 16.5209 -2.1815
-26 10 5 -6.8846 1.9317
-24 10 5 -7.2256 2.5725
-22 10 5 1.8033 -2.0953
-20 10 5 -36.7294 -2.0024
-18 10 5 -4.3446 0.7029
-16 10 5 1.5568 -1.6626
-14 10 5 50.2868 -3.6598
-12 10 5 49.6731 2.4387
-10 10 5 -32.3309 4.4927
-8 10 5 -27.4921 -5.8931
-6 10 5 -12.2321 -8.5247
-2 10 5 67.2587 4.1599
0 10 5 -47.1460 -0.9927
2 10 5 -34.2339 -0.0738
4 10 5 111.1112 2.6489
6 10 5 45.9040 -1.3351
8 10 5 36.8715 -2.7893
10 10 5 -20.6049 3.5931
12 10 5 -28.2326 7.5091
14 10 5 -17.4509 1.5302
16 10 5 -77.9456 -3.8244
18 10 5 -28.2482 -1.0426
20 10 5 14.3907 1.7538
22 10 5 2.5731 0.2839
24 10 5 1.0413 -0.1322
26 10 5 8.2458 1.2588
28 10 5 8.0706 -0.6276
30 10 5 -14.9577 -2.9261
32 10 5 -13.6928 -0.6032
34 10 5 -7.1378 1.5449
-35 11 5 -10.9316 0.2322
-33 11 5 8.9522 2.8662
-31 11 5 7.6307 -1.6886
-29 11 5 14.7131 -2.5497
-27 11 5 -13.1080 1.3780
-25 11 5 7.9768 1.4061
-23 11 5 -28.2618 -3.1802
-21 11 5 2.1766 -1.2313
-19 11 5 8.9134 4.2903
-17 11 5 -5.1953 0.4089
-15 11 5 -7.6679 -6.3720
-13 11 5 -32.3680 0.0492
-11 11 5 -20.2797 8.1335
-9 11 5 -40.5246 0.1109
-7 11 5 52.6899 -7.6817
-5 11 5 9.2281 1.0503
-3 11 5 20.3329 7.4284
-1 11 5 43.4154 -1.3004
1 11 5 68.9190 -4.6944
3 11 5 29.5878 2.3261
5 11 5 -52.5752 2.0983
7 11 5 -22.6671 -4.5705
9 11 5 -107.9778 -3.0437
11 11 5 1.2609 4.8007
13 11 5 -47.0031 3.6953
15 11 5 3.3848 -4.4029
17 11 5 24.3206 -4.4703
19 11 5 -15.0698 2.4112
21 11 5 4.0141 3.1858
23 11 5 10.7169 -0.6217
25 11 5 -16.1995 -0.6630
27 11 5 14.2106 0.6824
29 11 5 6.8826 -0.4118
31 11 5 -4.3675 -1.0354
33 11 5 -20.8860 0.2702
35 11 5 5.4488 0.6111
-34 12 5 3.3795 1.3115
-32 12 5 -6.1282 -1.8940
-30 12 5 -5.9285 -1.8752
-28 12 5 3.8672 2.1027
-26 12 5 -25.9556 2.7481
-24 12 5 18.3958 -1.5023
-22 12 5 2.7650 -1.2886
-20 12 5 -10.4743 3.5082
-18 12 5 -26.1007 1.6806
-16 12 5 -17.9770 -3.9078
-14 12 5 -0.7862 -1.7616
-12 12 5 4.7599 4.5798
-10 12 5 -0.4154 1.1697
-8 12 5 9.7525 -6.2370
-6 12 5 -8.8934 -4.2468
-4 12 5 41.8514 2.5144
-2 12 5 -30.9592 0.6138
0 12 5 59.1121 -4.3344
2 12 5 15.4625 -0.7252
4 12 5 52.6206 4.5932
6 12 5 -45.0103 0.7152
8 12 5 26.2104 -4.5681
10 12 5 3.5581 0.2942
12 12 5 -15.4031 5.7908
14 12 5 -8.7988 2.1802
16 12 5 21.9805 -3.0098
18 12 5 23.0375 -1.0271
20 12 5 22.5565 2.3246
22 12 5 1.7173 0.2832
24 12 5 -10.6517 -2.2110
26 12 5 -7.6507 0.0982
28 12 5 1.2937 2.3199
30 12 5 -0.6611 -0.3687
32 12 5 1.1514 -2.7982
34 12 5 -4.3526 -0.2342
-33 13 5 10.7641 -0.2104
-31 13 5 4.1055 -0.8597
-29 13 5 2.2763 -0.2031
-27 13 5 -15.2337 -0.7883
-25 13 5 -17.6850 -1.0851
-23 13 5 -36.7843 1.0704
-21 13 5 1.6130 1.7051
-19 13 5 1.9263 -1.7795
-17 13 5 7.7250 -3.3144
-15 13 5 -10.8333 0.4429
-13 13 5 12.8440 3.2169
-11 13 5 32.8130 0.8778
-9 13 5 7.5268 -1.0583
-7 13 5 43.3386 0.7338
-5 13 5 -98.5272 0.4221
-3 13 5 36.3742 -1.1825
-1 13 5 -24.7110 1.2592
1 13 5 -20.9829 3.0795
3 13 5 -33.4077 -0.6353
5 13 5 -20.6724 -3.7822
7 13 5 5.1988 -1.3408
9 13 5 1.5513 2.1659
11 13 5 -4.8071 1.2556
13 13 5 -32.1424 -0.9734
15 13 5 1.4044 -0.5920
17 13 5 -3.4406 -0.1461
19 13 5 -1.3402 -0.9857
21 13 5 -15.9082 0.1198
23 13 5 4.5976 2.0559
25 13 5 0.5722 0.7615
27 13 5 -1.1988 -2.1168
29 13 5 -2.4507 -1.2360
31 13 5 -10.7359 1.0345
33 13 5 -17.9215 0.2656
-34 14 5 2.8281 -2.1326
-32 14 5 1.0579 0.5545
-30 14 5 -16.6747 1.5836
-28 14 5 -1.5832 0.1449
-26 14 5 -25.9062 -1.3518
-24 14 5 1.1258 -0.0732
-22 14 5 -12.0224 0.9999
-20 14 5 12.7426 -0.4159
-18 14 5 9.8285 -0.7583
-16 14 5 0.4199 1.0833
-14 14 5 41.0481 0.6971
-12 14 5 5.9937 -2.3195
-10 14 5 -45.8786 -1.9572
-8 14 5 -35.9696 1.5799
-6 14 5 -43.9509 1.6647
-4 14 5 105.0933 -1.3405
-2 14 5 -52.9793 -1.9134
0 14 5 49.8530 0.3867
2 14 5 -35.9261 0.5226
4 14 5 15.0747 -0.6086
6 14 5 -16.6049 0.7188
8 14 5 9.7345 2.0689
10 14 5 -23.7967 0.0758
12 14 5 42.1198 -2.5744
14 14 5 -31.2988 -0.4628
16 14 5 -7.2560 1.9392
18 14 5 9.9911 0.8446
20 14 5 3.6735 -1.0900
22 14 5 7.2549 -0.5631
24 14 5 -4.7730 0.5686
26 14 5 -8.5696 -0.0414
28 14 5 -2.7179 -0.5284
30 14 5 -1.5761 0.7621
32 14 5 -11.8021 1.1089
-33 15 5 -1.7718 0.5350
-31 15 5 -2.5045 0.0172
-29 15 5 -25.3002 -0.2371
-27 15 5 -8.3330 -0.0077
-25 15 5 1.7463 1.1861
-23 15 5 -14.4377 0.3891
-21 15 5 -4.8249 -0.6640
-19 15 5 14.9717 -0.0305
-17 15 5 -12.9298 0.7503
-15 15 5 -81.0167 0.9551
-13 15 5 -18.6254 0.6735
-11 15 5 -11.0764 0.3629
-9 15 5 2.0500 -0.3703
-7 15 5 -27.3830 -0.2143
-5 15 5 -79.2793 1.0860
-3 15 5 72.3202 0.6712
-1 15 5 -7.7620 -0.2897
1 15 5 -37.0798 0.5371
3 15 5 76.8379 0.4265
5 15 5 13.3062 -0.8054
7 15 5 -21.2355 -0.0688
9 15 5 3.6747 1.3433
11 15 5 21.0369 -0.1302
13 15 5 -18.0615 -1.6303
15 15 5 7.3473 -0.1289
17 15 5 -1.7997 1.2708
19 15 5 14.8607 0.0085
21 15 5 -10.9066 -1.2026
23 15 5 -3.2681 -0.4067
25 15 5 -11.4478 0.1042
27 15 5 21.0796 -0.3521
29 15 5 10.1904 -0.5796
31 15 5 -13.6680 0.4072
33 15 5 -6.3433 -1.2447
-32 16 5 3.1512 0.8754
-30 16 5 7.8786 -0.2244
-28 16 5 18.0776 -0.2730
-26 16 5 -17.2665 0.8164
-24 16 5 -5.2258 -1.4650
-22 16 5 -13.4160 -1.2668
-20 16 5 5.9301 1.0994
-18 16 5 16.5526 1.1149
-16 16 5 12.6543 -1.1186
-14 16 5 22.7409 -1.1762
-12 16 5 3.6936 0.7574
-10 16 5 -13.6656 0.7018
-8 16 5 62.6313 -0.9896
-6 16 5 -29.0305 0.0461
-4 16 5 -18.2554 1.9792
-2 16 5 -3.9026 0.3313
0 16 5 -9.3559 -2.0513
2 16 5 -41.1918 -1.5870
4 16 5 45.0126 1.2537
6 16 5 -34.8840 1.3702
8 16 5 -9.2667 -0.7968
10 16 5 35.9988 -1.0784
12 16 5 -0.9966 0.2820
14 16 5 -23.0754 -0.0082
16 16 5 11.3674 -0.9499
18 16 5 2.8992 -0.0023
20 16 5 -6.8729 1.6161
22 16 5 -4.7050 0.3637
24 16 5 8.1593 -1.6638
26 16 5 13.0495 -0.6932
28 16 5 12.3135 1.1797
30 16 5 -1.0356 0.4490
32 16 5 2.4170 -0.8547
-33 17 5 -1.8711 0.2107
-31 17 5 -5.9528 -1.5062
-29 17 5 -8.4729 1.4294
-27 17 5 7.3914 0.4011
-25 17 5 15.7616 -1.7296
-23 17 5 9.9563 -1.2950
-21 17 5 5.9024 1.2620
-19 17 5 2.9681 1.3312
-17 17 5 -0.2289 -0.2377
-15 17 5 -29.4232 -0.0295
-13 17 5 -5.9681 0.1869
-11 17 5 10.2963 0.1978
-9 17 5 14.4972 0.4709
-7 17 5 -19.7773 0.9468
-5 17 5 24.4965 1.9362
-3 17 5 53.9778 1.3350
-1 17 5 12.0166 -1.6362
1 17 5 -10.5012 -1.6872
3 17 5 34.7192 1.1865
5 17 5 35.0554 1.5805
7 17 5 11.4828 -0.7397
9 17 5 6.7344 -2.3131
11 17 5 26.9825 -0.8900
13 17 5 -32.7263 -0.2137
15 17 5 4.3567 -0.6161
17 17 5 13.5043 -0.1074
19 17 5 20.1000 0.7508
21 17 5 -6.3142 0.3304
23 17 5 11.8623 -0.6847
25 17 5 8.0831 -1.1156
27 17 5 2.8257 0.5429
29 17 5 24.3424 1.6115
31 17 5 -2.1396 0.8176
-32 18 5 1.4247 0.5630
-30 18 5 11.5188 1.3535
-28 18 5 3.7232 -0.2219
-26 18 5 -3.6772 -1.0953
-24 18 5 9.6607 0.2944
-22 18 5 -9.8689 1.8044
-20 18 5 2.4992 -0.1883
-18 18 5 6.6362 -0.8133
-16 18 5 0.0725 0.8993
-14 18 5 8.3186 0.7476
-12 18 5 19.5777 -0.2359
-10 18 5 7.8636 0.3284
-8 18 5 15.5699 1.3865
-6 18 5 -31.0952 -0.1661
-4 18 5 -16.9311 -1.6140
-2 18 5 44.7360 0.2934
0 18 5 -24.0659 1.4390
2 18 5 -7.8462 -0.4191
4 18 5 36.7991 -1.4739
6 18 5 -14.3224 -0.1162
8 18 5 -33.4821 1.0770
10 18 5 27.8842 0.0179
12 18 5 -33.9825 -0.8268
14 18 5 24.8353 0.4920
16 18 5 39.5093 0.9091
18 18 5 4.6866 -0.7068
20 18 5 14.8299 -0.4256
22 18 5 -4.1256 0.6811
24 18 5 -6.7720 0.2200
26 18 5 9.8028 -1.0797
28 18 5 6.2777 -1.0557
30 18 5 3.6810 1.1605
32 18 5 -2.9173 0.0239
-31 19 5 -7.9840 2.5692
-29 19 5 9.2920 0.5244
-27 19 5 -3.6667 -1.4514
-25 19 5 17.6556 -0.3526
-23 19 5 -5.5840 1.2646
-21 19 5 8.0508 0.3409
-19 19 5 -36.8148 -0.9728
-17 19 5 -6.4499 -0.0895
-15 19 5 -3.6051 0.6605
-13 19 5 -27.9457 -0.6312
-11 19 5 0.9966 -1.0460
-9 19 5 3.9335 0.8316
-7 19 5 -26.5697 1.6846
-5 19 5 -9.5032 -0.3355
-3 19 5 35.4892 -1.5645
-1 19 5 -4.1649 0.1302
1 19 5 16.6027 1.3648
3 19 5 15.5938 0.0417
5 19 5 21.3054 -0.9280
7 19 5 -0.1464 -0.3656
9 19 5 -13.1900 -0.0523
11 19 5 -7.8733 -0.1984
13 19 5 -15.2940 -0.6831
15 19 5 -0.1628 -0.0666
17 19 5 -4.7802 0.5385
19 19 5 16.8501 0.0775
21 19 5 -0.6393 -1.1453
23 19 5 25.2157 0.1568
25 19 5 23.1200 1.2647
27 19 5 -10.3823 0.5276
29 19 5 5.2328 -0.6298
31 19 5 -14.9122 0.4689
-30 20 5 -2.6681 0.2897
-28 20 5 -19.6992 -1.2945
-26 20 5 -5.9051 0.3065
-24 20 5 -9.7454 0.9656
-22 20 5 -19.4262 -0.2629
-20 20 5 16.3328 -0.1958
-18 20 5 11.1049 1.1569
-16 20 5 3.7357 0.5159
-14 20 5 13.6335 -1.3768
-12 20 5 5.8817 -0.1249
-10 20 5 12.9648 1.7874
-8 20 5 23.6910 0.0209
-6 20 5 2.1868 -1.4795
-4 20 5 25.3055 -0.1675
-2 20 5 17.4639 0.5980
0 20 5 -13.7481 -0.3526
2 20 5 -28.6376 -0.5009
4 20 5 0.2497 0.4074
6 20 5 -23.9304 -0.4640
8 20 5 8.1529 -1.1804
10 20 5 22.3885 -0.0723
12 20 5 -3.4022 1.2665
14 20 5 -6.7533 0.4058
16 20 5 13.8494 -0.7408
18 20 5 3.4999 0.3795
20 20 5 16.4401 0.8486
22 20 5 3.7997 -0.2634
24 20 5 -15.2334 -0.3337
26 20 5 11.3881 0.5424
28 20 5 -1.0626 0.0454
30 20 5 -1.8508 -0.6845
-29 21 5 -8.0524 -0.7535
-27 21 5 -9.4580 1.2454
-25 21 5 15.7316 0.1131
-23 21 5 17.8998 -1.2383
-21 21 5 12.2252 -0.0935
-19 21 5 -18.5742 1.6656
-17 21 5 22.6347 0.0549
-15 21 5 15.8952 -1.8789
-13 21 5 10.7377 -0.4804
-11 21 5 -10.5543 1.7390
-9 21 5 8.0372 0.3460
-7 21 5 -23.4643 -1.3758
-5 21 5 -18.3037 -0.1664
-3 21 5 18.0381 0.9417
-1 21 5 21.1629 -0.2322
1 21 5 13.4726 -1.3487
3 21 5 8.2366 0.0760
5 21 5 5.1321 1.7493
7 21 5 18.0991 -0.0992
9 21 5 -6.0790 -2.6175
11 21 5 -6.3466 -0.1442
13 21 5 35.0802 2.8090
15 21 5 7.2134 0.7684
17 21 5 2.3017 -2.0310
19 21 5 4.9338 -0.0588
21 21 5 -13.0338 1.5948
23 21 5 10.3402 -0.1405
25 21 5 -2.5969 -1.2245
27 21 5 -0.4466 0.8596
29 21 5 3.2443 1.0898
-30 22 5 11.8049 -0.2386
-28 22 5 -9.1951 0.2261
-26 22 5 -3.4668 0.2051
-24 22 5 -11.6729 -1.0393
-22 22 5 -4.1567 -0.3001
-20 22 5 7.9715 1.3064
-18 22 5 -6.3195 0.6544
-16 22 5 -12.1184 -0.8295
-14 22 5 -5.1073 -0.7806
-12 22 5 -12.6691 0.0036
-10 22 5 -1.2581 0.3177
-8 22 5 -9.5377 -0.3764
-6 22 5 11.3030 -0.1346
-4 22 5 19.5265 0.5680
-2 22 5 20.4803 -0.2571
0 22 5 -39.1737 -1.2680
2 22 5 0.2730 -0.4119
4 22 5 50.5602 1.2192
6 22 5 -14.6532 0.9383
8 22 5 -29.9200 -0.7267
10 22 5 -23.8040 -1.4373
12 22 5 -7.3217 0.0570
14 22 5 -36.6886 1.7160
16 22 5 0.9690 0.6907
18 22 5 -0.0828 -0.8021
20 22 5 3.0813 -0.5118
22 22 5 8.5322 0.7675
24 22 5 5.6530 0.3797
26 22 5 -6.5407 -0.6431
28 22 5 8.1795 0.5021
-29 23 5 -10.7395 1.0199
-27 23 5 7.5651 -0.5178
-25 23 5 -3.4734 -1.2513
-23 23 5 -4.5791 0.8164
-21 23 5 -10.9993 1.3194
-19 23 5 -0.7356 -1.0605
-17 23 5 8.7127 -1.0162
-15 23 5 3.1211 1.7453
-13 23 5 0.9375 0.8404
-11 23 5 -24.0511 -1.9219
-9 23 5 -7.8160 -0.9306
-7 23 5 5.7163 1.6210
-5 23 5 19.5314 0.3040
-3 23 5 -4.0242 -1.8867
-1 23 5 0.4608 -0.0169
1 23 5 -11.4152 1.1743
3 23 5 1.7797 -0.4753
5 23 5 -14.6050 -1.2049
7 23 5 16.3425 1.2935
9 23 5 -1.8527 1.5346
11 23 5 -24.4979 -1.1587
13 23 5 8.9316 -1.0735
15 23 5 -13.4252 1.4210
17 23 5 2.4244 0.8902
19 23 5 1.1968 -1.2151
21 23 5 3.8077 -0.6533
23 23 5 -8.7061 0.9069
25 23 5 -8.8412 0.2689
27 23 5 10.3622 -1.8361
-28 24 5 -3.8854 -0.3199
-26 24 5 4.8212 -0.3944
-24 24 5 10.4917 1.1865
-22 24 5 -6.4813 0.6774
-20 24 5 0.4069 -1.9190
-18 24 5 0.2825 -0.8164
-16 24 5 2.4152 1.6794
-14 24 5 -7.9276 1.0365
-12 24 5 1.6663 -2.1080
-10 24 5 22.0685 -1.8453
-8 24 5 1.2321 1.2089
-6 24 5 -4.6906 1.5278
-4 24 5 -17.2388 -1.2388
-2 24 5 27.7819 -1.3000
0 24 5 -21.9037 1.1146
2 24 5 15.6767 0.8085
4 24 5 12.5328 -0.9274
6 24 5 -17.6469 -0.5861
8 24 5 7.2237 0.9632
10 24 5 40.1792 0.8182
12 24 5 -6.9599 -0.9226
14 24 5 -4.4825 -0.7234
16 24 5 1.7403 1.5647
18 24 5 12.7906 1.1414
20 24 5 -1.8212 -1.1006
22 24 5 -8.1070 -1.6984
24 24 5 -1.9505 0.8601
26 24 5 -0.5677 0.9144
28 24 5 3.3381 0.2417
-27 25 5 4.5989 0.0256
-25 25 5 5.2322 -0.0503
-23 25 5 -10.4854 0.6658
-21 25 5 -4.3198 -0.3867
-19 25 5 2.2373 -0.4816
-17 25 5 9.4272 0.4188
-15 25 5 1.6863 0.2953
-13 25 5 -2.6336 -0.3547
-11 25 5 -9.2607 -0.5664
-9 25 5 18.0444 0.2851
-7 25 5 -9.6136 0.2143
-5 25 5 9.8154 -0.3358
-3 25 5 14.7896 -0.2536
-1 25 5 -11.8528 0.4199
1 25 5 15.6253 0.3511
3 25 5 21.6277 -0.5961
5 25 5 8.6486 -0.4139
7 25 5 17.9689 0.6470
9 25 5 -5.8002 0.5789
11 25 5 6.0976 0.0546
13 25 5 9.1659 -0.2948
15 25 5 3.8998 -0.2871
17 25 5 -1.1145 -0.2364
19 25 5 1.4632 0.3009
21 25 5 0.6538 0.3067
23 25 5 -12.7228 -0.1445
25 25 5 -3.5221 0.0966
27 25 5 -2.7973 0.3544
-26 26 5 -4.1720 0.7448
-24 26 5 19.6001 -0.8146
-22 26 5 -15.4919 -1.0297
-20 26 5 1.3330 -0.3948
-18 26 5 -0.2696 0.8225
-16 26 5 17.9737 0.2941
-14 26 5 -21.3670 -0.3884
-12 26 5 8.1232 0.3285
-10 26 5 6.5878 0.4717
-8 26 5 2.4351 -0.5042
-6 26 5 -10.7156 -0.6550
-4 26 5 -10.3918 0.4470
-2 26 5 -1.2774 1.2081
0 26 5 -23.9580 0.2742
2 26 5 -2.5706 -0.9904
4 26 5 -1.2632 0.1714
6 26 5 -23.2529 0.7976
8 26 5 -11.3372 -0.4986
10 26 5 16.4993 -0.6231
12 26 5 -5.4191 0.8181
14 26 5 1.6004 0.4733
16 26 5 -17.9323 -1.3375
18 26 5 2.8923 -1.1783
20 26 5 2.6064 0.9212
22 26 5 2.9564 0.5404
24 26 5 4.1082 0.1955
26 26 5 15.3965 -0.5023
-25 27 5 15.4502 -0.6770
-23 27 5 1.9846 0.6495
-21 27 5 -10.7912 0.9830
-19 27 5 -5.1170 -0.1541
-17 27 5 -14.9893 -1.0447
-15 27 5 0.0593 0.0086
-13 27 5 -2.1708 0.9147
-11 27 5 4.1794 0.4702
-9 27 5 13.5721 -0.2499
-7 27 5 2.5335 -0.4201
-5 27 5 8.7321 -0.2239
-3 27 5 4.3183 -0.0544
-1 27 5 -21.4897 0.5397
1 27 5 17.3251 0.6091
3 27 5 8.5335 -0.2778
5 27 5 -2.7512 -0.2186
7 27 5 16.2403 0.0390
9 27 5 6.8175 -0.0716
11 27 5 -12.1776 0.0400
13 27 5 4.5495 0.4434
15 27 5 -0.9380 0.3515
17 27 5 18.3947 -0.8701
19 27 5 -4.7410 -0.8353
21 27 5 3.3434 0.4314
23 27 5 -8.6359 0.8396
25 27 5 -10.3267 0.3770
-24 28 5 16.3013 0.7653
-22 28 5 3.9481 1.1232
-20 28 5 5.0185 -0.6405
-18 28 5 24.3865 -0.4608
-16 28 5 18.0627 0.9883
-14 28 5 -3.7400 0.7910
-12 28 5 -2.4421 -0.8469
-10 28 5 1.6453 -0.4096
-8 28 5 2.4367 1.2868
-6 28 5 -8.5606 0.1067
-4 28 5 -22.4721 -0.9321
-2 28 5 10.3698 0.3210
0 28 5 -1.1556 1.1901
2 28 5 -4.6641 -0.0563
4 28 5 4.9111 -0.9145
6 28 5 -0.9171 -0.0514
8 28 5 -16.0069 0.4384
10 28 5 11.2041 0.2487
12 28 5 0.2690 -0.1010
14 28 5 -12.2059 -0.6533
16 28 5 7.4222 -0.6096
18 28 5 -6.9375 0.1383
20 28 5 10.2631 0.4697
22 28 5 -10.5140 0.3038
24 28 5 -4.3445 0.7851
-23 29 5 7.5047 0.3935
-21 29 5 -9.2162 -0.7908
-19 29 5 -2.2511 -1.3224
-17 29 5 -6.3404 0.4125
-15 29 5 -2.7298 0.9640
-13 29 5 -10.1825 -0.0998
-11 29 5 24.4640 -0.3471
-9 29 5 -1.1924 0.6258
-7 29 5 -6.1154 0.8450
-5 29 5 22.8827 -0.5636
-3 29 5 19.8245 -0.6807
-1 29 5 -2.4281 0.7950
1 29 5 19.4795 1.1466
3 29 5 18.2584 -0.3632
5 29 5 -27.2385 -1.0614
7 29 5 -16.2482 -0.4721
9 29 5 19.3056 0.2546
11 29 5 -12.6404 -0.3260
13 29 5 19.6258 -0.7736
15 29 5 -5.1878 0.1340
17 29 5 28.9863 0.4120
19 29 5 -9.5172 -0.3081
21 29 5 9.2056 -0.4917
23 29 5 8.5355 0.2273
-22 30 5 9.9414 -0.4431
-20 30 5 -8.9096 0.0561
-18 30 5 -4.5770 1.0647
-16 30 5 -9.3716 0.2533
-14 30 5 -1.4179 -0.3046
-12 30 5 -5.0375 -0.0352
-10 30 5 5.8916 0.8989
-8 30 5 5.0171 0.3230
-6 30 5 14.6203 -0.7744
-4 30 5 -12.5660 -0.8079
-2 30 5 7.7700 0.5516
0 30 5 3.4015 0.5980
2 30 5 -0.7944 -0.6236
4 30 5 2.2286 -0.5823
6 30 5 -6.2802 0.4027
8 30 5 2.0118 0.3188
10 30 5 12.2039 -0.2743
12 30 5 3.2114 -0.1599
14 30 5 -12.5791 -0.2005
16 30 5 12.4451 -0.4912
18 30 5 -12.1100 -0.3784
20 30 5 6.6058 0.8962
-19 31 5 -10.3749 1.4677
-17 31 5 -1.5833 -0.1850
-15 31 5 -4.9186 -0.6580
-13 31 5 -4.6844 0.3188
-11 31 5 6.4864 0.4660
-9 31 5 7.3375 -0.0583
-7 31 5 1.4093 -0.0826
-5 31 5 0.4347 0.6699
-3 31 5 10.4039 0.6759
-1 31 5 -7.7732 -0.4102
1 31 5 -2.4139 -0.4666
3 31 5 -2.2882 0.0765
5 31 5 -4.1957 0.7029
7 31 5 -3.8006 0.2257
9 31 5 8.3418 -0.5359
11 31 5 -8.1027 -0.4303
13 31 5 9.4460 0.1496
15 31 5 4.3293 0.3502
17 31 5 5.9461 -0.2296
19 31 5 1.8805 0.1078
-18 32 5 -4.9197 -0.1524
-16 32 5 -5.3500 -0.5286
-14 32 5 4.8427 0.5974
-12 32 5 -4.9776 0.2796
-10 32 5 5.6906 -0.5198
-8 32 5 8.6182 -0.2869
-6 32 5 2.7424 0.1930
-4 32 5 -6.1042 -0.2655
-2 32 5 11.1264 -0.4544
0 32 5 6.2645 -0.1473
2 32 5 6.5618 -0.3101
4 32 5 9.2836 -0.5700
6 32 5 -20.4944 0.2489
8 32 5 -5.1388 0.2822
10 32 5 12.2702 -0.5091
12 32 5 -5.2560 -0.5953
14 32 5 -6.6713 0.7313
16 32 5 2.3563 0.6159
18 32 5 -3.8443 -0.4511
-17 33 5 1.6197 -0.3222
-15 33 5 4.5736 0.9441
-13 33 5 8.9182 -0.0849
-11 33 5 1.3436 -1.4098
-9 33 5 -2.8213 -0.0659
-7 33 5 -0.1407 1.4958
-5 33 5 -11.9991 0.2320
-3 33 5 8.1581 -0.8728
-1 33 5 -9.0480 -0.1763
1 33 5 -0.5324 0.4017
3 33 5 -25.5387 -0.0834
5 33 5 -3.8720 -0.2444
7 33 5 3.2046 0.6856
9 33 5 2.2389 0.9343
11 33 5 5.3159 -0.8111
13 33 5 2.1825 -1.3358
15 33 5 4.8846 0.6528
17 33 5 1.3146 1.4577
-14 34 5 -3.1429 0.9237
-12 34 5 -4.8542 -1.3173
-10 34 5 7.1871 -0.6869
-8 34 5 -3.5754 1.2817
-6 34 5 2.1023 0.4739
-4 34 5 -6.4577 -1.3994
-2 34 5 -2.0409 -0.9519
0 34 5 3.0993 0.9521
2 34 5 -4.0219 0.4541
4 34 5 -0.0413 -0.8077
6 34 5 -2.2112 -0.8795
8 34 5 1.8933 1.2265
10 34 5 10.0570 1.0987
12 34 5 5.3997 -2.0542
14 34 5 6.4083 -0.8174
-13 35 5 2.4096 -0.0779
-11 35 5 -3.5568 -0.7758
-9 35 5 5.8902 0.4241
-7 35 5 0.4375 0.8297
-5 35 5 -10.0035 -0.1354
-3 35 5 1.6016 -0.5595
-1 35 5 4.6242 0.3632
1 35 5 5.2589 0.9877
3 35 5 -1.5202 0.1037
5 35 5 -8.2840 -0.6055
7 35 5 -2.6826 0.8280
9 35 5 -6.1256 1.2255
11 35 5 -6.3262 0.0890
13 35 5 -10.3712 0.0777
-10 36 5 9.8711 0.0676
-8 36 5 -1.3388 -0.5479
-6 36 5 -1.4386 -0.0085
-4 36 5 9.0570 -0.2792
-2 36 5 -8.6747 0.1010
0 36 5 -2.4811 0.1627
2 36 5 -6.3041 -0.1633
4 36 5 4.4734 0.5478
6 36 5 1.9242 0.2043
8 36 5 6.3891 -0.3843
10 36 5 -2.6218 0.2852
-5 37 5 -11.2439 0.9349
-3 37 5 -7.2003 1.4592
-1 37 5 11.9727 0.5851
1 37 5 -0.7289 0.0358
3 37 5 -0.4874 0.6719
5 37 5 -6.3355 0.5867
-36 0 6 -9.6453 2.0952
-34 0 6 12.5581 -1.3675
-32 0 6 22.9643 3.3558
-30 0 6 -3.1238 7.9368
-28 0 6 24.1259 -4.2773
-26 0 6 4.0683 -12.6080
-24 0 6 -18.9267 5.7480
-22 0 6 -14.8794 22.8531
-20 0 6 10.0448 8.0458
-18 0 6 -21.8251 -14.6413
-16 0 6 -2.0942 -12.9320
-14 0 6 -33.6371 -7.3296
-12 0 6 -79.6909 -13.5181
-10 0 6 33.0594 -10.5605
-8 0 6 -27.6619 -3.5132
-6 0 6 -226.2604 -20.6471
-4 0 6 117.5490 -45.1332
-2 0 6 -200.3637 -30.1857
0 0 6 519.0564 8.7836
2 0 6 23.8690 25.9973
4 0 6 -218.1214 15.1366
6 0 6 58.3386 3.1116
8 0 6 -138.4549 8.3702
10 0 6 -67.1583 15.3867
12 0 6 -53.5157 17.2463
14 0 6 87.7599 23.7729
16 0 6 53.0915 20.0137
18 0 6 11.9203 -2.8840
20 0 6 52.1334 -17.1175
22 0 6 -1.6748 -4.9902
24 0 6 -8.4735 9.5612
26 0 6 22.8926 3.4359
28 0 6 16.9309 -5.3552
30 0 6 -1.3791 -2.5345
32 0 6 16.1279 -1.1297
34 0 6 5.4785 -3.5964
36 0 6 16.7533 -0.9837
-37 1 6 14.7537 4.1009
-35 1 6 10.0998 -4.1894
-33 1 6 2.6066 -6.8843
-31 1 6 5.1645 4.6700
-29 1 6 -3.1124 7.8457
-27 1 6 -0.3761 -5.9831
-25 1 6 -2.6762 -5.0452
-23 1 6 63.9551 12.9698
-21 1 6 8.2981 4.3465
-19 1 6 -37.5222 -22.6150
-17 1 6 44.7556 -6.7076
-15 1 6 -48.6356 29.2204
-13 1 6 -0.3262 7.8456
-11 1 6 -3.8609 -36.4407
-9 1 6 -96.7353 -15.7881
-5 1 6 30.7396 1.9062
-3 1 6 -222.5811 -32.8039
1 1 6 22.0836 24.6181
3 1 6 -85.9695 -15.1422
5 1 6 -90.5787 -35.2004
7 1 6 -3.8332 15.9585
9 1 6 83.8041 39.7259
11 1 6 29.2268 -9.2877
13 1 6 43.6456 -29.7972
15 1 6 -12.0860 11.7213
17 1 6 55.5841 27.0881
19 1 6 -33.6852 -3.1377
21 1 6 38.7372 -10.2384
23 1 6 1.1040 9.6809
25 1 6 -18.8421 7.0466
27 1 6 9.3295 -10.4746
29 1 6 -4.6189 -4.8738
31 1 6 0.5296 9.9259
33 1 6 13.6357 4.8639
35 1 6 19.3307 -7.3878
-36 2 6 -11.6340 0.4919
-34 2 6 -0.5214 -0.9962
-32 2 6 -2.5495 0.0513
-30 2 6 -12.4223 0.2405
-28 2 6 -0.9568 0.0910
-26 2 6 12.8486 0.4993
-24 2 6 12.4739 1.8999
-22 2 6 -12.9215 1.1268
-20 2 6 2.4582 0.2057
-18 2 6 21.7387 -0.2914
-16 2 6 15.3327 -0.2681
-14 2 6 -15.5003 -1.8342
-12 2 6 20.3684 -1.8578
-10 2 6 74.4499 -2.5094
-8 2 6 22.5047 -6.4844
-6 2 6 128.7096 -7.8299
-4 2 6 126.2379 -3.3531
-2 2 6 -245.4017 0.6784
0 2 6 346.9066 -2.3929
2 2 6 -122.6244 -1.8086
4 2 6 43.6869 3.0364
6 2 6 71.6323 3.0346
8 2 6 86.8155 2.7464
10 2 6 -17.2871 5.3445
12 2 6 -5.4369 6.2020
14 2 6 -23.9748 0.4147
16 2 6 -4.3382 -2.9286
18 2 6 8.3211 -0.3050
20 2 6 32.8310 2.1586
22 2 6 36.7394 1.4198
24 2 6 -11.6725 -0.3328
26 2 6 18.8263 -1.5271
28 2 6 9.7798 -1.9151
30 2 6 1.4997 -0.8962
32 2 6 14.9582 0.4202
34 2 6 -0.7368 1.3680
36 2 6 7.7945 0.7458
-35 3 6 2.7468 4.0448
-33 3 6 -4.5635 -1.3047
-31 3 6 -14.4760 -0.8809
-29 3 6 3.2892 0.5270
-27 3 6 3.4278 1.2441
-25 3 6 -3.8847 1.2559
-23 3 6 25.3580 1.5556
-21 3 6 9.3453 -1.4050
-19 3 6 -24.2253 -6.6807
-17 3 6 -25.5851 -3.9405
-15 3 6 -10.0589 4.6617
-13 3 6 15.9317 2.5418
-11 3 6 -43.1963 -6.3364
-9 3 6 -20.2382 -5.4917
-7 3 6 3.6076 2.7565
-5 3 6 -368.6171 1.6465
-3 3 6 -24.9072 -3.2320
-1 3 6 11.3375 3.8851
1 3 6 416.1364 5.3407
3 3 6 -97.6987 -5.0730
5 3 6 -107.8006 -3.6230
7 3 6 65.0289 8.0517
9 3 6 51.6034 7.0167
11 3 6 23.6179 -5.5195
13 3 6 4.8715 -5.6329
15 3 6 29.8134 4.2807
17 3 6 -26.8426 4.1447
19 3 6 21.4109 -1.3124
21 3 6 -21.9410 -0.3305
23 3 6 -7.1709 0.5491
25 3 6 2.2513 -3.0403
27 3 6 13.3028 -2.3222
29 3 6 12.1449 3.0823
31 3 6 2.2270 3.4616
33 3 6 5.2540 -2.0916
35 3 6 -2.0702 -4.4789
-36 4 6 2.0448 -1.9004
-34 4 6 -5.9985 -2.7487
-32 4 6 -13.0903 -1.7244
-30 4 6 11.5625 1.1453
-28 4 6 -2.6062 2.3826
-26 4 6 1.3307 -1.1366
-24 4 6 14.0100 -0.4973
-22 4 6 -11.4558 1.9954
-20 4 6 24.4583 -0.6825
-18 4 6 52.9169 -2.6644
-16 4 6 -1.6523 4.6377
-14 4 6 -1.2101 8.2544
-12 4 6 104.4531 -2.7042
-10 4 6 -28.6360 -10.1796
-8 4 6 -24.7199 -1.3099
-6 4 6 123.4890 7.3211
-4 4 6 86.7594 0.3652
-2 4 6 -38.2270 -4.7002
0 4 6 212.5568 0.2198
2 4 6 -219.6265 -3.7784
4 4 6 47.4225 -8.4833
6 4 6 43.1775 1.7028
8 4 6 144.9639 10.9056
10 4 6 -96.9690 3.1150
12 4 6 13.6169 -8.1074
14 4 6 67.6209 -3.5606
16 4 6 27.4177 5.4755
18 4 6 -17.0004 3.9834
20 4 6 -21.8287 1.3290
22 4 6 21.1253 2.3393
24 4 6 8.1980 0.3295
26 4 6 4.8536 -3.7556
28 4 6 -4.0375 -0.8607
30 4 6 16.1293 3.4749
32 4 6 14.0554 2.5670
34 4 6 -7.0854 -2.1105
36 4 6 -8.7709 -0.3981
-35 5 6 8.3891 -0.5589
-33 5 6 10.6261 -4.1068
-31 5 6 -0.8919 0.9754
-29 5 6 7.5587 4.0017
-27 5 6 5.5324 -0.9674
-25 5 6 -0.0366 -2.6765
-23 5 6 -2.7300 4.2198
-21 5 6 -3.4647 2.0876
-19 5 6 -14.7800 -9.9053
-17 5 6 -14.5250 -5.0611
-15 5 6 15.9112 14.1324
-13 5 6 -19.4035 10.0974
-11 5 6 -11.4803 -11.8704
-9 5 6 48.8313 -8.4986
-7 5 6 -45.0116 11.3821
-5 5 6 -51.0095 3.3851
-3 5 6 106.9724 -10.9994
-1 5 6 39.7888 5.2257
1 5 6 345.1093 15.7246
3 5 6 -84.6928 -7.6002
5 5 6 -219.1565 -19.6486
7 5 6 80.1985 4.5558
9 5 6 24.5624 17.7232
11 5 6 -2.7550 -2.7619
13 5 6 -27.0084 -12.9757
15 5 6 -30.9246 1.2369
17 5 6 -24.7685 5.3713
19 5 6 43.5054 -6.1793
21 5 6 8.7011 -4.3094
23 5 6 -7.7667 6.9366
25 5 6 0.4402 3.6424
27 5 6 -0.5863 -6.8964
29 5 6 19.5610 -4.0957
31 5 6 -1.7756 4.1060
33 5 6 10.6001 2.8831
35 5 6 0.0668 -0.4363
-36 6 6 0.5814 1.3516
-34 6 6 8.6283 -0.2813
-32 6 6 14.9992 1.4412
-30 6 6 2.3247 0.5875
-28 6 6 -6.8775 -3.4302
-26 6 6 6.3242 -1.3458
-24 6 6 12.9797 5.8146
-22 6 6 9.0985 4.7983
-20 6 6 -0.8449 -4.1940
-18 6 6 -3.6444 -6.1426
-16 6 6 -12.4797 1.3056
-14 6 6 -14.9402 3.1409
-12 6 6 -24.5127 -0.8624
-10 6 6 -15.9959 0.7308
-8 6 6 156.1821 5.4474
-6 6 6 65.1754 0.4779
-4 6 6 103.0727 -7.2817
-2 6 6 93.0411 -3.2296
0 6 6 55.0053 6.1516
2 6 6 83.4108 3.3711
4 6 6 -143.2038 -5.6354
6 6 6 -39.9959 -5.0810
8 6 6 83.9194 -0.4822
10 6 6 5.4845 -1.1247
12 6 6 12.7695 -3.5197
14 6 6 44.4541 -0.5527
16 6 6 39.4621 3.7366
18 6 6 -7.8021 2.2777
20 6 6 -6.1923 -2.4029
22 6 6 -4.4657 -2.0189
24 6 6 19.0237 1.5779
26 6 6 8.7976 2.2028
28 6 6 -2.8427 -0.5827
30 6 6 6.0621 -0.8727
32 6 6 1.3673 0.4193
34 6 6 -2.0472 -0.8132
36 6 6 -11.3737 -3.3481
-35 7 6 8.6363 -1.2712
-33 7 6 1.4470 1.0924
-31 7 6 -1.9400 0.3073
-29 7 6 19.5409 -1.4114
-27 7 6 9.6157 -0.1472
-25 7 6 7.1669 0.4666
-23 7 6 -2.1996 -1.8180
-21 7 6 14.8585 -1.3618
-19 7 6 -4.8716 2.8516
-17 7 6 -18.9887 2.1027
-15 7 6 12.0732 -2.9277
-13 7 6 35.5851 -2.4226
-11 7 6 55.2188 3.3117
-9 7 6 12.9945 1.9692
-7 7 6 -2.2101 -3.8774
-5 7 6 161.4730 -1.3585
-3 7 6 86.6705 2.8938
-1 7 6 111.6350 0.7462
1 7 6 193.9277 -2.1660
5 7 6 43.5671 4.7999
7 7 6 95.7870 -1.9553
9 7 6 -44.0407 -1.7668
11 7 6 12.7532 4.3313
13 7 6 50.0775 4.2449
15 7 6 -5.1304 -1.4680
17 7 6 -22.5220 -3.2180
19 7 6 -23.4519 0.0448
21 7 6 -11.5558 1.4102
23 7 6 -9.4363 -0.0548
25 7 6 -7.1069 0.2536
27 7 6 8.1782 0.5725
29 7 6 14.9006 -1.3476
31 7 6 9.2662 -1.8648
33 7 6 -0.3096 0.0672
35 7 6 -8.7923 2.2515
-36 8 6 -6.2717 1.2085
-34 8 6 17.7345 1.4315
-32 8 6 2.7687 0.2391
-30 8 6 -5.7954 -1.5244
-28 8 6 2.8059 -0.7009
-26 8 6 0.5335 2.1110
-24 8 6 -13.0252 0.4757
-22 8 6 -12.7964 -0.7017
-20 8 6 -13.1299 1.6421
-18 8 6 0.3998 2.7018
-16 8 6 0.4348 -1.5067
-14 8 6 14.1724 -2.3193
-12 8 6 6.7075 4.1577
-10 8 6 25.9690 7.3524
-8 8 6 -5.7986 1.2155
-6 8 6 27.6584 -3.6853
-4 8 6 -41.4583 1.2246
-2 8 6 23.6853 4.5802
0 8 6 -55.5926 -2.2633
2 8 6 79.8121 -2.7521
4 8 6 -40.7243 2.6816
6 8 6 -0.6473 -0.9887
8 8 6 27.4574 -8.7052
10 8 6 -36.5078 -6.0316
12 8 6 -75.5684 3.6484
14 8 6 -47.0095 3.0235
16 8 6 27.4661 -4.7588
18 8 6 13.0339 -3.9346
20 8 6 15.7918 2.1770
22 8 6 -0.2704 1.2060
24 8 6 -8.6444 -1.8127
26 8 6 0.4678 0.7493
28 8 6 5.0972 3.1202
30 8 6 3.3542 -0.6642
32 8 6 -7.2937 -2.7281
34 8 6 6.3258 0.4965
-35 9 6 5.6629 1.8846
-33 9 6 -3.4879 0.4532
-31 9 6 -21.4925 0.5509
-29 9 6 0.7402 -0.1573
-27 9 6 -4.8129 -1.1799
-25 9 6 1.3826 -1.4095
-23 9 6 22.0530 0.5660
-21 9 6 6.7121 2.4150
-19 9 6 5.6175 1.2869
-17 9 6 5.9224 -1.1382
-15 9 6 19.2379 -2.6064
-13 9 6 -38.1502 -2.1026
-11 9 6 31.4758 0.8081
-9 9 6 45.5377 3.7197
-7 9 6 42.4378 2.4593
-5 9 6 -59.9826 -3.0574
-3 9 6 -68.6885 -5.2681
-1 9 6 -48.1087 -0.8276
1 9 6 131.5857 3.1963
5 9 6 29.9428 1.1531
7 9 6 75.3153 -1.7900
9 9 6 -15.1065 -3.2805
11 9 6 64.6743 -1.3298
13 9 6 -4.8025 2.4877
15 9 6 -54.4395 4.0583
17 9 6 5.3439 1.2855
19 9 6 -12.0316 -2.8755
21 9 6 -4.6040 -2.5896
23 9 6 10.4213 0.5534
25 9 6 -0.4859 1.6923
27 9 6 3.2963 1.0256
29 9 6 -7.0140 -0.3076
31 9 6 12.9029 -0.7808
33 9 6 -4.6242 -1.0764
35 9 6 2.8445 -1.1384
-34 10 6 9.2081 -1.2685
-32 10 6 -5.8024 0.8918
-30 10 6 9.7257 0.9265
-28 10 6 -2.9309 -1.3118
-26 10 6 0.0511 -2.9987
-24 10 6 -19.1611 -0.6504
-22 10 6 -25.6703 1.1374
-20 10 6 -9.3913 0.0132
-18 10 6 -12.1497 -0.1369
-16 10 6 26.0045 1.8709
-14 10 6 14.9209 1.1582
-12 10 6 16.1577 -1.0046
-10 10 6 -1.3824 1.3636
-8 10 6 -51.6962 4.7444
-6 10 6 14.1001 3.7498
-4 10 6 -69.6235 -1.0222
-2 10 6 -40.6129 -1.5960
0 10 6 0.8642 1.9221
2 10 6 41.1925 2.0106
4 10 6 21.8196 -1.9917
6 10 6 0.1102 -2.8716
8 10 6 -13.7341 -0.0067
10 10 6 22.8418 0.0749
12 10 6 -100.1345 -1.9152
14 10 6 0.6632 -1.3418
16 10 6 7.7281 1.1010
18 10 6 -10.4215 0.3848
20 10 6 -12.5940 -1.6400
22 10 6 -13.2543 -1.1183
24 10 6 10.3018 1.5761
26 10 6 15.1382 0.9709
28 10 6 8.3166 -1.0448
30 10 6 -3.5716 -1.1225
32 10 6 9.0093 0.7913
34 10 6 -0.8185 0.5015
-35 11 6 -3.9783 -1.1151
-33 11 6 -10.9784 0.0406
-31 11 6 -18.4488 1.7837
-29 11 6 -9.2089 -0.1608
-27 11 6 2.3173 -0.6409
-25 11 6 -5.5654 1.0375
-23 11 6 15.2313 1.4786
-21 11 6 -0.0427 -0.1290
-19 11 6 35.7571 -0.4583
-17 11 6 -21.4671 0.2819
-15 11 6 -26.7291 -0.7699
-13 11 6 -18.5718 -1.4712
-11 11 6 31.6391 -1.0297
-9 11 6 -18.6092 -0.2307
-7 11 6 -12.5436 -0.0040
-5 11 6 -48.2709 -0.8039
-1 11 6 32.7424 -1.2101
1 11 6 15.6628 0.7086
3 11 6 83.9197 1.0263
5 11 6 -22.3729 0.2654
7 11 6 -9.5104 -0.1283
9 11 6 -25.9817 0.3735
11 11 6 -14.6376 -0.5187
13 11 6 -0.3245 -0.5842
15 11 6 -22.5568 0.9062
17 11 6 34.7567 1.5495
19 11 6 10.2037 0.1046
21 11 6 11.4835 -1.2875
23 11 6 -2.2264 -0.4528
25 11 6 7.2792 0.8621
27 11 6 -8.2665 0.4027
29 11 6 -2.1907 -0.7461
31 11 6 13.3477 0.3081
33 11 6 -10.4197 0.3456
-34 12 6 4.1468 1.6333
-32 12 6 -10.2464 0.7594
-30 12 6 -8.9430 -1.2559
-28 12 6 -20.9958 -0.1147
-26 12 6 -5.8384 1.5224
-24 12 6 -13.1006 -0.7769
-22 12 6 -0.5333 -2.7769
-20 12 6 -2.2478 0.7097
-18 12 6 7.8510 2.3645
-16 12 6 8.0786 -1.2698
-14 12 6 -11.4520 -2.5466
-12 12 6 5.2133 1.4335
-10 12 6 23.8788 1.4016
-8 12 6 4.1606 -2.3062
-6 12 6 -88.7471 -0.5788
-4 12 6 -4.9112 3.7468
-2 12 6 -66.7120 2.1318
0 12 6 -43.5052 -2.4170
2 12 6 0.7025 -1.9958
4 12 6 -28.8592 1.7064
6 12 6 19.3267 1.7953
8 12 6 -29.9156 -0.5286
10 12 6 27.8221 0.1190
12 12 6 -42.1088 1.3279
14 12 6 22.0249 -0.7739
16 12 6 -8.8584 -2.4872
18 12 6 15.0696 0.5740
20 12 6 13.6846 2.9935
22 12 6 -17.5445 0.4495
24 12 6 -0.3629 -2.5380
26 12 6 6.0204 -0.9871
28 12 6 10.8001 0.8121
30 12 6 -15.9455 0.2572
32 12 6 -12.7519 -0.2860
34 12 6 -5.8164 1.4780
-33 13 6 -4.4401 -0.4424
-31 13 6 -4.9871 -2.2121
-29 13 6 -18.7693 -0.8025
-27 13 6 2.3324 2.3514
-25 13 6 -7.7310 -0.2802
-23 13 6 -12.9461 -2.8174
-21 13 6 -11.8269 -0.1622
-19 13 6 18.8255 2.2378
-17 13 6 21.4408 -1.0191
-15 13 6 -28.2421 -2.1752
-13 13 6 -9.7959 1.6266
-11 13 6 0.5621 1.8038
-9 13 6 -43.0414 -2.5375
-7 13 6 -1.6179 -2.5832
-5 13 6 -87.0280 2.1791
-3 13 6 18.5199 2.5355
-1 13 6 -23.7901 -0.9883
1 13 6 -55.2712 -1.7223
3 13 6 58.5228 0.4216
5 13 6 -79.1227 1.0193
7 13 6 -20.6115 0.4367
11 13 6 7.0180 0.4300
13 13 6 18.2742 0.7979
15 13 6 -24.9256 -0.3261
17 13 6 -18.8026 -1.0432
19 13 6 6.0548 0.5322
21 13 6 -11.2092 1.8682
23 13 6 -6.5220 0.1840
25 13 6 0.4363 -1.8739
27 13 6 -2.3873 -0.3602
29 13 6 -7.5278 1.3247
31 13 6 10.4966 0.5722
33 13 6 2.9236 -0.6556
-34 14 6 1.7581 -2.5370
-32 14 6 1.4201 -0.8404
-30 14 6 -14.0877 0.2876
-28 14 6 -11.0467 1.7785
-26 14 6 3.9010 0.5700
-24 14 6 14.1817 -0.6634
-22 14 6 5.5077 -0.4760
-20 14 6 -8.2317 -0.1081
-18 14 6 20.3094 -0.1602
-16 14 6 -4.2174 0.8926
-14 14 6 -11.6897 0.8544
-12 14 6 -12.7751 -0.7005
-10 14 6 -84.8981 -1.8484
-8 14 6 17.2379 -1.5463
-6 14 6 -57.3862 1.1961
-4 14 6 36.8498 2.3161
-2 14 6 14.3463 -0.2256
0 14 6 -38.3039 -0.5396
2 14 6 -61.1986 0.3805
4 14 6 7.9623 -0.5254
6 14 6 40.7804 -0.4779
8 14 6 -15.5046 2.0431
10 14 6 35.6796 2.2613
12 14 6 -5.5398 -2.0025
14 14 6 -7.2000 -2.8447
16 14 6 -6.4236 0.4246
18 14 6 11.5268 1.8840
20 14 6 -11.0457 -0.2161
22 14 6 -11.2733 -0.4902
24 14 6 4.8803 0.4003
26 14 6 -1.3000 -0.3934
28 14 6 19.8697 -1.3082
30 14 6 6.0496 0.4366
32 14 6 5.1993 1.7634
-33 15 6 -6.5557 -1.7603
-31 15 6 15.8589 0.2317
-29 15 6 -2.0836 1.0290
-27 15 6 15.4088 -0.7939
-25 15 6 -7.2505 -0.9401
-23 15 6 -11.4975 0.7281
-21 15 6 1.3641 0.6282
-19 15 6 -17.6589 -1.6148
-17 15 6 -8.3594 -1.5279
-15 15 6 -32.9205 0.9389
-13 15 6 -20.1855 1.2225
-11 15 6 73.3932 -1.3527
-9 15 6 -3.1816 -2.1145
-7 15 6 -17.2176 0.5846
-5 15 6 -20.7542 1.1373
-3 15 6 -35.9277 -0.9461
-1 15 6 -49.1048 -0.8287
1 15 6 -29.6097 1.0251
3 15 6 53.9468 0.7247
5 15 6 8.0785 -0.9291
7 15 6 26.1216 -0.1327
9 15 6 -56.5918 2.2403
11 15 6 -15.2514 1.3677
13 15 6 -2.0370 -1.3137
15 15 6 -1.3616 -1.5103
17 15 6 -13.5556 1.0313
19 15 6 6.6288 0.9673
21 15 6 -5.1841 -0.5847
23 15 6 -11.8033 -0.6897
25 15 6 -0.1281 0.4985
27 15 6 -0.8230 -0.4742
29 15 6 15.4283 -0.7047
31 15 6 -13.3357 -0.3042
33 15 6 0.3913 1.2463
-32 16 6 0.9621 1.2992
-30 16 6 0.3287 0.3153
-28 16 6 6.4461 -0.4617
-26 16 6 -0.0873 0.0266
-24 16 6 25.7691 0.6958
-22 16 6 9.4690 -1.2599
-20 16 6 -9.8949 -1.1327
-18 16 6 -4.2184 1.1174
-16 16 6 12.5744 1.0828
-14 16 6 -12.8033 -1.4549
-12 16 6 -5.3892 -1.4104
-10 16 6 -21.1294 0.3570
-8 16 6 30.0098 0.0307
-6 16 6 -16.2343 -0.3471
-4 16 6 -16.6788 0.5060
-2 16 6 29.8665 0.9134
0 16 6 -33.5008 -0.6062
2 16 6 -3.4905 -0.2835
4 16 6 -2.9275 1.4336
6 16 6 27.5277 0.4987
8 16 6 3.8867 -1.0966
10 16 6 5.6042 0.0976
12 16 6 0.3891 0.8718
14 16 6 -8.1372 -0.7089
16 16 6 -35.5709 -0.9608
18 16 6 19.4007 0.6986
20 16 6 3.2416 0.5294
22 16 6 0.2810 -0.7555
24 16 6 17.0341 -0.0334
26 16 6 18.1470 1.6747
28 16 6 8.2946 -0.3223
30 16 6 7.8324 -1.2502
32 16 6 -0.3053 0.5767
-33 17 6 -3.5669 1.0754
-31 17 6 9.8079 -0.5343
-29 17 6 -7.2773 -0.6299
-27 17 6 -0.1104 1.6410
-25 17 6 -5.5672 1.2151
-23 17 6 -13.4330 -1.4976
-21 17 6 13.4388 -0.6852
-19 17 6 -12.6300 2.4140
-17 17 6 -12.7266 1.6201
-15 17 6 15.5031 -2.4541
-13 17 6 -8.8064 -0.7557
-11 17 6 26.4729 2.7673
-9 17 6 -20.9429 0.2381
-7 17 6 -31.2685 -2.5984
-5 17 6 12.3536 0.2821
-3 17 6 31.6744 2.7299
-1 17 6 22.5208 -0.5967
1 17 6 26.7497 -3.0524
3 17 6 -14.4648 0.1670
5 17 6 -13.5061 3.0171
7 17 6 -4.3001 -0.0441
9 17 6 -6.0676 -2.6730
11 17 6 -12.5000 0.7636
13 17 6 -5.7867 2.3757
15 17 6 18.0042 -1.4405
17 17 6 -4.7564 -2.0530
19 17 6 -4.3888 1.2130
21 17 6 -9.9298 2.0296
23 17 6 -4.8677 -1.5184
25 17 6 -0.3606 -1.8277
27 17 6 -25.3942 0.7115
29 17 6 4.1468 1.2565
31 17 6 -2.1981 -0.7432
-32 18 6 4.5473 -1.4150
-30 18 6 -4.3651 -1.3716
-28 18 6 -15.9645 0.4427
-26 18 6 -13.7027 1.2994
-24 18 6 6.4152 -1.5863
-22 18 6 -15.8926 -1.6586
-20 18 6 -7.1508 1.7908
-18 18 6 -11.7918 1.5300
-16 18 6 34.8884 -2.5168
-14 18 6 14.7887 -2.5500
-12 18 6 -30.5684 2.6610
-10 18 6 8.8377 3.1109
-8 18 6 -6.1971 -1.5295
-6 18 6 -8.6247 -2.1960
-4 18 6 -8.7802 1.5389
-2 18 6 -6.3122 0.9886
0 18 6 -19.1918 -1.9485
2 18 6 25.9039 -0.2937
4 18 6 -2.9110 3.1228
6 18 6 19.9452 0.5789
8 18 6 7.1833 -3.8884
10 18 6 -38.6521 -1.8980
12 18 6 -8.4180 2.3419
14 18 6 -7.9434 1.9587
16 18 6 -6.6623 -1.5824
18 18 6 1.4372 -1.1242
20 18 6 14.4059 0.7183
22 18 6 -6.7417 0.0167
24 18 6 -12.2159 -0.8943
26 18 6 8.5800 1.0635
28 18 6 -9.4980 1.7024
30 18 6 -9.4339 -0.2462
-31 19 6 3.5670 -0.3319
-29 19 6 -12.3255 1.5135
-27 19 6 -7.5746 0.8367
-25 19 6 -13.3830 -0.6229
-23 19 6 -7.4637 -0.8781
-21 19 6 3.9903 1.1042
-19 19 6 9.2980 1.4338
-17 19 6 2.5991 0.0363
-15 19 6 10.9890 -0.1464
-13 19 6 8.2706 0.9382
-11 19 6 -22.7709 0.3334
-9 19 6 0.7825 -1.3336
-7 19 6 -6.2592 0.2048
-5 19 6 -4.2663 2.0933
-3 19 6 26.8964 0.2893
-1 19 6 -2.8622 -1.7235
1 19 6 -16.7249 -0.5022
3 19 6 -17.1383 0.1696
5 19 6 6.8363 -0.5228
7 19 6 -5.5065 0.0707
9 19 6 25.3617 0.0602
11 19 6 -22.8691 -1.0315
13 19 6 17.7752 -0.5718
15 19 6 -23.0259 0.4763
17 19 6 -28.8022 0.0551
19 19 6 -4.1614 -0.5697
21 19 6 -2.9638 0.4083
23 19 6 -3.0735 0.6557
25 19 6 -1.0487 0.0998
27 19 6 -9.2830 -0.1545
29 19 6 -8.1379 0.1113
31 19 6 5.2087 -0.9592
-30 20 6 -3.2436 0.8775
-28 20 6 -14.6444 -0.4712
-26 20 6 -0.7353 -0.2180
-24 20 6 2.3414 1.1072
-22 20 6 9.3951 1.6257
-20 20 6 -6.7545 -0.7793
-18 20 6 3.3372 -1.6050
-16 20 6 22.8763 0.6806
-14 20 6 39.1368 1.6516
-12 20 6 9.0456 0.1488
-10 20 6 20.3829 -0.8241
-8 20 6 -17.3602 0.2410
-6 20 6 -20.2556 0.3223
-4 20 6 -4.1700 -0.7522
-2 20 6 -5.0652 -0.8153
0 20 6 25.4417 0.5416
2 20 6 -9.9585 0.8882
4 20 6 10.3589 -0.4451
6 20 6 14.2569 -1.1181
8 20 6 -19.3574 0.5514
10 20 6 -36.2689 1.0078
12 20 6 18.4814 -1.0694
14 20 6 1.4238 -1.2384
16 20 6 2.2729 1.0535
18 20 6 28.1288 1.2127
20 20 6 -1.1197 -1.2990
22 20 6 -13.9754 -1.2076
24 20 6 2.0627 0.6224
26 20 6 -5.5990 0.8838
28 20 6 10.4868 -1.1211
30 20 6 -2.0896 -0.8377
-29 21 6 -7.0630 0.1364
-27 21 6 4.1932 -0.8450
-25 21 6 -9.1719 0.7272
-23 21 6 2.3080 0.0080
-21 21 6 -10.1581 -0.6671
-19 21 6 16.9407 0.0464
-17 21 6 2.3552 0.7975
-15 21 6 -6.7570 0.4487
-13 21 6 14.1690 -0.3376
-11 21 6 -25.0346 0.1009
-9 21 6 -9.7432 0.4319
-7 21 6 5.9062 0.5789
-5 21 6 8.3291 0.6479
-3 21 6 1.7890 0.3686
-1 21 6 18.2018 -0.3182
1 21 6 2.1541 -0.5661
3 21 6 0.3196 -0.1335
5 21 6 -22.5345 -0.3320
7 21 6 -3.3730 -0.5331
9 21 6 -1.8351 0.1385
11 21 6 0.4639 0.2140
13 21 6 -3.9605 -1.1470
15 21 6 -13.9486 -0.2017
17 21 6 -6.0045 1.3968
19 21 6 -11.0697 0.6363
21 21 6 15.8510 -0.9661
23 21 6 -18.8614 -0.1036
25 21 6 -10.1248 0.6671
27 21 6 0.7620 0.1034
29 21 6 -2.3983 -0.2386
-30 22 6 -0.0463 -0.2512
-28 22 6 2.6521 0.4968
-26 22 6 -3.1852 1.6712
-24 22 6 -9.4596 -0.1400
-22 22 6 4.0596 -0.6535
-20 22 6 -17.7940 0.5338
-18 22 6 0.4043 0.5295
-16 22 6 -7.3251 -0.3120
-14 22 6 3.5185 0.1117
-12 22 6 -6.4104 1.5060
-10 22 6 21.4313 0.5120
-8 22 6 -1.8144 -2.0337
-6 22 6 15.5324 -1.1173
-4 22 6 7.3610 1.4559
-2 22 6 -4.6445 1.0506
0 22 6 5.9415 -1.3619
2 22 6 10.6873 -1.3349
4 22 6 1.8900 0.0549
6 22 6 11.7332 -0.0167
8 22 6 0.5025 -0.4153
10 22 6 -2.5433 0.6110
12 22 6 1.2893 1.1885
14 22 6 -4.9330 -0.3834
16 22 6 -17.4084 -1.4554
18 22 6 36.8605 0.3788
20 22 6 -6.5722 1.7728
22 22 6 -3.8932 0.2548
24 22 6 15.4504 -1.1151
26 22 6 -6.8017 -0.1127
28 22 6 3.2322 -0.5099
-29 23 6 8.4117 0.4029
-27 23 6 6.6706 0.9406
-25 23 6 -1.0118 -0.4140
-23 23 6 2.4080 -0.9581
-21 23 6 0.3145 1.2663
-19 23 6 4.2843 0.8953
-17 23 6 -1.7737 -1.3479
-15 23 6 24.2339 -1.6219
-13 23 6 13.9153 1.0351
-11 23 6 21.6053 2.0739
-9 23 6 56.9963 -0.1366
-7 23 6 2.0533 -1.3978
-5 23 6 -33.6748 0.0044
-3 23 6 9.1437 0.9594
-1 23 6 18.2066 -0.3754
1 23 6 6.8971 -0.8328
3 23 6 8.2677 0.9871
5 23 6 -6.8304 0.8764
7 23 6 8.5509 -1.0123
9 23 6 -13.7503 -1.5962
11 23 6 11.6707 0.4706
13 23 6 -12.4268 1.3957
15 23 6 22.0948 0.4895
17 23 6 6.7450 -0.9786
19 23 6 8.0774 -0.4148
21 23 6 1.5659 0.3689
23 23 6 3.2573 0.3362
25 23 6 -1.2050 -0.7475
27 23 6 15.6469 -0.4268
-28 24 6 17.6670 0.6088
-26 24 6 0.9066 -0.8339
-24 24 6 14.9038 -0.3580
-22 24 6 -17.3253 1.1468
-20 24 6 -17.5765 0.0383
-18 24 6 -16.9709 -1.2224
-16 24 6 -3.7463 0.0866
-14 24 6 -13.7173 0.8914
-12 24 6 17.6542 -0.4529
-10 24 6 3.8933 -1.2606
-8 24 6 8.1715 -0.0651
-6 24 6 9.3052 0.9257
-4 24 6 0.3889 -0.0903
-2 24 6 8.6218 -0.7862
0 24 6 7.4721 0.3889
2 24 6 10.1801 0.5021
4 24 6 -7.9066 -1.0057
6 24 6 -9.1796 -0.6897
8 24 6 4.6525 1.0998
10 24 6 -0.4247 0.9469
12 24 6 -3.6079 -0.4594
14 24 6 -2.7173 0.0010
16 24 6 4.1494 0.2691
18 24 6 5.0505 -0.3147
20 24 6 -1.4536 -0.4999
22 24 6 1.9253 0.6620
24 24 6 25.1362 0.9335
26 24 6 9.7824 -0.4737
-27 25 6 -0.2820 0.0635
-25 25 6 -4.3378 0.9745
-23 25 6 1.5190 1.4418
-21 25 6 15.9866 -0.0967
-19 25 6 15.4768 -0.9840
-17 25 6 -2.4746 0.0361
-15 25 6 29.6408 0.3431
-13 25 6 1.9058 -0.5090
-11 25 6 -3.7872 -0.1062
-9 25 6 20.4885 0.7668
-7 25 6 -6.0767 0.1589
-5 25 6 -31.4673 -0.8328
-3 25 6 13.6650 -0.7350
-1 25 6 -1.5280 0.3957
1 25 6 6.0850 1.3229
3 25 6 -15.6590 0.6857
5 25 6 -17.4288 -0.6610
7 25 6 5.3630 -0.5256
9 25 6 -0.0182 0.5930
11 25 6 11.4673 0.7112
13 25 6 4.9449 0.0213
15 25 6 8.3307 0.2130
17 25 6 -15.0702 0.4905
19 25 6 0.3009 0.2994
21 25 6 7.6557 -1.4606
23 25 6 9.5813 -0.3409
25 25 6 -19.5145 1.2015
27 25 6 9.4000 -0.5638
-26 26 6 6.6847 0.4689
-24 26 6 8.9031 0.0905
-22 26 6 7.9835 0.0370
-20 26 6 -12.9090 0.3239
-18 26 6 -14.9240 0.6869
-16 26 6 -0.7804 0.1410
-14 26 6 -4.5387 -1.0639
-12 26 6 19.3461 -0.9692
-10 26 6 15.9505 0.7038
-8 26 6 -2.2262 0.9622
-6 26 6 12.1770 -0.2092
-4 26 6 -2.1286 -0.5721
-2 26 6 4.4198 -0.1610
0 26 6 8.2788 -0.2725
2 26 6 -13.5009 0.1459
4 26 6 5.0673 1.1441
6 26 6 4.5818 0.1229
8 26 6 -14.4174 -1.1286
10 26 6 -16.8559 -0.1367
12 26 6 8.2114 0.8917
14 26 6 5.5786 0.4219
16 26 6 17.6957 -0.4452
18 26 6 -8.1763 0.3933
20 26 6 -17.8507 0.3901
22 26 6 -8.0221 -0.8840
24 26 6 21.7194 -0.2334
26 26 6 17.3934 0.1216
-25 27 6 -1.3692 0.0752
-23 27 6 -0.1193 -1.4056
-21 27 6 19.6766 -0.6542
-19 27 6 -8.3012 1.3622
-17 27 6 8.5687 0.3981
-15 27 6 15.7237 -1.9237
-13 27 6 -1.3450 -0.8340
-11 27 6 -13.1918 1.3186
-9 27 6 12.6651 0.2945
-7 27 6 -0.4734 -1.6253
-5 27 6 -13.6294 -0.0634
-3 27 6 4.2315 2.0047
-1 27 6 12.8968 0.2485
1 27 6 -6.5037 -1.9141
3 27 6 -5.8753 0.0186
5 27 6 -3.6169 2.0303
7 27 6 13.4541 0.2420
9 27 6 18.6597 -1.5278
11 27 6 -17.5122 0.4344
13 27 6 -11.0552 1.8240
15 27 6 -7.1022 -0.6320
17 27 6 27.3650 -2.1054
19 27 6 -7.3264 0.7253
21 27 6 3.2343 1.8003
23 27 6 14.1510 -1.0681
25 27 6 -11.1034 -1.3672
-24 28 6 -9.6434 -0.5345
-22 28 6 1.4259 0.6524
-20 28 6 -13.3731 1.4745
-18 28 6 -12.1627 0.4605
-16 28 6 -9.0413 -1.3860
-14 28 6 -9.4855 -0.6939
-12 28 6 -2.1840 0.9378
-10 28 6 13.5348 0.4377
-8 28 6 -14.3841 -0.4955
-6 28 6 8.8570 -0.2768
-4 28 6 6.0452 0.3932
-2 28 6 14.0605 0.1103
0 28 6 -3.1456 -0.5765
2 28 6 7.1037 -0.0699
4 28 6 -15.4557 1.1365
6 28 6 2.1980 0.4800
8 28 6 -9.4815 -0.9727
10 28 6 -11.3566 -1.1432
12 28 6 3.2222 0.3116
14 28 6 -8.5132 1.0941
16 28 6 -2.4241 -0.3021
18 28 6 -9.1104 -1.1052
20 28 6 -11.1922 -0.2865
22 28 6 -3.8427 0.2134
24 28 6 5.7462 0.5230
-23 29 6 -0.6815 0.3348
-21 29 6 10.2276 0.3214
-19 29 6 -23.2832 -0.0533
-17 29 6 0.5692 0.0585
-15 29 6 -15.9626 0.1064
-13 29 6 -10.4946 0.2600
-11 29 6 -8.6669 -0.2142
-9 29 6 10.3192 -0.5172
-7 29 6 -13.3990 0.0415
-5 29 6 8.5947 0.5916
-3 29 6 6.1444 0.2480
-1 29 6 29.4719 0.1120
1 29 6 0.5947 -0.2416
3 29 6 -1.8167 -0.6665
5 29 6 13.4408 -0.2269
7 29 6 -0.4131 0.6446
9 29 6 4.0822 0.3390
11 29 6 0.5210 -0.2342
13 29 6 0.6722 -0.3834
15 29 6 -0.7301 -0.3464
17 29 6 3.2207 -0.3727
19 29 6 -13.3380 0.1980
21 29 6 -9.0796 -0.1883
-22 30 6 -4.1250 1.7461
-20 30 6 -5.1080 -0.5675
-18 30 6 -28.3181 -0.3409
-16 30 6 3.5739 0.5463
-14 30 6 9.2051 0.4909
-12 30 6 -18.2779 -0.4524
-10 30 6 3.0881 -0.8624
-8 30 6 9.4335 0.4043
-6 30 6 -4.8159 1.0070
-4 30 6 -16.2002 -0.1650
-2 30 6 12.7145 -0.6320
0 30 6 -15.4189 0.5204
2 30 6 4.8806 0.6627
4 30 6 -18.9443 -0.7192
6 30 6 -8.2658 -0.5252
8 30 6 -5.2735 0.5995
10 30 6 -5.0910 0.4563
12 30 6 -20.2171 -0.7247
14 30 6 8.3813 -1.3241
16 30 6 3.4684 0.3292
18 30 6 8.3249 1.2347
20 30 6 -6.8311 -0.8598
-19 31 6 4.4696 -0.2050
-17 31 6 4.9390 0.5920
-15 31 6 -15.7895 0.8108
-13 31 6 -3.1069 0.0526
-11 31 6 3.3427 -0.6122
-9 31 6 18.0913 0.0970
-7 31 6 18.5067 0.5976
-5 31 6 3.0390 -0.1325
-3 31 6 -3.2637 -0.3722
-1 31 6 5.6248 0.1555
1 31 6 5.0349 0.0114
3 31 6 -21.7449 -0.5713
5 31 6 -3.9225 -0.2934
7 31 6 10.2187 0.1726
9 31 6 -23.6035 0.1682
11 31 6 13.4934 -0.3124
13 31 6 -11.7999 -0.6337
15 31 6 -9.2584 -0.6014
17 31 6 -3.4286 -0.2596
19 31 6 3.3778 -0.1782
-18 32 6 -3.7833 0.5088
-16 32 6 3.8722 -0.0776
-14 32 6 -1.5446 0.0234
-12 32 6 -11.0492 0.2096
-10 32 6 3.2198 -0.0475
-8 32 6 -4.0298 -0.3072
-6 32 6 1.9090 -0.0329
-4 32 6 3.0916 -0.0194
-2 32 6 3.8637 0.0971
0 32 6 -15.1584 -0.0230
2 32 6 -22.5026 -0.1988
4 32 6 -28.6183 -0.2939
6 32 6 -2.4296 -0.0942
8 32 6 -5.9872 -0.4340
10 32 6 -2.5725 -0.0240
12 32 6 -24.4096 0.1640
14 32 6 -1.0792 -0.2043
16 32 6 -10.9602 -0.6640
18 32 6 3.3755 -0.2469
-17 33 6 -0.8263 0.0624
-15 33 6 1.3051 -0.8828
-13 33 6 3.2360 0.5335
-11 33 6 3.7977 0.5333
-9 33 6 2.5216 0.2282
-7 33 6 2.5545 0.1323
-5 33 6 7.0826 0.0938
-3 33 6 -9.3228 -0.1436
-1 33 6 5.2709 -0.3072
1 33 6 15.1656 -0.1236
3 33 6 -2.4464 0.0166
5 33 6 -11.3189 0.3294
7 33 6 12.0641 -0.1908
9 33 6 -11.8132 -0.5967
11 33 6 4.2243 -0.4926
13 33 6 -7.3706 0.4115
15 33 6 -5.6000 0.0953
17 33 6 11.7848 0.1806
-14 34 6 -9.5739 0.7216
-12 34 6 0.7692 0.4113
-10 34 6 3.2964 -1.0470
-8 34 6 10.1735 -0.3940
-6 34 6 -11.4726 0.3612
-4 34 6 10.2341 -0.1719
-2 34 6 1.6657 -0.4072
0 34 6 13.1521 0.1578
2 34 6 1.7579 0.4539
4 34 6 -7.0179 -0.1306
6 34 6 -5.0420 -0.2400
8 34 6 -6.7694 0.0552
10 34 6 -14.7090 -0.0633
12 34 6 -13.5553 -0.0409
14 34 6 -18.4323 -0.2837
-13 35 6 2.9614 -0.3139
-11 35 6 10.6289 -0.7125
-9 35 6 -1.1923 0.8473
-7 35 6 7.9201 0.4403
-5 35 6 12.6908 0.0535
-3 35 6 -16.4229 -1.2217
-1 35 6 0.1711 0.0846
1 35 6 -17.7966 0.7611
3 35 6 -10.3982 0.0416
5 35 6 -9.3552 -0.4099
7 35 6 -2.9571 0.0523
9 35 6 3.0743 0.5897
11 35 6 3.2751 -0.0720
-10 36 6 7.4329 -0.8858
-8 36 6 0.4493 -0.3551
-6 36 6 -17.5993 -0.1781
-4 36 6 4.6968 -0.3783
-2 36 6 -7.0120 -0.1218
0 36 6 -6.1100 0.4177
2 36 6 -12.6512 0.2047
4 36 6 1.1699 -0.3211
6 36 6 -7.4503 -0.0279
8 36 6 -4.5503 1.4038
-5 37 6 3.6389 0.3474
-3 37 6 -19.6687 0.7070
-1 37 6 10.7813 0.7597
1 37 6 -3.5805 0.1124
3 37 6 -10.6824 -0.2943
5 37 6 -1.8110 0.4435
-35 1 7 -7.4121 1.3580
-33 1 7 6.9626 -10.1000
-31 1 7 -11.9011 -5.0132
-29 1 7 -3.6875 6.1121
-27 1 7 12.1330 -1.0395
-25 1 7 19.3370 -4.3425
-23 1 7 -5.1112 12.4799
-21 1 7 -15.1869 12.5236
-19 1 7 9.0608 -22.6768
-17 1 7 -25.7084 -25.1012
-15 1 7 -0.4042 26.8580
-13 1 7 91.7612 42.5321
-11 1 7 88.6016 -6.8248
-9 1 7 37.9711 -26.3206
-7 1 7 -91.3561 9.9875
-5 1 7 95.6315 16.2715
-1 1 7 -224.8970 3.8520
1 1 7 -8.9911 38.5071
3 1 7 96.4013 -10.0345
5 1 7 84.7549 -62.2220
7 1 7 45.8343 -19.3566
9 1 7 82.8735 37.5418
11 1 7 -27.3998 12.2153
13 1 7 12.7687 -27.5013
15 1 7 -11.0811 -8.8980
17 1 7 8.8125 8.0138
19 1 7 20.7785 -9.4070
21 1 7 -12.1580 -6.5739
23 1 7 13.2440 20.1709
25 1 7 -0.6233 14.5589
27 1 7 -10.6969 -13.9256
29 1 7 4.5227 -13.5525
31 1 7 -12.2400 7.1479
33 1 7 -6.1981 7.9698
35 1 7 -2.6622 -0.3643
-36 2 7 3.6817 0.4499
-34 2 7 -7.9521 -2.3886
-32 2 7 -18.7592 1.7775
-30 2 7 10.1599 8.5220
-28 2 7 -6.1954 -1.4165
-26 2 7 -11.8998 -11.9448
-24 2 7 8.8480 -1.7297
-22 2 7 14.2957 11.2360
-20 2 7 -3.7388 0.3523
-18 2 7 15.7762 -10.4396
-16 2 7 16.2827 1.1193
-14 2 7 -33.7923 4.8559
-12 2 7 -68.4589 -14.0514
-10 2 7 -99.0693 -13.7229
-8 2 7 -39.8210 18.1612
-6 2 7 26.9951 19.5686
-4 2 7 -202.2386 -18.0254
-2 2 7 22.6137 -18.3666
0 2 7 170.1131 14.0456
2 2 7 208.3498 15.3782
4 2 7 18.2026 -4.3323
6 2 7 -0.1549 2.6454
8 2 7 41.5111 17.3954
10 2 7 -76.8412 -1.8462
12 2 7 -17.3854 -19.0488
14 2 7 -22.8739 0.1738
16 2 7 -4.2181 19.2733
18 2 7 -23.1033 4.7672
20 2 7 -7.3210 -13.2107
22 2 7 -1.9983 -6.2881
24 2 7 -4.3228 3.9953
26 2 7 13.6312 0.0512
28 2 7 -9.2298 -3.1732
30 2 7 3.5007 2.5615
32 2 7 17.7414 4.5959
34 2 7 -16.2565 -2.5660
36 2 7 -13.6244 -4.9084
-35 3 7 3.7719 0.0105
-33 3 7 -2.2844 -0.3517
-31 3 7 0.3097 -1.2620
-29 3 7 5.8205 -1.2686
-27 3 7 -7.7645 0.4428
-25 3 7 12.7986 2.6423
-23 3 7 -10.3611 3.4781
-21 3 7 24.9932 -1.4207
-19 3 7 25.3668 -6.8175
-17 3 7 -27.0619 -4.9837
-15 3 7 44.1127 3.0721
-13 3 7 0.1527 7.2748
-11 3 7 52.7238 1.5109
-7 3 7 -0.8928 -7.1917
-3 3 7 325.3983 2.5560
3 3 7 81.0742 -6.4274
5 3 7 -142.2865 -10.2969
7 3 7 -114.7503 -1.8739
9 3 7 16.1241 8.2184
11 3 7 45.2857 9.0364
13 3 7 48.5209 0.9963
15 3 7 11.7988 -3.4285
17 3 7 15.8426 -2.1375
19 3 7 -2.1117 1.1606
21 3 7 -19.4441 4.2004
23 3 7 -0.7330 5.1544
25 3 7 18.1410 0.6425
27 3 7 -26.4153 -4.3599
29 3 7 21.1314 -3.0196
31 3 7 3.4821 0.7144
33 3 7 5.0312 2.5673
35 3 7 -6.9189 0.3765
-36 4 7 -3.3094 -2.0094
-34 4 7 17.9696 1.0230
-32 4 7 2.4087 0.2001
-30 4 7 -0.4583 -2.7614
-28 4 7 2.4330 0.5136
-26 4 7 2.2860 3.4221
-24 4 7 2.0135 -1.0969
-22 4 7 -1.9630 -3.8201
-20 4 7 -0.0308 2.9757
-18 4 7 20.9308 4.2787
-16 4 7 -26.0026 -5.6175
-14 4 7 -30.8547 -7.1683
-12 4 7 14.6876 3.5134
-10 4 7 5.6121 3.9179
-8 4 7 17.5144 -6.2672
-4 4 7 244.1990 3.8530
-2 4 7 -15.6349 -0.8417
0 4 7 -125.0321 -3.1219
2 4 7 38.9103 5.8032
4 4 7 -15.8056 11.1390
6 4 7 -68.4112 1.7002
8 4 7 32.4654 -6.4393
10 4 7 56.3457 -0.6671
12 4 7 -34.7288 6.2334
14 4 7 -8.4008 3.4320
16 4 7 -10.8021 -1.8665
18 4 7 -7.7923 -2.0837
20 4 7 -5.1656 -1.3570
22 4 7 33.4836 -2.1865
24 4 7 -15.2599 -0.9983
26 4 7 -8.2215 3.2478
28 4 7 -6.0338 3.1741
30 4 7 -14.6951 -1.2583
32 4 7 -1.6420 -3.5897
34 4 7 -8.2239 -0.3675
36 4 7 7.6377 1.7788
-35 5 7 -2.0538 2.6544
-33 5 7 6.9988 -0.1680
-31 5 7 12.6184 0.4159
-29 5 7 3.2518 2.2170
-27 5 7 -2.1099 -0.9021
-25 5 7 11.5080 -4.9630
-23 5 7 -13.5125 -1.7238
-21 5 7 5.1379 4.2732
-19 5 7 -63.7199 1.6144
-17 5 7 -0.8970 -4.5445
-15 5 7 -1.6334 -3.4276
-13 5 7 -46.0898 -1.8205
-11 5 7 55.1458 -3.0122
-9 5 7 33.5869 2.5065
-7 5 7 -49.9278 10.0322
-5 5 7 -16.1194 3.8550
-3 5 7 173.1937 -8.3822
-1 5 7 -141.2765 -5.8138
1 5 7 73.5971 3.9809
3 5 7 64.9676 5.5341
5 5 7 66.7690 2.6890
7 5 7 39.8530 1.3239
9 5 7 -3.7615 -3.3936
11 5 7 0.1575 -7.9502
13 5 7 -5.2501 -1.2167
15 5 7 -1.8508 7.2384
17 5 7 44.2921 4.6867
19 5 7 -9.5224 -2.1770
21 5 7 3.3113 -2.7548
23 5 7 -6.1941 -1.2602
25 5 7 8.8914 -1.1444
27 5 7 -9.9467 1.5542
29 5 7 6.3144 2.8617
31 5 7 -0.8177 0.2020
33 5 7 1.4798 -3.1517
35 5 7 -0.8635 -1.9745
-36 6 7 6.4532 -1.1204
-34 6 7 11.4104 -2.2410
-32 6 7 -10.3616 -1.3868
-30 6 7 -4.0168 2.1618
-28 6 7 11.7800 2.1248
-26 6 7 1.6012 -2.6867
-24 6 7 -12.2505 -1.1025
-22 6 7 -4.1248 2.8193
-20 6 7 31.1091 0.4119
-18 6 7 14.0088 -2.4691
-16 6 7 6.8652 1.8035
-14 6 7 29.4188 2.6437
-12 6 7 -35.1368 -5.9896
-10 6 7 12.2206 -8.8287
-8 6 7 40.2778 0.4124
-6 6 7 121.5428 4.7540
-4 6 7 89.1655 -3.3914
-2 6 7 -93.8667 -5.2764
0 6 7 -3.3349 3.0352
2 6 7 151.6231 4.9770
4 6 7 23.9587 0.1413
6 6 7 3.6833 2.1116
8 6 7 -117.9487 8.1326
10 6 7 57.3758 3.9028
12 6 7 0.0179 -3.7041
14 6 7 -17.7696 -0.5340
16 6 7 60.5568 5.2790
18 6 7 -5.1340 1.1578
20 6 7 -31.5646 -4.1543
22 6 7 -8.0032 -1.0071
24 6 7 -6.7281 2.4866
26 6 7 -1.8128 -0.3393
28 6 7 14.9482 -2.1692
30 6 7 -5.6469 0.4875
32 6 7 -1.7192 0.8901
34 6 7 -4.5299 -1.3417
-35 7 7 -6.7614 -2.4661
-33 7 7 5.5572 -2.1391
-31 7 7 -9.2095 4.0374
-29 7 7 -13.9443 3.9754
-27 7 7 -13.5979 -3.1807
-25 7 7 8.2278 -4.0383
-23 7 7 -4.5038 2.8880
-21 7 7 -2.7165 2.8217
-19 7 7 -23.0633 -2.9882
-17 7 7 27.9972 1.0137
-15 7 7 -33.6220 6.8265
-13 7 7 -32.0524 -1.6069
-11 7 7 60.0064 -9.5543
-9 7 7 42.9856 3.1639
-7 7 7 -44.5969 13.5675
-5 7 7 -39.6550 -1.0177
-3 7 7 -11.0524 -12.5554
1 7 7 -44.1302 5.2345
3 7 7 84.5791 -1.4978
5 7 7 24.1235 -2.2987
7 7 7 -79.9090 2.1027
9 7 7 88.4261 -0.5493
11 7 7 2.8319 -6.9164
13 7 7 -67.0554 -3.4044
15 7 7 -61.4289 7.0734
17 7 7 18.2133 6.6294
19 7 7 -16.1641 -3.1592
21 7 7 5.8181 -5.9160
23 7 7 6.5264 0.3038
25 7 7 -25.6463 4.1885
27 7 7 -7.4108 1.6442
29 7 7 -10.4775 -0.3267
31 7 7 8.2421 -0.5997
33 7 7 4.2727 0.3313
35 7 7 17.0111 -0.8968
-36 8 7 1.4068 0.5327
-34 8 7 -10.8624 0.7997
-32 8 7 -17.8480 0.9128
-30 8 7 6.0204 0.5687
-28 8 7 5.8795 -1.0712
-26 8 7 9.8929 0.2278
-24 8 7 0.0577 1.1497
-22 8 7 11.5438 -0.2284
-20 8 7 -9.3902 -1.3436
-18 8 7 45.4660 -0.9698
-16 8 7 25.6302 -0.3220
-14 8 7 21.3786 -0.8562
-12 8 7 32.2262 -1.8138
-10 8 7 -18.4473 -1.4730
-8 8 7 -108.2033 -0.9600
-6 8 7 -90.8089 0.3192
-4 8 7 -8.5084 0.1360
-2 8 7 -158.7558 -0.6558
0 8 7 -21.6731 -0.4369
2 8 7 141.3012 0.2339
4 8 7 103.4547 0.4151
6 8 7 85.7326 0.7867
8 8 7 -55.9021 1.9594
10 8 7 -2.2056 0.7950
12 8 7 -6.7200 -0.5825
14 8 7 -32.8861 -1.3401
16 8 7 20.6854 -0.2610
18 8 7 23.3342 1.4070
20 8 7 7.6925 2.0454
22 8 7 1.8780 0.2073
24 8 7 10.8689 -1.7149
26 8 7 -4.1650 -1.1222
28 8 7 -0.9062 0.4081
30 8 7 -10.4356 0.5070
32 8 7 -0.3744 0.6071
34 8 7 1.8029 0.8241
-35 9 7 2.4351 -0.2667
-33 9 7 -2.8499 0.3797
-31 9 7 -9.4051 -0.1413
-29 9 7 -6.9370 0.4054
-27 9 7 -0.1905 0.2711
-25 9 7 6.9664 -1.4033
-23 9 7 -1.5676 -1.6073
-21 9 7 -3.3068 0.1481
-19 9 7 20.3067 2.1592
-17 9 7 13.0030 2.5191
-15 9 7 -1.4734 1.9756
-13 9 7 -43.9465 0.3367
-11 9 7 32.1104 -1.1142
-9 9 7 -20.0825 -0.3891
-7 9 7 -7.0645 2.8694
-5 9 7 11.7550 1.8997
-3 9 7 -7.3653 -0.9797
-1 9 7 84.0357 -0.4283
1 9 7 -109.2921 -0.8195
3 9 7 113.3099 -2.6258
5 9 7 -6.5542 -0.3330
7 9 7 -111.6677 3.2930
9 9 7 11.1717 -0.0576
11 9 7 9.7032 -3.4957
13 9 7 -4.3073 -0.0090
15 9 7 -7.9277 2.3481
17 9 7 37.9335 -0.5504
19 9 7 -4.3061 -1.4807
21 9 7 16.5918 1.4707
23 9 7 4.5892 1.0716
25 9 7 2.1609 -1.7318
27 9 7 13.1813 -0.8692
29 9 7 8.7819 1.8162
31 9 7 5.1966 0.5848
33 9 7 -7.4941 -1.8866
35 9 7 11.6721 -1.0729
-34 10 7 -2.1778 -0.0161
-32 10 7 -9.9821 -1.9841
-30 10 7 8.6010 -0.9474
-28 10 7 -16.6481 1.3053
-26 10 7 7.3321 1.1881
-24 10 7 -1.7965 0.8541
-22 10 7 17.6849 1.6591
-20 10 7 2.0154 -0.7054
-18 10 7 29.5104 -2.9731
-16 10 7 -7.2539 0.3740
-14 10 7 -28.4359 5.3600
-12 10 7 -10.5916 2.3304
-10 10 7 -4.1819 -2.9997
-8 10 7 74.9847 -1.1550
-6 10 7 -24.3063 -0.4985
-4 10 7 112.5789 -3.6690
-2 10 7 -54.5636 -1.3504
0 10 7 -4.0967 3.2919
2 10 7 55.6913 -0.4542
4 10 7 13.4437 -8.2662
6 10 7 -63.3714 -5.0651
8 10 7 6.1668 3.4072
10 10 7 80.7218 2.3544
12 10 7 -22.2420 -2.4264
14 10 7 40.5085 -0.1481
16 10 7 15.0824 2.5525
18 10 7 13.2665 -1.0966
20 10 7 4.6013 -1.9052
22 10 7 -4.6831 2.8719
24 10 7 4.9353 3.3268
26 10 7 -0.5575 -1.5230
28 10 7 -10.7344 -2.1596
30 10 7 -3.1688 0.8548
32 10 7 1.9476 1.2556
34 10 7 9.7939 -0.1680
-35 11 7 -1.6232 -1.2721
-33 11 7 -13.9505 -0.8866
-31 11 7 -2.5680 0.6533
-29 11 7 -18.6534 1.2866
-27 11 7 -11.3816 -1.9714
-25 11 7 12.2785 -0.8783
-23 11 7 1.7478 3.3105
-21 11 7 -15.5203 2.0311
-19 11 7 -10.8874 -4.3099
-17 11 7 40.0008 -3.4659
-13 11 7 8.7091 2.7649
-11 11 7 19.2833 -3.6482
-9 11 7 -25.5160 -2.5426
-7 11 7 -48.5415 2.5595
-5 11 7 -4.5950 0.8859
-3 11 7 -44.5063 -3.0801
-1 11 7 40.3018 1.6235
1 11 7 -75.9080 6.0996
3 11 7 128.1985 -0.3036
5 11 7 -61.9757 -6.2791
7 11 7 -85.7865 0.2115
9 11 7 25.4127 7.4311
11 11 7 4.1660 0.6701
13 11 7 -0.3185 -5.4413
15 11 7 -15.5708 -1.1240
17 11 7 26.0718 2.3055
19 11 7 -9.4277 -1.2482
21 11 7 -0.2617 -1.4335
23 11 7 -8.6905 2.5285
25 11 7 -1.8656 0.7490
27 11 7 -10.7613 -3.7744
29 11 7 -1.1331 -2.4404
31 11 7 3.8633 2.8975
33 11 7 -15.0002 2.2832
-34 12 7 -2.8687 -1.1722
-32 12 7 -10.9453 -0.3168
-30 12 7 0.7288 1.8956
-28 12 7 10.0511 -1.9405
-26 12 7 -4.3682 -2.1957
-24 12 7 2.9539 2.3752
-22 12 7 13.0043 2.8394
-20 12 7 2.1767 -2.5034
-18 12 7 21.3293 -2.6435
-16 12 7 7.0218 4.1691
-14 12 7 -6.0726 5.1601
-12 12 7 -3.9991 -1.1996
-10 12 7 -104.5973 -1.4967
-8 12 7 -4.1228 4.0086
-6 12 7 -11.1474 2.3058
-4 12 7 1.4344 -4.3150
-2 12 7 -23.1435 -3.1860
0 12 7 -45.8849 2.3685
2 12 7 -12.3300 1.9265
4 12 7 -28.8991 -4.8975
6 12 7 28.6782 -4.7490
8 12 7 41.1145 1.7281
10 12 7 -0.6159 2.0306
12 12 7 -7.0976 -2.1536
14 12 7 28.1121 -1.4575
16 12 7 -11.1350 3.1482
18 12 7 12.4952 1.9085
20 12 7 13.1770 -2.5713
22 12 7 9.9722 -1.5370
24 12 7 8.2667 3.1296
26 12 7 -18.3961 1.8537
28 12 7 5.0108 -1.8954
30 12 7 -5.5087 -1.8757
32 12 7 -9.9258 1.8432
34 12 7 8.5916 1.7139
-33 13 7 5.3020 1.3963
-31 13 7 2.4782 -0.0474
-29 13 7 -9.0904 -1.7777
-27 13 7 1.8950 0.4453
-25 13 7 -1.9020 2.8480
-23 13 7 -13.5831 1.3238
-21 13 7 23.8405 -1.9330
-19 13 7 -3.2563 -2.1810
-17 13 7 8.9456 -0.2267
-15 13 7 -19.9083 0.3335
-13 13 7 -36.5099 0.7466
-11 13 7 15.6937 1.1355
-9 13 7 13.4735 -0.7904
-7 13 7 -44.9409 -2.9869
-5 13 7 25.1278 -1.0221
-3 13 7 -55.7436 3.0264
-1 13 7 22.9628 2.9443
1 13 7 -17.8780 -1.0760
3 13 7 24.0245 -1.5094
5 13 7 -26.4187 0.2119
7 13 7 4.4748 -0.5413
9 13 7 21.3898 0.6177
11 13 7 51.6850 2.1491
13 13 7 23.6674 0.4579
15 13 7 8.2228 -2.6943
17 13 7 7.1370 -1.6152
19 13 7 -14.7719 1.9180
21 13 7 -22.9426 2.2705
23 13 7 -9.7898 -0.7067
25 13 7 6.4636 -1.2846
27 13 7 -4.9373 -0.0518
29 13 7 27.5730 0.0042
31 13 7 5.2210 -0.8577
33 13 7 2.6024 -0.8198
-34 14 7 -6.7241 1.4475
-32 14 7 0.9464 -0.1480
-30 14 7 5.5552 -1.2634
-28 14 7 -9.5175 -0.4980
-26 14 7 2.0253 1.0523
-24 14 7 9.4579 -0.3239
-22 14 7 -5.4230 -1.4967
-20 14 7 -20.7230 0.6289
-18 14 7 13.1197 2.6295
-16 14 7 -3.7954 -0.0002
-14 14 7 9.6736 -2.7782
-12 14 7 30.3833 -0.7347
-10 14 7 -27.2583 2.5325
-8 14 7 47.5225 1.9156
-6 14 7 4.8198 -0.6386
-4 14 7 -25.5997 -0.9602
-2 14 7 -35.9033 0.8337
0 14 7 -64.7690 -0.9943
2 14 7 120.2013 -2.8652
4 14 7 -35.4574 0.8392
6 14 7 -8.4656 3.4378
8 14 7 61.5430 -0.7824
10 14 7 -28.0978 -4.2705
12 14 7 -27.3758 -0.5914
14 14 7 23.5809 2.5887
16 14 7 -25.7962 0.7699
18 14 7 -7.5989 -1.3905
20 14 7 -22.1571 0.1082
22 14 7 -1.2792 -0.0207
24 14 7 -1.3486 -1.4724
26 14 7 6.8483 -1.1086
28 14 7 -8.4662 1.3707
30 14 7 -14.1817 1.1756
32 14 7 -2.1669 -0.5493
-33 15 7 -0.5952 -1.2565
-31 15 7 -2.2815 -1.9712
-29 15 7 17.8501 -0.1329
-27 15 7 1.3399 0.9993
-25 15 7 -12.4872 -0.6731
-23 15 7 -2.6434 -1.4425
-21 15 7 17.9589 -0.7437
-19 15 7 -3.1165 0.0411
-17 15 7 -12.2435 -0.4000
-15 15 7 25.7428 0.1003
-13 15 7 -23.0324 0.5804
-11 15 7 -14.3653 -0.2860
-9 15 7 -16.8517 -1.2421
-7 15 7 -56.7342 -0.0082
-5 15 7 20.3023 0.9946
-3 15 7 -40.5585 0.4850
-1 15 7 47.2524 0.1803
1 15 7 42.7419 0.3443
3 15 7 36.3269 0.0972
5 15 7 10.4314 0.0812
7 15 7 36.7831 1.1123
9 15 7 -21.3406 0.5170
11 15 7 4.5867 -0.8969
13 15 7 -28.1462 0.2229
15 15 7 -17.9511 1.4318
17 15 7 4.3056 0.5699
19 15 7 4.8652 -1.1131
21 15 7 -17.6351 0.0492
23 15 7 15.6771 0.6636
25 15 7 5.1478 -0.2777
27 15 7 -23.6814 0.0349
29 15 7 2.0727 0.8435
31 15 7 1.9115 0.6486
33 15 7 -1.4192 -2.3236
-32 16 7 -8.0195 -0.5190
-30 16 7 -4.6878 1.2748
-28 16 7 -14.5158 0.2002
-26 16 7 6.4937 -1.2300
-24 16 7 -2.9865 0.6529
-22 16 7 -1.7827 2.1888
-20 16 7 7.2630 -0.1697
-18 16 7 13.7822 -1.7003
-16 16 7 28.2701 0.5665
-14 16 7 23.7819 1.1990
-12 16 7 -52.0497 -1.4420
-10 16 7 -9.9887 -1.6269
-8 16 7 -20.0523 2.2221
-6 16 7 -5.2213 2.7417
-4 16 7 12.7200 -1.6228
-2 16 7 20.0718 -2.2522
0 16 7 -15.5146 1.5404
2 16 7 43.7038 1.5162
4 16 7 -25.5065 -1.0467
6 16 7 -3.2464 -0.4242
8 16 7 14.4512 1.8155
10 16 7 -5.1399 0.0162
12 16 7 -19.8442 -2.6078
14 16 7 45.3204 -0.8599
16 16 7 -0.8837 1.9608
18 16 7 -4.7938 1.0853
20 16 7 2.9652 -1.0877
22 16 7 -13.7178 -1.0993
24 16 7 -33.0294 0.4046
26 16 7 2.0200 0.0762
28 16 7 -2.7422 -0.5411
30 16 7 -11.2280 0.0577
32 16 7 -3.8308 1.5021
-31 17 7 -13.7352 2.6313
-29 17 7 -2.6591 -0.3225
-27 17 7 -12.7137 -1.8985
-25 17 7 -8.9494 -0.1484
-23 17 7 -15.1343 0.7920
-21 17 7 -7.4999 -1.3748
-19 17 7 2.5375 -1.1653
-17 17 7 -21.3358 0.9285
-15 17 7 -0.3447 0.0219
-13 17 7 22.5817 -2.5274
-11 17 7 -10.3317 -1.4407
-9 17 7 7.9835 1.5360
-7 17 7 -13.9863 1.7929
-5 17 7 -18.8510 0.0668
-3 17 7 -29.0137 -0.9434
-1 17 7 3.2097 0.0434
1 17 7 24.6648 1.6254
3 17 7 31.6359 1.2069
5 17 7 4.6619 0.4666
7 17 7 6.6421 0.7368
9 17 7 30.5868 0.4230
11 17 7 -29.6384 -1.0290
13 17 7 2.6332 -0.6003
15 17 7 20.0015 0.6778
17 17 7 -11.4816 0.7440
19 17 7 -1.8073 -0.4670
21 17 7 -5.8018 -1.0961
23 17 7 4.8549 -1.2779
25 17 7 -1.5388 0.3236
27 17 7 -6.4652 0.8810
29 17 7 -28.7599 0.0190
31 17 7 8.5260 -0.1721
-32 18 7 -4.3771 0.3743
-30 18 7 -9.3475 -1.1179
-28 18 7 -7.6973 -0.6514
-26 18 7 0.6930 0.8618
-24 18 7 -10.7428 0.3723
-22 18 7 6.9830 -1.0464
-20 18 7 5.5386 -0.0045
-18 18 7 51.5541 0.8828
-16 18 7 40.4302 -0.6130
-14 18 7 13.9119 -0.9499
-12 18 7 -31.5755 1.1227
-10 18 7 15.9366 1.1334
-8 18 7 -20.9289 -0.9566
-6 18 7 -19.7785 -1.3154
-4 18 7 -21.6284 0.5905
-2 18 7 -39.7974 1.6821
0 18 7 19.7343 0.1147
2 18 7 -5.9384 -1.0148
4 18 7 -11.4413 -0.1310
6 18 7 -2.4818 0.4535
8 18 7 -5.0058 -0.1222
10 18 7 12.1828 0.0108
12 18 7 -13.4795 0.5923
14 18 7 -6.3164 0.2331
16 18 7 -4.0651 -0.7727
18 18 7 -17.6957 -0.1460
20 18 7 7.0460 1.2084
22 18 7 -1.2847 0.8060
24 18 7 -21.5645 -0.9176
26 18 7 -8.9062 0.1139
28 18 7 -8.5270 0.9432
30 18 7 -12.6778 0.1481
-31 19 7 -19.2387 -1.3469
-29 19 7 0.1326 -0.6276
-27 19 7 11.6633 1.1557
-25 19 7 11.1757 -0.0132
-23 19 7 15.0088 -1.3239
-21 19 7 9.6983 0.1860
-19 19 7 -4.2627 1.9205
-17 19 7 -11.6150 -0.4097
-15 19 7 -3.1752 -2.2170
-13 19 7 16.1800 -0.6021
-11 19 7 -21.4174 1.4080
-9 19 7 -24.3438 -0.0542
-7 19 7 4.5727 -1.2473
-5 19 7 -16.5330 -0.3024
-3 19 7 -30.3175 0.5351
-1 19 7 3.7493 0.5440
1 19 7 15.3321 -0.1953
3 19 7 -1.2316 0.1364
5 19 7 1.4210 1.6761
7 19 7 24.7137 0.2978
9 19 7 15.7237 -1.5175
11 19 7 -22.9007 -0.1455
13 19 7 17.4093 1.6465
15 19 7 -4.0143 -0.0313
17 19 7 4.5709 -1.3433
19 19 7 13.2732 -0.7008
21 19 7 -5.7865 1.0841
23 19 7 -4.2983 0.0258
25 19 7 -7.4607 -0.6690
27 19 7 12.0069 -0.5397
29 19 7 -0.5124 1.1721
31 19 7 2.3435 -1.0791
-30 20 7 -2.5045 -0.9776
-28 20 7 12.4724 1.1345
-26 20 7 -1.4290 -1.0972
-24 20 7 -1.9694 -1.2684
-22 20 7 10.3084 1.0423
-20 20 7 -13.9911 1.0307
-18 20 7 21.3652 -1.5579
-16 20 7 -6.5669 -1.4607
-14 20 7 -15.7482 1.6232
-12 20 7 7.3949 1.3238
-10 20 7 34.8169 -0.9595
-8 20 7 -12.1241 -0.7747
-6 20 7 13.0006 1.1309
-4 20 7 -3.6376 0.4316
-2 20 7 -30.5930 -1.1301
0 20 7 -3.0449 0.4149
2 20 7 -14.1013 1.5542
4 20 7 -0.8074 -0.8663
6 20 7 13.8109 -2.1215
8 20 7 -21.2379 0.3708
10 20 7 -23.1918 1.0819
12 20 7 8.2173 -0.6754
14 20 7 16.8945 -1.0375
16 20 7 -11.1587 0.1920
18 20 7 16.1096 -0.0456
20 20 7 4.4024 -0.8213
22 20 7 3.6147 0.5870
24 20 7 6.8763 1.2076
26 20 7 2.8351 0.6808
28 20 7 -5.8284 -1.0718
30 20 7 0.2082 0.0384
-29 21 7 -1.7319 0.6932
-27 21 7 20.1869 -1.0186
-25 21 7 -4.2361 0.0056
-23 21 7 -9.4459 1.7487
-21 21 7 -0.6992 0.5085
-19 21 7 -24.6715 -1.4461
-17 21 7 -10.4306 -0.2467
-15 21 7 -13.3931 0.9615
-13 21 7 -4.6046 -0.1687
-11 21 7 1.8502 -1.1327
-9 21 7 7.2459 0.1148
-7 21 7 -0.7019 1.8585
-5 21 7 -3.9109 -0.2814
-3 21 7 12.4282 -2.3889
-1 21 7 -15.9297 0.0038
1 21 7 32.6205 2.1164
3 21 7 14.5805 0.1298
5 21 7 -18.8330 -1.8572
7 21 7 11.6792 -0.5337
9 21 7 -23.7993 0.6782
11 21 7 -3.5131 0.1112
13 21 7 -14.3289 -0.6132
15 21 7 -13.3934 0.0270
17 21 7 -0.2642 0.9420
19 21 7 -2.1693 -0.5500
21 21 7 11.7684 -0.8121
23 21 7 15.9742 0.3375
25 21 7 -11.3155 1.8167
27 21 7 5.4889 -0.3441
29 21 7 -11.7732 -0.3168
-28 22 7 19.7353 -0.1220
-26 22 7 -10.6784 -0.4028
-24 22 7 15.2848 1.0172
-22 22 7 -10.3434 0.1597
-20 22 7 8.9373 -0.2408
-18 22 7 -1.5512 0.1785
-16 22 7 -15.0409 0.6729
-14 22 7 0.5203 -0.0067
-12 22 7 17.2247 -0.1747
-10 22 7 29.3207 -0.0244
-8 22 7 16.3349 0.3031
-6 22 7 8.4811 0.5934
-4 22 7 -37.4015 -0.2513
-2 22 7 -5.5184 -1.4324
0 22 7 -12.3258 -0.3191
2 22 7 -13.5881 1.4188
4 22 7 -1.3468 0.0180
6 22 7 7.6659 -1.5036
8 22 7 16.8461 -0.0812
10 22 7 -4.3959 0.6364
12 22 7 -1.9588 -0.4753
14 22 7 12.3785 -0.8758
16 22 7 -15.3282 0.4227
18 22 7 6.6738 0.7914
20 22 7 17.8646 -1.2780
22 22 7 -0.2350 -0.7705
24 22 7 11.2128 1.1403
26 22 7 3.7272 1.1575
28 22 7 -0.2093 -0.4682
-29 23 7 -1.3833 -0.4460
-27 23 7 23.6102 0.6784
-25 23 7 -0.6004 1.5159
-23 23 7 5.2809 -0.7531
-21 23 7 12.8094 -1.2333
-19 23 7 -4.6014 1.2185
-17 23 7 -8.4534 1.0972
-15 23 7 4.6331 -1.3828
-13 23 7 -18.8414 -1.1164
-11 23 7 0.8148 1.1423
-9 23 7 1.6504 0.5994
-7 23 7 8.9107 -1.4621
-5 23 7 6.5136 -0.3177
-3 23 7 2.7468 1.1373
-1 23 7 -11.2695 -0.5835
1 23 7 28.7547 -1.6130
3 23 7 -9.5475 0.2869
5 23 7 0.8868 1.2680
7 23 7 0.9944 -0.2857
9 23 7 1.2878 -1.0263
11 23 7 15.0703 0.3110
13 23 7 12.1280 0.9508
15 23 7 -2.9430 -0.4763
17 23 7 -15.0320 -0.4325
19 23 7 -16.4417 0.7685
21 23 7 -8.0413 0.5437
23 23 7 17.8190 -0.7849
25 23 7 5.3751 -0.0168
27 23 7 5.3885 0.2371
-28 24 7 -2.5508 1.0450
-26 24 7 -10.6140 1.1670
-24 24 7 8.1375 -1.4896
-22 24 7 -11.8181 -1.1607
-20 24 7 14.0572 1.2909
-18 24 7 0.8038 1.5636
-16 24 7 9.9903 -0.5175
-14 24 7 5.5658 -0.6515
-12 24 7 17.8342 0.8764
-10 24 7 -7.3535 0.1951
-8 24 7 -7.3509 -1.0642
-6 24 7 14.2206 -0.0809
-4 24 7 -12.1808 1.4440
-2 24 7 -9.5186 0.2384
0 24 7 -12.3847 -2.0894
2 24 7 -40.6224 -0.9983
4 24 7 9.5147 1.4505
6 24 7 -0.7275 0.4608
8 24 7 -8.3329 -1.6096
10 24 7 -1.3813 -0.9901
12 24 7 -2.5438 1.1157
14 24 7 -6.6329 0.7830
16 24 7 -6.1130 -0.5155
18 24 7 -23.2552 -0.4735
20 24 7 1.4285 0.3474
22 24 7 7.3733 0.4896
24 24 7 -2.5575 -0.2746
26 24 7 0.0226 -0.2849
-27 25 7 9.9255 0.6172
-25 25 7 2.3654 0.8546
-23 25 7 -2.2299 -0.4484
-21 25 7 -2.3562 -0.3401
-19 25 7 -8.7572 0.3682
-17 25 7 -10.1190 0.0502
-15 25 7 -10.8159 -0.3053
-13 25 7 2.1615 0.1275
-11 25 7 1.9615 0.4319
-9 25 7 4.9337 -0.3834
-7 25 7 -0.7595 -0.2199
-5 25 7 15.9137 0.5584
-3 25 7 -23.9091 0.4691
-1 25 7 -20.2577 -0.4534
1 25 7 7.6022 -1.0266
3 25 7 -21.8630 -0.4337
5 25 7 12.4537 0.3958
7 25 7 24.0998 0.6745
9 25 7 -15.2934 -0.0454
11 25 7 -14.1469 -0.5841
13 25 7 23.9896 -0.4634
15 25 7 -5.8530 -0.0499
17 25 7 -8.8646 0.1378
19 25 7 -0.5303 0.0928
21 25 7 3.6622 0.4594
23 25 7 -5.5384 0.3095
25 25 7 -4.5432 0.1599
-26 26 7 9.4814 0.2081
-24 26 7 15.8362 -0.1442
-22 26 7 9.4935 0.3043
-20 26 7 19.4892 0.0166
-18 26 7 -9.3141 -0.3718
-16 26 7 12.5162 0.2104
-14 26 7 -5.1247 0.8891
-12 26 7 2.1237 -0.2746
-10 26 7 -14.7147 -1.0867
-8 26 7 -27.3392 -0.0186
-6 26 7 -1.0812 1.0407
-4 26 7 -3.5368 0.3754
-2 26 7 9.7739 -0.5371
0 26 7 23.9889 0.0799
2 26 7 -20.1873 0.1348
4 26 7 15.6711 -0.4679
6 26 7 17.5435 -0.2883
8 26 7 15.9924 0.9469
10 26 7 -2.4700 0.7657
12 26 7 -5.7466 -0.3731
14 26 7 -14.6486 -0.7320
16 26 7 -8.1290 0.1807
18 26 7 8.1148 0.6993
20 26 7 -15.7941 -0.1106
22 26 7 -8.3622 -0.5047
24 26 7 -4.1740 0.7543
-25 27 7 -3.2161 0.9707
-23 27 7 0.5034 0.2772
-21 27 7 -9.3979 -0.4525
-19 27 7 8.7382 -0.6062
-17 27 7 1.9275 0.4815
-15 27 7 -18.4888 0.3479
-13 27 7 -5.9617 0.0356
-11 27 7 -3.4164 0.0390
-9 27 7 -0.1551 -0.1234
-7 27 7 -7.0444 -0.4183
-5 27 7 25.6828 -0.1995
-3 27 7 -16.7354 0.3213
-1 27 7 -0.3679 0.4731
1 27 7 0.4266 0.2463
3 27 7 -0.8121 -0.0780
5 27 7 6.2085 -0.5852
7 27 7 7.4048 -0.0046
9 27 7 -5.0002 0.9082
11 27 7 12.6630 0.8900
13 27 7 5.1880 -0.2395
15 27 7 -1.5576 -0.4059
17 27 7 -3.7103 0.3512
19 27 7 -7.7176 0.4164
21 27 7 0.6444 -0.3263
23 27 7 7.7553 -0.3061
-24 28 7 6.0274 0.0269
-22 28 7 -4.1332 -0.2464
-20 28 7 -7.4318 0.1955
-18 28 7 -13.7610 -0.0911
-16 28 7 -3.2362 -0.6441
-14 28 7 -12.6255 -0.6300
-12 28 7 -1.4309 0.4159
-10 28 7 -0.7781 0.5521
-8 28 7 19.9668 -0.5000
-6 28 7 4.1432 -0.5505
-4 28 7 7.7823 0.5478
-2 28 7 4.5279 0.7302
0 28 7 27.8978 -0.4351
2 28 7 10.8219 -0.4775
4 28 7 -18.1270 0.3923
6 28 7 6.6475 0.3290
8 28 7 12.9969 0.0060
10 28 7 -14.6541 0.2787
12 28 7 0.0649 0.5588
14 28 7 -7.6296 -0.1092
16 28 7 -3.0639 -0.9528
18 28 7 -4.2455 0.2363
20 28 7 -0.9236 1.0562
22 28 7 -7.4236 0.6978
-23 29 7 6.4694 -1.3227
-21 29 7 -9.4328 -0.4373
-19 29 7 15.2130 0.4693
-17 29 7 -7.7113 -0.1694
-15 29 7 0.2751 -0.9508
-13 29 7 -2.5026 0.4534
-11 29 7 -2.2529 1.0457
-9 29 7 -10.2809 -0.5305
-7 29 7 -1.4887 -1.2550
-5 29 7 9.2685 0.4192
-3 29 7 -34.4866 1.5682
-1 29 7 6.2492 0.4742
1 29 7 -15.0841 -0.6498
3 29 7 -8.4528 0.0699
5 29 7 7.8992 0.6097
7 29 7 10.2139 -0.1842
9 29 7 -11.7766 -0.3242
11 29 7 0.8031 0.3610
13 29 7 -7.8294 0.8162
15 29 7 4.7700 -0.1228
17 29 7 -6.8625 -1.0079
19 29 7 11.2577 -0.5699
21 29 7 -3.7437 0.5259
-22 30 7 2.7188 1.0946
-20 30 7 2.7694 0.3764
-18 30 7 9.7955 -0.8412
-16 30 7 2.7409 -1.2576
-14 30 7 -1.3873 0.4956
-12 30 7 8.5466 0.6781
-10 30 7 -13.9707 -0.1131
-8 30 7 8.8641 -0.2505
-6 30 7 -0.0725 0.3050
-4 30 7 2.1998 0.3850
-2 30 7 -14.7003 0.0065
0 30 7 -6.7952 0.0350
2 30 7 -3.4207 -0.0139
4 30 7 -12.9618 0.0075
6 30 7 -6.2063 0.1831
8 30 7 1.8433 0.1930
10 30 7 8.7948 -0.0517
12 30 7 -2.6166 -0.3101
14 30 7 -2.3395 -0.2388
16 30 7 6.4485 0.1010
18 30 7 -0.0415 0.6377
20 30 7 17.3879 -0.8407
-19 31 7 16.1533 -1.1337
-17 31 7 19.8605 -0.2563
-15 31 7 0.8668 0.3098
-13 31 7 -8.3388 -0.0723
-11 31 7 10.1654 -0.5551
-9 31 7 -10.7362 0.0740
-7 31 7 -9.0712 0.7613
-5 31 7 23.6780 0.5035
-3 31 7 -5.1143 -0.2722
-1 31 7 16.5825 -0.7197
1 31 7 -1.7017 0.3325
3 31 7 -8.9608 1.0522
5 31 7 -12.7367 0.1988
7 31 7 26.6616 -0.5889
9 31 7 -11.6127 0.1746
11 31 7 -1.6190 0.2253
13 31 7 0.9866 -0.5427
15 31 7 0.4506 -0.2748
17 31 7 -2.5424 1.8321
19 31 7 -5.5336 0.1822
-18 32 7 -2.4831 -0.2248
-16 32 7 -4.9259 1.1192
-14 32 7 -1.3734 -0.5761
-12 32 7 5.1819 -0.1790
-10 32 7 -16.2984 0.4043
-8 32 7 11.7991 0.4320
-6 32 7 -5.7455 -0.0859
-4 32 7 12.0731 -0.2295
-2 32 7 -7.1745 0.1798
0 32 7 -1.7157 -0.0535
2 32 7 -9.1799 -0.0484
4 32 7 5.4015 0.1979
6 32 7 9.2044 -0.3988
8 32 7 2.7326 -0.8723
10 32 7 10.5110 -0.1614
12 32 7 -3.5146 0.1628
14 32 7 -5.8132 -0.3540
16 32 7 -9.1604 -0.1618
18 32 7 2.9219 0.6227
-17 33 7 11.9957 0.3668
-15 33 7 3.0625 -1.4281
-13 33 7 -3.0968 -1.3239
-11 33 7 15.3487 0.9405
-9 33 7 -8.6374 0.6374
-7 33 7 -6.1696 -1.1333
-5 33 7 0.9963 -0.3624
-3 33 7 -12.2470 0.7086
-1 33 7 25.6266 -0.4436
1 33 7 1.0245 -1.3230
3 33 7 26.3018 0.2024
5 33 7 -3.3374 1.5351
7 33 7 3.6035 -0.1311
9 33 7 3.7339 -1.4248
11 33 7 3.9277 -0.1083
13 33 7 -1.9856 0.9885
15 33 7 -2.3764 -0.3309
-14 34 7 4.5963 -1.6163
-12 34 7 -9.4008 0.9489
-10 34 7 -6.9016 1.2295
-8 34 7 8.6836 -0.9144
-6 34 7 -12.6489 -1.1225
-4 34 7 1.3113 0.8819
-2 34 7 -12.3361 0.9921
0 34 7 -14.4963 -0.9220
2 34 7 -7.8881 -0.8820
4 34 7 -2.8851 0.8564
6 34 7 2.7361 0.2375
8 34 7 -6.2586 -1.2433
10 34 7 6.1660 -1.7067
12 34 7 -3.1206 0.8127
14 34 7 7.6142 1.4342
-11 35 7 -4.3660 1.3473
-9 35 7 -4.5822 -0.2438
-7 35 7 -15.2670 -0.8392
-5 35 7 3.7020 -0.1229
-3 35 7 -16.6129 0.4117
-1 35 7 -0.5406 -0.6379
1 35 7 -30.7544 -0.7813
3 35 7 9.5066 0.2461
5 35 7 3.6744 0.6402
7 35 7 3.2778 -0.0390
9 35 7 12.3296 -0.4867
11 35 7 10.8164 0.0153
-8 36 7 0.5928 -0.3170
-6 36 7 5.4189 0.5456
-4 36 7 4.7258 -0.4733
-2 36 7 7.5439 -0.2763
0 36 7 -1.7657 0.3694
2 36 7 4.8031 0.5416
4 36 7 7.8591 -0.3192
6 36 7 19.4278 -1.0971
8 36 7 0.2721 -0.2930
-3 37 7 5.5525 -0.9498
-1 37 7 12.3138 -0.3279
1 37 7 -1.3514 0.8591
3 37 7 12.3902 0.5457
-36 0 8 -12.1473 -2.5742
-34 0 8 -23.9389 8.8607
-32 0 8 -14.8391 5.0784
-30 0 8 19.0229 -13.4609
-28 0 8 2.2996 -9.1892
-26 0 8 11.3392 13.8356
-24 0 8 16.7470 10.8663
-22 0 8 -10.2045 -8.6482
-20 0 8 -47.2496 7.1284
-18 0 8 -14.7039 27.4204
-16 0 8 -35.9816 -5.1652
-14 0 8 6.1072 -22.7669
-12 0 8 122.5070 33.1337
-10 0 8 47.2891 55.8359
-8 0 8 121.1731 -16.0197
-6 0 8 26.0846 -54.4527
-4 0 8 156.4194 -1.9786
-2 0 8 -342.7383 14.2275
0 0 8 166.1078 -42.0090
4 0 8 280.9492 9.1530
6 0 8 -74.4182 -7.3025
8 0 8 -125.9347 -59.4012
10 0 8 -91.5467 -22.0624
12 0 8 -106.8539 47.4003
14 0 8 33.0552 25.3323
16 0 8 20.0260 -25.0828
18 0 8 -31.6451 -6.2242
20 0 8 38.0263 25.5147
22 0 8 5.9773 8.5448
24 0 8 -2.6554 -8.1321
26 0 8 5.5670 7.2838
28 0 8 -23.3777 11.5024
30 0 8 7.4239 -7.4624
34 0 8 -18.7275 4.2038
36 0 8 -13.7368 8.2440
-35 1 8 15.6638 0.9980
-33 1 8 5.5916 3.4911
-31 1 8 -12.6796 -3.4129
-29 1 8 -8.7513 -4.9388
-27 1 8 1.7330 6.6937
-25 1 8 11.3289 8.5734
-23 1 8 18.2782 -9.0712
-21 1 8 11.4196 -10.4417
-19 1 8 7.6472 11.2538
-17 1 8 -34.6722 16.2461
-15 1 8 17.8656 -5.3115
-13 1 8 -44.2563 -9.6355
-11 1 8 -84.1263 8.7886
-9 1 8 -69.9809 7.5195
-7 1 8 -134.7608 -11.6481
-5 1 8 124.0956 -3.8581
-3 1 8 153.4130 16.8255
-1 1 8 108.8393 -2.5544
1 1 8 9.4229 -32.1841
3 1 8 106.8433 -11.9224
5 1 8 -102.5007 18.5853
7 1 8 -18.1839 2.6275
9 1 8 65.9463 -22.7424
11 1 8 17.0763 -8.8123
13 1 8 3.3029 9.1576
15 1 8 -30.5442 -3.1565
17 1 8 -13.6624 -8.5638
19 1 8 -11.3832 9.4139
21 1 8 -5.9966 12.8213
23 1 8 3.7638 -8.0611
25 1 8 15.7390 -11.7972
27 1 8 6.4800 7.4170
29 1 8 19.1447 12.2497
31 1 8 -12.0708 -1.9877
33 1 8 4.1774 -6.4510
35 1 8 -11.7931 0.8217
-36 2 8 -12.2154 -0.6519
-34 2 8 4.4080 1.3536
-32 2 8 2.2630 0.6240
-30 2 8 14.6185 -1.3744
-28 2 8 -5.4136 -0.2408
-26 2 8 2.1876 1.4767
-24 2 8 -1.2811 -0.6965
-22 2 8 -30.8719 -2.9394
-20 2 8 -9.8271 -0.0969
-18 2 8 5.0795 4.2446
-16 2 8 -13.2329 2.9915
-14 2 8 8.3647 1.3977
-12 2 8 26.0293 4.2924
-10 2 8 41.5154 3.9067
-8 2 8 44.6614 -1.5714
-6 2 8 -13.2570 -1.1502
-4 2 8 309.3162 3.8684
-2 2 8 72.1152 -0.5652
0 2 8 -141.7879 -7.7013
2 2 8 -109.4103 -6.8836
4 2 8 83.2033 -5.7316
6 2 8 -58.4010 -5.6740
8 2 8 28.0275 -1.4851
10 2 8 51.3920 2.8094
12 2 8 -3.4260 0.2475
14 2 8 -4.3928 -3.5905
16 2 8 1.5253 -0.9727
18 2 8 -15.4531 2.9559
20 2 8 -24.0636 2.2037
22 2 8 7.5155 0.6712
24 2 8 -11.0378 1.3078
26 2 8 15.6024 -0.3719
28 2 8 10.9155 -2.4587
30 2 8 1.7673 -0.6651
32 2 8 14.5981 2.4493
34 2 8 -5.9976 1.8590
36 2 8 -2.4015 -1.8149
-35 3 8 5.6517 -2.0752
-33 3 8 -5.8249 -0.7994
-31 3 8 6.4790 -1.9871
-29 3 8 -5.7195 -0.6667
-27 3 8 7.4102 3.3205
-25 3 8 -1.0019 3.7569
-23 3 8 1.9185 -1.2043
-21 3 8 -8.2890 -3.0628
-19 3 8 -56.0776 2.0336
-17 3 8 2.9762 4.4073
-15 3 8 -17.0857 -0.6368
-13 3 8 18.2826 -1.6763
-11 3 8 20.2625 1.1418
-7 3 8 14.2731 -4.9260
-5 3 8 100.5884 2.2225
-3 3 8 -67.1885 3.9834
-1 3 8 -63.5196 -6.2264
1 3 8 218.4587 -9.7844
3 3 8 80.8116 0.8750
5 3 8 -125.6588 8.1906
7 3 8 -3.4407 -0.1606
9 3 8 -39.6094 -6.2999
11 3 8 24.2828 -0.5543
13 3 8 -47.4032 1.2844
15 3 8 68.7231 -1.7763
17 3 8 -33.6122 2.7121
19 3 8 28.7679 6.3031
21 3 8 16.5859 -0.8960
23 3 8 -2.8736 -6.7824
25 3 8 3.3192 -1.0801
27 3 8 -13.9384 5.4508
29 3 8 6.0462 2.8182
31 3 8 -4.6633 -1.3354
33 3 8 7.2790 -2.2077
35 3 8 -3.6241 -0.5648
-36 4 8 -9.1544 0.1670
-34 4 8 15.7974 0.2664
-32 4 8 2.8202 0.6897
-30 4 8 -12.4764 -0.9166
-28 4 8 2.2356 0.6038
-26 4 8 -3.6118 2.9645
-24 4 8 -13.4604 -2.1108
-22 4 8 -33.2678 -7.0912
-20 4 8 0.5450 -0.3221
-18 4 8 -26.4399 8.2937
-16 4 8 -20.5613 2.1294
-14 4 8 -36.9201 -6.3147
-12 4 8 0.3449 -0.9459
-10 4 8 9.1642 4.3162
-8 4 8 -28.5015 -1.6639
-6 4 8 -21.5144 -1.0594
-4 4 8 47.7215 11.8439
-2 4 8 -83.6898 6.9441
0 4 8 -296.5898 -12.5864
2 4 8 -14.1309 -13.1016
4 4 8 181.6578 6.0041
6 4 8 28.6952 11.3053
8 4 8 -63.4010 -4.3901
10 4 8 28.0153 -8.2619
12 4 8 -39.2978 0.2185
14 4 8 -79.4572 -1.1264
16 4 8 8.3664 -5.2585
18 4 8 8.0790 2.5682
20 4 8 -33.7130 8.1104
22 4 8 12.6612 0.3131
24 4 8 -1.8760 -6.4981
26 4 8 -4.4962 -1.5305
28 4 8 17.1725 4.5016
30 4 8 -8.7475 1.6916
32 4 8 4.6559 -0.7538
34 4 8 -0.0271 -0.7608
-35 5 8 -10.4972 -0.1747
-33 5 8 -18.8573 1.3205
-31 5 8 11.1327 -2.2741
-29 5 8 1.8638 -2.5795
-27 5 8 15.0968 3.8835
-25 5 8 12.5244 4.5057
-23 5 8 -6.2048 -5.8044
-21 5 8 -19.7924 -7.1109
-19 5 8 -62.5105 4.0807
-17 5 8 12.8092 6.6658
-15 5 8 -2.6823 -2.6725
-13 5 8 18.9311 -2.5979
-11 5 8 -51.5025 5.2892
-9 5 8 53.1195 -0.0750
-7 5 8 -36.6032 -8.8389
-5 5 8 69.3550 1.8523
-3 5 8 -1.0266 12.6645
-1 5 8 127.4267 2.1265
1 5 8 -8.5828 -11.5988
5 5 8 -68.3963 7.5749
7 5 8 75.8494 4.4024
9 5 8 74.6685 -3.5581
11 5 8 66.5149 1.3236
13 5 8 -22.9028 5.2116
15 5 8 -9.1280 -3.6330
17 5 8 -24.6117 -6.9998
19 5 8 3.4844 4.3392
21 5 8 -13.3532 7.7208
23 5 8 -11.2701 -2.5948
25 5 8 -1.2282 -6.6559
27 5 8 12.9045 0.4161
29 5 8 6.5032 2.9791
31 5 8 -7.8728 -1.2161
33 5 8 1.7424 -1.9859
35 5 8 -0.9664 2.0456
-36 6 8 -1.5528 -0.4847
-34 6 8 -0.9119 2.2902
-32 6 8 9.5252 -1.6395
-30 6 8 -2.9292 -2.6532
-28 6 8 -0.9659 1.8736
-26 6 8 -11.0427 2.9003
-24 6 8 -2.5667 -0.6102
-22 6 8 -4.4513 -1.7625
-20 6 8 5.9656 0.2114
-18 6 8 45.4254 -0.4499
-16 6 8 26.4680 -2.4287
-14 6 8 -18.4633 -0.5657
-12 6 8 44.9353 2.9281
-10 6 8 -10.0330 1.5767
-8 6 8 -121.2104 -1.9053
-6 6 8 -20.9492 -1.2070
-4 6 8 55.9102 1.9168
-2 6 8 -57.0525 4.0727
0 6 8 -14.9821 2.5904
2 6 8 28.5125 -0.2395
4 6 8 -33.0466 2.2990
6 6 8 7.8442 2.4278
8 6 8 -37.3480 -2.6973
10 6 8 -87.8828 -3.9176
12 6 8 -8.2701 0.7436
14 6 8 6.3829 2.6492
16 6 8 18.6569 -1.2454
18 6 8 14.7171 -3.1257
20 6 8 11.5897 -0.0667
22 6 8 0.0630 0.9709
24 6 8 12.7739 -1.0492
26 6 8 -5.1342 -0.2321
28 6 8 1.6022 2.6025
30 6 8 -3.9848 2.1409
32 6 8 0.3625 -1.7530
34 6 8 2.7199 -1.8918
-35 7 8 -4.9779 1.0661
-33 7 8 -11.9720 -0.5296
-31 7 8 1.3949 0.6376
-29 7 8 4.3551 0.3843
-27 7 8 9.8130 -1.1340
-25 7 8 15.3285 -3.4120
-23 7 8 14.0595 -0.7693
-21 7 8 -8.9005 2.4854
-19 7 8 -33.8844 0.5501
-17 7 8 -20.1840 -2.8044
-15 7 8 -12.3957 -1.4342
-13 7 8 -11.0038 1.6143
-11 7 8 -24.1565 0.0176
-9 7 8 -1.2200 -1.5916
-7 7 8 3.3266 0.6838
-3 7 8 -79.7607 -2.9098
-1 7 8 77.9046 -2.2325
1 7 8 -56.4224 2.4292
3 7 8 117.4127 0.3597
5 7 8 30.7419 -4.2294
7 7 8 -35.6470 -1.5327
9 7 8 31.2288 3.1132
11 7 8 1.8454 2.7282
13 7 8 -18.2221 -0.1139
15 7 8 -12.8836 -0.3822
17 7 8 3.9573 0.0498
19 7 8 23.6538 -0.9191
21 7 8 -11.8223 0.2240
23 7 8 -0.5758 3.0170
25 7 8 -6.7196 1.4426
27 7 8 21.5603 -1.9105
29 7 8 10.7995 -2.2797
31 7 8 9.6659 0.6450
33 7 8 10.8681 2.0281
35 7 8 6.2508 2.5055
-36 8 8 0.1651 -1.1865
-34 8 8 -6.4002 -1.9792
-32 8 8 1.2839 -0.7530
-30 8 8 9.3859 2.3014
-28 8 8 -5.6463 0.8965
-26 8 8 -4.9858 -2.7994
-24 8 8 10.9555 0.2162
-22 8 8 -5.0973 3.7323
-20 8 8 -25.5195 -0.5998
-18 8 8 8.9408 -5.7734
-16 8 8 13.9679 -0.9822
-14 8 8 -17.7885 4.4897
-12 8 8 -36.7131 -0.6825
-10 8 8 33.4119 -5.2056
-8 8 8 0.7507 0.9342
-6 8 8 12.6664 4.9252
-4 8 8 31.1777 -1.8324
-2 8 8 0.8209 -2.0590
0 8 8 44.3943 9.1580
2 8 8 6.3464 9.0692
4 8 8 88.8214 -2.4360
6 8 8 -91.8570 -3.5332
8 8 8 83.2310 4.8697
10 8 8 -31.0398 4.9183
12 8 8 25.4644 -2.1618
14 8 8 0.0633 -1.6965
16 8 8 -9.2319 1.8149
18 8 8 10.1053 -1.4619
20 8 8 -6.0443 -5.4995
22 8 8 16.0271 -0.4843
24 8 8 8.2224 4.2446
26 8 8 9.9359 0.7206
28 8 8 -13.4834 -3.8795
30 8 8 4.1664 -1.5027
32 8 8 6.7787 1.4711
34 8 8 -0.2614 0.5326
-35 9 8 -3.3301 0.8716
-33 9 8 6.4963 1.3602
-31 9 8 8.2896 1.0459
-29 9 8 4.5111 -2.2351
-27 9 8 11.1605 -2.0101
-25 9 8 -13.4767 0.2596
-23 9 8 7.7144 2.8438
-21 9 8 5.8571 1.7396
-19 9 8 -6.3519 0.4150
-17 9 8 -5.3220 -1.9269
-15 9 8 -11.6794 -3.3200
-13 9 8 12.4484 -0.1337
-9 9 8 -35.8837 4.6366
-7 9 8 83.9668 -2.5538
-5 9 8 93.6730 -4.8766
-3 9 8 93.6839 -1.4927
-1 9 8 153.6374 0.9567
1 9 8 27.6765 1.7258
5 9 8 22.3116 -0.0369
7 9 8 -56.3797 -5.4289
9 9 8 25.7777 -4.9897
11 9 8 21.6899 2.5710
13 9 8 54.9895 5.7945
15 9 8 -2.0424 0.4126
17 9 8 -33.4761 -3.3020
19 9 8 29.0224 -0.7431
21 9 8 -7.5092 0.6244
23 9 8 13.8047 0.7344
25 9 8 6.9516 1.4171
27 9 8 3.3446 1.9636
29 9 8 -11.8423 -0.6542
31 9 8 -3.2651 -1.8264
33 9 8 -14.6262 -0.4919
35 9 8 -1.8332 1.2188
-34 10 8 -7.5314 1.2604
-32 10 8 -5.3830 1.6177
-30 10 8 2.2501 -0.5478
-28 10 8 5.0230 -1.2079
-26 10 8 -15.0168 -0.8251
-24 10 8 8.8007 -0.6043
-22 10 8 -4.9854 -0.8194
-20 10 8 -3.2171 0.0975
-18 10 8 -31.9132 0.0938
-16 10 8 7.5934 -2.4160
-14 10 8 -17.8360 -3.9557
-12 10 8 6.6709 -1.8571
-10 10 8 16.3173 1.7419
-8 10 8 9.3280 1.4824
-6 10 8 -35.7662 -1.3001
-4 10 8 -60.1080 -0.1707
-2 10 8 38.1330 1.6834
0 10 8 -51.2720 1.4064
2 10 8 31.8097 1.4423
4 10 8 49.1509 3.0298
6 10 8 -20.2483 2.3946
8 10 8 80.9431 -0.7297
10 10 8 -10.9404 -0.6673
12 10 8 -17.8247 1.2665
14 10 8 8.8812 1.4212
16 10 8 63.2510 -0.7712
18 10 8 10.0585 -1.7637
20 10 8 -25.1923 -0.3630
22 10 8 -0.0409 1.2823
24 10 8 -18.0834 -0.3033
26 10 8 -1.8878 -0.6502
28 10 8 11.8866 0.1040
30 10 8 4.3580 -0.1959
32 10 8 -8.5533 -0.3617
34 10 8 -8.5147 0.5450
-35 11 8 -2.2303 1.6463
-33 11 8 -3.6268 -0.0055
-31 11 8 -3.5456 -2.2987
-29 11 8 -15.8994 -0.2386
-27 11 8 7.3949 1.7357
-25 11 8 -31.5704 0.3379
-23 11 8 12.7829 -0.9696
-21 11 8 6.0765 1.6216
-19 11 8 -12.7787 3.0056
-17 11 8 -2.1384 -0.4251
-15 11 8 -30.4323 -2.0468
-13 11 8 1.1283 1.7184
-11 11 8 -37.3083 3.5629
-9 11 8 -18.1477 -0.1259
-7 11 8 -15.3317 -2.7655
-5 11 8 -25.0680 -0.7469
-3 11 8 -26.5103 1.4231
-1 11 8 1.9570 -0.7191
1 11 8 57.3546 -3.0164
3 11 8 -59.1517 0.5000
5 11 8 16.7648 2.7991
7 11 8 -28.2666 -1.6073
11 11 8 -26.7308 0.6242
13 11 8 33.5613 3.3568
15 11 8 -40.9082 0.0444
17 11 8 -9.5657 -2.1759
19 11 8 16.9677 0.2350
21 11 8 -29.2588 1.2833
23 11 8 12.8646 -0.5632
25 11 8 15.7785 -1.1479
27 11 8 -12.9380 1.0513
29 11 8 -10.4667 1.9593
31 11 8 8.6234 -0.6373
33 11 8 1.1278 -1.6845
-34 12 8 11.3115 0.0415
-32 12 8 17.2431 -0.5250
-30 12 8 4.2716 1.7859
-28 12 8 7.1782 0.6734
-26 12 8 2.4944 -2.2160
-24 12 8 -4.7218 -0.9162
-22 12 8 -12.8398 2.8096
-20 12 8 13.5921 0.8862
-18 12 8 14.3666 -2.6215
-16 12 8 24.4869 -0.1766
-14 12 8 15.9686 2.6337
-12 12 8 -19.5029 -1.7181
-10 12 8 -34.3045 -4.3286
-8 12 8 46.6197 0.8285
-6 12 8 -25.6983 4.2555
-4 12 8 -22.6000 -1.4073
-2 12 8 55.4967 -4.0774
0 12 8 -36.6675 1.1381
2 12 8 40.3146 2.8089
4 12 8 -52.8562 -1.9930
6 12 8 21.0989 -1.4967
8 12 8 42.8392 3.9536
10 12 8 19.9748 2.1729
12 12 8 24.7999 -3.8084
14 12 8 -9.3020 -2.6095
16 12 8 17.1193 3.2073
18 12 8 -12.5311 2.5790
20 12 8 -15.1283 -1.6816
22 12 8 7.2141 -0.7414
24 12 8 -10.3930 1.2242
26 12 8 8.5187 -0.4194
28 12 8 5.4037 -1.4979
30 12 8 -5.0308 1.1035
32 12 8 -3.4284 1.3437
34 12 8 17.9001 -0.6446
-33 13 8 -1.6024 -0.5499
-31 13 8 7.5667 1.2679
-29 13 8 7.1354 0.9683
-27 13 8 11.2561 -1.1100
-25 13 8 -17.5722 -0.5156
-23 13 8 6.5155 1.5439
-21 13 8 2.0100 0.0740
-19 13 8 -19.4291 -2.7180
-17 13 8 -22.4461 -0.1528
-15 13 8 -18.6512 3.0889
-13 13 8 20.0438 0.1606
-11 13 8 37.2026 -4.2749
-9 13 8 0.8416 -1.1967
-7 13 8 -24.2018 3.1345
-5 13 8 22.8684 0.9414
-3 13 8 81.8700 -2.6139
-1 13 8 2.6244 -0.4062
3 13 8 82.2532 -1.2905
5 13 8 9.2282 -2.2866
7 13 8 25.0051 1.0402
9 13 8 -12.5610 2.5940
11 13 8 -23.3387 -0.9634
13 13 8 14.8974 -2.9587
15 13 8 10.1045 -0.4727
17 13 8 -7.5270 2.5479
19 13 8 6.5493 0.9918
21 13 8 -20.9187 -1.4114
23 13 8 0.9396 -0.4117
25 13 8 3.2098 0.9554
27 13 8 14.7140 0.2631
29 13 8 -15.0632 -1.1398
31 13 8 6.9885 0.4744
33 13 8 -7.2144 -0.1847
-34 14 8 8.0006 -1.2130
-32 14 8 -2.3369 0.5106
-30 14 8 -5.1059 0.4253
-28 14 8 -10.3574 -0.6370
-26 14 8 4.6887 0.2251
-24 14 8 8.7369 0.5252
-22 14 8 6.2841 -0.8062
-20 14 8 14.6154 -0.7957
-18 14 8 18.7146 1.7588
-16 14 8 3.9790 2.2348
-14 14 8 4.2413 -0.3708
-12 14 8 -23.6146 -1.3733
-10 14 8 14.3860 -0.4654
-8 14 8 18.8872 0.1353
-6 14 8 -66.8999 -0.0835
-4 14 8 1.2994 0.0015
-2 14 8 41.0924 0.0019
0 14 8 29.4661 -1.5390
2 14 8 -10.8968 -1.6191
4 14 8 28.7837 -0.0254
6 14 8 47.4247 1.4077
8 14 8 -34.8523 1.4170
10 14 8 -1.2722 0.0613
12 14 8 0.2764 -0.9864
14 14 8 1.2008 -0.4262
16 14 8 3.0197 0.7091
18 14 8 10.2183 0.8806
20 14 8 -4.5723 0.9338
22 14 8 5.9693 -0.1435
24 14 8 7.7240 -1.2818
26 14 8 8.6962 -1.4030
28 14 8 -0.2660 0.7138
30 14 8 -5.8771 0.5788
32 14 8 -11.1265 0.1161
-33 15 8 -12.6501 3.0650
-31 15 8 -6.5704 -1.2770
-29 15 8 14.6451 0.1499
-27 15 8 8.0398 1.5578
-25 15 8 3.7049 1.2360
-23 15 8 -5.4196 -0.9579
-21 15 8 -12.1268 -0.6672
-19 15 8 -1.5907 1.3369
-17 15 8 9.6199 1.0668
-15 15 8 2.5989 -0.5557
-13 15 8 6.3850 -0.5274
-11 15 8 -10.4184 0.5311
-9 15 8 11.0516 0.5714
-7 15 8 17.0484 -1.1727
-5 15 8 18.4192 -0.6560
-3 15 8 -27.5687 1.5312
-1 15 8 0.2684 0.6285
1 15 8 10.4112 -2.5148
3 15 8 32.0865 -1.7884
5 15 8 -36.1320 1.3381
7 15 8 -9.0363 1.1958
9 15 8 18.9229 -1.5180
11 15 8 7.7079 -1.6444
13 15 8 -7.8448 0.9740
15 15 8 28.2830 0.8263
17 15 8 9.2102 -0.8570
19 15 8 12.5690 0.0656
21 15 8 25.2931 1.6972
23 15 8 -12.1434 -0.0104
25 15 8 -21.5137 -1.8958
27 15 8 22.8147 -0.3935
29 15 8 -20.4155 1.5338
31 15 8 21.8684 0.9347
33 15 8 3.3780 -2.1989
-32 16 8 1.6793 -1.0073
-30 16 8 -13.4844 0.9188
-28 16 8 3.6095 1.3281
-26 16 8 -2.9642 -0.7634
-24 16 8 7.7209 -2.3308
-22 16 8 7.3991 0.2123
-20 16 8 12.2518 1.4007
-18 16 8 8.0607 -0.7119
-16 16 8 17.7084 -0.8354
-14 16 8 10.3503 1.0035
-12 16 8 -21.4467 0.1590
-10 16 8 17.8851 -1.6908
-8 16 8 -20.0497 -0.0410
-6 16 8 17.1983 0.8859
-4 16 8 24.8734 -1.0434
-2 16 8 1.3089 -1.1910
0 16 8 71.2513 0.8081
2 16 8 -40.0450 0.2259
4 16 8 25.3611 -0.7972
6 16 8 21.3335 0.1325
8 16 8 -17.4996 0.6403
10 16 8 55.3011 -0.2422
12 16 8 -22.1265 -0.4258
14 16 8 11.4982 1.0997
16 16 8 42.5649 0.5841
18 16 8 -4.6554 -1.7940
20 16 8 -7.3614 -0.9712
22 16 8 -7.4014 1.0604
24 16 8 13.1883 0.5294
26 16 8 1.8469 -1.4668
28 16 8 -7.3215 -0.0315
30 16 8 -7.8092 1.0653
32 16 8 -6.4117 -0.8393
-31 17 8 6.2700 -0.1758
-29 17 8 2.5391 1.6395
-27 17 8 -5.5328 -1.3330
-25 17 8 2.0338 -2.0492
-23 17 8 -5.6029 1.3904
-21 17 8 0.1698 1.3700
-19 17 8 -8.9939 -2.3734
-17 17 8 24.2500 -0.8883
-15 17 8 -4.0144 3.8291
-13 17 8 5.9727 1.2049
-11 17 8 31.4864 -3.8541
-9 17 8 18.3956 -0.2490
-7 17 8 -23.0540 4.9221
-5 17 8 -3.4380 0.5588
-3 17 8 -33.3934 -3.8630
-1 17 8 3.0227 0.6908
1 17 8 -24.9126 3.6167
3 17 8 14.5477 -0.8561
5 17 8 7.4296 -3.5054
7 17 8 20.2489 1.1590
9 17 8 5.7216 3.2928
11 17 8 -11.3133 -1.4950
13 17 8 15.3967 -3.1940
15 17 8 -3.4664 1.3194
17 17 8 4.5438 2.8786
19 17 8 9.3428 -0.8628
21 17 8 28.7273 -1.7136
23 17 8 6.6285 0.7623
25 17 8 -9.0653 1.2774
27 17 8 12.6040 -1.3756
29 17 8 -7.9791 -1.6258
31 17 8 8.9379 0.3338
-32 18 8 -5.8878 0.0291
-30 18 8 -18.7616 2.0363
-28 18 8 27.1850 -1.3749
-26 18 8 13.2960 -1.1491
-24 18 8 24.1811 1.7616
-22 18 8 16.9864 2.2604
-20 18 8 -3.0087 -1.7506
-18 18 8 -9.9474 -2.4793
-16 18 8 -8.9878 0.9760
-14 18 8 1.6003 1.5111
-12 18 8 -3.7081 -1.2389
-10 18 8 23.9049 -0.5688
-8 18 8 -34.7403 2.2779
-6 18 8 16.7089 0.5507
-4 18 8 -45.4730 -3.1108
-2 18 8 -16.1672 -1.0718
0 18 8 12.0984 2.8914
2 18 8 -30.0321 2.0906
4 18 8 25.7337 -1.3571
6 18 8 8.6146 -2.0702
8 18 8 7.9938 0.1947
10 18 8 -2.0634 1.2162
12 18 8 6.3767 -0.1443
14 18 8 -12.7006 0.0081
16 18 8 11.0189 1.3924
18 18 8 22.6431 -0.1291
20 18 8 2.5597 -1.8133
22 18 8 0.9435 -1.3490
24 18 8 19.8576 1.6351
26 18 8 16.4232 1.8348
28 18 8 4.9505 -0.6995
30 18 8 -0.4617 -0.9783
-31 19 8 24.3731 1.2925
-29 19 8 0.4053 -0.8795
-27 19 8 -3.8504 -0.8465
-25 19 8 -4.0855 0.0431
-23 19 8 -16.0889 0.0055
-21 19 8 -0.8340 -0.8715
-19 19 8 -15.8150 0.2398
-17 19 8 6.4706 1.2277
-15 19 8 -12.2879 0.1116
-13 19 8 7.6092 -1.1386
-11 19 8 1.8435 -0.4086
-9 19 8 3.8161 1.1899
-7 19 8 -23.7303 1.1166
-5 19 8 42.8337 0.3679
-3 19 8 47.1069 -0.0091
-1 19 8 9.7212 0.3147
1 19 8 -11.8100 0.2192
3 19 8 -14.3770 0.1024
5 19 8 -36.4390 0.9918
7 19 8 -8.2302 0.6617
9 19 8 -11.6044 -0.6238
11 19 8 24.9361 -0.7134
13 19 8 15.6815 0.0793
15 19 8 1.0245 0.0936
17 19 8 -7.1211 -0.4126
19 19 8 1.7038 -0.2934
21 19 8 5.9672 0.0850
23 19 8 7.8124 -0.8396
25 19 8 -11.2673 0.0273
27 19 8 1.9465 0.5937
29 19 8 7.9067 -0.1715
31 19 8 7.3010 -1.3510
-30 20 8 -2.1247 -1.2604
-28 20 8 4.6717 -0.1081
-26 20 8 -0.6514 1.3739
-24 20 8 -8.1411 0.1543
-22 20 8 -8.9574 -1.0991
-20 20 8 -14.1676 -1.0012
-18 20 8 -13.7999 0.2922
-16 20 8 -4.6095 0.3751
-14 20 8 2.4646 -0.6333
-12 20 8 -7.4046 0.3826
-10 20 8 10.4709 1.3991
-8 20 8 17.7731 -0.3333
-6 20 8 40.1655 -1.5878
-4 20 8 -49.5432 0.5076
-2 20 8 -2.3169 2.1572
0 20 8 -12.8939 -0.0002
2 20 8 24.1550 -1.5424
4 20 8 16.0323 0.5413
6 20 8 -14.2306 1.4966
8 20 8 17.6332 -0.4435
10 20 8 -4.1394 -1.6786
12 20 8 19.5055 0.5164
14 20 8 -10.2895 1.8755
16 20 8 -8.9669 0.1290
18 20 8 34.9824 -1.2420
20 20 8 6.4339 0.1663
22 20 8 -0.7006 0.5786
24 20 8 8.4159 -0.3520
26 20 8 -1.9778 -0.8444
28 20 8 -3.4041 1.4026
30 20 8 -15.0924 0.5533
-29 21 8 0.5577 -0.7877
-27 21 8 0.1498 -0.1028
-25 21 8 -6.2106 -0.6468
-23 21 8 2.4336 -0.1095
-21 21 8 5.8939 0.0540
-19 21 8 0.1370 -0.1389
-17 21 8 -12.0461 -0.3887
-15 21 8 9.9877 -0.1299
-13 21 8 11.2868 -0.3294
-11 21 8 10.1811 -0.1214
-9 21 8 21.7186 0.3708
-7 21 8 -12.1725 0.5506
-5 21 8 14.1333 0.3433
-3 21 8 9.7120 0.3384
-1 21 8 -16.3419 0.0644
1 21 8 -45.3033 0.2338
3 21 8 2.5679 0.6685
5 21 8 23.0468 0.4072
7 21 8 25.1499 -0.1235
9 21 8 12.1857 -0.1015
11 21 8 23.4150 -0.0568
13 21 8 -5.9239 -0.4386
15 21 8 -1.2698 0.4408
17 21 8 -3.6180 0.3695
19 21 8 -17.6875 -0.4653
21 21 8 -5.1669 -0.5429
23 21 8 7.9223 -0.2287
25 21 8 0.3013 1.2023
27 21 8 -14.4577 0.3296
29 21 8 7.9937 0.0690
-28 22 8 -6.8884 0.1416
-26 22 8 8.6234 -0.8460
-24 22 8 -16.1291 0.3977
-22 22 8 -12.4352 0.2420
-20 22 8 -12.8517 -1.2117
-18 22 8 0.8989 -0.5118
-16 22 8 0.1694 1.1794
-14 22 8 4.3992 1.4400
-12 22 8 -3.5237 -0.5467
-10 22 8 -27.7293 -1.2842
-8 22 8 -25.7427 0.4937
-6 22 8 1.3820 1.1767
-4 22 8 1.5697 0.2637
-2 22 8 -2.3791 0.1017
0 22 8 -5.0638 0.6701
2 22 8 -2.5735 -0.4869
4 22 8 -0.2988 -1.4015
6 22 8 -19.2070 0.2034
8 22 8 -7.6208 1.3887
10 22 8 26.5934 0.4337
12 22 8 -12.0388 -1.2954
14 22 8 5.7704 -0.9557
16 22 8 -4.6121 0.3181
18 22 8 -1.4224 0.3387
20 22 8 2.7415 0.0738
22 22 8 5.1425 0.0107
24 22 8 -5.0861 -0.2458
26 22 8 5.5657 0.3998
28 22 8 -1.4945 1.3596
-29 23 8 -8.1143 -0.6551
-27 23 8 -9.8995 -0.3111
-25 23 8 -0.9694 0.8221
-23 23 8 -0.4363 1.2452
-21 23 8 2.6110 -0.5934
-19 23 8 12.8391 -1.8355
-17 23 8 -16.0783 -0.2692
-15 23 8 15.7060 1.2062
-13 23 8 7.9217 0.4337
-11 23 8 -4.7614 -0.5764
-9 23 8 -9.2198 -0.0385
-7 23 8 -3.2033 0.2354
-5 23 8 15.5236 -0.7689
-3 23 8 -22.5573 -0.8563
-1 23 8 -16.5557 0.7527
1 23 8 7.5063 1.4356
3 23 8 -2.3819 -0.0259
5 23 8 -4.6555 -1.1973
7 23 8 -0.8814 -0.7316
9 23 8 12.2480 0.5338
11 23 8 18.9457 0.6174
13 23 8 3.6893 -0.1326
15 23 8 -0.6752 -0.4050
17 23 8 1.6768 0.4001
19 23 8 -3.1408 0.0613
21 23 8 -11.1827 -0.3523
23 23 8 -20.3603 -0.4786
25 23 8 -17.6801 1.0689
27 23 8 -7.6018 0.8073
-28 24 8 -7.5869 -0.8458
-26 24 8 6.0388 0.0419
-24 24 8 8.5452 0.2649
-22 24 8 24.3948 -0.6027
-20 24 8 -8.1105 -0.1120
-18 24 8 10.6442 0.9458
-16 24 8 19.8121 0.3510
-14 24 8 -11.5430 -0.7808
-12 24 8 4.4222 -0.8743
-10 24 8 5.9292 0.0069
-8 24 8 -1.7006 0.1163
-6 24 8 12.3086 -0.2301
-4 24 8 8.5203 -0.3001
-2 24 8 -11.7122 -0.0446
0 24 8 -18.5423 0.1599
2 24 8 -4.0761 -0.6542
4 24 8 1.7726 -0.9290
6 24 8 -4.1414 0.7739
8 24 8 6.3230 0.7018
10 24 8 22.4233 -0.6511
12 24 8 -7.6824 -0.0827
14 24 8 1.9241 0.5123
16 24 8 3.5181 -0.3678
18 24 8 12.3858 -0.6014
20 24 8 -8.1271 1.1963
22 24 8 6.8032 1.5550
24 24 8 -10.6214 -0.2445
26 24 8 5.3938 -0.8239
-27 25 8 -0.3373 0.5162
-25 25 8 3.6705 0.3677
-23 25 8 0.2129 -0.8951
-21 25 8 2.3425 -0.5152
-19 25 8 12.7428 0.3583
-17 25 8 -9.7415 -0.3927
-15 25 8 3.5502 -0.7087
-13 25 8 7.6236 0.3920
-11 25 8 -1.8481 1.0942
-9 25 8 -11.2142 0.0190
-7 25 8 -19.7420 -1.1494
-5 25 8 -1.6257 -0.8751
-3 25 8 -3.5401 0.3189
-1 25 8 -15.2324 0.7180
1 25 8 18.8876 0.2457
3 25 8 13.7247 -0.6677
5 25 8 12.7800 -0.4768
7 25 8 7.3427 -0.0047
9 25 8 -1.5116 -0.2222
11 25 8 -2.3284 0.1520
13 25 8 -3.8700 0.8908
15 25 8 0.8910 0.5175
17 25 8 3.8734 -1.1476
19 25 8 5.0856 -1.0357
21 25 8 -9.8667 1.2291
23 25 8 -3.6563 0.8646
25 25 8 -8.6732 0.3867
-26 26 8 -0.3395 -1.5279
-24 26 8 -3.9108 -0.3836
-22 26 8 19.4359 0.6672
-20 26 8 -20.4000 1.4903
-18 26 8 22.5372 -0.3305
-16 26 8 -4.3771 -1.1800
-14 26 8 -4.1895 0.1942
-12 26 8 -6.6875 0.3779
-10 26 8 -5.2909 -0.2350
-8 26 8 -13.8152 0.3916
-6 26 8 14.5036 0.4853
-4 26 8 16.4321 -0.9875
-2 26 8 -3.2229 -1.3135
0 26 8 -17.7766 0.5065
2 26 8 12.6222 1.3395
4 26 8 -27.9034 -0.3875
6 26 8 0.3915 -1.0262
8 26 8 -6.0817 0.2622
10 26 8 5.5925 0.0957
12 26 8 -1.4382 -0.4530
14 26 8 -11.7917 0.5969
16 26 8 7.0961 1.0407
18 26 8 11.8312 -0.6548
20 26 8 1.0882 -0.5190
22 26 8 6.2777 1.1454
24 26 8 -0.1300 1.9735
-25 27 8 3.9191 -1.6204
-23 27 8 4.3247 0.9910
-21 27 8 8.9876 0.8829
-19 27 8 -5.0132 -0.9097
-17 27 8 -10.1632 -1.0573
-15 27 8 -9.0152 1.3276
-13 27 8 7.2308 0.8359
-11 27 8 6.3930 -1.5745
-9 27 8 -10.9302 -1.1045
-7 27 8 15.2186 1.3614
-5 27 8 3.1525 0.3895
-3 27 8 0.1060 -1.6545
-1 27 8 -9.6247 -0.5219
1 27 8 22.3303 0.9715
3 27 8 11.0177 -0.0961
5 27 8 -9.3251 -1.4264
7 27 8 -25.6173 0.0926
9 27 8 5.0488 1.3610
11 27 8 10.2809 0.0692
13 27 8 -5.5940 -1.3948
15 27 8 -3.2419 -0.0503
17 27 8 2.6102 1.2747
19 27 8 -0.6195 0.1528
21 27 8 5.1117 -0.9233
23 27 8 -2.9003 0.8870
-24 28 8 -10.6649 1.3540
-22 28 8 13.2742 0.7069
-20 28 8 -10.9198 -1.2042
-18 28 8 26.9819 -0.8706
-16 28 8 -0.2334 0.5091
-14 28 8 18.4942 0.3838
-12 28 8 8.2766 -0.9283
-10 28 8 2.4465 -0.6041
-8 28 8 -4.4694 1.0571
-6 28 8 8.9027 0.6583
-4 28 8 -0.3422 -1.3847
-2 28 8 -5.4616 -0.8669
0 28 8 -25.1938 1.0889
2 28 8 0.2810 1.2455
4 28 8 -7.2014 -0.3565
6 28 8 -0.0530 -1.0122
8 28 8 -15.9233 0.5352
10 28 8 5.5290 1.1154
12 28 8 4.1734 -0.1881
14 28 8 -2.1679 -0.9613
16 28 8 12.1027 0.7034
18 28 8 -7.6285 0.7499
20 28 8 3.1717 -0.5044
22 28 8 1.0139 -0.7039
-23 29 8 -3.2913 -0.6737
-21 29 8 18.6488 -1.7177
-19 29 8 -2.8146 0.4294
-17 29 8 3.9723 0.8006
-15 29 8 -9.3371 0.0444
-13 29 8 -5.9138 -0.5426
-11 29 8 2.6052 -0.1275
-9 29 8 -4.5301 0.3399
-7 29 8 -6.7692 0.3347
-5 29 8 1.1412 0.2925
-3 29 8 9.0939 0.3436
-1 29 8 -27.1085 -0.1736
1 29 8 1.5519 -0.8543
3 29 8 -14.6303 -0.4891
5 29 8 3.6475 0.3954
7 29 8 -11.0556 0.5657
9 29 8 1.7656 0.0736
11 29 8 -0.0632 -0.0138
13 29 8 1.0056 -0.3853
15 29 8 0.0530 -0.5631
17 29 8 1.1181 0.4900
19 29 8 3.6978 0.8499
21 29 8 14.6426 0.7779
-20 30 8 10.9444 0.4621
-18 30 8 7.4896 1.0874
-16 30 8 -7.5509 -0.4781
-14 30 8 13.5549 -1.2140
-12 30 8 14.3424 0.4311
-10 30 8 -15.6718 0.9449
-8 30 8 9.2983 -0.5699
-6 30 8 20.7704 -0.5057
-4 30 8 2.3105 0.9274
-2 30 8 10.2233 0.9272
0 30 8 -7.4033 -0.3406
2 30 8 -1.6768 -0.7526
4 30 8 8.5772 0.7256
6 30 8 1.0801 1.2265
8 30 8 -6.3459 -0.2556
10 30 8 12.3920 -0.8423
12 30 8 11.0547 0.3945
14 30 8 -6.4441 0.3514
16 30 8 -13.1058 -0.6189
18 30 8 -13.0965 -0.4657
20 30 8 4.5608 1.0311
-19 31 8 2.7052 0.4144
-17 31 8 0.3430 -0.9520
-15 31 8 -0.0647 -0.4137
-13 31 8 -3.2467 0.3137
-11 31 8 9.9331 0.4196
-9 31 8 -8.7127 -0.3868
-7 31 8 -6.2100 0.0047
-5 31 8 -6.2635 0.7377
-3 31 8 4.0788 0.5173
-1 31 8 3.3685 -0.2738
1 31 8 6.8903 -0.5480
3 31 8 6.9065 -0.0353
5 31 8 -1.4992 0.4520
7 31 8 -11.3854 0.5903
9 31 8 12.6738 -0.4268
11 31 8 -3.8964 -0.3565
13 31 8 12.0612 0.0129
15 31 8 6.9818 0.6270
17 31 8 -2.3109 0.0256
19 31 8 -7.4215 -0.2769
-18 32 8 1.6250 -1.0418
-16 32 8 -10.7443 0.6385
-14 32 8 13.5698 0.3038
-12 32 8 0.2405 -0.5463
-10 32 8 -5.7591 -0.0900
-8 32 8 12.9355 0.4018
-6 32 8 -3.0464 0.0528
-4 32 8 -5.4081 0.1671
-2 32 8 10.2636 0.2578
0 32 8 7.3160 0.4450
2 32 8 2.5152 0.0586
4 32 8 9.8665 0.1241
6 32 8 4.9260 0.1376
8 32 8 -15.3886 -0.1550
10 32 8 0.5452 0.3697
12 32 8 5.0343 -0.2315
14 32 8 -3.4006 -0.7465
16 32 8 -8.4487 0.4968
18 32 8 -8.7966 0.1710
-17 33 8 -9.6742 0.4873
-15 33 8 -7.9593 1.3245
-13 33 8 -1.5515 0.1917
-11 33 8 -0.4857 -0.4740
-9 33 8 9.0287 0.1708
-7 33 8 4.2570 0.9358
-5 33 8 3.5580 -0.0046
-3 33 8 -6.8736 -0.7056
-1 33 8 -15.6197 0.3128
1 33 8 -1.2066 0.7421
3 33 8 8.1987 0.1628
5 33 8 -0.3171 -0.7364
7 33 8 8.4580 -0.5110
9 33 8 21.0529 0.7526
11 33 8 -0.1985 0.3591
13 33 8 10.6567 -0.9790
15 33 8 14.4934 0.2360
-14 34 8 13.2239 -0.8355
-12 34 8 -1.2992 -0.2959
-10 34 8 -6.3936 0.4399
-8 34 8 5.5627 0.1195
-6 34 8 2.7863 -0.3684
-4 34 8 -4.8654 0.0375
-2 34 8 -5.9721 0.4363
0 34 8 -8.9032 -0.1170
2 34 8 -6.6862 -0.0157
4 34 8 16.9653 0.2645
6 34 8 1.7952 0.1145
8 34 8 1.9852 -0.7119
10 34 8 6.0008 -0.2927
12 34 8 -6.1237 0.0293
14 34 8 3.7755 0.1668
-11 35 8 -1.6854 1.0000
-9 35 8 7.9360 -0.0180
-7 35 8 2.6492 -0.8701
-5 35 8 7.6653 0.0559
-3 35 8 19.9966 0.5260
-1 35 8 -8.5296 0.0253
1 35 8 24.6974 -0.6053
3 35 8 9.4495 0.3887
5 35 8 -3.9438 0.0999
7 35 8 3.1367 -0.2374
9 35 8 5.4740 -0.6502
11 35 8 -4.6726 -0.0324
-8 36 8 13.1078 -0.3506
-6 36 8 6.8584 -0.4435
-4 36 8 7.8096 -0.2636
-2 36 8 12.8005 -0.0619
0 36 8 12.5303 -0.5315
2 36 8 -0.6389 -0.6175
4 36 8 15.4058 0.1136
6 36 8 2.9450 0.1259
8 36 8 4.6484 -0.7476
-3 37 8 6.8672 -0.4008
-1 37 8 -10.4392 -0.2718
1 37 8 5.5478 0.4143
3 37 8 7.0407 0.9104
-35 1 9 5.1936 0.0218
-33 1 9 4.7172 3.8671
-31 1 9 20.1774 -6.2640
-29 1 9 -0.6551 -11.0735
-27 1 9 -14.5251 10.1763
-25 1 9 -6.4644 18.3497
-23 1 9 0.5455 -10.5935
-21 1 9 1.2833 -26.0408
-19 1 9 -20.3165 1.8594
-17 1 9 23.1673 13.1217
-15 1 9 6.8069 -8.3677
-13 1 9 -0.2507 -1.6939
-11 1 9 18.5640 21.5797
-9 1 9 -4.8503 -5.1443
-7 1 9 -33.8330 -38.2840
-5 1 9 -87.7666 5.4211
-3 1 9 -32.1489 59.7417
-1 1 9 210.0119 24.1666
1 1 9 -53.4671 -30.5457
3 1 9 -112.0644 -12.1273
5 1 9 36.3117 20.3736
7 1 9 -24.2927 1.0991
9 1 9 10.0405 -11.1543
11 1 9 75.3330 18.1602
13 1 9 30.6214 13.9917
15 1 9 -14.9040 -31.7395
17 1 9 -23.1267 -31.1921
19 1 9 14.8847 15.5166
21 1 9 -7.0051 25.7282
23 1 9 16.1723 -5.0392
25 1 9 10.6435 -15.4502
27 1 9 -4.5225 0.8171
29 1 9 3.6015 3.1877
31 1 9 4.3552 -3.6560
33 1 9 -8.1131 1.5129
35 1 9 5.9751 5.6374
-36 2 9 -13.2365 -1.9258
-34 2 9 0.8726 4.8888
-32 2 9 -3.0329 3.1962
-30 2 9 -13.1475 -5.2655
-28 2 9 1.2543 -4.0331
-26 2 9 12.2419 5.1226
-24 2 9 -22.1355 2.6945
-22 2 9 -15.2689 -5.6285
-20 2 9 -11.4869 3.3470
-18 2 9 -3.1105 13.8587
-16 2 9 -5.5584 -2.4851
-14 2 9 18.1639 -19.8799
-12 2 9 5.0078 -1.5232
-10 2 9 22.6466 21.9036
-8 2 9 69.7978 4.8638
-6 2 9 92.8638 -18.4731
-4 2 9 -58.0127 -6.0794
-2 2 9 -66.4072 5.8520
0 2 9 -336.1503 -8.8826
2 2 9 143.1722 -12.1911
4 2 9 -58.2371 12.7835
6 2 9 7.4970 17.6803
8 2 9 81.6665 -12.6213
10 2 9 -13.6169 -20.5635
12 2 9 10.2611 7.9351
14 2 9 -35.4876 19.3918
16 2 9 12.6636 0.2548
18 2 9 -15.6281 -6.2795
20 2 9 19.0830 4.3552
22 2 9 -0.9205 1.3610
24 2 9 -11.0278 -8.0537
26 2 9 -11.6899 -1.3660
28 2 9 5.2392 9.4185
30 2 9 -7.2586 2.4915
32 2 9 -0.3685 -7.0391
34 2 9 20.4031 -3.6962
-35 3 9 10.6516 1.8182
-33 3 9 -4.4851 -0.2996
-31 3 9 -3.4842 -2.0720
-29 3 9 -10.3053 -1.1856
-27 3 9 0.3633 3.7404
-25 3 9 -3.7771 4.3763
-23 3 9 -10.7870 -1.3247
-21 3 9 10.0289 -3.9730
-19 3 9 -0.8273 -1.7264
-17 3 9 -1.5048 0.9652
-15 3 9 13.4968 3.8410
-13 3 9 5.5929 5.5412
-11 3 9 31.3529 -0.0127
-9 3 9 -29.5681 -8.2948
-7 3 9 -35.8802 -6.1847
-5 3 9 -22.4830 5.3873
-3 3 9 -5.3804 7.5811
-1 3 9 177.4676 2.8495
1 3 9 -182.7902 -3.2398
3 3 9 -31.0453 -10.6758
5 3 9 -49.8389 -7.4264
7 3 9 137.0721 2.6246
9 3 9 -38.3218 6.3218
11 3 9 -21.9917 0.9661
13 3 9 -20.7075 -5.8668
15 3 9 2.5639 -6.3430
17 3 9 67.1377 -1.4404
19 3 9 24.8380 4.5016
21 3 9 -9.1468 6.2723
23 3 9 -19.4305 1.9979
25 3 9 12.9813 -2.6361
27 3 9 0.7686 -2.3570
29 3 9 -0.8624 1.0657
31 3 9 -2.0568 2.9211
33 3 9 -7.6656 1.9284
35 3 9 22.0688 0.0062
-36 4 9 -1.3728 0.7437
-34 4 9 -14.6669 -2.4845
-32 4 9 3.3340 -1.1952
-30 4 9 7.4166 2.0507
-28 4 9 1.2759 1.2698
-26 4 9 0.2057 -3.0923
-24 4 9 9.7176 -1.4108
-22 4 9 -12.7842 4.3021
-20 4 9 -68.8361 3.2999
-18 4 9 -14.2825 -3.6423
-16 4 9 24.3092 -2.6699
-14 4 9 -32.8770 4.8119
-12 4 9 -29.9877 4.1781
-10 4 9 -24.0219 -4.3680
-8 4 9 -20.3470 -3.0705
-6 4 9 -59.0768 3.1070
-4 4 9 -71.5667 -4.4378
0 4 9 124.5638 -0.8749
2 4 9 20.1062 8.6692
4 4 9 0.6596 -1.8748
6 4 9 22.1826 -10.6581
8 4 9 -37.5702 -1.3683
10 4 9 -21.1741 6.7167
12 4 9 8.6134 2.4566
14 4 9 60.0890 -0.1278
16 4 9 -40.5183 3.4559
18 4 9 -44.0093 1.2063
20 4 9 -14.3688 -4.5599
22 4 9 -24.4058 -2.0711
24 4 9 5.0725 4.6993
26 4 9 -5.8407 3.5144
28 4 9 -8.1243 -2.7767
30 4 9 6.6307 -3.4832
32 4 9 2.6739 0.2439
34 4 9 8.9138 1.1634
-35 5 9 1.4068 -2.0463
-33 5 9 8.9256 2.5698
-31 5 9 7.6550 3.0751
-29 5 9 0.5388 0.0058
-27 5 9 -4.7828 -3.8574
-25 5 9 2.1590 0.0948
-23 5 9 26.0153 3.2178
-21 5 9 49.5856 1.4888
-19 5 9 8.1501 -0.2183
-17 5 9 -32.8707 0.0132
-15 5 9 82.0966 -3.2330
-13 5 9 -4.5464 -6.6710
-11 5 9 -21.7727 -0.9058
-9 5 9 15.9723 7.5399
-7 5 9 114.0442 4.1529
-5 5 9 -16.9780 -5.3235
-3 5 9 -31.6954 -6.4516
-1 5 9 80.5086 0.7891
1 5 9 -11.8848 2.2794
3 5 9 107.2863 3.5898
5 5 9 -96.1088 6.1438
7 5 9 50.9335 -2.3169
9 5 9 -0.5476 -8.3146
11 5 9 12.1597 -3.1107
13 5 9 19.7623 4.1180
15 5 9 -16.5618 3.4822
17 5 9 41.7834 0.2927
19 5 9 23.9166 -0.8641
21 5 9 47.4827 -2.5091
23 5 9 -6.2529 -2.6097
25 5 9 16.5147 1.4681
27 5 9 20.4328 3.8105
29 5 9 6.7605 0.5320
31 5 9 -8.7296 -2.6868
33 5 9 7.2126 -1.2785
35 5 9 21.9707 0.0585
-36 6 9 15.9873 0.5956
-34 6 9 -4.5830 0.0527
-32 6 9 -15.9487 1.4245
-30 6 9 1.6417 -0.4514
-28 6 9 -1.1518 -0.6304
-26 6 9 -6.7253 1.7873
-24 6 9 22.7009 -1.1808
-22 6 9 -4.3663 -3.7288
-20 6 9 -10.9040 2.1365
-18 6 9 45.8945 6.9173
-16 6 9 -9.9711 1.2985
-14 6 9 3.6486 -4.6453
-12 6 9 17.0050 -0.2102
-10 6 9 41.9619 3.3627
-8 6 9 -49.8085 -2.9270
-6 6 9 38.3282 -4.9298
-4 6 9 24.2985 0.2000
-2 6 9 -13.6952 -1.6250
0 6 9 40.1451 -6.9279
2 6 9 -215.2599 -6.2758
4 6 9 -40.4801 0.2627
6 6 9 21.5620 3.2973
8 6 9 23.9190 -1.5316
10 6 9 -53.0636 -3.4281
12 6 9 -9.2303 3.0129
14 6 9 53.9367 5.0768
16 6 9 -0.0028 -0.9198
18 6 9 3.0479 -2.0978
20 6 9 3.4979 3.2416
22 6 9 -13.2119 2.8993
24 6 9 -1.7231 -1.5606
26 6 9 -0.7350 -0.9095
28 6 9 -14.0808 1.7164
30 6 9 15.6478 0.2161
32 6 9 27.2984 -0.9618
34 6 9 7.3661 0.6993
-35 7 9 -6.2137 0.6493
-33 7 9 5.2436 2.7984
-31 7 9 -20.0357 -0.5350
-29 7 9 -16.1660 -2.2492
-27 7 9 1.1654 0.4495
-25 7 9 -11.4015 0.7453
-23 7 9 15.6260 -3.0998
-21 7 9 -10.5958 -0.9765
-19 7 9 -47.7455 5.3286
-17 7 9 -41.6271 3.1851
-15 7 9 34.4462 -6.9426
-13 7 9 3.9951 -5.8062
-11 7 9 4.2563 6.2574
-9 7 9 -16.6199 8.9885
-7 7 9 61.6373 -0.2730
-5 7 9 -2.8880 -4.7721
-3 7 9 -36.8174 0.0540
-1 7 9 140.3731 2.2494
1 7 9 35.3115 -1.6440
3 7 9 -179.8861 1.2507
5 7 9 108.9017 8.1950
7 7 9 43.3103 -0.2178
9 7 9 3.1883 -11.9117
11 7 9 37.0810 -4.1758
13 7 9 25.6306 8.7389
15 7 9 -1.4045 5.3920
17 7 9 -23.1860 -4.6138
19 7 9 18.3402 -4.3908
21 7 9 -4.2806 0.1914
23 7 9 -8.9723 -0.6332
25 7 9 1.8333 -0.5303
27 7 9 11.7912 3.1818
29 7 9 2.7914 2.3776
31 7 9 -2.6070 -2.5011
33 7 9 3.4154 -3.1459
35 7 9 2.9856 0.5383
-34 8 9 6.2962 0.4148
-32 8 9 -0.4129 -0.6807
-30 8 9 8.6937 0.2924
-28 8 9 -2.0824 1.8059
-26 8 9 -27.8519 -0.1778
-24 8 9 -2.4086 -1.2601
-22 8 9 10.6978 1.1127
-20 8 9 19.9294 3.2364
-18 8 9 -14.9828 0.4984
-16 8 9 -2.4659 -1.4452
-14 8 9 39.7332 0.9955
-12 8 9 -2.2572 1.6461
-10 8 9 -11.5262 -1.7748
-8 8 9 69.8377 -1.2246
-6 8 9 62.1927 3.8424
-4 8 9 -79.0022 2.1968
-2 8 9 25.3920 -4.4058
0 8 9 -20.0860 -3.0207
2 8 9 -42.7606 0.9194
4 8 9 111.2088 0.6699
6 8 9 -22.7866 -0.6463
8 8 9 2.3714 -0.8878
10 8 9 -42.1919 -0.4025
12 8 9 -21.6480 -2.0651
14 8 9 -12.2230 -1.7978
16 8 9 -9.5456 0.5488
18 8 9 -20.3317 1.7140
20 8 9 4.8103 0.7099
22 8 9 20.2729 -0.9086
24 8 9 -1.0188 -0.5117
26 8 9 -1.5769 -0.1071
28 8 9 -9.8964 0.8170
30 8 9 -12.7783 0.9139
32 8 9 -6.0892 0.5158
34 8 9 -4.3475 -1.0529
-35 9 9 6.6107 -2.1438
-33 9 9 -9.8677 -0.4910
-31 9 9 -10.7084 1.7378
-29 9 9 -28.7842 -0.2031
-27 9 9 3.9279 -1.9255
-25 9 9 -4.4646 -2.0917
-23 9 9 4.9828 -1.1210
-21 9 9 2.9934 -0.6538
-19 9 9 -6.6434 0.4975
-17 9 9 -6.2665 1.1975
-15 9 9 23.8330 -0.4958
-13 9 9 41.0131 -2.3755
-11 9 9 -1.9400 -0.6945
-9 9 9 -8.5854 2.2711
-7 9 9 -27.3739 1.6153
-5 9 9 30.4028 0.9963
-3 9 9 -30.7553 0.1541
-1 9 9 29.2281 -1.5115
1 9 9 12.1065 -1.0019
3 9 9 -131.4247 0.9762
5 9 9 -45.2017 2.2121
7 9 9 65.4434 0.7085
9 9 9 14.9619 -0.9730
11 9 9 21.9656 -0.2209
13 9 9 -4.9972 0.2726
15 9 9 21.5871 -0.6536
17 9 9 11.2116 0.0869
19 9 9 16.7872 1.4199
21 9 9 -27.7370 -0.2040
23 9 9 -11.4264 -1.4865
25 9 9 3.4978 0.2227
27 9 9 -7.9581 0.8197
29 9 9 0.9516 -0.7431
31 9 9 12.8006 -0.6193
33 9 9 11.2429 2.2017
-34 10 9 -4.6777 0.1105
-32 10 9 -12.1470 0.9564
-30 10 9 -13.7844 -0.2730
-28 10 9 -2.8897 -1.0937
-26 10 9 -3.4544 1.4629
-24 10 9 4.5411 2.1124
-22 10 9 8.2258 -2.4116
-20 10 9 6.9313 -3.2215
-18 10 9 -18.0814 1.5719
-16 10 9 -29.5488 2.6924
-14 10 9 7.0455 -0.9215
-12 10 9 34.9792 1.1412
-10 10 9 -21.9670 4.2014
-8 10 9 -7.8564 -0.7806
-6 10 9 -6.3707 -3.0257
-4 10 9 -32.9991 4.5178
-2 10 9 68.4200 7.9727
0 10 9 -22.9699 -0.3686
2 10 9 -71.4954 -5.0212
4 10 9 27.0210 0.0984
6 10 9 48.1752 1.3552
8 10 9 -25.2861 -2.9630
10 10 9 -21.8063 -0.8980
12 10 9 57.6659 2.7986
14 10 9 7.4756 -1.7521
16 10 9 3.7213 -5.9185
18 10 9 0.5244 -1.1925
20 10 9 19.3615 3.7272
22 10 9 19.4430 1.1201
24 10 9 -13.9912 -2.1473
26 10 9 5.6916 -0.2501
28 10 9 7.1506 0.8950
30 10 9 -3.3907 -0.2735
32 10 9 -7.4581 -0.0200
34 10 9 21.4883 2.0157
-35 11 9 7.7428 0.4585
-33 11 9 2.0369 2.0560
-31 11 9 5.9842 -1.8488
-29 11 9 -13.8360 -3.0197
-27 11 9 -3.7301 2.7139
-25 11 9 -5.1261 3.9523
-23 11 9 -8.2658 -1.6421
-21 11 9 35.8737 -2.9060
-19 11 9 8.2249 3.0958
-17 11 9 5.9993 2.5563
-15 11 9 28.8520 -3.8608
-13 11 9 17.2341 -1.3035
-11 11 9 -0.1769 5.2848
-9 11 9 31.0755 -0.7635
-7 11 9 -35.4302 -8.4039
-5 11 9 -55.4559 -1.2032
-3 11 9 104.6671 6.6587
-1 11 9 30.1436 1.2140
1 11 9 -2.0717 -6.0688
3 11 9 25.3466 -1.7525
5 11 9 -79.0770 4.3180
7 11 9 47.1720 1.8150
9 11 9 -10.2474 -0.8743
11 11 9 -45.0656 1.9459
13 11 9 4.1252 2.2467
15 11 9 6.4321 -2.4642
17 11 9 -36.2774 -3.1516
19 11 9 -7.2504 2.7918
21 11 9 6.8864 3.9794
23 11 9 -4.1429 -0.7022
25 11 9 1.0552 -3.4809
27 11 9 16.0283 -0.4051
29 11 9 8.3654 1.3092
31 11 9 0.6393 1.4262
33 11 9 -1.2361 0.2936
-34 12 9 -2.5914 1.6362
-32 12 9 1.1116 0.3433
-30 12 9 1.4921 -1.9827
-28 12 9 -3.3223 0.3141
-26 12 9 25.5609 2.2016
-24 12 9 24.4154 -1.9925
-22 12 9 3.9729 -4.0273
-20 12 9 -2.2327 0.3236
-18 12 9 -13.7248 2.6545
-16 12 9 -12.2709 -2.4005
-14 12 9 -3.7580 -3.5612
-12 12 9 10.0515 2.7533
-10 12 9 33.7049 4.3472
-8 12 9 -7.3806 -1.8963
-6 12 9 119.2920 -1.5367
-4 12 9 28.0646 5.3120
-2 12 9 -49.7921 4.6505
0 12 9 -9.9267 -1.1369
2 12 9 15.9873 -1.8675
4 12 9 21.0317 2.1447
6 12 9 47.4339 2.0037
8 12 9 27.2521 -2.9681
10 12 9 0.8540 -3.1808
12 12 9 45.1258 1.9472
14 12 9 -5.4957 2.2875
16 12 9 -4.0244 -3.2858
18 12 9 -14.9979 -3.0835
20 12 9 14.8962 1.8229
22 12 9 5.4931 2.5055
24 12 9 -0.1628 -1.3372
26 12 9 6.0489 -1.4184
28 12 9 6.6543 1.8871
30 12 9 -5.7919 1.1955
32 12 9 3.0434 -1.4280
34 12 9 17.5794 -0.8258
-33 13 9 2.3578 -3.0040
-31 13 9 -1.2195 -2.1793
-29 13 9 3.7080 0.8356
-27 13 9 -3.0756 2.0468
-25 13 9 2.7841 -0.2302
-23 13 9 -3.3122 -0.2496
-21 13 9 -2.7057 0.4403
-19 13 9 2.6852 -0.8690
-17 13 9 -20.0909 -1.0568
-15 13 9 29.5685 2.3835
-13 13 9 18.3127 3.4670
-11 13 9 8.5825 -1.1606
-9 13 9 6.4480 -3.8943
-7 13 9 -14.1873 -0.7432
-5 13 9 1.7884 2.3615
-3 13 9 47.4212 1.0938
-1 13 9 35.6354 -0.4869
1 13 9 8.9788 0.2060
3 13 9 -26.9580 -0.5896
5 13 9 -37.1761 -2.4471
7 13 9 1.0638 0.3777
9 13 9 -18.5051 3.5898
11 13 9 -6.4487 1.0457
13 13 9 3.4445 -3.1484
15 13 9 29.6796 -2.0435
17 13 9 -11.0169 1.0920
19 13 9 6.5707 0.7058
21 13 9 15.9625 -0.6710
23 13 9 -1.1668 1.3309
25 13 9 -1.8829 0.7038
27 13 9 12.1848 -1.6284
29 13 9 -1.0068 -1.3277
31 13 9 5.4563 1.6047
33 13 9 8.0622 3.0555
-34 14 9 -9.3202 -0.7408
-32 14 9 -10.4989 0.9342
-30 14 9 5.8383 1.2246
-28 14 9 2.8633 0.3896
-26 14 9 13.4146 -1.6602
-24 14 9 19.5688 0.1203
-22 14 9 12.1721 1.9588
-20 14 9 6.3500 0.8514
-18 14 9 -11.4014 -1.1755
-16 14 9 26.3276 -0.7974
-14 14 9 -32.4887 -0.5758
-12 14 9 1.5840 -1.2508
-10 14 9 31.4945 -0.1449
-8 14 9 -23.2568 2.1668
-6 14 9 119.0836 1.6769
-4 14 9 18.7852 -2.0849
-2 14 9 -45.7332 -2.4640
0 14 9 -10.7793 1.9728
2 14 9 -76.5606 2.8792
4 14 9 -16.1382 0.3615
6 14 9 49.8542 0.2850
8 14 9 33.0071 -0.4006
10 14 9 4.1698 -0.9238
12 14 9 15.6565 -0.8241
14 14 9 -8.8604 0.8093
16 14 9 27.4371 1.5639
18 14 9 1.6687 0.3682
20 14 9 18.5628 -1.4111
22 14 9 11.7791 -0.6794
24 14 9 -4.2237 0.3441
26 14 9 -6.4098 1.0959
28 14 9 6.6107 -0.1878
30 14 9 10.3825 0.0824
32 14 9 2.5378 0.1373
-33 15 9 1.1948 1.1496
-31 15 9 -4.8743 0.9451
-29 15 9 -0.8144 0.7674
-27 15 9 7.0456 0.0020
-25 15 9 -5.2423 -0.1988
-23 15 9 -0.2923 -0.1547
-21 15 9 3.0264 -0.5045
-19 15 9 -3.7217 -0.4695
-17 15 9 -35.5153 0.1800
-15 15 9 30.5842 0.3148
-13 15 9 -3.2183 0.1569
-11 15 9 22.2862 -0.9877
-9 15 9 17.8235 -1.4818
-7 15 9 -36.0860 -0.1648
-5 15 9 34.6371 0.7928
-3 15 9 -62.3785 -0.7713
-1 15 9 -9.8227 -1.4238
1 15 9 -6.4222 -0.3485
3 15 9 -24.2198 0.2463
5 15 9 16.0645 -0.8787
7 15 9 16.4525 -0.6117
9 15 9 15.8841 0.6997
11 15 9 -2.4116 0.3173
13 15 9 19.5869 -0.2205
15 15 9 1.3536 0.1257
17 15 9 -19.2399 0.8162
19 15 9 -9.9514 0.2591
21 15 9 2.5253 -0.8479
23 15 9 3.3068 0.1045
25 15 9 4.4035 1.0441
27 15 9 6.1576 0.9898
29 15 9 3.2211 -0.2913
31 15 9 -6.2784 -0.2875
-32 16 9 11.9558 -0.2019
-30 16 9 10.7661 -1.3102
-28 16 9 3.5067 -0.2342
-26 16 9 7.7575 1.0643
-24 16 9 1.1214 -0.0060
-22 16 9 1.4034 -0.2921
-20 16 9 12.8112 1.3046
-18 16 9 13.1579 1.0788
-16 16 9 20.7432 -1.2010
-14 16 9 -3.1227 -1.4351
-12 16 9 30.1497 0.7090
-10 16 9 17.9969 0.9856
-8 16 9 -35.5247 -0.7060
-6 16 9 46.1882 -1.3452
-4 16 9 -18.8862 -0.1292
-2 16 9 1.0991 0.8714
0 16 9 25.8453 -0.4424
2 16 9 19.8238 -0.8873
4 16 9 -50.8218 1.3885
6 16 9 -16.0975 2.0926
8 16 9 1.7962 -0.8745
10 16 9 -0.2944 -1.8070
12 16 9 27.4218 0.6033
14 16 9 -19.0899 1.5763
16 16 9 -4.4495 -0.3845
18 16 9 -26.3297 -0.4666
20 16 9 -1.3352 0.5317
22 16 9 -6.2938 0.2756
24 16 9 -1.8194 -1.3836
26 16 9 3.2415 -0.7054
28 16 9 -17.4149 1.2250
30 16 9 -1.5873 0.8066
32 16 9 4.6491 -1.5871
-31 17 9 1.6569 -0.5714
-29 17 9 -0.3951 1.0185
-27 17 9 2.9780 0.4862
-25 17 9 10.1569 -0.4375
-23 17 9 1.5116 -1.2664
-21 17 9 -5.2151 1.3320
-19 17 9 -11.2062 1.5560
-17 17 9 -14.3551 -0.6233
-15 17 9 6.8130 -1.7288
-13 17 9 -9.9625 -0.4705
-11 17 9 -14.1029 0.6042
-9 17 9 7.8064 -0.2326
-7 17 9 -6.0542 -0.6487
-5 17 9 43.2039 0.1031
-3 17 9 -9.6780 -0.3025
-1 17 9 -14.5493 -1.4638
1 17 9 -19.2355 -1.0903
3 17 9 -58.2503 0.9530
5 17 9 0.4701 1.4677
7 17 9 12.9572 -0.3432
9 17 9 -6.6459 -1.5956
11 17 9 -15.6786 -0.3072
13 17 9 0.5981 1.4384
15 17 9 -31.9131 1.0685
17 17 9 13.0403 -0.1804
19 17 9 -1.2733 -0.4961
21 17 9 -3.4944 0.3308
23 17 9 14.2442 0.1887
25 17 9 -7.3109 -0.3713
27 17 9 -8.0505 0.5728
29 17 9 14.7194 0.6617
31 17 9 -1.6808 -0.2271
-32 18 9 11.8362 -1.0021
-30 18 9 11.5352 -0.4493
-28 18 9 -0.0060 0.2819
-26 18 9 2.9352 -0.4262
-24 18 9 -11.8208 0.1575
-22 18 9 2.4714 0.9139
-20 18 9 -7.1966 -0.3128
-18 18 9 -2.6653 -1.1072
-16 18 9 -5.2977 0.3059
-14 18 9 -1.3676 0.9802
-12 18 9 17.0091 -0.3486
-10 18 9 -15.3053 -1.2738
-8 18 9 -7.8000 -0.6491
-6 18 9 20.1377 0.2089
-4 18 9 -19.0875 0.2532
-2 18 9 29.0062 0.2614
0 18 9 -46.6609 0.4080
2 18 9 8.3923 -0.0240
4 18 9 -24.9522 -0.8535
6 18 9 -3.5105 -0.3468
8 18 9 13.9042 1.3268
10 18 9 -33.6009 1.0203
12 18 9 63.8950 -1.2195
14 18 9 10.8467 -1.5085
16 18 9 -15.4662 0.3392
18 18 9 -8.5307 0.7386
20 18 9 -7.3245 -0.5397
22 18 9 -21.0914 -0.8086
24 18 9 -15.6425 0.7341
26 18 9 0.8335 0.3555
28 18 9 2.8409 0.1414
30 18 9 -10.6020 -0.4521
-31 19 9 4.8383 2.4431
-29 19 9 6.6397 0.8013
-27 19 9 -6.0710 -1.5627
-25 19 9 -4.6981 -0.5505
-23 19 9 -23.9311 1.7835
-21 19 9 -19.2034 1.5336
-19 19 9 -2.9965 -0.9861
-17 19 9 -4.3970 -0.8624
-15 19 9 -11.5771 1.1552
-13 19 9 14.1975 0.9447
-11 19 9 7.0751 -0.4298
-9 19 9 13.4342 -0.1127
-7 19 9 1.4451 0.5623
-5 19 9 16.9427 -0.7175
-3 19 9 -3.5143 -1.6844
-1 19 9 -10.2182 -0.3602
1 19 9 25.6167 0.7251
3 19 9 -12.4084 0.2395
5 19 9 1.7260 -0.9814
7 19 9 -9.9312 -1.1880
9 19 9 -4.6399 0.4664
11 19 9 11.5830 1.4049
13 19 9 -10.1135 -0.1617
15 19 9 -9.0168 -0.7177
17 19 9 5.3150 0.9203
19 19 9 -9.1063 1.0086
21 19 9 -6.9191 -1.1466
23 19 9 3.6367 -1.0793
25 19 9 0.0466 1.0230
27 19 9 -26.4773 0.2031
29 19 9 5.4468 -1.1190
-30 20 9 1.1914 0.5600
-28 20 9 -6.0338 -0.7296
-26 20 9 0.0556 0.2336
-24 20 9 -11.8888 1.0412
-22 20 9 11.8016 -0.3523
-20 20 9 9.4050 -1.2080
-18 20 9 6.5184 -0.0647
-16 20 9 -15.9407 0.6999
-14 20 9 6.0051 -0.0145
-12 20 9 10.5819 -0.1479
-10 20 9 -6.0753 0.1678
-8 20 9 14.2690 -0.5547
-6 20 9 11.6927 -1.0601
-4 20 9 3.8603 0.3419
-2 20 9 -20.2290 1.7430
0 20 9 -12.3077 0.6697
2 20 9 -0.0426 -0.8638
4 20 9 -12.6350 -0.1415
6 20 9 -10.6500 0.7061
8 20 9 16.5863 -0.1326
10 20 9 4.1529 0.3784
12 20 9 -1.5893 1.0531
14 20 9 -0.1973 -0.8072
16 20 9 12.5949 -2.0785
18 20 9 -15.6401 -0.4739
20 20 9 -17.0767 1.3778
22 20 9 -16.0910 -0.3166
24 20 9 -23.9499 -1.3445
26 20 9 -1.1483 0.0456
28 20 9 -2.7440 0.3527
30 20 9 -3.0228 -0.9646
-29 21 9 7.9131 0.1085
-27 21 9 -4.0488 0.3035
-25 21 9 2.8920 0.3705
-23 21 9 6.4234 -0.7082
-21 21 9 -7.1723 -0.6124
-19 21 9 13.3376 1.0541
-17 21 9 12.8350 0.6319
-15 21 9 4.2475 -0.7904
-13 21 9 -13.5800 -0.5300
-11 21 9 7.3471 1.3867
-9 21 9 -4.8654 1.4354
-7 21 9 -10.7889 -1.2346
-5 21 9 4.7269 -1.5278
-3 21 9 19.0552 1.2610
-1 21 9 -3.1030 1.9288
1 21 9 21.0911 -1.1263
3 21 9 8.0749 -1.2775
5 21 9 -19.4100 1.0723
7 21 9 -20.5924 0.4247
9 21 9 20.1720 -2.0627
11 21 9 11.2327 -0.6242
13 21 9 -8.0714 1.7876
15 21 9 -5.1700 0.4486
17 21 9 27.9957 -2.1319
19 21 9 -16.0795 -0.6824
21 21 9 -18.0956 1.5685
23 21 9 9.4268 0.5695
25 21 9 0.1676 -1.4373
27 21 9 -8.3839 -0.2048
29 21 9 1.1164 0.7966
-28 22 9 -1.6361 -0.3202
-26 22 9 -4.3693 0.8650
-24 22 9 -5.1621 -1.5384
-22 22 9 1.7156 -1.0963
-20 22 9 2.8765 0.9224
-18 22 9 -8.9129 0.8930
-16 22 9 -11.8484 -0.8309
-14 22 9 -18.1478 -0.5917
-12 22 9 -6.0368 1.1231
-10 22 9 4.2486 0.8578
-8 22 9 11.7366 -0.3435
-6 22 9 -20.0042 -0.1003
-4 22 9 -8.2810 0.6391
-2 22 9 -35.5313 0.2428
0 22 9 17.7536 0.1114
2 22 9 11.1526 0.1054
4 22 9 14.8591 0.0644
6 22 9 -2.6502 0.1251
8 22 9 -10.7793 -0.1360
10 22 9 21.3093 -0.5511
12 22 9 -25.9006 -0.1277
14 22 9 -1.4634 0.9802
16 22 9 24.4310 -0.1839
18 22 9 -21.0990 -1.9632
20 22 9 -3.3841 -0.7596
22 22 9 -13.7710 0.9300
24 22 9 -0.1631 0.6406
26 22 9 6.4694 -0.3616
28 22 9 -2.2640 -1.1549
-27 23 9 -5.4786 -0.0885
-25 23 9 -6.5957 -1.2120
-23 23 9 5.9801 0.2391
-21 23 9 -1.6845 1.5267
-19 23 9 9.3413 -0.4362
-17 23 9 2.4857 -1.1295
-15 23 9 14.4687 1.0637
-13 23 9 -8.0289 1.3419
-11 23 9 0.3619 -0.9285
-9 23 9 3.4080 -0.6159
-7 23 9 -7.5348 1.8854
-5 23 9 15.9079 1.0607
-3 23 9 20.0634 -1.6344
-1 23 9 -8.9958 -0.6322
1 23 9 2.4721 2.0150
3 23 9 3.3585 0.3901
5 23 9 -24.2761 -1.7317
7 23 9 -21.2934 0.1730
9 23 9 17.2883 1.4811
11 23 9 -5.6040 -1.1272
13 23 9 3.3262 -2.0492
15 23 9 9.3708 1.1212
17 23 9 23.3283 1.3985
19 23 9 4.2722 -1.1999
21 23 9 -10.5535 -1.4784
23 23 9 -1.7847 0.6516
25 23 9 -6.1655 1.2785
27 23 9 13.1692 -1.1057
-28 24 9 0.4065 -0.3910
-26 24 9 1.3529 -1.3277
-24 24 9 6.2517 0.1118
-22 24 9 6.9111 1.3584
-20 24 9 -7.3568 -0.4893
-18 24 9 10.3698 -0.8494
-16 24 9 -1.8035 1.1930
-14 24 9 -12.4291 1.2296
-12 24 9 9.5408 -1.4778
-10 24 9 1.7463 -1.4100
-8 24 9 -21.5036 1.6380
-6 24 9 -17.3843 1.8588
-4 24 9 1.6994 -0.8901
-2 24 9 7.5425 -1.7365
0 24 9 20.0641 0.5787
2 24 9 20.0357 1.8377
4 24 9 -4.2301 -0.0627
6 24 9 3.9548 -1.2567
8 24 9 -9.3166 0.0457
10 24 9 2.5401 0.9670
12 24 9 9.8645 -0.3673
14 24 9 -7.9825 -0.9599
16 24 9 16.8297 0.3866
18 24 9 -0.9892 0.8694
20 24 9 -9.7786 -0.7140
22 24 9 3.7444 -1.2703
24 24 9 18.2233 0.9554
26 24 9 -11.6575 0.8397
-27 25 9 -6.6690 -0.3862
-25 25 9 -9.6073 -0.4726
-23 25 9 -19.4753 0.3384
-21 25 9 22.0491 -0.3932
-19 25 9 -5.4495 -0.7260
-17 25 9 21.9452 0.6179
-15 25 9 13.4481 0.9422
-13 25 9 7.7467 -0.4105
-11 25 9 -12.4495 -0.7197
-9 25 9 23.0361 0.7286
-7 25 9 4.6147 1.0614
-5 25 9 -8.6212 -0.2100
-3 25 9 20.8905 -0.5186
-1 25 9 7.0555 0.3432
1 25 9 -11.6584 0.1532
3 25 9 12.7405 -0.2524
5 25 9 -15.6156 0.1942
7 25 9 -10.7518 0.3495
9 25 9 1.4941 -0.0417
11 25 9 -1.4993 -0.6605
13 25 9 -10.1734 -0.8324
15 25 9 5.1616 0.3387
17 25 9 6.1765 0.3162
19 25 9 -8.5840 -0.1520
21 25 9 -1.5890 -0.1708
23 25 9 3.7185 -0.4938
25 25 9 -0.8615 -0.5613
-26 26 9 -8.9730 -0.0789
-24 26 9 -7.6380 -0.6756
-22 26 9 -8.7336 -0.5310
-20 26 9 -12.2123 -0.2712
-18 26 9 -10.7339 1.0551
-16 26 9 -21.1782 0.4561
-14 26 9 -1.4458 -1.0648
-12 26 9 -3.2571 -0.5523
-10 26 9 -12.9751 0.4612
-8 26 9 -21.0187 0.3472
-6 26 9 11.4648 -0.4249
-4 26 9 5.3804 0.3432
-2 26 9 -9.6978 1.0982
0 26 9 9.8554 -0.6221
2 26 9 -1.0195 -1.6990
4 26 9 -6.4572 0.0383
6 26 9 2.6419 1.4776
8 26 9 -21.8325 0.0588
10 26 9 5.8748 -0.7968
12 26 9 5.8474 0.1347
14 26 9 -9.4440 0.6953
16 26 9 -1.4718 -0.4984
18 26 9 5.5966 -0.5366
20 26 9 -3.1915 0.9806
22 26 9 0.5243 0.6173
24 26 9 10.7681 -0.5246
-25 27 9 -10.7144 -1.4508
-23 27 9 -32.9065 -0.7691
-21 27 9 0.4004 0.5309
-19 27 9 -32.4981 0.4303
-17 27 9 3.4761 -0.0073
-15 27 9 3.1438 -0.1200
-13 27 9 8.7092 0.6543
-11 27 9 -18.7408 0.3327
-9 27 9 20.0458 -0.9734
-7 27 9 -5.5898 -0.7947
-5 27 9 -16.3654 0.1354
-3 27 9 30.1526 0.4970
-1 27 9 -1.3276 -0.0220
1 27 9 -12.0870 -0.6327
3 27 9 10.5786 -0.5751
5 27 9 -0.6287 0.0148
7 27 9 -11.5155 0.3902
9 27 9 -3.2832 0.6085
11 27 9 1.7968 -0.0633
13 27 9 -3.1079 -0.0598
15 27 9 12.2378 0.0423
17 27 9 -4.2353 -0.1227
19 27 9 -8.4491 0.1861
21 27 9 19.3855 0.2701
23 27 9 4.0048 0.5802
-24 28 9 8.0600 0.8955
-22 28 9 -8.4541 2.0135
-20 28 9 17.4351 -0.7480
-18 28 9 -2.7193 -1.0725
-16 28 9 2.5705 0.5109
-14 28 9 7.3189 0.7472
-12 28 9 -5.6099 -0.5013
-10 28 9 -10.7550 -0.5063
-8 28 9 -4.5264 -0.0605
-6 28 9 -13.7903 0.3122
-4 28 9 -4.3490 -0.2068
-2 28 9 6.9426 -0.3451
0 28 9 -6.0812 0.2688
2 28 9 -14.1221 -0.0858
4 28 9 -6.1801 -0.6544
6 28 9 0.9083 0.3661
8 28 9 -11.3357 0.6911
10 28 9 -6.6520 0.0302
12 28 9 -0.2057 -0.3637
14 28 9 3.7973 -0.3469
16 28 9 -2.3370 -0.2197
18 28 9 9.6865 0.7195
20 28 9 0.9063 1.1192
22 28 9 -0.3977 -0.3538
-23 29 9 -2.3706 0.0239
-21 29 9 4.3739 -0.6940
-19 29 9 2.8988 -0.9244
-17 29 9 -4.0884 0.3262
-15 29 9 -2.1805 0.9632
-13 29 9 13.5651 -0.0208
-11 29 9 -12.5033 -1.1354
-9 29 9 12.7831 -0.5445
-7 29 9 -6.3653 0.1397
-5 29 9 -10.5020 0.0514
-3 29 9 15.4335 -0.3235
-1 29 9 11.7434 -0.1646
1 29 9 5.7489 0.4791
3 29 9 4.7076 -0.2488
5 29 9 16.1537 -1.0388
7 29 9 -22.0600 0.0405
9 29 9 12.3624 1.1383
11 29 9 7.0999 0.5855
13 29 9 -3.9620 -0.4711
15 29 9 2.0660 -0.6994
17 29 9 -31.0144 -0.2775
19 29 9 -12.0174 0.9014
21 29 9 4.8220 -0.1338
-20 30 9 0.8704 -0.6788
-18 30 9 -1.4683 -0.0805
-16 30 9 -18.0846 0.4975
-14 30 9 2.3803 -0.0907
-12 30 9 -14.6688 -0.4569
-10 30 9 4.4803 0.3223
-8 30 9 2.6963 0.4245
-6 30 9 14.7176 -0.6050
-4 30 9 4.4661 -0.6107
-2 30 9 3.0938 0.5884
0 30 9 6.7800 0.6735
2 30 9 2.4963 -0.2596
4 30 9 -11.8462 -0.1969
6 30 9 0.2503 0.6420
8 30 9 2.4735 0.3101
10 30 9 -5.7870 -0.1422
12 30 9 5.3141 0.1089
14 30 9 4.1958 0.6795
16 30 9 -0.7474 0.0118
18 30 9 11.9058 -0.5102
20 30 9 6.9147 0.3957
-19 31 9 -1.5622 1.9213
-17 31 9 5.5835 0.3901
-15 31 9 -1.6410 -0.7627
-13 31 9 3.5112 0.1421
-11 31 9 -5.3497 0.2746
-9 31 9 19.5445 -0.1039
-7 31 9 -5.4557 -0.3026
-5 31 9 -4.5749 -0.2069
-3 31 9 1.8248 -0.3124
-1 31 9 -9.5299 -0.1334
1 31 9 7.9724 -0.2243
3 31 9 -1.1503 0.1034
5 31 9 15.0504 0.5169
7 31 9 -13.2723 -0.0148
9 31 9 4.2962 -0.5805
11 31 9 -12.5545 -0.0885
13 31 9 -0.0552 0.4217
15 31 9 -5.5796 0.5542
17 31 9 -6.9778 -0.8540
19 31 9 -0.9797 -0.0633
-18 32 9 9.9186 -0.3156
-16 32 9 -6.5572 -0.4753
-14 32 9 5.0445 0.6118
-12 32 9 1.9016 0.5195
-10 32 9 9.8862 -0.4939
-8 32 9 -1.7978 -0.0512
-6 32 9 5.6500 0.5386
-4 32 9 9.3633 0.2400
-2 32 9 -2.1928 0.2168
0 32 9 -4.7267 0.3644
2 32 9 4.3398 0.2945
4 32 9 -4.0166 -0.0559
6 32 9 -3.9786 0.1378
8 32 9 0.3391 0.0968
10 32 9 0.5821 -0.1694
12 32 9 -12.4326 -0.1790
14 32 9 2.2968 0.6829
16 32 9 6.4466 -0.1736
-15 33 9 1.8125 0.7705
-13 33 9 -8.0991 0.9049
-11 33 9 -1.1911 -0.4225
-9 33 9 11.2014 -0.5921
-7 33 9 -11.3711 1.0942
-5 33 9 -3.2115 0.2986
-3 33 9 13.5081 -1.3884
-1 33 9 -37.3673 -0.4905
1 33 9 11.7094 0.9710
3 33 9 -13.0738 0.1304
5 33 9 17.2861 -0.7927
7 33 9 -5.1867 -0.1319
9 33 9 5.9393 0.9479
11 33 9 -11.1989 -0.2232
13 33 9 4.8533 -1.4196
15 33 9 -15.1842 0.1074
-14 34 9 -0.6421 1.2477
-12 34 9 8.5529 -0.6112
-10 34 9 7.1245 -1.4562
-8 34 9 0.6214 0.7172
-6 34 9 9.2966 1.7401
-4 34 9 3.1038 -0.1291
-2 34 9 8.1354 -0.8713
0 34 9 10.2115 1.0933
2 34 9 14.5982 1.5719
4 34 9 4.8396 -0.7388
6 34 9 1.2246 -1.4448
8 34 9 -1.8281 0.9295
10 34 9 -4.1745 1.3220
12 34 9 -5.8245 -0.8707
-11 35 9 3.1989 -0.2255
-9 35 9 7.0291 -0.0346
-7 35 9 11.2250 0.9096
-5 35 9 -4.7319 -0.6059
-3 35 9 34.8959 -0.6290
-1 35 9 -3.3142 0.0253
1 35 9 8.8738 0.8965
3 35 9 -21.1401 -0.6982
5 35 9 4.7826 -0.7328
7 35 9 -16.2138 0.2710
9 35 9 3.4975 0.4997
11 35 9 -12.6644 0.2565
-8 36 9 -10.2113 -0.4458
-6 36 9 6.3484 -0.4156
-4 36 9 -14.0843 0.2727
-2 36 9 -19.7916 0.4935
0 36 9 -5.0989 0.1714
2 36 9 -3.0927 -0.3962
4 36 9 -13.1290 -0.2656
6 36 9 -4.4393 -0.2471
8 36 9 0.4523 -0.3351
-1 37 9 1.4069 -0.7391
-36 0 10 -3.7835 5.4989
-34 0 10 15.8377 -1.8899
-32 0 10 16.2714 -5.7458
-30 0 10 10.3737 0.1925
-28 0 10 -32.7525 -0.4130
-26 0 10 14.9808 -7.0663
-24 0 10 -12.2172 -1.5239
-22 0 10 -15.1367 7.2744
-20 0 10 23.5264 -4.1169
-18 0 10 22.7414 -19.6101
-16 0 10 -16.2338 -6.7879
-14 0 10 -37.4259 18.9559
-12 0 10 -23.7447 23.4890
-10 0 10 84.8683 12.9540
-8 0 10 49.4896 11.3171
-6 0 10 -80.7076 17.8762
-4 0 10 -129.7783 19.4499
-2 0 10 254.6042 21.5584
0 0 10 -452.3904 25.6851
2 0 10 -13.2254 13.5543
4 0 10 0.9585 -14.5901
6 0 10 158.7553 -31.1005
8 0 10 33.0291 -18.3342
10 0 10 22.0176 -2.1756
12 0 10 -11.2592 -8.6866
14 0 10 -18.6350 -17.9529
16 0 10 -20.3243 -13.3385
18 0 10 30.4466 -8.8867
20 0 10 29.3577 -7.8914
22 0 10 -14.9619 2.2407
24 0 10 29.2503 12.8397
26 0 10 15.7523 4.2232
28 0 10 -0.5751 -8.1864
30 0 10 -0.0041 -3.1283
32 0 10 -4.4339 5.5883
34 0 10 3.1628 2.8687
-35 1 10 -4.3270 -3.4728
-33 1 10 -16.9014 -8.4397
-31 1 10 6.4132 0.9234
-29 1 10 -3.4185 11.3182
-27 1 10 6.7429 -3.0448
-25 1 10 -26.8292 -15.4881
-23 1 10 -23.8570 3.1668
-21 1 10 5.3615 16.5027
-19 1 10 -13.3618 -6.3612
-17 1 10 6.4098 -15.0183
-15 1 10 54.4032 17.1580
-13 1 10 -16.3103 20.2069
-11 1 10 -10.3422 -20.8130
-9 1 10 13.7416 -15.9875
-7 1 10 24.5075 37.9773
-5 1 10 -8.8490 30.8609
-3 1 10 -87.7426 -30.2005
-1 1 10 115.3626 -23.3786
1 1 10 -126.4117 31.1634
3 1 10 4.3945 17.8032
5 1 10 58.2138 -27.7209
7 1 10 27.9466 -6.4634
9 1 10 -19.4166 25.7762
11 1 10 -22.9375 -8.5600
13 1 10 27.8883 -36.0915
15 1 10 -49.0731 2.8090
17 1 10 -5.9508 29.3992
19 1 10 -3.5750 -3.2447
21 1 10 -2.9650 -24.9091
23 1 10 -10.3084 -1.7891
25 1 10 -12.1847 12.9266
27 1 10 -30.9584 -1.0715
29 1 10 6.8460 -5.3485
31 1 10 -5.6724 4.3599
33 1 10 -8.2294 3.0908
35 1 10 9.1827 -4.4163
-36 2 10 -4.1952 -0.4028
-34 2 10 -0.2912 0.5024
-32 2 10 0.2205 0.9557
-30 2 10 12.3640 1.1233
-28 2 10 -5.9302 -0.7365
-26 2 10 3.7609 0.0761
-24 2 10 -0.2795 0.0572
-22 2 10 -4.8646 -2.0257
-20 2 10 33.3332 -3.0240
-18 2 10 26.0518 0.4266
-16 2 10 8.0530 1.2289
-14 2 10 14.9390 -2.0751
-12 2 10 -40.2024 -1.0163
-10 2 10 -37.7224 3.2199
-8 2 10 24.6054 2.4743
-6 2 10 30.3989 2.4825
-4 2 10 -143.1977 6.7803
-2 2 10 86.5938 7.3737
0 2 10 19.6533 -0.1297
2 2 10 93.1722 -2.9621
4 2 10 86.6135 2.0081
6 2 10 -30.4639 0.9441
8 2 10 -155.3240 -3.0496
10 2 10 -30.4990 -2.2238
12 2 10 31.1136 -1.4991
14 2 10 47.0598 -4.1818
16 2 10 -29.2477 -3.7217
18 2 10 45.4958 1.3921
20 2 10 -0.2892 3.6381
22 2 10 -3.4399 0.3863
24 2 10 6.5178 -1.3799
26 2 10 -8.2184 -0.2349
28 2 10 -7.6013 0.6397
30 2 10 -3.8416 0.8794
32 2 10 -7.4366 1.4656
34 2 10 0.2302 0.4891
-35 3 10 11.0611 -0.0029
-33 3 10 -2.1844 -3.3648
-31 3 10 2.8256 0.0890
-29 3 10 -1.6885 1.9332
-27 3 10 13.0296 0.3294
-25 3 10 -8.5391 -2.8784
-23 3 10 10.7911 -0.8844
-21 3 10 1.6709 1.9554
-19 3 10 -32.5395 0.2293
-17 3 10 -31.3500 0.3771
-15 3 10 19.0941 5.0789
-13 3 10 -147.4695 2.0036
-11 3 10 -14.3535 -5.1966
-9 3 10 43.0628 -0.4905
-7 3 10 2.3153 9.4042
-5 3 10 -68.7646 4.7201
-3 3 10 134.8005 -5.5715
-1 3 10 -7.9534 -3.6008
1 3 10 -108.2834 2.5164
3 3 10 6.3576 0.9688
5 3 10 22.3357 -0.9314
7 3 10 44.6059 1.6377
9 3 10 -20.4945 -0.5872
11 3 10 33.7769 -7.3782
13 3 10 -37.7329 -4.0484
15 3 10 16.3366 6.0885
17 3 10 -9.5532 5.0849
19 3 10 -17.5816 -3.9828
21 3 10 8.1557 -4.9070
23 3 10 -20.6282 -0.0616
25 3 10 3.8531 1.1354
27 3 10 0.0603 1.2143
29 3 10 3.0536 2.5588
31 3 10 -11.1189 0.4372
33 3 10 -12.7096 -3.7451
35 3 10 4.7603 -1.4000
-36 4 10 -2.0278 -1.0734
-34 4 10 -17.7141 -0.4601
-32 4 10 8.4598 -1.9768
-30 4 10 12.1053 2.0553
-28 4 10 -3.7567 4.3026
-26 4 10 -18.9266 -1.9133
-24 4 10 -4.2494 -5.1191
-22 4 10 1.0725 -0.3175
-20 4 10 35.1207 3.1492
-18 4 10 25.0035 -0.7498
-16 4 10 24.9830 -1.5439
-14 4 10 23.8647 1.7786
-12 4 10 27.0958 -3.4397
-10 4 10 27.9078 -8.4413
-8 4 10 -25.3253 1.7508
-6 4 10 -7.8062 13.1069
-4 4 10 -60.0803 4.8075
-2 4 10 11.9207 -7.8575
2 4 10 -297.6937 5.1686
4 4 10 16.9964 3.4480
6 4 10 169.3812 1.4712
8 4 10 -34.1936 4.8897
10 4 10 22.8163 -1.2920
12 4 10 2.5391 -11.6226
14 4 10 12.6756 -4.8172
16 4 10 -34.4916 7.4509
18 4 10 8.0201 5.1106
20 4 10 -15.7119 -4.7081
22 4 10 15.3428 -4.9432
24 4 10 14.6005 -0.1394
26 4 10 -22.3826 -0.2287
28 4 10 8.2787 -0.1515
30 4 10 7.5516 2.8067
32 4 10 11.2889 1.2766
34 4 10 -5.7163 -3.4147
-35 5 10 21.7433 -1.2833
-33 5 10 4.1591 -3.9219
-31 5 10 -18.6165 1.6740
-29 5 10 -10.4443 6.0617
-27 5 10 -5.5596 -0.9019
-25 5 10 -12.6827 -7.0400
-23 5 10 20.2278 1.4884
-21 5 10 -5.3209 5.9579
-19 5 10 -0.8193 -4.5824
-17 5 10 -1.1055 -5.2034
-15 5 10 12.7822 9.9645
-13 5 10 -5.2202 7.1758
-11 5 10 -8.1524 -14.3926
-9 5 10 -27.7617 -11.1292
-7 5 10 78.4149 14.8427
-5 5 10 44.0227 12.3110
-3 5 10 -65.6705 -12.8733
-1 5 10 9.4963 -8.6940
1 5 10 -10.1817 12.3440
3 5 10 -50.2835 1.5856
5 5 10 90.9448 -15.5666
7 5 10 -57.3532 1.8643
9 5 10 -50.2969 17.5906
11 5 10 5.1744 -2.0037
13 5 10 -18.8633 -16.3423
15 5 10 -7.5403 1.4615
17 5 10 8.0531 13.4435
19 5 10 40.8068 0.1242
21 5 10 7.8334 -7.0250
23 5 10 -16.7635 2.7990
25 5 10 -6.1992 5.2010
27 5 10 2.3702 -3.3947
29 5 10 -8.7995 -3.9077
31 5 10 -1.0939 3.2361
33 5 10 0.6760 3.5343
35 5 10 3.2794 -0.6176
-36 6 10 -3.8427 -1.5044
-34 6 10 -4.1775 -2.4665
-32 6 10 3.7501 -1.1034
-30 6 10 1.8602 1.9196
-28 6 10 -7.3004 -0.3907
-26 6 10 -3.6811 -1.1391
-24 6 10 -18.7641 1.3862
-22 6 10 -9.9125 2.0136
-20 6 10 7.3911 -1.9274
-18 6 10 -2.0103 -3.2252
-16 6 10 4.6163 2.3481
-14 6 10 5.9852 4.0980
-12 6 10 -28.8754 -2.5234
-10 6 10 -23.8754 -5.0188
-8 6 10 4.3943 1.1290
-6 6 10 -65.2174 1.6121
-4 6 10 -36.6621 -4.1319
-2 6 10 -44.0006 -2.9726
0 6 10 -45.8931 2.9098
2 6 10 -87.5792 2.7163
4 6 10 65.6422 -0.4503
6 6 10 58.1679 -0.0406
10 6 10 21.3655 1.4151
12 6 10 39.7570 0.6368
14 6 10 -18.6927 0.6099
16 6 10 4.0207 1.8353
18 6 10 -25.6841 1.3290
20 6 10 -19.4887 -1.9325
22 6 10 0.1487 -3.3706
24 6 10 0.0508 0.6488
26 6 10 -43.1674 3.4729
28 6 10 15.1584 0.7996
30 6 10 -8.4383 -2.3516
32 6 10 1.4093 -1.1673
34 6 10 -23.5073 0.6718
-35 7 10 5.5289 0.4463
-33 7 10 -10.7805 3.0001
-31 7 10 -2.5054 1.4892
-29 7 10 -6.2338 -1.4945
-27 7 10 -9.9626 -1.4064
-25 7 10 -5.1462 2.5563
-23 7 10 15.9965 1.7392
-21 7 10 6.1499 -1.4094
-19 7 10 -4.2457 0.0979
-17 7 10 -5.0436 1.3421
-15 7 10 -27.7581 -2.2014
-13 7 10 9.4191 -2.8468
-11 7 10 56.2236 2.9020
-9 7 10 -11.1666 2.6989
-7 7 10 55.9450 -3.2205
-5 7 10 18.0624 -2.4350
-3 7 10 -1.3219 3.3383
-1 7 10 52.3527 2.9387
1 7 10 -143.8630 -2.9974
3 7 10 -53.9035 -4.1948
5 7 10 139.7006 1.0594
7 7 10 45.3294 1.3670
9 7 10 7.1562 -2.4148
11 7 10 21.5256 -0.4305
13 7 10 -34.1142 2.4889
15 7 10 -48.0812 -1.8113
17 7 10 -25.3417 -4.5314
19 7 10 25.2845 1.7952
21 7 10 6.5348 5.4818
23 7 10 8.9531 0.3713
25 7 10 13.7202 -3.3511
27 7 10 -9.6842 -1.3727
29 7 10 -17.6903 1.1256
31 7 10 1.9637 0.1376
33 7 10 -11.9005 -0.0854
35 7 10 -4.0353 0.3272
-34 8 10 10.3372 0.2717
-32 8 10 -5.6088 -0.1875
-30 8 10 -3.1775 -2.6341
-28 8 10 -20.6552 -0.4999
-26 8 10 1.7250 3.0423
-24 8 10 -22.9802 1.2067
-22 8 10 -5.6925 -3.1602
-20 8 10 24.8360 -0.8640
-18 8 10 18.6401 2.9431
-16 8 10 -2.9356 0.2391
-14 8 10 37.6550 -3.0994
-12 8 10 19.9863 0.2876
-10 8 10 -29.6885 2.3028
-8 8 10 -9.9797 -5.2584
-6 8 10 -80.0586 -10.1839
-4 8 10 33.5964 -1.5219
-2 8 10 -34.8710 5.9082
0 8 10 10.5141 -1.0002
2 8 10 -97.2132 -6.0044
4 8 10 51.7264 0.1927
6 8 10 -16.1004 3.5582
8 8 10 21.3574 0.2970
10 8 10 -60.2408 0.6858
12 8 10 -11.2796 6.3520
14 8 10 14.6558 5.5037
16 8 10 11.6490 -3.2040
18 8 10 11.7602 -4.8089
20 8 10 -4.2828 2.8480
22 8 10 14.5970 4.6916
24 8 10 -11.3398 -1.0724
26 8 10 -22.1932 -2.7558
28 8 10 18.8830 0.0048
30 8 10 2.6377 0.4532
32 8 10 -7.4876 -1.5101
34 8 10 -0.4381 -0.5348
-35 9 10 -6.7814 0.6693
-33 9 10 -12.5738 0.1663
-31 9 10 2.6548 -1.1693
-29 9 10 2.4940 -1.6181
-27 9 10 0.7337 -1.0839
-25 9 10 26.9662 0.4194
-23 9 10 11.7873 1.5850
-21 9 10 19.1575 0.7819
-19 9 10 -1.7438 -2.7471
-17 9 10 -23.2966 -3.7261
-15 9 10 -18.9347 -0.0381
-13 9 10 -42.8819 3.3933
-11 9 10 -36.4727 3.2585
-9 9 10 -7.3994 0.5201
-7 9 10 0.7220 -1.4044
-5 9 10 0.0524 -2.2395
-3 9 10 106.8556 -0.1713
-1 9 10 42.5690 4.6505
3 9 10 66.7758 0.3951
5 9 10 -80.9326 -4.7665
7 9 10 -29.3268 -4.3309
9 9 10 -8.3148 1.3700
11 9 10 60.3986 3.0948
13 9 10 47.2507 0.7907
15 9 10 43.0794 -1.3780
17 9 10 16.1420 -2.2869
19 9 10 -11.7325 -2.5141
21 9 10 7.4803 -0.1982
23 9 10 -7.4059 2.4809
25 9 10 9.2949 1.8926
27 9 10 7.2375 -0.8637
29 9 10 16.8022 -1.7784
31 9 10 -2.8024 0.1051
33 9 10 -9.9266 0.9225
-34 10 10 7.4150 0.4519
-32 10 10 9.2133 0.6370
-30 10 10 12.1145 1.7146
-28 10 10 -8.7206 -0.5364
-26 10 10 10.7237 -1.4103
-24 10 10 -2.1414 1.9191
-22 10 10 -5.3611 3.8258
-20 10 10 9.0154 1.1714
-18 10 10 8.4016 -1.9637
-16 10 10 17.4498 -0.5962
-14 10 10 -3.5119 0.5446
-12 10 10 -4.6701 -0.9492
-10 10 10 10.6597 -1.5526
-8 10 10 19.1203 0.2715
-6 10 10 28.6134 -0.2175
-4 10 10 -4.6481 -4.6523
0 10 10 -60.2529 1.3476
2 10 10 -57.3103 2.6505
4 10 10 74.9050 -1.1901
6 10 10 -27.7697 -1.8385
8 10 10 41.1644 1.2398
10 10 10 15.9667 2.2283
12 10 10 -3.2095 0.6412
14 10 10 -17.7536 -0.3032
16 10 10 -22.4263 0.5744
18 10 10 -4.0619 1.1687
20 10 10 -0.1246 0.3335
22 10 10 24.0743 -0.4615
24 10 10 -1.4028 0.6909
26 10 10 1.4769 0.0005
28 10 10 -2.5788 -1.0137
30 10 10 -4.8596 -1.0045
32 10 10 -6.2218 1.3462
34 10 10 6.6626 0.0954
-35 11 10 -2.8555 -2.0779
-33 11 10 11.5726 -0.7817
-31 11 10 -3.1382 0.5656
-29 11 10 2.7412 -0.4773
-27 11 10 0.2698 -1.8425
-25 11 10 -3.2070 -0.1739
-23 11 10 6.0965 1.5453
-21 11 10 3.5111 -0.9705
-19 11 10 3.2112 -2.5046
-17 11 10 -29.4060 -0.0875
-15 11 10 -0.2421 1.9541
-13 11 10 11.4259 0.2521
-11 11 10 11.6286 -0.0597
-9 11 10 22.0962 1.7804
-7 11 10 5.5622 0.9851
-5 11 10 100.5066 -0.6202
-3 11 10 35.9145 0.4901
-1 11 10 9.3364 2.1325
1 11 10 4.0695 1.5394
3 11 10 17.7670 -0.1374
5 11 10 12.0259 -0.1811
7 11 10 53.1418 0.0101
9 11 10 10.1087 -0.3469
11 11 10 -10.1679 0.1160
13 11 10 -7.5384 0.4345
15 11 10 23.5747 -0.3698
17 11 10 -23.2990 -0.6909
19 11 10 -8.0462 -0.6970
21 11 10 19.4851 -0.8748
23 11 10 -5.0905 -0.8090
25 11 10 9.6627 0.7120
27 11 10 1.1515 0.5231
29 11 10 29.3751 -1.0406
31 11 10 -12.1094 -1.7155
33 11 10 -1.7377 -0.0948
-34 12 10 -7.5398 2.3479
-32 12 10 3.6966 1.1593
-30 12 10 3.7821 -0.6286
-28 12 10 3.4137 -1.7877
-26 12 10 17.6851 1.4593
-24 12 10 -2.4041 1.1700
-22 12 10 -13.6421 -1.4487
-20 12 10 -1.6447 -0.1805
-18 12 10 -8.1287 2.7951
-16 12 10 23.2359 0.6113
-14 12 10 -13.5381 -2.2766
-12 12 10 -0.1591 0.1911
-10 12 10 13.2329 2.7234
-8 12 10 19.3198 0.4141
-6 12 10 41.3449 -1.5950
-4 12 10 -1.7297 -0.4343
-2 12 10 -51.0076 0.2977
0 12 10 -4.1107 -1.3679
2 12 10 -20.3876 -2.4459
4 12 10 16.1071 -0.0167
6 12 10 -38.1944 2.1405
8 12 10 21.1987 -0.2857
10 12 10 -20.5645 -3.1358
12 12 10 21.5242 -0.7705
14 12 10 -7.5927 1.7206
16 12 10 31.9294 -0.0280
18 12 10 4.1379 -1.0236
20 12 10 -1.2679 1.4424
22 12 10 11.7343 0.8334
24 12 10 -0.4126 -2.0651
26 12 10 -1.2822 -0.7107
28 12 10 -12.2076 1.9180
30 12 10 4.8304 1.3815
32 12 10 -6.5039 -0.4145
-33 13 10 -5.1999 -0.1711
-31 13 10 -4.4039 -0.2609
-29 13 10 8.3495 -0.4742
-27 13 10 -5.1499 1.9174
-25 13 10 -6.9247 0.4571
-23 13 10 11.0704 -1.9559
-21 13 10 -3.9491 -1.0495
-19 13 10 9.2729 2.0822
-17 13 10 -5.0050 1.5588
-15 13 10 24.6082 -1.3311
-13 13 10 9.1724 -1.5541
-11 13 10 -6.8521 0.5270
-9 13 10 13.2837 0.5111
-7 13 10 0.6433 0.0503
-3 13 10 -69.0927 1.2037
-1 13 10 -29.0163 -0.4276
1 13 10 -0.9801 -0.7766
3 13 10 -11.8893 -0.1175
5 13 10 32.2989 2.1415
7 13 10 -17.0342 2.3944
9 13 10 13.4643 -1.2352
11 13 10 60.8882 -2.6991
13 13 10 14.2848 -0.1613
15 13 10 10.2592 1.4642
17 13 10 11.6443 -0.0352
19 13 10 8.8625 -1.1029
21 13 10 -11.5047 0.2214
23 13 10 -7.1943 0.2020
25 13 10 -8.2730 -1.5573
27 13 10 2.4774 -0.7097
29 13 10 13.1573 1.6600
31 13 10 -8.1891 1.2338
33 13 10 8.5067 -0.8180
-32 14 10 6.0591 -0.6584
-30 14 10 1.3948 -0.2365
-28 14 10 5.9839 0.5671
-26 14 10 11.9960 -0.4365
-24 14 10 -10.7742 -2.1466
-22 14 10 1.1535 -1.0755
-20 14 10 6.2948 0.5062
-18 14 10 7.3521 0.9298
-16 14 10 22.2264 0.2210
-14 14 10 0.2332 0.3800
-12 14 10 12.0449 0.1244
-10 14 10 0.2483 0.0363
-8 14 10 32.7853 1.0279
-6 14 10 8.2636 2.3974
-4 14 10 -0.9744 0.9983
-2 14 10 -25.6576 -1.6915
0 14 10 5.5321 -1.9179
2 14 10 -20.1873 -0.3609
4 14 10 -11.9843 0.4539
6 14 10 -14.7654 -0.5040
8 14 10 27.6933 -0.3551
10 14 10 17.3438 -0.0664
12 14 10 -18.8172 -1.5380
14 14 10 -29.3311 -1.4986
16 14 10 2.6238 1.2733
18 14 10 -31.7771 2.2491
20 14 10 -10.7378 -0.2318
22 14 10 -0.2619 -1.5433
24 14 10 14.0552 -0.3876
26 14 10 2.7288 0.8048
28 14 10 -26.2247 0.5203
30 14 10 1.8654 0.6651
32 14 10 -3.1803 1.6290
-33 15 10 -5.9364 -2.0920
-31 15 10 -5.4391 1.1514
-29 15 10 -1.6127 1.2342
-27 15 10 -13.2040 -0.1874
-25 15 10 4.1620 -0.9914
-23 15 10 -5.7804 0.5962
-21 15 10 -2.1166 0.9959
-19 15 10 1.1651 -0.2645
-17 15 10 -6.3850 -0.3426
-15 15 10 21.1871 0.6921
-13 15 10 41.9982 0.4502
-11 15 10 0.5013 -0.8354
-9 15 10 8.3123 -0.5885
-7 15 10 -37.0179 1.3680
-5 15 10 31.5996 2.0871
-3 15 10 -27.3795 -0.1241
-1 15 10 9.5561 -0.9309
1 15 10 67.2926 0.5247
3 15 10 -21.9389 1.4605
5 15 10 4.9083 0.1853
7 15 10 -12.4454 -0.0899
9 15 10 -44.3550 0.5353
11 15 10 -23.5262 -0.7235
13 15 10 38.9257 -1.6638
15 15 10 -36.3994 -0.4736
17 15 10 0.9841 0.9202
19 15 10 -0.8833 0.3523
21 15 10 -4.5303 -0.9322
23 15 10 2.6144 -0.7180
25 15 10 -21.6959 0.2251
27 15 10 -11.0010 0.5600
29 15 10 3.1459 0.1454
31 15 10 -6.8868 1.1160
-32 16 10 -8.7664 0.7761
-30 16 10 0.2086 1.1619
-28 16 10 3.3884 -0.8578
-26 16 10 14.7367 -0.0444
-24 16 10 -1.0509 0.9852
-22 16 10 4.9187 0.2321
-20 16 10 11.5492 -0.9825
-18 16 10 8.7991 0.6283
-16 16 10 -25.5908 1.3249
-14 16 10 -5.2474 -1.0438
-12 16 10 -17.5982 -0.7037
-10 16 10 -21.6118 1.6332
-8 16 10 40.2832 0.8286
-6 16 10 -18.9506 -1.2940
-4 16 10 -19.8707 0.0716
-2 16 10 57.8693 1.3072
0 16 10 -39.6396 -0.5712
2 16 10 4.3423 -1.2971
4 16 10 -13.6401 0.5121
6 16 10 -18.2123 0.2193
8 16 10 -23.1475 -1.5161
10 16 10 4.8559 0.1744
12 16 10 -5.8829 2.0130
14 16 10 3.5476 0.2526
16 16 10 17.9007 -2.0708
18 16 10 -0.3922 0.1028
20 16 10 4.0023 1.4830
22 16 10 2.4112 -0.4268
24 16 10 -5.8172 -1.1012
26 16 10 -3.0156 0.7012
28 16 10 -1.6272 0.7134
30 16 10 -19.1695 -1.9193
32 16 10 -0.9063 0.1451
-31 17 10 1.5863 1.3540
-29 17 10 11.2912 -1.1728
-27 17 10 -16.9483 -0.0471
-25 17 10 7.8673 1.0334
-23 17 10 -10.9036 -1.1619
-21 17 10 -12.1247 -2.4547
-19 17 10 0.5085 1.1097
-17 17 10 17.0312 2.0358
-15 17 10 -4.4863 -2.1461
-13 17 10 16.9193 -2.9239
-11 17 10 13.8654 1.5901
-9 17 10 -9.0912 1.9817
-7 17 10 14.3298 -2.0500
-5 17 10 14.4242 -1.4735
-3 17 10 -21.7198 2.2661
-1 17 10 -10.1729 1.2940
1 17 10 18.0197 -2.5293
3 17 10 -30.0227 -0.5264
5 17 10 -9.0195 3.1296
7 17 10 -2.3919 1.0739
9 17 10 7.3039 -2.6447
11 17 10 -11.2270 -0.6863
13 17 10 28.0075 2.4540
15 17 10 -5.5647 0.5058
17 17 10 1.4833 -1.7228
19 17 10 -9.5516 0.3932
21 17 10 -18.3391 2.0589
23 17 10 4.3635 -0.3264
25 17 10 5.7629 -1.8860
27 17 10 -7.6341 0.3306
29 17 10 6.9279 2.4613
31 17 10 -7.0624 0.8301
-32 18 10 -0.8295 0.1476
-30 18 10 -6.5373 -2.1878
-28 18 10 -0.1215 0.3578
-26 18 10 2.0776 2.6920
-24 18 10 -11.2383 0.0902
-22 18 10 15.7543 -1.9495
-20 18 10 11.1873 0.3791
-18 18 10 -0.4219 2.0869
-16 18 10 -23.6994 -1.2552
-14 18 10 32.3812 -2.5460
-12 18 10 -6.8050 1.9669
-10 18 10 1.5317 3.3063
-8 18 10 38.3895 -1.7762
-6 18 10 6.9618 -3.5334
-4 18 10 3.6890 1.0282
-2 18 10 -1.1561 3.4029
0 18 10 -1.0566 -0.2877
2 18 10 19.9236 -2.2658
4 18 10 -9.9404 1.1241
6 18 10 -10.3819 1.5653
8 18 10 4.1982 -2.9872
10 18 10 2.0008 -1.9674
12 18 10 -11.0713 3.4532
14 18 10 9.9384 2.7340
16 18 10 15.3597 -2.6283
18 18 10 8.2089 -2.0085
20 18 10 -5.7654 1.4571
22 18 10 6.1482 1.7281
24 18 10 -14.3256 -0.4691
26 18 10 -0.6355 0.2703
28 18 10 -8.2664 0.7710
30 18 10 -6.4176 0.9071
-31 19 10 -3.7869 -0.9565
-29 19 10 1.5967 0.8568
-27 19 10 -8.7423 0.6363
-25 19 10 9.2334 -1.4059
-23 19 10 10.0320 -1.1817
-21 19 10 3.9606 1.3028
-19 19 10 9.7718 1.4375
-17 19 10 -9.7388 -1.0274
-15 19 10 -26.5089 -1.8243
-13 19 10 -24.5295 0.0772
-11 19 10 19.5234 0.2606
-9 19 10 -1.5911 -0.6465
-7 19 10 4.4389 0.1575
-5 19 10 -27.0142 0.4521
-3 19 10 7.8169 -0.9320
-1 19 10 -21.5100 -1.0330
1 19 10 -7.0099 0.5064
3 19 10 21.0813 0.8281
5 19 10 3.2738 0.3094
7 19 10 -0.8976 0.7028
9 19 10 -12.3409 0.3822
11 19 10 -7.7713 -0.4965
13 19 10 -17.4543 0.1579
15 19 10 11.4298 1.1064
17 19 10 -0.6515 0.1673
19 19 10 -4.1388 -0.8697
21 19 10 -21.7059 -0.1833
23 19 10 6.1078 0.8018
25 19 10 3.9489 -0.1062
27 19 10 -2.9891 -0.7211
29 19 10 -2.3779 -0.2281
-30 20 10 5.0256 0.2116
-28 20 10 5.7296 1.4655
-26 20 10 5.5023 -0.1785
-24 20 10 -3.1230 0.2917
-22 20 10 17.4335 0.7631
-20 20 10 0.4720 -0.4792
-18 20 10 -18.2060 -1.4457
-16 20 10 -3.3566 0.0429
-14 20 10 -16.2934 1.3459
-12 20 10 -41.2770 -0.0874
-10 20 10 2.4276 -1.9048
-8 20 10 -3.5327 -0.8158
-6 20 10 -22.4587 0.9575
-4 20 10 15.5484 0.4328
-2 20 10 0.3626 -0.6816
0 20 10 19.9430 -0.0700
2 20 10 14.9462 0.8851
4 20 10 6.8631 0.2164
6 20 10 -19.7909 -1.4004
8 20 10 -24.0641 -0.5208
10 20 10 2.9938 0.9254
12 20 10 -34.2503 0.1962
14 20 10 9.6776 -0.3917
16 20 10 24.7275 0.2809
18 20 10 3.6369 0.9475
20 20 10 -6.4602 -0.6440
22 20 10 11.7496 -1.4153
24 20 10 17.5038 0.5831
26 20 10 13.1889 1.5898
28 20 10 -14.1391 -0.4457
-29 21 10 -15.4520 0.3084
-27 21 10 -6.6971 -0.9002
-25 21 10 -6.9362 0.6074
-23 21 10 12.4713 0.8958
-21 21 10 -8.1889 -0.1730
-19 21 10 21.7546 -0.5122
-17 21 10 -22.4969 0.2852
-15 21 10 -6.6590 0.1815
-13 21 10 -13.9658 -0.6458
-11 21 10 -11.0481 -0.5358
-9 21 10 -5.2950 -0.4200
-7 21 10 4.3054 -0.1055
-5 21 10 -9.0940 -0.0340
-3 21 10 -0.2259 -0.6913
-1 21 10 11.6946 -0.6584
1 21 10 2.7120 0.7093
3 21 10 11.3574 1.0163
5 21 10 -3.3582 -0.1554
7 21 10 -12.2656 -0.1540
9 21 10 6.7678 0.9587
11 21 10 17.4675 0.7348
13 21 10 -3.0093 -0.2856
15 21 10 -2.7560 -0.2228
17 21 10 -15.6081 0.6808
19 21 10 -7.4051 0.2825
21 21 10 -9.7604 -0.7546
23 21 10 7.9928 -0.1575
25 21 10 -2.0703 0.7342
27 21 10 7.3346 -0.7907
29 21 10 7.2398 -1.1142
-28 22 10 -3.8721 0.8645
-26 22 10 14.1038 1.4839
-24 22 10 -2.9692 0.0558
-22 22 10 11.9480 -1.6873
-20 22 10 -7.6207 -0.0310
-18 22 10 6.8595 1.4386
-16 22 10 40.2071 -0.0408
-14 22 10 -13.7052 -1.3546
-12 22 10 -25.8632 -0.1910
-10 22 10 2.0220 0.3264
-8 22 10 4.9433 -0.5761
-6 22 10 -2.3505 -0.4151
-4 22 10 20.3126 1.4890
-2 22 10 -3.7414 1.2454
0 22 10 7.2941 -1.3637
2 22 10 20.6025 -1.4671
4 22 10 -22.4755 1.2041
6 22 10 -1.1952 1.7584
8 22 10 -2.3934 -0.5660
10 22 10 13.1709 -1.3298
12 22 10 19.4827 0.0648
14 22 10 26.2979 0.1496
16 22 10 15.3974 -0.6386
18 22 10 -6.9232 0.4388
20 22 10 3.1335 0.9745
22 22 10 -4.7859 -0.1849
24 22 10 -9.5662 -1.1853
26 22 10 -2.8958 -0.7930
28 22 10 -2.5348 0.6505
-27 23 10 -9.8517 1.2051
-25 23 10 3.7551 0.5725
-23 23 10 7.2179 -1.3453
-21 23 10 3.5348 -0.0503
-19 23 10 -0.0685 0.9455
-17 23 10 -2.6203 -0.1377
-15 23 10 -1.0048 -0.6521
-13 23 10 7.7308 1.0656
-11 23 10 -9.0546 1.1788
-9 23 10 -6.7873 -0.8699
-7 23 10 -19.3290 -1.7088
-5 23 10 -4.5681 -0.1345
-3 23 10 -16.2184 1.3827
-1 23 10 9.2546 0.5168
1 23 10 -25.8817 -1.1579
3 23 10 2.2976 -0.6634
5 23 10 20.6089 0.4428
7 23 10 -1.2708 -0.0054
9 23 10 -36.7919 -0.6036
11 23 10 -19.6312 0.3235
13 23 10 6.9909 0.8403
15 23 10 -11.6580 -0.0928
17 23 10 -1.6990 -0.9701
19 23 10 0.5490 -0.5605
21 23 10 -9.1985 0.5517
23 23 10 3.1499 0.3807
25 23 10 -3.7516 -0.3464
27 23 10 -12.4943 -1.4738
-26 24 10 -2.8988 -1.0665
-24 24 10 -16.9550 -0.8908
-22 24 10 -15.9664 1.3543
-20 24 10 -28.6416 1.5235
-18 24 10 -7.8263 -0.8118
-16 24 10 13.2749 -0.6793
-14 24 10 -10.1691 1.0954
-12 24 10 -17.3227 0.4617
-10 24 10 -23.5644 -1.0305
-8 24 10 -11.1243 -0.1054
-6 24 10 16.5783 1.2674
-4 24 10 21.6883 0.3118
-2 24 10 -7.8644 -0.9060
0 24 10 5.5147 0.0222
2 24 10 -7.0148 0.4451
4 24 10 -7.0372 -0.5061
6 24 10 6.3050 -0.3988
8 24 10 3.0935 0.6714
10 24 10 -15.1531 0.1277
12 24 10 4.7346 -1.0134
14 24 10 5.8745 -1.2590
16 24 10 -18.8197 0.0971
18 24 10 -4.9326 0.7211
20 24 10 2.1267 -0.4209
22 24 10 29.2896 -0.4087
24 24 10 -6.3217 0.0102
26 24 10 -3.7446 -0.6436
-27 25 10 -17.4254 0.0069
-25 25 10 9.8288 0.5099
-23 25 10 -3.0814 1.3449
-21 25 10 -2.2529 0.0270
-19 25 10 0.5800 -1.3036
-17 25 10 -11.6506 -0.0547
-15 25 10 -8.4772 1.3899
-13 25 10 15.7849 0.6592
-11 25 10 -6.5716 -0.5045
-9 25 10 -1.5602 -0.4248
-7 25 10 -4.3249 -0.0616
-5 25 10 -2.1184 -0.4518
-3 25 10 9.7473 -0.0519
-1 25 10 -2.0216 0.9626
1 25 10 7.4663 0.7767
3 25 10 2.5889 -0.4907
5 25 10 4.2588 -1.2131
7 25 10 6.3250 -0.6351
9 25 10 -1.4962 0.5181
11 25 10 1.9379 1.1393
13 25 10 4.7802 -0.3322
15 25 10 -3.3568 -1.3874
17 25 10 0.7663 -0.0921
19 25 10 -2.8451 0.9169
21 25 10 0.6257 -0.2467
23 25 10 -31.4480 -0.5323
25 25 10 -13.4425 -0.5131
-26 26 10 -8.6199 0.0755
-24 26 10 -1.7514 0.5958
-22 26 10 -16.0326 0.2780
-20 26 10 -12.8151 -0.4016
-18 26 10 -8.5048 0.1108
-16 26 10 10.8952 0.2419
-14 26 10 -7.1555 -0.2839
-12 26 10 -7.5329 0.4285
-10 26 10 -11.0803 1.2935
-8 26 10 5.7004 0.2355
-6 26 10 -13.7441 -0.8218
-4 26 10 -0.5226 -0.3590
-2 26 10 2.3238 0.4596
0 26 10 13.4346 0.4326
2 26 10 -5.3993 0.1459
4 26 10 2.3169 -0.2910
6 26 10 -1.9011 -0.5419
8 26 10 -15.0507 -0.6236
10 26 10 1.7772 0.0017
12 26 10 2.7404 0.4774
14 26 10 3.8253 -0.0327
16 26 10 -9.4570 -0.8263
18 26 10 0.5231 -0.2401
20 26 10 -3.1996 0.4914
22 26 10 7.5169 0.3261
24 26 10 -5.8178 -1.2566
-25 27 10 7.2597 0.8430
-23 27 10 10.5538 -1.2499
-21 27 10 -13.2990 -0.5233
-19 27 10 15.2295 1.3421
-17 27 10 -7.4870 1.3480
-15 27 10 -2.3542 -0.8628
-13 27 10 -1.1100 -1.2675
-11 27 10 -13.1940 1.3763
-9 27 10 -4.3083 1.3750
-7 27 10 8.2088 -1.3745
-5 27 10 -16.6019 -1.0272
-3 27 10 3.4864 1.6835
-1 27 10 -13.3929 0.6984
1 27 10 -4.7214 -1.8758
3 27 10 6.0714 -0.9516
5 27 10 8.3022 1.5998
7 27 10 -18.3319 0.8137
9 27 10 -2.8488 -1.8224
11 27 10 -14.1904 -0.9905
13 27 10 0.5158 1.2551
15 27 10 1.0513 0.0778
17 27 10 3.3753 -1.5327
19 27 10 6.8927 0.6160
21 27 10 13.2750 0.7564
23 27 10 1.8382 -0.3122
-22 28 10 -2.4436 -0.0798
-20 28 10 3.9931 0.8675
-18 28 10 5.0004 0.5671
-16 28 10 -3.6623 -1.0448
-14 28 10 -3.4865 -0.4207
-12 28 10 2.0220 1.1416
-10 28 10 1.4005 0.9519
-8 28 10 8.1164 -0.6644
-6 28 10 -4.5055 -0.7211
-4 28 10 9.3463 0.3273
-2 28 10 -34.7427 0.5711
0 28 10 7.3451 -0.1252
2 28 10 -13.7651 -0.2874
4 28 10 -9.4691 0.2892
6 28 10 9.4541 0.4124
8 28 10 8.8825 -0.5020
10 28 10 20.4749 -0.7810
12 28 10 2.1369 0.1808
14 28 10 -1.3330 1.1164
16 28 10 -12.7069 0.4827
18 28 10 -8.7703 -0.6078
20 28 10 15.8031 -1.2227
22 28 10 -10.4014 0.8170
-21 29 10 -6.2646 1.1456
-19 29 10 11.9665 0.5150
-17 29 10 13.5021 0.0011
-15 29 10 -3.7479 -0.1252
-13 29 10 9.3882 -0.1481
-11 29 10 11.4742 -0.2049
-9 29 10 1.6076 0.1197
-7 29 10 -4.0398 0.5102
-5 29 10 3.4657 0.0704
-3 29 10 9.9405 -0.1448
-1 29 10 16.6028 -0.3377
1 29 10 -0.6970 -0.3483
3 29 10 7.3815 0.0211
5 29 10 0.6297 0.4953
7 29 10 -5.0627 0.4562
9 29 10 -3.7607 -0.4847
11 29 10 5.1008 -0.8135
13 29 10 9.7389 -0.1843
15 29 10 1.7398 0.3725
17 29 10 -5.0495 0.5791
19 29 10 7.9603 0.4148
21 29 10 -6.1771 -1.5256
-20 30 10 -7.3022 -0.4635
-18 30 10 -0.9113 -1.1013
-16 30 10 15.9601 0.2750
-14 30 10 1.3867 0.9661
-12 30 10 3.7007 -0.4303
-10 30 10 3.9785 -1.1873
-8 30 10 -4.1176 0.2346
-6 30 10 -11.3266 1.2757
-4 30 10 16.4698 -0.0397
-2 30 10 -20.5243 -1.0475
0 30 10 -3.0597 -0.4067
2 30 10 -7.8284 0.5010
4 30 10 12.7766 0.3426
6 30 10 -2.4695 -0.3650
8 30 10 3.5613 0.1401
10 30 10 3.8617 0.8558
12 30 10 -5.5294 -0.2902
14 30 10 4.2676 -1.0007
16 30 10 9.6710 0.5067
18 30 10 14.4545 1.9037
20 30 10 7.4498 -1.0664
-19 31 10 10.9601 0.0073
-17 31 10 5.1923 0.4026
-15 31 10 5.4875 0.9100
-13 31 10 -3.2099 -0.6044
-11 31 10 16.1759 -0.7273
-9 31 10 10.3364 0.0753
-7 31 10 -6.7978 0.5585
-5 31 10 -3.6454 -0.0383
-3 31 10 -1.5884 -0.6602
-1 31 10 -6.3758 -0.0408
1 31 10 0.6391 0.1204
3 31 10 -6.6767 0.0142
5 31 10 -11.3745 0.1298
7 31 10 11.5666 0.3852
9 31 10 -7.5621 0.1562
11 31 10 0.4342 -0.0648
13 31 10 1.5837 0.2046
15 31 10 -2.6632 0.1509
17 31 10 -5.5581 0.0041
19 31 10 11.0294 -0.8410
-18 32 10 -15.6648 0.5740
-16 32 10 5.8613 0.1445
-14 32 10 -8.0529 -0.9445
-12 32 10 4.8515 -0.6378
-10 32 10 -12.2746 0.4294
-8 32 10 -9.7522 -0.1512
-6 32 10 -19.1637 -0.0433
-4 32 10 -9.6916 0.3336
-2 32 10 -2.2550 0.0895
0 32 10 -19.4053 -0.4730
2 32 10 -7.5466 -0.0736
4 32 10 19.3842 0.5839
6 32 10 0.2214 0.3347
8 32 10 -3.8892 -0.2052
10 32 10 14.8500 -0.2045
12 32 10 6.8753 0.1323
14 32 10 6.6700 0.4416
16 32 10 2.0200 -0.0180
-15 33 10 17.3854 -0.4554
-13 33 10 10.7801 -0.2014
-11 33 10 7.0984 0.3137
-9 33 10 -2.7733 -0.2166
-7 33 10 1.8470 -0.6073
-5 33 10 -18.7271 -0.1526
-3 33 10 3.1774 0.3202
-1 33 10 -5.5873 0.0643
1 33 10 4.5712 -0.1238
3 33 10 -3.7424 -0.2379
5 33 10 -14.7372 0.3058
7 33 10 16.4287 0.3748
9 33 10 3.1948 0.0859
11 33 10 -4.8627 0.0192
13 33 10 1.7355 0.7361
15 33 10 2.2345 0.3869
-14 34 10 -3.7372 0.0689
-12 34 10 6.2504 -0.4504
-10 34 10 -6.6513 -0.0497
-8 34 10 -7.6797 -0.2779
-6 34 10 -13.7724 0.4207
-4 34 10 -1.2326 0.3556
-2 34 10 14.7258 -0.0179
0 34 10 13.6904 -0.2152
2 34 10 -0.6093 0.3151
4 34 10 2.9988 0.6493
6 34 10 3.5659 0.0989
8 34 10 -16.4184 -0.4840
10 34 10 6.8293 0.2475
12 34 10 14.1428 0.6829
-11 35 10 0.4857 -0.9241
-9 35 10 -12.6620 -0.3691
-7 35 10 -3.1439 0.3565
-5 35 10 -5.7372 -0.0442
-3 35 10 -16.2453 -0.7024
-1 35 10 -11.4136 -0.4325
1 35 10 -9.7465 1.0599
3 35 10 -13.4885 0.0476
5 35 10 -13.9612 -1.1515
7 35 10 10.3032 -0.7767
9 35 10 6.6931 0.9456
-8 36 10 -1.0480 1.7158
-6 36 10 -14.1142 1.2695
-4 36 10 -2.4178 -0.1928
-2 36 10 -9.7547 -0.3072
0 36 10 5.0985 0.4878
2 36 10 9.6066 0.9094
4 36 10 -6.1460 -0.2027
6 36 10 0.2930 -0.0696
-35 1 11 -7.5333 1.6168
-33 1 11 5.1056 -10.9667
-31 1 11 1.9512 -4.0030
-29 1 11 -0.4887 15.2742
-27 1 11 11.7727 8.9344
-25 1 11 -7.6415 -12.3745
-23 1 11 2.5825 -7.2614
-21 1 11 -4.3834 8.9042
-19 1 11 -10.0847 -6.3855
-17 1 11 -30.4215 -16.7288
-15 1 11 12.2864 16.6864
-13 1 11 -2.9129 27.0688
-11 1 11 17.0520 -27.0246
-9 1 11 7.7634 -52.7211
-7 1 11 -34.4584 6.1094
-5 1 11 -4.8773 43.1842
-3 1 11 25.0274 -1.2763
3 1 11 -168.1686 10.9498
5 1 11 -97.4726 -21.6943
7 1 11 30.8452 3.8372
9 1 11 5.7963 50.7775
11 1 11 49.4286 18.0651
13 1 11 9.6774 -39.0619
15 1 11 48.9366 -20.2367
17 1 11 -15.8304 22.5949
19 1 11 7.6649 12.1329
21 1 11 -26.7974 -10.3415
23 1 11 -11.4323 -0.2489
25 1 11 -22.8728 5.4243
27 1 11 6.6167 -11.0525
29 1 11 8.5682 -10.4173
31 1 11 -3.9183 9.6715
33 1 11 -5.2354 11.3150
35 1 11 -1.9296 -4.9621
-36 2 11 7.6677 3.2346
-34 2 11 -5.3076 -2.3672
-32 2 11 -9.7844 -1.2831
-30 2 11 2.1448 3.6479
-28 2 11 12.2376 -0.3430
-26 2 11 -8.0465 -9.0850
-24 2 11 0.9982 -0.5567
-22 2 11 3.3665 13.7467
-20 2 11 -12.1831 3.1329
-18 2 11 -17.4978 -13.7356
-16 2 11 22.2116 -3.6736
-14 2 11 -68.4569 11.3590
-12 2 11 -18.7883 0.1490
-10 2 11 -70.6268 -6.0351
-8 2 11 -42.3567 13.3858
-6 2 11 -11.4658 13.6651
-4 2 11 -15.3173 -14.6086
-2 2 11 -11.4242 -18.5768
0 2 11 -16.9816 11.7205
2 2 11 -110.5705 19.3307
4 2 11 105.4512 -7.8985
6 2 11 -10.0287 -16.2032
8 2 11 -35.7492 0.3116
10 2 11 -9.6413 2.1835
12 2 11 14.5188 -9.4327
14 2 11 -40.4940 -1.9890
16 2 11 33.6321 14.4382
18 2 11 -24.2678 5.7649
20 2 11 -6.8985 -12.6771
22 2 11 24.3865 -7.2339
24 2 11 14.0182 8.9028
26 2 11 4.6202 7.9688
28 2 11 5.6862 -2.9160
30 2 11 -2.1271 -3.0040
32 2 11 -2.2568 1.8381
34 2 11 -5.1335 1.2529
-35 3 11 3.4396 0.1024
-33 3 11 22.0905 -2.3811
-31 3 11 9.3163 -0.7304
-29 3 11 -11.6148 2.0199
-27 3 11 3.0409 2.6283
-25 3 11 -6.1281 0.0346
-23 3 11 -4.8295 -2.5366
-21 3 11 -21.8522 -3.0307
-19 3 11 18.0856 -0.1452
-17 3 11 14.7381 4.1073
-15 3 11 23.5061 5.3187
-13 3 11 24.7088 2.1207
-9 3 11 15.1250 -6.9789
-7 3 11 54.1605 0.2876
-5 3 11 87.3198 9.1743
-3 3 11 -54.6767 7.1635
-1 3 11 -44.5578 -1.7369
1 3 11 21.9137 -5.2061
3 3 11 -61.0307 -4.3376
5 3 11 -16.2394 -0.5522
7 3 11 54.8305 6.8274
9 3 11 9.7119 6.7797
11 3 11 30.2405 -3.6019
13 3 11 -30.3644 -10.1573
15 3 11 -13.6201 -5.7469
17 3 11 -22.1218 1.5532
19 3 11 7.4347 3.4092
21 3 11 -0.4366 0.5183
23 3 11 11.4817 -1.5897
25 3 11 -6.5207 -3.3510
27 3 11 18.1115 -2.0289
29 3 11 -0.5963 1.4334
31 3 11 -2.2524 3.6513
33 3 11 7.7710 1.2319
35 3 11 -5.5709 -2.0223
-36 4 11 3.8950 -1.5556
-34 4 11 -3.7667 2.5755
-32 4 11 -3.6442 0.8149
-30 4 11 -0.7733 -2.5296
-28 4 11 4.9358 -0.5870
-26 4 11 -8.0881 2.6153
-24 4 11 3.7839 -0.1910
-22 4 11 18.5513 -3.6926
-20 4 11 9.3392 0.2671
-18 4 11 -12.0450 3.1142
-16 4 11 -13.3871 -2.1918
-14 4 11 -15.0500 -2.5907
-12 4 11 50.5676 5.7307
-10 4 11 -19.5399 7.3294
-8 4 11 -7.6848 -1.5291
-6 4 11 -39.0529 -3.9372
-4 4 11 -17.8376 4.0411
-2 4 11 -72.1741 5.2917
0 4 11 2.7348 -1.7953
2 4 11 -38.2771 -3.2519
4 4 11 -65.8243 -0.6919
6 4 11 56.1535 -3.6841
8 4 11 -7.0293 -7.4081
10 4 11 37.9452 -1.7387
12 4 11 25.3553 5.0200
14 4 11 7.5839 1.4865
16 4 11 -16.3228 -4.8427
18 4 11 -29.1221 -3.7487
20 4 11 22.3169 1.9225
22 4 11 -9.7152 3.4015
24 4 11 9.7971 1.2667
26 4 11 -18.8400 0.1357
28 4 11 21.5692 -0.0828
30 4 11 5.9892 -1.8655
32 4 11 7.2736 -1.4138
34 4 11 -14.1687 1.1949
-35 5 11 -6.9510 0.8631
-33 5 11 0.3349 -0.3011
-31 5 11 6.8856 -1.3102
-29 5 11 1.7053 -0.0071
-27 5 11 -10.1323 -0.0091
-25 5 11 2.2773 -2.1822
-23 5 11 -17.7539 1.2811
-21 5 11 -45.9562 5.9692
-19 5 11 16.7305 1.7385
-17 5 11 17.6222 -5.3073
-15 5 11 -36.6521 -3.1410
-13 5 11 51.1800 2.9393
-11 5 11 9.1374 1.9854
-9 5 11 -91.8678 0.3822
-7 5 11 6.8609 1.2532
-5 5 11 -0.1904 -2.2830
-3 5 11 -31.4105 -8.2065
-1 5 11 -34.3592 -2.0972
1 5 11 -21.7017 8.1320
3 5 11 -39.2202 5.0875
5 5 11 30.9375 -2.4980
7 5 11 40.6428 -3.4368
9 5 11 19.2561 -1.9006
11 5 11 -92.3136 -0.6850
13 5 11 7.5726 3.0049
15 5 11 -4.8735 5.4683
17 5 11 16.1937 0.1370
19 5 11 -6.6644 -5.6772
21 5 11 -2.9644 -2.7623
23 5 11 -6.2159 2.3604
25 5 11 10.4689 2.7891
27 5 11 13.0274 0.4063
29 5 11 -10.3669 0.1286
31 5 11 1.7105 0.1156
33 5 11 -4.5731 -0.7497
35 5 11 -9.6211 0.5918
-36 6 11 -5.1738 -0.8855
-34 6 11 5.2167 0.8803
-32 6 11 6.7911 -1.0683
-30 6 11 8.3952 1.8085
-28 6 11 8.6749 1.3706
-26 6 11 -1.5799 -3.2158
-24 6 11 -1.0873 -3.3081
-22 6 11 -0.6664 2.3149
-20 6 11 -5.7621 2.5788
-18 6 11 3.0213 -2.4472
-16 6 11 -36.2671 -1.0138
-14 6 11 -2.6572 4.4459
-12 6 11 -42.1352 1.9641
-10 6 11 20.2259 -2.8611
-8 6 11 2.4614 3.2435
-6 6 11 28.7415 8.4621
-4 6 11 -29.9536 -0.0820
-2 6 11 11.0650 -5.5055
0 6 11 1.7154 1.2358
2 6 11 83.8907 3.8855
4 6 11 -13.9170 -4.1732
6 6 11 -9.2812 -7.7991
8 6 11 -6.7358 -0.5763
10 6 11 -10.4808 1.7870
12 6 11 -13.8559 -4.5247
14 6 11 28.8638 -4.7263
16 6 11 -35.0586 1.6939
18 6 11 -34.2240 1.7014
20 6 11 14.1845 -3.2196
22 6 11 -5.6755 -1.1991
24 6 11 17.1944 3.5573
26 6 11 -7.0712 1.9250
28 6 11 11.0354 -2.1292
30 6 11 -0.3205 -0.9285
32 6 11 6.1688 1.4915
34 6 11 -11.5168 0.9460
-35 7 11 -0.7930 -0.4385
-33 7 11 5.4380 -1.7969
-31 7 11 13.8413 2.3386
-29 7 11 -1.1543 2.1257
-27 7 11 -4.3506 -2.8733
-25 7 11 16.8338 -4.0175
-23 7 11 -8.7126 3.8072
-21 7 11 -6.6845 5.8315
-19 7 11 34.2816 -2.0295
-17 7 11 -21.0800 -5.6939
-15 7 11 -23.3520 -0.4237
-13 7 11 -0.9475 1.1339
-11 7 11 -51.3466 -2.1280
-9 7 11 -23.5427 1.6081
-7 7 11 75.0534 4.5820
-5 7 11 -10.2327 -3.9411
-3 7 11 53.7414 -9.9440
-1 7 11 -42.4531 0.0322
1 7 11 6.2650 9.9332
3 7 11 -50.7568 5.3159
5 7 11 -52.5425 -5.0222
7 7 11 18.9264 -5.6372
9 7 11 34.2085 0.7374
11 7 11 -28.6097 2.9492
13 7 11 7.9314 2.1734
15 7 11 6.5558 3.0954
17 7 11 6.2845 0.9749
19 7 11 -3.1124 -4.4597
21 7 11 9.3236 -4.6474
23 7 11 10.3041 2.9549
25 7 11 15.7573 5.9402
27 7 11 15.5341 0.2543
29 7 11 0.7393 -4.2792
31 7 11 -6.6383 -2.0143
33 7 11 -5.8228 1.0327
-34 8 11 -18.1702 -0.7603
-32 8 11 14.1360 -0.3324
-30 8 11 17.2034 0.1236
-28 8 11 21.9652 -0.5279
-26 8 11 6.8559 -1.2060
-24 8 11 9.2031 -0.8552
-22 8 11 -2.9534 0.7191
-20 8 11 -11.0852 1.2843
-18 8 11 9.0110 -0.1931
-16 8 11 -19.3816 -1.3201
-14 8 11 -11.9642 -0.0166
-12 8 11 -4.6481 1.1273
-10 8 11 6.3994 0.5795
-8 8 11 -86.3577 0.7293
-6 8 11 29.2384 2.2350
-4 8 11 -73.3340 1.8676
-2 8 11 -16.8094 -0.5408
0 8 11 -9.7951 -0.7490
2 8 11 55.3078 1.4483
4 8 11 -6.7105 3.0875
6 8 11 -12.5825 1.1424
8 8 11 1.2108 -1.8181
10 8 11 43.9101 -1.1309
12 8 11 22.1714 0.2253
14 8 11 81.3461 -0.5374
16 8 11 -13.8194 -0.6684
18 8 11 -28.4675 0.5889
20 8 11 -22.9600 0.9150
22 8 11 -5.8543 -1.1389
24 8 11 -4.2554 -1.9652
26 8 11 23.3693 -0.3570
28 8 11 9.7334 1.1737
30 8 11 19.2888 0.6650
32 8 11 -0.3750 0.3402
34 8 11 -16.6177 -0.8330
-35 9 11 15.6021 2.7155
-33 9 11 9.7435 2.4810
-31 9 11 -3.5013 0.3074
-29 9 11 -6.0092 0.6984
-27 9 11 12.9174 -0.0431
-25 9 11 -13.3726 -0.8222
-23 9 11 -17.0549 -0.1801
-21 9 11 -22.9610 1.5020
-19 9 11 15.3745 1.0215
-17 9 11 -52.6943 -1.0449
-15 9 11 8.0623 -2.0574
-13 9 11 0.1739 -1.6256
-11 9 11 -33.8568 -1.4751
-9 9 11 22.7681 0.2809
-7 9 11 9.2229 2.1605
-5 9 11 -11.4400 -0.8950
-3 9 11 21.7519 -2.7764
-1 9 11 48.1117 -0.2005
1 9 11 -25.7390 0.5232
3 9 11 -13.5506 -1.3368
5 9 11 -81.3674 -0.5758
7 9 11 29.3385 2.1795
9 9 11 -25.2081 0.1061
11 9 11 -24.4716 -3.8552
13 9 11 -45.5532 -0.1837
15 9 11 18.2181 3.6501
17 9 11 5.0307 0.0810
19 9 11 -6.1444 -2.1220
21 9 11 16.8908 1.2404
23 9 11 -4.7878 2.2222
25 9 11 5.5364 -1.2826
27 9 11 8.6166 -1.5368
29 9 11 12.1032 2.1927
31 9 11 -28.0322 0.8521
33 9 11 -7.1519 -2.1902
-34 10 11 -1.8064 -1.1132
-32 10 11 38.6939 -1.7376
-30 10 11 9.3534 0.0897
-28 10 11 -5.3854 2.0698
-26 10 11 -10.0242 -0.6298
-24 10 11 -26.8369 -1.3430
-22 10 11 1.0269 0.4452
-20 10 11 -12.1094 -0.4233
-18 10 11 12.7796 -3.4150
-16 10 11 12.0981 -0.0466
-14 10 11 -77.1607 4.2282
-12 10 11 -23.8919 -1.0573
-10 10 11 14.8305 -7.1146
-8 10 11 16.3172 -1.2602
-6 10 11 90.3901 5.0115
-4 10 11 -45.3102 1.0251
-2 10 11 -84.7205 -1.5850
0 10 11 -5.1293 2.9018
2 10 11 52.9884 3.4364
4 10 11 12.4401 -2.5340
6 10 11 49.1708 -1.2299
8 10 11 5.1744 6.2029
10 10 11 6.5876 4.5426
12 10 11 0.3743 -3.2751
14 10 11 -28.2711 -3.8813
16 10 11 -9.9105 1.9894
18 10 11 1.1510 2.3612
20 10 11 -10.1908 -1.2167
22 10 11 4.6517 -0.8344
24 10 11 -3.7361 1.2808
26 10 11 10.7713 -0.9690
28 10 11 -26.6842 -2.2008
30 10 11 2.9553 0.3123
32 10 11 8.4212 1.1967
34 10 11 -2.9976 -0.7931
-33 11 11 0.7895 -1.9434
-31 11 11 -2.1182 -1.3969
-29 11 11 4.1193 1.5010
-27 11 11 11.7153 0.1861
-25 11 11 -6.6990 -1.4095
-23 11 11 -1.4628 0.6244
-21 11 11 -48.5404 1.8003
-19 11 11 -2.9940 -1.4161
-15 11 11 36.6695 3.4524
-13 11 11 34.8552 4.8029
-11 11 11 -15.6291 -2.5670
-9 11 11 -27.0160 -5.1136
-7 11 11 -12.7510 2.1967
-5 11 11 -5.8343 4.7226
-3 11 11 -60.0584 -2.4901
-1 11 11 -4.9629 -3.6890
1 11 11 38.4078 2.5563
3 11 11 -18.1372 0.1657
5 11 11 -9.7857 -5.7662
7 11 11 19.0181 0.6224
9 11 11 -19.3911 7.0301
11 11 11 -7.3490 0.1684
13 11 11 -10.1158 -6.7435
15 11 11 9.4883 -1.3069
17 11 11 -14.1680 5.1789
19 11 11 -13.6944 1.7989
21 11 11 -15.7748 -1.9751
23 11 11 -8.5563 -0.0824
25 11 11 7.7543 0.8575
27 11 11 18.1933 -1.4120
29 11 11 1.7335 -1.0278
31 11 11 -2.1595 2.5413
33 11 11 -1.8310 0.6881
-34 12 11 -1.7238 -1.6695
-32 12 11 6.7529 0.4969
-30 12 11 2.9810 3.3967
-28 12 11 4.1574 0.7940
-26 12 11 2.9735 -2.1547
-24 12 11 -3.9650 0.5592
-22 12 11 11.1647 2.8160
-20 12 11 1.6181 -0.7176
-18 12 11 -3.7548 -4.1532
-16 12 11 -4.4543 -0.0551
-14 12 11 -21.3827 2.3567
-12 12 11 11.3274 -2.8147
-10 12 11 14.9614 -5.8881
-8 12 11 9.8481 -0.2243
-4 12 11 -4.4126 -1.3909
-2 12 11 -31.9614 -3.1492
0 12 11 2.2227 2.0728
2 12 11 -25.7139 4.8818
4 12 11 -21.3131 -0.2500
6 12 11 -1.5787 -3.1978
8 12 11 -17.1633 2.1112
10 12 11 17.5131 5.0371
12 12 11 40.0478 -0.5483
14 12 11 -12.4001 -3.5535
16 12 11 19.3067 0.3154
18 12 11 3.1316 2.2759
20 12 11 1.4275 -1.0057
22 12 11 1.1991 -2.1965
24 12 11 -2.6740 1.3540
26 12 11 -16.0009 1.8626
28 12 11 -7.6529 -1.7358
30 12 11 6.8658 -2.8580
32 12 11 16.8946 0.7197
-33 13 11 -1.3737 0.0480
-31 13 11 -0.4116 -0.5874
-29 13 11 7.6179 -0.4819
-27 13 11 -9.7464 0.4527
-25 13 11 -14.2298 0.9113
-23 13 11 2.2319 -0.4313
-21 13 11 -2.8905 -2.5419
-19 13 11 7.0339 -1.0045
-17 13 11 1.8142 1.8796
-15 13 11 -10.1441 2.2062
-13 13 11 -3.8925 0.0518
-11 13 11 2.6391 -0.9303
-9 13 11 7.1684 -1.0664
-7 13 11 -34.2945 -1.0449
-5 13 11 -40.5367 0.8768
-3 13 11 -4.7346 3.2852
-1 13 11 46.2173 1.4315
1 13 11 65.0375 -3.0292
3 13 11 -55.6477 -2.8190
5 13 11 8.5919 1.2646
7 13 11 24.1485 2.6640
9 13 11 -53.7020 0.7633
11 13 11 -40.0206 -0.4748
13 13 11 -13.0632 -0.2939
15 13 11 -18.8433 -1.3758
17 13 11 7.4301 -1.3633
19 13 11 10.6865 1.2656
21 13 11 -17.9552 2.4379
23 13 11 -7.9404 -0.8772
25 13 11 7.2555 -2.6555
27 13 11 12.8245 -0.7374
29 13 11 -13.5424 1.0587
31 13 11 5.8632 0.4590
33 13 11 -12.1949 -2.1106
-32 14 11 -7.3098 0.9174
-30 14 11 0.2180 -1.0969
-28 14 11 5.5483 -1.3055
-26 14 11 -3.9483 0.9185
-24 14 11 8.3969 1.5396
-22 14 11 -9.9253 -0.0243
-20 14 11 -1.1029 -0.3820
-18 14 11 -5.2847 0.8578
-16 14 11 -23.1510 0.2813
-14 14 11 11.4749 -1.8245
-12 14 11 4.9648 -0.6629
-10 14 11 -10.9072 2.5244
-8 14 11 46.7368 1.3345
-6 14 11 9.1759 -3.2585
-4 14 11 7.6343 -3.7450
-2 14 11 -25.0641 1.1528
0 14 11 17.6769 2.5333
2 14 11 15.9229 -0.4236
4 14 11 -33.9020 -0.3925
6 14 11 -35.4939 1.4742
8 14 11 2.3401 -0.1493
10 14 11 31.2715 -2.3463
12 14 11 -30.3915 0.6115
14 14 11 15.1641 3.1800
16 14 11 -30.2157 0.8908
18 14 11 -24.6610 -2.3396
20 14 11 -0.1631 -0.7818
22 14 11 23.5142 1.3677
24 14 11 13.0513 0.5497
26 14 11 -15.3622 -0.7655
28 14 11 -2.3327 0.7647
30 14 11 -14.1960 0.4904
32 14 11 11.1237 -1.4083
-33 15 11 -10.5839 -0.1145
-31 15 11 7.4661 -1.1156
-29 15 11 -2.0301 0.6580
-27 15 11 -11.1145 1.3174
-25 15 11 -2.2027 -0.0700
-23 15 11 0.7252 -1.2475
-21 15 11 -4.1298 0.0525
-19 15 11 13.2559 1.2752
-17 15 11 -14.6828 0.4468
-15 15 11 -18.4581 0.0251
-13 15 11 5.7412 0.3496
-11 15 11 -13.3119 0.1261
-9 15 11 -17.3389 -0.1333
-7 15 11 -21.4477 0.4713
-5 15 11 -0.6811 0.9130
-3 15 11 -0.6587 0.4465
-1 15 11 26.9909 -0.7908
1 15 11 3.8917 -0.3920
3 15 11 -59.0270 -0.1086
5 15 11 3.8616 -0.3211
7 15 11 -6.7349 -0.4236
9 15 11 -25.7534 -0.5520
11 15 11 -10.2485 -0.9327
13 15 11 -20.8631 0.0583
15 15 11 10.8007 0.3708
17 15 11 40.4799 -0.6258
19 15 11 14.3077 -1.4318
21 15 11 -6.1003 -0.1029
23 15 11 4.9618 0.5124
25 15 11 11.5922 0.1804
27 15 11 4.8575 -0.1864
29 15 11 8.2270 -0.0448
31 15 11 3.1064 -0.5896
-32 16 11 -0.6401 -2.6578
-30 16 11 5.9353 0.4259
-28 16 11 15.2029 -0.5522
-26 16 11 -3.9357 -1.6932
-24 16 11 3.0240 0.0657
-22 16 11 2.3276 1.7210
-20 16 11 4.7706 -0.4617
-18 16 11 -5.0716 -2.2315
-16 16 11 -26.5880 0.3960
-14 16 11 -5.2923 2.4683
-12 16 11 7.1666 -0.1195
-10 16 11 -7.9271 -1.5220
-8 16 11 14.1871 0.7730
-6 16 11 -17.8079 1.4862
-4 16 11 -12.1722 -2.4139
-2 16 11 -13.7999 -2.8263
0 16 11 -15.6307 1.0810
2 16 11 0.5940 1.8697
4 16 11 -3.7684 -1.0006
6 16 11 0.8022 -1.4605
8 16 11 25.5799 0.8333
10 16 11 -7.7775 0.6038
12 16 11 -22.3237 -1.0923
14 16 11 18.7531 -0.5598
16 16 11 -12.4668 1.6018
18 16 11 2.4839 0.9489
20 16 11 -4.8507 -1.0809
22 16 11 -17.1058 -1.2760
24 16 11 -1.2050 0.3336
26 16 11 14.2108 1.0407
28 16 11 3.5413 -0.1212
30 16 11 -4.0704 -0.2603
-31 17 11 7.1269 2.1125
-29 17 11 -17.7893 0.2129
-27 17 11 -16.0527 -1.6017
-25 17 11 -4.8198 -0.1226
-23 17 11 -0.7126 2.2548
-21 17 11 3.2779 0.7883
-19 17 11 -2.6052 -1.3672
-17 17 11 -29.1832 0.0562
-15 17 11 -1.8603 1.2452
-13 17 11 13.6455 -0.2663
-11 17 11 22.8519 -1.0360
-9 17 11 27.6540 1.5663
-7 17 11 34.4543 2.5395
-5 17 11 10.5975 -0.4152
-3 17 11 5.7274 -2.3003
-1 17 11 14.6137 0.2796
1 17 11 -11.4874 1.9487
3 17 11 -8.4987 0.2453
5 17 11 20.5276 -1.3132
7 17 11 -11.6914 -0.6497
9 17 11 3.2794 -0.6653
11 17 11 20.0876 -0.5965
13 17 11 -19.5338 0.2230
15 17 11 9.8667 0.2243
17 17 11 -2.0581 0.1779
19 17 11 12.1569 -0.6895
21 17 11 2.6843 -0.6484
23 17 11 35.1865 -0.4837
25 17 11 17.6870 0.6936
27 17 11 7.4639 1.5758
29 17 11 -0.0828 -0.4091
31 17 11 3.3134 0.2045
-30 18 11 0.4141 0.0113
-28 18 11 9.8242 -1.0150
-26 18 11 3.4216 0.9829
-24 18 11 -11.6453 1.1446
-22 18 11 13.3962 -1.2892
-20 18 11 16.0950 -1.4932
-18 18 11 -1.0716 1.3928
-16 18 11 -18.2034 1.6841
-14 18 11 -38.1607 -0.2588
-12 18 11 8.7909 -0.7551
-10 18 11 -8.1694 0.2859
-8 18 11 -5.9782 0.0748
-6 18 11 -21.5367 -1.0766
-4 18 11 15.5191 0.0186
-2 18 11 8.0324 1.0471
0 18 11 8.5186 -0.4674
2 18 11 4.9588 -1.9734
4 18 11 3.6635 -0.6941
6 18 11 -22.4240 1.8022
8 18 11 -12.8433 1.3315
10 18 11 6.6458 -0.8665
12 18 11 4.8805 -0.9543
14 18 11 6.6711 0.6201
16 18 11 -3.7488 0.6992
18 18 11 -0.1599 -0.4483
20 18 11 0.3661 -0.0444
22 18 11 -16.5332 0.3581
24 18 11 10.2258 -0.7969
26 18 11 4.3396 -1.0224
28 18 11 -9.2997 1.5723
30 18 11 5.9681 1.6426
-31 19 11 1.2240 -1.3844
-29 19 11 -9.8087 -1.9663
-27 19 11 -7.2795 0.7083
-25 19 11 8.8805 0.6920
-23 19 11 2.1496 -0.9469
-21 19 11 -5.0868 -1.1052
-19 19 11 -1.3819 0.1016
-17 19 11 -18.2944 0.3823
-15 19 11 22.2837 -0.5677
-13 19 11 -17.1520 -0.3141
-11 19 11 -40.5115 1.8622
-9 19 11 -8.5222 1.7800
-7 19 11 17.5123 -0.8548
-5 19 11 -12.4651 -1.2218
-3 19 11 7.0336 1.3228
-1 19 11 1.1165 1.5328
1 19 11 -19.4140 -0.9037
3 19 11 20.4747 -1.0047
5 19 11 -7.2445 0.6104
7 19 11 -15.8715 0.1510
9 19 11 -20.1462 -1.4095
11 19 11 36.4629 -0.6308
13 19 11 -21.6922 1.0246
15 19 11 6.9176 0.4886
17 19 11 -4.0051 -0.9591
19 19 11 -8.7406 -0.6223
21 19 11 -1.7113 1.0428
23 19 11 19.0697 0.3609
25 19 11 8.6882 -0.2565
27 19 11 0.7703 -0.6605
29 19 11 7.5620 0.8940
-30 20 11 -2.6854 -1.7150
-28 20 11 -9.3951 0.9539
-26 20 11 10.4835 0.3269
-24 20 11 -14.2254 -1.0272
-22 20 11 7.5653 0.1803
-20 20 11 -6.4198 0.6772
-18 20 11 -12.8167 -0.4675
-16 20 11 6.5657 -0.8511
-14 20 11 -23.4251 1.1942
-12 20 11 -2.1164 0.8159
-10 20 11 -6.4743 -1.6704
-8 20 11 7.9126 -1.4323
-6 20 11 0.8939 1.1673
-4 20 11 17.3103 1.0665
-2 20 11 -2.7029 -0.8201
0 20 11 12.3523 -1.0510
2 20 11 -10.8967 0.0865
4 20 11 10.5258 -0.0528
6 20 11 22.6886 -0.5497
8 20 11 -27.1777 0.8308
10 20 11 19.9310 1.5511
12 20 11 13.8661 -0.2319
14 20 11 6.7867 -1.0765
16 20 11 -16.8399 0.3985
18 20 11 -0.6010 1.0460
20 20 11 -0.3425 0.0770
22 20 11 -6.7107 -0.3807
24 20 11 2.1381 0.1713
26 20 11 -0.4765 -0.1652
28 20 11 1.0223 -0.0007
-29 21 11 3.8142 -0.3124
-27 21 11 -2.6983 -1.1559
-25 21 11 -2.4666 -0.8791
-23 21 11 -14.1641 1.5316
-21 21 11 -6.4748 0.1815
-19 21 11 0.8216 -2.1251
-17 21 11 31.1635 -0.8736
-15 21 11 27.7530 1.3407
-13 21 11 18.7950 0.6010
-11 21 11 12.1040 -1.3330
-9 21 11 2.4867 -0.4254
-7 21 11 -4.5936 1.2363
-5 21 11 -11.5899 0.1668
-3 21 11 7.7282 -0.6092
-1 21 11 10.1159 0.6593
1 21 11 -24.6740 1.4406
3 21 11 4.6754 0.5095
5 21 11 -13.4969 -0.8174
7 21 11 4.5281 -0.1781
9 21 11 7.9878 1.0194
11 21 11 21.3559 0.9152
13 21 11 16.2207 -0.6428
15 21 11 19.3511 -1.1787
17 21 11 -4.3143 -0.0625
19 21 11 -9.3466 0.2833
21 21 11 6.2109 -0.4401
23 21 11 5.5358 -0.6951
25 21 11 -5.9718 0.4434
27 21 11 -11.3900 0.0986
29 21 11 15.2592 1.4781
-28 22 11 -3.3486 -1.1228
-26 22 11 14.4764 -0.1717
-24 22 11 13.1449 0.7102
-22 22 11 -11.3948 0.0561
-20 22 11 -4.6642 -0.9030
-18 22 11 3.9769 -0.5601
-16 22 11 4.3817 -0.1759
-14 22 11 2.8770 -0.2977
-12 22 11 2.8144 -0.0805
-10 22 11 -11.9850 -0.3450
-8 22 11 -13.7487 0.1799
-6 22 11 9.2128 0.4904
-4 22 11 15.5915 -0.2331
-2 22 11 -30.9667 -0.4876
0 22 11 -12.1094 0.5328
2 22 11 -14.7466 0.9314
4 22 11 3.8399 -0.2200
6 22 11 30.7910 -1.2015
8 22 11 -8.0709 -0.0350
10 22 11 -16.8331 1.5377
12 22 11 27.4069 0.7290
14 22 11 3.1931 -0.5641
16 22 11 -10.3406 -0.3610
18 22 11 9.1794 0.6738
20 22 11 2.7759 0.2151
22 22 11 4.4959 0.2420
24 22 11 -31.6974 0.6332
26 22 11 -12.8406 0.3338
28 22 11 1.4592 -0.1954
-27 23 11 -8.4359 -0.2625
-25 23 11 -7.8169 1.2339
-23 23 11 -2.6302 -0.2485
-21 23 11 5.1006 -1.6090
-19 23 11 -7.3979 0.7564
-17 23 11 10.8779 1.1233
-15 23 11 -0.2266 -1.1404
-13 23 11 4.8808 -1.5895
-11 23 11 0.9226 0.9899
-9 23 11 -14.3878 1.2703
-7 23 11 -3.0682 -1.1860
-5 23 11 -7.3031 -1.4428
-3 23 11 8.0321 0.8009
-1 23 11 7.9533 1.1460
1 23 11 -2.3729 -0.7244
3 23 11 -1.1424 -0.1007
5 23 11 1.4831 1.6344
7 23 11 -4.0502 0.5449
9 23 11 15.7735 -1.1962
11 23 11 5.8890 0.2932
13 23 11 -17.0158 1.8311
15 23 11 -8.5213 0.1439
17 23 11 -2.7147 -1.1376
19 23 11 -7.1381 0.0679
21 23 11 -0.1596 1.2742
23 23 11 8.7650 -0.4355
25 23 11 -2.1805 -0.5896
27 23 11 1.3665 0.7798
-26 24 11 1.7863 0.1699
-24 24 11 2.1440 -0.8456
-22 24 11 -20.2357 -1.3101
-20 24 11 -5.2636 0.7561
-18 24 11 6.8329 1.7770
-16 24 11 -4.8230 -1.5038
-14 24 11 -8.3784 -2.2579
-12 24 11 -0.6817 0.5727
-10 24 11 5.9175 1.6933
-8 24 11 6.3226 -0.4433
-6 24 11 -4.3823 -1.3314
-4 24 11 -16.7193 0.4633
-2 24 11 -9.2203 0.8843
0 24 11 -12.2635 -0.5839
2 24 11 -0.8396 -0.2477
4 24 11 7.1993 1.3605
6 24 11 13.3611 0.6474
8 24 11 -8.6995 -1.2630
10 24 11 -18.0482 -0.9656
12 24 11 9.6370 1.2969
14 24 11 -2.2210 1.5575
16 24 11 1.2539 -0.7439
18 24 11 14.4023 -1.7773
20 24 11 -13.4788 0.1986
22 24 11 -3.8138 1.6391
24 24 11 -5.6938 0.1010
26 24 11 14.8733 -0.5158
-25 25 11 2.2104 -0.5582
-23 25 11 5.4432 -0.3636
-21 25 11 -12.7659 0.0554
-19 25 11 2.3749 0.3904
-17 25 11 -12.2190 -0.2248
-15 25 11 1.6194 -1.1071
-13 25 11 -0.5849 -0.4810
-11 25 11 3.6409 0.3505
-9 25 11 -16.0409 -0.1481
-7 25 11 18.5656 -0.2027
-5 25 11 -32.3784 0.0778
-3 25 11 3.7991 0.2298
-1 25 11 -0.7830 -0.0396
1 25 11 -7.9478 -0.0368
3 25 11 -5.3967 0.4469
5 25 11 -8.8393 0.7260
7 25 11 -3.2162 0.2061
9 25 11 13.5311 -0.2563
11 25 11 -4.4054 -0.4233
13 25 11 -20.0090 0.0372
15 25 11 1.0650 0.5891
17 25 11 4.4982 0.3885
19 25 11 -2.0138 -0.2603
21 25 11 11.9411 -0.0730
23 25 11 5.5647 -0.2299
25 25 11 -5.0113 0.9403
-24 26 11 -1.5682 0.4126
-22 26 11 2.0030 0.4068
-20 26 11 18.9388 0.6131
-18 26 11 16.2963 0.0229
-16 26 11 -7.1768 -0.3899
-14 26 11 -11.2264 0.2051
-12 26 11 2.6302 -0.0360
-10 26 11 -6.4208 -0.6498
-8 26 11 -15.0473 -0.1383
-6 26 11 -14.4125 0.9215
-4 26 11 -2.2767 0.2037
-2 26 11 -26.3904 -0.8659
0 26 11 -6.6469 -0.1857
2 26 11 2.9126 0.4524
4 26 11 -6.5721 0.0642
6 26 11 19.3706 -0.2988
8 26 11 -14.2532 0.0748
10 26 11 16.0646 0.2002
12 26 11 17.2895 -0.3900
14 26 11 -1.5213 -0.6383
16 26 11 0.7356 0.3091
18 26 11 5.3512 1.0479
20 26 11 2.6586 -0.3849
22 26 11 -6.8348 -0.2974
24 26 11 9.8141 0.5500
-23 27 11 0.9417 0.3071
-21 27 11 1.8975 -0.5670
-19 27 11 4.8393 -0.4526
-17 27 11 14.4465 0.5892
-15 27 11 5.7822 0.4568
-13 27 11 -2.6409 -0.1915
-11 27 11 10.0258 -0.7969
-9 27 11 -5.7973 -0.0735
-7 27 11 13.8240 0.3820
-5 27 11 -16.0245 0.0469
-3 27 11 -4.0405 -0.0913
-1 27 11 3.4454 -0.1467
1 27 11 -26.4731 -0.2950
3 27 11 5.5543 -0.3070
5 27 11 6.3548 -0.3308
7 27 11 -12.7779 0.0902
9 27 11 8.6655 0.5571
11 27 11 1.0275 0.1423
13 27 11 -2.8180 -0.6299
15 27 11 9.7514 -0.9238
17 27 11 -0.8030 0.3929
19 27 11 -1.2455 1.1342
21 27 11 -6.4257 0.2847
23 27 11 5.4320 -0.9653
-22 28 11 -2.4178 -1.4666
-20 28 11 7.5083 0.0093
-18 28 11 5.7003 0.3180
-16 28 11 4.4570 0.1374
-14 28 11 6.7819 -0.1850
-12 28 11 1.0580 0.4240
-10 28 11 5.5374 0.3149
-8 28 11 11.3797 -0.1808
-6 28 11 2.6541 -0.4868
-4 28 11 19.0286 0.0332
-2 28 11 -5.1097 0.4120
0 28 11 14.3187 -0.0783
2 28 11 9.1073 -0.7907
4 28 11 -11.4838 -0.0100
6 28 11 -2.5025 0.8296
8 28 11 8.8955 -0.1436
10 28 11 -4.8343 -1.0843
12 28 11 5.2315 -0.1454
14 28 11 10.0567 0.7954
16 28 11 -2.5943 -0.1652
18 28 11 5.6614 -0.0644
20 28 11 4.2130 -0.6094
22 28 11 -4.7704 1.1165
-21 29 11 -3.3199 -0.5951
-19 29 11 4.2948 1.8113
-17 29 11 -2.6869 0.4950
-15 29 11 -7.4709 -0.9403
-13 29 11 -9.4704 -0.4520
-11 29 11 24.6024 0.5310
-9 29 11 -9.7881 0.1002
-7 29 11 2.1481 -0.9724
-5 29 11 1.3834 -0.0866
-3 29 11 -16.3133 0.8255
-1 29 11 -2.1184 -0.0132
1 29 11 -23.3678 -1.0256
3 29 11 4.6105 -0.7025
5 29 11 18.1232 -0.3225
7 29 11 -5.9339 0.2925
9 29 11 -13.5418 -0.0533
11 29 11 1.2037 -0.3861
13 29 11 -8.1734 -0.0668
15 29 11 6.9065 -0.1927
17 29 11 -2.4131 -0.2700
19 29 11 6.8723 -0.6013
21 29 11 -4.8227 0.9037
-20 30 11 -10.2714 0.5078
-18 30 11 3.9927 -0.9017
-16 30 11 -1.7449 -0.6758
-14 30 11 13.2056 0.8250
-12 30 11 -1.3765 0.6257
-10 30 11 -3.5892 -0.1232
-8 30 11 -2.7308 -0.6656
-6 30 11 1.5816 -0.2223
-4 30 11 -7.2197 0.3678
-2 30 11 4.3260 0.1416
0 30 11 -19.2124 -0.2020
2 30 11 6.9830 -0.0517
4 30 11 7.2942 -0.0850
6 30 11 -24.7337 -0.1555
8 30 11 4.0315 0.2090
10 30 11 -1.4469 -0.0317
12 30 11 0.4272 -0.4199
14 30 11 1.9913 -0.1961
16 30 11 11.0651 0.7962
18 30 11 0.1502 0.7949
20 30 11 -3.7271 -0.9295
-19 31 11 0.2624 -0.0333
-17 31 11 -12.2000 -0.7343
-15 31 11 -2.7001 0.4903
-13 31 11 -12.7956 0.3011
-11 31 11 2.0618 -0.2796
-9 31 11 -27.7934 0.1555
-7 31 11 0.9433 0.4199
-5 31 11 -25.1792 0.0543
-3 31 11 -3.0522 -0.4860
-1 31 11 11.1267 -0.5913
1 31 11 14.7888 0.3693
3 31 11 7.6566 0.9109
5 31 11 7.2383 -0.3602
7 31 11 0.0350 -0.9891
9 31 11 -2.3362 -0.0475
11 31 11 5.4539 0.9338
13 31 11 -8.1666 -0.3490
15 31 11 6.7455 -1.0380
17 31 11 2.7831 1.3688
-18 32 11 3.6787 -0.0079
-16 32 11 -4.6593 0.5343
-14 32 11 3.8506 0.3684
-12 32 11 8.2304 -0.4419
-10 32 11 -1.0951 0.0716
-8 32 11 3.6804 0.2683
-6 32 11 10.7338 -0.3434
-4 32 11 -18.9018 -0.3707
-2 32 11 0.0984 0.1739
0 32 11 -11.7905 0.2250
2 32 11 6.6806 -0.0268
4 32 11 -3.1697 0.1150
6 32 11 -8.1390 0.1735
8 32 11 10.2592 -0.3167
10 32 11 -4.3080 0.0112
12 32 11 8.1919 0.6683
14 32 11 -0.4134 -0.0479
16 32 11 14.3888 0.1326
-15 33 11 -2.5995 -1.2546
-13 33 11 9.3000 -0.9371
-11 33 11 11.2556 0.6506
-9 33 11 -5.3817 0.8199
-7 33 11 13.8134 -0.8411
-5 33 11 -0.8388 -1.0578
-3 33 11 2.2204 0.9362
-1 33 11 -10.0090 0.6110
1 33 11 5.7740 -1.0713
3 33 11 1.0242 -0.0376
5 33 11 7.5700 1.3490
7 33 11 -8.2696 -0.1171
9 33 11 -1.9052 -1.2740
11 33 11 6.7095 -0.3311
13 33 11 -3.3585 1.2728
15 33 11 -3.9257 0.0755
-12 34 11 -13.7379 0.9886
-10 34 11 -11.5243 1.7594
-8 34 11 -7.2842 0.0007
-6 34 11 -10.5602 -1.3280
-4 34 11 1.8789 0.6056
-2 34 11 -9.8882 1.3532
0 34 11 6.3261 -0.3851
2 34 11 12.9573 -1.0647
4 34 11 -3.1961 0.5772
6 34 11 -0.3548 1.4057
8 34 11 2.2863 0.0579
10 34 11 -15.6009 -1.0477
12 34 11 2.1887 0.3286
-11 35 11 1.0639 0.5740
-9 35 11 -5.0166 -0.4391
-7 35 11 0.7864 -0.6973
-5 35 11 8.0428 0.1978
-3 35 11 -9.0042 1.1512
-1 35 11 4.6267 0.8049
1 35 11 3.5325 -0.8034
3 35 11 -9.7839 -0.2482
5 35 11 -2.1930 1.0116
7 35 11 0.3958 0.4258
9 35 11 -0.0533 0.1460
-6 36 11 -6.2465 0.6746
-4 36 11 5.1494 0.2593
-2 36 11 2.8425 -0.5400
0 36 11 20.2245 0.0794
2 36 11 15.9806 0.4303
4 36 11 11.6087 0.6928
6 36 11 5.0974 -0.4598
-36 0 12 -16.6318 -2.8913
-34 0 12 3.6211 4.6415
-32 0 12 -14.3910 5.2707
-30 0 12 26.4229 -8.5564
-28 0 12 15.8758 -7.6414
-26 0 12 -7.2408 15.0228
-24 0 12 -7.3144 13.6071
-22 0 12 26.1043 -20.2212
-20 0 12 18.9408 -22.9059
-18 0 12 11.5704 9.8330
-16 0 12 23.0066 -0.0285
-14 0 12 -2.7077 -35.5171
-12 0 12 6.7942 -11.9273
-10 0 12 32.6882 24.0734
-8 0 12 9.4376 -16.4268
-6 0 12 43.2070 -51.5387
-4 0 12 -72.8734 15.7890
-2 0 12 -71.0069 72.0782
0 0 12 166.0422 21.2622
2 0 12 7.2365 -18.3886
4 0 12 -68.1629 27.1734
6 0 12 -156.3291 48.5633
8 0 12 -21.9353 1.4358
10 0 12 -34.3992 -9.4553
12 0 12 72.2605 29.7348
14 0 12 10.5508 16.2866
16 0 12 32.4857 -34.6421
18 0 12 -44.0623 -28.0576
20 0 12 -9.7629 13.1133
22 0 12 -4.3534 12.1191
24 0 12 -29.9078 -13.1604
26 0 12 16.3332 -10.2191
28 0 12 -8.8505 3.9829
30 0 12 -1.7107 -0.2057
32 0 12 -2.6037 -5.1812
34 0 12 2.9727 2.7522
-35 1 12 -10.8923 -1.7754
-33 1 12 0.3604 6.0759
-31 1 12 -23.5374 1.7950
-29 1 12 -1.5020 -7.9488
-27 1 12 14.3479 -1.1871
-25 1 12 -4.8464 7.1613
-23 1 12 -23.2085 -5.0533
-21 1 12 21.6601 -12.4401
-19 1 12 -39.3316 6.8432
-17 1 12 -6.9464 14.4129
-15 1 12 -5.3472 -12.3055
-13 1 12 31.7903 -21.7430
-11 1 12 11.2308 8.0507
-9 1 12 -40.3292 22.3283
-7 1 12 35.3238 -1.5574
-5 1 12 -10.8691 -9.8259
-3 1 12 14.8407 11.3555
1 1 12 31.2244 -9.9334
3 1 12 -95.3500 1.0112
5 1 12 10.8954 27.1563
7 1 12 76.6448 12.3799
9 1 12 34.5322 -22.0915
11 1 12 55.7579 -12.4871
13 1 12 -6.4475 17.7884
15 1 12 -1.0544 11.7604
17 1 12 -7.4224 -10.1351
19 1 12 -6.7683 -5.0210
21 1 12 -13.6409 6.2900
23 1 12 26.5011 -3.5697
25 1 12 -4.0967 -9.8366
27 1 12 -3.9121 4.5975
29 1 12 -1.7142 10.2489
31 1 12 -20.7715 -3.4241
33 1 12 -12.2297 -10.2307
35 1 12 8.2338 0.4399
-36 2 12 -10.0415 -1.9673
-34 2 12 21.0641 0.5792
-32 2 12 3.3621 0.9930
-30 2 12 3.7556 0.1489
-28 2 12 3.9095 0.1553
-26 2 12 -7.8926 -0.1700
-24 2 12 -3.1440 0.7939
-22 2 12 -11.6664 0.8106
-20 2 12 -11.9622 0.4158
-18 2 12 32.9011 0.0505
-16 2 12 -5.6892 -0.5648
-14 2 12 7.6235 -1.9891
-12 2 12 60.8914 -3.5484
-10 2 12 28.8498 -3.3392
-8 2 12 -82.9385 -1.2386
-4 2 12 65.2441 2.0418
-2 2 12 -6.7110 0.5740
0 2 12 -51.4937 -0.0084
2 2 12 -26.5799 4.2371
4 2 12 -49.8349 5.6431
6 2 12 -40.8983 3.0850
8 2 12 109.9448 3.3515
10 2 12 -21.2443 3.0398
12 2 12 -52.6324 -2.1367
14 2 12 -5.3871 -4.1960
16 2 12 -12.4625 -0.4064
18 2 12 9.3836 2.3324
20 2 12 22.0971 -0.3243
22 2 12 4.0258 -2.1353
24 2 12 -15.1910 -1.3406
26 2 12 11.9209 -0.6140
28 2 12 0.2408 -0.1971
30 2 12 1.3427 1.2130
32 2 12 -3.3696 2.4738
34 2 12 4.0659 1.3468
-35 3 12 -3.8732 -1.9798
-33 3 12 -1.7978 -0.0584
-31 3 12 -15.0001 0.7279
-29 3 12 11.7253 0.7093
-27 3 12 -14.4425 0.1472
-25 3 12 3.6233 -0.2172
-23 3 12 18.2598 -3.1271
-21 3 12 26.5213 -3.5561
-19 3 12 5.0445 2.4304
-17 3 12 17.7651 4.1656
-15 3 12 -9.4069 -3.8480
-13 3 12 46.6013 -6.3255
-11 3 12 28.5653 2.7460
-9 3 12 21.5113 5.4601
-7 3 12 91.8878 -0.8910
-5 3 12 -77.3663 -0.9014
-3 3 12 -79.1037 2.5618
-1 3 12 3.0029 -0.3381
1 3 12 202.6554 -1.0942
3 3 12 -59.6591 5.9896
5 3 12 31.1450 8.2145
7 3 12 18.8994 -1.3976
9 3 12 -48.0841 -8.3684
11 3 12 -34.7756 -0.4553
13 3 12 29.5444 7.1391
15 3 12 40.7197 2.8036
17 3 12 4.3857 -2.1245
19 3 12 -16.1164 -2.9512
21 3 12 6.2269 -3.5985
23 3 12 -14.2351 -2.8667
25 3 12 7.3456 2.1956
27 3 12 -9.5770 4.9120
29 3 12 -16.3077 -0.6199
31 3 12 10.3787 -5.1882
33 3 12 4.7181 -2.6290
35 3 12 -1.2287 1.9002
-36 4 12 -1.1265 1.8826
-34 4 12 -12.6116 -1.3325
-32 4 12 -15.5468 3.7476
-30 4 12 2.7958 0.1908
-28 4 12 24.6905 -1.9458
-26 4 12 -5.5473 0.4312
-24 4 12 -0.7105 1.1286
-22 4 12 -0.5129 -3.3600
-20 4 12 18.9167 -0.3943
-18 4 12 36.8122 7.9913
-16 4 12 -21.1720 1.8550
-14 4 12 39.5876 -12.6100
-12 4 12 18.5407 -8.7484
-10 4 12 -5.4957 7.6588
-8 4 12 -47.1053 5.5600
-6 4 12 91.1354 -7.5269
-4 4 12 -20.8261 -3.4388
-2 4 12 -63.3682 4.7764
0 4 12 -120.7502 -3.5238
2 4 12 121.0225 -5.3641
4 4 12 -115.2705 10.6110
6 4 12 -46.0605 14.4402
8 4 12 17.0168 -3.9502
10 4 12 -25.9680 -11.5342
12 4 12 -19.1960 2.7203
14 4 12 35.7005 9.7616
16 4 12 -25.7092 0.5397
18 4 12 -28.9278 -3.7953
20 4 12 -12.4265 -0.4667
22 4 12 -18.9424 -0.9748
24 4 12 -1.7832 -4.0189
26 4 12 12.0450 0.8994
28 4 12 -2.5021 4.2537
30 4 12 -6.1805 0.8697
32 4 12 -6.4649 -3.3463
34 4 12 2.1300 -1.0417
-35 5 12 -7.7851 0.0886
-33 5 12 16.7325 3.1031
-31 5 12 -13.2074 0.3063
-29 5 12 9.8914 -3.2161
-27 5 12 -3.3150 0.6580
-25 5 12 14.3835 3.9808
-23 5 12 5.5561 -3.1183
-21 5 12 -24.0509 -5.3660
-19 5 12 15.9704 5.4065
-17 5 12 19.6589 9.2233
-13 5 12 7.3493 -8.4678
-11 5 12 13.1133 2.2797
-9 5 12 42.2162 7.2591
-7 5 12 10.9715 -2.0321
-5 5 12 -40.1505 -3.9128
-3 5 12 61.5595 5.8624
-1 5 12 14.6992 3.1957
1 5 12 54.3487 -10.0866
3 5 12 -75.3541 -5.6686
5 5 12 50.0726 10.8002
7 5 12 -15.4549 6.4290
9 5 12 55.0160 -9.0951
11 5 12 -42.8137 -6.2073
13 5 12 26.3250 4.4637
15 5 12 4.1166 1.2982
17 5 12 -34.1971 -5.2701
19 5 12 1.6119 0.6289
21 5 12 7.9645 5.7272
23 5 12 -6.0711 -1.2262
25 5 12 -1.8550 -5.6419
27 5 12 -11.1451 1.1249
29 5 12 -10.0738 4.6898
31 5 12 3.3083 0.9239
33 5 12 -7.5195 -1.5797
-34 6 12 -9.3139 1.9713
-32 6 12 1.2768 -0.6009
-30 6 12 -0.5094 -1.6223
-28 6 12 3.0623 0.6332
-26 6 12 4.6072 2.4456
-24 6 12 10.4372 -1.3930
-22 6 12 8.7163 -3.5320
-20 6 12 8.9120 0.7518
-18 6 12 7.9624 3.8751
-16 6 12 14.5776 0.3518
-14 6 12 12.1132 -2.3239
-12 6 12 31.7697 1.2416
-10 6 12 6.2180 3.8741
-8 6 12 -67.1981 -0.5535
-6 6 12 -22.2091 -3.3333
-4 6 12 -77.0598 -0.1250
-2 6 12 -41.1439 1.6183
0 6 12 56.3964 -1.8079
2 6 12 73.2283 -3.1826
4 6 12 -138.4895 -0.0786
6 6 12 27.8370 0.8916
8 6 12 5.8585 -2.4049
10 6 12 -53.3349 -3.1645
12 6 12 -8.8170 2.0991
14 6 12 14.4980 4.9422
16 6 12 31.2290 0.5192
18 6 12 7.7384 -3.9048
20 6 12 27.7893 -2.0458
22 6 12 -5.7503 2.0964
24 6 12 0.5613 1.3933
26 6 12 19.5257 -0.4978
28 6 12 -14.1895 -0.0377
30 6 12 0.2807 0.5144
32 6 12 3.7986 -1.4590
34 6 12 5.5609 -0.9378
-35 7 12 2.2595 0.7745
-33 7 12 4.4678 -0.5483
-31 7 12 -13.4103 -1.1275
-29 7 12 1.5126 0.2389
-27 7 12 15.3388 1.3330
-25 7 12 -11.0991 -1.2469
-23 7 12 -17.4406 -0.1225
-21 7 12 1.0233 2.2597
-19 7 12 32.0632 0.6336
-17 7 12 -21.3903 -1.8013
-15 7 12 14.8694 0.1484
-13 7 12 2.7759 2.4522
-11 7 12 -1.9351 -0.7314
-9 7 12 17.5420 -2.8907
-7 7 12 37.2560 0.6609
-5 7 12 19.7051 3.0335
-3 7 12 -75.0630 0.4050
-1 7 12 40.5790 -1.2657
1 7 12 -72.9624 0.5146
3 7 12 -19.7945 0.2600
5 7 12 -17.9090 -1.6281
7 7 12 -14.9856 0.7418
9 7 12 2.1579 3.1531
11 7 12 18.1446 -0.1765
13 7 12 23.7913 -4.7011
15 7 12 34.2850 -2.6142
17 7 12 -14.1245 2.0950
19 7 12 -32.7384 2.3630
21 7 12 -22.1908 -0.1458
23 7 12 7.4967 -0.6492
25 7 12 -7.5494 -0.3005
27 7 12 4.0000 -1.3416
29 7 12 17.8439 -0.4829
31 7 12 -3.3497 2.9633
33 7 12 -12.8155 3.1156
-34 8 12 -4.1473 -1.0475
-32 8 12 -0.2723 -2.1210
-30 8 12 -2.8407 2.1926
-28 8 12 -13.0313 1.8223
-26 8 12 6.4486 -2.3715
-24 8 12 -3.0251 -1.2860
-22 8 12 -6.8865 3.4608
-20 8 12 -17.3598 0.5285
-18 8 12 10.8597 -3.8994
-16 8 12 56.6193 0.9758
-14 8 12 -31.5675 8.0974
-12 8 12 30.7736 2.9343
-10 8 12 26.7526 -5.4495
-8 8 12 21.2033 -1.3855
-6 8 12 -43.6663 3.9334
-4 8 12 23.4554 -0.4601
-2 8 12 -95.1298 -4.0650
0 8 12 19.3833 -0.7478
2 8 12 38.2209 -0.0513
4 8 12 -56.8197 -6.8029
6 8 12 -9.4282 -8.3541
8 8 12 -8.1846 1.3421
10 8 12 28.5559 6.5413
12 8 12 -8.9264 -0.8763
14 8 12 -72.3977 -5.6594
16 8 12 -7.8916 -0.3219
18 8 12 2.7245 3.1251
20 8 12 -9.1008 0.1920
22 8 12 -17.2466 0.1458
24 8 12 -19.6646 2.8586
26 8 12 15.9489 1.1487
28 8 12 -28.0889 -3.0154
30 8 12 -16.8770 -1.3763
32 8 12 7.3085 2.2809
34 8 12 5.4945 4.0808
-35 9 12 15.8851 -0.0166
-33 9 12 18.9008 0.6717
-31 9 12 -9.9849 -0.2784
-29 9 12 -11.2189 -1.1197
-27 9 12 -7.7723 -0.0488
-25 9 12 -2.8242 2.6155
-23 9 12 4.7584 1.8689
-21 9 12 -2.0991 -2.7976
-19 9 12 10.4696 -4.0429
-17 9 12 5.0188 -0.7721
-15 9 12 0.7843 1.1639
-13 9 12 7.0768 0.7444
-11 9 12 27.3309 1.0542
-9 9 12 7.5701 -0.3754
-7 9 12 -59.8125 -5.3694
-5 9 12 18.1139 -4.4501
-3 9 12 -49.5690 4.2403
-1 9 12 106.2741 7.4292
1 9 12 -3.9085 0.4863
3 9 12 26.9114 -3.2945
5 9 12 -46.4000 -0.8425
7 9 12 9.2350 0.0770
9 9 12 -60.3286 0.9887
11 9 12 -70.7443 4.0412
13 9 12 19.5913 3.0307
15 9 12 -2.7857 -3.2409
17 9 12 1.8981 -5.1010
19 9 12 15.5484 0.0486
21 9 12 28.5959 2.4344
23 9 12 5.6174 0.8183
25 9 12 -1.9289 -0.7193
27 9 12 -15.2375 -0.5812
29 9 12 -4.8205 -1.2687
31 9 12 -6.9330 -0.4730
33 9 12 -1.1722 1.7740
-34 10 12 -8.9323 0.9039
-32 10 12 -1.6108 0.4096
-30 10 12 3.6197 -1.8474
-28 10 12 10.3592 -1.7601
-26 10 12 6.8564 0.8501
-24 10 12 -5.5946 1.4308
-22 10 12 -4.7793 0.7438
-20 10 12 3.2689 0.6685
-18 10 12 8.1188 1.0922
-16 10 12 31.6810 -0.0863
-14 10 12 -14.2581 -0.1715
-12 10 12 -2.5170 2.3454
-10 10 12 43.9248 3.9008
-8 10 12 9.5019 0.3505
-6 10 12 -29.7167 -2.0538
-4 10 12 -56.5265 -0.2087
-2 10 12 -43.2706 0.7838
0 10 12 6.0616 -0.6340
2 10 12 27.4852 -1.8063
4 10 12 -78.6893 -2.1091
6 10 12 60.5169 -1.1295
8 10 12 10.3757 -0.4549
10 10 12 19.8681 -0.8660
12 10 12 -15.6070 0.4318
14 10 12 -11.3433 0.3746
16 10 12 27.1903 -0.9629
18 10 12 4.6314 -0.5217
20 10 12 -10.1553 1.9810
22 10 12 -5.7209 2.2936
24 10 12 -0.1575 -0.2279
26 10 12 0.0687 -1.1007
28 10 12 16.1590 -0.2264
30 10 12 9.6091 1.0123
32 10 12 35.2976 0.9244
-33 11 12 1.4979 0.4327
-31 11 12 -12.6854 -1.0481
-29 11 12 5.4621 -0.3300
-27 11 12 -15.7780 2.5655
-25 11 12 10.7375 1.3564
-23 11 12 11.9905 -2.6927
-21 11 12 -0.8460 -2.2884
-19 11 12 -5.7699 1.5096
-17 11 12 14.6102 0.9432
-15 11 12 2.1599 -3.3631
-13 11 12 27.0371 -1.8182
-11 11 12 -0.6000 2.0823
-9 11 12 11.2350 0.2021
-7 11 12 -64.4984 -4.6708
-5 11 12 36.3579 -2.3817
-3 11 12 18.1713 4.2431
-1 11 12 -37.7553 2.4056
1 11 12 -23.3774 -3.0524
3 11 12 -39.8964 -0.9290
5 11 12 -95.8633 2.9709
7 11 12 0.7565 0.6174
9 11 12 -1.1743 -2.1663
11 11 12 2.2695 1.1701
13 11 12 40.6833 3.3272
15 11 12 -12.8457 0.7175
17 11 12 14.5971 -2.5614
19 11 12 -12.7999 -0.9729
21 11 12 -8.9839 1.2758
23 11 12 -24.8191 1.3891
25 11 12 21.7123 -0.4356
27 11 12 -0.4566 -0.3804
29 11 12 -2.2443 -0.0134
31 11 12 13.2058 0.0896
33 11 12 19.1062 1.2611
-34 12 12 3.0127 -0.1201
-32 12 12 -2.3115 -1.8737
-30 12 12 2.2714 -0.2063
-28 12 12 17.1983 1.4627
-26 12 12 -5.9197 -1.3592
-24 12 12 20.0066 -2.3826
-22 12 12 -2.8521 1.8135
-20 12 12 -3.8966 2.2394
-18 12 12 16.3821 -3.2057
-16 12 12 -13.9868 -2.8988
-14 12 12 -8.3435 3.3829
-12 12 12 -3.7531 2.9722
-10 12 12 17.5188 -2.8641
-8 12 12 11.3225 -0.4773
-6 12 12 9.0248 5.0494
-4 12 12 -47.0956 1.2068
-2 12 12 -26.2731 -4.0548
0 12 12 -16.5617 1.1524
2 12 12 44.1139 5.1859
4 12 12 -67.3979 -0.4981
6 12 12 -26.7381 -3.7506
8 12 12 -4.2982 0.8493
10 12 12 8.1618 2.5706
12 12 12 -87.1033 -2.2798
14 12 12 -23.6769 -2.9586
16 12 12 -30.3652 1.8889
18 12 12 -8.7199 2.0514
20 12 12 16.3645 -2.4187
22 12 12 -1.9993 -2.4103
24 12 12 12.1976 1.4527
26 12 12 -18.9131 1.3759
28 12 12 5.5917 -1.1950
30 12 12 -18.5659 0.0217
32 12 12 4.5986 0.9278
-33 13 12 -1.5785 -1.4862
-31 13 12 -6.0691 0.5300
-29 13 12 8.9497 1.7797
-27 13 12 -3.9989 -0.7372
-25 13 12 3.9900 -1.8137
-23 13 12 -5.4627 1.0653
-21 13 12 -9.3411 1.9235
-19 13 12 -8.8836 -0.1834
-17 13 12 -17.2092 -0.8593
-15 13 12 -3.2236 0.6444
-13 13 12 30.2883 -0.6040
-11 13 12 3.0416 -2.1508
-9 13 12 -35.3964 -0.4238
-7 13 12 -52.7799 1.9864
-5 13 12 12.8159 0.3697
-3 13 12 -22.3608 -2.6849
-1 13 12 -7.7782 -2.2146
1 13 12 39.4834 0.6007
3 13 12 -46.7819 2.4080
5 13 12 -46.8455 1.0757
7 13 12 67.5432 -0.6419
9 13 12 -20.2042 -0.2309
11 13 12 -19.2120 0.8661
13 13 12 0.9221 0.5031
15 13 12 -0.4290 0.2772
17 13 12 14.2267 1.6840
19 13 12 -5.7846 1.4989
21 13 12 5.0984 -1.3450
23 13 12 -2.8025 -1.5027
25 13 12 20.9145 1.5846
27 13 12 -9.8116 2.0375
29 13 12 -0.2871 -0.9572
31 13 12 4.9058 -1.6482
-32 14 12 1.5870 2.2277
-30 14 12 -1.1734 1.2992
-28 14 12 1.1031 -0.3255
-26 14 12 -10.3776 -0.8278
-24 14 12 -2.9304 0.0465
-22 14 12 6.5136 0.1112
-20 14 12 11.3480 -0.4698
-18 14 12 2.9024 -0.0348
-16 14 12 -17.4263 -0.1673
-14 14 12 -18.2113 -1.1391
-12 14 12 -6.1240 -1.4936
-10 14 12 11.8864 -0.2549
-8 14 12 12.5723 1.5397
-6 14 12 1.4957 1.3701
-4 14 12 22.4800 0.4248
-2 14 12 -19.0002 0.0403
0 14 12 -53.1579 0.3629
2 14 12 -1.1066 0.8690
4 14 12 -29.4838 0.9256
6 14 12 -37.9101 1.2130
8 14 12 10.0112 0.5289
10 14 12 25.8448 -1.3447
12 14 12 -24.4977 -1.3377
14 14 12 0.7841 0.4438
16 14 12 -9.5549 0.8687
18 14 12 5.9360 -0.0948
20 14 12 4.5756 -0.1765
22 14 12 -13.8946 -0.2109
24 14 12 1.3109 -1.1014
26 14 12 1.4183 -0.5331
28 14 12 12.4481 0.8513
30 14 12 6.1789 1.1341
32 14 12 3.0628 -2.4347
-33 15 12 -0.9077 1.2706
-31 15 12 8.1909 -1.5648
-29 15 12 -1.4790 -0.6953
-27 15 12 1.8130 0.2783
-25 15 12 8.3295 0.4864
-23 15 12 -13.7862 -1.5398
-21 15 12 -16.6981 -0.8720
-19 15 12 11.9711 1.8314
-17 15 12 6.6190 0.8357
-15 15 12 -13.0481 -1.8473
-13 15 12 19.2265 -1.3877
-11 15 12 1.7465 0.9006
-9 15 12 -31.5107 0.3263
-7 15 12 -4.3238 -1.1522
-5 15 12 -13.6334 -0.3350
-3 15 12 -31.8713 0.1846
-1 15 12 -42.5205 -0.3072
1 15 12 -3.4059 -0.5031
3 15 12 22.6670 0.1234
5 15 12 0.0063 1.2637
7 15 12 18.7821 1.3836
9 15 12 2.7015 -0.1944
11 15 12 -8.6096 -1.4164
13 15 12 -7.2958 0.5105
15 15 12 -6.4611 2.0672
17 15 12 -5.7513 0.1122
19 15 12 -10.2674 -1.1460
21 15 12 -0.4399 0.0477
23 15 12 -10.4143 0.7090
25 15 12 16.5074 -0.7885
27 15 12 16.4338 -0.2269
29 15 12 -10.4471 0.7933
31 15 12 -0.8179 0.9729
-32 16 12 16.7117 -0.7043
-30 16 12 -3.3968 -0.5486
-28 16 12 -5.6133 1.2287
-26 16 12 -3.5282 0.1191
-24 16 12 3.5342 -1.5851
-22 16 12 9.8593 0.0477
-20 16 12 -5.1267 1.8518
-18 16 12 -24.2232 -0.3507
-16 16 12 22.7257 -1.8142
-14 16 12 -18.4120 0.6849
-12 16 12 20.7785 1.0996
-10 16 12 -8.8170 -1.2972
-8 16 12 -0.8612 -0.8894
-6 16 12 15.4095 1.1896
-4 16 12 41.5063 0.5011
-2 16 12 -8.9946 -0.5171
0 16 12 -10.5540 0.9811
2 16 12 -19.2753 1.4416
4 16 12 -21.6276 -0.7450
6 16 12 -32.0062 -0.6517
8 16 12 -9.6010 1.6828
10 16 12 -2.8292 0.8170
12 16 12 5.3804 -0.7454
14 16 12 -26.7688 -0.1506
16 16 12 -35.1204 0.8547
18 16 12 -8.8133 -0.4931
20 16 12 -20.6992 -0.7520
22 16 12 -7.7727 1.1798
24 16 12 14.5196 1.2245
26 16 12 -5.5917 -1.4924
28 16 12 -9.7361 -0.5339
30 16 12 2.8235 0.8043
-31 17 12 -3.9219 0.6645
-29 17 12 -9.9140 2.3646
-27 17 12 7.7569 -0.3100
-25 17 12 -2.0935 -2.4019
-23 17 12 -9.4674 1.3924
-21 17 12 2.6616 3.1478
-19 17 12 -4.7578 -1.1084
-17 17 12 -4.2586 -2.8729
-15 17 12 4.2727 2.0749
-13 17 12 -14.0752 2.5460
-11 17 12 -16.4742 -3.0528
-9 17 12 -17.0206 -2.3458
-7 17 12 -7.5101 2.6686
-5 17 12 -18.6708 1.2598
-3 17 12 19.4531 -3.8409
-1 17 12 1.8641 -2.1626
1 17 12 -14.4456 3.3577
3 17 12 -0.6175 1.1971
5 17 12 -7.9294 -3.4393
7 17 12 -0.2195 -1.1453
9 17 12 -13.4164 2.6586
11 17 12 14.8132 0.4314
13 17 12 9.0734 -2.6674
15 17 12 -7.2222 -0.2418
17 17 12 -3.6785 2.5333
19 17 12 3.5334 0.1993
21 17 12 7.4344 -2.2154
23 17 12 -10.1257 -0.7099
25 17 12 7.9577 1.9290
27 17 12 0.8678 0.3083
29 17 12 -1.0006 -1.9687
31 17 12 11.8286 -0.0379
-30 18 12 0.4280 1.4828
-28 18 12 0.8914 -0.7985
-26 18 12 6.6624 -1.5130
-24 18 12 2.1816 0.0176
-22 18 12 6.8677 1.9849
-20 18 12 -4.6792 -0.9378
-18 18 12 -22.4916 -2.4420
-16 18 12 25.0688 0.7257
-14 18 12 -27.3302 2.5960
-12 18 12 12.6972 -0.2976
-10 18 12 -12.0435 -2.1994
-8 18 12 17.4835 -0.0561
-6 18 12 -7.5273 1.0376
-4 18 12 14.3494 -0.6793
-2 18 12 -10.7781 -0.7213
0 18 12 -1.1544 1.5447
2 18 12 -16.4065 1.9329
4 18 12 13.5227 -1.0935
6 18 12 2.9041 -2.3866
8 18 12 -33.7282 0.4984
10 18 12 12.6222 2.1717
12 18 12 11.6588 0.4980
14 18 12 16.1082 -1.4581
16 18 12 -7.3741 -0.8727
18 18 12 -0.1942 0.1812
20 18 12 -24.7747 0.2368
22 18 12 5.3348 -0.6023
24 18 12 -5.8204 0.9382
26 18 12 -3.7876 0.9681
28 18 12 -3.4420 -0.8075
30 18 12 -0.7414 -2.6913
-31 19 12 -0.4157 0.4302
-29 19 12 -6.0216 -0.4179
-27 19 12 -6.1890 -1.1729
-25 19 12 -3.4852 0.1329
-23 19 12 -2.8369 1.5551
-21 19 12 -10.0804 0.3829
-19 19 12 9.6651 -0.4902
-17 19 12 22.8323 0.2745
-15 19 12 5.3653 0.5748
-13 19 12 6.0402 -0.2919
-11 19 12 13.4572 -0.3812
-9 19 12 -26.0486 1.0214
-7 19 12 -5.5743 0.5713
-5 19 12 11.6361 -1.2450
-3 19 12 25.8583 -1.4501
-1 19 12 -3.2630 -0.3096
1 19 12 -1.4656 -0.0903
3 19 12 -4.5999 -0.7668
5 19 12 -0.2242 -0.4070
7 19 12 4.3714 -0.0423
9 19 12 -5.4692 -0.2612
11 19 12 -3.7897 -0.3403
13 19 12 -18.5556 0.5109
15 19 12 -14.9036 0.2454
17 19 12 -3.6095 -0.2872
19 19 12 -18.4066 0.1691
21 19 12 13.2441 0.6271
23 19 12 3.9887 -0.1638
25 19 12 3.9731 -0.6534
27 19 12 -5.4889 -0.2093
29 19 12 16.0982 -0.7469
-30 20 12 -3.6043 -1.7146
-28 20 12 10.7754 -0.6343
-26 20 12 -3.1503 1.3805
-24 20 12 6.4216 0.0336
-22 20 12 -2.9532 -1.2563
-20 20 12 -1.3748 -0.4748
-18 20 12 -2.7716 1.1915
-16 20 12 43.2417 0.8582
-14 20 12 15.5461 -0.5652
-12 20 12 -20.6435 -0.5301
-10 20 12 -2.0106 0.1772
-8 20 12 13.2015 -0.0047
-6 20 12 -3.3101 -1.1438
-4 20 12 3.7906 -0.3550
-2 20 12 -9.8608 1.2826
0 20 12 16.4689 0.3426
2 20 12 -21.5826 -1.2913
4 20 12 -8.3993 -0.0003
6 20 12 12.5040 1.0882
8 20 12 7.1272 -0.0730
10 20 12 37.4270 -1.3505
12 20 12 13.9164 -0.2111
14 20 12 10.7720 1.2665
16 20 12 -13.6118 0.0491
18 20 12 12.2684 -1.8502
20 20 12 -6.7744 -0.7258
22 20 12 -4.4037 0.6229
24 20 12 -18.7933 0.5658
26 20 12 6.6925 -1.3412
28 20 12 9.1019 -0.1726
-29 21 12 -5.1387 -0.5189
-27 21 12 -0.8738 -0.5195
-25 21 12 4.4259 -0.0778
-23 21 12 12.7639 -0.3177
-21 21 12 -0.7732 -0.0465
-19 21 12 8.9103 -0.0071
-17 21 12 18.9569 0.2273
-15 21 12 -9.0788 0.2410
-13 21 12 11.7962 0.2610
-11 21 12 41.7149 0.2996
-9 21 12 -8.1363 0.0202
-7 21 12 -2.7364 -0.0799
-5 21 12 -13.2966 -0.1642
-3 21 12 -14.6261 -0.5603
-1 21 12 -15.6846 -0.8078
1 21 12 -2.9400 -0.4830
3 21 12 -30.5046 -0.3487
5 21 12 26.3090 -0.5922
7 21 12 10.9769 -0.6403
9 21 12 -4.5504 0.0573
11 21 12 -19.2744 0.1811
13 21 12 10.0717 -0.0536
15 21 12 -1.2726 -0.1663
17 21 12 1.4133 0.3357
19 21 12 -6.7444 0.2125
21 21 12 0.3124 -0.5446
23 21 12 -0.3507 -0.0013
25 21 12 5.9391 0.8444
27 21 12 1.1112 -0.0090
-28 22 12 3.2869 -0.4414
-26 22 12 -19.2998 -0.6428
-24 22 12 21.1645 -0.0752
-22 22 12 -14.6462 0.4921
-20 22 12 5.3973 0.3569
-18 22 12 3.6486 -0.4205
-16 22 12 -16.7557 0.1646
-14 22 12 -4.0094 0.6220
-12 22 12 -7.1657 -0.7636
-10 22 12 -5.1030 -0.9802
-8 22 12 -11.9017 0.7543
-6 22 12 3.1255 1.4078
-4 22 12 2.9990 0.0471
-2 22 12 21.2993 -1.2517
0 22 12 7.9451 -0.5438
2 22 12 -3.6939 0.9117
4 22 12 -2.0345 0.7775
6 22 12 -1.7917 0.2041
8 22 12 2.2282 0.2463
10 22 12 -18.2939 -0.2124
12 22 12 -13.0759 -0.8392
14 22 12 -22.9656 -0.3502
16 22 12 -2.9477 0.9053
18 22 12 3.5739 0.5821
20 22 12 2.1608 -0.5211
22 22 12 12.0112 -1.2167
24 22 12 -11.3201 0.1043
26 22 12 2.7036 0.1486
28 22 12 9.2825 0.8768
-27 23 12 4.3158 -0.0870
-25 23 12 -5.3687 -0.5153
-23 23 12 -0.3356 0.6799
-21 23 12 3.1902 -0.5000
-19 23 12 1.7615 -1.6105
-17 23 12 -11.3548 0.3951
-15 23 12 6.1159 2.0413
-13 23 12 1.3905 0.7178
-11 23 12 12.9216 -1.2476
-9 23 12 -12.8239 -0.7557
-7 23 12 -1.7000 0.8159
-5 23 12 -21.4198 0.7052
-3 23 12 -19.2543 -0.0124
-1 23 12 20.5920 0.0141
1 23 12 15.6481 0.1522
3 23 12 -24.9471 -0.4255
5 23 12 1.2477 -0.7283
7 23 12 18.5990 -0.2763
9 23 12 12.6039 0.6742
11 23 12 -10.1624 0.8288
13 23 12 1.9629 -0.7682
15 23 12 -0.5014 -1.3602
17 23 12 2.5976 0.1244
19 23 12 5.0099 0.8222
21 23 12 2.8125 -0.1673
23 23 12 6.1754 -0.8246
25 23 12 35.1837 0.8182
27 23 12 18.5664 -0.4571
-26 24 12 -4.3746 0.2446
-24 24 12 18.1361 -0.1274
-22 24 12 -5.3770 -0.1751
-20 24 12 17.8634 -0.7405
-18 24 12 6.8623 -0.2780
-16 24 12 -3.8786 0.2272
-14 24 12 -15.8437 -0.0986
-12 24 12 -0.8870 -0.4448
-10 24 12 -6.8160 0.3229
-8 24 12 0.3884 0.9969
-6 24 12 19.1974 0.0748
-4 24 12 -27.5055 -0.8006
-2 24 12 4.4722 0.3057
0 24 12 17.8268 0.6882
2 24 12 1.1157 -0.5584
4 24 12 -14.2210 -0.4082
6 24 12 -1.3422 1.4693
8 24 12 10.5199 1.0988
10 24 12 11.9199 -1.0985
12 24 12 -2.5050 -0.6788
14 24 12 5.8371 0.6963
16 24 12 1.4470 0.2204
18 24 12 7.6195 -0.7089
20 24 12 -17.7755 0.3222
22 24 12 -10.6394 0.2656
24 24 12 10.4895 -0.2639
26 24 12 7.3373 -2.2694
-25 25 12 -7.8079 -0.1845
-23 25 12 -8.3870 -0.8378
-21 25 12 5.3809 -1.0526
-19 25 12 11.0148 0.0467
-17 25 12 -2.7044 0.8280
-15 25 12 1.0111 0.2337
-13 25 12 5.2000 -0.1669
-11 25 12 -3.3582 0.2812
-9 25 12 -1.3105 -0.2291
-7 25 12 -10.3828 -0.7841
-5 25 12 -6.8546 -0.2495
-3 25 12 -3.1588 1.4431
-1 25 12 13.4181 1.5186
1 25 12 -1.8966 -0.5033
3 25 12 -3.6143 -1.5285
5 25 12 -8.3479 0.0151
7 25 12 2.5682 0.9334
9 25 12 -5.4617 0.3614
11 25 12 -2.0264 0.0484
13 25 12 13.0058 0.1844
15 25 12 7.7129 -0.0555
17 25 12 2.3592 -0.8364
19 25 12 -8.2023 -0.2794
21 25 12 20.2590 1.1181
23 25 12 0.1257 0.8214
25 25 12 20.3733 -0.0506
-24 26 12 -2.4442 -1.1571
-22 26 12 -2.5602 -0.2929
-20 26 12 7.9792 0.2338
-18 26 12 -19.8444 -0.9872
-16 26 12 7.9043 -1.2330
-14 26 12 -2.4223 0.4098
-12 26 12 3.6968 1.3252
-10 26 12 -2.8138 -0.1691
-8 26 12 14.1611 -0.7234
-6 26 12 11.2196 0.2898
-4 26 12 -3.2410 0.1212
-2 26 12 -3.3942 0.0898
0 26 12 4.1624 1.1046
2 26 12 4.4964 0.6512
4 26 12 -1.4488 -1.0061
6 26 12 19.6752 -0.5177
8 26 12 12.9541 1.0704
10 26 12 3.3005 0.8194
12 26 12 -14.0618 -0.5051
14 26 12 16.6464 0.1249
16 26 12 -1.3168 0.1811
18 26 12 12.5497 -0.8108
20 26 12 -5.4381 -0.2744
22 26 12 2.1366 0.9044
24 26 12 -3.7689 2.1912
-23 27 12 3.4156 0.7089
-21 27 12 2.8171 0.8205
-19 27 12 2.4107 -0.6494
-17 27 12 -4.4779 -1.4829
-15 27 12 -6.6862 0.3215
-13 27 12 7.6409 1.0457
-11 27 12 5.0174 -0.3949
-9 27 12 10.5555 -0.6911
-7 27 12 -11.8606 0.9059
-5 27 12 22.7595 0.9913
-3 27 12 -4.1104 -0.8203
-1 27 12 51.9123 -0.6735
1 27 12 10.4639 1.1786
3 27 12 6.0048 1.0272
5 27 12 3.3679 -0.6029
7 27 12 -7.0184 -0.6978
9 27 12 6.9795 0.7507
11 27 12 -12.6006 0.1422
13 27 12 7.1447 -1.0442
15 27 12 5.3181 -0.4314
17 27 12 -9.3765 0.8297
19 27 12 2.4980 0.3692
21 27 12 4.3626 -0.6276
23 27 12 -12.8058 0.7428
-22 28 12 11.5375 0.6637
-20 28 12 -5.0274 -1.7136
-18 28 12 4.9416 -1.2059
-16 28 12 -2.7500 0.5585
-14 28 12 -11.7232 1.5966
-12 28 12 -18.2627 -0.4186
-10 28 12 -0.9694 -0.8978
-8 28 12 12.8754 0.4004
-6 28 12 1.5076 0.7116
-4 28 12 -8.5344 -0.4532
-2 28 12 7.4806 -0.5862
0 28 12 -6.1683 0.6987
2 28 12 23.3909 1.0626
4 28 12 -8.6935 -0.4443
6 28 12 4.5999 -1.2766
8 28 12 -1.0301 0.2011
10 28 12 5.0936 1.4834
12 28 12 2.1042 0.5288
14 28 12 7.5459 -0.8220
16 28 12 18.8971 0.1386
18 28 12 13.0415 0.3975
20 28 12 -15.2798 0.0956
22 28 12 8.9605 -0.7202
-21 29 12 -0.9774 -0.8367
-19 29 12 -4.6759 0.2928
-17 29 12 -6.7807 0.2047
-15 29 12 -9.0717 -0.7562
-13 29 12 -10.0146 -0.8998
-11 29 12 5.0835 0.1555
-9 29 12 9.7328 0.7160
-7 29 12 1.3497 -0.1664
-5 29 12 18.0930 -0.7038
-3 29 12 -20.4527 -0.3336
-1 29 12 25.8775 -0.0333
1 29 12 3.4085 0.1055
3 29 12 -6.8007 0.5903
5 29 12 -0.5435 0.8614
7 29 12 -2.0567 -0.5763
9 29 12 -3.4898 -0.9805
11 29 12 -10.5743 0.2179
13 29 12 -9.2610 0.6426
15 29 12 -1.9545 0.1651
17 29 12 -3.3561 0.1262
19 29 12 -9.7831 0.0908
21 29 12 5.7189 0.1521
-20 30 12 -11.0459 -0.8384
-18 30 12 -12.0946 1.8402
-16 30 12 -2.8901 0.0718
-14 30 12 -0.1307 -0.9320
-12 30 12 -9.9414 -0.2779
-10 30 12 -3.5511 0.9306
-8 30 12 -12.9456 0.1727
-6 30 12 3.8222 -0.7274
-4 30 12 -20.2053 -0.1209
-2 30 12 -1.7598 0.6817
0 30 12 -17.0185 -0.3803
2 30 12 35.4879 -1.1067
4 30 12 -4.2386 0.4680
6 30 12 12.5213 1.3984
8 30 12 15.4063 -0.4412
10 30 12 13.2636 -1.6311
12 30 12 -4.4915 0.0152
14 30 12 -11.3998 0.8891
16 30 12 -1.8837 0.6160
18 30 12 7.4319 -0.8174
-19 31 12 -8.6396 0.7197
-17 31 12 9.5800 -0.3649
-15 31 12 2.7401 -1.6697
-13 31 12 -5.7884 0.3253
-11 31 12 1.1906 0.7891
-9 31 12 4.2493 -0.2434
-7 31 12 0.6112 -0.6427
-5 31 12 -5.4060 -0.1649
-3 31 12 -12.3669 0.0889
-1 31 12 4.7287 -0.5544
1 31 12 3.5238 -0.6065
3 31 12 -5.5936 -0.2438
5 31 12 -0.2878 0.2947
7 31 12 9.5089 -0.1007
9 31 12 -2.9269 -0.7982
11 31 12 -7.1792 -0.2485
13 31 12 -5.9576 0.4649
15 31 12 14.4300 0.5818
17 31 12 10.8178 -0.1134
-16 32 12 7.8257 0.9066
-14 32 12 5.8475 0.7746
-12 32 12 -4.0687 -0.0122
-10 32 12 4.3510 -0.4248
-8 32 12 0.0790 -0.1118
-6 32 12 -2.2468 0.1432
-4 32 12 13.0726 -0.3722
-2 32 12 6.7970 -0.2924
0 32 12 0.0500 -0.2233
2 32 12 7.7577 0.1669
4 32 12 -13.0657 0.1688
6 32 12 13.1319 -0.1564
8 32 12 -5.6930 -0.0161
10 32 12 -6.6352 0.6941
12 32 12 3.0097 -0.4450
14 32 12 -4.2649 -0.6173
16 32 12 -8.3608 0.7465
-15 33 12 -6.4846 0.0561
-13 33 12 -3.8127 0.4199
-11 33 12 -3.9802 -0.6834
-9 33 12 6.5493 -0.5764
-7 33 12 0.9542 0.1038
-5 33 12 9.5094 0.1991
-3 33 12 -13.0203 -0.7271
-1 33 12 2.6354 -0.5030
1 33 12 -4.7122 0.5414
3 33 12 -5.0667 0.3888
5 33 12 -9.9763 -1.2341
7 33 12 9.6476 -0.8688
9 33 12 10.6628 0.9995
11 33 12 -5.6216 0.7067
13 33 12 3.6210 -0.9183
-12 34 12 -6.2896 -0.3065
-10 34 12 -4.5761 0.5804
-8 34 12 -9.2548 0.5767
-6 34 12 1.2859 -1.0029
-4 34 12 5.5354 -0.8373
-2 34 12 -6.5850 0.7053
0 34 12 10.5055 0.4234
2 34 12 -14.6035 -0.4752
4 34 12 -3.6584 0.1249
6 34 12 6.7323 -0.0733
8 34 12 -16.5046 0.6581
10 34 12 -5.2784 0.1291
12 34 12 -3.3612 -0.4478
-9 35 12 10.8671 0.0727
-7 35 12 -7.2839 -0.7210
-5 35 12 13.8805 -0.4040
-3 35 12 -13.1822 0.4514
-1 35 12 16.0937 0.5158
1 35 12 -3.9736 0.0384
3 35 12 -5.8728 -0.6096
5 35 12 -5.1444 -0.3041
7 35 12 -1.2800 0.2397
9 35 12 5.5679 0.2002
-6 36 12 2.7426 -0.4889
-4 36 12 3.3285 -0.1317
-2 36 12 -3.3679 0.5345
0 36 12 -4.6622 0.2023
2 36 12 -14.8450 0.2584
4 36 12 9.0389 0.8653
-35 1 13 4.4388 -7.7675
-33 1 13 -8.0258 2.8569
-31 1 13 2.3468 4.3305
-29 1 13 -3.9069 -3.0933
-27 1 13 1.5076 4.0124
-25 1 13 -2.0391 12.2685
-23 1 13 1.0336 -7.3460
-21 1 13 -12.2671 -21.6129
-19 1 13 4.6872 9.3394
-17 1 13 5.6250 34.2650
-15 1 13 -10.3584 2.0899
-13 1 13 4.6286 -25.8200
-11 1 13 18.4148 -2.3626
-9 1 13 34.0547 9.0236
-7 1 13 -21.3994 -16.9239
-5 1 13 -2.9712 -7.9445
-3 1 13 -2.8694 29.0905
-1 1 13 -78.9971 1.0156
1 1 13 68.9731 -52.4271
3 1 13 79.2179 -25.4426
5 1 13 53.0865 34.7856
7 1 13 -51.2108 26.1010
9 1 13 -51.3324 -15.8500
11 1 13 -35.8220 -10.0216
13 1 13 4.0039 11.7233
15 1 13 41.0067 -2.3557
17 1 13 -9.2486 -10.1250
19 1 13 -8.1113 14.7824
21 1 13 3.8618 21.4428
23 1 13 -2.0482 -8.0438
25 1 13 17.7876 -21.2561
27 1 13 -9.9036 0.4777
29 1 13 -12.1471 13.4447
31 1 13 6.6739 1.9460
33 1 13 3.6993 -4.2121
35 1 13 3.6722 -0.1934
-36 2 13 -6.8490 -2.4885
-34 2 13 11.6644 4.5990
-32 2 13 -3.1091 3.4027
-30 2 13 -11.7414 -4.8786
-28 2 13 7.2805 -7.3093
-26 2 13 -18.9755 4.5893
-24 2 13 18.3471 8.1586
-22 2 13 20.0784 -4.5445
-20 2 13 8.7574 -7.1938
-18 2 13 27.2058 4.1670
-16 2 13 2.6999 1.3106
-14 2 13 6.0948 -12.9309
-12 2 13 -2.6559 -4.1813
-10 2 13 -16.3324 18.1671
-8 2 13 1.0149 8.7879
-6 2 13 36.4878 -18.8758
-4 2 13 -59.7121 -11.5067
-2 2 13 38.6864 17.1786
0 2 13 -2.2958 14.2178
2 2 13 30.5467 -6.3245
4 2 13 -6.4812 -0.6045
6 2 13 -4.8449 10.7185
8 2 13 -2.3860 -5.5870
10 2 13 -35.0594 -16.8920
12 2 13 -14.0989 4.5278
14 2 13 -19.8094 17.9207
16 2 13 -40.9623 -2.6149
18 2 13 15.5075 -16.8792
20 2 13 8.4930 -3.0253
22 2 13 0.3000 7.0632
24 2 13 -20.4476 0.3736
26 2 13 -11.2257 -2.0407
28 2 13 22.5624 4.0906
30 2 13 6.8329 1.8037
32 2 13 9.1420 -5.5063
34 2 13 -7.9023 -5.4813
-35 3 13 -1.4996 -0.8785
-33 3 13 -8.8887 -1.3695
-31 3 13 8.6881 0.1160
-29 3 13 -1.5598 0.3010
-27 3 13 5.1922 1.2824
-25 3 13 15.5134 -1.1668
-23 3 13 12.2915 -3.9390
-21 3 13 -8.0187 -3.6063
-19 3 13 24.7491 1.3333
-17 3 13 33.5975 5.5772
-15 3 13 9.6472 3.3885
-13 3 13 -11.2776 -3.3191
-11 3 13 1.9666 -5.8610
-9 3 13 119.4465 -1.5525
-7 3 13 -62.2359 5.4403
-5 3 13 2.7936 7.3768
-3 3 13 75.7976 3.4448
-1 3 13 30.1332 -2.6133
1 3 13 -8.8125 -5.7436
3 3 13 -135.3656 -1.9109
5 3 13 -29.2215 5.9288
7 3 13 47.1359 10.4212
9 3 13 91.0074 4.3182
11 3 13 4.3674 -6.1817
13 3 13 18.0468 -6.7868
15 3 13 15.6068 1.0963
17 3 13 26.4000 4.4862
19 3 13 -10.0525 2.5514
21 3 13 -15.5090 -0.7780
23 3 13 -23.0171 -3.8780
25 3 13 7.5037 -4.5312
27 3 13 -15.3564 -0.8360
29 3 13 -25.5247 2.7034
31 3 13 -4.6049 2.0634
33 3 13 -1.6441 -1.4844
-34 4 13 0.9497 -1.0358
-32 4 13 2.8238 -0.4574
-30 4 13 1.2508 1.2315
-28 4 13 -2.1977 1.7149
-26 4 13 1.0824 -0.9640
-24 4 13 -6.8559 -1.6277
-22 4 13 -9.3349 1.1719
-20 4 13 -7.1070 1.6062
-18 4 13 -0.6284 -3.2829
-16 4 13 3.3680 -4.0507
-14 4 13 -47.6036 2.2901
-12 4 13 40.9212 3.5421
-10 4 13 -32.0495 -4.2561
-8 4 13 -46.7475 -4.7860
-6 4 13 -46.1491 4.7254
-4 4 13 -71.9767 6.4799
-2 4 13 -64.9694 -0.5967
0 4 13 38.3652 2.3921
2 4 13 -1.5201 9.3239
4 4 13 78.2641 1.2675
6 4 13 1.4198 -8.1091
8 4 13 -68.1065 0.1830
10 4 13 -36.7460 9.4127
12 4 13 3.3810 0.8479
14 4 13 6.2660 -8.3704
16 4 13 -45.3775 -3.0607
18 4 13 -11.7619 1.6820
20 4 13 16.1087 -1.6522
22 4 13 -25.7718 -1.4217
24 4 13 -3.5845 3.9144
26 4 13 -11.5082 1.9344
28 4 13 4.3885 -4.1481
30 4 13 3.9563 -3.3606
32 4 13 3.2306 2.8319
34 4 13 -7.1859 3.0240
-35 5 13 -3.8802 -0.1402
-33 5 13 2.3770 0.4680
-31 5 13 -6.5303 1.0740
-29 5 13 -10.3370 -1.2609
-27 5 13 -3.0307 -3.4797
-25 5 13 2.0785 1.2315
-23 5 13 1.4572 3.9791
-21 5 13 -8.4516 0.4094
-19 5 13 1.4283 -3.3552
-17 5 13 11.9940 -1.2178
-15 5 13 42.9560 1.3772
-13 5 13 -12.7067 1.1077
-11 5 13 -24.2922 3.1394
-9 5 13 80.6898 4.2673
-7 5 13 31.8201 -1.1903
-5 5 13 1.4921 -7.3294
-3 5 13 11.3738 -2.8623
-1 5 13 20.9399 5.1849
1 5 13 -19.6247 4.0506
3 5 13 24.1903 -0.2422
5 5 13 79.8589 -1.4624
7 5 13 -24.1058 -3.2187
9 5 13 23.6455 -3.8275
11 5 13 7.5612 2.6687
13 5 13 -30.9328 7.5597
15 5 13 -33.4803 1.3068
17 5 13 34.4778 -5.1378
19 5 13 10.2885 -2.7484
21 5 13 7.8922 0.5761
23 5 13 16.2495 0.3109
25 5 13 -6.1457 1.1976
27 5 13 8.5180 2.1649
29 5 13 0.6547 -1.0279
31 5 13 -6.8119 -4.0221
33 5 13 -1.1346 -1.8793
-34 6 13 -1.3334 0.0357
-32 6 13 -2.1815 2.6116
-30 6 13 14.8578 -0.1836
-28 6 13 -25.8531 -1.5804
-26 6 13 31.1195 0.2670
-24 6 13 -2.2653 1.7384
-22 6 13 -1.4257 -1.6966
-20 6 13 34.9772 -2.3655
-18 6 13 2.6542 1.5001
-16 6 13 20.3940 0.4700
-14 6 13 -23.1893 -5.0897
-12 6 13 33.6263 -3.2166
-10 6 13 40.8720 4.4399
-8 6 13 -6.3373 4.0463
-6 6 13 -97.2338 -2.8209
-4 6 13 75.3661 -1.0839
-2 6 13 -2.8413 7.7589
0 6 13 119.8223 5.9577
2 6 13 -75.8414 -2.5264
4 6 13 45.1059 0.7126
6 6 13 -80.2964 7.2287
8 6 13 23.9178 1.2349
10 6 13 40.0106 -5.0876
12 6 13 46.6882 -0.5400
14 6 13 -32.5012 3.9140
16 6 13 -15.9251 -2.7389
18 6 13 32.4019 -6.4953
20 6 13 -14.1061 0.7969
22 6 13 -25.2220 3.9846
24 6 13 -4.6788 -1.8708
26 6 13 3.2874 -4.4059
28 6 13 0.7386 0.3256
30 6 13 -3.8144 1.6401
32 6 13 -2.0367 -0.0092
34 6 13 -5.6624 -1.3322
-35 7 13 7.4326 0.3481
-33 7 13 10.2379 2.4973
-31 7 13 -6.6001 0.1167
-29 7 13 0.9578 -4.4655
-27 7 13 -3.8389 -1.6664
-25 7 13 -8.9029 3.5772
-23 7 13 7.5257 2.5129
-21 7 13 -8.0537 -1.5579
-19 7 13 -6.3784 -0.2968
-17 7 13 37.0615 2.1446
-15 7 13 34.3677 -1.8074
-13 7 13 -30.7022 -3.0256
-11 7 13 9.7408 5.3404
-9 7 13 53.5849 7.6884
-7 7 13 9.9905 -4.6496
-5 7 13 2.1832 -11.0996
-3 7 13 22.6030 0.4303
-1 7 13 101.1904 9.7974
1 7 13 -14.8108 1.7787
3 7 13 -41.6510 -5.2911
5 7 13 30.6646 -1.9815
7 7 13 -23.8501 -1.3181
9 7 13 27.8293 -3.9059
11 7 13 9.9040 0.6368
13 7 13 -17.0782 7.3542
15 7 13 -0.2246 2.1675
17 7 13 14.1757 -7.7325
19 7 13 8.0723 -5.6803
21 7 13 -4.3823 4.0707
23 7 13 3.8781 5.6684
25 7 13 -5.6706 0.2674
27 7 13 2.9907 -1.8402
29 7 13 -13.2155 -0.9651
31 7 13 -17.2926 -0.4516
33 7 13 -6.8656 -0.9392
-34 8 13 -3.4601 0.2361
-32 8 13 -1.4905 -1.0020
-30 8 13 9.8616 -0.5625
-28 8 13 -15.7199 0.3931
-26 8 13 5.4226 -0.3337
-24 8 13 2.9360 -1.4107
-22 8 13 -0.9970 -0.4157
-20 8 13 24.1255 0.8211
-18 8 13 -8.7125 -1.2263
-16 8 13 -5.8994 -2.8001
-14 8 13 -29.3549 -0.8385
-12 8 13 -11.0436 1.1944
-10 8 13 20.4707 -0.4568
-8 8 13 17.8159 -1.4796
-6 8 13 -76.6313 -0.1366
-4 8 13 5.7009 -0.1161
-2 8 13 2.0736 -1.1952
2 8 13 96.6770 2.2114
4 8 13 81.9591 3.8315
6 8 13 -67.6842 0.1445
8 8 13 -49.6401 -1.8828
10 8 13 -5.9236 0.5060
12 8 13 -40.6693 1.9902
14 8 13 -31.9551 0.8442
16 8 13 11.6893 0.2506
18 8 13 48.8488 0.9750
20 8 13 -8.0242 -1.1727
22 8 13 7.4283 -2.3100
24 8 13 -13.1117 -0.7941
26 8 13 -3.0960 0.7016
28 8 13 13.6742 0.9440
30 8 13 1.1734 -0.1804
32 8 13 11.5949 -0.6295
34 8 13 7.0614 -0.8391
-35 9 13 -0.9197 -3.4639
-33 9 13 -0.3277 0.3228
-31 9 13 0.2282 1.5617
-29 9 13 4.4439 0.4961
-27 9 13 4.8725 -1.2939
-25 9 13 3.8630 0.2487
-23 9 13 14.7981 2.6783
-21 9 13 -6.0530 1.6479
-19 9 13 -1.1225 0.0455
-17 9 13 37.7045 0.5233
-15 9 13 6.5695 0.2865
-13 9 13 -21.6992 -1.7076
-11 9 13 -25.0006 -0.5453
-9 9 13 32.1545 3.1329
-7 9 13 -0.6352 2.0230
-5 9 13 55.6438 -1.4623
-3 9 13 -7.3166 -1.4087
-1 9 13 22.5574 1.1155
1 9 13 -7.1553 0.9097
3 9 13 -19.7518 -0.2964
5 9 13 19.2924 0.7773
7 9 13 -9.2202 0.0831
9 9 13 11.6112 -2.3236
11 9 13 3.4915 -1.3693
13 9 13 10.2385 0.1845
15 9 13 -22.8876 -0.8777
17 9 13 14.6445 -1.4086
19 9 13 -4.9043 0.4586
21 9 13 -2.3855 0.3417
23 9 13 -2.3303 -1.1634
25 9 13 33.6634 0.0861
27 9 13 6.3498 1.2713
29 9 13 -1.1865 -0.2926
31 9 13 5.7245 -1.5974
33 9 13 7.0283 -0.1678
-34 10 13 -8.1026 -0.7717
-32 10 13 -1.0126 0.7992
-30 10 13 21.5965 0.6503
-28 10 13 19.4363 -1.0815
-26 10 13 5.3525 1.3420
-24 10 13 8.3360 1.1200
-22 10 13 -18.5013 -2.3193
-20 10 13 -7.9688 -2.0593
-18 10 13 10.6327 3.4306
-16 10 13 6.1566 3.7351
-14 10 13 7.1442 -2.7522
-12 10 13 40.4481 -3.2590
-10 10 13 -5.9102 1.4019
-8 10 13 -8.5105 0.2773
-6 10 13 -3.1453 -3.5863
-4 10 13 -19.8827 0.1950
-2 10 13 36.0964 3.6212
0 10 13 -71.0621 -3.1982
2 10 13 56.8504 -7.0893
4 10 13 -40.9431 0.7061
6 10 13 -18.6540 5.7839
8 10 13 14.3151 0.3548
10 10 13 81.3768 -3.1779
12 10 13 21.9518 1.2096
14 10 13 12.9906 1.9259
16 10 13 -8.5257 -2.1154
18 10 13 12.8336 -0.5822
20 10 13 10.5112 3.5323
22 10 13 -10.7906 1.2134
24 10 13 -13.7873 -3.3804
26 10 13 -3.1319 -1.3595
28 10 13 17.4242 1.5680
30 10 13 0.1322 0.9043
32 10 13 4.9188 -0.2654
-33 11 13 -3.3897 1.6296
-31 11 13 -1.4319 -0.2925
-29 11 13 -3.0012 -2.3169
-27 11 13 2.9554 0.6836
-25 11 13 -1.6141 3.2072
-23 11 13 17.8092 -1.9398
-21 11 13 6.4276 -5.2573
-19 11 13 -9.4287 0.8462
-17 11 13 15.5980 4.9907
-15 11 13 4.2935 -1.3950
-13 11 13 2.0054 -4.2400
-11 11 13 18.2000 2.3312
-9 11 13 -0.7792 3.6942
-7 11 13 5.6371 -2.2800
-5 11 13 -8.5524 -2.1700
-3 11 13 32.6088 4.9659
-1 11 13 -37.2131 2.7800
1 11 13 20.2710 -6.3659
3 11 13 12.8133 -3.9566
5 11 13 -6.6088 5.0305
7 11 13 -4.9085 3.4192
9 11 13 -22.9112 -4.1412
11 11 13 -39.5152 -3.4989
13 11 13 -38.0620 1.2983
15 11 13 1.9299 0.5967
17 11 13 18.0914 -0.8761
19 11 13 0.9704 1.6648
21 11 13 2.8934 2.0206
23 11 13 -11.7853 -2.1461
25 11 13 14.1941 -3.1970
27 11 13 -20.9712 1.3412
29 11 13 -11.9183 3.4735
31 11 13 -9.2853 0.6365
33 11 13 -13.0794 -1.7840
-34 12 13 2.7747 0.8834
-32 12 13 -16.3861 0.4924
-30 12 13 12.3956 -2.3032
-28 12 13 6.3110 0.2521
-26 12 13 -2.9284 3.2243
-24 12 13 -3.3489 0.5996
-22 12 13 -14.1309 -2.0616
-20 12 13 -4.3376 1.1106
-18 12 13 11.0492 4.2600
-16 12 13 -25.5727 0.8859
-14 12 13 -17.6651 -2.9342
-12 12 13 24.0024 -0.0917
-10 12 13 -28.4395 2.7836
-8 12 13 20.5939 -1.5131
-6 12 13 1.2469 -4.7930
-4 12 13 -31.0785 0.0320
-2 12 13 -48.8659 3.1936
0 12 13 -55.9081 -2.6102
2 12 13 14.6867 -6.0064
4 12 13 64.9122 0.3528
6 12 13 14.8727 4.0294
8 12 13 -27.6544 -0.8868
10 12 13 16.3782 -2.3202
12 12 13 12.4691 1.3275
14 12 13 -11.9052 2.2842
16 12 13 -38.8127 -1.6826
18 12 13 -4.3010 -2.3925
20 12 13 1.6225 1.7945
22 12 13 -1.1416 3.0765
24 12 13 -4.2957 -1.0485
26 12 13 -5.9064 -2.4755
28 12 13 4.0624 -0.2593
30 12 13 0.9622 2.4998
32 12 13 -12.5792 0.1391
-33 13 13 -0.2207 -2.3934
-31 13 13 8.9578 -0.4104
-29 13 13 1.0429 1.7474
-27 13 13 -4.0686 2.1537
-25 13 13 4.7166 -1.2988
-23 13 13 -10.2985 -3.2654
-21 13 13 -10.3800 -0.8329
-19 13 13 -10.1726 0.6339
-17 13 13 43.1568 0.0570
-15 13 13 22.3892 0.6268
-13 13 13 -2.4949 1.2907
-11 13 13 -9.6807 -2.1061
-9 13 13 -20.1226 -3.6349
-7 13 13 6.1218 1.1517
-5 13 13 0.5551 4.8015
-3 13 13 34.3588 1.4414
-1 13 13 -4.2140 -2.5227
1 13 13 9.1280 -1.4719
3 13 13 44.4843 0.6482
5 13 13 -5.0584 0.0388
7 13 13 -10.2337 0.4556
9 13 13 -14.0822 2.3523
11 13 13 15.4117 0.4156
13 13 13 -15.1457 -3.3476
15 13 13 2.1613 -1.7630
17 13 13 9.2151 2.6688
19 13 13 12.9851 2.2048
21 13 13 -0.0222 -1.6016
23 13 13 -16.5933 -1.2370
25 13 13 1.4534 0.3122
27 13 13 1.7011 0.3024
29 13 13 -11.8884 -0.7784
31 13 13 0.7783 1.5561
-32 14 13 4.3089 -0.6867
-30 14 13 -1.9303 -0.3186
-28 14 13 0.5756 0.3170
-26 14 13 2.7006 -1.0911
-24 14 13 2.7132 0.3318
-22 14 13 7.0167 1.4859
-20 14 13 13.1530 -0.1188
-18 14 13 -10.0689 -2.0114
-16 14 13 -2.7103 -0.1575
-14 14 13 -16.3499 1.5419
-12 14 13 8.8733 1.1556
-10 14 13 -14.3019 0.7235
-8 14 13 25.4796 0.4696
-6 14 13 -7.9091 -0.7879
-4 14 13 30.9181 -2.1293
-2 14 13 30.7830 -0.5926
0 14 13 11.1522 1.9439
2 14 13 -16.5608 0.9446
4 14 13 47.7977 -1.6337
6 14 13 7.4769 -1.9963
8 14 13 -9.6969 -0.5649
10 14 13 20.4124 0.6182
12 14 13 -4.9789 0.9634
14 14 13 6.7541 0.6222
16 14 13 -19.2489 -0.4635
18 14 13 -1.6038 -1.0111
20 14 13 -16.0191 -0.7383
22 14 13 12.6913 0.2027
24 14 13 -9.0330 0.7837
26 14 13 -0.4958 1.0167
28 14 13 -0.7962 -0.2619
30 14 13 -2.1103 -0.9855
32 14 13 -9.1367 0.1024
-33 15 13 -7.5780 0.8364
-31 15 13 -10.0042 1.8048
-29 15 13 -6.9821 1.2119
-27 15 13 -2.8986 -0.3151
-25 15 13 0.0498 -0.5860
-23 15 13 5.2271 0.0073
-21 15 13 1.8023 0.4387
-19 15 13 -13.7083 0.7935
-17 15 13 33.0287 0.2138
-15 15 13 -1.1789 -0.2480
-13 15 13 10.6512 -0.1743
-11 15 13 -20.7611 0.0654
-9 15 13 22.8863 -0.0388
-7 15 13 -15.6291 0.8155
-5 15 13 -22.8943 1.1453
-3 15 13 8.3189 0.2646
-1 15 13 21.1347 -0.2320
1 15 13 -56.8395 0.9947
3 15 13 19.0870 1.5675
5 15 13 16.1559 0.1689
7 15 13 -19.1607 -0.4651
9 15 13 -47.4751 0.0418
11 15 13 0.0356 1.2908
13 15 13 13.2917 0.1051
15 15 13 -17.7542 -0.5141
17 15 13 -5.9535 -0.3628
19 15 13 15.3901 0.0645
21 15 13 5.0012 -0.3130
23 15 13 3.6563 -0.1127
25 15 13 -1.3787 0.7905
27 15 13 -2.8216 0.3909
29 15 13 -2.5557 -1.0940
31 15 13 -5.3335 -0.3651
-32 16 13 9.6969 1.4091
-30 16 13 6.7424 -1.1106
-28 16 13 13.6925 0.1869
-26 16 13 -3.7427 1.3142
-24 16 13 -2.3086 0.1892
-22 16 13 0.4049 -1.6600
-20 16 13 -2.3301 -0.6690
-18 16 13 -23.1971 0.9256
-16 16 13 21.7456 0.0308
-14 16 13 -0.5019 -1.1065
-12 16 13 10.9492 0.3361
-10 16 13 -9.9983 2.4522
-8 16 13 11.5896 0.7709
-6 16 13 28.0873 -1.9329
-4 16 13 -12.5105 -0.7167
-2 16 13 27.4671 1.8400
0 16 13 37.5825 0.3177
2 16 13 -23.6787 -1.8328
4 16 13 1.8892 -0.5278
6 16 13 -7.9321 1.6596
8 16 13 -21.1194 -0.7361
10 16 13 14.9381 -3.0603
12 16 13 5.5945 0.3436
14 16 13 -0.1062 3.1703
16 16 13 -10.3240 0.3328
18 16 13 9.2444 -2.1895
20 16 13 -7.9790 -0.0901
22 16 13 5.8501 1.6056
24 16 13 -24.2651 -0.5279
26 16 13 9.5234 -0.2485
28 16 13 -2.0550 0.7039
30 16 13 -4.7880 1.0159
-31 17 13 -2.2043 -0.4613
-29 17 13 0.2526 -0.3881
-27 17 13 1.6555 0.3013
-25 17 13 -14.0179 -0.2600
-23 17 13 5.5860 -0.7344
-21 17 13 13.2158 0.4311
-19 17 13 -0.4257 0.6851
-17 17 13 19.8171 -0.7906
-15 17 13 -7.8225 -2.0165
-13 17 13 1.8296 -0.0989
-11 17 13 -45.1303 1.6690
-9 17 13 -0.4069 0.5230
-7 17 13 -12.3676 -1.3143
-5 17 13 10.5732 -0.9195
-3 17 13 15.4772 0.6455
-1 17 13 -2.9055 1.3515
1 17 13 -11.2433 0.7239
3 17 13 3.8598 0.8409
5 17 13 17.6237 1.1843
7 17 13 -2.0681 -0.0027
9 17 13 -9.8434 -1.0826
11 17 13 -7.0717 0.2970
13 17 13 5.7972 1.8561
15 17 13 9.2312 0.6185
17 17 13 12.5944 -1.5399
19 17 13 1.8381 -1.5454
21 17 13 5.7981 0.0984
23 17 13 14.4731 1.0749
25 17 13 -3.6046 0.4648
27 17 13 -11.1522 0.1501
29 17 13 12.8754 -0.8213
-30 18 13 4.5901 -0.8457
-28 18 13 -5.0863 0.9323
-26 18 13 -5.4125 -0.2462
-24 18 13 8.1921 -1.2698
-22 18 13 2.4244 -0.4304
-20 18 13 -13.1895 0.8684
-18 18 13 -8.5284 0.6679
-16 18 13 14.2907 0.1397
-14 18 13 5.5007 0.0515
-12 18 13 -15.5590 -0.1081
-10 18 13 0.9330 -0.3891
-8 18 13 13.8985 0.3529
-6 18 13 20.5613 1.7655
-4 18 13 -29.7114 1.3552
-2 18 13 37.8384 -0.5145
0 18 13 6.5631 -1.5946
2 18 13 -8.5754 -0.0541
4 18 13 8.9487 0.7432
6 18 13 38.0164 0.2059
8 18 13 -2.0512 0.0199
10 18 13 -5.3384 0.3081
12 18 13 -8.9578 -0.9086
14 18 13 -12.1717 -0.6646
16 18 13 -14.5091 1.3828
18 18 13 10.1030 1.4370
20 18 13 8.5593 -0.4501
22 18 13 3.6399 -1.3151
24 18 13 -15.0061 0.2646
26 18 13 9.1916 1.2044
28 18 13 7.4580 -1.1535
30 18 13 -6.6345 -1.3900
-29 19 13 13.1144 1.1519
-27 19 13 1.3892 -0.4528
-25 19 13 -12.4265 -0.1712
-23 19 13 11.1217 1.3870
-21 19 13 4.4465 1.0244
-19 19 13 10.5605 -1.2790
-17 19 13 19.2746 -1.7897
-15 19 13 1.3004 0.1929
-13 19 13 14.7065 1.1917
-11 19 13 1.7113 -0.2800
-9 19 13 -16.6336 -1.3434
-7 19 13 -14.4875 -0.4439
-5 19 13 -24.2168 0.4962
-3 19 13 -16.4771 -0.0965
-1 19 13 1.0536 -0.3909
1 19 13 -5.3506 0.7685
3 19 13 -5.4567 1.6838
5 19 13 17.5037 -0.0856
7 19 13 2.2955 -1.6524
9 19 13 19.3819 0.4132
11 19 13 -22.8912 1.8070
13 19 13 11.3606 -0.1108
15 19 13 -1.8226 -1.3359
17 19 13 1.7870 0.2885
19 19 13 5.1036 1.1210
21 19 13 27.7568 -0.4256
23 19 13 -2.7207 -0.8951
25 19 13 -2.6949 0.6916
27 19 13 1.7841 1.0779
29 19 13 11.8917 -0.9987
-30 20 13 -0.5812 1.5623
-28 20 13 -1.4473 -0.3004
-26 20 13 -2.1553 -0.0497
-24 20 13 3.3161 0.3797
-22 20 13 -6.4456 -0.1683
-20 20 13 -4.4528 -0.6399
-18 20 13 7.7223 0.8867
-16 20 13 -22.3378 1.0317
-14 20 13 11.0524 -0.3503
-12 20 13 -6.0777 -0.9147
-10 20 13 1.5722 0.3804
-8 20 13 -12.7737 0.6997
-6 20 13 4.8142 -0.2172
-4 20 13 5.3911 0.5816
-2 20 13 -4.7943 0.8597
0 20 13 0.0927 -1.0144
2 20 13 7.1715 -1.4502
4 20 13 -45.0071 0.7344
6 20 13 28.1999 1.4854
8 20 13 -9.6210 -0.4095
10 20 13 -17.1083 -1.0675
12 20 13 -0.1950 0.4520
14 20 13 -2.2253 0.3611
16 20 13 -15.7915 -0.7591
18 20 13 5.3316 0.3001
20 20 13 10.8577 1.5032
22 20 13 -13.2710 -0.1040
24 20 13 -11.1555 -1.3544
26 20 13 -1.8171 -0.6635
28 20 13 11.4227 0.0710
-29 21 13 3.8756 0.4654
-27 21 13 -4.3798 -0.2302
-25 21 13 9.1960 1.4322
-23 21 13 22.4031 -0.2369
-21 21 13 10.2282 -1.2550
-19 21 13 5.6643 0.3732
-17 21 13 9.3828 0.9932
-15 21 13 5.0713 -0.5614
-13 21 13 -3.0301 -1.0040
-11 21 13 -0.8967 0.1594
-9 21 13 -27.2089 0.1561
-7 21 13 16.3658 -1.7360
-5 21 13 -13.7005 -1.7025
-3 21 13 -12.3652 0.6556
-1 21 13 25.8387 0.8869
1 21 13 -8.4380 -1.0707
3 21 13 14.0519 -1.5182
5 21 13 -8.2505 0.7008
7 21 13 -10.4032 1.8405
9 21 13 15.0535 -0.3389
11 21 13 -32.0506 -0.5963
13 21 13 3.3110 1.1004
15 21 13 -2.5497 1.0844
17 21 13 -0.8609 -0.9051
19 21 13 1.7449 -0.6992
21 21 13 34.0201 1.1653
23 21 13 -4.1054 0.6760
25 21 13 -5.9607 -1.4640
27 21 13 -4.3740 -1.6732
-28 22 13 13.6333 0.1999
-26 22 13 -0.7384 1.4692
-24 22 13 -1.9055 -1.0069
-22 22 13 -3.9241 -0.4838
-20 22 13 -8.8819 0.9906
-18 22 13 -2.8735 1.0272
-16 22 13 -28.3883 -1.0853
-14 22 13 7.4092 -0.8788
-12 22 13 -2.8856 0.9966
-10 22 13 -1.1850 0.6226
-8 22 13 -14.0611 -0.9511
-6 22 13 11.2212 -1.0789
-4 22 13 -4.5176 0.3801
-2 22 13 -15.6826 0.8619
0 22 13 13.4055 -0.0292
2 22 13 3.0223 -0.2269
4 22 13 -33.5770 -0.4035
6 22 13 14.6361 -0.5127
8 22 13 9.5030 0.0757
10 22 13 -19.1146 0.0186
12 22 13 -17.9493 0.2476
14 22 13 9.0225 0.1687
16 22 13 -17.0260 -0.0818
18 22 13 21.9108 -0.4480
20 22 13 0.7023 0.4442
22 22 13 -1.8002 0.9517
24 22 13 15.6897 0.8301
26 22 13 12.3093 -1.1856
-27 23 13 11.4182 0.4493
-25 23 13 -4.3320 -0.9828
-23 23 13 4.5966 -0.4082
-21 23 13 7.7189 1.9944
-19 23 13 -4.2886 0.3570
-17 23 13 -4.5623 -1.5163
-15 23 13 2.2861 0.3901
-13 23 13 9.2389 2.3443
-11 23 13 6.8061 -0.8510
-9 23 13 -15.1945 -2.2143
-7 23 13 -9.1635 0.8442
-5 23 13 -1.3587 0.9523
-3 23 13 5.7668 -1.9639
-1 23 13 -12.6413 -1.4576
1 23 13 -11.4188 1.6565
3 23 13 11.8923 0.5605
5 23 13 -3.7960 -2.0638
7 23 13 7.9840 -0.4788
9 23 13 0.9824 1.9380
11 23 13 -7.3315 0.3867
13 23 13 1.9271 -1.4191
15 23 13 13.4609 0.1602
17 23 13 0.4839 1.2878
19 23 13 -7.7860 0.1618
21 23 13 20.9243 -1.0297
23 23 13 -13.4499 0.5639
25 23 13 7.4013 0.8741
-26 24 13 -1.7881 -0.7204
-24 24 13 -0.9271 -0.3059
-22 24 13 -0.8023 2.4804
-20 24 13 2.0179 0.6433
-18 24 13 -1.8768 -2.0835
-16 24 13 -11.6289 -0.4210
-14 24 13 5.6211 1.2592
-12 24 13 7.1686 0.1785
-10 24 13 -9.2603 -1.0935
-8 24 13 -10.8626 0.1985
-6 24 13 17.1487 1.0207
-4 24 13 9.2262 -0.7840
-2 24 13 21.8455 -1.6283
0 24 13 19.0100 0.4894
2 24 13 12.1301 2.0103
4 24 13 -7.9482 -0.1225
6 24 13 8.1777 -2.3648
8 24 13 7.6757 -0.5294
10 24 13 1.9242 1.9368
12 24 13 -12.8714 0.5076
14 24 13 23.3719 -1.2208
16 24 13 -11.9108 -0.6787
18 24 13 18.6196 0.5029
20 24 13 -3.4355 -0.0644
22 24 13 9.0931 -0.6783
24 24 13 -14.3170 0.8012
26 24 13 -13.7550 -0.8958
-25 25 13 -3.6656 0.6548
-23 25 13 17.7241 0.6172
-21 25 13 5.8778 -0.0086
-19 25 13 0.2780 -0.7257
-17 25 13 10.2418 0.3847
-15 25 13 2.8433 0.9914
-13 25 13 -0.3122 -0.4484
-11 25 13 10.1554 -0.9262
-9 25 13 22.6245 0.0803
-7 25 13 -2.8701 0.7606
-5 25 13 2.4508 -0.5858
-3 25 13 1.3905 -1.5793
-1 25 13 5.5860 -0.2226
1 25 13 2.4356 0.8338
3 25 13 20.0820 0.0687
5 25 13 2.4562 -0.6507
7 25 13 -17.6592 0.0858
9 25 13 6.6940 0.3051
11 25 13 -0.7319 -0.3106
13 25 13 -5.1580 -0.1290
15 25 13 -3.1924 0.9772
17 25 13 3.6126 0.4246
19 25 13 -2.4195 -0.0112
21 25 13 17.2158 -0.9804
23 25 13 -13.1433 0.3582
25 25 13 -3.1787 -0.9315
-24 26 13 6.2525 0.9663
-22 26 13 10.8010 -0.8026
-20 26 13 3.0438 -0.4118
-18 26 13 -5.0015 0.5855
-16 26 13 -10.8844 0.7260
-14 26 13 -4.7357 -0.6051
-12 26 13 -4.6719 -0.5852
-10 26 13 -1.6755 1.1695
-8 26 13 15.2295 0.7175
-6 26 13 21.1607 -0.7544
-4 26 13 3.8390 -0.1618
-2 26 13 8.4580 1.0805
0 26 13 12.6287 0.2833
2 26 13 14.1578 -0.8416
4 26 13 -6.9707 0.4129
6 26 13 21.0111 1.0069
8 26 13 7.6688 -0.3832
10 26 13 -14.6691 -0.9491
12 26 13 -2.2484 -0.0685
14 26 13 14.5981 0.5658
16 26 13 -2.3256 -0.1279
18 26 13 -9.7974 -0.2169
20 26 13 -0.0593 -0.0521
22 26 13 -6.8743 -0.6066
24 26 13 -15.6016 -0.1564
-23 27 13 13.1205 -0.4902
-21 27 13 1.1212 0.4501
-19 27 13 -7.9817 1.1499
-17 27 13 11.5089 0.3922
-15 27 13 -18.6526 -0.5676
-13 27 13 -8.9783 -0.1689
-11 27 13 2.4315 0.3112
-9 27 13 0.2790 0.2236
-7 27 13 -14.7855 0.1452
-5 27 13 20.9084 0.7234
-3 27 13 4.4438 0.5985
-1 27 13 0.7508 -0.3626
1 27 13 -0.5361 -0.7106
3 27 13 -6.9838 -0.0589
5 27 13 9.3477 0.6180
7 27 13 -5.2996 0.4165
9 27 13 3.3686 -0.2320
11 27 13 -1.5664 -0.6193
13 27 13 -14.2081 -0.0565
15 27 13 -7.8352 0.3465
17 27 13 1.9286 0.0028
19 27 13 6.8033 0.3742
21 27 13 19.8150 -0.6310
23 27 13 1.8286 0.0593
-22 28 13 -3.2107 0.3713
-20 28 13 5.6779 -0.7099
-18 28 13 -7.5919 -1.1051
-16 28 13 8.6269 0.4370
-14 28 13 2.9810 1.3332
-12 28 13 1.1078 -0.1603
-10 28 13 12.0300 -0.6776
-8 28 13 0.1024 0.2963
-6 28 13 16.9005 0.8634
-4 28 13 -20.8447 0.0614
-2 28 13 -8.4628 -0.1572
0 28 13 -1.1827 0.1333
2 28 13 10.4339 0.1581
4 28 13 -7.1145 0.2521
6 28 13 2.7209 0.4341
8 28 13 31.8154 -0.2085
10 28 13 1.8051 -0.8862
12 28 13 3.2565 -0.2402
14 28 13 -2.1424 -0.2044
16 28 13 6.0426 0.1174
18 28 13 -10.3706 0.3434
20 28 13 -8.0874 -0.8740
22 28 13 -11.1961 -2.5121
-21 29 13 3.9313 0.4687
-19 29 13 -11.8156 -0.9151
-17 29 13 9.5934 -0.1007
-15 29 13 0.0913 0.5666
-13 29 13 0.8105 0.1283
-11 29 13 -1.8149 -0.4862
-9 29 13 -2.4214 -0.0077
-7 29 13 -19.6264 0.8821
-5 29 13 1.2038 0.6531
-3 29 13 4.7941 -0.3055
-1 29 13 -0.7677 -0.5808
1 29 13 7.1862 0.3172
3 29 13 -0.5560 0.1208
5 29 13 6.5026 -0.2018
7 29 13 7.7201 -0.1666
9 29 13 2.2187 0.3210
11 29 13 -0.0734 0.4983
13 29 13 -13.1627 -0.2243
15 29 13 -2.4125 -0.4781
17 29 13 -5.9825 -0.5592
19 29 13 -6.4152 0.4533
-20 30 13 4.4877 -0.6607
-18 30 13 -11.9591 0.3800
-16 30 13 14.2786 1.6178
-14 30 13 8.1572 0.1487
-12 30 13 4.1967 -0.4702
-10 30 13 -4.5750 -0.0920
-8 30 13 -1.1368 0.2162
-6 30 13 -0.0119 -0.1095
-4 30 13 -7.8008 -0.0180
-2 30 13 -1.8461 0.6574
0 30 13 5.3064 0.4989
2 30 13 5.0094 -0.0957
4 30 13 -8.9679 -0.2041
6 30 13 6.8919 0.1593
8 30 13 23.1262 0.1249
10 30 13 -6.0186 -0.3750
12 30 13 -3.1015 -0.4704
14 30 13 8.3865 0.6536
16 30 13 -3.1257 0.1844
18 30 13 12.9749 -0.7975
-19 31 13 0.5011 0.6786
-17 31 13 3.9007 0.4683
-15 31 13 8.6493 -1.0546
-13 31 13 15.6693 -0.2585
-11 31 13 0.5635 0.9661
-9 31 13 5.9375 0.4551
-7 31 13 6.0732 -0.8403
-5 31 13 -2.6893 -0.3135
-3 31 13 -6.2123 0.3348
-1 31 13 -5.9863 0.2323
1 31 13 -17.6520 0.0728
3 31 13 7.6627 0.1417
5 31 13 -4.4403 0.0919
7 31 13 0.4147 -0.2656
9 31 13 2.2429 -0.7085
11 31 13 -3.1131 0.0287
13 31 13 -1.3828 0.8742
15 31 13 6.4852 1.0309
17 31 13 -0.7563 -1.2880
-16 32 13 1.7133 -0.0769
-14 32 13 1.2387 -0.0661
-12 32 13 3.5202 0.5833
-10 32 13 -9.5316 -0.0422
-8 32 13 -8.0560 -0.0982
-6 32 13 -0.1915 -0.0867
-4 32 13 11.4374 0.0667
-2 32 13 4.3542 -0.3764
0 32 13 20.7435 -0.2512
2 32 13 -13.0061 -0.0753
4 32 13 -15.7056 0.0281
6 32 13 -1.8344 -0.2830
8 32 13 5.3730 0.0166
10 32 13 8.9873 0.6262
12 32 13 -7.0697 -0.3173
14 32 13 10.9687 0.0826
16 32 13 -13.0424 0.1481
-15 33 13 -5.1496 -0.3247
-13 33 13 0.3953 0.8229
-11 33 13 -2.5323 -0.5122
-9 33 13 0.6182 -1.4225
-7 33 13 -0.4076 -0.1058
-5 33 13 6.2793 0.4685
-3 33 13 -7.4080 -0.7239
-1 33 13 6.8632 -0.5751
1 33 13 -8.7178 1.0444
3 33 13 -4.2948 0.9113
5 33 13 -4.4780 -0.8825
7 33 13 -7.8482 -1.4129
9 33 13 -5.5270 0.3966
11 33 13 -9.4926 0.8489
13 33 13 -1.8064 0.1581
-12 34 13 0.8651 -0.0462
-10 34 13 5.8631 -1.1401
-8 34 13 -6.6970 0.6259
-6 34 13 -5.0992 1.2144
-4 34 13 -0.1963 -0.7053
-2 34 13 2.6025 -2.0168
0 34 13 8.3347 -0.2002
2 34 13 7.7327 1.6860
4 34 13 4.2952 -0.0989
6 34 13 9.8831 -1.5979
8 34 13 0.5605 -0.0009
10 34 13 7.4605 1.5126
-9 35 13 10.1388 -1.0853
-7 35 13 6.8542 0.0721
-5 35 13 13.6461 0.1167
-3 35 13 2.3406 -1.1192
-1 35 13 -0.1795 -0.7067
1 35 13 -16.8218 0.4826
3 35 13 0.3769 0.2111
5 35 13 6.2131 -0.5315
7 35 13 -8.3120 -0.6863
-4 36 13 -10.6793 0.5435
-2 36 13 10.1580 -0.1583
0 36 13 -5.1932 -0.9330
2 36 13 3.4437 -0.2407
-36 0 14 5.9247 4.7462
-34 0 14 14.1625 -1.8760
-32 0 14 -1.7457 -7.7833
-30 0 14 -10.1403 0.2691
-28 0 14 9.9817 9.5983
-26 0 14 -11.0385 5.3197
-24 0 14 1.6544 -0.2732
-22 0 14 1.9118 4.3543
-20 0 14 -26.8976 4.5674
-18 0 14 37.5657 -3.5456
-16 0 14 -0.8311 0.2291
-14 0 14 -46.9632 12.2088
-12 0 14 -17.6645 2.5085
-10 0 14 23.2621 -25.1234
-8 0 14 24.9395 -35.4325
-6 0 14 9.6960 -20.8810
-4 0 14 61.6238 -8.2743
-2 0 14 -22.7653 -12.1673
0 0 14 -64.3925 -17.1400
2 0 14 23.0461 -12.4356
4 0 14 -160.1661 -6.9688
6 0 14 -104.3734 -1.9742
8 0 14 77.8905 18.8628
10 0 14 -51.0281 34.9033
12 0 14 -24.6022 17.2788
14 0 14 24.1379 -4.1809
16 0 14 69.7473 1.9217
18 0 14 17.2678 13.7179
20 0 14 11.2688 7.1211
22 0 14 -0.8084 -0.2044
24 0 14 -22.5836 3.3770
26 0 14 -28.1341 -0.4481
28 0 14 -4.0463 -9.8870
30 0 14 3.5458 -4.5501
32 0 14 0.9373 6.9589
34 0 14 9.1714 4.9638
-35 1 14 9.6626 1.0204
-33 1 14 -12.5171 -5.2272
-31 1 14 5.9105 -0.6858
-29 1 14 -20.4230 11.5232
-27 1 14 -16.3246 0.8783
-25 1 14 1.6395 -16.4355
-23 1 14 27.7846 -1.0886
-21 1 14 -9.8295 21.8609
-19 1 14 -16.3982 0.5488
-17 1 14 -17.4239 -26.1189
-15 1 14 50.3511 -3.4676
-13 1 14 -14.8472 19.1157
-11 1 14 -22.3927 -10.6876
-9 1 14 -20.2853 -27.2652
-7 1 14 -106.3098 13.9432
-5 1 14 -18.1458 25.2386
-3 1 14 -11.5268 -27.9717
-1 1 14 32.6747 -34.9420
1 1 14 -33.1533 27.8343
3 1 14 57.4846 35.3390
5 1 14 7.3978 -20.8651
7 1 14 -40.4160 -23.5081
9 1 14 17.7509 20.7597
11 1 14 -4.5545 15.3561
13 1 14 -30.8951 -17.3709
15 1 14 -14.7740 -1.4128
17 1 14 2.9928 24.2833
19 1 14 -26.9039 2.3229
21 1 14 -18.0673 -22.2413
23 1 14 2.3441 -2.7138
25 1 14 6.5475 18.3672
27 1 14 1.1138 4.6140
29 1 14 5.4338 -11.1773
31 1 14 10.5999 -3.7709
33 1 14 -1.2989 4.1234
-34 2 14 3.1997 0.0387
-32 2 14 14.5863 -0.3378
-30 2 14 11.7287 -0.1903
-28 2 14 0.6460 -1.3195
-26 2 14 -4.7200 -0.0943
-24 2 14 7.6690 0.5791
-22 2 14 10.6949 0.4306
-20 2 14 -27.3577 0.9421
-18 2 14 15.0430 3.0853
-16 2 14 24.7696 2.0030
-14 2 14 -28.6797 -1.0585
-12 2 14 13.3786 -0.7774
-10 2 14 -29.2771 0.7638
-8 2 14 -28.5460 -1.4835
-6 2 14 -5.1651 -3.7806
-4 2 14 30.3734 -2.4452
-2 2 14 -26.5375 -2.9760
0 2 14 27.4351 -5.1914
4 2 14 9.3278 2.0621
6 2 14 -54.9559 3.5996
8 2 14 25.8046 1.2024
10 2 14 26.7943 0.9310
12 2 14 -4.4104 1.6301
14 2 14 8.4904 1.3197
16 2 14 -1.9802 1.5543
18 2 14 -3.4657 2.3286
20 2 14 -5.5989 1.2700
22 2 14 -4.0037 -1.2649
24 2 14 -0.8682 -2.4132
26 2 14 -0.7146 -0.8892
28 2 14 0.5445 0.8289
30 2 14 0.9262 1.3018
32 2 14 -5.1566 -0.4625
34 2 14 7.4032 0.1132
-35 3 14 1.8784 -1.7618
-33 3 14 -6.5540 1.2377
-31 3 14 7.0086 1.0218
-29 3 14 -5.3400 1.2653
-27 3 14 -12.9876 0.3745
-25 3 14 4.6846 -1.5659
-23 3 14 11.2359 -0.6423
-21 3 14 -17.2656 2.6103
-19 3 14 5.0726 1.5254
-17 3 14 -12.5518 -2.9847
-15 3 14 7.5463 -2.8329
-13 3 14 -14.6404 0.4136
-11 3 14 -31.6177 -0.1054
-9 3 14 -9.7550 -1.2039
-7 3 14 -18.0377 0.4590
-5 3 14 9.1186 -1.8219
-3 3 14 -8.2705 -7.0490
-1 3 14 -115.6464 -2.8808
1 3 14 -4.3216 6.8881
3 3 14 81.1282 5.5708
5 3 14 -55.0006 -3.3683
7 3 14 25.1827 -4.4683
9 3 14 11.3145 1.3543
11 3 14 22.5888 3.0738
13 3 14 -12.3116 3.5197
15 3 14 15.9398 4.9017
17 3 14 30.2610 0.6178
19 3 14 -8.2796 -5.3275
21 3 14 2.8766 -3.3921
23 3 14 1.9086 3.5852
25 3 14 -9.0421 4.8260
27 3 14 -4.7891 -0.6104
29 3 14 2.6405 -3.1844
31 3 14 -5.7023 -2.0209
33 3 14 2.4406 -0.2606
-34 4 14 -3.1069 1.8388
-32 4 14 -9.5175 -2.1677
-30 4 14 8.0617 0.0018
-28 4 14 -23.4674 2.0529
-26 4 14 9.0527 -1.3951
-24 4 14 -8.3760 -3.6740
-22 4 14 -4.0707 3.4052
-20 4 14 -8.6049 7.5553
-18 4 14 -2.5142 -0.7947
-16 4 14 6.8406 -6.6093
-14 4 14 -0.3012 -0.0827
-12 4 14 45.6585 4.2192
-10 4 14 63.1767 -1.6066
-8 4 14 -54.2069 -2.3210
-6 4 14 -27.6450 2.8639
-4 4 14 86.4786 -4.1416
-2 4 14 9.0961 -13.0935
0 4 14 -32.0372 -3.0638
2 4 14 -120.2626 9.5049
4 4 14 26.3290 4.0691
6 4 14 -66.9588 -6.2469
8 4 14 42.2821 -3.9343
10 4 14 22.0059 2.1491
12 4 14 -59.7813 1.3931
14 4 14 -49.0556 2.0806
16 4 14 -1.8279 6.2068
18 4 14 31.1495 2.2777
20 4 14 -1.8465 -5.4324
22 4 14 -5.3495 -3.3682
24 4 14 -2.8744 4.0155
26 4 14 10.8760 4.4410
28 4 14 5.4742 -1.0843
30 4 14 8.3402 -2.3532
32 4 14 5.4617 -0.5926
34 4 14 2.8617 0.7319
-35 5 14 -5.5533 -2.4736
-33 5 14 4.7790 -2.7187
-31 5 14 3.6505 0.3617
-29 5 14 -8.8540 5.6556
-27 5 14 -5.5609 -0.7695
-25 5 14 -8.2413 -9.4067
-23 5 14 23.7758 -0.3739
-21 5 14 -18.9380 10.1835
-19 5 14 -20.4035 -0.3133
-17 5 14 -8.3012 -10.3397
-15 5 14 15.2781 3.0221
-13 5 14 7.2751 10.4908
-11 5 14 -44.7526 -7.1531
-9 5 14 -58.1971 -11.2570
-7 5 14 -2.1194 12.6329
-5 5 14 28.1893 14.4144
-3 5 14 19.0750 -13.4246
-1 5 14 35.3344 -14.4746
1 5 14 111.0620 13.2945
3 5 14 40.7543 13.5450
5 5 14 0.0167 -10.2158
7 5 14 -92.3244 -7.1625
9 5 14 -29.3316 12.0591
11 5 14 19.7097 3.6366
13 5 14 -16.1673 -13.5334
15 5 14 29.0104 -2.2068
17 5 14 23.5383 12.3934
19 5 14 -10.6102 0.8566
21 5 14 -19.0470 -11.0231
23 5 14 24.0909 -1.6589
25 5 14 -0.6620 6.5184
27 5 14 1.0656 -0.0587
29 5 14 -1.8239 -4.5495
31 5 14 -18.1586 1.9550
33 5 14 2.5860 3.0959
-34 6 14 6.6809 -2.7998
-32 6 14 -0.6460 -0.7065
-30 6 14 29.6269 3.5695
-28 6 14 -2.2833 0.6266
-26 6 14 6.2123 -2.9504
-24 6 14 4.1905 -0.5001
-22 6 14 13.2256 2.8077
-20 6 14 27.6171 -0.4738
-18 6 14 12.4552 -2.8374
-16 6 14 -8.7288 1.2136
-14 6 14 -7.2389 3.1625
-12 6 14 -46.3146 -1.0663
-10 6 14 26.0337 -1.6658
-8 6 14 7.0824 2.2497
-6 6 14 -4.4140 2.5305
-4 6 14 53.5162 -1.0337
-2 6 14 -21.4826 -0.5672
2 6 14 61.5567 2.4128
4 6 14 1.0798 -0.5060
6 6 14 -91.8957 -3.8036
8 6 14 32.3640 -2.7906
10 6 14 35.1476 1.4801
12 6 14 -3.6542 2.7652
14 6 14 -19.2257 -0.4279
16 6 14 11.5998 -2.1712
18 6 14 13.9633 -0.6014
20 6 14 -16.0732 -0.4217
22 6 14 16.2631 -1.4078
24 6 14 -8.9899 1.8012
26 6 14 16.8893 3.0503
28 6 14 9.0733 -0.7771
30 6 14 -5.5178 -4.5630
32 6 14 -8.8642 -1.9698
34 6 14 -8.0409 1.2417
-35 7 14 -1.8931 0.3177
-33 7 14 -17.1215 0.6330
-31 7 14 -1.9673 0.3856
-29 7 14 -10.3782 -2.0712
-27 7 14 10.2674 -2.1018
-25 7 14 -6.4025 1.6044
-23 7 14 18.3064 1.5677
-21 7 14 -20.0424 -2.1801
-19 7 14 -4.1689 -1.3092
-17 7 14 2.9244 2.9253
-15 7 14 -3.9995 0.9994
-13 7 14 4.9774 -3.4282
-11 7 14 24.5599 -0.5739
-9 7 14 -47.9262 4.1690
-7 7 14 -49.1334 0.3819
-5 7 14 71.0341 -4.0893
-3 7 14 -4.7844 1.1378
-1 7 14 -35.0673 4.2446
1 7 14 9.8320 -3.1562
3 7 14 -9.4759 -4.2519
5 7 14 -15.7238 4.6754
7 7 14 -64.0980 6.0062
9 7 14 -15.9283 -1.7934
11 7 14 21.4064 -4.5796
13 7 14 -6.9196 0.7735
15 7 14 5.5139 1.7704
17 7 14 12.4505 -1.4805
19 7 14 10.0076 0.2455
21 7 14 -10.5351 2.6724
23 7 14 16.1695 -1.0883
25 7 14 -0.9639 -4.5698
27 7 14 -4.8571 -0.8396
29 7 14 -10.5691 3.1422
31 7 14 7.8321 2.0203
33 7 14 7.1200 -0.9523
-34 8 14 4.9042 0.5846
-32 8 14 1.8864 2.4154
-30 8 14 -3.3974 -1.7384
-28 8 14 3.8516 -0.9599
-26 8 14 -5.7196 2.4290
-24 8 14 -10.5338 1.5279
-22 8 14 -4.9074 -4.0132
-20 8 14 -10.7627 -3.0008
-18 8 14 7.4219 3.2612
-16 8 14 -26.5377 3.2912
-14 8 14 -16.1501 -2.4269
-12 8 14 13.9503 -1.1318
-10 8 14 -21.7081 4.0282
-8 8 14 16.3388 1.7127
-6 8 14 -12.5040 -1.0749
-4 8 14 -46.0044 3.8656
-2 8 14 27.7886 8.4103
0 8 14 -32.5942 1.7156
2 8 14 57.1564 -6.1362
4 8 14 -12.8730 -2.8618
6 8 14 11.5770 4.0333
8 8 14 12.1156 2.1801
10 8 14 -14.3188 -3.9958
12 8 14 -26.0066 -2.8223
14 8 14 19.0529 -0.1385
16 8 14 10.0143 -2.2786
18 8 14 19.9150 -3.0766
20 8 14 14.7715 2.6197
22 8 14 19.0215 4.0622
24 8 14 -15.1537 -1.2616
26 8 14 4.3719 -4.1747
28 8 14 3.9611 -0.0268
30 8 14 12.7078 2.4461
32 8 14 -4.6857 0.5801
-33 9 14 -8.3016 -0.9639
-31 9 14 20.3345 -1.2891
-29 9 14 12.8840 0.2680
-27 9 14 3.0808 2.2482
-25 9 14 3.4755 1.9097
-23 9 14 -6.4641 0.5567
-21 9 14 -22.9921 -0.9689
-19 9 14 -11.4473 -2.1467
-17 9 14 13.5327 -0.8205
-15 9 14 36.0987 3.4469
-13 9 14 13.1743 3.9337
-11 9 14 17.2509 -1.3887
-7 9 14 -1.0686 -3.7050
-5 9 14 11.2138 0.4741
-3 9 14 44.1613 1.7435
-1 9 14 -102.2283 0.9022
1 9 14 35.7160 -0.7540
3 9 14 15.3146 -2.4833
5 9 14 -9.3390 -4.1732
7 9 14 -24.0622 -0.4989
9 9 14 1.9246 6.0656
11 9 14 38.4529 4.6093
13 9 14 22.0692 -2.0844
15 9 14 0.8933 -3.3696
17 9 14 -19.3967 0.3199
19 9 14 -30.4987 2.0328
21 9 14 -14.6000 1.1032
23 9 14 -5.1136 0.4180
25 9 14 9.8672 0.1951
27 9 14 1.3914 -1.7792
29 9 14 -12.5558 -1.3732
31 9 14 3.2238 -0.0482
33 9 14 -8.3131 0.1687
-34 10 14 -0.8555 -0.5683
-32 10 14 -12.5907 -1.9392
-30 10 14 -3.3175 0.1764
-28 10 14 10.1245 -0.9055
-26 10 14 6.2637 -1.7538
-24 10 14 8.3959 0.0444
-22 10 14 12.1967 1.5397
-20 10 14 -16.2663 -1.8806
-18 10 14 4.1224 -4.0226
-16 10 14 -7.7873 -0.1573
-14 10 14 12.3716 3.6212
-12 10 14 21.9052 0.9376
-10 10 14 2.6296 -1.7820
-8 10 14 19.6017 1.2018
-6 10 14 14.0100 2.9545
-4 10 14 -26.3323 0.7000
-2 10 14 -34.6805 0.8763
0 10 14 -48.7906 2.5940
2 10 14 -4.7677 1.1025
4 10 14 19.4130 -1.2902
6 10 14 12.5067 -1.5485
8 10 14 7.0916 0.6133
10 10 14 8.0720 1.2153
12 10 14 -19.7435 -1.3715
14 10 14 -8.7743 -3.4668
16 10 14 -8.2765 -1.5644
18 10 14 9.6802 1.8851
20 10 14 16.0036 1.5477
22 10 14 -7.5192 -1.1230
24 10 14 -6.2598 -1.2408
26 10 14 -24.3286 -0.0215
28 10 14 -22.9367 0.2141
30 10 14 -4.0993 -0.3960
32 10 14 -2.5357 2.4229
-33 11 14 2.0662 -0.2214
-31 11 14 -0.9911 1.2442
-29 11 14 -3.5294 1.2198
-27 11 14 -20.5714 -0.4363
-25 11 14 8.0312 0.7785
-23 11 14 0.3246 1.7852
-21 11 14 -6.1390 0.1811
-19 11 14 0.1839 -1.0298
-17 11 14 -19.0457 1.0666
-15 11 14 -22.6140 2.0453
-13 11 14 8.6544 -0.5428
-11 11 14 27.5101 -1.5448
-9 11 14 -42.8576 -0.4659
-7 11 14 41.1988 -0.5996
-5 11 14 -76.5545 -1.3384
-3 11 14 112.8407 0.4650
-1 11 14 11.8831 1.1197
1 11 14 38.9941 -1.6133
3 11 14 22.1061 -1.5998
5 11 14 59.0302 -0.3786
7 11 14 -3.8390 -0.7917
9 11 14 -32.3176 0.4110
11 11 14 23.2899 1.7548
13 11 14 19.1615 0.2325
15 11 14 24.2750 -1.8001
17 11 14 -16.9679 -0.8154
19 11 14 4.2659 1.1643
21 11 14 9.6520 0.7323
23 11 14 2.4178 0.0091
25 11 14 -9.7910 0.4313
27 11 14 -6.8495 0.5006
29 11 14 -8.0391 -1.3312
31 11 14 -3.0809 -1.1602
33 11 14 -15.9218 -0.9751
-32 12 14 -9.6688 1.0830
-30 12 14 -5.2523 -0.0878
-28 12 14 15.3004 -1.5305
-26 12 14 -4.2686 1.4124
-24 12 14 -11.0056 2.2047
-22 12 14 10.6639 -0.5653
-20 12 14 17.6647 -2.7303
-18 12 14 -6.5494 -0.4698
-16 12 14 5.7442 1.3458
-14 12 14 -12.4744 -0.8010
-12 12 14 -51.4692 -1.6951
-10 12 14 10.7924 0.2472
-8 12 14 8.2512 0.2255
-6 12 14 -46.4734 -2.7655
-4 12 14 -27.5889 -2.1310
-2 12 14 -7.8497 2.2437
0 12 14 66.3689 2.3423
2 12 14 3.8424 -1.2511
4 12 14 30.5759 -0.9340
6 12 14 15.1299 2.6870
8 12 14 -1.4820 1.0980
10 12 14 4.2245 -1.8451
12 12 14 -6.6872 0.4314
14 12 14 -0.8524 2.9905
16 12 14 2.0016 0.5474
18 12 14 6.8194 -1.9622
20 12 14 9.9092 -0.0614
22 12 14 6.5583 0.8048
24 12 14 -3.4276 -0.6709
26 12 14 -13.9363 -1.0954
28 12 14 -0.5256 0.8589
30 12 14 5.1351 0.1146
32 12 14 10.9754 -1.4763
-33 13 14 -0.4693 1.5694
-31 13 14 1.5393 -1.0479
-29 13 14 -8.4316 -1.5446
-27 13 14 -6.6520 -0.0658
-25 13 14 8.2424 0.4878
-23 13 14 5.7801 -0.9216
-21 13 14 -8.1079 0.0746
-19 13 14 1.9991 1.4958
-17 13 14 -8.3978 0.3561
-15 13 14 -0.2346 -1.4030
-13 13 14 10.1690 -0.4215
-11 13 14 -38.1504 1.5825
-9 13 14 -1.0021 1.9147
-7 13 14 25.0472 0.6451
-5 13 14 -5.7775 -1.2190
-3 13 14 84.3854 -2.0868
-1 13 14 86.1271 -0.7421
1 13 14 -10.4021 0.5692
3 13 14 12.3134 -0.4246
5 13 14 34.2232 -0.9315
7 13 14 -11.7306 -0.3241
9 13 14 1.7192 -1.3198
11 13 14 23.8081 -2.5420
13 13 14 4.9984 0.8441
15 13 14 25.2054 2.9918
17 13 14 -6.3706 0.3733
19 13 14 7.8549 -2.2632
21 13 14 -16.5658 -0.3114
23 13 14 6.1611 1.8351
25 13 14 2.3718 0.2607
27 13 14 21.3043 -0.7065
29 13 14 -4.5866 0.8553
31 13 14 -11.2380 0.6202
-32 14 14 9.1094 -0.5867
-30 14 14 9.9258 0.4826
-28 14 14 5.4086 0.2021
-26 14 14 -11.6480 0.2603
-24 14 14 -0.1511 0.5039
-22 14 14 8.4398 0.6018
-20 14 14 0.1257 0.5066
-18 14 14 -6.7647 0.6830
-16 14 14 -11.7374 0.2727
-14 14 14 -2.9829 -1.0041
-12 14 14 -12.4618 -1.3471
-10 14 14 1.3381 -0.7613
-8 14 14 11.0722 0.0466
-6 14 14 14.7338 0.2801
-4 14 14 -23.5676 -0.9591
-2 14 14 -7.0648 -1.6837
0 14 14 16.4893 -0.8603
2 14 14 -9.6816 1.0870
4 14 14 -30.1248 1.3975
6 14 14 1.7668 0.4470
8 14 14 -18.8280 -0.0315
10 14 14 -1.1964 -0.4596
12 14 14 10.1518 -0.0784
14 14 14 -3.1171 0.3055
16 14 14 6.8002 1.0477
18 14 14 -4.3640 1.2703
20 14 14 -2.8903 -0.6439
22 14 14 8.3172 -2.0211
24 14 14 4.3053 -0.6001
26 14 14 1.0375 1.6576
28 14 14 -7.4200 1.2444
30 14 14 0.3533 -0.2058
-31 15 14 -0.5810 0.1797
-29 15 14 -10.0630 0.4944
-27 15 14 13.8310 -0.4401
-25 15 14 -5.9772 -1.3342
-23 15 14 -4.4289 0.1634
-21 15 14 -3.4890 1.3086
-19 15 14 -6.3899 -0.1160
-17 15 14 1.0796 -1.3123
-15 15 14 5.9524 0.2894
-13 15 14 0.8777 1.0285
-11 15 14 -10.6909 -0.3124
-9 15 14 -5.6946 -0.4686
-7 15 14 5.4425 1.1309
-5 15 14 -12.9146 0.2728
-3 15 14 -13.9262 -1.1401
-1 15 14 84.9830 -1.0565
1 15 14 -21.9453 -0.0924
3 15 14 -18.3508 0.1167
5 15 14 46.7971 -0.3113
7 15 14 44.7117 -0.4045
9 15 14 3.6617 -0.3688
11 15 14 -17.6055 -0.2093
13 15 14 17.7643 -0.0229
15 15 14 1.6911 0.4564
17 15 14 23.2064 0.7073
19 15 14 31.8664 0.2464
21 15 14 5.2367 -0.6605
23 15 14 -5.4614 -0.6985
25 15 14 -14.4672 0.5939
27 15 14 -4.4676 1.4809
29 15 14 3.6966 -0.1746
31 15 14 5.6822 -0.2451
-32 16 14 6.9006 -0.5499
-30 16 14 23.7564 1.1316
-28 16 14 -7.2766 -1.5051
-26 16 14 -16.8159 -0.6187
-24 16 14 0.3054 1.3022
-22 16 14 11.5001 0.3509
-20 16 14 -7.8334 -1.4380
-18 16 14 -15.9878 0.2829
-16 16 14 -29.7120 1.4435
-14 16 14 -3.6567 -1.1476
-12 16 14 -40.4237 -1.5779
-10 16 14 -3.7131 0.6490
-8 16 14 5.4736 0.5911
-6 16 14 7.4753 -1.8593
-4 16 14 -19.8426 -1.0726
-2 16 14 34.9046 1.2683
0 16 14 2.2133 0.0735
2 16 14 60.2288 -1.9921
4 16 14 20.6028 0.2936
6 16 14 30.8222 1.4319
8 16 14 -1.9679 -0.6963
10 16 14 8.3715 -0.5873
12 16 14 24.6986 1.3105
14 16 14 17.1270 0.3283
16 16 14 16.7568 -1.9681
18 16 14 -8.1639 -0.1062
20 16 14 -7.7913 1.7617
22 16 14 -7.3241 0.0854
24 16 14 3.1391 -1.4626
26 16 14 8.3608 0.5755
28 16 14 5.3863 0.7382
30 16 14 3.9567 -0.5474
-31 17 14 7.1575 0.8199
-29 17 14 -6.0606 -1.5761
-27 17 14 3.7278 -0.4053
-25 17 14 2.6017 1.7663
-23 17 14 -18.8005 0.7082
-21 17 14 -10.7345 -1.1969
-19 17 14 20.0215 0.4545
-17 17 14 15.0643 2.1705
-15 17 14 -15.1501 0.0071
-13 17 14 -13.9090 -1.6193
-11 17 14 -2.3041 1.5566
-9 17 14 -25.9975 2.8732
-7 17 14 26.4579 -0.5913
-5 17 14 -5.4900 -2.3074
-3 17 14 -24.0135 1.5176
-1 17 14 46.6493 2.3033
1 17 14 0.6001 -1.9032
3 17 14 18.8776 -1.8893
5 17 14 26.3027 1.9430
7 17 14 15.9538 1.5206
9 17 14 -17.6268 -2.2213
11 17 14 -19.4189 -1.8046
13 17 14 -5.9349 1.9035
15 17 14 2.5683 1.2358
17 17 14 -1.8208 -1.9016
19 17 14 -1.0414 -0.9488
21 17 14 5.4518 1.3941
23 17 14 3.8617 0.0792
25 17 14 5.8198 -2.0162
27 17 14 -8.7518 -0.2598
29 17 14 9.9394 1.5096
-30 18 14 2.4869 -1.6825
-28 18 14 -5.8503 -0.7282
-26 18 14 3.0600 1.8876
-24 18 14 9.4045 0.7845
-22 18 14 3.5148 -3.0931
-20 18 14 -24.9878 -1.3892
-18 18 14 -3.3157 2.7191
-16 18 14 3.7780 0.7641
-14 18 14 22.1533 -2.7859
-12 18 14 -21.0372 -0.6036
-10 18 14 11.2997 2.9422
-8 18 14 19.3622 -0.4251
-6 18 14 -0.4533 -4.1005
-4 18 14 -10.1761 0.0378
-2 18 14 5.0145 4.4160
0 18 14 -3.8015 -0.0721
2 18 14 21.4672 -4.1918
4 18 14 -8.2699 -0.0674
6 18 14 3.7397 3.2574
8 18 14 4.5079 -0.4834
10 18 14 5.1965 -1.7682
12 18 14 -2.1413 1.5508
14 18 14 -4.1776 1.6791
16 18 14 3.3991 -2.1779
18 18 14 4.7607 -2.4959
20 18 14 5.6165 1.1755
22 18 14 -7.0171 2.3089
24 18 14 -13.8081 -0.3378
26 18 14 -15.5088 -1.1238
28 18 14 -3.1071 -0.5777
30 18 14 18.1734 0.8106
-29 19 14 6.0187 -1.1616
-27 19 14 -0.7979 0.7544
-25 19 14 8.5384 -0.1338
-23 19 14 -5.0690 -0.7817
-21 19 14 -8.0058 0.2689
-19 19 14 14.8781 0.8483
-17 19 14 -10.3984 -0.7189
-15 19 14 -18.3921 -1.1448
-13 19 14 -2.3991 0.9137
-11 19 14 1.7817 1.6265
-9 19 14 -11.8167 0.5126
-7 19 14 7.0732 0.1285
-5 19 14 -16.9950 0.7360
-3 19 14 -12.9623 0.3607
-1 19 14 14.8879 0.1748
1 19 14 -14.9890 0.2635
3 19 14 25.3527 0.0449
5 19 14 7.9953 -0.2738
7 19 14 18.8048 -0.3892
9 19 14 -5.4550 -0.5743
11 19 14 -1.2175 -0.6704
13 19 14 4.9157 -0.2452
15 19 14 -6.4084 -0.1990
17 19 14 -10.1468 -0.1985
19 19 14 21.6586 -0.3242
21 19 14 5.4519 0.2840
23 19 14 -2.5758 0.1547
25 19 14 -10.9275 0.3357
27 19 14 -6.7779 -0.3343
29 19 14 -0.3548 0.2393
-30 20 14 -14.4114 1.5718
-28 20 14 13.1382 1.7137
-26 20 14 18.1213 -0.8856
-24 20 14 -10.2536 -1.1228
-22 20 14 -3.0094 0.5000
-20 20 14 -17.4608 0.7037
-18 20 14 -4.7847 0.1844
-16 20 14 -3.3515 0.0459
-14 20 14 6.0725 0.4514
-12 20 14 10.1682 0.3593
-10 20 14 10.3071 -0.2982
-8 20 14 21.5194 -0.4636
-6 20 14 -11.0841 0.3178
-4 20 14 3.9454 0.5693
-2 20 14 -10.8609 -0.5017
0 20 14 25.0173 -1.0308
2 20 14 13.9129 0.8169
4 20 14 -0.1857 0.7742
6 20 14 -7.2305 -0.5869
8 20 14 -15.2266 -0.6645
10 20 14 2.0780 0.6209
12 20 14 -21.9502 1.1442
14 20 14 -1.0206 -0.2416
16 20 14 15.7400 -0.8257
18 20 14 -3.7157 0.0005
20 20 14 -7.7539 0.1109
22 20 14 -7.9599 -0.6345
24 20 14 2.2546 0.1851
26 20 14 -6.8339 1.2353
28 20 14 -14.0522 -0.2846
-29 21 14 3.0391 1.6553
-27 21 14 0.8780 -0.3461
-25 21 14 5.0435 0.3299
-23 21 14 1.3904 0.5186
-21 21 14 -7.8778 -0.5312
-19 21 14 -1.5114 -0.7567
-17 21 14 -9.4856 -0.1605
-15 21 14 0.7372 0.0254
-13 21 14 21.2927 -0.0993
-11 21 14 8.3159 -0.0834
-9 21 14 10.4455 0.3628
-7 21 14 5.4436 0.9616
-5 21 14 9.1470 0.4719
-3 21 14 23.7099 -0.3351
-1 21 14 -5.3139 0.0294
1 21 14 -13.1371 0.9033
3 21 14 21.8106 0.7117
5 21 14 -10.0607 -0.3043
7 21 14 -9.1769 -0.8996
9 21 14 -1.6240 0.1182
11 21 14 -10.9733 0.2652
13 21 14 -8.1439 -0.5139
15 21 14 2.1251 -0.9831
17 21 14 -5.1518 -0.2022
19 21 14 14.6645 -0.2229
21 21 14 13.4033 -0.0138
23 21 14 9.5135 -0.0286
25 21 14 -0.6311 0.7903
27 21 14 9.3159 0.5553
-28 22 14 21.2885 0.3604
-26 22 14 4.4048 0.4346
-24 22 14 -27.0796 0.4268
-22 22 14 8.8184 -0.5935
-20 22 14 0.9460 0.1582
-18 22 14 10.7827 1.6632
-16 22 14 -4.6268 0.0045
-14 22 14 -3.8233 -2.1488
-12 22 14 18.9887 -0.4641
-10 22 14 10.9553 1.7614
-8 22 14 23.7799 0.8871
-6 22 14 2.6558 -1.2635
-4 22 14 9.6948 -0.8356
-2 22 14 11.0796 0.1404
0 22 14 -6.7493 -0.8741
2 22 14 15.2507 -0.8286
4 22 14 5.0428 1.0477
6 22 14 1.1828 1.5341
8 22 14 12.8999 -0.8804
10 22 14 19.4818 -1.4052
12 22 14 3.9298 0.2294
14 22 14 -10.4463 1.6709
16 22 14 0.3887 0.5255
18 22 14 12.3960 -0.4972
20 22 14 -16.7449 -0.1442
22 22 14 -10.3599 0.4308
24 22 14 7.3013 0.6140
26 22 14 -0.2590 0.6715
-27 23 14 1.1293 1.7261
-25 23 14 8.8452 0.3575
-23 23 14 -10.8301 -2.1767
-21 23 14 -0.2463 -0.8688
-19 23 14 4.4320 1.3851
-17 23 14 -10.5775 1.1255
-15 23 14 -2.7318 -1.0617
-13 23 14 1.0824 -1.0702
-11 23 14 -1.6469 0.3865
-9 23 14 3.0193 0.0299
-7 23 14 -3.1413 -0.6802
-5 23 14 -22.0803 0.3417
-3 23 14 0.0947 1.9066
-1 23 14 2.6049 0.6195
1 23 14 -2.7066 -1.4647
3 23 14 20.9461 -0.6165
5 23 14 10.7557 1.2963
7 23 14 -21.6893 0.9848
9 23 14 -7.5811 -0.1485
11 23 14 4.2455 -0.4958
13 23 14 -21.2293 0.1050
15 23 14 1.5632 0.1129
17 23 14 1.8731 -0.4308
19 23 14 -3.4004 -0.5952
21 23 14 2.7691 0.5629
23 23 14 -3.2898 0.8131
25 23 14 -2.6912 0.2642
-26 24 14 -11.8221 0.2359
-24 24 14 -16.7362 -0.3022
-22 24 14 4.4394 0.8848
-20 24 14 -11.0050 1.4813
-18 24 14 -1.7494 -0.8824
-16 24 14 -2.3661 -1.2683
-14 24 14 -2.5782 0.2234
-12 24 14 -3.9822 0.6558
-10 24 14 1.9907 -0.4606
-8 24 14 23.1286 -0.5697
-6 24 14 5.5158 0.5270
-4 24 14 7.7480 0.1639
-2 24 14 8.6152 -1.1583
0 24 14 -17.6381 -0.7314
2 24 14 7.5041 0.3803
4 24 14 7.7387 0.3545
6 24 14 -0.0803 0.0684
8 24 14 1.5868 0.0707
10 24 14 8.0252 0.4357
12 24 14 -14.3210 -0.3505
14 24 14 -13.4398 -0.4894
16 24 14 -0.5803 0.6435
18 24 14 -20.5042 1.7569
20 24 14 15.9220 0.1872
22 24 14 -1.4705 -1.1264
24 24 14 -1.1022 0.0641
-25 25 14 23.5278 -0.1478
-23 25 14 -3.0695 1.0494
-21 25 14 12.3083 0.3035
-19 25 14 18.3172 -0.5311
-17 25 14 11.9180 0.1096
-15 25 14 -19.7474 0.9373
-13 25 14 4.7187 -0.2441
-11 25 14 21.7732 -1.3188
-9 25 14 -3.4374 -0.6578
-7 25 14 4.2491 0.1481
-5 25 14 5.5977 0.3885
-3 25 14 1.0262 0.4605
-1 25 14 -2.0722 -0.3243
1 25 14 1.4218 -0.8317
3 25 14 -1.4195 0.0390
5 25 14 0.7804 0.5970
7 25 14 -5.4451 0.1990
9 25 14 -3.7678 0.1798
11 25 14 13.9526 0.6942
13 25 14 5.8081 -0.0350
15 25 14 -2.8784 -1.3636
17 25 14 3.4256 -0.2677
19 25 14 -11.6105 1.5012
21 25 14 4.2021 0.4837
23 25 14 -2.3686 -1.0052
-24 26 14 1.6556 1.1409
-22 26 14 5.4736 0.3430
-20 26 14 6.2115 -0.8163
-18 26 14 -6.3122 -0.4672
-16 26 14 11.3505 0.3266
-14 26 14 -11.1481 0.3991
-12 26 14 -6.6412 -0.0801
-10 26 14 0.5825 -0.4536
-8 26 14 1.6883 -0.3246
-6 26 14 -1.5892 -0.7119
-4 26 14 2.4890 -0.3530
-2 26 14 6.6975 0.4985
0 26 14 -17.3805 0.2218
2 26 14 -8.4535 -0.8463
4 26 14 -0.1725 -1.1381
6 26 14 1.0523 0.2000
8 26 14 5.7669 0.7460
10 26 14 -1.3634 0.3517
12 26 14 -7.0609 0.4839
14 26 14 -19.3519 -0.4016
16 26 14 4.7425 -0.9624
18 26 14 -17.9936 0.2086
20 26 14 16.3536 0.9168
22 26 14 -9.5959 0.6112
-23 27 14 -11.6481 0.0655
-21 27 14 -2.8629 -0.6695
-19 27 14 -2.7238 0.6342
-17 27 14 4.0365 0.9391
-15 27 14 -8.1379 -1.0649
-13 27 14 13.3029 -1.3266
-11 27 14 -5.1899 0.8126
-9 27 14 -3.4007 1.2551
-7 27 14 1.9602 -0.7749
-5 27 14 1.4951 -1.6955
-3 27 14 -30.0865 0.8282
-1 27 14 -19.3794 1.3906
1 27 14 5.1571 -0.8540
3 27 14 2.8894 -0.9446
5 27 14 20.6168 1.4032
7 27 14 -7.5548 1.2419
9 27 14 10.4586 -1.0734
11 27 14 15.8854 -1.0006
13 27 14 -8.7684 1.4009
15 27 14 2.9311 1.4036
17 27 14 -7.8224 -1.4255
19 27 14 -20.2157 -1.0814
21 27 14 4.9728 1.5679
-22 28 14 0.8465 -0.7187
-20 28 14 -9.3071 1.3372
-18 28 14 0.3539 1.0794
-16 28 14 12.2724 -0.1043
-14 28 14 1.3892 -0.4092
-12 28 14 2.4338 0.4976
-10 28 14 -2.9200 0.5356
-8 28 14 -6.0141 -0.7830
-6 28 14 -2.7614 -0.7844
-4 28 14 14.1269 0.3900
-2 28 14 -0.0524 1.0090
0 28 14 -31.5349 -0.2148
2 28 14 7.1402 -0.5278
4 28 14 0.6109 -0.4117
6 28 14 3.5081 0.2178
8 28 14 17.2632 0.3961
10 28 14 -10.2819 -0.0408
12 28 14 -2.7979 -0.1733
14 28 14 2.0903 0.3256
16 28 14 -1.6225 -0.3208
18 28 14 3.1509 -0.2209
20 28 14 1.9781 -0.2949
-21 29 14 2.7728 1.4947
-19 29 14 0.5544 0.2981
-17 29 14 -3.3708 -0.9218
-15 29 14 4.3414 -0.7517
-13 29 14 15.5910 0.7170
-11 29 14 4.7654 0.5845
-9 29 14 -15.7541 0.0931
-7 29 14 -1.5733 -0.2428
-5 29 14 -17.0496 -0.5515
-3 29 14 -12.5844 -0.6279
-1 29 14 22.2595 0.1087
1 29 14 -0.9514 0.6162
3 29 14 2.1516 0.4267
5 29 14 9.2014 -0.2146
7 29 14 -21.9821 -0.5792
9 29 14 2.6153 -0.2862
11 29 14 -1.1208 -0.0340
13 29 14 -7.8688 0.3956
15 29 14 -2.6229 0.3483
17 29 14 5.0728 0.0737
19 29 14 -10.4270 -0.0924
-20 30 14 -5.5988 1.4349
-18 30 14 14.1237 -1.0518
-16 30 14 -3.1544 0.5284
-14 30 14 6.9084 1.1766
-12 30 14 -1.6099 0.2051
-10 30 14 -4.4869 -0.9510
-8 30 14 -2.3382 0.0288
-6 30 14 -5.4676 1.4183
-4 30 14 14.9910 0.1670
-2 30 14 3.1146 -1.0944
0 30 14 -12.1150 -0.4717
2 30 14 12.5311 0.9678
4 30 14 12.9312 0.6681
6 30 14 -0.0193 -0.8438
8 30 14 -9.2241 -1.0045
10 30 14 -1.0214 0.6396
12 30 14 -10.9378 0.3261
14 30 14 14.8962 -0.7949
16 30 14 -0.1476 -0.3406
18 30 14 8.7470 1.2507
-17 31 14 -3.2187 -0.6924
-15 31 14 -1.3267 0.7677
-13 31 14 -8.2811 0.2116
-11 31 14 4.2707 -0.1874
-9 31 14 -7.3683 0.5218
-7 31 14 20.9759 0.9294
-5 31 14 0.2522 0.1534
-3 31 14 -13.1376 -0.3818
-1 31 14 7.9888 0.2977
1 31 14 8.0737 0.7788
3 31 14 -8.1077 0.0191
5 31 14 -3.3866 -0.3530
7 31 14 -12.2825 -0.1911
9 31 14 9.5119 0.0013
11 31 14 -0.4393 -0.3157
13 31 14 -4.5591 0.7465
15 31 14 -11.2193 0.0714
17 31 14 2.7049 0.3046
-16 32 14 -5.8505 0.2345
-14 32 14 -12.1032 -0.6079
-12 32 14 -13.6356 -0.3927
-10 32 14 0.1075 0.3746
-8 32 14 -2.3600 0.2277
-6 32 14 11.2725 -0.1789
-4 32 14 28.3337 -0.3857
-2 32 14 8.5090 0.1955
0 32 14 -10.9599 -0.3969
2 32 14 17.3842 -0.3999
4 32 14 11.6227 0.1185
6 32 14 7.9706 0.7651
8 32 14 -9.2743 -0.4538
10 32 14 -1.2676 -0.9422
12 32 14 -5.3912 -0.3056
14 32 14 15.0221 0.1705
-13 33 14 0.2734 -0.6369
-11 33 14 3.0585 0.5894
-9 33 14 -0.9660 0.4595
-7 33 14 6.4392 -0.0753
-5 33 14 -11.5415 -0.0124
-3 33 14 1.2049 0.8092
-1 33 14 3.0886 0.4749
1 33 14 -4.1194 -0.5362
3 33 14 3.8605 -0.7365
5 33 14 12.4854 0.1466
7 33 14 -8.4393 0.4262
9 33 14 -13.2530 -0.0797
11 33 14 -7.7554 -0.2457
13 33 14 -10.1732 0.8676
-12 34 14 -13.9392 0.6143
-10 34 14 -7.9959 0.4442
-8 34 14 -3.1328 -0.2303
-6 34 14 -2.6553 -0.4704
-4 34 14 5.3134 0.3929
-2 34 14 8.1166 0.1321
0 34 14 8.7064 -1.0189
2 34 14 18.2125 -0.1889
4 34 14 9.1955 -0.3876
6 34 14 1.0871 -0.3796
8 34 14 8.1634 -0.3837
10 34 14 5.1830 0.1393
-7 35 14 12.6663 0.9261
-5 35 14 -5.5668 0.8794
-3 35 14 6.0077 -0.0697
-1 35 14 -0.1428 -0.3099
1 35 14 -5.7694 0.5259
3 35 14 13.8291 0.2676
5 35 14 -2.8803 -0.6778
7 35 14 2.8554 0.2243
-35 1 15 -3.8855 3.6205
-33 1 15 -0.7209 -6.8844
-31 1 15 12.0495 -3.7658
-29 1 15 -2.3810 12.3221
-27 1 15 -6.9003 8.0576
-25 1 15 7.7013 -17.8251
-23 1 15 10.1349 -15.4510
-21 1 15 -4.1257 16.2289
-19 1 15 -7.1442 17.0204
-17 1 15 1.7642 -10.4865
-15 1 15 -10.6045 -3.1961
-13 1 15 -7.6408 19.7932
-11 1 15 39.7116 -3.9167
-9 1 15 5.6201 -27.7911
-7 1 15 -13.9932 17.0263
-5 1 15 -12.9061 50.7531
-3 1 15 3.1550 -4.3136
-1 1 15 -38.4880 -50.7912
3 1 15 -69.5400 28.8747
5 1 15 -41.7715 -2.7858
7 1 15 115.5594 -19.5268
9 1 15 39.1100 10.6283
11 1 15 19.4783 5.4252
13 1 15 -23.1653 -31.2099
15 1 15 -4.9529 -13.9929
17 1 15 -8.7014 30.2092
19 1 15 0.2884 20.2935
21 1 15 11.7983 -17.3684
23 1 15 -18.7930 -14.2229
25 1 15 0.9481 8.2390
27 1 15 0.8286 4.6178
29 1 15 4.5391 -3.4720
31 1 15 4.7875 3.8018
33 1 15 0.1207 3.8895
-34 2 15 -11.3005 -3.1229
-32 2 15 -3.0779 -3.8550
-30 2 15 4.2766 1.6495
-28 2 15 -3.1269 4.4080
-26 2 15 -11.5921 -3.2922
-24 2 15 -14.1028 -1.5957
-22 2 15 3.7573 9.2453
-20 2 15 -5.0628 3.4455
-18 2 15 6.7629 -13.4485
-16 2 15 -16.2075 -6.9765
-14 2 15 17.2328 13.8124
-12 2 15 2.0699 7.4841
-10 2 15 -5.6693 -12.5619
-8 2 15 -73.6817 -8.0692
-6 2 15 -10.1109 4.8670
-4 2 15 3.7412 -5.1448
-2 2 15 -21.9130 -12.6511
2 2 15 -26.4336 19.5059
4 2 15 142.0916 -4.1095
6 2 15 -14.7587 -18.9700
8 2 15 -59.7150 1.5944
10 2 15 -12.8197 17.9632
12 2 15 -44.4499 4.7905
14 2 15 -22.4297 -6.5545
16 2 15 0.9238 0.8756
18 2 15 32.9450 2.3181
20 2 15 -7.1222 -7.5570
22 2 15 3.1157 -5.7501
24 2 15 7.3216 7.1049
26 2 15 -2.6741 7.7527
28 2 15 -10.5120 -5.2510
30 2 15 -21.4874 -8.0602
32 2 15 6.1951 0.9865
34 2 15 14.5716 4.6340
-35 3 15 9.0008 2.6098
-33 3 15 -4.3904 -0.1923
-31 3 15 -6.8367 1.3247
-29 3 15 -0.7492 2.3798
-27 3 15 10.9881 1.0542
-25 3 15 5.5056 -2.5482
-23 3 15 2.1926 -3.6931
-21 3 15 -7.0277 0.0111
-19 3 15 0.2673 2.7123
-17 3 15 -2.1174 1.3914
-15 3 15 -1.0409 -2.0511
-13 3 15 20.5462 -4.9551
-11 3 15 -5.7332 -6.4018
-9 3 15 -13.6719 -1.3730
-7 3 15 66.8726 6.5807
-3 3 15 -0.7517 -3.3590
-1 3 15 -78.2250 -8.0508
1 3 15 60.2957 -2.2081
3 3 15 9.3531 4.9449
5 3 15 -69.2767 5.4964
7 3 15 6.0683 4.4913
9 3 15 -47.9581 0.7655
11 3 15 12.3780 -4.3693
13 3 15 43.4950 -3.6173
15 3 15 -6.9051 4.1668
17 3 15 9.8965 9.0064
19 3 15 -8.4112 2.6393
21 3 15 0.2543 -4.4123
23 3 15 -11.0433 -3.8190
25 3 15 6.2122 0.4839
27 3 15 9.1227 2.2205
29 3 15 2.5449 1.6909
31 3 15 -16.5116 -0.0352
33 3 15 -0.2274 -1.1843
-34 4 15 -9.7560 1.2989
-32 4 15 -4.3827 0.7257
-30 4 15 -1.9860 -1.3733
-28 4 15 -7.3118 -1.9316
-26 4 15 2.7829 2.2081
-24 4 15 8.1585 2.2864
-22 4 15 15.0257 -2.4711
-20 4 15 -9.4164 -1.1948
-18 4 15 -24.1827 4.0860
-16 4 15 -18.6823 1.1458
-14 4 15 3.3072 -4.0042
-12 4 15 -28.9240 -0.6740
-10 4 15 40.5811 1.9425
-6 4 15 -64.3536 -8.6060
-4 4 15 35.2252 0.2727
-2 4 15 39.7956 6.3278
0 4 15 -25.2984 -1.3763
2 4 15 -21.5560 -6.7073
4 4 15 -26.1665 1.1911
6 4 15 -41.4563 6.1881
8 4 15 -50.6654 2.1317
10 4 15 45.9464 2.2439
12 4 15 -24.7540 5.6190
14 4 15 -23.1000 1.5823
16 4 15 -12.3820 -5.1192
18 4 15 2.7559 -2.7174
20 4 15 5.8431 4.2139
22 4 15 -5.1251 4.1647
24 4 15 2.7618 -1.4679
26 4 15 -7.7959 -3.5980
28 4 15 -3.1890 -1.2516
30 4 15 1.7895 0.6495
32 4 15 1.1227 2.0797
34 4 15 6.6948 1.5013
-35 5 15 -0.4144 -0.3314
-33 5 15 -0.9111 1.3949
-31 5 15 1.8049 -2.6254
-29 5 15 -7.9604 -0.5060
-27 5 15 6.4432 2.3022
-25 5 15 -20.6760 0.3989
-23 5 15 1.0175 -1.0331
-21 5 15 6.1642 1.4014
-19 5 15 -4.0523 -0.6497
-17 5 15 4.8188 -4.7740
-15 5 15 -6.4412 -1.1644
-13 5 15 -14.8202 5.8955
-11 5 15 -16.4900 3.9450
-9 5 15 -34.1708 -2.4007
-7 5 15 0.3716 -3.0221
-5 5 15 -8.6039 -1.1410
-3 5 15 -61.3656 -0.0880
-1 5 15 -46.1271 3.2516
1 5 15 -16.1008 6.1455
3 5 15 -21.8243 -0.2366
5 5 15 -15.2834 -7.1983
7 5 15 46.6120 -3.7884
9 5 15 -33.3443 2.2750
11 5 15 10.4055 3.4418
13 5 15 11.5146 2.0610
15 5 15 -20.4197 0.9936
17 5 15 17.6856 -2.7963
19 5 15 -4.8898 -4.4784
21 5 15 5.7828 -0.0360
23 5 15 16.7272 4.3438
25 5 15 1.5767 2.2114
27 5 15 -3.5513 -2.7867
29 5 15 -23.7484 -3.1569
31 5 15 -16.0772 -0.5769
33 5 15 3.0040 -0.5260
-34 6 15 13.1285 0.6364
-32 6 15 -8.9290 -1.8275
-30 6 15 -11.6001 0.6532
-28 6 15 1.1579 1.2972
-26 6 15 0.3871 -1.3021
-24 6 15 11.9018 -2.3708
-22 6 15 -19.7985 3.1061
-20 6 15 -11.6556 3.5741
-18 6 15 -10.4565 -3.2264
-16 6 15 -19.6577 -4.5217
-14 6 15 2.9157 1.9234
-12 6 15 10.5976 1.4436
-10 6 15 -28.5394 -6.4741
-8 6 15 -24.7293 -4.6613
-6 6 15 -39.7182 3.0839
-4 6 15 11.6009 0.2618
-2 6 15 -40.8194 -7.1156
0 6 15 4.7000 -1.5535
2 6 15 12.4193 6.8539
4 6 15 8.0378 2.1772
6 6 15 -66.5381 -3.9051
8 6 15 -22.5779 3.4200
10 6 15 -10.5068 8.8155
12 6 15 -9.5920 0.8975
14 6 15 27.8237 -4.4715
16 6 15 -29.1442 1.9730
18 6 15 5.7956 5.4293
20 6 15 -4.4689 -0.4010
22 6 15 -17.7935 -2.5364
24 6 15 -8.1147 0.8832
26 6 15 -7.0150 1.2106
28 6 15 -5.5450 -1.7560
30 6 15 9.9096 -0.9340
32 6 15 -10.3146 1.2021
-35 7 15 5.6231 1.1399
-33 7 15 1.4332 -1.2261
-31 7 15 1.4451 -1.1275
-29 7 15 -9.6209 0.9460
-27 7 15 4.8659 -0.4791
-25 7 15 1.5226 -1.8222
-23 7 15 -18.3315 1.9881
-21 7 15 -2.8296 2.8586
-19 7 15 -34.7821 -3.7806
-17 7 15 5.4225 -5.6966
-15 7 15 -6.0004 2.6086
-13 7 15 -14.9277 7.2133
-11 7 15 -30.4527 1.4860
-9 7 15 -62.2220 -3.7231
-7 7 15 13.8690 -1.4606
-5 7 15 -5.9815 0.2661
-3 7 15 28.1165 0.0072
-1 7 15 -43.1640 4.0181
1 7 15 -30.4538 6.8972
3 7 15 22.7851 0.2330
5 7 15 3.3944 -8.2794
7 7 15 22.0359 -5.0982
9 7 15 -51.8648 5.8261
11 7 15 57.1895 7.9314
13 7 15 11.5610 -0.7682
15 7 15 2.5534 -6.4058
17 7 15 3.8759 -3.7416
19 7 15 2.3687 0.0376
21 7 15 10.5101 1.0929
23 7 15 0.5937 2.4398
25 7 15 -0.0615 2.3140
27 7 15 -9.9964 -2.1928
29 7 15 -22.1354 -4.4229
31 7 15 -2.9493 -0.6422
33 7 15 3.2620 3.8199
-34 8 15 2.5677 0.7738
-32 8 15 3.7253 1.2172
-30 8 15 -6.1857 0.2154
-28 8 15 4.0686 0.0842
-26 8 15 -8.8830 0.5380
-24 8 15 20.5214 0.9072
-22 8 15 0.2338 0.8589
-20 8 15 1.8584 0.6275
-18 8 15 -17.9447 -0.2154
-16 8 15 0.5864 -1.8395
-14 8 15 26.4406 -0.6802
-12 8 15 80.5282 1.9846
-10 8 15 -14.3888 1.5115
-8 8 15 8.9850 -1.5922
-6 8 15 -19.2298 -2.6212
-4 8 15 -36.3761 -1.5871
-2 8 15 1.5659 -1.0656
0 8 15 -26.9817 -0.8493
2 8 15 -41.3631 0.0226
4 8 15 30.6221 1.5547
6 8 15 -11.3501 -0.4739
8 8 15 36.4301 -3.1492
10 8 15 -0.7537 -0.9263
12 8 15 -4.3382 2.9978
14 8 15 12.4836 2.6141
16 8 15 -27.9367 -0.2861
18 8 15 -14.8455 -0.6142
20 8 15 -9.9515 0.3208
22 8 15 -4.8047 -0.1193
24 8 15 -8.6701 -0.8539
26 8 15 -6.1768 0.5955
28 8 15 -3.3077 0.8171
30 8 15 20.4912 -0.6848
32 8 15 -4.8279 -2.6098
-33 9 15 -2.3547 -0.3147
-31 9 15 -17.0329 -1.4193
-29 9 15 -9.1541 -1.3571
-27 9 15 -7.8863 -0.3538
-25 9 15 15.0955 -0.1287
-23 9 15 -6.0022 -0.0081
-21 9 15 10.2638 0.6863
-19 9 15 -19.1847 0.2326
-17 9 15 19.3042 -1.0855
-15 9 15 11.4343 -1.1284
-13 9 15 3.0477 0.1704
-11 9 15 -19.9561 0.1758
-9 9 15 21.9994 0.7652
-7 9 15 24.3394 0.6362
-5 9 15 -61.7886 -1.2520
-3 9 15 19.3068 -1.1341
-1 9 15 -10.9812 1.9124
1 9 15 -3.3461 2.4101
3 9 15 -13.4694 0.3200
5 9 15 -18.8972 0.0751
7 9 15 -0.5543 1.8177
9 9 15 -34.8947 0.8857
11 9 15 -11.7254 -1.3664
13 9 15 1.2141 -0.4737
15 9 15 25.8329 1.3288
17 9 15 -9.7937 -0.2656
19 9 15 5.2912 -2.1903
21 9 15 -2.5985 -0.0177
23 9 15 -11.6669 1.3838
25 9 15 -0.2786 -0.9732
27 9 15 -43.2993 -1.8630
29 9 15 -26.3704 0.1978
31 9 15 -8.9451 1.6140
33 9 15 8.0432 0.4945
-34 10 15 3.4195 0.5660
-32 10 15 -4.4547 -1.3416
-30 10 15 -7.1387 0.4702
-28 10 15 9.8016 2.0547
-26 10 15 -1.3816 -1.1220
-24 10 15 12.5216 -3.0743
-22 10 15 10.6657 0.3452
-20 10 15 37.7068 2.8423
-18 10 15 -41.1924 -0.3541
-16 10 15 -57.0263 -0.6122
-14 10 15 -3.5348 2.9007
-12 10 15 5.3678 1.4424
-10 10 15 -37.7257 -3.5628
-8 10 15 -9.6081 -0.4969
-6 10 15 -37.5807 6.2083
-4 10 15 -0.7902 3.0006
-2 10 15 63.9303 -4.9446
0 10 15 -9.2638 -3.5957
2 10 15 13.8808 2.8410
4 10 15 45.5054 1.0062
6 10 15 -10.7019 -3.4948
8 10 15 12.4122 0.4473
10 10 15 7.2925 2.8576
12 10 15 33.7212 -2.8328
14 10 15 -8.0294 -4.5264
16 10 15 3.6882 2.1047
18 10 15 9.7618 4.1531
20 10 15 -3.0396 -1.2245
22 10 15 -4.1920 -2.4029
24 10 15 -12.0477 1.5104
26 10 15 -13.5773 0.7499
28 10 15 14.6849 -0.8695
30 10 15 -7.1423 -0.4046
32 10 15 -10.7914 0.5376
-33 11 15 4.6331 -1.1209
-31 11 15 3.1108 -0.1586
-29 11 15 -6.1750 2.6013
-27 11 15 -5.3324 1.5846
-25 11 15 3.8649 -2.5233
-23 11 15 5.1225 -1.1884
-21 11 15 9.5193 2.2468
-19 11 15 -4.1378 0.0051
-17 11 15 16.4717 -3.3049
-15 11 15 23.7006 0.4947
-13 11 15 -14.5354 3.0656
-11 11 15 -37.3005 -2.3943
-9 11 15 15.1140 -4.3817
-7 11 15 20.5921 3.5742
-5 11 15 -12.0540 5.8289
-3 11 15 -23.1460 -2.9698
-1 11 15 29.2554 -5.8134
1 11 15 5.3755 2.3177
3 11 15 0.5880 5.1923
5 11 15 26.1481 -1.1484
7 11 15 -38.5093 -2.8670
9 11 15 -12.3117 1.8179
11 11 15 -3.0918 0.6214
13 11 15 8.9396 -4.6592
15 11 15 13.4665 -0.8428
17 11 15 -14.5225 6.2612
19 11 15 -4.0655 2.1733
21 11 15 -6.2696 -5.6001
23 11 15 18.1145 -3.3813
25 11 15 15.5027 2.8438
27 11 15 -8.6812 2.4334
29 11 15 0.5325 -0.6553
31 11 15 0.0031 -0.5066
-32 12 15 -5.2093 -0.7336
-30 12 15 -12.5764 1.3804
-28 12 15 -2.9916 0.6396
-26 12 15 -2.1538 -3.2109
-24 12 15 -4.1507 -1.6125
-22 12 15 5.8970 2.7105
-20 12 15 24.0704 1.7237
-18 12 15 -12.2552 -2.0958
-16 12 15 -26.5049 -0.2910
-14 12 15 22.3984 4.1832
-12 12 15 16.1783 1.5079
-10 12 15 8.3091 -3.0966
-8 12 15 -3.1967 0.0842
-6 12 15 -9.9786 5.6764
-4 12 15 22.8114 2.0919
-2 12 15 17.6028 -4.8589
0 12 15 -23.8749 -2.2922
2 12 15 22.2431 3.1809
6 12 15 -11.4898 -3.8113
8 12 15 24.6836 -0.7083
10 12 15 -1.0305 2.2982
12 12 15 -5.4011 -0.3036
14 12 15 -0.6794 -3.7177
16 12 15 13.5887 -0.6466
18 12 15 4.5744 3.3811
20 12 15 9.9270 1.3314
22 12 15 -6.3217 -2.3529
24 12 15 -10.3031 -1.3317
26 12 15 -0.0750 1.6067
28 12 15 19.0416 0.1174
30 12 15 -12.2627 -1.6704
32 12 15 -0.7065 -0.4174
-33 13 15 12.5930 0.8900
-31 13 15 5.6718 1.6051
-29 13 15 -1.3133 1.3949
-27 13 15 1.5247 -0.3142
-25 13 15 3.4216 -0.3307
-23 13 15 -3.6569 -0.4267
-21 13 15 -8.3860 -1.0210
-19 13 15 4.8296 0.0867
-17 13 15 8.2203 2.6233
-15 13 15 8.3961 1.0178
-13 13 15 4.1021 -3.3543
-11 13 15 -2.9350 -3.3833
-9 13 15 -10.8802 0.5095
-7 13 15 -4.1322 1.6998
-5 13 15 -9.8894 0.1090
-3 13 15 -17.1089 0.1380
-1 13 15 31.1054 -0.3689
1 13 15 -6.2916 -2.8272
3 13 15 -21.1646 -1.8401
5 13 15 6.6075 2.7217
7 13 15 -19.2114 3.4314
9 13 15 -19.4684 -0.5455
11 13 15 -37.6877 -3.1878
13 13 15 47.3507 -0.6853
15 13 15 -2.9966 1.8938
17 13 15 17.8461 1.0857
19 13 15 -1.4803 0.1580
21 13 15 -20.0298 0.7387
23 13 15 10.6102 -0.3833
25 13 15 2.9501 -2.1529
27 13 15 -12.2745 -0.1247
29 13 15 -16.8407 2.2013
31 13 15 -9.9638 1.2654
-32 14 15 -4.5128 1.1374
-30 14 15 17.8759 -0.8315
-28 14 15 -8.9823 -1.3846
-26 14 15 9.3111 0.4538
-24 14 15 0.9119 1.7706
-22 14 15 5.6835 -0.7101
-20 14 15 7.7897 -2.5301
-18 14 15 8.4314 -0.7765
-16 14 15 1.5503 1.2100
-14 14 15 18.8184 0.5306
-12 14 15 -6.9348 -0.1134
-10 14 15 19.4777 0.8014
-8 14 15 -21.6511 0.8192
-6 14 15 26.6754 -1.3818
-4 14 15 -13.9271 -1.5100
-2 14 15 -8.5354 2.4671
0 14 15 -67.1748 3.5157
2 14 15 25.4018 -0.8568
4 14 15 11.5237 -3.1707
6 14 15 18.6903 -0.7795
8 14 15 2.2800 1.1068
10 14 15 24.7283 0.2175
12 14 15 6.7084 -0.0006
14 14 15 8.3922 1.0057
16 14 15 2.2217 0.3346
18 14 15 -17.3751 -1.7879
20 14 15 3.6164 -0.6472
22 14 15 -1.1410 1.5047
24 14 15 -6.9683 1.0621
26 14 15 -1.0989 -1.1689
28 14 15 8.9112 -0.3457
30 14 15 0.0884 0.9922
-31 15 15 2.8419 -0.9139
-29 15 15 -4.8596 -0.4977
-27 15 15 -7.7587 0.2770
-25 15 15 -0.4556 -0.0796
-23 15 15 8.9799 -1.0849
-21 15 15 -14.0485 0.2999
-19 15 15 -7.5770 1.4287
-17 15 15 4.0505 -0.2508
-15 15 15 -6.3549 -1.6754
-13 15 15 -9.9505 -0.4879
-11 15 15 7.3768 0.8652
-9 15 15 -36.3589 -0.0639
-7 15 15 5.5994 -1.1991
-5 15 15 5.6004 -0.5928
-3 15 15 9.9894 0.0371
-1 15 15 11.4398 -0.5831
1 15 15 46.2104 -0.5098
3 15 15 8.2834 0.6094
5 15 15 17.3674 0.5111
7 15 15 12.4308 -0.4822
9 15 15 -15.8242 0.0858
11 15 15 -19.2921 1.4588
13 15 15 15.3081 1.1797
15 15 15 22.5476 0.0263
17 15 15 18.6883 0.0712
19 15 15 1.4592 0.1121
21 15 15 -28.0480 0.6205
23 15 15 8.3606 0.9604
25 15 15 15.5384 0.2535
27 15 15 -19.4796 -0.4761
29 15 15 2.1664 -1.5127
31 15 15 12.3954 0.4993
-32 16 15 -10.6922 -2.7940
-30 16 15 5.5111 1.0906
-28 16 15 -10.6164 0.8888
-26 16 15 19.0863 -0.7069
-24 16 15 6.9013 -0.5345
-22 16 15 -2.3166 1.4949
-20 16 15 4.6454 0.9444
-18 16 15 -6.3185 -2.0229
-16 16 15 -14.4116 -0.7844
-14 16 15 15.6415 2.2227
-12 16 15 -32.1921 0.6324
-10 16 15 26.9029 -2.6765
-8 16 15 -0.1091 0.0010
-6 16 15 -0.9605 2.8548
-4 16 15 -17.5742 -0.1255
-2 16 15 -9.3009 -1.7121
0 16 15 -0.4082 1.2379
2 16 15 14.8726 2.4193
4 16 15 13.2355 -0.4533
6 16 15 -11.2310 -2.0460
8 16 15 -1.9241 -0.2937
10 16 15 -12.4451 0.9458
12 16 15 -7.3069 -0.2423
14 16 15 -4.7164 -0.5197
16 16 15 3.5900 0.6039
18 16 15 -15.9658 0.3401
20 16 15 4.9669 -0.7407
22 16 15 -3.1703 -0.9994
24 16 15 -6.2146 0.4457
26 16 15 -0.5993 0.9086
28 16 15 -4.9389 -0.5695
30 16 15 7.9575 -2.0846
-31 17 15 -12.4646 0.6800
-29 17 15 0.3564 0.5459
-27 17 15 5.4847 -1.3813
-25 17 15 8.4174 -0.7244
-23 17 15 4.0799 2.0537
-21 17 15 -11.0997 1.2710
-19 17 15 2.7503 -2.2680
-17 17 15 2.4217 -1.8143
-15 17 15 9.1065 1.3917
-13 17 15 0.9167 1.2697
-11 17 15 15.7523 -0.9641
-9 17 15 -3.2828 -0.9978
-7 17 15 3.5402 -0.2690
-5 17 15 -5.7272 -1.5491
-3 17 15 5.1890 -1.8736
-1 17 15 -22.4139 0.1616
1 17 15 17.3461 1.2721
3 17 15 11.1910 -0.0193
5 17 15 -14.6315 -1.5081
7 17 15 -1.0239 -0.7792
9 17 15 -15.3787 0.6387
11 17 15 7.2338 1.7961
13 17 15 -16.3525 1.6160
15 17 15 25.4580 -0.1698
17 17 15 4.1488 -0.9746
19 17 15 19.1991 0.3120
21 17 15 1.8419 0.8882
23 17 15 16.8612 -0.1167
25 17 15 -17.2437 -0.3945
27 17 15 -21.8222 0.2969
29 17 15 -4.1838 -1.2800
-30 18 15 5.0579 -0.3244
-28 18 15 14.2266 -1.8125
-26 18 15 1.9796 -0.3627
-24 18 15 -1.5210 0.7595
-22 18 15 0.1324 -0.3890
-20 18 15 -4.7070 -1.3118
-18 18 15 4.4594 0.4144
-16 18 15 -17.7641 1.2085
-14 18 15 0.4785 -1.0511
-12 18 15 18.6052 -2.2677
-10 18 15 29.1158 0.3074
-8 18 15 3.0679 2.0317
-6 18 15 -13.2433 0.4538
-4 18 15 18.7707 -1.0646
-2 18 15 -13.3515 0.2203
0 18 15 46.9844 0.9498
2 18 15 -14.1887 -0.0316
4 18 15 1.0880 -0.1660
6 18 15 -3.9522 1.2155
8 18 15 9.1790 1.0809
10 18 15 19.8451 -1.7775
12 18 15 -3.8165 -1.2467
14 18 15 -8.7885 1.4118
16 18 15 19.2260 1.8334
18 18 15 -3.0875 -0.6039
20 18 15 5.7228 -1.1055
22 18 15 -2.1404 0.3180
24 18 15 7.4949 0.4173
26 18 15 7.0697 -0.3829
28 18 15 -5.1976 -0.3866
-29 19 15 0.5837 -2.2554
-27 19 15 12.7838 0.7769
-25 19 15 -1.1978 2.2882
-23 19 15 7.8633 0.3978
-21 19 15 2.9801 -1.3697
-19 19 15 2.3250 0.1452
-17 19 15 3.1276 1.3897
-15 19 15 32.1139 0.0104
-13 19 15 23.9293 -0.5972
-11 19 15 -2.9851 0.7246
-9 19 15 5.0776 0.6344
-7 19 15 -9.8438 -1.2779
-5 19 15 19.9169 -1.6262
-3 19 15 17.6971 0.5412
-1 19 15 -32.8912 1.1259
1 19 15 16.2362 -0.6892
3 19 15 24.8641 -1.3279
5 19 15 -22.3021 0.1517
7 19 15 -13.9054 0.5580
9 19 15 7.5065 -0.3296
11 19 15 -1.1468 -0.2632
13 19 15 -11.8306 0.8329
15 19 15 5.1222 0.8126
17 19 15 1.5961 -0.2366
19 19 15 0.6534 -0.6391
21 19 15 8.7192 0.3246
23 19 15 5.2590 0.6785
25 19 15 -12.8385 -0.1618
27 19 15 10.7346 -0.1993
29 19 15 -3.6947 0.2149
-28 20 15 4.8593 0.5310
-26 20 15 13.5182 -0.4974
-24 20 15 3.2070 -1.4402
-22 20 15 -3.5243 -0.2431
-20 20 15 0.9839 1.2238
-18 20 15 -8.5565 0.2016
-16 20 15 -28.3184 -1.2220
-14 20 15 -11.6384 0.0568
-12 20 15 15.0052 0.8240
-10 20 15 15.1666 -0.7171
-8 20 15 28.9854 -0.6615
-6 20 15 4.0004 1.4924
-4 20 15 13.2193 0.9942
-2 20 15 4.9677 -1.1241
0 20 15 -7.3115 -1.2038
2 20 15 13.3141 0.8059
4 20 15 -8.2915 1.1156
6 20 15 -9.9841 -0.3926
8 20 15 4.8427 -0.2724
10 20 15 0.1130 0.2269
12 20 15 -2.0190 -0.4592
14 20 15 -10.4445 -0.7181
16 20 15 17.7926 0.6008
18 20 15 8.1657 0.8654
20 20 15 2.5058 -0.0827
22 20 15 1.0163 -1.3942
24 20 15 3.9092 -0.0360
26 20 15 17.4127 0.9982
28 20 15 -2.0084 0.5109
-29 21 15 18.9367 0.5191
-27 21 15 -8.2791 0.1586
-25 21 15 -33.2854 -0.5222
-23 21 15 -5.0774 0.9868
-21 21 15 4.9463 0.8665
-19 21 15 0.6175 -0.8703
-17 21 15 8.9016 -0.4305
-15 21 15 -3.8067 1.6933
-13 21 15 -16.6588 0.9997
-11 21 15 13.8146 -1.1337
-9 21 15 0.8866 -0.6209
-7 21 15 -12.3540 0.9488
-5 21 15 20.3462 0.5229
-3 21 15 4.8440 -0.5872
-1 21 15 11.0421 -0.7255
1 21 15 -5.4915 -0.4276
3 21 15 6.0603 -0.2034
5 21 15 10.2356 -0.6897
7 21 15 -12.2793 -0.3974
9 21 15 26.2157 0.3693
11 21 15 -14.8495 0.1983
13 21 15 -27.5251 -0.5002
15 21 15 10.9798 -0.7170
17 21 15 12.6829 0.3452
19 21 15 -6.8131 1.0118
21 21 15 3.5599 -0.0105
23 21 15 29.4732 -0.9768
25 21 15 10.3111 0.2916
27 21 15 5.9541 0.7628
-28 22 15 -14.3465 -0.7765
-26 22 15 5.0699 -0.7929
-24 22 15 -0.4978 0.7600
-22 22 15 -14.8415 1.0101
-20 22 15 12.6345 -0.7357
-18 22 15 1.7213 -0.6201
-16 22 15 -25.2518 0.3704
-14 22 15 15.4671 0.9927
-12 22 15 1.1800 0.0157
-10 22 15 -8.6211 -0.4798
-8 22 15 -6.0838 -0.1721
-6 22 15 -13.6444 0.0616
-4 22 15 15.3488 0.1703
-2 22 15 24.0821 0.3136
0 22 15 -0.0182 0.4170
2 22 15 27.3802 0.4520
4 22 15 1.6348 -0.0606
6 22 15 -11.9634 -0.9283
8 22 15 4.5377 0.0811
10 22 15 9.7894 1.3630
12 22 15 9.1756 0.3231
14 22 15 -9.7941 -1.5427
16 22 15 -0.3013 -0.9085
18 22 15 -7.4412 0.8954
20 22 15 -5.7157 0.6910
22 22 15 -1.9522 -0.2590
24 22 15 -6.7903 0.2636
26 22 15 8.7934 -0.2309
-27 23 15 -11.2295 -0.5107
-25 23 15 9.4350 1.4014
-23 23 15 -1.7680 0.1530
-21 23 15 13.1679 -1.7978
-19 23 15 1.5419 -0.3035
-17 23 15 4.2584 1.7435
-15 23 15 2.6203 0.2374
-13 23 15 -33.7597 -1.4808
-11 23 15 13.8191 0.7383
-9 23 15 -17.7387 2.4295
-7 23 15 18.2445 -0.2603
-5 23 15 22.1321 -1.6822
-3 23 15 -11.6460 0.5941
-1 23 15 -0.2463 1.7690
1 23 15 5.7107 -1.2800
3 23 15 8.5700 -2.0551
5 23 15 -17.2839 0.6702
7 23 15 -13.1719 0.8102
9 23 15 10.0441 -1.8223
11 23 15 7.7107 -1.3759
13 23 15 -27.9168 1.4977
15 23 15 4.0503 0.5761
17 23 15 5.9214 -1.2941
19 23 15 -3.2704 -0.3856
21 23 15 5.3374 1.9133
23 23 15 4.9911 0.0690
25 23 15 -8.2359 -0.8359
-26 24 15 -6.4190 0.6928
-24 24 15 10.0190 0.2902
-22 24 15 -8.7007 -1.2340
-20 24 15 2.0175 -0.3189
-18 24 15 -0.6792 1.2350
-16 24 15 6.9307 -0.6271
-14 24 15 -11.2549 -1.4450
-12 24 15 -0.6885 0.5427
-10 24 15 12.0808 2.0944
-8 24 15 14.7050 -0.5811
-6 24 15 -0.3165 -2.3490
-4 24 15 -5.8887 0.0947
-2 24 15 -7.9931 1.6855
0 24 15 -9.5248 0.1617
2 24 15 -12.9896 -1.0974
4 24 15 0.2945 -0.3610
6 24 15 -4.8799 0.6337
8 24 15 -5.7800 0.3061
10 24 15 -11.4471 -0.3559
12 24 15 1.6917 0.5567
14 24 15 17.6380 0.6232
16 24 15 5.3585 -0.4489
18 24 15 -8.8038 -1.0936
20 24 15 -9.7940 0.0613
22 24 15 2.1632 1.4674
24 24 15 8.0547 1.1576
-25 25 15 17.8416 -0.4137
-23 25 15 -3.2317 -0.2369
-21 25 15 3.8801 -0.1843
-19 25 15 -12.4711 0.9294
-17 25 15 -11.2527 0.4389
-15 25 15 -2.3580 -0.9535
-13 25 15 -1.5618 -0.3899
-11 25 15 -1.1561 0.7758
-9 25 15 -10.3584 1.0300
-7 25 15 18.3259 -0.0867
-5 25 15 21.9658 -0.6156
-3 25 15 10.0998 0.2122
-1 25 15 -9.8101 0.3001
1 25 15 3.4522 -0.3273
3 25 15 5.4596 -0.1451
5 25 15 -3.2119 0.3479
7 25 15 -1.3140 -0.3145
9 25 15 -4.9431 -0.9800
11 25 15 2.9477 -0.6558
13 25 15 -17.1549 0.5060
15 25 15 -5.3293 0.4479
17 25 15 -8.7641 0.0310
19 25 15 9.5402 -1.1950
21 25 15 19.5595 0.6740
23 25 15 16.8128 0.3693
-24 26 15 -0.9794 -0.1017
-22 26 15 3.3928 0.2444
-20 26 15 6.0383 0.0568
-18 26 15 -5.2165 -0.7669
-16 26 15 0.1181 -0.9026
-14 26 15 1.7994 -0.1102
-12 26 15 14.9649 0.1529
-10 26 15 11.5850 -0.0760
-8 26 15 1.4614 -0.4184
-6 26 15 -2.9517 0.0482
-4 26 15 -2.8308 0.1056
-2 26 15 -1.8925 -0.5894
0 26 15 -8.3935 -0.2653
2 26 15 -0.0834 0.8483
4 26 15 -0.4571 0.7618
6 26 15 14.4340 -0.4301
8 26 15 23.5879 -0.4231
10 26 15 12.2217 0.7618
12 26 15 8.5748 0.5909
14 26 15 -2.1388 -0.5428
16 26 15 2.9905 -0.0149
18 26 15 -6.9197 0.7419
20 26 15 -19.9859 0.2457
22 26 15 1.4926 -0.5039
-23 27 15 -4.0818 0.4432
-21 27 15 -0.8689 -0.4652
-19 27 15 -18.4670 -0.4761
-17 27 15 10.5665 -0.2210
-15 27 15 7.0714 -0.1649
-13 27 15 4.4347 -0.3043
-11 27 15 -7.3905 -0.4891
-9 27 15 5.7651 0.5135
-7 27 15 15.3939 0.8645
-5 27 15 -17.5464 0.3138
-3 27 15 5.9090 -0.4410
-1 27 15 12.2625 -0.5423
1 27 15 -0.4985 0.0676
3 27 15 18.2430 0.7424
5 27 15 -12.9709 0.5871
7 27 15 -22.5172 -0.4022
9 27 15 -6.8938 -0.3041
11 27 15 0.4726 0.1437
13 27 15 -7.0711 -0.0423
15 27 15 5.3114 -0.3296
17 27 15 0.8131 0.4238
19 27 15 6.1569 0.2733
21 27 15 -1.1199 0.5904
-22 28 15 -1.0429 -1.2569
-20 28 15 1.5651 -0.8968
-18 28 15 6.6384 0.5458
-16 28 15 -9.9361 0.4462
-14 28 15 21.1545 -0.7778
-12 28 15 -17.2753 -0.8876
-10 28 15 5.1486 -0.0383
-8 28 15 -6.3043 0.3262
-6 28 15 1.3643 -0.4583
-4 28 15 -8.5740 -0.4431
-2 28 15 -4.8516 0.1725
0 28 15 14.7669 0.1030
2 28 15 6.5825 -0.4925
4 28 15 -11.4581 0.5580
6 28 15 -11.4041 1.3575
8 28 15 -3.7030 0.1662
10 28 15 -6.0243 -1.2728
12 28 15 -3.0505 0.3981
14 28 15 -0.9406 1.4891
16 28 15 -2.1617 0.5696
18 28 15 14.1936 -0.3583
20 28 15 -12.2039 0.5317
-21 29 15 9.2100 -0.3403
-19 29 15 -1.3796 1.0548
-17 29 15 -14.1807 0.0215
-15 29 15 -9.7918 -0.9604
-13 29 15 -3.2611 -0.9911
-11 29 15 -2.1774 0.7268
-9 29 15 12.5434 0.8334
-7 29 15 7.3440 -0.3044
-5 29 15 -17.3726 -0.1050
-3 29 15 10.7380 0.7824
-1 29 15 -9.0055 0.3072
1 29 15 -21.2580 -0.7015
3 29 15 1.2590 -0.4958
5 29 15 1.9213 0.9078
7 29 15 -11.1911 0.7323
9 29 15 9.8185 -0.3702
11 29 15 3.4208 -0.6760
13 29 15 -6.3363 0.0116
15 29 15 2.6082 -0.2641
17 29 15 -2.5656 0.2648
19 29 15 -4.9295 -0.0179
-18 30 15 -1.1261 0.1044
-16 30 15 9.1581 -0.7264
-14 30 15 9.8899 -0.0738
-12 30 15 -14.2695 -0.3733
-10 30 15 14.7230 -0.8355
-8 30 15 -2.2547 -0.6097
-6 30 15 15.2237 0.1849
-4 30 15 4.7610 0.2647
-2 30 15 2.6476 -0.1604
0 30 15 1.8826 -0.2766
2 30 15 -1.8824 -0.2685
4 30 15 -7.0946 0.0239
6 30 15 2.3694 0.4309
8 30 15 9.6546 0.6634
10 30 15 6.1378 0.0813
12 30 15 0.1668 -0.1704
14 30 15 -7.3643 -0.7237
16 30 15 -7.0569 0.5014
18 30 15 -0.8432 0.4435
-17 31 15 -10.2250 -2.0065
-15 31 15 -6.5675 0.2366
-13 31 15 2.6342 0.6867
-11 31 15 -16.0642 0.3097
-9 31 15 4.4217 -0.3126
-7 31 15 -1.1033 -0.1344
-5 31 15 -15.6034 0.3345
-3 31 15 21.6290 0.1972
-1 31 15 11.6150 -0.2986
1 31 15 0.1578 -0.0356
3 31 15 -6.2689 0.7782
5 31 15 -2.4625 0.0026
7 31 15 -3.0858 -1.2757
9 31 15 -1.2138 -0.0970
11 31 15 -2.1360 2.1663
13 31 15 7.1936 0.5102
15 31 15 0.3938 -1.8877
-16 32 15 -1.7313 0.1283
-14 32 15 -7.0768 0.4326
-12 32 15 -7.2165 -0.9807
-10 32 15 8.5750 -0.2961
-8 32 15 1.8785 0.5864
-6 32 15 -1.6386 -0.0716
-4 32 15 -7.6562 -0.4086
-2 32 15 -6.6557 0.0101
0 32 15 8.0909 0.1054
2 32 15 -0.2285 0.1461
4 32 15 2.9159 0.0733
6 32 15 1.1546 0.1965
8 32 15 -2.1828 0.0908
10 32 15 -0.5182 0.5727
12 32 15 5.7012 -0.2565
14 32 15 3.9055 -0.8906
-13 33 15 14.6749 -0.5560
-11 33 15 -8.8457 0.3036
-9 33 15 -6.0588 0.9244
-7 33 15 2.2851 -0.3219
-5 33 15 -7.6501 -0.9730
-3 33 15 1.7887 0.7180
-1 33 15 -10.0063 1.1517
1 33 15 -15.6905 -0.6673
3 33 15 -3.7240 -0.6946
5 33 15 -1.3259 0.4399
7 33 15 8.9239 -0.3974
9 33 15 8.9486 -0.8319
11 33 15 9.3963 -0.0149
-10 34 15 1.7678 1.8972
-8 34 15 -5.1257 0.6145
-6 34 15 4.7010 -1.1743
-4 34 15 -0.0584 -1.0102
-2 34 15 -1.1918 1.3748
0 34 15 12.4482 0.7981
2 34 15 -10.5656 -1.1637
4 34 15 -0.1683 -0.7168
6 34 15 -2.3490 1.2280
8 34 15 10.2549 0.5779
10 34 15 -6.9340 0.1563
-7 35 15 2.5938 -0.3125
-5 35 15 -0.9537 0.7673
-3 35 15 -4.0234 0.9040
-1 35 15 -5.4094 0.0798
1 35 15 2.0126 -0.6547
3 35 15 -5.1723 0.1927
5 35 15 -5.9160 1.1887
-34 0 16 -13.1197 -2.2588
-32 0 16 14.2866 4.5242
-30 0 16 25.2776 -1.2737
-28 0 16 -6.1217 -7.9245
-26 0 16 10.7571 6.4002
-24 0 16 20.2762 13.7309
-22 0 16 5.0272 -10.7195
-20 0 16 16.1844 -18.7476
-18 0 16 12.3650 20.3992
-16 0 16 6.1693 36.2925
-14 0 16 -5.9981 -0.5211
-12 0 16 0.5801 -9.2113
-10 0 16 43.7694 27.7751
-8 0 16 68.5169 21.0083
-6 0 16 40.2314 -25.0317
-4 0 16 8.0614 -7.4709
-2 0 16 39.0216 33.6626
0 0 16 -71.1460 -10.9931
2 0 16 9.7461 -69.1234
4 0 16 103.0006 -32.6820
6 0 16 -2.1327 20.4995
8 0 16 -61.2469 -3.9747
10 0 16 -23.9601 -34.4962
12 0 16 -9.7559 -4.6104
14 0 16 12.8532 15.5588
16 0 16 2.1381 -8.0069
18 0 16 39.2367 -9.7092
20 0 16 11.5196 20.1017
22 0 16 -2.0153 20.4128
24 0 16 -15.0033 -8.2172
26 0 16 24.0023 -12.3158
28 0 16 18.7887 6.2064
30 0 16 -20.4962 8.9475
32 0 16 12.9324 -2.0474
34 0 16 8.3522 -3.5497
-35 1 16 -16.3343 -3.4420
-33 1 16 -7.1989 7.0020
-31 1 16 2.3187 4.4755
-29 1 16 -1.5947 -8.5022
-27 1 16 -3.1601 -4.8518
-25 1 16 -11.1531 10.1244
-23 1 16 17.2152 6.2282
-21 1 16 6.4000 -8.1356
-19 1 16 14.6019 0.7725
-17 1 16 -5.5106 13.4488
-15 1 16 -10.1128 -2.6959
-13 1 16 5.7165 -16.9584
-9 1 16 -25.9370 21.5110
-7 1 16 -18.3556 -6.2738
-5 1 16 38.2630 -28.1383
-3 1 16 -5.2159 -4.5266
-1 1 16 -30.7869 14.9643
1 1 16 19.5715 -3.2821
3 1 16 -22.8878 -15.3269
5 1 16 81.3428 2.3597
7 1 16 45.6456 6.6582
9 1 16 -12.1357 -14.7470
11 1 16 16.3858 -11.6741
13 1 16 12.3015 16.4971
15 1 16 -30.2123 14.5438
17 1 16 -35.7156 -13.1771
19 1 16 15.4285 -14.0027
21 1 16 12.2852 8.0810
23 1 16 10.0097 9.6256
25 1 16 -1.8823 -4.2179
27 1 16 -14.1746 -1.7913
29 1 16 14.6973 4.5879
31 1 16 -6.8477 -1.2282
33 1 16 2.1682 -5.1718
-34 2 16 -13.5003 -0.1071
-32 2 16 19.0884 -0.3076
-30 2 16 13.4498 -0.2623
-28 2 16 -6.0191 -0.7276
-26 2 16 2.5935 -1.0376
-24 2 16 3.5384 -0.9329
-22 2 16 -8.5323 -0.3592
-20 2 16 -2.9524 -0.4959
-18 2 16 -23.0738 -0.0514
-16 2 16 -7.3204 0.3773
-14 2 16 -21.9134 1.6553
-12 2 16 -19.1780 2.4894
-10 2 16 39.5821 1.6347
-8 2 16 44.7282 2.0367
-6 2 16 -19.9536 2.9346
-4 2 16 -12.8920 1.6096
-2 2 16 -14.8600 -2.5427
0 2 16 15.8200 -4.7028
2 2 16 6.2517 -2.5895
4 2 16 -79.5726 -1.0176
6 2 16 1.2522 -2.3780
8 2 16 -20.4590 -3.1101
10 2 16 35.2154 -1.8888
12 2 16 10.0438 -0.6852
14 2 16 35.7107 -1.0176
16 2 16 -47.1794 1.2196
18 2 16 5.6773 3.7270
20 2 16 13.8029 1.6941
22 2 16 -17.1327 -1.3946
24 2 16 -11.9711 -1.3479
26 2 16 4.7976 0.6079
28 2 16 21.3416 1.2860
30 2 16 5.6792 0.8595
32 2 16 7.3665 -0.8006
34 2 16 8.2336 -1.9823
-35 3 16 6.6279 -0.8694
-33 3 16 -10.0578 0.0078
-31 3 16 0.5443 1.6228
-29 3 16 -4.3747 -0.0459
-27 3 16 7.6897 -1.6276
-25 3 16 8.5089 0.3589
-23 3 16 18.8674 2.0638
-21 3 16 -3.1778 0.4076
-19 3 16 8.0764 0.1448
-17 3 16 -12.2576 1.0789
-15 3 16 2.2855 -0.8036
-13 3 16 5.5299 -1.7408
-11 3 16 -30.4266 3.3191
-9 3 16 -25.1845 5.4607
-7 3 16 35.1866 -2.2615
-5 3 16 -29.2428 -7.1593
-3 3 16 30.3348 -1.1941
-1 3 16 102.7297 3.8641
1 3 16 -19.3302 1.5714
3 3 16 33.7406 -2.6046
5 3 16 64.3858 -3.8583
7 3 16 -43.4195 -4.8693
9 3 16 -58.0499 -3.7976
11 3 16 27.1852 3.4515
13 3 16 -1.2707 7.0074
15 3 16 -28.3179 0.4785
17 3 16 11.0934 -5.6820
19 3 16 8.4925 -2.7919
21 3 16 19.4748 3.0386
23 3 16 9.9949 4.3085
25 3 16 8.5585 2.9555
27 3 16 7.7573 0.2479
29 3 16 4.7399 -3.2998
31 3 16 -12.2896 -2.9214
33 3 16 -1.9740 2.0542
-34 4 16 8.9686 -1.0175
-32 4 16 20.0169 3.9144
-30 4 16 -1.2300 0.0635
-28 4 16 2.8068 -3.6058
-26 4 16 0.1076 -0.9374
-24 4 16 -11.3574 5.0118
-22 4 16 -10.6653 0.7990
-20 4 16 5.3161 -3.0098
-18 4 16 -19.0222 2.3393
-16 4 16 -14.1686 3.8018
-14 4 16 -31.5618 -4.6510
-12 4 16 -3.8599 -2.1076
-10 4 16 -2.0928 12.1168
-8 4 16 38.8645 8.7199
-6 4 16 39.0365 -9.9995
-4 4 16 -6.7771 -10.1773
-2 4 16 -47.9182 5.6554
0 4 16 57.5051 6.6037
4 4 16 -23.0484 -4.2887
6 4 16 86.4510 3.0432
8 4 16 10.4659 -5.0712
10 4 16 0.2577 -11.0654
12 4 16 27.4787 3.2540
14 4 16 24.7552 11.7534
16 4 16 -41.0867 -0.6647
18 4 16 -28.3233 -9.7498
20 4 16 -2.5835 -1.7186
22 4 16 1.1365 4.5710
24 4 16 12.1055 0.8976
26 4 16 -6.7985 -0.8750
28 4 16 8.6041 1.7425
30 4 16 10.6007 -0.6141
32 4 16 -0.5848 -3.4026
-35 5 16 11.2054 1.4343
-33 5 16 -5.9957 3.7243
-31 5 16 14.6873 1.9413
-29 5 16 -1.3923 -4.3996
-27 5 16 -2.3379 -2.4527
-25 5 16 12.9947 4.3393
-23 5 16 9.3378 1.4471
-21 5 16 -6.5509 -4.7266
-19 5 16 9.5246 0.5050
-17 5 16 -10.9460 5.3986
-15 5 16 -28.7937 -3.9255
-13 5 16 -6.6208 -9.8082
-11 5 16 -41.7098 2.3049
-9 5 16 -13.1983 10.5054
-7 5 16 35.9973 -1.5670
-5 5 16 -88.0659 -10.5045
-1 5 16 68.3869 7.0803
1 5 16 2.0577 -2.9000
3 5 16 86.5403 -6.0237
7 5 16 -22.3129 7.2828
9 5 16 -11.9786 -6.8683
11 5 16 66.1076 -6.5281
13 5 16 12.8001 7.9378
15 5 16 -29.0238 7.7915
17 5 16 -10.8997 -4.6084
19 5 16 18.8372 -4.0701
21 5 16 4.2899 4.8263
23 5 16 -12.5011 2.3500
25 5 16 -2.2290 -4.6747
27 5 16 12.0663 -1.6547
29 5 16 9.6712 4.1319
31 5 16 -2.8237 2.0166
33 5 16 -8.2782 -3.6740
-34 6 16 8.6325 1.3871
-32 6 16 10.0463 0.3913
-30 6 16 -5.9637 -1.7788
-28 6 16 4.6665 -0.9679
-26 6 16 -1.1452 2.2427
-24 6 16 -4.8110 -0.1140
-22 6 16 -14.8371 -2.6998
-20 6 16 3.6146 -0.0354
-18 6 16 -17.6511 2.6153
-16 6 16 -15.2535 -0.4319
-14 6 16 -15.8580 -3.4077
-12 6 16 39.4804 -0.3786
-10 6 16 -17.0656 3.0422
-8 6 16 40.9066 -0.0187
-6 6 16 6.5294 -3.4934
-4 6 16 -52.8855 -0.8349
-2 6 16 21.6346 3.9139
0 6 16 55.6863 3.8309
2 6 16 -47.4165 -0.4303
4 6 16 15.3099 -1.3595
6 6 16 5.3808 0.6545
8 6 16 1.2212 0.6567
10 6 16 -36.1091 0.2018
12 6 16 -0.7628 1.5640
14 6 16 8.2576 2.3388
16 6 16 22.8341 -1.1114
18 6 16 -2.4439 -4.6484
20 6 16 1.1243 -1.8250
22 6 16 12.1469 4.0913
24 6 16 0.7160 3.1777
26 6 16 4.4640 -1.5138
28 6 16 -6.6791 -3.4878
30 6 16 12.6969 0.4340
32 6 16 12.1539 1.6012
-33 7 16 -5.9368 0.9801
-31 7 16 6.5449 -1.7783
-29 7 16 2.5628 0.7260
-27 7 16 2.2239 1.2464
-25 7 16 -0.7120 -0.3596
-23 7 16 -8.4239 -1.0198
-21 7 16 4.7445 0.8280
-19 7 16 -2.2735 0.1026
-17 7 16 -24.4688 -2.0945
-15 7 16 0.8615 -1.0371
-13 7 16 17.1428 1.5729
-11 7 16 -44.0258 0.5837
-9 7 16 -3.5791 -1.5269
-7 7 16 60.5719 0.2369
-5 7 16 18.3458 2.4504
-3 7 16 41.0994 -0.4841
-1 7 16 70.0001 -3.1459
1 7 16 -49.1669 -0.7445
3 7 16 37.1280 1.7996
5 7 16 5.9769 0.9326
7 7 16 29.6421 -0.3156
9 7 16 -24.3818 0.0184
11 7 16 19.6814 -0.3665
13 7 16 24.3956 -1.6649
15 7 16 -3.9271 -0.4135
17 7 16 -1.9450 3.0801
19 7 16 -4.5779 2.8157
21 7 16 -12.5997 -1.5989
23 7 16 -5.9618 -3.1755
25 7 16 -4.9111 -0.4299
27 7 16 -3.3062 1.3115
29 7 16 12.6661 0.6839
31 7 16 -3.8530 0.1936
33 7 16 3.2580 -2.5812
-34 8 16 -1.7965 -2.4814
-32 8 16 2.3448 -1.4403
-30 8 16 6.6109 1.7238
-28 8 16 -1.1009 2.5417
-26 8 16 11.6126 -0.5708
-24 8 16 3.5222 -3.0157
-22 8 16 6.5659 0.8513
-20 8 16 31.2653 2.6784
-18 8 16 1.5924 -1.5316
-16 8 16 -21.3090 -3.3602
-14 8 16 -9.3681 1.0301
-12 8 16 8.1331 0.2658
-10 8 16 8.3872 -5.9648
-8 8 16 45.1868 -3.4377
-6 8 16 6.1121 5.4169
-4 8 16 -18.1466 5.0856
-2 8 16 15.2946 -2.0988
0 8 16 -15.6533 -2.5816
2 8 16 -48.8285 3.9999
4 8 16 55.5658 5.0974
6 8 16 13.3090 0.7879
8 8 16 1.1432 2.3438
10 8 16 -23.6931 4.9861
12 8 16 -2.6887 -0.6862
14 8 16 -22.6423 -6.1796
16 8 16 -9.5396 -0.9676
18 8 16 -10.6728 5.1100
20 8 16 -12.1125 1.6122
22 8 16 -0.1197 -3.5455
24 8 16 -3.0962 -2.0234
26 8 16 3.8034 0.7182
28 8 16 -11.8952 -0.1759
30 8 16 -0.1804 -0.6136
32 8 16 11.2644 1.6221
-33 9 16 -4.3935 -0.9363
-31 9 16 -3.6928 -0.2303
-29 9 16 3.2082 0.6928
-27 9 16 1.6525 -0.0739
-25 9 16 2.3297 1.6306
-23 9 16 5.3597 0.4856
-21 9 16 4.5126 -2.5436
-19 9 16 2.4977 -1.8897
-17 9 16 -45.1142 3.7887
-15 9 16 -8.3253 5.1600
-13 9 16 -6.4642 0.6163
-11 9 16 -39.8335 -1.5143
-9 9 16 -29.1039 -0.4577
-7 9 16 -11.9855 -0.4740
-5 9 16 -19.3696 0.2502
-3 9 16 -45.3185 4.0838
-1 9 16 33.5244 2.8177
3 9 16 40.8044 -6.3364
5 9 16 -6.0737 -0.0284
7 9 16 7.1283 3.1289
9 9 16 -14.6878 0.6789
11 9 16 5.3276 -0.4285
13 9 16 36.3808 -0.6327
15 9 16 -13.5245 -2.6847
17 9 16 -7.4101 -1.6500
19 9 16 10.6771 2.8250
21 9 16 -8.8485 3.2162
23 9 16 1.0821 -1.0084
25 9 16 -8.5869 -2.1393
27 9 16 4.3559 -0.2668
29 9 16 6.6328 0.6969
31 9 16 -17.4303 -0.5145
33 9 16 -4.8014 -1.8220
-34 10 16 -6.9044 2.6805
-32 10 16 -5.8410 0.9829
-30 10 16 -0.6697 -1.1872
-28 10 16 -3.8003 0.0123
-26 10 16 6.7412 1.9933
-24 10 16 -32.4734 0.6551
-22 10 16 1.2119 -1.8488
-20 10 16 29.5388 -1.8919
-18 10 16 -12.6241 -0.2699
-16 10 16 -30.2244 -0.2534
-14 10 16 10.0631 -1.6244
-12 10 16 -5.9026 -1.4436
-10 10 16 39.9359 -0.1523
-8 10 16 20.3540 -1.3519
-6 10 16 -25.4804 -1.8460
-4 10 16 11.0875 0.5611
-2 10 16 16.6550 2.1949
0 10 16 18.4926 0.0813
2 10 16 -19.5786 -1.6963
4 10 16 27.8055 1.0522
6 10 16 -2.7431 3.5673
8 10 16 -4.8555 1.4099
10 10 16 -27.5690 -1.1851
12 10 16 -11.1868 -0.8596
14 10 16 -12.0454 0.1736
16 10 16 2.7011 0.0783
18 10 16 -9.5421 0.3972
20 10 16 12.1376 1.0656
22 10 16 18.7308 -0.2243
24 10 16 11.7886 -2.1791
26 10 16 -4.5215 -1.2865
28 10 16 11.5811 1.0140
30 10 16 5.5327 1.6086
32 10 16 6.3523 0.6030
-33 11 16 8.9936 -0.2966
-31 11 16 2.3079 0.2515
-29 11 16 -0.2731 -1.8542
-27 11 16 -6.2366 0.8284
-25 11 16 -14.3573 1.7452
-23 11 16 -12.4093 -1.2484
-21 11 16 -14.5476 -2.3424
-19 11 16 27.6986 1.4700
-17 11 16 34.6400 3.6530
-15 11 16 8.2523 -0.0957
-13 11 16 -3.4529 -2.0679
-11 11 16 -8.1489 0.9490
-9 11 16 -27.8886 1.8866
-7 11 16 37.8064 -1.6148
-5 11 16 50.7664 -1.0826
-3 11 16 30.8253 3.6944
-1 11 16 5.2504 2.8604
1 11 16 -36.3070 -2.7002
3 11 16 -32.3493 -2.9994
5 11 16 11.1395 1.4188
7 11 16 0.8748 2.5077
9 11 16 -27.7382 -0.4987
11 11 16 -16.5891 -1.0722
13 11 16 11.8966 0.3354
15 11 16 -18.0254 -0.6578
17 11 16 7.5273 -2.1563
19 11 16 -4.9335 -0.3384
21 11 16 -34.6957 1.7246
23 11 16 6.7822 1.5344
25 11 16 3.5625 -0.7975
27 11 16 15.1148 -1.4563
29 11 16 -11.5368 -0.0574
31 11 16 -6.5598 0.7696
-32 12 16 -3.2005 -2.8839
-30 12 16 2.2645 -0.8387
-28 12 16 -5.0797 2.5437
-26 12 16 16.5926 0.8527
-24 12 16 -2.0878 -2.0748
-22 12 16 -10.0254 0.6425
-20 12 16 -11.9176 2.3916
-18 12 16 -10.6468 -1.4008
-16 12 16 3.0861 -2.2118
-14 12 16 14.4417 3.3711
-12 12 16 -2.3091 3.5750
-10 12 16 24.6297 -3.3176
-8 12 16 -7.3195 -3.8161
-6 12 16 -18.8401 2.0759
-4 12 16 1.8667 1.4608
-2 12 16 -60.6413 -3.8578
0 12 16 -42.1769 -1.6672
2 12 16 -35.3398 2.7657
4 12 16 16.5226 0.1113
6 12 16 -5.3183 -4.1660
8 12 16 -5.0669 -0.7481
10 12 16 -3.9167 3.5759
12 12 16 -11.9980 0.7183
14 12 16 6.6043 -2.5594
16 12 16 -26.9154 0.7849
18 12 16 -26.7688 2.6213
20 12 16 5.9361 -1.4364
22 12 16 8.8135 -2.1814
24 12 16 2.0506 1.4794
26 12 16 -6.3634 2.8145
28 12 16 -0.3966 -0.5296
30 12 16 -3.5128 -1.7608
32 12 16 -17.9976 2.2866
-33 13 16 3.0976 0.6409
-31 13 16 6.2655 0.7149
-29 13 16 -9.3236 0.9690
-27 13 16 0.9080 -0.8703
-25 13 16 -1.5634 -1.3619
-23 13 16 12.4300 0.7448
-21 13 16 -2.9337 1.3576
-19 13 16 18.5649 -0.2785
-17 13 16 5.5429 -1.8405
-15 13 16 -8.8852 -0.9469
-13 13 16 6.7716 0.6459
-11 13 16 4.7127 1.4150
-9 13 16 -17.0213 0.8293
-7 13 16 12.4900 0.2171
-5 13 16 -5.1421 0.1086
-3 13 16 15.2234 -0.4474
-1 13 16 12.4722 -0.4255
1 13 16 3.7969 1.2787
3 13 16 -18.5538 2.2195
5 13 16 23.1575 -0.0745
7 13 16 -6.5450 -3.2274
9 13 16 -23.2488 -2.3162
11 13 16 9.5744 1.2226
13 13 16 -23.4684 1.1382
15 13 16 0.8707 -1.4978
17 13 16 1.2196 -1.4532
19 13 16 6.4420 0.4482
21 13 16 -25.3638 -0.5229
23 13 16 4.2327 -1.4580
25 13 16 8.0209 0.6563
27 13 16 -11.0606 1.7097
29 13 16 -1.6424 -0.1870
31 13 16 11.5853 -1.9154
-32 14 16 -14.7855 1.0010
-30 14 16 -1.7846 -0.2750
-28 14 16 -10.1185 -0.2861
-26 14 16 9.2056 -1.0384
-24 14 16 -15.8310 -0.0583
-22 14 16 1.1140 0.9723
-20 14 16 0.3590 0.7724
-18 14 16 1.2674 0.4833
-16 14 16 4.6639 0.2278
-14 14 16 -12.0806 0.1291
-12 14 16 -15.9748 -0.1382
-10 14 16 5.6164 0.9951
-8 14 16 -11.9771 1.4044
-6 14 16 5.1182 -0.0317
-4 14 16 3.6083 -1.4080
-2 14 16 -2.5830 -1.6807
0 14 16 30.0636 -0.7642
2 14 16 -19.8016 0.3148
4 14 16 -2.5941 0.7677
6 14 16 7.9967 -0.0091
8 14 16 -11.5294 -1.2401
10 14 16 -31.0913 -1.4196
12 14 16 16.9937 -0.0824
14 14 16 0.2562 1.4645
16 14 16 2.9811 1.1930
18 14 16 -9.8400 -0.5653
20 14 16 -7.7808 -1.4525
22 14 16 2.9288 0.1441
24 14 16 6.1524 0.8742
26 14 16 5.1275 0.7910
28 14 16 -8.1431 0.0204
30 14 16 15.3765 -0.4079
-31 15 16 -3.8660 0.1562
-29 15 16 -11.1911 -0.5130
-27 15 16 4.8383 0.6136
-25 15 16 1.5614 0.7917
-23 15 16 3.2893 -0.6764
-21 15 16 -6.5179 -0.8432
-19 15 16 6.4553 0.8790
-17 15 16 -26.1546 0.6421
-15 15 16 2.8428 -1.2622
-13 15 16 -12.4672 -0.5444
-11 15 16 10.8035 0.9999
-9 15 16 27.9781 0.5554
-7 15 16 21.4866 -0.1686
-5 15 16 21.6946 -0.3314
-3 15 16 -6.2844 0.1728
-1 15 16 -17.3719 0.5910
1 15 16 3.7022 -0.1023
3 15 16 -1.1169 -0.6525
5 15 16 -2.9341 0.1843
7 15 16 -7.9177 0.7017
9 15 16 2.3093 -1.0284
11 15 16 8.9972 -1.3782
13 15 16 -22.9618 0.5857
15 15 16 24.3655 1.1211
17 15 16 -16.1776 0.0259
19 15 16 21.8077 -1.0137
21 15 16 16.5180 -0.0625
23 15 16 18.0033 1.1619
25 15 16 -2.6707 0.3646
27 15 16 -7.5743 0.1781
29 15 16 1.5296 0.5484
-30 16 16 -6.5094 -2.0442
-28 16 16 7.9560 0.7000
-26 16 16 7.8296 0.5143
-24 16 16 -6.8104 -1.0365
-22 16 16 4.5592 -0.3005
-20 16 16 -0.0745 1.7629
-18 16 16 18.9158 -0.0756
-16 16 16 -1.1433 -1.7838
-14 16 16 21.0197 0.3959
-12 16 16 25.1283 1.8556
-10 16 16 -13.9727 -0.4244
-8 16 16 -29.6630 -1.1590
-6 16 16 -8.2435 0.8612
-4 16 16 -18.1007 0.6905
-2 16 16 -55.1398 -1.6023
0 16 16 -0.2672 -0.8944
2 16 16 -26.8517 0.7248
4 16 16 -29.5652 -0.5304
6 16 16 -11.8126 -1.5644
8 16 16 -26.0714 0.2615
10 16 16 -8.6463 1.0208
12 16 16 9.6010 -1.3136
14 16 16 -28.3069 -1.2016
16 16 16 5.9775 1.2011
18 16 16 -8.0371 1.2288
20 16 16 -9.8696 -1.3895
22 16 16 13.1746 -0.2289
24 16 16 1.7877 0.9372
26 16 16 -3.8016 -0.3977
28 16 16 -2.9983 -1.8211
30 16 16 7.6141 1.7489
-31 17 16 4.4811 -0.9105
-29 17 16 -3.0460 1.0141
-27 17 16 -6.1450 -0.5604
-25 17 16 3.3215 -2.8047
-23 17 16 1.9452 -0.4065
-21 17 16 7.5273 2.6694
-19 17 16 1.5901 -0.6706
-17 17 16 -6.2708 -3.3415
-15 17 16 14.0359 0.6545
-13 17 16 -10.7477 3.0585
-11 17 16 -9.3016 -1.3500
-9 17 16 14.4017 -3.0333
-7 17 16 6.4404 1.6687
-5 17 16 6.7937 3.2422
-3 17 16 24.8978 -1.5406
-1 17 16 -11.4745 -2.8763
1 17 16 -22.0992 1.9085
3 17 16 7.0836 2.8919
5 17 16 -18.5130 -1.3388
7 17 16 22.9156 -2.1233
9 17 16 9.0612 1.7128
11 17 16 5.6659 2.0247
13 17 16 -9.3689 -1.5103
15 17 16 -0.8281 -1.8786
17 17 16 9.2459 2.2038
19 17 16 15.1211 1.7864
21 17 16 17.3380 -1.9811
23 17 16 -5.6375 -1.7202
25 17 16 -21.4662 1.6417
27 17 16 2.5593 2.1527
29 17 16 -5.4823 -0.1733
-30 18 16 -12.4471 2.1413
-28 18 16 14.2393 1.2826
-26 18 16 -3.3087 -1.1241
-24 18 16 -11.6820 -0.2185
-22 18 16 7.0036 1.6804
-20 18 16 11.1853 0.1730
-18 18 16 3.9203 -1.5640
-16 18 16 4.4426 0.0502
-14 18 16 16.3670 1.8727
-12 18 16 26.8741 0.2674
-10 18 16 22.0793 -2.2753
-8 18 16 -6.4837 -0.7290
-6 18 16 9.3736 1.9845
-4 18 16 -6.1235 0.9680
-2 18 16 -2.1644 -0.8770
0 18 16 -6.4456 -0.5450
2 18 16 5.0366 0.3563
4 18 16 16.6524 -0.3262
6 18 16 4.9708 -1.1619
8 18 16 -25.1076 0.0682
10 18 16 15.2153 2.0202
12 18 16 -4.7334 0.8557
14 18 16 -7.6963 -1.9352
16 18 16 2.6633 -1.4040
18 18 16 -7.9237 0.9638
20 18 16 -9.7288 1.3230
22 18 16 38.9232 -0.0202
24 18 16 -3.9433 -0.6681
26 18 16 6.6679 0.3230
28 18 16 9.5746 -0.2584
-29 19 16 -8.8028 0.5450
-27 19 16 -6.6861 -1.6932
-25 19 16 7.7310 0.2678
-23 19 16 3.3013 0.9019
-21 19 16 4.4164 -0.0401
-19 19 16 7.3693 -1.6195
-17 19 16 21.1106 -0.8660
-15 19 16 -26.6115 0.5559
-13 19 16 -2.8802 -0.0112
-11 19 16 -12.4061 -0.9577
-9 19 16 2.1602 -0.5038
-7 19 16 -3.4209 0.5695
-5 19 16 -0.3132 -0.0579
-3 19 16 18.2919 -0.4282
-1 19 16 -6.9246 0.6352
1 19 16 -48.2027 1.6235
3 19 16 -8.4435 0.4200
5 19 16 -12.8834 -0.1474
7 19 16 -1.0049 0.5825
9 19 16 4.6670 0.6350
11 19 16 -7.1278 0.1930
13 19 16 3.8068 0.1783
15 19 16 1.4597 -0.1587
17 19 16 7.2847 -0.2391
19 19 16 4.6934 0.0525
21 19 16 0.4829 0.3987
23 19 16 6.0251 -0.1442
25 19 16 -6.8502 -0.5317
27 19 16 8.5967 0.2281
-28 20 16 -9.0737 -0.2387
-26 20 16 -12.1547 -0.1497
-24 20 16 -8.6915 0.0209
-22 20 16 -7.3807 -0.8025
-20 20 16 14.9669 -0.0132
-18 20 16 -15.2971 1.0557
-16 20 16 15.3744 0.5365
-14 20 16 8.5017 -0.8319
-12 20 16 -29.0269 -0.3140
-10 20 16 -1.9697 1.0705
-8 20 16 -17.6636 0.7490
-6 20 16 6.2101 -0.5739
-4 20 16 0.1737 -0.6263
-2 20 16 5.4235 0.8914
0 20 16 -14.5894 0.5798
2 20 16 5.2021 -0.8477
4 20 16 0.9514 -0.9558
6 20 16 -3.9398 -0.0845
8 20 16 1.5770 0.3645
10 20 16 15.9376 0.0855
12 20 16 -5.6577 0.1625
14 20 16 -29.4201 1.0432
16 20 16 7.2510 0.3627
18 20 16 2.9444 -1.3184
20 20 16 -16.1752 -0.3573
22 20 16 5.2665 1.5595
24 20 16 9.3018 0.9549
26 20 16 8.5255 -1.2148
28 20 16 7.0853 -1.2708
-27 21 16 -5.1827 -0.0678
-25 21 16 -3.9010 0.1383
-23 21 16 -3.6747 -0.0267
-21 21 16 6.8783 0.0585
-19 21 16 -11.4295 -0.1677
-17 21 16 11.8612 -0.3107
-15 21 16 -9.6452 -0.3902
-13 21 16 -0.4338 -0.2781
-11 21 16 -9.2535 -0.3163
-9 21 16 -21.3144 -0.5741
-7 21 16 -9.2872 -0.5371
-5 21 16 -6.9148 -0.4721
-3 21 16 -22.8080 -0.2567
-1 21 16 5.2043 0.3070
1 21 16 -1.0047 0.6719
3 21 16 -5.6861 0.6984
5 21 16 16.8001 0.0489
7 21 16 -13.8443 -0.1170
9 21 16 -12.0467 0.4345
11 21 16 1.5964 1.2013
13 21 16 -11.1330 0.3275
15 21 16 6.2283 -0.5593
17 21 16 6.5423 -0.0688
19 21 16 4.0241 0.6598
21 21 16 -19.6262 0.1332
23 21 16 11.6658 -0.1826
25 21 16 -11.3919 -0.0300
27 21 16 -1.2915 -0.2484
-28 22 16 -9.8250 -0.7374
-26 22 16 5.4325 -0.5376
-24 22 16 7.8814 -0.6700
-22 22 16 -2.3009 0.7256
-20 22 16 12.1782 1.1583
-18 22 16 -14.9146 -0.4438
-16 22 16 14.4520 -0.7721
-14 22 16 -9.0969 0.2401
-12 22 16 -4.0668 0.9025
-10 22 16 12.8966 0.4372
-8 22 16 -0.4318 0.2812
-6 22 16 -10.3120 0.8790
-4 22 16 9.8989 0.2063
-2 22 16 1.2665 -1.1110
0 22 16 -12.7023 -0.0861
2 22 16 -19.0862 1.7337
4 22 16 12.0296 0.7558
6 22 16 -12.2444 -1.4103
8 22 16 14.9811 -1.4383
10 22 16 -16.1589 0.2685
12 22 16 -6.0599 0.0924
14 22 16 4.9368 -0.1662
16 22 16 -10.3303 0.2187
18 22 16 -7.1585 0.2932
20 22 16 6.1795 -0.6930
22 22 16 -2.8422 -0.7453
24 22 16 0.0282 1.0241
26 22 16 -19.7353 0.6542
-27 23 16 8.5587 -0.2428
-25 23 16 3.2372 -1.0633
-23 23 16 12.3222 0.3390
-21 23 16 -5.6694 0.8686
-19 23 16 -5.5897 -0.2476
-17 23 16 3.1262 -0.4072
-15 23 16 12.1574 0.7124
-13 23 16 -7.4658 -0.2255
-11 23 16 6.4365 -1.6685
-9 23 16 -1.0345 -0.9101
-7 23 16 2.5141 0.9791
-5 23 16 3.2971 0.8986
-3 23 16 -10.0004 -0.8829
-1 23 16 -15.3126 -1.3959
1 23 16 2.3753 -0.0926
3 23 16 -22.2865 0.7858
5 23 16 3.6079 -0.0888
7 23 16 15.8695 -0.4405
9 23 16 -8.5120 0.6329
11 23 16 25.0411 1.1082
13 23 16 1.1682 -0.1218
15 23 16 9.2224 -0.6805
17 23 16 -0.7260 0.4293
19 23 16 10.1736 0.7819
21 23 16 3.3149 -0.0158
23 23 16 7.9270 -0.0181
25 23 16 -8.9554 -1.2085
-26 24 16 3.2544 0.0213
-24 24 16 2.2286 0.7665
-22 24 16 14.2619 0.4002
-20 24 16 4.0559 -0.6956
-18 24 16 -19.2131 -0.1416
-16 24 16 6.0129 0.6213
-14 24 16 -2.6060 0.6318
-12 24 16 28.9180 -0.4295
-10 24 16 -15.1196 0.1530
-8 24 16 22.8618 0.9014
-6 24 16 9.1830 0.1878
-4 24 16 2.5024 -1.0373
-2 24 16 -4.8519 -0.2411
0 24 16 1.2578 0.9354
2 24 16 -6.2505 0.0822
4 24 16 12.3840 -0.6326
6 24 16 -5.8870 0.1948
8 24 16 5.1545 0.2339
10 24 16 -15.6883 -0.8942
12 24 16 6.0839 -1.0539
14 24 16 -3.3045 0.6037
16 24 16 -3.8370 1.3846
18 24 16 -0.9019 -0.3176
20 24 16 1.1524 -0.6738
22 24 16 -1.8652 -0.6338
24 24 16 11.1085 -0.5805
-25 25 16 -8.7711 -0.8896
-23 25 16 4.9821 -0.8754
-21 25 16 -9.3003 -0.7082
-19 25 16 6.4776 0.4682
-17 25 16 8.4319 1.2094
-15 25 16 7.1494 0.3202
-13 25 16 -7.5301 -0.7874
-11 25 16 -12.6575 -0.5160
-9 25 16 8.5373 0.5933
-7 25 16 6.4808 0.1526
-5 25 16 -8.5892 -0.3522
-3 25 16 2.2297 -0.0025
-1 25 16 5.9057 -0.2176
1 25 16 -13.1488 -0.9561
3 25 16 4.5390 -0.6375
5 25 16 4.8412 0.3967
7 25 16 7.3179 0.6106
9 25 16 -6.1364 0.0712
11 25 16 2.4862 -0.5983
13 25 16 -10.4635 -0.2577
15 25 16 11.2467 0.7651
17 25 16 -8.8084 0.1895
19 25 16 3.6618 -0.1051
21 25 16 9.8545 -0.2440
23 25 16 -2.9224 -0.5248
-24 26 16 -9.3633 -0.9696
-22 26 16 1.1290 -0.2954
-20 26 16 -0.9753 0.0239
-18 26 16 -1.1827 0.3424
-16 26 16 -6.1545 -0.0266
-14 26 16 13.7856 0.5218
-12 26 16 5.2513 0.6124
-10 26 16 0.6563 -0.6818
-8 26 16 0.1849 -0.6211
-6 26 16 -4.3838 0.3257
-4 26 16 0.8561 0.6178
-2 26 16 -1.4627 0.1375
0 26 16 8.3537 -0.0416
2 26 16 -15.5882 -0.6766
4 26 16 -11.8071 -0.9131
6 26 16 -16.2888 -0.1248
8 26 16 16.9135 0.9576
10 26 16 -12.9223 0.1597
12 26 16 10.2003 -1.3344
14 26 16 -11.0471 -0.4855
16 26 16 2.1924 0.4183
18 26 16 0.0378 0.0556
20 26 16 -1.8384 0.0107
22 26 16 -11.3900 -0.7430
-23 27 16 7.9513 -0.2311
-21 27 16 -9.7767 0.8231
-19 27 16 4.7638 -0.6890
-17 27 16 -12.6019 -1.4151
-15 27 16 5.4026 0.3450
-13 27 16 17.8813 1.6373
-11 27 16 -10.8870 -0.3030
-9 27 16 2.9859 -1.1569
-7 27 16 -8.5290 0.3592
-5 27 16 -11.9428 0.8917
-3 27 16 5.8758 -0.5788
-1 27 16 7.7757 -1.0940
1 27 16 -17.6200 0.1138
3 27 16 -10.7375 0.7901
5 27 16 1.3648 -0.7041
7 27 16 -13.2315 -1.0533
9 27 16 -7.7740 0.3431
11 27 16 15.9421 0.4641
13 27 16 -19.4905 -0.5252
15 27 16 6.3676 -0.1495
17 27 16 0.0076 1.1479
19 27 16 10.2601 0.0125
21 27 16 2.6053 -1.2944
-22 28 16 -12.4263 1.0866
-20 28 16 5.0861 -1.0210
-18 28 16 9.4176 -1.0681
-16 28 16 2.9130 0.4056
-14 28 16 1.6926 1.2717
-12 28 16 -17.8347 -0.2420
-10 28 16 -1.4150 -1.4160
-8 28 16 -6.1616 -0.1871
-6 28 16 -4.6688 1.1321
-4 28 16 5.5529 0.3424
-2 28 16 5.7685 -0.7551
0 28 16 1.8697 -0.1239
2 28 16 -20.3426 0.7107
4 28 16 -1.8523 -0.0770
6 28 16 -18.9186 -1.0455
8 28 16 13.8713 0.1293
10 28 16 -14.9793 1.4094
12 28 16 8.1210 -0.0004
14 28 16 2.5544 -1.3617
16 28 16 11.2732 -0.7838
18 28 16 10.6859 0.5050
20 28 16 -2.3806 0.0091
-19 29 16 6.0790 -0.9998
-17 29 16 -15.1539 0.5236
-15 29 16 7.7747 0.6896
-13 29 16 7.2513 0.0519
-11 29 16 -3.9299 0.3105
-9 29 16 22.0319 0.7553
-7 29 16 5.8197 -0.4698
-5 29 16 -2.6841 -1.2520
-3 29 16 14.0340 -0.0147
-1 29 16 3.0703 0.7970
1 29 16 -7.5327 0.1565
3 29 16 -8.6209 -0.1802
5 29 16 3.0328 0.2295
7 29 16 0.7263 -0.2969
9 29 16 0.5208 -0.7419
11 29 16 9.0461 0.3979
13 29 16 2.5401 1.3302
15 29 16 -0.3074 0.2253
17 29 16 -20.9100 -0.8704
19 29 16 5.5962 -2.0516
-18 30 16 8.2963 1.0107
-16 30 16 2.0569 0.4030
-14 30 16 0.8267 -2.0291
-12 30 16 18.7929 -0.9717
-10 30 16 -12.0139 0.9592
-8 30 16 -0.1295 0.5765
-6 30 16 8.5096 -1.0273
-4 30 16 5.1339 -0.3617
-2 30 16 0.2344 0.9095
0 30 16 8.0036 0.1451
2 30 16 -24.6024 -0.7421
4 30 16 -0.7763 0.6965
6 30 16 -1.1163 1.0010
8 30 16 18.0071 -0.4738
10 30 16 -7.9006 -0.9621
12 30 16 10.8082 0.3178
14 30 16 -1.4387 0.6791
16 30 16 -4.9001 -0.1095
-17 31 16 2.0759 -0.5557
-15 31 16 -7.6503 -1.1435
-13 31 16 7.8600 0.6864
-11 31 16 0.5641 1.2876
-9 31 16 -1.9256 0.2419
-7 31 16 -5.2559 -0.6733
-5 31 16 -8.0458 -0.0336
-3 31 16 1.4870 0.7171
-1 31 16 -10.9578 0.4950
1 31 16 -4.3648 0.0895
3 31 16 -0.5784 0.2619
5 31 16 -11.5901 0.3879
7 31 16 -7.4089 -0.1398
9 31 16 -10.3549 0.0698
11 31 16 1.3361 0.0323
13 31 16 11.5284 0.4212
15 31 16 3.2255 0.1176
-14 32 16 -10.2210 0.3369
-12 32 16 -0.5192 0.3258
-10 32 16 -10.9633 -0.4667
-8 32 16 -6.4652 -0.2997
-6 32 16 -4.8908 0.6622
-4 32 16 4.0223 0.1465
-2 32 16 0.5313 -0.4448
0 32 16 15.3653 -0.0637
2 32 16 -2.9504 0.7340
4 32 16 -3.3434 0.7507
6 32 16 2.6068 -0.2780
8 32 16 15.8650 -0.6457
10 32 16 1.1630 0.8406
12 32 16 -4.2009 0.5810
14 32 16 -1.6761 -0.3497
-13 33 16 5.4214 1.2274
-11 33 16 14.8286 -0.0085
-9 33 16 10.1278 -0.8891
-7 33 16 6.3465 0.1600
-5 33 16 10.9868 1.0859
-3 33 16 -1.8724 -0.6298
-1 33 16 -1.8953 -0.3667
1 33 16 4.0363 0.9304
3 33 16 -2.0085 1.0190
5 33 16 0.3697 -0.4177
7 33 16 4.3458 -0.8102
9 33 16 11.3631 0.8393
11 33 16 -5.0673 -0.1423
-10 34 16 1.9631 -0.0965
-8 34 16 8.4552 0.0091
-6 34 16 0.1499 0.5619
-4 34 16 18.2688 0.2559
-2 34 16 -7.0268 -0.0830
0 34 16 -10.5789 0.1502
2 34 16 8.6606 0.3504
4 34 16 -8.4445 -0.0577
6 34 16 -4.4183 0.5217
8 34 16 -11.3757 1.1534
-5 35 16 -4.9662 0.2638
-3 35 16 0.0850 0.3904
-1 35 16 7.5094 -0.0086
1 35 16 2.9239 -0.1155
3 35 16 -6.1689 -0.1419
-35 1 17 7.4765 -8.5320
-33 1 17 -4.9595 4.8016
-31 1 17 1.0382 9.4341
-29 1 17 5.0969 -4.4751
-27 1 17 5.6925 -9.9409
-25 1 17 -3.3362 3.1383
-23 1 17 -5.5770 1.3593
-21 1 17 3.7421 -12.3991
-19 1 17 3.3619 2.1082
-17 1 17 -11.0658 22.1299
-15 1 17 4.7947 -5.2881
-13 1 17 20.3583 -34.9405
-11 1 17 8.3960 -3.5361
-9 1 17 -12.1338 34.6245
-7 1 17 17.9616 11.3945
-5 1 17 -14.0539 -14.7901
-3 1 17 -22.9795 7.1248
-1 1 17 -28.0422 12.9496
1 1 17 -11.8109 -16.1788
3 1 17 27.9288 -6.9358
5 1 17 10.9088 34.8263
7 1 17 -29.5247 23.0235
9 1 17 -37.0043 -30.2475
11 1 17 46.4929 -30.3837
13 1 17 21.6981 12.2706
15 1 17 12.0158 17.3191
17 1 17 -7.5748 -7.0036
19 1 17 -45.0919 -6.2339
21 1 17 -13.2693 5.7470
23 1 17 -13.4653 -4.3244
25 1 17 3.1372 -13.6526
27 1 17 8.5161 3.2155
29 1 17 -10.6108 13.9653
31 1 17 1.1801 1.2196
33 1 17 7.4154 -9.5075
-34 2 17 5.9576 0.2311
-32 2 17 -0.0970 1.7241
-30 2 17 -12.3843 -2.2171
-28 2 17 4.6606 -5.3310
-26 2 17 14.4345 4.0723
-24 2 17 -0.2714 9.6474
-22 2 17 3.4372 -2.4480
-20 2 17 -20.1116 -10.9169
-18 2 17 2.1340 2.1821
-16 2 17 -0.0186 12.2877
-14 2 17 -17.8342 1.0659
-12 2 17 -0.1218 -4.7588
-10 2 17 -33.4003 7.3818
-8 2 17 8.4108 6.0606
-6 2 17 62.4600 -14.3822
-4 2 17 -39.6865 -13.9466
-2 2 17 28.5401 13.1249
0 2 17 30.6179 15.3272
2 2 17 45.6968 -14.0121
4 2 17 -52.9449 -19.2816
6 2 17 48.5919 4.2250
8 2 17 27.2524 8.4464
10 2 17 -21.1827 -5.5924
12 2 17 -10.9525 0.7913
14 2 17 -24.8264 13.4031
16 2 17 -6.6619 -0.1297
18 2 17 -2.4781 -14.3802
20 2 17 5.6003 -0.6292
22 2 17 16.9813 13.1694
24 2 17 18.4917 4.0447
26 2 17 -5.0061 -7.1355
28 2 17 16.2976 -2.6998
30 2 17 19.3564 1.4234
32 2 17 -8.6541 -0.1932
-35 3 17 13.0414 -2.5259
-33 3 17 15.4835 1.6870
-31 3 17 -1.2442 2.3524
-29 3 17 -2.4820 0.5155
-27 3 17 -8.3379 -1.1019
-25 3 17 12.5477 -0.7672
-23 3 17 -2.2968 1.3615
-21 3 17 -7.9795 2.2676
-19 3 17 16.1836 3.2422
-17 3 17 -1.8661 2.2360
-15 3 17 -29.8640 -2.0705
-13 3 17 10.0512 -6.1490
-11 3 17 16.6172 -3.7602
-9 3 17 0.5882 3.3430
-7 3 17 12.0481 5.3443
-5 3 17 -14.6572 -2.5469
-3 3 17 51.2314 -9.6253
-1 3 17 57.7068 -6.6251
1 3 17 27.4166 0.1847
3 3 17 4.5169 3.4397
5 3 17 26.1542 3.6714
7 3 17 9.3476 0.4020
9 3 17 33.4154 -5.4671
11 3 17 18.7072 -6.8326
13 3 17 3.3512 0.6407
15 3 17 27.0194 8.1118
17 3 17 25.8201 4.8656
19 3 17 -2.9118 -2.3662
21 3 17 20.1810 -3.6381
23 3 17 0.1872 -0.5035
25 3 17 2.3296 1.9694
27 3 17 -2.4457 3.2828
29 3 17 -10.3633 1.8868
31 3 17 5.5669 -0.7965
33 3 17 8.7974 -1.8188
-34 4 17 6.3489 0.1739
-32 4 17 4.8057 -2.0330
-30 4 17 0.9878 0.3082
-28 4 17 8.7269 2.1543
-26 4 17 5.9024 -1.0749
-24 4 17 -14.2059 -3.9216
-22 4 17 11.8239 0.8424
-20 4 17 -1.1770 3.6578
-18 4 17 8.4759 -1.1917
-16 4 17 -20.4649 -2.0082
-14 4 17 -12.7082 5.7057
-12 4 17 7.5200 5.7577
-10 4 17 -39.0402 -4.3767
-8 4 17 2.5244 -6.2579
-6 4 17 14.9754 4.5059
-4 4 17 -72.6261 5.8440
-2 4 17 2.6220 -5.8462
0 4 17 14.7762 -8.0908
2 4 17 67.7433 -0.1435
4 4 17 -7.1988 -1.4235
6 4 17 49.3787 -7.2975
8 4 17 -34.3943 0.2789
10 4 17 -34.1682 8.5560
12 4 17 13.1476 0.8226
14 4 17 -1.5792 -8.3307
16 4 17 53.3463 -1.7074
18 4 17 -6.2298 7.3721
20 4 17 -18.5921 3.6778
22 4 17 -1.3847 -2.0592
24 4 17 8.5358 -0.1579
26 4 17 4.7710 0.3987
28 4 17 -0.2160 -2.5121
30 4 17 0.4715 -1.2302
32 4 17 9.7324 4.0072
-33 5 17 -7.9274 -2.7311
-31 5 17 -3.4134 0.4314
-29 5 17 9.8618 0.3259
-27 5 17 -3.2497 -0.8032
-25 5 17 7.3752 1.4248
-23 5 17 -11.1808 2.9438
-21 5 17 3.7541 -1.1975
-19 5 17 43.2529 -4.8023
-17 5 17 16.2815 -1.3374
-15 5 17 4.5470 3.0491
-13 5 17 26.7740 2.3649
-11 5 17 -1.6267 -0.5335
-9 5 17 -11.4455 -1.3792
-7 5 17 64.4619 -2.7119
-5 5 17 58.6240 -3.3684
-3 5 17 -0.0115 1.7578
-1 5 17 -22.8480 6.5057
1 5 17 -9.6325 1.7742
3 5 17 21.7199 -4.9711
5 5 17 -17.7343 -3.6736
7 5 17 16.8140 0.2279
9 5 17 17.3308 1.3350
11 5 17 -31.0733 2.8605
13 5 17 3.5556 3.0786
15 5 17 14.7442 -1.6197
17 5 17 15.9343 -4.9349
19 5 17 -4.2092 -0.7034
21 5 17 -1.2974 4.0767
23 5 17 15.1435 1.9245
25 5 17 -5.7234 -1.4148
27 5 17 -2.2185 -0.4059
29 5 17 -2.0612 -0.8732
31 5 17 2.1299 -1.2918
33 5 17 0.3926 1.1825
-34 6 17 1.2423 1.3654
-32 6 17 -1.4753 1.8451
-30 6 17 -4.8323 -0.5687
-28 6 17 6.5947 -2.7917
-26 6 17 12.8004 0.1300
-24 6 17 5.3375 4.1329
-22 6 17 9.0191 0.8827
-20 6 17 5.4931 -2.6093
-18 6 17 11.7974 1.9254
-16 6 17 -44.3601 5.5325
-14 6 17 18.2827 -0.4219
-12 6 17 4.2959 -3.8755
-10 6 17 -2.2808 3.1003
-8 6 17 -3.2922 5.6550
-6 6 17 3.3248 -4.3217
-4 6 17 55.5953 -7.3306
-2 6 17 42.5242 1.8786
0 6 17 8.0631 2.0518
2 6 17 -31.7335 -8.7664
4 6 17 -61.3328 -7.0642
6 6 17 8.2003 4.6359
8 6 17 -3.3450 3.3240
10 6 17 0.0592 -6.5055
12 6 17 0.4662 -3.4577
14 6 17 28.5556 5.4922
16 6 17 26.6285 2.1976
18 6 17 -8.3971 -2.8684
20 6 17 -0.4019 1.9280
22 6 17 -8.7265 5.2282
24 6 17 -3.8201 -1.0038
26 6 17 5.2152 -4.1485
28 6 17 2.0354 0.9236
30 6 17 1.4102 3.5149
32 6 17 31.3908 -1.0780
-33 7 17 -5.6552 1.3038
-31 7 17 4.1254 0.9377
-29 7 17 -6.4538 -2.7769
-27 7 17 -15.4368 -0.6257
-25 7 17 6.6885 3.9805
-23 7 17 -9.7494 2.1908
-21 7 17 2.8393 -5.3128
-19 7 17 23.1192 -5.2050
-17 7 17 16.8140 2.1329
-15 7 17 -0.0226 3.8970
-13 7 17 -6.1755 -1.1016
-11 7 17 11.0815 -1.2693
-9 7 17 10.7561 0.7584
-7 7 17 13.2863 -3.5444
-3 7 17 -84.9999 4.0314
-1 7 17 6.6752 10.0385
1 7 17 31.5067 0.0936
3 7 17 9.7564 -9.8041
5 7 17 -2.9725 -3.1802
7 7 17 66.7064 6.7120
9 7 17 9.4074 5.7564
11 7 17 -33.3739 0.8989
13 7 17 0.2500 0.1744
15 7 17 15.3495 -1.0745
17 7 17 -2.1014 -4.0134
19 7 17 18.2234 -0.9652
21 7 17 15.7312 5.8686
23 7 17 22.0182 3.8139
25 7 17 0.6417 -3.6107
27 7 17 -11.9094 -5.1705
29 7 17 -13.2359 0.3165
31 7 17 -1.9200 2.9629
33 7 17 -1.2445 4.1498
-34 8 17 -12.6300 -0.4494
-32 8 17 0.2222 -0.8809
-30 8 17 5.7797 -0.4334
-28 8 17 16.0976 0.4773
-26 8 17 0.6999 1.3454
-24 8 17 -12.1582 0.6450
-22 8 17 -1.9740 0.2308
-20 8 17 23.4626 0.6517
-18 8 17 6.9177 -0.0269
-16 8 17 -45.5964 -1.1750
-14 8 17 40.6868 0.5916
-12 8 17 -15.6867 3.2611
-10 8 17 -5.3298 2.2932
-8 8 17 -42.0196 -1.4544
-6 8 17 -3.9715 -1.8165
-4 8 17 12.2553 1.2245
-2 8 17 -19.7783 1.3121
0 8 17 -16.4266 -1.0406
2 8 17 32.1704 0.0692
4 8 17 -21.1535 0.8216
6 8 17 16.0987 -2.4583
8 8 17 38.2966 -3.5833
10 8 17 -18.4761 -0.5044
12 8 17 -21.5515 2.6457
14 8 17 2.4482 0.9616
16 8 17 15.7513 -1.2299
18 8 17 -7.3461 -0.0843
20 8 17 -22.3589 0.9542
22 8 17 -4.5908 0.0759
24 8 17 -4.0640 -0.1563
26 8 17 -0.0974 1.3340
28 8 17 22.3484 1.2574
30 8 17 7.2739 -0.7503
32 8 17 20.9404 -2.6573
-33 9 17 1.1554 0.1115
-31 9 17 -5.4413 -0.8899
-29 9 17 -16.7493 0.6358
-27 9 17 -10.3510 -2.0480
-25 9 17 0.9820 -0.7022
-23 9 17 -4.3451 1.7560
-21 9 17 -3.4194 0.7758
-19 9 17 0.5871 -2.9522
-17 9 17 12.5783 -1.5700
-15 9 17 -4.0146 1.9691
-13 9 17 6.9679 0.5820
-11 9 17 2.5630 -1.8353
-9 9 17 18.4281 0.0684
-7 9 17 22.2223 0.9908
-5 9 17 33.6033 -2.6428
-3 9 17 18.7042 -2.7285
-1 9 17 -26.3621 0.8604
1 9 17 4.7538 1.2926
3 9 17 -19.6807 -1.1040
5 9 17 42.5835 -0.5607
7 9 17 3.1429 0.9561
9 9 17 -0.8263 0.6905
11 9 17 17.5296 0.4716
13 9 17 -13.8604 1.3447
15 9 17 -2.7504 0.6955
17 9 17 -20.2663 -0.3962
19 9 17 0.9876 0.7413
21 9 17 9.7945 0.2580
23 9 17 3.9081 -1.1161
25 9 17 16.9181 -0.7703
27 9 17 -3.9294 0.9044
29 9 17 -7.8700 -0.2030
31 9 17 -10.5627 -1.3344
-32 10 17 14.1871 1.6740
-30 10 17 4.2185 1.6479
-28 10 17 10.3673 -1.3104
-26 10 17 -0.7619 -0.7398
-24 10 17 -2.4261 1.3574
-22 10 17 -7.8962 -0.8623
-20 10 17 4.6474 -2.5126
-18 10 17 20.1736 1.5810
-16 10 17 7.8938 3.3485
-14 10 17 11.9357 -3.2176
-12 10 17 9.3410 -4.9272
-10 10 17 13.3405 2.7186
-8 10 17 3.2879 4.8845
-6 10 17 14.3172 -1.4242
-4 10 17 10.2432 -1.4854
-2 10 17 18.2804 4.3239
0 10 17 56.8180 2.3443
2 10 17 -10.9527 -3.1772
4 10 17 -40.7648 0.5993
6 10 17 -11.2834 6.1193
8 10 17 38.5084 0.9379
10 10 17 3.2228 -5.4532
12 10 17 -23.9320 -1.2500
14 10 17 -8.8174 3.8338
16 10 17 -0.5462 -0.0677
18 10 17 1.6736 -3.2029
20 10 17 -2.2706 0.3865
22 10 17 13.8882 1.3385
24 10 17 -1.7884 -1.6403
26 10 17 -2.7064 -1.2628
28 10 17 14.9352 1.7206
30 10 17 16.9189 0.9337
32 10 17 4.6084 -0.4857
-33 11 17 -1.3282 1.0893
-31 11 17 3.7773 1.5304
-29 11 17 -22.4508 -1.7497
-27 11 17 2.3008 -1.6184
-25 11 17 -2.5870 3.6499
-23 11 17 -6.0662 0.9210
-21 11 17 -14.4253 -3.2418
-19 11 17 5.6391 0.4275
-17 11 17 13.9824 5.3359
-15 11 17 2.1216 -0.3432
-13 11 17 -16.8688 -6.2233
-11 11 17 -14.6961 0.5542
-9 11 17 3.1099 6.9340
-7 11 17 -16.8265 0.3196
-5 11 17 -14.1021 -5.4428
-3 11 17 4.9095 -0.4966
-1 11 17 -24.2950 2.6840
1 11 17 14.4907 -1.7838
3 11 17 -54.1122 -1.8104
5 11 17 9.5438 4.5304
7 11 17 6.8045 3.1990
9 11 17 0.6418 -5.2485
11 11 17 16.6442 -4.8584
13 11 17 -1.1641 3.8515
15 11 17 32.9409 5.6987
17 11 17 4.1939 -0.3054
19 11 17 -4.1335 -2.7421
21 11 17 -2.8159 -0.3332
23 11 17 0.4980 -0.2621
25 11 17 24.8427 -0.8908
27 11 17 -15.2205 1.4842
29 11 17 -9.2707 2.4905
31 11 17 7.1790 -0.4973
-32 12 17 0.9609 1.1551
-30 12 17 -5.6235 -2.0072
-28 12 17 -6.7466 -1.6032
-26 12 17 8.0911 1.8214
-24 12 17 -4.7255 0.5676
-22 12 17 7.6147 -3.5224
-20 12 17 11.0121 -1.2309
-18 12 17 -8.0393 3.1029
-16 12 17 -34.9787 0.0323
-14 12 17 -4.0805 -5.1515
-12 12 17 7.3381 -1.0899
-10 12 17 -30.5377 4.8850
-8 12 17 16.7623 1.6098
-6 12 17 8.0591 -2.9732
-4 12 17 26.9526 0.7941
-2 12 17 -31.3159 4.1159
0 12 17 31.0110 -0.2585
2 12 17 -26.3196 -2.5473
4 12 17 0.7027 1.7540
6 12 17 1.7018 4.5201
8 12 17 19.7110 0.2401
10 12 17 15.4376 -4.2067
12 12 17 12.3518 -1.3772
14 12 17 -46.1217 2.7807
16 12 17 -14.6443 0.7446
18 12 17 1.3216 -2.0444
20 12 17 -12.7806 -0.4842
22 12 17 11.0677 1.2822
24 12 17 -9.0192 -0.2640
26 12 17 14.8853 -2.1797
28 12 17 17.1296 -0.2423
30 12 17 10.2739 2.1503
-31 13 17 16.1591 -0.4340
-29 13 17 -4.3699 0.3949
-27 13 17 -8.2144 1.1788
-25 13 17 1.4627 -1.6054
-23 13 17 5.7372 -2.1845
-21 13 17 -18.4942 1.5183
-19 13 17 -9.5745 3.7337
-17 13 17 4.4375 1.0805
-15 13 17 4.1195 -1.4664
-13 13 17 -25.9014 -0.5296
-11 13 17 16.8669 -0.0140
-9 13 17 -23.2288 -0.5047
-7 13 17 -8.7916 1.4852
-5 13 17 16.6664 3.0915
-3 13 17 -24.2071 -0.6509
-1 13 17 16.6072 -4.8833
1 13 17 42.6033 -2.1416
3 13 17 -2.6837 2.9101
5 13 17 -14.6233 2.4438
7 13 17 -3.9891 -1.3670
9 13 17 13.0716 -1.3700
11 13 17 -17.3609 -0.3897
13 13 17 5.5914 -1.6142
15 13 17 31.7584 0.0364
17 13 17 -6.6306 2.7483
19 13 17 7.2468 1.5064
21 13 17 -15.1217 -2.2849
23 13 17 -8.0095 -2.3863
25 13 17 19.4197 0.7361
27 13 17 -15.3723 1.6667
29 13 17 4.3824 0.5145
31 13 17 14.2613 -0.7182
-32 14 17 -3.2267 -2.5274
-30 14 17 -23.2262 1.5961
-28 14 17 -6.5803 1.0645
-26 14 17 17.8087 0.2077
-24 14 17 -12.0796 -0.1396
-22 14 17 -9.2474 0.6516
-20 14 17 4.8569 -0.6675
-18 14 17 -17.5047 -1.7213
-16 14 17 -33.2271 -0.0344
-14 14 17 15.0604 1.8377
-12 14 17 -18.1207 0.4038
-10 14 17 -19.8546 -1.5783
-8 14 17 5.3379 -1.4947
-6 14 17 -12.9350 -0.1582
-4 14 17 31.1517 0.2403
-2 14 17 -43.0004 1.2130
0 14 17 24.0521 1.7257
2 14 17 -52.6289 -0.2309
4 14 17 -12.1840 -1.3801
6 14 17 4.9071 -0.4676
8 14 17 25.5517 0.6276
10 14 17 -5.4438 1.2430
12 14 17 31.1068 0.9786
14 14 17 -19.6709 -0.8711
16 14 17 5.1068 -1.1631
18 14 17 10.0818 0.1533
20 14 17 -4.4846 1.1012
22 14 17 37.7743 -0.3385
24 14 17 1.1877 -0.1700
26 14 17 7.4206 0.9417
28 14 17 1.7659 -0.4020
30 14 17 -9.8811 0.5433
-31 15 17 7.1805 1.0883
-29 15 17 -1.9497 -0.4105
-27 15 17 -19.4756 -0.6854
-25 15 17 -0.4308 -0.3364
-23 15 17 2.0064 0.4732
-21 15 17 12.3615 0.6968
-19 15 17 5.2932 0.1113
-17 15 17 1.1569 -0.2445
-15 15 17 4.4865 -0.5902
-13 15 17 -17.7459 -0.1058
-11 15 17 21.9699 0.9417
-9 15 17 -12.3345 0.7040
-7 15 17 -1.7388 -0.2154
-5 15 17 -32.0388 -0.2236
-3 15 17 -25.1468 0.2350
-1 15 17 -17.1578 -0.7897
1 15 17 5.0572 -0.9827
3 15 17 22.0265 0.2300
5 15 17 -11.7566 0.2833
7 15 17 22.8261 -1.3104
9 15 17 14.9658 -0.8833
11 15 17 0.6860 0.5007
13 15 17 15.4697 0.1194
15 15 17 4.9162 -1.3508
17 15 17 -9.2024 -1.1264
19 15 17 6.5473 1.2696
21 15 17 5.0812 0.6651
23 15 17 -5.3757 -0.2762
25 15 17 -12.9351 -0.3459
27 15 17 -6.8555 0.5225
29 15 17 6.5362 -0.5974
-30 16 17 -10.3630 -0.5704
-28 16 17 8.1782 -1.0980
-26 16 17 2.5738 0.8696
-24 16 17 -1.2225 0.8877
-22 16 17 -15.8632 -1.0085
-20 16 17 1.4157 -1.0653
-18 16 17 10.9329 1.3632
-16 16 17 6.5389 1.6208
-14 16 17 9.6950 -1.0872
-12 16 17 -3.4496 -1.7003
-10 16 17 -9.4948 0.7857
-8 16 17 3.8716 1.1251
-6 16 17 -4.5045 -2.0527
-4 16 17 8.7044 -1.7015
-2 16 17 8.2720 2.0221
0 16 17 -18.1335 2.0415
2 16 17 -61.3207 -2.1912
4 16 17 43.6580 -1.3331
6 16 17 1.3258 2.8297
8 16 17 -7.8813 1.0544
10 16 17 11.4897 -2.5226
12 16 17 -0.1214 -0.4535
14 16 17 -15.1389 2.4028
16 16 17 13.6991 0.2262
18 16 17 9.7710 -2.7045
20 16 17 -25.6790 -0.4861
22 16 17 11.3032 1.9592
24 16 17 -16.3018 0.4848
26 16 17 -2.7479 -0.8156
28 16 17 14.2815 -0.3372
30 16 17 -8.9889 3.9107
-31 17 17 3.2380 0.3511
-29 17 17 -17.9465 -1.1964
-27 17 17 -17.2235 1.5366
-25 17 17 9.6693 1.2724
-23 17 17 -3.2839 -0.2386
-21 17 17 2.9880 -0.7111
-19 17 17 -6.7247 0.5750
-17 17 17 0.4113 0.3750
-15 17 17 13.2886 -0.4572
-13 17 17 -18.4430 0.9171
-11 17 17 -9.5447 2.2550
-9 17 17 -9.1879 0.2313
-7 17 17 5.3117 -2.1646
-5 17 17 2.8848 -0.6838
-3 17 17 8.8952 1.2582
-1 17 17 17.2134 0.9329
1 17 17 -4.8121 -0.9960
3 17 17 5.5519 -2.0007
5 17 17 13.6330 -1.4797
7 17 17 16.9184 -0.4843
9 17 17 -3.7808 0.0289
11 17 17 1.3736 0.4239
13 17 17 0.8063 0.3979
15 17 17 -33.2313 -0.0673
17 17 17 -16.3376 -0.9505
19 17 17 1.7282 -0.5925
21 17 17 -9.2053 0.9142
23 17 17 3.0511 1.2312
25 17 17 11.8787 -0.0208
27 17 17 -0.9246 -0.8537
29 17 17 -6.6572 0.6144
-30 18 17 -19.1458 -0.0442
-28 18 17 -2.3889 0.6368
-26 18 17 9.9604 -0.0740
-24 18 17 -3.3171 -0.6524
-22 18 17 -4.6948 -0.0997
-20 18 17 7.4444 0.7533
-18 18 17 3.2477 0.5310
-16 18 17 13.7372 -0.7540
-14 18 17 -15.2916 -1.2642
-12 18 17 -22.8935 -0.4043
-10 18 17 -3.7879 0.3009
-8 18 17 18.9542 0.1572
-6 18 17 -34.0417 -0.3205
-4 18 17 -31.2015 -0.7182
-2 18 17 10.3337 -1.1566
0 18 17 -8.2604 -0.5102
2 18 17 -32.0714 0.8026
4 18 17 7.2968 1.2219
6 18 17 -1.9609 -0.0831
8 18 17 2.4457 -1.5105
10 18 17 33.4251 -0.5785
12 18 17 0.6645 0.6433
14 18 17 -6.1046 0.1860
16 18 17 -0.7994 -0.5942
18 18 17 -13.1510 0.3305
20 18 17 -11.9737 -0.1392
22 18 17 -7.9146 -1.0725
24 18 17 7.6639 0.1294
26 18 17 0.8613 3.2846
28 18 17 9.6097 -0.1541
-29 19 17 -11.4818 0.9375
-27 19 17 -6.1288 0.6994
-25 19 17 2.0319 -1.2085
-23 19 17 -17.4667 -0.1263
-21 19 17 2.8632 0.7338
-19 19 17 -7.2615 -0.1226
-17 19 17 -3.6754 -0.8299
-15 19 17 1.2378 0.6503
-13 19 17 -5.5850 1.7840
-11 19 17 8.3124 0.3669
-9 19 17 -8.8222 -1.3283
-7 19 17 1.4946 -0.2591
-5 19 17 -4.9134 1.6216
-3 19 17 -16.1111 1.0196
-1 19 17 13.2040 -1.0143
1 19 17 -18.0895 -0.7153
3 19 17 -16.1232 0.5789
5 19 17 22.3438 0.2110
7 19 17 4.3296 -1.0948
9 19 17 -14.8471 -0.5943
11 19 17 3.6688 1.2700
13 19 17 13.8152 0.3283
15 19 17 -9.1803 -1.5726
17 19 17 8.1256 -0.6893
19 19 17 6.8909 1.5759
21 19 17 -29.5209 0.6600
23 19 17 -23.2594 -0.6266
25 19 17 14.1744 0.9016
27 19 17 -2.1231 0.9977
-28 20 17 -9.6837 1.4179
-26 20 17 -7.3893 -0.0443
-24 20 17 -6.9670 1.0121
-22 20 17 -9.9188 0.0639
-20 20 17 0.1289 -0.6063
-18 20 17 -15.2479 0.5440
-16 20 17 7.6718 0.4906
-14 20 17 7.8181 -1.3114
-12 20 17 5.2016 -1.1542
-10 20 17 10.6984 1.1312
-8 20 17 -12.2918 1.2369
-6 20 17 -31.3731 -0.9205
-4 20 17 -10.0183 -0.7875
-2 20 17 -0.1031 0.5275
0 20 17 3.9610 -0.6407
2 20 17 -0.8147 -0.9271
4 20 17 27.7308 1.0247
6 20 17 3.5685 1.5759
8 20 17 11.9237 -0.7886
10 20 17 -4.5459 -1.2538
12 20 17 -2.7337 0.2342
14 20 17 -0.6516 0.7435
16 20 17 -15.1487 -0.5332
18 20 17 -15.4715 -0.0037
20 20 17 -3.2580 0.2333
22 20 17 -5.9433 0.1554
24 20 17 26.9074 -0.6291
26 20 17 -5.8872 0.7080
-27 21 17 17.1327 0.1876
-25 21 17 1.5789 0.6219
-23 21 17 -4.5646 -0.3385
-21 21 17 9.9924 -0.7344
-19 21 17 -1.1887 0.1404
-17 21 17 6.7694 0.9151
-15 21 17 11.4931 -0.1888
-13 21 17 -29.8479 -1.0044
-11 21 17 -8.7993 0.2615
-9 21 17 -0.8174 0.9612
-7 21 17 4.8998 0.2384
-5 21 17 -0.6617 0.0881
-3 21 17 6.4298 0.9531
-1 21 17 -6.3051 0.9396
1 21 17 9.3877 -0.2151
3 21 17 -16.1878 -1.0461
5 21 17 8.5632 0.3297
7 21 17 2.3314 1.0590
9 21 17 -1.0307 -0.4259
11 21 17 18.3595 -1.5159
13 21 17 6.4503 -0.2928
15 21 17 5.9553 0.7222
17 21 17 -17.9249 -0.1088
19 21 17 -11.5788 -0.7370
21 21 17 -8.5020 -0.0120
23 21 17 -31.2005 1.2300
25 21 17 5.1952 0.5949
-26 22 17 2.2441 1.6080
-24 22 17 17.3133 0.0337
-22 22 17 3.0033 -2.0099
-20 22 17 0.0117 0.5613
-18 22 17 8.8432 1.4086
-16 22 17 9.3501 -0.3786
-14 22 17 -5.5807 -0.7394
-12 22 17 28.6972 1.0091
-10 22 17 5.3664 0.8360
-8 22 17 20.7973 -1.3446
-6 22 17 -3.1807 -0.9123
-4 22 17 -42.0022 0.7484
-2 22 17 -12.1804 0.8820
0 22 17 -18.6781 -0.5070
2 22 17 -18.1325 -0.7988
4 22 17 12.6229 -0.4010
6 22 17 7.6913 0.5281
8 22 17 17.4734 1.0025
10 22 17 -13.4664 0.6397
12 22 17 31.3501 -0.0729
14 22 17 13.9020 -0.6423
16 22 17 -24.2175 -0.3694
18 22 17 -8.3987 0.7314
20 22 17 0.4890 0.1969
22 22 17 -2.4861 0.3315
24 22 17 4.0125 0.2876
26 22 17 -5.3723 -0.3932
-25 23 17 -11.5292 -0.5997
-23 23 17 8.5483 -0.7793
-21 23 17 -3.2420 1.4944
-19 23 17 4.1268 0.7010
-17 23 17 -11.0940 -2.0024
-15 23 17 -6.0936 -0.6049
-13 23 17 -1.8113 1.6860
-11 23 17 -2.5366 -0.0839
-9 23 17 13.3298 -1.5710
-7 23 17 7.8716 0.5472
-5 23 17 15.0879 2.3845
-3 23 17 19.3518 0.0848
-1 23 17 -3.9615 -1.0925
1 23 17 -5.1857 1.5425
3 23 17 4.4916 1.8368
5 23 17 11.3268 -0.8570
7 23 17 2.1138 -1.0153
9 23 17 -18.3894 1.2064
11 23 17 0.8877 0.7217
13 23 17 -3.4950 -1.0190
15 23 17 11.7538 -0.9959
17 23 17 2.5276 0.8004
19 23 17 -24.8519 0.5626
21 23 17 23.2840 -0.7122
23 23 17 -19.6132 0.1611
25 23 17 6.2290 0.2292
-26 24 17 -2.2640 -1.3124
-24 24 17 -7.3192 -0.7476
-22 24 17 -0.1981 1.3869
-20 24 17 0.8011 0.9712
-18 24 17 10.7858 -1.8893
-16 24 17 12.6134 -1.0016
-14 24 17 8.3569 2.1228
-12 24 17 3.9238 1.4215
-10 24 17 -16.7755 -1.4402
-8 24 17 1.3227 -1.4104
-6 24 17 -3.9203 1.1097
-4 24 17 -10.0387 1.2223
-2 24 17 21.9460 -0.8692
0 24 17 14.2357 -0.7739
2 24 17 -20.0054 0.6370
4 24 17 2.1175 -0.2652
6 24 17 19.1371 -1.6314
8 24 17 8.1495 0.0395
10 24 17 -16.2365 1.7172
12 24 17 9.5285 0.6121
14 24 17 -7.8912 -1.6391
16 24 17 -14.3748 -1.1912
18 24 17 -4.6293 0.9028
20 24 17 1.7526 1.3812
22 24 17 -2.7984 -0.4223
24 24 17 11.1051 -2.2080
-25 25 17 -6.1807 -0.2811
-23 25 17 1.0684 1.0068
-21 25 17 -7.3769 0.4048
-19 25 17 15.2391 -1.1202
-17 25 17 6.5096 -0.2442
-15 25 17 -20.3402 0.6270
-13 25 17 3.6817 0.3071
-11 25 17 -20.2791 -0.5348
-9 25 17 13.9944 0.0430
-7 25 17 -20.4124 1.1072
-5 25 17 -10.4353 0.1264
-3 25 17 7.0752 -0.9392
-1 25 17 -3.1479 0.2613
1 25 17 -0.0363 1.5148
3 25 17 2.9068 0.4926
5 25 17 -13.9935 -1.1403
7 25 17 -17.3257 -0.4151
9 25 17 -7.1320 0.5933
11 25 17 14.7802 0.2324
13 25 17 2.0349 -0.6885
15 25 17 -1.0868 -0.0080
17 25 17 5.2636 0.2698
19 25 17 -15.6318 -0.5489
21 25 17 3.3944 -1.1322
23 25 17 -30.6099 0.8844
-24 26 17 -6.6830 0.9761
-22 26 17 -3.1378 0.2046
-20 26 17 -4.8417 0.2626
-18 26 17 -1.6994 0.2856
-16 26 17 6.0977 0.4182
-14 26 17 17.9471 -0.1772
-12 26 17 -14.4060 -0.3350
-10 26 17 -1.0790 0.4743
-8 26 17 8.6270 0.0423
-6 26 17 2.0866 -0.9682
-4 26 17 -11.4324 -0.7134
-2 26 17 -7.6191 0.1378
0 26 17 3.2618 0.1412
2 26 17 -25.4929 -0.5134
4 26 17 -9.8653 -0.2709
6 26 17 14.0738 0.4588
8 26 17 -16.4851 -0.1252
10 26 17 -27.6799 -0.2269
12 26 17 24.4064 0.1687
14 26 17 9.8548 0.6521
16 26 17 -2.9758 -0.1470
18 26 17 4.2374 0.0760
20 26 17 -12.1711 0.2325
22 26 17 -13.6305 1.7990
-21 27 17 -6.2077 0.3936
-19 27 17 -1.2193 1.0098
-17 27 17 -11.7624 0.5366
-15 27 17 6.5843 -1.0460
-13 27 17 17.4297 -0.4789
-11 27 17 -15.6185 0.2206
-9 27 17 11.5383 0.5004
-7 27 17 -18.0253 -0.2880
-5 27 17 -0.4039 -0.1365
-3 27 17 31.5050 0.2536
-1 27 17 -21.8842 0.1225
1 27 17 -5.6124 0.0024
3 27 17 -1.1866 0.3015
5 27 17 -7.4168 0.4136
7 27 17 -6.2443 0.4590
9 27 17 -0.2248 -0.4813
11 27 17 -5.6791 -0.4083
13 27 17 0.5936 0.1020
15 27 17 -4.6863 0.9403
17 27 17 -6.8792 0.3504
19 27 17 11.2286 -0.7560
21 27 17 13.4929 -0.8435
-20 28 17 -2.4040 1.9796
-18 28 17 1.3786 -0.7844
-16 28 17 12.5809 -0.0218
-14 28 17 1.9202 0.8316
-12 28 17 5.1917 0.0457
-10 28 17 8.4882 -0.9284
-8 28 17 3.4851 0.0758
-6 28 17 6.3286 0.5682
-4 28 17 -12.1484 -0.2229
-2 28 17 1.1315 -0.9400
0 28 17 9.6549 -0.7554
2 28 17 -7.2850 -0.2587
4 28 17 8.8920 0.2449
6 28 17 16.9503 -0.1199
8 28 17 -5.2340 -1.2556
10 28 17 -12.3379 -0.5145
12 28 17 7.7430 0.8471
14 28 17 16.4665 0.4168
16 28 17 -3.2640 -0.7080
18 28 17 -4.1618 1.2117
20 28 17 -3.8656 -0.0258
-19 29 17 6.6307 0.0260
-17 29 17 7.7932 0.1316
-15 29 17 -12.4595 0.8099
-13 29 17 6.2271 0.2287
-11 29 17 -3.0965 -0.3712
-9 29 17 -0.3860 -0.5364
-7 29 17 -6.3554 0.4270
-5 29 17 4.6151 0.6810
-3 29 17 14.8596 -0.4995
-1 29 17 -15.6228 -1.3088
1 29 17 25.6405 -0.0395
3 29 17 -5.8540 0.6160
5 29 17 -14.4616 0.2317
7 29 17 5.6127 -0.3504
9 29 17 -2.0607 0.1344
11 29 17 -0.3850 -0.0453
13 29 17 18.2703 -0.2556
15 29 17 -6.3362 -0.0836
17 29 17 -5.3672 1.2089
-18 30 17 -0.0476 0.3152
-16 30 17 1.5292 1.1891
-14 30 17 -1.4551 0.2355
-12 30 17 5.1405 -0.8781
-10 30 17 1.9221 -0.8054
-8 30 17 -7.1238 0.4870
-6 30 17 8.1071 0.2737
-4 30 17 -6.7495 -0.6047
-2 30 17 4.6570 -0.3739
0 30 17 -5.1746 -0.0230
2 30 17 5.4074 -0.3752
4 30 17 7.4042 -0.2995
6 30 17 -5.5255 0.2946
8 30 17 -11.8490 0.3487
10 30 17 -14.9512 -0.5040
12 30 17 -1.5162 0.0104
14 30 17 6.5301 0.1773
16 30 17 5.4229 -0.2086
-17 31 17 -3.0409 1.4978
-15 31 17 -14.1307 -0.0911
-13 31 17 -8.9495 -0.3501
-11 31 17 -4.4754 0.8051
-9 31 17 -4.2145 0.0843
-7 31 17 -12.5943 -0.7490
-5 31 17 14.5661 -0.3818
-3 31 17 -8.0108 0.7524
-1 31 17 -29.6979 0.8374
1 31 17 6.0886 -0.1362
3 31 17 5.9773 -0.6012
5 31 17 -9.3599 -0.3879
7 31 17 0.5460 0.3361
9 31 17 4.7662 0.6693
11 31 17 -5.1616 -0.1213
13 31 17 11.0775 -0.0843
15 31 17 0.9600 0.4808
-14 32 17 -2.8562 -0.6691
-12 32 17 -5.2030 -0.0261
-10 32 17 5.9123 0.2635
-8 32 17 1.7250 -0.5566
-6 32 17 -6.1625 -0.0020
-4 32 17 12.4072 -0.0882
-2 32 17 23.4646 -0.2187
0 32 17 1.3493 -0.3575
2 32 17 6.7843 -0.1306
4 32 17 2.3725 -0.2363
6 32 17 29.4564 -0.7955
8 32 17 -1.0647 0.5572
10 32 17 -10.1418 -0.5709
12 32 17 -5.5620 -0.3775
-11 33 17 -3.1319 -0.1054
-9 33 17 0.1115 -1.1081
-7 33 17 1.0511 0.3105
-5 33 17 1.0572 0.9432
-3 33 17 0.4397 0.7494
-1 33 17 -1.0003 -0.6580
1 33 17 7.9683 0.8369
3 33 17 1.3189 0.7818
5 33 17 -16.3925 -0.5927
7 33 17 -16.5153 -0.7702
9 33 17 -4.7066 0.6802
11 33 17 -3.4620 1.5139
-8 34 17 0.6462 -0.7198
-6 34 17 -12.8287 1.0752
-4 34 17 0.7049 0.3913
-2 34 17 6.7852 -1.5283
0 34 17 0.4535 -0.7027
2 34 17 0.6634 1.3623
4 34 17 1.5124 0.7932
6 34 17 9.7122 -2.1217
-3 35 17 -0.7404 0.5591
-1 35 17 -5.3902 0.0867
1 35 17 -4.0769 0.7218
-34 0 18 20.2559 -0.5879
-32 0 18 -7.6733 -6.1300
-30 0 18 -4.5611 -0.4206
-28 0 18 -1.8457 8.1997
-26 0 18 6.4552 -0.0337
-24 0 18 11.7124 -13.6106
-22 0 18 2.0985 -9.1007
-20 0 18 -40.3757 2.0561
-18 0 18 -1.8559 -0.0251
-16 0 18 7.8724 -4.0211
-14 0 18 -7.6110 1.9176
-12 0 18 34.3032 4.7979
-10 0 18 40.2425 -2.1866
-8 0 18 17.2947 3.0890
-6 0 18 33.6473 28.7405
-4 0 18 -63.6763 37.5521
-2 0 18 -64.0899 14.7955
0 0 18 33.7030 -5.0373
2 0 18 79.7761 2.5363
4 0 18 -111.4600 13.3169
6 0 18 31.0495 2.0998
8 0 18 55.5612 -7.1490
10 0 18 -13.6594 -4.1976
12 0 18 32.7876 -14.5681
14 0 18 -14.0863 -26.0511
16 0 18 9.2163 -10.0335
18 0 18 -13.8607 11.4282
20 0 18 -22.9519 4.9810
22 0 18 8.5061 -10.8055
24 0 18 -24.7668 -5.7305
26 0 18 -17.0180 4.2813
28 0 18 11.1619 1.4086
30 0 18 6.7018 -0.4145
32 0 18 3.8899 4.6537
-35 1 18 -0.0186 3.0822
-33 1 18 8.4015 -5.0694
-31 1 18 -11.2434 -5.9975
-29 1 18 -0.8197 5.3816
-27 1 18 6.9324 5.5460
-25 1 18 20.5087 -10.2780
-23 1 18 -23.7579 -5.8460
-21 1 18 12.7167 17.1794
-19 1 18 -13.6552 7.7096
-17 1 18 2.3532 -21.9330
-15 1 18 -15.8205 -6.3568
-13 1 18 25.1006 30.7916
-11 1 18 -36.5060 13.0924
-9 1 18 -29.0995 -24.8947
-7 1 18 7.3428 -2.7113
-5 1 18 21.4190 28.9725
-3 1 18 13.3307 -2.9445
-1 1 18 38.8926 -26.5947
1 1 18 -29.1295 14.2990
3 1 18 -3.6969 30.6177
5 1 18 55.3365 -18.9693
7 1 18 -3.7867 -35.2220
9 1 18 11.9136 12.5379
11 1 18 -31.8903 27.2113
13 1 18 8.3003 -10.5895
15 1 18 -25.8230 -19.5121
17 1 18 -1.0234 6.8360
19 1 18 -1.1406 7.0953
21 1 18 10.5449 -11.8232
23 1 18 5.3123 -3.9652
25 1 18 19.7361 13.2315
27 1 18 6.0486 3.8901
29 1 18 -8.3533 -11.7231
31 1 18 -17.2309 -6.1393
33 1 18 5.3469 5.4120
-34 2 18 11.9097 1.1219
-32 2 18 2.2125 0.4682
-30 2 18 -11.2189 1.1171
-28 2 18 -4.1020 0.6088
-26 2 18 -4.9428 -0.2818
-24 2 18 -0.0967 -0.1233
-22 2 18 -2.4923 -0.5710
-20 2 18 -28.7283 -0.9473
-18 2 18 4.5689 -1.0630
-16 2 18 -4.8884 -0.6633
-14 2 18 -2.3681 -1.9593
-12 2 18 55.1728 -2.0552
-10 2 18 -2.0912 0.2289
-8 2 18 -3.1211 2.4039
-6 2 18 13.2657 2.6884
-4 2 18 -24.8675 1.8020
-2 2 18 -47.6553 1.8359
0 2 18 33.3617 2.0491
2 2 18 37.4925 1.6257
4 2 18 -24.4461 2.1023
6 2 18 57.7989 1.5334
8 2 18 -28.9900 -1.4037
10 2 18 -36.3467 -3.7227
12 2 18 -9.5697 -3.0305
14 2 18 10.8770 -0.4393
16 2 18 32.6371 1.0111
18 2 18 -4.8070 0.1379
20 2 18 0.2770 -1.3198
22 2 18 5.0317 -2.0374
24 2 18 -4.2952 -0.1585
26 2 18 7.2226 1.2032
28 2 18 7.9580 1.1776
30 2 18 1.6214 0.9599
32 2 18 1.3893 0.0969
-33 3 18 5.3505 3.0700
-31 3 18 -10.9618 -1.2399
-29 3 18 20.0661 -1.3423
-27 3 18 -2.8148 -0.5277
-25 3 18 17.8641 -0.0798
-23 3 18 -12.9505 -0.8445
-21 3 18 15.3204 1.0733
-19 3 18 18.2992 0.4862
-17 3 18 3.9095 -3.2545
-15 3 18 -14.6983 -2.2773
-13 3 18 -22.2778 3.9498
-11 3 18 -63.7439 4.4585
-9 3 18 5.7495 -2.0486
-7 3 18 17.5023 -2.4231
-5 3 18 13.4360 2.3383
-3 3 18 11.8867 2.2706
-1 3 18 33.5085 2.2383
1 3 18 65.4677 4.4816
3 3 18 1.6693 0.2564
5 3 18 -25.0397 -6.9906
7 3 18 -10.1571 -5.3981
9 3 18 15.6266 3.4495
11 3 18 -19.8022 5.2992
13 3 18 39.7564 -1.5268
15 3 18 -9.1678 -5.3580
17 3 18 15.2890 -4.0246
19 3 18 22.4108 -0.9552
21 3 18 13.9380 2.3388
23 3 18 11.8340 4.9881
25 3 18 -11.2061 1.6745
27 3 18 -6.0068 -3.6878
29 3 18 -0.6417 -4.3892
31 3 18 -13.0197 0.9462
33 3 18 0.1519 1.9625
-34 4 18 -7.7543 -1.3065
-32 4 18 -0.9916 -1.6979
-30 4 18 -0.8469 -2.4766
-28 4 18 -10.7817 0.7685
-26 4 18 -1.1053 1.3844
-24 4 18 1.3500 -2.2164
-22 4 18 -17.3843 -0.0692
-20 4 18 -3.7946 3.7245
-18 4 18 13.3885 -1.7830
-16 4 18 2.1175 -7.2900
-14 4 18 16.1543 0.4308
-12 4 18 21.5481 9.4657
-10 4 18 19.8403 3.2213
-8 4 18 4.8973 -4.7582
-6 4 18 -29.9881 0.1650
-4 4 18 10.1744 3.4934
-2 4 18 -64.4134 -1.3177
0 4 18 28.1064 1.9135
2 4 18 -68.2939 8.4619
4 4 18 -66.8496 1.2513
6 4 18 10.7037 -9.1649
8 4 18 39.2376 -4.9452
10 4 18 28.6583 5.0833
12 4 18 -17.6870 4.1058
14 4 18 -1.5335 -1.7099
16 4 18 -0.4188 -1.5861
18 4 18 -17.4340 -1.6335
20 4 18 10.0585 -3.1989
22 4 18 -21.5267 -0.7258
24 4 18 9.6671 4.4186
26 4 18 19.9202 1.9407
28 4 18 -10.4944 -3.0109
30 4 18 -12.1885 -3.0831
32 4 18 2.9493 -0.2277
-33 5 18 8.1685 -2.4629
-31 5 18 -9.8269 -2.4695
-29 5 18 11.0519 4.4497
-27 5 18 -0.2424 2.7494
-25 5 18 1.0320 -5.9489
-23 5 18 -8.2545 -1.6181
-21 5 18 -4.5609 10.7389
-19 5 18 -10.2539 2.7519
-17 5 18 6.3935 -12.7222
-15 5 18 3.7132 -2.8464
-13 5 18 -1.6967 13.0090
-11 5 18 -49.3187 0.9937
-9 5 18 -37.8842 -13.9243
-7 5 18 27.5844 1.6031
-5 5 18 3.7597 13.9026
-1 5 18 20.7045 -16.0866
1 5 18 7.6391 6.9675
3 5 18 -17.1053 14.5285
5 5 18 -6.9388 -8.7430
7 5 18 22.0310 -14.5593
9 5 18 3.4544 6.4998
11 5 18 -47.6823 9.6663
13 5 18 9.9032 -7.5640
15 5 18 20.2138 -6.6312
17 5 18 -1.8018 8.1890
19 5 18 18.0306 5.3880
21 5 18 2.2263 -6.4435
23 5 18 0.6569 -2.4438
25 5 18 -19.4423 6.1286
27 5 18 6.5858 2.3305
29 5 18 12.1463 -3.3594
31 5 18 -1.0635 -0.4379
33 5 18 6.7781 -1.4088
-34 6 18 -10.6196 -0.8286
-32 6 18 -0.4402 -0.1668
-30 6 18 1.7251 1.7923
-28 6 18 -16.3860 0.4427
-26 6 18 -11.4395 -2.7655
-24 6 18 19.2510 -1.1813
-22 6 18 -22.7527 2.8112
-20 6 18 6.9958 0.7761
-18 6 18 -10.6221 -2.8962
-16 6 18 -16.0975 -1.4693
-14 6 18 -0.8270 2.4312
-12 6 18 9.2878 1.0865
-10 6 18 29.3631 -2.4962
-8 6 18 -7.4014 -2.5704
-6 6 18 -6.0127 -0.4478
-4 6 18 2.1877 -0.6463
-2 6 18 -38.3075 -1.4530
0 6 18 -15.8434 0.3254
2 6 18 12.2921 0.6067
4 6 18 26.1880 -1.2209
6 6 18 38.5620 -2.2574
8 6 18 6.4986 -0.0595
10 6 18 -5.4886 4.2822
12 6 18 8.6865 4.3775
14 6 18 -9.5843 -1.1183
16 6 18 1.2987 -4.0135
18 6 18 -30.8380 -0.2592
20 6 18 9.4424 3.3093
22 6 18 0.7565 1.5766
24 6 18 10.9212 -0.5352
26 6 18 22.7322 -0.6113
28 6 18 2.0047 -1.3591
30 6 18 10.3813 -1.7015
32 6 18 5.4578 0.9820
-33 7 18 5.3906 -1.2789
-31 7 18 0.3322 1.8790
-29 7 18 7.9006 -0.1473
-27 7 18 8.8059 -0.7276
-25 7 18 2.9419 1.2634
-23 7 18 -13.5963 2.9096
-21 7 18 13.5266 -1.4478
-19 7 18 -2.6957 -3.1024
-17 7 18 15.9927 1.5915
-15 7 18 6.4925 2.3604
-13 7 18 -6.3942 -2.9456
-11 7 18 -13.6000 -2.9885
-9 7 18 2.5600 3.8602
-7 7 18 -17.0047 3.2189
-5 7 18 5.8531 -3.5334
-3 7 18 -35.9262 -1.6668
-1 7 18 29.5723 4.0076
1 7 18 10.1830 0.4034
3 7 18 3.3697 -3.2566
5 7 18 -4.0893 1.9266
7 7 18 27.4558 3.9771
9 7 18 56.2210 -3.1780
11 7 18 -3.9846 -6.0327
13 7 18 -9.7527 1.0468
15 7 18 -24.5162 4.4422
17 7 18 -2.5631 -0.0627
19 7 18 10.0110 -1.9439
21 7 18 -7.2952 0.1598
23 7 18 -3.7111 -0.3693
25 7 18 0.0476 -1.7853
27 7 18 -8.8682 1.1450
29 7 18 5.5106 3.2192
31 7 18 -3.7499 -0.2184
-34 8 18 4.5107 0.1979
-32 8 18 8.1790 1.2016
-30 8 18 -4.1884 -0.5479
-28 8 18 -0.4235 -2.1153
-26 8 18 -10.8561 0.2481
-24 8 18 6.6494 2.0106
-22 8 18 -3.2175 -0.6188
-20 8 18 -1.0953 -0.7625
-18 8 18 -31.9643 3.8136
-16 8 18 11.8188 3.5540
-14 8 18 3.9617 -3.4279
-12 8 18 0.1564 -5.4377
-10 8 18 7.6142 0.4321
-8 8 18 15.0821 2.4639
-6 8 18 20.7281 -2.3089
-4 8 18 -22.6001 -4.4199
-2 8 18 46.1711 -1.2337
0 8 18 16.5569 -1.5533
2 8 18 23.3442 -5.4063
4 8 18 9.9993 -1.4928
6 8 18 32.5274 6.5615
8 8 18 -15.0684 5.0608
10 8 18 29.5860 -3.8541
12 8 18 -6.2326 -4.3237
14 8 18 1.9528 3.6442
16 8 18 37.3551 4.6136
18 8 18 -11.5609 -0.3648
20 8 18 -0.3675 0.0066
22 8 18 22.2935 2.3092
24 8 18 -4.8168 -0.4639
26 8 18 3.5480 -3.3168
28 8 18 -3.1663 0.1392
30 8 18 14.8213 3.6178
32 8 18 -9.4805 2.7813
-33 9 18 9.2701 -0.9832
-31 9 18 3.6866 -1.2593
-29 9 18 -0.5305 0.6378
-27 9 18 10.4155 1.8691
-25 9 18 -5.1644 -1.0916
-23 9 18 -9.3473 -3.0042
-21 9 18 -0.6228 -1.3881
-19 9 18 -1.6237 0.4942
-17 9 18 30.5172 0.4478
-15 9 18 6.1992 1.2779
-13 9 18 -17.6017 1.3330
-11 9 18 -5.0126 -2.1971
-9 9 18 11.9078 -4.0036
-7 9 18 -2.9957 1.6229
-5 9 18 25.2389 6.8142
-3 9 18 9.2720 2.7714
-1 9 18 -10.4741 -3.4481
1 9 18 -21.4641 -2.4300
3 9 18 -11.2332 0.9108
5 9 18 -29.2125 0.5943
7 9 18 -7.3276 0.6325
9 9 18 -1.1517 2.5566
11 9 18 7.4194 0.4061
13 9 18 -8.3287 -4.2945
15 9 18 -14.7621 -2.9776
17 9 18 5.0199 2.9809
19 9 18 1.3167 3.3865
21 9 18 2.5703 -0.8728
23 9 18 -6.4557 -1.7860
25 9 18 14.7300 -0.2139
27 9 18 -0.1571 0.1236
29 9 18 13.8075 -0.0365
31 9 18 -0.5430 0.6699
-32 10 18 0.3360 -0.0776
-30 10 18 4.3404 1.4005
-28 10 18 2.4539 1.5698
-26 10 18 8.1432 -0.5776
-24 10 18 -3.4889 -0.0325
-22 10 18 5.8621 2.2163
-20 10 18 -4.3020 0.7658
-18 10 18 -11.3845 -1.2937
-16 10 18 -5.4955 0.1820
-14 10 18 -13.5463 2.8608
-12 10 18 -4.9512 -0.2233
-10 10 18 -9.7355 -3.0415
-8 10 18 -18.0895 -0.1814
-6 10 18 -20.3597 1.9589
-4 10 18 10.3056 -0.4944
-2 10 18 -7.6555 -3.1357
0 10 18 12.8231 -2.5195
2 10 18 -14.2585 0.6361
4 10 18 -2.8224 1.2294
6 10 18 19.7942 -0.4307
8 10 18 -33.8043 -0.6273
10 10 18 27.4128 -0.3181
12 10 18 2.0670 -0.4702
14 10 18 0.5839 -0.3565
16 10 18 5.7400 1.5051
18 10 18 5.4552 2.9492
20 10 18 -24.8158 0.2383
22 10 18 6.0033 -2.8348
24 10 18 5.3904 -1.8636
26 10 18 0.3326 1.4172
28 10 18 -4.6737 2.1873
30 10 18 8.8611 0.1325
-33 11 18 8.6436 -1.7477
-31 11 18 4.8856 0.7886
-29 11 18 -18.5922 1.1922
-27 11 18 -3.7639 -1.2250
-25 11 18 -5.6805 -1.3161
-23 11 18 -7.1000 -0.0125
-21 11 18 3.1258 -0.2770
-19 11 18 -9.6076 -0.7387
-17 11 18 5.9131 0.8197
-15 11 18 -1.3598 1.0177
-13 11 18 -21.6198 -0.8292
-11 11 18 -1.7372 -1.7896
-9 11 18 -2.5510 -0.4643
-7 11 18 9.4118 0.7489
-5 11 18 38.7395 1.4328
-3 11 18 -4.7322 1.0932
-1 11 18 -3.6828 -0.7206
1 11 18 -11.4415 -1.4967
3 11 18 39.8692 -0.2960
5 11 18 -49.0023 1.7261
7 11 18 12.2488 1.8689
9 11 18 27.7089 0.7383
11 11 18 -5.5109 0.1065
13 11 18 6.1832 -0.5693
15 11 18 -0.5036 -1.4086
17 11 18 8.9881 -0.1203
19 11 18 4.9079 1.8453
21 11 18 13.7033 1.2936
23 11 18 -2.9598 -1.0451
25 11 18 10.5151 -1.6350
27 11 18 3.5271 -0.0820
29 11 18 -2.5415 0.5925
31 11 18 -7.8791 0.7770
-32 12 18 -0.6547 1.7164
-30 12 18 -5.5185 -0.2566
-28 12 18 10.2519 -1.0329
-26 12 18 8.1941 -0.0480
-24 12 18 1.3065 1.6556
-22 12 18 16.9868 -0.5012
-20 12 18 -11.3678 -2.4944
-18 12 18 2.4684 0.0893
-16 12 18 4.3292 3.0544
-14 12 18 -11.1903 1.3022
-12 12 18 4.9977 -1.2788
-10 12 18 9.8061 0.4974
-8 12 18 -7.7882 1.9929
-6 12 18 -33.8686 -0.3040
-4 12 18 13.0796 -1.1750
-2 12 18 -29.9068 1.7843
0 12 18 22.5916 1.7434
2 12 18 3.1122 -1.7890
4 12 18 0.1609 -2.7316
6 12 18 7.1630 0.1005
8 12 18 -10.0419 1.1786
10 12 18 0.9097 -1.3316
12 12 18 4.1579 -1.1932
14 12 18 25.7437 1.5026
16 12 18 2.0383 0.7221
18 12 18 1.9963 -2.0576
20 12 18 -4.7546 -1.2208
22 12 18 8.7894 1.7583
24 12 18 -1.6092 1.0415
26 12 18 -9.6750 -0.8472
28 12 18 3.3201 -0.1438
30 12 18 3.7508 -0.1057
-31 13 18 -3.3857 -1.0357
-29 13 18 -1.5807 -0.5886
-27 13 18 -5.5083 -0.0587
-25 13 18 0.2904 1.0810
-23 13 18 -11.3429 0.4942
-21 13 18 2.8445 0.0133
-19 13 18 -4.5930 -0.4781
-17 13 18 3.2295 -0.7078
-15 13 18 2.9698 -0.6649
-13 13 18 -7.5621 -0.1243
-11 13 18 14.2685 0.7396
-9 13 18 10.6071 1.1977
-7 13 18 -7.1762 -0.5836
-5 13 18 17.6689 -2.6649
-3 13 18 13.8211 -0.7139
-1 13 18 -22.9991 2.4739
1 13 18 -49.6760 2.6135
3 13 18 27.0664 0.3323
5 13 18 -1.0398 -0.8314
7 13 18 12.5461 0.1571
9 13 18 -8.3698 0.4349
11 13 18 -23.5962 0.1608
13 13 18 13.5547 0.6228
15 13 18 -4.9781 1.4510
17 13 18 19.5492 -0.3133
19 13 18 -14.0631 -2.4908
21 13 18 -5.1651 -1.0468
23 13 18 -3.4487 1.8211
25 13 18 4.4386 0.7693
27 13 18 6.4020 -2.3053
29 13 18 -2.4654 -1.2391
-32 14 18 13.8564 -1.3335
-30 14 18 0.0279 0.2988
-28 14 18 8.9367 -0.8737
-26 14 18 -3.3254 -1.4071
-24 14 18 0.7435 0.1249
-22 14 18 2.3849 0.5445
-20 14 18 1.9638 -0.0396
-18 14 18 1.7292 -1.0959
-16 14 18 28.7220 -0.5084
-14 14 18 0.2797 0.3143
-12 14 18 -10.4990 0.3052
-10 14 18 -9.4120 0.5980
-8 14 18 -14.3837 1.7445
-6 14 18 -14.1177 1.4619
-4 14 18 -3.5928 -0.4687
-2 14 18 -3.7295 -0.9995
0 14 18 -1.9673 0.6010
2 14 18 1.1454 1.8354
4 14 18 11.6175 0.6469
6 14 18 -18.2298 -1.6555
8 14 18 8.0615 -1.5535
10 14 18 21.0495 -0.1771
12 14 18 2.9251 0.6428
14 14 18 6.1767 0.5277
16 14 18 -7.8539 0.0798
18 14 18 -1.1578 -0.1371
20 14 18 2.4511 -0.5718
22 14 18 10.3730 -1.0633
24 14 18 -1.3091 0.0885
26 14 18 -14.3070 1.1888
28 14 18 -1.1813 0.9159
30 14 18 -0.4836 -2.5796
-31 15 18 -6.5583 -1.6602
-29 15 18 -11.4934 0.8664
-27 15 18 0.4807 -0.3713
-25 15 18 3.9448 -0.4768
-23 15 18 2.8644 0.2731
-21 15 18 7.8477 1.1891
-19 15 18 7.4358 -0.1512
-17 15 18 7.2323 -0.7113
-15 15 18 2.6165 0.4045
-13 15 18 -1.1132 0.6151
-11 15 18 11.0689 0.0510
-9 15 18 33.0470 -0.3381
-7 15 18 14.6793 0.0433
-5 15 18 -2.8054 0.0314
-3 15 18 17.2421 -0.3584
-1 15 18 -11.7416 0.0657
1 15 18 -15.4744 0.9633
3 15 18 -15.0419 0.6894
5 15 18 -0.8124 0.0461
7 15 18 4.4196 -0.1382
9 15 18 5.6605 -0.3801
11 15 18 -2.7570 -0.4934
13 15 18 -10.8265 0.4851
15 15 18 -16.4037 0.6678
17 15 18 11.4667 -0.2607
19 15 18 5.2889 -1.1638
21 15 18 4.4580 -0.9239
23 15 18 -16.1231 -0.2026
25 15 18 -7.1783 0.5520
27 15 18 -10.1868 0.1676
29 15 18 2.2988 -1.1718
-30 16 18 -2.8803 1.4739
-28 16 18 2.9531 -0.9591
-26 16 18 8.4511 -0.8258
-24 16 18 2.4352 1.4230
-22 16 18 -9.7421 1.0410
-20 16 18 -0.2472 -1.7163
-18 16 18 -2.4293 -1.0930
-16 16 18 23.3694 1.5787
-14 16 18 -4.4069 0.5293
-12 16 18 -10.9986 -1.4875
-10 16 18 2.9626 0.8405
-8 16 18 -2.9398 2.2540
-6 16 18 -25.8240 -0.1134
-4 16 18 20.0983 -1.1251
-2 16 18 23.0630 1.0534
0 16 18 7.3973 1.1933
2 16 18 12.3352 -0.9282
4 16 18 8.2250 -0.3304
6 16 18 -19.7966 1.0698
8 16 18 -14.1508 -0.2340
10 16 18 22.5528 -1.9132
12 16 18 -9.2112 0.2020
14 16 18 -4.6240 1.0934
16 16 18 -14.6831 -0.5546
18 16 18 -11.3604 -0.7722
20 16 18 -1.8500 1.4538
22 16 18 3.4559 -0.0089
24 16 18 9.8831 -1.9624
26 16 18 11.6231 -0.5347
28 16 18 2.4877 0.3656
-29 17 18 -0.3556 -1.2534
-27 17 18 8.5756 -1.2381
-25 17 18 -7.2327 1.4664
-23 17 18 -8.5270 0.7504
-21 17 18 1.6469 -1.6895
-19 17 18 7.5919 -0.9373
-17 17 18 -0.3875 2.0659
-15 17 18 -8.2759 -0.0423
-13 17 18 13.1876 -2.8872
-11 17 18 26.4395 -0.6327
-9 17 18 3.4115 2.9188
-7 17 18 1.3404 0.1725
-5 17 18 -37.0360 -3.2933
-3 17 18 -27.6054 -0.4679
-1 17 18 -2.7198 2.2203
1 17 18 -0.3079 -0.8100
3 17 18 -12.5467 -2.6133
5 17 18 -15.5682 1.5431
7 17 18 -5.8820 2.6044
9 17 18 11.9137 -1.7165
11 17 18 7.3150 -2.8288
13 17 18 23.2023 1.5695
15 17 18 -6.3764 2.9776
17 17 18 -7.0357 -0.5372
19 17 18 5.1008 -2.2662
21 17 18 0.2505 0.4846
23 17 18 -19.7027 1.1895
25 17 18 27.6073 -0.7514
27 17 18 -0.8661 -1.1420
29 17 18 8.6466 0.3816
-30 18 18 -1.9015 -1.1549
-28 18 18 -5.4723 -2.2173
-26 18 18 5.1990 0.8841
-24 18 18 -5.6677 1.7663
-22 18 18 -6.0974 -1.4029
-20 18 18 -3.0560 -2.0537
-18 18 18 -14.5516 2.1117
-16 18 18 10.8492 2.7550
-14 18 18 8.3512 -2.1181
-12 18 18 -1.1193 -2.5751
-10 18 18 20.2840 2.0389
-8 18 18 -27.1139 1.8206
-6 18 18 -25.5830 -2.4057
-4 18 18 41.4470 -0.7757
-2 18 18 -5.8626 3.8747
0 18 18 -12.5827 0.9071
2 18 18 11.2251 -4.3110
4 18 18 -17.4453 -1.1043
6 18 18 -19.5589 3.6457
8 18 18 -5.0716 1.0567
10 18 18 16.5837 -2.2858
12 18 18 -9.3289 -0.3675
14 18 18 12.1321 1.1687
16 18 18 5.8565 -0.5735
18 18 18 -3.6865 -1.1248
20 18 18 -9.8625 1.4390
22 18 18 -7.9422 1.0946
24 18 18 -1.3102 -1.2870
26 18 18 7.3217 -1.7822
28 18 18 -3.0573 -0.9798
-29 19 18 3.1351 -0.4984
-27 19 18 -10.6287 1.8309
-25 19 18 -5.1941 1.0307
-23 19 18 13.2546 -0.5873
-21 19 18 -5.7374 -0.3874
-19 19 18 -3.6919 0.5482
-17 19 18 1.5525 0.2435
-15 19 18 -8.7506 -0.9123
-13 19 18 11.0396 0.1957
-11 19 18 6.2503 1.2289
-9 19 18 2.6128 -0.5967
-7 19 18 1.5768 -1.8418
-5 19 18 -7.4561 -0.8364
-3 19 18 1.0432 0.6466
-1 19 18 -9.1611 -0.0634
1 19 18 -11.9618 -1.0805
3 19 18 13.5563 -0.5151
5 19 18 3.5652 0.2743
7 19 18 -0.7494 -0.0630
9 19 18 30.6271 -0.2708
11 19 18 -9.3870 0.6054
13 19 18 31.9684 0.1496
15 19 18 12.8678 -0.0290
17 19 18 -13.5225 0.2715
19 19 18 -3.7595 0.2954
21 19 18 11.1357 0.0934
23 19 18 -9.5402 -0.3519
25 19 18 12.1528 0.2622
27 19 18 -2.5483 -1.3550
-28 20 18 12.2378 0.8377
-26 20 18 -2.2432 0.2807
-24 20 18 1.2829 -0.6840
-22 20 18 7.2606 0.2462
-20 20 18 -0.4704 0.8071
-18 20 18 -5.9041 -0.0128
-16 20 18 0.2016 -0.7398
-14 20 18 -1.4433 -0.3065
-12 20 18 -13.2281 0.3863
-10 20 18 -1.4350 0.0070
-8 20 18 -28.8419 -0.5419
-6 20 18 -8.7616 -0.2791
-4 20 18 -5.2641 0.6634
-2 20 18 7.7894 0.4037
0 20 18 -6.9276 -0.1719
2 20 18 10.3396 0.0382
4 20 18 -4.2120 0.5321
6 20 18 -3.0153 -0.3593
8 20 18 -4.2886 -0.7267
10 20 18 1.7042 0.7656
12 20 18 6.4822 1.1561
14 20 18 6.2923 -0.6126
16 20 18 17.5379 -1.6228
18 20 18 -6.5620 0.2721
20 20 18 -12.3217 1.4745
22 20 18 3.3129 0.3901
24 20 18 -0.1616 0.3182
26 20 18 7.0546 -0.4849
-27 21 18 1.2365 -0.5369
-25 21 18 -1.9769 -0.0012
-23 21 18 25.1176 0.7654
-21 21 18 -17.5543 0.1088
-19 21 18 -2.9853 -0.6303
-17 21 18 15.6369 0.1273
-15 21 18 -14.9709 0.7916
-13 21 18 4.4786 0.4123
-11 21 18 0.4711 0.0504
-9 21 18 24.5955 -0.1413
-7 21 18 -17.1837 -0.0867
-5 21 18 3.6855 -0.2988
-3 21 18 9.8937 -0.6654
-1 21 18 -4.6667 -0.4549
1 21 18 -4.5527 0.0905
3 21 18 2.7271 -0.0312
5 21 18 -7.6311 -0.7166
7 21 18 5.2832 -0.9272
9 21 18 13.6077 0.2201
11 21 18 -7.4256 1.0783
13 21 18 21.9794 0.2532
15 21 18 8.6248 -0.6712
17 21 18 -7.1088 -0.0548
19 21 18 -7.3307 0.7406
21 21 18 9.0834 0.4358
23 21 18 -17.5600 -0.4502
25 21 18 -17.1517 -0.7981
-26 22 18 -21.7964 0.1426
-24 22 18 18.1582 0.9232
-22 22 18 13.8920 -0.5074
-20 22 18 7.4907 -1.1684
-18 22 18 11.5660 0.5095
-16 22 18 -6.2964 0.2290
-14 22 18 0.4169 -1.0370
-12 22 18 -2.2324 -0.5446
-10 22 18 -13.7017 1.6009
-8 22 18 -2.4274 0.8708
-6 22 18 27.6014 -1.7890
-4 22 18 4.3345 -1.1359
-2 22 18 10.2408 1.2990
0 22 18 19.6404 1.2882
2 22 18 -6.4659 -0.2536
4 22 18 0.9283 -0.5250
6 22 18 -0.6244 0.4993
8 22 18 -4.7170 -0.3370
10 22 18 -5.9304 -1.1225
12 22 18 10.2132 0.5776
14 22 18 9.1807 1.4678
16 22 18 11.5083 -0.2724
18 22 18 2.3886 -1.2999
20 22 18 -8.0708 -0.5388
22 22 18 13.7494 0.3877
24 22 18 6.5592 0.2229
-25 23 18 -9.5999 0.4269
-23 23 18 3.6403 -0.1837
-21 23 18 -15.6536 -1.1734
-19 23 18 -14.7714 1.5054
-17 23 18 -4.9175 1.7118
-15 23 18 -1.8134 -1.0328
-13 23 18 7.0692 -1.7707
-11 23 18 -58.5958 0.9258
-9 23 18 12.1995 1.6587
-7 23 18 -15.6220 -0.3285
-5 23 18 2.7004 -0.8772
-3 23 18 -3.4175 0.4599
-1 23 18 1.5100 0.4175
1 23 18 12.9011 -0.7869
3 23 18 18.0954 -0.9125
5 23 18 -23.1149 0.5409
7 23 18 1.2074 0.6101
9 23 18 -10.1428 -0.3312
11 23 18 -13.1627 -0.6878
13 23 18 -2.5438 -0.2736
15 23 18 -0.3744 0.5640
17 23 18 9.4725 0.3463
19 23 18 -7.0956 0.0545
21 23 18 1.4628 0.4379
23 23 18 -9.7274 0.7339
-24 24 18 0.7731 -1.1711
-22 24 18 -0.7962 0.4318
-20 24 18 -8.9355 0.5052
-18 24 18 -17.6540 -0.3679
-16 24 18 3.8273 -1.0082
-14 24 18 -2.9990 0.2672
-12 24 18 10.4368 0.6118
-10 24 18 1.8049 -0.0054
-8 24 18 -8.4392 -0.5198
-6 24 18 -1.3260 -0.0349
-4 24 18 2.1278 0.4057
-2 24 18 -13.2226 0.1384
0 24 18 15.4456 -0.4006
2 24 18 -3.7246 0.8958
4 24 18 -13.2953 1.2606
6 24 18 2.0590 -0.1814
8 24 18 -1.1220 -1.2477
10 24 18 -5.1865 0.1007
12 24 18 8.6750 0.7183
14 24 18 18.0782 -0.2184
16 24 18 -13.5882 -0.4188
18 24 18 3.9058 1.1349
20 24 18 -8.1577 0.0669
22 24 18 -13.6627 -1.5891
24 24 18 -2.8276 0.2493
-23 25 18 -10.0621 1.1583
-21 25 18 -3.4664 0.0548
-19 25 18 3.9141 0.1562
-17 25 18 -25.0700 -0.1289
-15 25 18 10.1099 0.0671
-13 25 18 24.8650 -0.0935
-11 25 18 -27.7917 -0.2618
-9 25 18 22.1063 0.8571
-7 25 18 -7.5536 1.4627
-5 25 18 -6.9179 0.9327
-3 25 18 8.8770 0.1325
-1 25 18 -1.6517 -0.7111
1 25 18 9.8929 -0.6233
3 25 18 5.1638 0.3459
5 25 18 -24.9086 1.0759
7 25 18 2.4792 -0.0395
9 25 18 0.1422 -1.4381
11 25 18 3.4996 0.0350
13 25 18 4.7456 0.2457
15 25 18 9.6082 -0.4772
17 25 18 3.6038 -0.6119
19 25 18 0.0706 0.3736
21 25 18 -16.6357 1.0692
23 25 18 3.6645 0.2279
-22 26 18 0.0253 0.5245
-20 26 18 -0.0138 -0.8184
-18 26 18 -19.0632 -0.4933
-16 26 18 18.4249 0.6472
-14 26 18 9.3398 0.4412
-12 26 18 8.7208 -0.8892
-10 26 18 2.6828 -0.8300
-8 26 18 6.1251 0.3464
-6 26 18 0.8757 0.4917
-4 26 18 -4.1544 0.1425
-2 26 18 -18.6584 0.0087
0 26 18 4.5740 -0.2300
2 26 18 12.1532 -0.3479
4 26 18 -7.1383 0.3034
6 26 18 -9.5607 0.8952
8 26 18 -5.4055 0.3104
10 26 18 7.6058 -0.5087
12 26 18 -9.8578 -0.7392
14 26 18 14.5948 -0.0061
16 26 18 -10.4442 -0.3158
18 26 18 11.8028 0.9119
20 26 18 2.2380 0.7102
-21 27 18 1.9525 -2.1684
-19 27 18 1.5107 0.6606
-17 27 18 -6.5989 1.6883
-15 27 18 8.2359 0.0121
-13 27 18 5.0969 -1.4692
-11 27 18 3.3841 0.3366
-9 27 18 6.5776 1.8094
-7 27 18 7.5204 -0.0421
-5 27 18 3.5056 -1.1841
-3 27 18 2.5090 0.8526
-1 27 18 -12.6803 1.5925
1 27 18 31.6210 -0.4142
3 27 18 10.3841 -1.4414
5 27 18 -9.2516 0.6548
7 27 18 1.6176 1.2002
9 27 18 -11.2167 -1.0029
11 27 18 0.1283 -1.7992
13 27 18 -0.5121 1.1274
15 27 18 11.5702 1.2442
17 27 18 -14.7045 -0.1568
19 27 18 -2.2991 -1.5301
-20 28 18 9.3097 0.4808
-18 28 18 0.2415 1.0181
-16 28 18 2.4619 -0.3023
-14 28 18 -3.8519 -1.1215
-12 28 18 12.2721 -0.3025
-10 28 18 -4.9284 0.4253
-8 28 18 -2.5520 -0.0511
-6 28 18 2.6350 -0.4706
-4 28 18 2.5010 0.3081
-2 28 18 -3.1681 0.5446
0 28 18 -12.6562 -0.3492
2 28 18 2.0543 -0.8303
4 28 18 -6.6336 -0.2192
6 28 18 -11.9642 0.7527
8 28 18 1.6697 0.9075
10 28 18 11.2092 0.2709
12 28 18 -12.2191 -0.2133
14 28 18 9.7414 -0.4218
16 28 18 -6.7359 -0.3399
18 28 18 13.0131 0.5960
-19 29 18 -7.7176 0.3840
-17 29 18 -4.4127 -0.7946
-15 29 18 2.1415 -0.4908
-13 29 18 -6.9099 0.7024
-11 29 18 8.8456 0.8178
-9 29 18 2.9713 -0.2890
-7 29 18 -14.2299 -0.7505
-5 29 18 0.2159 0.0265
-3 29 18 -2.9213 0.5885
-1 29 18 4.8462 0.2445
1 29 18 2.2876 -0.0506
3 29 18 -7.3532 -0.0691
5 29 18 -6.4881 -0.5052
7 29 18 5.0344 -0.6908
9 29 18 -3.7059 -0.4446
11 29 18 5.7593 0.7649
13 29 18 -5.4534 0.0454
15 29 18 2.3172 -1.1861
17 29 18 -3.4149 -0.0918
-18 30 18 -4.4009 -1.2539
-16 30 18 -15.3317 -1.3984
-14 30 18 -20.7176 0.0116
-12 30 18 3.8569 0.4286
-10 30 18 1.7688 -0.5163
-8 30 18 -3.5100 -0.6111
-6 30 18 -9.0315 0.3157
-4 30 18 -0.8532 -0.0040
-2 30 18 -8.1742 -1.5169
0 30 18 -3.6187 -0.6445
2 30 18 10.6023 1.2919
4 30 18 -1.8384 0.6905
6 30 18 -12.2537 -1.4204
8 30 18 -8.8778 -0.8804
10 30 18 -4.4711 1.1592
12 30 18 -7.2342 1.4756
14 30 18 12.9793 -1.3054
16 30 18 -1.6758 -0.4581
-15 31 18 13.9598 0.0732
-13 31 18 -6.4159 0.0831
-11 31 18 -9.5745 -0.6892
-9 31 18 10.0602 -0.2528
-7 31 18 4.8671 0.2266
-5 31 18 -14.8660 0.1008
-3 31 18 -0.7235 -0.0856
-1 31 18 11.5568 -0.0359
1 31 18 -19.0303 0.5631
3 31 18 0.0709 0.3437
5 31 18 2.3592 -0.1273
7 31 18 8.4900 0.4378
9 31 18 0.2626 -0.4466
11 31 18 4.1169 0.8705
13 31 18 0.1312 -0.6951
-14 32 18 0.2938 -0.6827
-12 32 18 11.0761 -1.2130
-10 32 18 4.8299 0.3440
-8 32 18 -2.3000 0.6062
-6 32 18 -1.5152 -0.5827
-4 32 18 8.5204 -0.9395
-2 32 18 -5.3562 0.1132
0 32 18 8.2105 0.1236
2 32 18 -1.3181 -0.3743
4 32 18 -11.5404 -0.8583
6 32 18 0.6266 0.2198
8 32 18 -2.0500 0.3221
10 32 18 1.3718 0.1677
12 32 18 11.9792 0.4008
-11 33 18 -6.4942 0.1558
-9 33 18 -1.9826 1.0602
-7 33 18 -2.8294 0.5429
-5 33 18 -18.2124 -0.4366
-3 33 18 -6.7283 0.3344
-1 33 18 3.4308 0.0007
1 33 18 -18.3575 0.0014
3 33 18 -22.4966 -0.9223
5 33 18 -2.3568 0.0521
7 33 18 -20.4492 0.9617
9 33 18 -2.3577 -0.0548
-8 34 18 1.1473 -0.3565
-6 34 18 -7.4714 -0.0306
-4 34 18 -3.6768 0.1317
-2 34 18 -13.7422 0.2073
0 34 18 -2.7977 -0.7152
2 34 18 3.3168 -0.6241
4 34 18 2.5559 -0.6623
6 34 18 6.1249 0.1461
-33 1 19 -3.2473 1.6085
-31 1 19 4.1530 -3.8011
-29 1 19 3.6996 4.0415
-27 1 19 2.7995 6.4341
-25 1 19 0.2923 -11.3164
-23 1 19 -3.8862 -12.1379
-21 1 19 -1.8570 16.6109
-19 1 19 13.4605 20.3018
-17 1 19 13.8469 -17.6752
-15 1 19 2.9610 -27.7864
-13 1 19 -2.1150 7.8154
-11 1 19 13.3850 14.4665
-9 1 19 59.1541 -15.8168
-7 1 19 23.8311 -7.1423
-5 1 19 -40.6928 22.7441
-3 1 19 10.9597 -6.1287
-1 1 19 11.2204 -41.4565
1 1 19 52.7535 0.6929
3 1 19 -50.4796 48.5661
5 1 19 -55.3745 14.4491
7 1 19 30.9296 -30.0857
9 1 19 -2.8367 -7.2826
11 1 19 13.8275 18.8936
13 1 19 11.5845 -0.2380
15 1 19 16.3200 -7.1436
17 1 19 17.0307 15.8856
19 1 19 17.9477 11.3714
21 1 19 13.2054 -18.9401
23 1 19 1.8211 -16.0372
25 1 19 -12.1509 12.3275
27 1 19 -3.9874 13.2217
29 1 19 1.6520 -4.7408
31 1 19 -4.1623 -5.0753
33 1 19 -9.0329 -0.0072
-34 2 19 2.9245 0.5725
-32 2 19 -7.3916 -5.4064
-30 2 19 7.6596 -0.1058
-28 2 19 -11.0608 6.3881
-26 2 19 -8.3548 0.2228
-24 2 19 -6.4339 -6.6550
-22 2 19 -8.5320 -0.0268
-20 2 19 7.9107 3.9467
-18 2 19 4.0118 -6.2075
-16 2 19 -15.2090 -5.8011
-14 2 19 -0.6013 11.4979
-12 2 19 -31.0824 12.0746
-10 2 19 -34.8600 -9.7342
-8 2 19 -25.1008 -11.7973
-6 2 19 8.8731 10.4294
-4 2 19 14.2836 14.4248
-2 2 19 -24.0895 -3.1586
0 2 19 19.1404 -3.2243
2 2 19 -59.4344 7.5779
4 2 19 77.9129 -3.0290
6 2 19 -51.0995 -16.5906
8 2 19 -17.7804 -1.8777
10 2 19 14.0106 15.3905
12 2 19 -26.4734 3.5871
14 2 19 -4.2854 -14.1410
16 2 19 -23.5202 -7.6725
18 2 19 6.9961 6.4305
20 2 19 6.6697 3.9756
22 2 19 -11.1776 -1.9029
24 2 19 11.0869 2.3468
26 2 19 18.6628 4.0338
28 2 19 -6.7391 -3.0877
30 2 19 2.5644 -6.5362
32 2 19 2.8961 -0.4643
-33 3 19 5.2515 -0.1809
-31 3 19 0.3662 0.8824
-29 3 19 -1.3022 0.2070
-27 3 19 2.3704 -1.4502
-25 3 19 -9.7242 -2.5119
-23 3 19 -5.4252 1.0215
-21 3 19 -11.4324 5.1884
-19 3 19 9.4146 4.1037
-17 3 19 21.0252 -1.4954
-15 3 19 -14.8606 -2.6163
-13 3 19 -18.3862 1.2671
-11 3 19 -21.8968 4.0886
-9 3 19 24.5776 5.1160
-7 3 19 11.3037 3.8194
-5 3 19 -36.5705 -1.2046
-3 3 19 33.0479 -8.1490
-1 3 19 37.2208 -6.1385
1 3 19 85.2466 4.6775
3 3 19 -5.3684 7.5426
5 3 19 -14.9957 -1.1957
7 3 19 8.8830 -7.4392
9 3 19 -25.3838 -6.1237
11 3 19 6.6918 -1.3621
13 3 19 13.5293 2.0402
15 3 19 -8.7500 3.6888
17 3 19 -11.4167 1.6147
19 3 19 -15.1231 -3.9011
21 3 19 -5.1768 -5.7343
23 3 19 -1.5401 -0.4556
25 3 19 -4.0479 4.6369
27 3 19 13.3478 2.7840
29 3 19 2.6988 -1.1440
31 3 19 -3.5510 -2.4690
-34 4 19 -9.2074 1.0406
-32 4 19 -11.4201 2.1759
-30 4 19 19.0954 -0.7156
-28 4 19 -10.4472 -2.3882
-26 4 19 9.7106 2.0715
-24 4 19 11.1848 2.4802
-22 4 19 -13.3220 -3.9763
-20 4 19 15.2361 -4.0653
-18 4 19 -0.6029 3.5167
-16 4 19 0.8848 3.6589
-14 4 19 10.8354 -4.0012
-12 4 19 8.1897 -2.7648
-10 4 19 31.0022 4.7379
-8 4 19 0.7322 3.4284
-6 4 19 30.2731 -1.3555
-4 4 19 -1.4143 3.5137
-2 4 19 -25.5294 7.7601
0 4 19 -59.1766 -0.6809
4 4 19 17.6760 -1.7493
6 4 19 -31.1185 6.2293
8 4 19 33.2912 1.1895
10 4 19 16.4974 -6.4146
12 4 19 -5.9150 -4.3815
14 4 19 -11.9923 -0.3507
16 4 19 -4.7836 -1.1000
18 4 19 -2.4771 0.1295
20 4 19 8.8227 3.6932
22 4 19 -14.6529 2.8952
24 4 19 2.3411 -3.0873
26 4 19 2.9423 -4.2790
28 4 19 5.6233 0.9995
30 4 19 19.6766 4.1114
32 4 19 15.6569 1.7581
-33 5 19 -4.4461 2.2539
-31 5 19 -10.3659 -3.2321
-29 5 19 -14.9708 -0.7186
-27 5 19 -6.3857 1.8641
-25 5 19 -3.3180 1.6004
-23 5 19 5.1453 -2.1919
-21 5 19 -1.8536 -1.6387
-19 5 19 -6.5564 0.3133
-17 5 19 8.9938 -0.1599
-15 5 19 -1.8432 0.4242
-13 5 19 0.2759 2.7344
-11 5 19 28.8985 0.8222
-9 5 19 43.8807 -4.4565
-7 5 19 2.5245 -3.7548
-5 5 19 -1.2919 1.7896
-3 5 19 -9.2184 3.1629
-1 5 19 45.1145 1.6269
1 5 19 -2.0973 -0.4920
3 5 19 58.3003 -3.9826
5 5 19 68.4535 -3.8645
7 5 19 -35.8749 0.6555
9 5 19 -3.1308 4.7686
11 5 19 -12.3519 2.3396
13 5 19 -8.6555 -2.3791
15 5 19 -18.7031 -2.9828
17 5 19 -1.1352 -1.4260
19 5 19 3.0162 0.2671
21 5 19 2.3073 2.1108
23 5 19 9.3330 2.6238
25 5 19 2.9568 0.1801
27 5 19 5.3645 -2.7315
29 5 19 -11.6785 -2.0459
31 5 19 8.4539 2.4417
-34 6 19 2.8728 -1.4860
-32 6 19 12.5146 -1.1370
-30 6 19 3.6521 -1.1451
-28 6 19 2.5486 1.9647
-26 6 19 1.5413 -0.2145
-24 6 19 -10.0663 -3.4102
-22 6 19 -8.4044 0.3992
-20 6 19 9.2709 4.1011
-18 6 19 -12.0504 -1.8823
-16 6 19 -0.0552 -4.4689
-14 6 19 5.4023 3.5206
-12 6 19 0.3331 5.9960
-10 6 19 23.1929 -1.7976
-8 6 19 -0.4417 -2.4655
-6 6 19 -16.9305 6.9922
-4 6 19 -21.7254 7.1217
-2 6 19 61.7005 -3.4255
0 6 19 11.2800 -4.1245
2 6 19 19.9029 4.0563
4 6 19 -15.4968 2.7807
6 6 19 -12.5996 -5.1843
8 6 19 -13.7798 -3.6598
10 6 19 -19.6015 2.4121
12 6 19 -6.4421 -1.2509
14 6 19 -17.4657 -6.9141
16 6 19 19.2419 -0.9872
18 6 19 2.7043 5.2674
20 6 19 -18.6072 1.3857
22 6 19 -8.6470 -3.9371
24 6 19 -0.2864 -1.6226
26 6 19 -6.0689 2.3508
28 6 19 5.6257 1.3512
30 6 19 13.8926 -0.1544
32 6 19 -5.1742 0.5988
-33 7 19 1.5548 -1.9877
-31 7 19 -0.9029 -1.5266
-29 7 19 10.1981 2.8449
-27 7 19 0.7154 2.4585
-25 7 19 6.5459 -0.4668
-23 7 19 -1.8872 -0.7488
-21 7 19 13.7618 1.0073
-19 7 19 -4.6782 -0.8411
-17 7 19 12.8806 -1.8202
-15 7 19 5.3500 2.5676
-13 7 19 -14.2250 4.7362
-11 7 19 4.8414 -2.0197
-9 7 19 4.1174 -8.2730
-7 7 19 -17.9195 -2.2602
-5 7 19 43.8548 5.4221
-3 7 19 19.5115 2.9514
-1 7 19 -6.1669 -2.7577
1 7 19 -10.9885 -3.5599
3 7 19 32.1445 -3.1369
5 7 19 35.6924 -3.2291
7 7 19 -36.6892 1.0268
9 7 19 6.0725 6.6590
11 7 19 28.5776 3.6988
13 7 19 -4.9159 -4.6986
15 7 19 -0.7770 -5.9878
17 7 19 -10.0650 1.8112
19 7 19 2.3851 6.5785
21 7 19 -1.0943 3.2851
23 7 19 2.4796 -2.0131
25 7 19 -0.3153 -2.5504
27 7 19 -10.0643 -1.1186
29 7 19 -20.1952 0.3600
31 7 19 4.9312 1.0717
-32 8 19 -1.4738 -0.7194
-30 8 19 -12.1300 -0.3234
-28 8 19 4.1861 -0.3806
-26 8 19 9.1248 -0.1914
-24 8 19 -18.6714 0.1745
-22 8 19 20.5352 -0.6183
-20 8 19 -19.1120 -0.7755
-18 8 19 -11.4386 -0.3107
-16 8 19 9.3585 -0.2119
-14 8 19 27.4718 -0.1869
-12 8 19 -13.3847 0.9661
-10 8 19 47.6039 1.2414
-8 8 19 49.8843 -1.0419
-6 8 19 15.3216 -1.1999
-4 8 19 8.3572 1.8804
-2 8 19 21.3262 2.8345
0 8 19 -9.6408 1.0022
2 8 19 -50.1525 -0.4775
4 8 19 -18.8866 0.4149
6 8 19 -17.5472 0.1378
8 8 19 -33.7561 -1.6030
10 8 19 -18.3067 -0.6602
12 8 19 -3.5543 1.4534
14 8 19 -15.6241 0.2951
16 8 19 -7.0406 -2.1707
18 8 19 12.2749 -1.8897
20 8 19 4.9531 0.4025
22 8 19 4.5605 0.8836
24 8 19 9.8265 0.2460
26 8 19 -10.1265 0.6680
28 8 19 19.7698 0.6637
30 8 19 6.0469 -0.2146
32 8 19 -1.4288 0.0524
-33 9 19 -1.6263 2.4365
-31 9 19 -9.4271 0.2665
-29 9 19 -12.6826 -1.6173
-27 9 19 -8.1652 1.4361
-25 9 19 -3.4830 2.0456
-23 9 19 -19.7089 -0.4036
-21 9 19 -2.7335 -1.1861
-19 9 19 8.8269 0.3515
-17 9 19 27.3664 0.0891
-15 9 19 -39.7126 -0.3099
-13 9 19 -26.1916 0.8595
-11 9 19 17.7223 1.1263
-9 9 19 -8.7774 -0.1494
-7 9 19 -19.3500 -1.0582
-5 9 19 -10.1932 -0.9164
-3 9 19 2.1359 -0.1928
-1 9 19 -10.4406 0.0789
1 9 19 2.9224 -0.3700
3 9 19 18.4452 -2.0639
5 9 19 -24.2599 -1.8273
7 9 19 -8.7146 0.5163
9 9 19 -29.2531 0.6645
11 9 19 9.2973 -1.3087
13 9 19 12.7549 -0.1282
15 9 19 10.2414 2.0643
17 9 19 -7.1678 1.2679
19 9 19 3.1602 -0.5174
21 9 19 11.8726 0.6377
23 9 19 -4.2437 1.5373
25 9 19 0.5786 -0.1995
27 9 19 -8.2767 -1.4218
29 9 19 -15.8049 0.7160
31 9 19 -3.6256 2.3125
-32 10 19 -6.2470 -1.5881
-30 10 19 -2.2198 -0.1821
-28 10 19 1.2968 1.1363
-26 10 19 3.3207 0.6213
-24 10 19 -22.6760 -2.7491
-22 10 19 20.2557 0.3738
-20 10 19 -25.6029 3.5036
-18 10 19 -15.8630 -0.0457
-16 10 19 5.3114 -4.5664
-14 10 19 7.6739 -1.0782
-12 10 19 -42.2647 2.4964
-10 10 19 -8.4800 -2.4296
-8 10 19 -2.7491 -4.7182
-6 10 19 -21.2113 1.1080
-4 10 19 27.0428 2.2485
-2 10 19 -17.3317 -4.6964
0 10 19 23.3836 -3.6778
2 10 19 -8.9731 5.2716
4 10 19 21.8331 3.8582
6 10 19 -2.0307 -3.5757
8 10 19 5.0101 -0.8232
10 10 19 -6.2106 5.0652
12 10 19 -19.3849 1.8017
14 10 19 -13.3173 -2.8506
16 10 19 -5.7171 1.2405
18 10 19 -9.5065 3.3909
20 10 19 -9.9052 -1.7555
22 10 19 -16.4195 -2.5480
24 10 19 10.7815 1.8794
26 10 19 12.7686 1.9463
28 10 19 18.8628 -0.6413
30 10 19 -4.9061 -0.1868
-31 11 19 2.5380 -1.6171
-29 11 19 -1.5686 1.0618
-27 11 19 -3.4615 0.5870
-25 11 19 9.8809 -2.9895
-23 11 19 0.7339 -1.5843
-21 11 19 -1.9604 3.5173
-19 11 19 -8.1224 2.4728
-17 11 19 23.3809 -3.3270
-15 11 19 -9.2780 -2.3155
-13 11 19 7.1901 3.5779
-11 11 19 28.5663 1.9976
-9 11 19 20.9175 -2.6102
-7 11 19 23.4518 0.2097
-5 11 19 48.0618 4.0657
-3 11 19 -0.2639 -0.9447
-1 11 19 8.6803 -5.8913
1 11 19 -38.4004 1.3501
3 11 19 5.0520 7.3958
5 11 19 -4.0434 -0.2517
7 11 19 6.8348 -7.4790
9 11 19 -29.5525 -1.3731
11 11 19 -5.7986 4.1149
13 11 19 12.4264 0.3932
15 11 19 -8.1479 -1.8510
17 11 19 -5.3180 1.8996
19 11 19 -5.5660 1.3419
21 11 19 6.5588 -4.2112
23 11 19 -3.8611 -1.9357
25 11 19 -8.0700 4.4271
27 11 19 4.6762 4.5226
29 11 19 3.2362 -1.9853
31 11 19 1.7944 -0.8621
-32 12 19 -5.7331 0.2011
-30 12 19 8.2922 1.3735
-28 12 19 4.8216 2.5061
-26 12 19 -1.8269 -1.5578
-24 12 19 -4.1654 -1.7880
-22 12 19 14.4051 3.0307
-20 12 19 -4.4611 3.1229
-18 12 19 -5.9623 -2.3941
-16 12 19 -0.3407 -4.0603
-14 12 19 -4.0372 1.1384
-12 12 19 -13.1801 2.1796
-10 12 19 -6.7725 -2.6250
-8 12 19 16.0577 -2.7164
-6 12 19 -3.7071 2.2567
-4 12 19 -1.3558 1.1765
-2 12 19 0.0898 -4.5950
0 12 19 -12.2619 -3.0375
2 12 19 9.5373 4.4402
4 12 19 11.5501 4.1240
6 12 19 -11.5118 -1.9974
8 12 19 18.8259 -2.3421
10 12 19 2.1858 2.4271
12 12 19 -3.9491 2.1078
14 12 19 -23.2816 -1.2947
16 12 19 -2.6708 -0.1226
18 12 19 -5.8843 2.6744
20 12 19 5.8488 1.3010
22 12 19 -10.6297 -2.3335
24 12 19 -6.4944 -1.3461
26 12 19 -4.3449 1.8216
28 12 19 -7.1969 1.8312
30 12 19 5.4054 0.0440
-31 13 19 -10.2007 2.0576
-29 13 19 8.7942 -0.4820
-27 13 19 1.0052 -2.0139
-25 13 19 -6.8007 -1.8722
-23 13 19 -19.2129 0.8125
-21 13 19 7.4086 0.9218
-19 13 19 0.0823 0.4971
-17 13 19 8.9825 1.2627
-15 13 19 0.7387 -0.3276
-13 13 19 -6.3461 -2.8304
-11 13 19 -18.2520 -1.1372
-9 13 19 10.0212 3.2608
-7 13 19 -24.2613 3.5432
-5 13 19 12.6761 -0.6005
-3 13 19 -33.1675 -2.2403
-1 13 19 25.9000 -0.5687
1 13 19 23.6672 0.5848
3 13 19 -6.5170 1.2027
5 13 19 -1.3029 1.6550
7 13 19 14.2839 1.4394
9 13 19 -19.6821 -1.5781
11 13 19 12.4744 -3.5450
13 13 19 -0.0944 -0.0553
15 13 19 -7.7209 3.0563
17 13 19 -1.4759 0.8270
19 13 19 9.7143 -2.0435
21 13 19 14.0171 -1.4630
23 13 19 -6.4481 0.6835
25 13 19 1.7954 0.3434
27 13 19 -4.4211 0.2948
29 13 19 4.0832 0.1868
-30 14 19 17.1496 -0.2608
-28 14 19 0.7451 -0.2676
-26 14 19 -5.1096 0.0631
-24 14 19 2.7045 0.9693
-22 14 19 -8.7263 0.0367
-20 14 19 9.9530 -1.5638
-18 14 19 4.2749 -0.2210
-16 14 19 -13.0501 2.1192
-14 14 19 10.7618 1.6525
-12 14 19 8.1663 -1.1694
-10 14 19 -2.0111 -1.6174
-8 14 19 28.2594 -0.0038
-6 14 19 13.7111 -0.2653
-4 14 19 13.1370 -0.7296
-2 14 19 9.8958 0.3516
0 14 19 -5.6618 0.9982
2 14 19 17.9449 -0.8143
4 14 19 -13.6530 -2.8180
6 14 19 -39.9179 -0.2093
8 14 19 -5.6668 2.5106
10 14 19 5.6835 0.8311
12 14 19 -9.6193 -1.5508
14 14 19 -26.0058 -0.4563
16 14 19 -5.7465 1.0329
18 14 19 -5.0560 0.0913
20 14 19 -1.7706 -0.7815
22 14 19 7.6907 0.9039
24 14 19 -2.4436 1.4543
26 14 19 -5.3283 -0.5150
28 14 19 13.6619 -0.4848
30 14 19 7.8478 2.2232
-31 15 19 2.0537 -0.1054
-29 15 19 11.3388 -1.3856
-27 15 19 3.0040 -0.2029
-25 15 19 -14.6571 0.7212
-23 15 19 -0.8387 0.1770
-21 15 19 2.1282 0.1442
-19 15 19 -10.3930 1.1862
-17 15 19 3.1213 -0.4144
-15 15 19 -9.3460 -2.0288
-13 15 19 12.0446 -0.1572
-11 15 19 13.0194 1.5453
-9 15 19 3.8597 0.4250
-7 15 19 19.2279 -0.5043
-5 15 19 15.0342 0.6748
-3 15 19 -23.4554 0.7249
-1 15 19 -18.6586 -0.2220
1 15 19 9.1814 0.6383
3 15 19 8.2434 1.0853
5 15 19 -11.6326 0.1346
7 15 19 -1.0740 -0.3981
9 15 19 -15.7860 0.3669
11 15 19 21.5855 -0.1629
13 15 19 -14.3293 -0.9468
15 15 19 -9.4669 -0.6265
17 15 19 -21.9069 -0.0900
19 15 19 -4.7088 0.4055
21 15 19 5.8732 0.0234
23 15 19 -8.7183 0.3535
25 15 19 21.6246 -0.6637
27 15 19 -10.7210 -0.6679
29 15 19 9.2387 0.0976
-30 16 19 11.5802 0.4703
-28 16 19 13.8794 1.3087
-26 16 19 7.8685 -1.6176
-24 16 19 -4.6024 -2.1208
-22 16 19 -11.1918 0.8229
-20 16 19 11.9458 1.2485
-18 16 19 -3.5024 -0.9931
-16 16 19 -3.1859 -0.5456
-14 16 19 15.2563 1.9442
-12 16 19 19.9043 0.7221
-10 16 19 2.0932 -2.4183
-8 16 19 -25.0060 -0.8108
-6 16 19 -19.6946 2.1106
-4 16 19 3.7769 0.7024
-2 16 19 10.8856 -1.7739
0 16 19 3.6534 -1.0319
2 16 19 1.5122 0.9987
4 16 19 -12.7444 0.2155
6 16 19 -11.0419 -1.3456
8 16 19 7.9121 -0.1826
10 16 19 -1.9661 1.4537
12 16 19 4.0831 0.4997
14 16 19 1.4881 -1.5147
16 16 19 -6.1941 -0.6952
18 16 19 13.8052 0.5923
20 16 19 3.9077 0.3125
22 16 19 8.9592 -0.4663
24 16 19 -10.2591 0.3894
26 16 19 -5.7164 1.0476
28 16 19 12.3807 -1.3734
-29 17 19 3.8166 1.5337
-27 17 19 -10.5439 -0.4484
-25 17 19 -18.1816 -0.7761
-23 17 19 18.8737 0.6477
-21 17 19 -6.4275 0.9487
-19 17 19 -3.7618 -1.4987
-17 17 19 -8.3138 -1.6763
-15 17 19 -19.4668 1.8272
-13 17 19 8.7593 2.1561
-11 17 19 3.2959 -1.0107
-9 17 19 4.1827 -1.4859
-7 17 19 26.3833 0.4561
-5 17 19 -0.3814 1.2070
-3 17 19 -4.2204 1.2823
-1 17 19 -23.2740 1.1479
1 17 19 -12.0004 0.3365
3 17 19 4.3629 -0.8878
5 17 19 6.9673 -0.8837
7 17 19 -10.4321 0.0426
9 17 19 6.3944 0.3878
11 17 19 9.1728 0.6240
13 17 19 12.3959 -0.5196
15 17 19 14.5583 -2.1869
17 17 19 -7.4326 -1.8698
19 17 19 -24.7534 0.6660
21 17 19 -2.5336 1.7830
23 17 19 -8.3844 0.5461
25 17 19 4.1437 -1.6250
27 17 19 2.6925 -1.1604
-28 18 19 5.8081 -0.6915
-26 18 19 -1.9386 -0.8343
-24 18 19 -16.2730 1.8143
-22 18 19 -0.0421 1.2317
-20 18 19 5.9292 -0.5016
-18 18 19 -6.5574 -0.5162
-16 18 19 16.1304 0.8118
-14 18 19 3.2100 0.0148
-12 18 19 16.3708 -0.8328
-10 18 19 -5.2414 1.0318
-8 18 19 -0.8744 1.9480
-6 18 19 3.1310 -0.3297
-4 18 19 -0.0284 -2.3240
-2 18 19 20.2230 -0.8594
0 18 19 -0.8815 1.6783
2 18 19 0.1323 1.3573
4 18 19 -2.9143 -0.7211
6 18 19 23.9398 -1.1673
8 18 19 -15.3138 0.1493
10 18 19 -8.8565 -0.0233
12 18 19 -5.9601 -0.5714
14 18 19 2.7326 0.5157
16 18 19 25.5882 1.0767
18 18 19 -0.8879 -1.4072
20 18 19 -15.9499 -1.7138
22 18 19 -0.1272 0.5503
24 18 19 9.9314 1.6421
26 18 19 -16.7803 -0.4190
28 18 19 9.4165 -2.0745
-29 19 19 5.5947 -0.6156
-27 19 19 -9.5197 -0.2963
-25 19 19 -16.0868 0.3841
-23 19 19 29.5698 -0.7424
-21 19 19 -6.9431 -1.7312
-19 19 19 -1.9214 -0.3414
-17 19 19 11.0426 0.8950
-15 19 19 -2.3122 0.2642
-13 19 19 -4.6375 -1.0584
-11 19 19 -15.3915 -0.6504
-9 19 19 -6.4468 0.2215
-7 19 19 18.7951 -0.3773
-5 19 19 18.7379 -0.3866
-3 19 19 5.5071 0.6199
-1 19 19 -6.5009 0.6783
1 19 19 8.6518 -0.2772
3 19 19 -7.3722 -0.6613
5 19 19 -10.7807 -0.1611
7 19 19 -13.5423 0.6193
9 19 19 9.5346 0.3671
11 19 19 -13.2608 -0.4433
13 19 19 12.9934 -0.2708
15 19 19 -10.6054 0.0774
17 19 19 2.1459 -0.3836
19 19 19 -10.3510 -0.1579
21 19 19 7.4228 0.0888
23 19 19 -15.2594 0.2955
25 19 19 -8.5665 -0.0812
27 19 19 3.9934 -1.9944
-28 20 19 15.3741 -0.5362
-26 20 19 13.7635 0.6641
-24 20 19 3.8718 -0.4140
-22 20 19 3.9052 -0.0585
-20 20 19 2.3170 1.4236
-18 20 19 1.3918 0.1934
-16 20 19 -14.3966 -1.1193
-14 20 19 -0.6551 -0.2508
-12 20 19 -3.3044 1.1849
-10 20 19 -26.2694 0.3231
-8 20 19 9.3963 -0.4656
-6 20 19 -7.2267 0.4411
-4 20 19 -3.5181 0.5694
-2 20 19 -20.9863 -1.2738
0 20 19 3.2616 -0.9029
2 20 19 -0.1119 1.0756
4 20 19 -1.3950 0.7611
6 20 19 21.7090 -1.3007
8 20 19 -1.5674 -0.9571
10 20 19 2.4654 0.3853
12 20 19 -0.2333 0.2780
14 20 19 -16.3584 -0.9369
16 20 19 4.1778 0.5387
18 20 19 4.5968 0.8970
20 20 19 5.1832 -0.2802
22 20 19 -3.1556 -1.3689
24 20 19 -1.3926 0.5384
26 20 19 -30.6413 0.1488
-27 21 19 -15.5420 -1.3533
-25 21 19 -17.4460 -1.1771
-23 21 19 0.0584 -0.0125
-21 21 19 -5.8318 0.9933
-19 21 19 -7.5071 -0.9219
-17 21 19 1.8815 -1.2693
-15 21 19 -5.7255 0.7802
-13 21 19 -1.5059 0.5862
-11 21 19 -7.1792 -1.5733
-9 21 19 3.7378 -0.9753
-7 21 19 24.8900 0.9007
-5 21 19 -3.9657 0.6770
-3 21 19 -11.1263 -0.5908
-1 21 19 -6.1632 -0.3083
1 21 19 34.0639 0.8158
3 21 19 -9.1843 0.4756
5 21 19 -14.6284 0.1437
7 21 19 2.9193 0.3523
9 21 19 -8.5102 0.2635
11 21 19 -17.9761 0.1224
13 21 19 3.5338 0.0905
15 21 19 14.6434 -0.4598
17 21 19 6.2643 -0.2663
19 21 19 -12.7861 0.7758
21 21 19 -0.9757 -0.0784
23 21 19 -7.2090 -1.2763
25 21 19 1.7122 -0.5384
-26 22 19 -3.1730 -0.9526
-24 22 19 -1.1304 0.2404
-22 22 19 -5.0945 0.5707
-20 22 19 -14.1383 -0.4840
-18 22 19 -10.3145 -0.8427
-16 22 19 3.0017 0.4727
-14 22 19 25.3666 0.9556
-12 22 19 5.4091 -0.4875
-10 22 19 -14.7227 -0.8245
-8 22 19 -7.6559 -0.3272
-6 22 19 -15.7807 0.5373
-4 22 19 21.8173 0.8018
-2 22 19 -18.8954 -0.1817
0 22 19 22.9760 -1.2220
2 22 19 7.5764 -0.6470
4 22 19 4.0811 -0.1574
6 22 19 -16.3725 -0.1430
8 22 19 -3.4232 0.1021
10 22 19 -4.6651 0.5124
12 22 19 3.4714 0.0240
14 22 19 4.6812 -1.3655
16 22 19 -13.3254 -0.3290
18 22 19 -9.4197 0.9832
20 22 19 12.1535 1.1693
22 22 19 13.8160 -1.9545
24 22 19 -2.2088 -0.8870
-25 23 19 2.9154 0.7351
-23 23 19 -26.1277 1.1139
-21 23 19 -0.0752 -0.8895
-19 23 19 7.6631 -1.2517
-17 23 19 -22.5110 1.2926
-15 23 19 -13.0414 0.5914
-13 23 19 13.6882 -1.4948
-11 23 19 3.7850 -1.1476
-9 23 19 -1.7362 1.1228
-7 23 19 11.7666 0.1136
-5 23 19 1.8291 -2.1922
-3 23 19 -13.8048 -0.6468
-1 23 19 -22.7655 1.9175
1 23 19 12.5382 0.0937
3 23 19 3.1678 -1.6311
5 23 19 -26.0086 0.6193
7 23 19 4.3281 2.1179
9 23 19 9.9330 -0.1906
11 23 19 0.2077 -0.9481
13 23 19 -2.8559 0.5743
15 23 19 -0.1702 1.2776
17 23 19 10.9049 -0.4156
19 23 19 12.6126 -1.3164
21 23 19 -19.5412 0.0912
23 23 19 -13.9947 0.5234
-24 24 19 6.8177 -0.6141
-22 24 19 -4.4794 -1.3628
-20 24 19 -6.2291 -0.8675
-18 24 19 -9.4117 0.8670
-16 24 19 10.8757 1.0046
-14 24 19 14.3410 -0.7086
-12 24 19 3.2855 -0.0508
-10 24 19 -3.9164 0.7698
-8 24 19 -9.2115 -0.1806
-6 24 19 -10.7117 -0.8144
-4 24 19 -0.4684 0.6687
-2 24 19 -33.5236 1.7803
0 24 19 4.6207 0.2331
2 24 19 -6.9666 -1.7257
4 24 19 3.8765 -1.0169
6 24 19 2.9544 1.0774
8 24 19 -3.7401 1.4556
10 24 19 18.6067 -0.6959
12 24 19 -5.8094 -1.3262
14 24 19 7.6713 -0.0978
16 24 19 9.4415 0.4387
18 24 19 -8.3470 -0.2538
20 24 19 -3.4853 0.8946
22 24 19 7.4481 -0.5544
-23 25 19 -17.4036 -0.8391
-21 25 19 -6.4390 -0.6877
-19 25 19 3.2695 0.1107
-17 25 19 5.3828 0.3979
-15 25 19 8.3439 -0.1123
-13 25 19 5.8437 -0.3275
-11 25 19 2.8281 0.4235
-9 25 19 7.3137 0.5991
-7 25 19 -5.3642 -0.6394
-5 25 19 -4.8637 -1.2928
-3 25 19 -7.1415 0.2217
-1 25 19 -10.2951 1.1904
1 25 19 12.1611 -0.1681
3 25 19 -9.7757 -1.0353
5 25 19 -9.3462 -0.1054
7 25 19 -2.7497 0.5503
9 25 19 6.2087 0.3570
11 25 19 -1.4243 0.2390
13 25 19 -1.8132 0.4981
15 25 19 3.2629 0.2258
17 25 19 -1.0830 -0.7183
19 25 19 16.7578 -1.0776
21 25 19 -0.9876 -1.2454
-22 26 19 6.8953 0.1604
-20 26 19 14.9709 -0.2749
-18 26 19 6.3780 -0.0618
-16 26 19 4.2046 -0.1902
-14 26 19 -2.3295 0.3480
-12 26 19 19.3874 1.3440
-10 26 19 -1.4383 0.0582
-8 26 19 -27.9197 -0.9660
-6 26 19 0.6429 0.0570
-4 26 19 21.0715 0.9042
-2 26 19 -7.0146 0.1062
0 26 19 1.1762 -0.5219
2 26 19 1.5805 0.3010
4 26 19 0.5797 0.3382
6 26 19 1.7714 -0.9768
8 26 19 -2.7860 -0.7823
10 26 19 8.1566 0.5764
12 26 19 -16.1496 0.4236
14 26 19 3.4525 -0.6982
16 26 19 -1.5415 -0.7365
18 26 19 7.5873 0.2630
20 26 19 2.0077 -0.2220
-21 27 19 -9.2119 -0.0249
-19 27 19 -10.7850 -0.6745
-17 27 19 14.5870 -0.4177
-15 27 19 -10.8314 0.1635
-13 27 19 -18.5678 0.1390
-11 27 19 6.8392 0.5146
-9 27 19 -0.6035 -0.0337
-7 27 19 -14.6575 -0.1966
-5 27 19 1.3620 -0.1793
-3 27 19 -1.3546 -0.4362
-1 27 19 25.0287 -0.3201
1 27 19 3.4196 -0.0580
3 27 19 -11.2665 0.7495
5 27 19 11.6649 0.4229
7 27 19 -7.1891 -0.9923
9 27 19 6.3029 -0.6566
11 27 19 1.2181 0.4837
13 27 19 -6.2791 0.4470
15 27 19 -2.2257 -0.4245
17 27 19 4.1077 -0.1309
19 27 19 14.3812 0.4043
-20 28 19 5.3406 -0.4888
-18 28 19 2.3045 0.7810
-16 28 19 8.9177 0.2750
-14 28 19 -11.0483 -0.2448
-12 28 19 -8.0290 -0.2955
-10 28 19 -12.7495 1.0270
-8 28 19 -9.6793 1.0768
-6 28 19 -3.2118 -0.0203
-4 28 19 -2.5140 -0.4295
-2 28 19 -20.4854 0.5459
0 28 19 3.5788 0.7738
2 28 19 -6.9475 -0.0129
4 28 19 3.4608 -0.2338
6 28 19 2.8760 0.4351
8 28 19 0.6850 -0.3994
10 28 19 -1.0134 -0.9121
12 28 19 -12.4843 0.4980
14 28 19 16.0392 0.7144
16 28 19 -6.9131 0.4769
18 28 19 5.8056 -1.9593
-19 29 19 -18.0933 0.3388
-17 29 19 -7.7731 0.6943
-15 29 19 -10.6283 -0.3042
-13 29 19 -12.6899 -0.7332
-11 29 19 5.7755 0.5331
-9 29 19 -2.3535 0.7798
-7 29 19 -1.0348 -0.4298
-5 29 19 -8.3284 -0.5814
-3 29 19 -7.5750 0.4972
-1 29 19 6.7707 0.4805
1 29 19 -19.6024 -0.6553
3 29 19 1.8442 -0.3495
5 29 19 8.0365 0.9785
7 29 19 -0.7386 0.6970
9 29 19 7.7733 -0.4911
11 29 19 6.9952 -0.6355
13 29 19 0.9694 -0.5389
15 29 19 2.8175 0.7325
17 29 19 -3.5101 -0.6372
-16 30 19 12.7685 -1.1066
-14 30 19 -10.4269 -0.4375
-12 30 19 0.2912 0.0305
-10 30 19 5.3698 0.5258
-8 30 19 -12.4060 0.1431
-6 30 19 12.8081 0.2862
-4 30 19 3.3068 0.0958
-2 30 19 -6.7314 -0.0020
0 30 19 26.3018 -0.1846
2 30 19 -9.8014 -0.2716
4 30 19 2.9918 -0.0705
6 30 19 4.9492 -0.1265
8 30 19 3.7852 -0.2198
10 30 19 -5.2469 0.3994
12 30 19 -9.5476 0.3724
14 30 19 -0.8311 -0.4940
-15 31 19 9.7714 0.1708
-13 31 19 9.1795 1.6603
-11 31 19 -4.8771 -0.0720
-9 31 19 -3.5501 -0.6695
-7 31 19 6.6711 -0.2732
-5 31 19 -2.7832 0.9956
-3 31 19 12.6050 1.0827
-1 31 19 10.9313 -0.5587
1 31 19 -2.6504 -0.8109
3 31 19 -5.0776 0.3892
5 31 19 7.4903 0.4099
7 31 19 -8.5205 -0.9031
9 31 19 -5.2203 -0.0818
11 31 19 7.6565 1.3318
13 31 19 -14.0450 -0.3234
-12 32 19 -1.6465 0.0304
-10 32 19 11.9264 -0.6227
-8 32 19 4.2486 0.3393
-6 32 19 5.5894 0.6998
-4 32 19 -7.3232 -0.2147
-2 32 19 -25.1999 0.0050
0 32 19 14.5106 0.3443
2 32 19 11.9154 -0.0139
4 32 19 -19.2179 -0.3956
6 32 19 -4.8715 -0.1365
8 32 19 0.6704 0.4268
10 32 19 1.0456 0.6612
-9 33 19 -2.0891 0.4203
-7 33 19 6.9739 -0.1215
-5 33 19 17.0055 -0.2240
-3 33 19 11.6384 0.7165
-1 33 19 -12.8295 0.8379
1 33 19 -23.1330 -0.6111
3 33 19 -1.4096 -0.9285
5 33 19 22.0264 0.1305
7 33 19 -5.2904 0.5816
-6 34 19 4.5086 -1.5503
-4 34 19 -3.8507 0.1673
-2 34 19 -5.1068 1.9029
0 34 19 13.8099 1.0153
2 34 19 10.8058 -0.9159
4 34 19 -2.3756 -0.3395
-34 0 20 10.8555 -3.8276
-32 0 20 -0.7921 7.9761
-30 0 20 -16.7161 6.9077
-28 0 20 6.0876 -6.1759
-26 0 20 10.6926 -3.4088
-24 0 20 -16.2182 8.7539
-22 0 20 -25.3608 -2.4803
-20 0 20 -12.6325 -16.4445
-18 0 20 18.1483 4.4824
-16 0 20 -17.0631 17.7568
-14 0 20 -16.8750 -19.3400
-12 0 20 36.4181 -42.8740
-10 0 20 42.2197 -3.2799
-8 0 20 -10.0173 22.3506
-6 0 20 -24.5088 -12.2967
-4 0 20 3.3856 -20.8314
-2 0 20 4.9787 21.8223
0 0 20 -38.1412 22.3457
2 0 20 6.5715 -15.5479
4 0 20 60.2566 4.5659
6 0 20 -55.7766 52.8798
8 0 20 -12.4572 28.7676
10 0 20 -16.7690 -24.7419
12 0 20 -1.8736 -12.4888
14 0 20 -18.8448 21.1920
16 0 20 12.3915 7.3218
18 0 20 46.3424 -14.5121
20 0 20 -3.9274 -2.2468
22 0 20 -2.6051 6.4565
24 0 20 -11.3656 -9.7961
26 0 20 25.4871 -13.0379
28 0 20 -6.0884 5.6623
30 0 20 -19.9572 10.8277
32 0 20 4.7956 -3.1635
-33 1 20 -0.7323 4.0258
-31 1 20 4.8081 4.4335
-29 1 20 2.3354 -5.8497
-27 1 20 1.8866 -7.7651
-25 1 20 -2.4008 7.9431
-23 1 20 -12.1103 9.1408
-21 1 20 10.8067 -11.3220
-19 1 20 13.5071 -13.1385
-17 1 20 17.0272 7.5918
-15 1 20 9.7490 7.6413
-13 1 20 -24.7847 -10.1253
-11 1 20 -77.3520 -4.0682
-9 1 20 -7.0604 14.5546
-7 1 20 -14.9407 1.9879
-5 1 20 25.1068 -18.5057
-3 1 20 17.9276 0.3482
-1 1 20 -17.1891 27.4583
1 1 20 -27.2527 10.0896
3 1 20 -20.7339 -18.0261
5 1 20 -46.1155 -5.9910
7 1 20 12.4549 15.5163
9 1 20 -4.0984 5.2265
11 1 20 27.9255 -7.7661
13 1 20 7.3436 5.2864
15 1 20 14.4338 9.7506
17 1 20 7.7408 -9.0578
19 1 20 -1.4215 -12.6642
21 1 20 -4.7706 8.1451
23 1 20 2.6468 13.0208
25 1 20 -4.7111 -4.2796
27 1 20 -15.5716 -10.3716
29 1 20 8.2715 0.3563
31 1 20 4.7460 3.3938
-34 2 20 -14.1877 -0.2872
-32 2 20 0.9927 0.3484
-30 2 20 -12.4606 0.0659
-28 2 20 -9.8574 0.3477
-26 2 20 1.4856 1.3456
-24 2 20 -2.8963 0.6704
-22 2 20 -10.8771 1.0620
-20 2 20 -16.9267 1.4384
-18 2 20 15.9534 1.5303
-16 2 20 7.8572 -0.3463
-14 2 20 -40.5379 -1.7751
-12 2 20 -3.7845 -1.3291
-10 2 20 28.5997 -1.5246
-8 2 20 -38.5746 -2.2131
-6 2 20 -58.5407 -2.0095
-4 2 20 -11.3372 -1.3924
-2 2 20 -3.5656 -1.7109
0 2 20 -23.1264 -1.3866
2 2 20 29.6625 2.4147
4 2 20 -26.7629 5.3370
6 2 20 -36.7103 2.5200
8 2 20 26.6288 -1.1878
10 2 20 26.6959 -0.5470
12 2 20 -19.5930 2.0305
14 2 20 -42.4361 1.9133
16 2 20 -5.9758 0.4783
18 2 20 -11.2985 0.0966
20 2 20 -17.8625 -1.4725
22 2 20 -5.6858 -2.8683
24 2 20 -4.4653 -0.4705
26 2 20 8.2901 2.3233
28 2 20 -1.7027 2.2741
30 2 20 2.4207 -0.6252
32 2 20 22.8984 -2.5519
-33 3 20 -0.9011 -0.6559
-31 3 20 -6.6221 1.0858
-29 3 20 1.2241 -0.2106
-27 3 20 13.7627 -1.6357
-25 3 20 8.5414 -0.0616
-23 3 20 2.5093 1.6232
-21 3 20 13.4393 -0.3092
-19 3 20 7.0350 -3.5021
-17 3 20 2.7338 -1.5580
-15 3 20 27.0431 1.7303
-13 3 20 27.0786 0.4982
-11 3 20 4.0514 -2.1177
-9 3 20 4.9695 -1.3342
-7 3 20 -22.5685 -1.1948
-5 3 20 24.6578 -1.7591
-3 3 20 14.7408 3.2652
-1 3 20 -20.8191 7.5704
3 3 20 53.7887 -5.0544
5 3 20 17.3077 -2.0491
7 3 20 -44.5238 4.6330
9 3 20 -27.5495 4.5909
11 3 20 -21.2080 1.8980
13 3 20 -14.4551 -0.7540
15 3 20 23.3464 -5.3279
17 3 20 41.1541 -5.6731
19 3 20 24.6591 0.8817
21 3 20 -0.8531 5.3031
23 3 20 -10.1133 2.1608
25 3 20 3.4452 -3.4034
27 3 20 -13.8180 -3.7268
29 3 20 -12.0155 -0.7239
31 3 20 -7.8427 1.3912
-34 4 20 0.3386 0.8485
-32 4 20 6.2728 1.1171
-30 4 20 -9.7194 1.0264
-28 4 20 -3.7783 -3.5241
-26 4 20 3.8237 -1.4594
-24 4 20 1.9250 5.1641
-22 4 20 0.3468 1.5215
-20 4 20 -3.4274 -7.3104
-18 4 20 3.3396 -3.3402
-16 4 20 7.2457 4.7443
-14 4 20 7.9146 -0.4193
-12 4 20 31.9474 -5.4968
-10 4 20 28.1787 3.0636
-8 4 20 -16.7305 6.0423
-6 4 20 -4.9346 -7.7402
-4 4 20 41.2527 -8.6526
-2 4 20 25.2935 10.1899
0 4 20 -50.4113 13.0959
2 4 20 1.5282 -5.1624
4 4 20 -29.8021 -9.3710
6 4 20 11.6604 4.3250
8 4 20 1.2275 5.7812
10 4 20 10.6075 -3.2096
12 4 20 14.9922 0.2743
14 4 20 -2.2197 6.7594
16 4 20 19.6634 -1.6837
18 4 20 -15.1686 -8.5499
20 4 20 -18.0959 0.6669
22 4 20 0.0038 7.7040
24 4 20 8.7579 1.5657
26 4 20 -4.5228 -4.9477
28 4 20 5.0154 -1.6918
30 4 20 1.8811 1.4107
32 4 20 18.2456 0.3878
-33 5 20 -1.0238 2.4772
-31 5 20 0.5531 1.8477
-29 5 20 -6.4449 -4.2021
-27 5 20 9.9875 -3.2359
-25 5 20 -2.2766 4.6264
-23 5 20 3.0131 4.9908
-21 5 20 22.8241 -4.6755
-19 5 20 8.0474 -3.6473
-17 5 20 5.1275 6.3998
-15 5 20 3.8440 4.1998
-13 5 20 -3.5184 -6.1515
-11 5 20 20.8765 -1.1495
-9 5 20 8.7168 9.4558
-7 5 20 -65.2989 1.7391
-5 5 20 1.7341 -10.2878
-3 5 20 24.0098 -1.4023
-1 5 20 -39.2364 10.6231
1 5 20 5.3218 1.8348
3 5 20 45.5875 -9.1996
5 5 20 -5.3018 -0.7478
7 5 20 -49.0142 7.8170
9 5 20 9.4880 -2.4890
11 5 20 -6.3926 -9.2927
13 5 20 -26.6321 1.3834
15 5 20 31.5710 6.8880
17 5 20 3.2877 -3.2524
19 5 20 30.1422 -6.8727
21 5 20 -0.1704 2.3758
23 5 20 -11.1831 4.6093
25 5 20 -7.8084 -2.7665
27 5 20 -29.4745 -2.4551
29 5 20 -14.2688 3.3835
31 5 20 -3.3918 1.7023
-32 6 20 7.8319 2.8855
-30 6 20 -12.2494 -0.9810
-28 6 20 -4.5207 -1.3304
-26 6 20 -4.6414 1.8109
-24 6 20 -9.3888 1.9482
-22 6 20 16.8668 -1.3314
-20 6 20 -1.2086 -1.4592
-18 6 20 -5.3502 1.3396
-16 6 20 32.3407 1.4976
-14 6 20 46.6103 -0.7173
-12 6 20 -11.0803 -0.1168
-10 6 20 -5.8565 2.1187
-8 6 20 14.2846 0.6687
-6 6 20 -2.3684 -2.2698
-4 6 20 -36.5456 -0.7359
-2 6 20 10.4557 2.8364
0 6 20 -21.6568 1.2265
2 6 20 -35.5402 -4.3417
4 6 20 -38.5085 -4.8841
6 6 20 -20.4508 -0.1156
8 6 20 -1.7771 2.6778
10 6 20 -23.2847 0.1531
12 6 20 13.4392 -1.7938
14 6 20 1.7670 -0.9423
16 6 20 18.9587 -0.7363
18 6 20 -20.1126 -0.9621
20 6 20 -5.8715 1.6035
22 6 20 14.5847 3.5014
24 6 20 -0.4670 1.2058
26 6 20 -7.2293 -3.5298
28 6 20 -6.1737 -3.4110
30 6 20 -14.6600 1.2635
32 6 20 3.4905 2.0079
-33 7 20 -2.0214 -0.8544
-31 7 20 -13.2518 -2.1474
-29 7 20 -10.5792 0.4719
-27 7 20 11.2764 1.3285
-25 7 20 -2.4832 -0.1949
-23 7 20 -6.4496 -1.7327
-21 7 20 -9.2459 -0.0223
-19 7 20 -6.5740 1.1942
-17 7 20 7.6280 -0.6470
-15 7 20 1.8307 -1.6264
-13 7 20 7.4757 0.1796
-11 7 20 16.4325 0.5341
-9 7 20 14.7627 -0.8130
-7 7 20 1.1685 -0.6361
-5 7 20 29.6522 0.6913
-3 7 20 39.8685 -0.3405
-1 7 20 -76.2335 -1.5567
1 7 20 27.4674 0.5530
3 7 20 -10.2266 3.4004
5 7 20 9.0907 2.2717
7 7 20 -15.1940 -1.6156
9 7 20 11.5377 -2.5165
11 7 20 -9.5594 0.0176
13 7 20 2.2693 1.4753
15 7 20 9.2606 0.9285
17 7 20 -17.0016 0.7819
19 7 20 27.8917 -0.2382
21 7 20 -4.9427 -2.6260
23 7 20 -15.8664 -1.9625
25 7 20 -3.8224 1.8565
27 7 20 -7.3751 2.3393
29 7 20 -1.3685 1.0709
31 7 20 -13.2323 -2.1319
-32 8 20 -1.1600 -0.2812
-30 8 20 2.2767 -1.5528
-28 8 20 -15.3895 1.6927
-26 8 20 1.9965 -0.6668
-24 8 20 -1.8251 -2.6959
-22 8 20 13.0375 -0.2482
-20 8 20 4.2062 4.2014
-18 8 20 5.8998 1.6482
-16 8 20 -14.8096 -2.7628
-14 8 20 2.3544 0.1587
-12 8 20 2.6112 4.3363
-10 8 20 6.8212 1.6565
-8 8 20 -9.5970 -1.0892
-6 8 20 -2.4303 2.8691
-4 8 20 17.7291 4.0420
-2 8 20 35.3715 -4.0041
0 8 20 -10.7400 -7.3910
2 8 20 -27.3594 0.6471
4 8 20 22.1237 4.2275
6 8 20 -13.4232 -2.6391
8 8 20 -0.8485 -5.2815
10 8 20 2.1288 -0.9639
12 8 20 -1.7713 -0.1947
14 8 20 2.1892 -2.5851
16 8 20 9.9981 0.0487
18 8 20 -15.4776 4.5448
20 8 20 -3.0750 1.3390
22 8 20 9.0230 -3.9615
24 8 20 -0.8736 -2.1390
26 8 20 10.6709 2.7333
28 8 20 2.1989 2.6924
30 8 20 4.4048 -0.2418
-33 9 20 -7.6289 0.6816
-31 9 20 -4.9752 2.0964
-29 9 20 -20.0635 1.8819
-27 9 20 -0.6132 -0.4768
-25 9 20 -6.4174 -0.5234
-23 9 20 8.7047 -0.7791
-21 9 20 5.5698 -1.5960
-19 9 20 2.7280 -0.1629
-17 9 20 2.2111 2.7332
-15 9 20 31.6217 1.2041
-13 9 20 -5.0023 -4.4716
-11 9 20 -16.1226 -4.5032
-9 9 20 -14.9315 1.0709
-7 9 20 22.1043 2.7142
-5 9 20 -19.0557 -0.0517
-3 9 20 -31.1659 -0.5374
-1 9 20 -32.9121 -0.4963
1 9 20 26.7517 -3.0905
3 9 20 -29.5774 -2.0795
5 9 20 9.2061 4.0729
7 9 20 4.6106 4.3578
9 9 20 6.7793 -1.9202
11 9 20 -2.5173 -3.5340
13 9 20 17.4836 -0.0320
15 9 20 -12.2582 1.3847
17 9 20 -14.1669 0.7515
19 9 20 -8.4571 1.0083
21 9 20 -6.3955 0.3122
23 9 20 -11.4622 -1.7516
25 9 20 -8.3317 -1.5971
27 9 20 13.2567 0.4214
29 9 20 1.1055 1.4713
31 9 20 -2.2331 -0.3688
-32 10 20 -12.0862 -1.1276
-30 10 20 8.9860 -0.8030
-28 10 20 -1.4966 -1.0330
-26 10 20 -4.9618 0.6439
-24 10 20 18.4057 1.0391
-22 10 20 -0.7124 -1.6961
-20 10 20 -6.7096 -0.9834
-18 10 20 1.2496 2.0778
-16 10 20 -5.6146 1.9428
-14 10 20 10.5185 -1.4558
-12 10 20 14.4401 -0.9254
-10 10 20 18.9800 3.0041
-8 10 20 13.8607 2.5566
-6 10 20 4.4505 -0.5405
-4 10 20 9.3684 -0.0117
-2 10 20 29.7412 1.3468
0 10 20 3.5672 -0.4581
2 10 20 52.9896 -1.8860
4 10 20 7.7832 1.0126
6 10 20 -22.0805 2.2430
8 10 20 3.9105 -1.4014
10 10 20 16.6050 -4.4149
12 10 20 -35.9038 -1.1258
14 10 20 8.2081 2.4713
16 10 20 4.7886 1.8282
18 10 20 6.4945 -0.5966
20 10 20 17.9544 -1.4984
22 10 20 -6.9890 -0.9108
24 10 20 -13.6681 -0.9465
26 10 20 11.0219 0.4817
28 10 20 -6.0369 1.6819
30 10 20 -0.5473 1.6774
-31 11 20 8.2932 0.3313
-29 11 20 14.0131 -1.7093
-27 11 20 -2.4820 -0.0294
-25 11 20 0.7814 0.9426
-23 11 20 -3.2870 -0.5018
-21 11 20 8.7921 -1.9844
-19 11 20 21.2559 1.1235
-17 11 20 -10.7549 2.9786
-15 11 20 8.8657 -0.9187
-13 11 20 32.7096 -3.9434
-11 11 20 -13.0769 -0.1876
-9 11 20 -9.4617 3.1226
-7 11 20 4.1088 0.0409
-5 11 20 17.5984 -2.0067
-3 11 20 8.0477 0.4686
-1 11 20 11.5056 0.1314
1 11 20 20.4567 -3.0192
3 11 20 -28.0199 -2.0852
5 11 20 34.3396 2.0451
7 11 20 8.7819 3.1513
9 11 20 -0.8093 -0.4496
11 11 20 -5.3348 -2.1688
13 11 20 11.1522 0.1311
15 11 20 -18.2751 2.0026
17 11 20 10.5160 1.2499
19 11 20 -6.6336 -0.2171
21 11 20 -20.1504 0.6264
23 11 20 -2.1547 0.1605
25 11 20 -11.9108 -0.5305
27 11 20 0.7997 -0.9849
29 11 20 1.3186 1.4676
-32 12 20 0.8504 -1.7166
-30 12 20 2.1366 0.3612
-28 12 20 12.4058 1.8287
-26 12 20 -14.5383 1.2398
-24 12 20 5.4255 -2.9332
-22 12 20 -3.9678 -1.6822
-20 12 20 9.9876 1.4089
-18 12 20 -23.1230 0.4560
-16 12 20 -15.8277 -2.2537
-14 12 20 1.3573 0.2535
-12 12 20 -7.7158 2.1608
-10 12 20 2.1075 -1.6661
-8 12 20 -16.9744 -3.4268
-6 12 20 -8.9433 2.2093
-4 12 20 -17.0751 4.6628
-2 12 20 -7.0855 -0.6130
0 12 20 -18.0396 -2.4232
2 12 20 50.2340 1.9237
4 12 20 -16.1318 2.0535
6 12 20 -8.0686 -2.4950
8 12 20 16.1882 -1.5039
10 12 20 32.5905 3.0894
12 12 20 1.8401 1.5605
14 12 20 5.7500 -3.3183
16 12 20 4.9429 -1.4645
18 12 20 8.1411 2.2823
20 12 20 27.0270 -0.0736
22 12 20 8.4625 -2.0872
24 12 20 -6.9903 0.1069
26 12 20 -1.3852 2.2018
28 12 20 0.6759 -0.1002
30 12 20 6.0076 -1.5282
-31 13 20 -13.0987 -0.4249
-29 13 20 5.5586 0.7276
-27 13 20 -20.9615 0.3959
-25 13 20 -13.4369 -0.1903
-23 13 20 10.5797 0.3196
-21 13 20 -1.3494 1.3175
-19 13 20 0.8678 -0.5003
-17 13 20 -11.4390 -1.4587
-15 13 20 -1.7195 -0.3341
-13 13 20 52.3102 2.1296
-11 13 20 4.1335 1.5923
-9 13 20 17.5752 -1.1515
-7 13 20 16.4150 -2.3965
-5 13 20 -5.0235 -0.9264
-3 13 20 -4.5989 0.2170
-1 13 20 -16.4466 0.2535
1 13 20 48.2600 0.7074
3 13 20 -8.8700 0.5432
5 13 20 -9.7954 -0.6944
7 13 20 -10.7331 -1.9364
9 13 20 4.6721 0.2836
11 13 20 -19.4454 3.2320
13 13 20 -8.6445 2.7819
15 13 20 -4.7797 -1.4013
17 13 20 10.2001 -1.3491
19 13 20 18.2158 0.8333
21 13 20 0.8418 1.4497
23 13 20 -2.7493 -0.9920
25 13 20 -4.0744 -0.5205
27 13 20 1.8191 -0.0423
29 13 20 -0.0046 -0.1720
-30 14 20 -2.5526 0.3306
-28 14 20 12.7617 0.0796
-26 14 20 9.4046 -0.1687
-24 14 20 -4.8861 -0.0529
-22 14 20 -19.0406 0.0381
-20 14 20 18.0697 -0.5644
-18 14 20 3.2098 -0.6453
-16 14 20 -12.4163 -1.0893
-14 14 20 0.8937 -1.3443
-12 14 20 -4.7427 -0.3933
-10 14 20 14.7759 0.5119
-8 14 20 -18.7297 0.3511
-6 14 20 -10.8330 -0.2554
-4 14 20 -0.3480 -0.3366
-2 14 20 14.5398 0.4773
0 14 20 1.0728 1.6914
2 14 20 5.3769 1.7452
4 14 20 -1.2258 0.0478
6 14 20 6.0433 0.0314
8 14 20 10.1103 0.4537
10 14 20 -1.6441 -0.1754
12 14 20 8.1532 0.1948
14 14 20 3.5833 1.0081
16 14 20 -0.8628 0.3373
18 14 20 -6.1173 -1.6667
20 14 20 -11.6462 -1.5077
22 14 20 8.9596 0.9307
24 14 20 2.0680 1.8008
26 14 20 -9.6738 0.1887
28 14 20 8.2344 -0.0185
-31 15 20 -6.4112 1.5770
-29 15 20 20.5603 -2.1880
-27 15 20 4.6032 0.0335
-25 15 20 -13.2859 1.2883
-23 15 20 18.1689 -0.2080
-21 15 20 -1.0216 -0.9767
-19 15 20 -15.4804 0.5424
-17 15 20 -6.3457 1.2383
-15 15 20 -1.5731 -0.7553
-13 15 20 15.9248 -0.8672
-11 15 20 26.2148 1.0502
-9 15 20 9.6997 1.2580
-7 15 20 10.4565 -0.9584
-5 15 20 1.9991 -1.8840
-3 15 20 1.3873 0.4554
-1 15 20 2.0974 1.5861
1 15 20 -2.8708 0.0570
3 15 20 1.9259 -0.9499
5 15 20 36.5084 0.0174
7 15 20 5.8486 0.3942
9 15 20 8.2126 0.1370
11 15 20 -3.6057 0.0577
13 15 20 3.1711 1.1338
15 15 20 2.4983 1.2020
17 15 20 14.5801 -0.7936
19 15 20 3.1250 -2.3632
21 15 20 3.7920 -0.0487
23 15 20 -7.0898 2.1510
25 15 20 -10.6882 0.4845
27 15 20 11.7088 -1.4826
29 15 20 -2.3502 0.8736
-30 16 20 -11.9802 -0.1922
-28 16 20 -15.1132 0.7804
-26 16 20 4.5960 1.6535
-24 16 20 -3.3155 -0.8587
-22 16 20 -8.2641 -1.1361
-20 16 20 -0.9153 1.3070
-18 16 20 -3.0319 0.7979
-16 16 20 -9.7123 -2.0157
-14 16 20 8.9496 -0.6327
-12 16 20 -6.5974 2.2910
-10 16 20 -20.5474 0.3455
-8 16 20 -3.0081 -2.1691
-6 16 20 -15.0614 0.0576
-4 16 20 13.8537 1.7525
-2 16 20 28.0860 -0.4671
0 16 20 29.3149 -0.6226
2 16 20 -29.8422 1.9318
4 16 20 -15.6707 1.6595
6 16 20 22.1832 -1.3983
8 16 20 -0.6146 -0.2773
10 16 20 2.9555 1.9707
12 16 20 -4.5448 0.2280
14 16 20 1.8886 -1.6970
16 16 20 6.0111 0.7043
18 16 20 5.8680 2.0126
20 16 20 -16.8848 -1.1615
22 16 20 -19.9034 -1.1386
24 16 20 5.2082 0.9944
26 16 20 -1.4708 1.1702
28 16 20 18.4594 -0.8243
-29 17 20 2.5314 1.3163
-27 17 20 1.3238 2.3559
-25 17 20 -6.6223 -1.6589
-23 17 20 -0.9514 -0.5882
-21 17 20 -4.2739 2.9760
-19 17 20 -1.2403 1.4010
-17 17 20 2.5137 -2.6849
-15 17 20 7.2622 -1.3010
-13 17 20 -15.0493 2.7361
-11 17 20 2.2465 1.1281
-9 17 20 8.3144 -2.2305
-7 17 20 25.6476 -0.0121
-5 17 20 22.9169 3.1260
-3 17 20 -30.3502 -0.0039
-1 17 20 -16.2623 -3.7382
1 17 20 -3.4528 -0.2067
3 17 20 8.0413 4.2260
5 17 20 5.3902 0.1177
7 17 20 22.7796 -4.3097
9 17 20 17.1200 -1.0967
11 17 20 -6.0653 2.7316
13 17 20 9.2879 0.2826
15 17 20 -3.7955 -2.0599
17 17 20 5.2178 0.1443
19 17 20 -19.9382 1.6822
21 17 20 -0.7774 -0.8246
23 17 20 -13.3862 -2.0435
25 17 20 -8.1911 2.0691
27 17 20 6.6229 2.2879
-28 18 20 -1.8045 1.6143
-26 18 20 9.9912 -1.5483
-24 18 20 -4.8208 -1.5532
-22 18 20 -8.6452 0.7812
-20 18 20 3.9362 0.9460
-18 18 20 1.5740 -0.8737
-16 18 20 -6.6611 -0.6466
-14 18 20 -5.6152 1.2269
-12 18 20 -10.8649 0.5149
-10 18 20 -7.1977 -1.9453
-8 18 20 14.3988 -1.1554
-6 18 20 -7.1509 1.5688
-4 18 20 7.5586 1.4025
-2 18 20 11.4173 -1.1580
0 18 20 31.2201 -1.8746
2 18 20 3.2750 0.2666
4 18 20 -1.7287 1.3976
6 18 20 -3.6946 0.4109
8 18 20 -10.2454 -0.0830
10 18 20 -16.1443 0.9066
12 18 20 -14.2092 0.0793
14 18 20 -14.8720 -1.6164
16 18 20 -0.1615 -0.9746
18 18 20 16.1624 1.9561
20 18 20 15.1503 1.8156
22 18 20 -3.1522 -0.7164
24 18 20 4.6635 -1.2394
26 18 20 -14.2959 1.2047
-27 19 20 15.4278 0.3499
-25 19 20 -9.1758 -0.4407
-23 19 20 -3.4808 0.9141
-21 19 20 -12.5924 0.6186
-19 19 20 9.0548 -1.0364
-17 19 20 -11.0951 -0.4073
-15 19 20 -12.6258 1.4076
-13 19 20 -2.5768 1.2718
-11 19 20 7.7380 -0.6677
-9 19 20 11.5624 -0.7937
-7 19 20 -10.1597 1.1026
-5 19 20 -9.0160 1.2620
-3 19 20 -9.6425 -0.0346
-1 19 20 -3.5325 -0.0803
1 19 20 10.3847 0.4978
3 19 20 -4.7642 -0.2007
5 19 20 0.6539 -1.0477
7 19 20 16.7962 -0.4991
9 19 20 7.7018 0.7764
11 19 20 -8.7498 -0.5270
13 19 20 6.0153 -1.0103
15 19 20 9.0486 -0.3391
17 19 20 -26.5800 0.6343
19 19 20 -4.9797 0.2922
21 19 20 6.1354 -0.0098
23 19 20 -2.4202 0.3941
25 19 20 2.3071 1.3813
-28 20 20 -8.9324 0.2108
-26 20 20 2.8747 -0.1984
-24 20 20 2.0303 1.2977
-22 20 20 -13.0743 -0.0773
-20 20 20 -1.4278 -0.0572
-18 20 20 8.9005 0.8189
-16 20 20 -0.8724 0.5602
-14 20 20 6.3789 -0.4412
-12 20 20 -1.7650 -0.8436
-10 20 20 -0.8428 0.5391
-8 20 20 -12.6597 0.5591
-6 20 20 9.9440 -1.0776
-4 20 20 9.1193 -0.9384
-2 20 20 -6.3302 0.7526
0 20 20 -17.9157 0.7747
2 20 20 27.6987 -0.6665
4 20 20 6.0132 -1.1280
6 20 20 -24.4140 0.2924
8 20 20 15.8282 0.6974
10 20 20 -12.6054 0.1347
12 20 20 13.8935 -0.3484
14 20 20 -13.6575 -0.3750
16 20 20 -6.8208 0.1388
18 20 20 3.9882 -0.0402
20 20 20 -0.2907 0.2272
22 20 20 -0.4749 0.9547
24 20 20 -12.2936 0.9173
26 20 20 8.7200 0.7708
-27 21 20 7.9394 0.3371
-25 21 20 6.4964 -0.5070
-23 21 20 -10.8862 -0.1590
-21 21 20 -9.6291 -0.3522
-19 21 20 13.4906 0.1460
-17 21 20 -21.0451 -0.2015
-15 21 20 11.6676 0.2762
-13 21 20 -1.4972 0.9057
-11 21 20 5.2774 0.0450
-9 21 20 10.8265 -0.4258
-7 21 20 9.4622 -0.0506
-5 21 20 0.1010 0.8697
-3 21 20 -19.2774 0.5691
-1 21 20 -7.9896 -0.3024
1 21 20 -7.0950 -0.1456
3 21 20 12.1897 -0.1245
5 21 20 -8.2177 -0.6154
7 21 20 -5.3543 -0.5831
9 21 20 -6.6871 0.4259
11 21 20 -5.2531 0.1642
13 21 20 1.3373 -0.9555
15 21 20 16.8296 -0.8812
17 21 20 -23.3074 0.5658
19 21 20 0.5012 1.1237
21 21 20 7.6941 0.0445
23 21 20 12.3373 0.1906
25 21 20 -3.4435 1.1703
-26 22 20 -4.8255 0.5234
-24 22 20 3.0365 -0.7530
-22 22 20 -2.0460 0.2665
-20 22 20 -7.0355 0.9261
-18 22 20 16.6611 -0.3764
-16 22 20 -3.7264 -1.3843
-14 22 20 -7.7810 0.4742
-12 22 20 11.2443 1.1152
-10 22 20 25.0718 -0.3034
-8 22 20 -11.3575 -1.3984
-6 22 20 0.9205 -0.5940
-4 22 20 10.5346 0.4595
-2 22 20 8.2558 -0.2973
0 22 20 -13.0169 -0.1335
2 22 20 -9.5703 0.8004
4 22 20 -2.2460 0.3369
6 22 20 -0.5531 -1.3753
8 22 20 7.4933 -0.4625
10 22 20 -3.4705 0.9987
12 22 20 -7.2763 1.1977
14 22 20 2.9547 -0.2228
16 22 20 -7.9714 -0.7891
18 22 20 10.2669 -0.0817
20 22 20 0.2234 0.5061
22 22 20 7.3115 0.2201
24 22 20 -15.9119 0.6010
-25 23 20 21.5411 -1.5057
-23 23 20 -17.3629 0.0219
-21 23 20 8.8734 1.4312
-19 23 20 27.3794 -0.0056
-17 23 20 -2.6904 -1.4051
-15 23 20 -4.1353 0.0561
-13 23 20 3.4891 1.0224
-11 23 20 5.8379 -0.6792
-9 23 20 3.1562 -0.6036
-7 23 20 -7.9784 0.8692
-5 23 20 0.6520 1.1852
-3 23 20 2.6428 -0.3506
-1 23 20 1.6132 -1.3481
1 23 20 -7.4544 0.5164
3 23 20 -2.1896 1.2831
5 23 20 2.3987 -0.3002
7 23 20 13.5132 -1.1833
9 23 20 11.2313 0.1497
11 23 20 11.7779 0.5624
13 23 20 -6.9419 -0.8908
15 23 20 -7.1149 -1.0241
17 23 20 2.7136 0.7392
19 23 20 3.4229 1.5676
21 23 20 -7.3853 -0.2849
23 23 20 5.8311 -0.2704
-24 24 20 5.9621 0.1108
-22 24 20 7.9807 -0.1044
-20 24 20 4.6666 -0.9567
-18 24 20 7.1861 -0.8910
-16 24 20 19.3352 0.3044
-14 24 20 -3.5432 0.6890
-12 24 20 -5.3217 -0.4751
-10 24 20 10.5023 -0.7473
-8 24 20 -17.5600 0.1846
-6 24 20 3.5734 -0.1819
-4 24 20 -2.5767 -0.8835
-2 24 20 0.4075 -0.5859
0 24 20 -9.7268 0.6095
2 24 20 11.0563 0.8102
4 24 20 -6.6673 -0.3700
6 24 20 6.2859 -1.0049
8 24 20 -7.8738 0.0805
10 24 20 -0.3724 0.1878
12 24 20 -0.7335 -0.0496
14 24 20 11.7405 0.6326
16 24 20 -17.6997 1.0280
18 24 20 3.8972 -0.2313
20 24 20 4.6889 -1.2709
22 24 20 11.3433 -0.7666
-23 25 20 1.0787 0.4291
-21 25 20 5.9113 0.2110
-19 25 20 6.2258 0.0490
-17 25 20 30.0077 0.3344
-15 25 20 -8.6767 -0.5498
-13 25 20 -17.8421 -1.1581
-11 25 20 -11.8483 -0.1753
-9 25 20 4.3529 0.7193
-7 25 20 -2.6519 0.4811
-5 25 20 2.5018 -0.0839
-3 25 20 6.3429 -0.5066
-1 25 20 3.8155 0.0221
1 25 20 -6.2438 0.9220
3 25 20 -5.2451 0.7655
5 25 20 22.3870 0.2575
7 25 20 -4.9224 0.6269
9 25 20 -4.6623 -0.0911
11 25 20 -23.0052 -0.8753
13 25 20 -3.3967 -0.1151
15 25 20 -2.5553 0.7322
17 25 20 -2.2025 0.7404
19 25 20 6.6705 0.6396
21 25 20 1.5972 -1.5470
-22 26 20 8.8257 -0.1975
-20 26 20 1.3409 0.8240
-18 26 20 -5.3850 0.6847
-16 26 20 -8.7199 -0.1443
-14 26 20 -14.9650 -0.2255
-12 26 20 0.3512 -0.2113
-10 26 20 -5.2267 -0.3526
-8 26 20 -12.5880 -0.1237
-6 26 20 -2.1535 0.4203
-4 26 20 -5.4405 0.4737
-2 26 20 8.6818 -0.7468
0 26 20 8.1727 -0.8061
2 26 20 12.0644 0.1466
4 26 20 -0.0008 0.2593
6 26 20 5.8349 0.4464
8 26 20 6.1274 0.3710
10 26 20 11.6553 -0.5844
12 26 20 0.9174 -0.8297
14 26 20 12.9401 0.1030
16 26 20 -24.7333 1.6895
18 26 20 -4.8927 0.8101
20 26 20 2.0484 -0.3662
-21 27 20 7.7494 1.4479
-19 27 20 -11.5818 0.6610
-17 27 20 0.4988 -1.3102
-15 27 20 3.2754 -0.0687
-13 27 20 -15.1707 1.0251
-11 27 20 -4.2219 -0.4423
-9 27 20 -1.3743 -1.7229
-7 27 20 0.7869 -0.3005
-5 27 20 -7.6980 1.2308
-3 27 20 -1.9910 0.2651
-1 27 20 2.7169 -0.8038
1 27 20 -16.1281 0.0884
3 27 20 2.7707 1.2364
5 27 20 37.0791 0.0146
7 27 20 9.1401 -0.8383
9 27 20 2.9782 0.1826
11 27 20 -5.9647 0.5513
13 27 20 -7.8575 -0.3071
15 27 20 -5.4985 -0.5273
17 27 20 2.8920 0.2441
19 27 20 -12.1218 1.8731
-20 28 20 -9.6603 0.7019
-18 28 20 7.5526 -0.7218
-16 28 20 -0.3940 0.1043
-14 28 20 -20.2065 1.5291
-12 28 20 -4.2014 -0.1311
-10 28 20 -5.8463 -1.0259
-8 28 20 -17.8129 -0.3743
-6 28 20 12.2064 1.5234
-4 28 20 -18.4030 0.5372
-2 28 20 -13.5389 -1.4671
0 28 20 12.7480 -0.9091
2 28 20 -0.1924 0.6193
4 28 20 7.2584 0.3719
6 28 20 -1.4684 -0.5533
8 28 20 9.0690 0.0421
10 28 20 4.3853 0.3831
12 28 20 -1.3865 0.2078
14 28 20 3.6315 -0.8406
16 28 20 -10.3501 0.1841
18 28 20 -2.7463 1.1332
-17 29 20 1.7159 1.1655
-15 29 20 0.4032 1.4409
-13 29 20 -3.1746 -0.1121
-11 29 20 -6.8268 -1.0728
-9 29 20 6.4333 -0.0515
-7 29 20 -0.6275 -0.0915
-5 29 20 -0.4088 -0.3437
-3 29 20 6.5695 0.6816
-1 29 20 -7.0462 1.0441
1 29 20 16.5053 -0.1955
3 29 20 6.6437 -0.6760
5 29 20 11.4883 0.0994
7 29 20 -5.9153 0.3719
9 29 20 -9.0463 0.4598
11 29 20 2.2880 0.0210
13 29 20 -3.8919 -0.4293
15 29 20 -2.2131 0.7268
-16 30 20 6.3812 1.2573
-14 30 20 7.0454 -0.9614
-12 30 20 -2.5801 0.0178
-10 30 20 0.9905 1.3838
-8 30 20 -15.5063 0.9826
-6 30 20 18.2795 -0.8861
-4 30 20 12.7644 -0.8931
-2 30 20 3.6154 1.1126
0 30 20 2.0550 0.8042
2 30 20 -2.5024 -0.9842
4 30 20 2.3775 -0.8931
6 30 20 21.1167 -0.4337
8 30 20 2.1458 0.0627
10 30 20 -14.1586 -0.5420
12 30 20 -7.0789 -0.2423
14 30 20 -25.9159 0.7725
-13 31 20 3.9195 -0.2463
-11 31 20 -2.4779 0.1833
-9 31 20 6.7182 -0.7920
-7 31 20 -1.9373 -1.2810
-5 31 20 6.2686 -0.2306
-3 31 20 7.9272 0.2844
-1 31 20 -12.3407 0.2158
1 31 20 3.0088 -0.4563
3 31 20 -1.6066 0.0610
5 31 20 -10.8654 0.3677
7 31 20 5.1181 -0.1710
9 31 20 -6.5926 -0.0648
11 31 20 0.3442 -0.3460
13 31 20 1.9930 -1.1371
-12 32 20 -8.5683 1.0761
-10 32 20 2.5259 0.0400
-8 32 20 -4.2924 -0.4165
-6 32 20 -0.6574 0.3716
-4 32 20 -1.2813 1.0146
-2 32 20 3.9671 0.1224
0 32 20 -1.2900 -0.7917
2 32 20 6.0824 0.2659
4 32 20 -4.9672 0.5975
6 32 20 6.9215 -1.1249
8 32 20 3.9427 -1.5517
10 32 20 -11.0995 0.0534
-9 33 20 2.3447 -1.5943
-7 33 20 5.9013 -0.3085
-5 33 20 4.8722 1.5098
-3 33 20 -0.1213 0.2821
-1 33 20 3.5431 -1.1359
1 33 20 8.1870 0.3397
3 33 20 18.9755 1.7813
5 33 20 10.9183 0.5906
7 33 20 5.1977 -0.3302
-2 34 20 2.3431 -0.0858
0 34 20 -2.1514 -0.0275
-33 1 21 -8.4012 3.1273
-31 1 21 -3.3985 7.9735
-29 1 21 3.6338 -4.9341
-27 1 21 10.7508 -12.7317
-25 1 21 -3.0375 5.0495
-23 1 21 4.1213 15.5934
-21 1 21 9.2732 -2.1354
-19 1 21 8.0020 -7.2098
-17 1 21 4.4168 8.7342
-15 1 21 11.1448 2.3798
-13 1 21 2.6082 -19.0254
-11 1 21 21.2137 0.0818
-9 1 21 -25.4815 31.9692
-7 1 21 -14.5795 6.2115
-5 1 21 15.0615 -36.5588
-3 1 21 17.0603 -17.9481
-1 1 21 15.2672 18.6084
1 1 21 -34.7669 6.3141
3 1 21 29.9301 -13.9968
5 1 21 -14.5594 2.8522
7 1 21 -36.8705 9.5502
9 1 21 -22.1308 -18.8822
11 1 21 -2.1481 -18.7684
13 1 21 -9.0422 19.9759
15 1 21 1.4350 26.2151
17 1 21 5.9952 -8.2550
19 1 21 -10.1883 -19.2181
21 1 21 0.8861 2.5404
23 1 21 -8.0644 9.9952
25 1 21 9.5376 -1.0936
27 1 21 3.0398 -0.1073
29 1 21 -4.2261 5.4047
31 1 21 -1.7142 -0.5162
-34 2 21 -0.8749 -3.2096
-32 2 21 7.6973 4.2008
-30 2 21 3.9738 2.0311
-28 2 21 -2.2303 -3.5113
-26 2 21 1.7427 -0.5186
-24 2 21 8.5267 5.8740
-22 2 21 4.1452 -1.4015
-20 2 21 -2.8581 -11.1911
-18 2 21 -21.2547 -0.9709
-16 2 21 -8.8259 12.4912
-14 2 21 17.4539 1.2186
-12 2 21 -8.3353 -15.1764
-10 2 21 6.5792 -5.3584
-8 2 21 9.9981 9.0354
-6 2 21 -8.9681 -0.1695
-4 2 21 -0.8585 -7.5771
-2 2 21 -19.9540 9.1195
0 2 21 -11.6495 15.6613
2 2 21 -28.0775 -7.8892
4 2 21 -31.6280 -17.0632
6 2 21 45.7233 8.8597
8 2 21 1.2547 19.4379
10 2 21 -3.4553 -2.9011
12 2 21 -16.3277 -12.5151
14 2 21 -9.4037 1.2977
16 2 21 -1.0434 3.0482
18 2 21 -12.1269 -7.5181
20 2 21 10.2397 -2.2547
22 2 21 3.1801 9.8559
24 2 21 12.6422 3.1218
26 2 21 -7.7679 -8.9438
28 2 21 0.5874 -6.0026
30 2 21 2.2151 4.1065
32 2 21 1.5646 6.3986
-33 3 21 7.0416 -1.1786
-31 3 21 1.6666 -0.3400
-29 3 21 -4.1147 -1.6490
-27 3 21 14.6651 -3.3097
-25 3 21 -2.1758 -0.7520
-23 3 21 9.7487 1.9415
-21 3 21 3.8150 1.3996
-19 3 21 0.6200 -2.0627
-17 3 21 -1.9544 -3.4847
-15 3 21 22.4464 -1.7611
-13 3 21 11.6521 0.5195
-11 3 21 29.2482 4.2134
-9 3 21 -10.7475 6.6248
-7 3 21 -29.0416 2.7026
-5 3 21 -34.1881 -4.2637
-3 3 21 -2.2711 -4.9471
-1 3 21 20.0044 3.3396
1 3 21 -10.2134 8.9506
3 3 21 48.3957 4.2011
5 3 21 8.8019 -3.3902
7 3 21 -25.3967 -4.9830
9 3 21 17.4452 -2.6004
11 3 21 0.5667 0.5324
13 3 21 20.7157 4.6063
15 3 21 29.9341 4.8400
17 3 21 -2.6395 -2.0558
19 3 21 3.5762 -6.9870
21 3 21 12.3276 -2.8886
23 3 21 -7.6729 3.3770
25 3 21 3.9059 3.5857
27 3 21 0.5088 0.3198
29 3 21 -7.9164 -1.5482
31 3 21 5.0030 -0.4392
-32 4 21 12.2023 -2.0153
-30 4 21 9.5452 0.9925
-28 4 21 -3.5667 2.8329
-26 4 21 -8.8041 0.6475
-24 4 21 -13.6644 -3.1182
-22 4 21 -13.2903 0.1463
-20 4 21 -2.6948 3.9038
-18 4 21 -39.5126 0.1729
-16 4 21 -11.2564 -4.7770
-14 4 21 23.7861 -0.9399
-12 4 21 -15.3594 2.1610
-10 4 21 -11.3543 -3.4874
-8 4 21 15.8990 -4.7647
-6 4 21 25.7273 4.8878
-4 4 21 -15.8137 8.4060
-2 4 21 -20.4865 -2.1617
0 4 21 3.3134 -6.3923
2 4 21 -41.8414 4.0429
4 4 21 -26.3842 9.1115
6 4 21 -1.2743 1.3907
8 4 21 -3.1601 -2.0411
10 4 21 -0.5839 2.3052
12 4 21 13.2782 -0.6537
14 4 21 -21.6292 -6.6179
16 4 21 6.6484 -1.3321
18 4 21 -12.1462 6.6141
20 4 21 0.6644 2.2182
22 4 21 0.8153 -5.4452
24 4 21 10.5059 -3.7533
26 4 21 -2.3855 2.1529
28 4 21 -3.2428 2.2075
30 4 21 -10.9366 2.0238
-33 5 21 10.4790 -0.5337
-31 5 21 -2.7426 0.8606
-29 5 21 -5.0211 2.3753
-27 5 21 15.6317 0.5404
-25 5 21 -14.2465 -1.3595
-23 5 21 2.9342 0.4514
-21 5 21 -1.2075 0.2942
-19 5 21 8.1881 -2.2490
-17 5 21 -2.7593 -0.1064
-15 5 21 11.1518 4.1545
-13 5 21 -3.8329 2.0511
-11 5 21 -8.6661 -3.9867
-9 5 21 -13.0336 -3.2566
-5 5 21 -15.7715 2.7910
-3 5 21 -3.8616 1.6864
-1 5 21 3.9298 2.0709
1 5 21 9.8665 -0.7999
3 5 21 -4.4986 -4.9294
5 5 21 42.9727 -1.2305
7 5 21 26.3417 4.3747
9 5 21 2.3694 3.0726
11 5 21 -34.5412 -1.4668
13 5 21 30.8537 -2.6194
15 5 21 4.3975 -2.5176
17 5 21 -21.2888 -2.1931
19 5 21 -21.9856 1.2158
21 5 21 0.0476 3.6444
23 5 21 1.9772 0.1994
25 5 21 -16.4840 -3.4254
27 5 21 -5.3575 -1.7627
29 5 21 -10.8063 -0.2833
31 5 21 -6.2744 0.1624
-32 6 21 -5.1410 0.4706
-30 6 21 2.6085 1.7826
-28 6 21 -1.7460 -2.5996
-26 6 21 5.6308 -0.8097
-24 6 21 10.2224 2.7495
-22 6 21 -25.2278 0.7158
-20 6 21 -19.0912 -5.1063
-18 6 21 -28.9064 -1.8717
-16 6 21 -6.0548 4.0334
-14 6 21 11.6921 -1.0254
-12 6 21 -25.9458 -7.0373
-10 6 21 -2.1595 -0.9200
-8 6 21 24.8995 6.5216
-6 6 21 21.9354 0.0782
-4 6 21 -7.9169 -5.8850
-2 6 21 -6.1901 2.7942
0 6 21 -12.2110 8.3049
2 6 21 -59.7156 -0.8064
4 6 21 17.0897 -2.5868
6 6 21 -29.7118 6.9651
8 6 21 -2.3661 5.9828
10 6 21 23.3008 -5.4235
12 6 21 18.4202 -5.6127
14 6 21 -3.1505 4.5565
16 6 21 -28.4648 3.5926
18 6 21 -10.2665 -3.8521
20 6 21 2.3841 -2.6526
22 6 21 -2.7069 1.6786
24 6 21 1.1159 -0.5179
26 6 21 19.2610 -2.1143
28 6 21 7.8774 0.9614
30 6 21 8.9663 3.3888
-33 7 21 1.3679 -0.9967
-31 7 21 -5.4962 0.0796
-29 7 21 -4.6822 -0.8910
-27 7 21 6.0351 -1.1302
-25 7 21 4.2025 2.0452
-23 7 21 -0.2218 1.3653
-21 7 21 -8.0137 -2.5948
-19 7 21 3.9950 -1.7401
-17 7 21 -30.8534 5.0278
-15 7 21 2.2622 6.0189
-13 7 21 -15.5438 -1.8027
-11 7 21 -23.3967 -5.2414
-9 7 21 -27.1798 0.5971
-7 7 21 32.0230 4.5126
-5 7 21 -60.8416 1.3239
-3 7 21 -30.3378 0.5430
-1 7 21 39.1379 2.3002
1 7 21 11.1517 -3.4193
3 7 21 3.0498 -8.4568
5 7 21 42.7886 -0.3653
7 7 21 13.0619 8.4453
9 7 21 -9.7823 2.7732
11 7 21 11.8758 -7.7871
13 7 21 2.3785 -7.0821
15 7 21 -6.2790 0.7978
17 7 21 16.5590 3.1276
19 7 21 -7.8335 2.1644
21 7 21 7.9536 1.5814
23 7 21 17.3692 -0.0131
25 7 21 -5.2716 -3.1270
27 7 21 6.4357 -1.5584
29 7 21 -7.6996 3.2893
31 7 21 -7.2886 6.2190
-32 8 21 -2.2576 1.4368
-30 8 21 15.7525 -0.9345
-28 8 21 6.7509 0.3287
-26 8 21 -5.3701 1.1867
-24 8 21 -7.3384 0.1907
-22 8 21 1.2271 -1.5744
-20 8 21 2.4308 -0.7576
-18 8 21 5.8393 0.5813
-16 8 21 6.3767 -0.1659
-14 8 21 16.8840 -0.7487
-12 8 21 -12.2051 0.1498
-10 8 21 -3.4622 -0.0729
-8 8 21 -15.6354 -2.5277
-6 8 21 1.5316 -2.4430
-4 8 21 15.9883 1.6234
-2 8 21 20.3842 3.3084
0 8 21 -3.6704 -0.7323
2 8 21 -14.9316 -2.0647
4 8 21 -12.2218 0.6692
6 8 21 -1.4619 1.3376
8 8 21 21.2180 -0.4853
10 8 21 1.4790 0.6652
12 8 21 -9.8059 2.2970
14 8 21 10.9658 -0.0858
16 8 21 -12.9418 -3.1431
18 8 21 -2.1627 -1.8817
20 8 21 -19.1832 1.4521
22 8 21 -4.2769 0.7549
24 8 21 3.7895 -0.5418
26 8 21 14.9551 -0.6704
28 8 21 10.0569 -0.1871
30 8 21 11.4631 -1.4667
-31 9 21 -9.7772 0.8737
-29 9 21 10.6676 2.2708
-27 9 21 0.6561 0.0471
-25 9 21 19.1785 -1.4669
-23 9 21 1.2802 1.1097
-21 9 21 -7.3601 1.4288
-19 9 21 1.7733 -1.6963
-17 9 21 -15.1075 -1.4425
-15 9 21 10.8990 2.6469
-13 9 21 -5.1545 2.2208
-11 9 21 -17.5431 -1.8002
-9 9 21 -13.6412 -1.1811
-7 9 21 28.6712 2.3955
-5 9 21 -22.5441 1.4662
-3 9 21 -17.5790 -0.4107
-1 9 21 19.5740 0.9366
1 9 21 -26.8286 1.0590
3 9 21 10.8934 -0.4724
5 9 21 28.6017 -0.9177
7 9 21 -4.6273 0.0737
9 9 21 -2.5485 -0.7782
11 9 21 6.6381 -1.8122
13 9 21 1.8251 -0.5994
15 9 21 -1.2969 -0.1483
17 9 21 1.4835 -0.2963
19 9 21 14.1401 0.9642
21 9 21 -3.9045 0.7562
23 9 21 -0.6980 -0.8224
25 9 21 -5.0641 -0.4721
27 9 21 -3.4094 2.0806
29 9 21 -14.8638 1.1792
31 9 21 -15.6945 -0.8923
-32 10 21 16.6887 1.1703
-30 10 21 6.1031 0.6384
-28 10 21 10.6697 -1.6236
-26 10 21 1.9413 -1.7739
-24 10 21 -3.7472 2.8336
-22 10 21 5.2670 2.4155
-20 10 21 0.4004 -2.0153
-18 10 21 -6.5790 -0.3051
-16 10 21 -0.3086 4.2932
-14 10 21 7.9190 1.2202
-12 10 21 7.1620 -3.2393
-10 10 21 4.4513 1.0920
-8 10 21 -1.3696 4.2765
-6 10 21 -10.2666 -2.7725
-4 10 21 -20.7764 -6.7779
-2 10 21 10.6075 0.4211
0 10 21 -9.7226 2.7160
2 10 21 36.8256 -4.3377
4 10 21 -28.4059 -4.7342
6 10 21 11.7626 1.4375
8 10 21 13.6072 1.4545
10 10 21 8.4159 -3.2818
12 10 21 -12.7862 -1.2771
14 10 21 -15.3114 3.9813
16 10 21 3.3086 1.5404
18 10 21 19.8575 -2.9639
20 10 21 -8.0674 0.1357
22 10 21 4.0324 2.5206
24 10 21 -0.8213 0.3219
26 10 21 -3.6648 -1.1907
28 10 21 -1.7201 0.3349
30 10 21 3.7512 1.3729
-31 11 21 -20.9607 1.7648
-29 11 21 5.6707 -1.7059
-27 11 21 -5.1397 -2.7239
-25 11 21 -5.7326 1.2560
-23 11 21 -0.1006 2.7250
-21 11 21 6.7080 -2.9122
-19 11 21 -2.6771 -3.0849
-17 11 21 -5.6513 2.4264
-15 11 21 19.9906 1.6384
-13 11 21 4.2493 -4.5311
-11 11 21 -19.1789 -1.4975
-9 11 21 -8.6710 5.6514
-7 11 21 -23.6705 0.9806
-5 11 21 -13.9062 -6.8020
-3 11 21 -7.0783 -1.4682
-1 11 21 -29.3058 6.3454
1 11 21 -8.8046 2.6891
3 11 21 11.9173 -2.9779
5 11 21 -6.5393 -0.8263
7 11 21 -9.9972 1.9287
9 11 21 21.6531 -1.7264
11 11 21 -12.9284 -2.5492
13 11 21 21.3117 2.8436
15 11 21 29.9059 3.5949
17 11 21 3.6623 -3.1470
19 11 21 17.1244 -4.9917
21 11 21 14.2063 -0.2019
23 11 21 14.5957 3.4760
25 11 21 4.2881 1.4615
27 11 21 -12.0135 -0.5059
29 11 21 -1.9093 -0.7585
-30 12 21 -12.3206 -2.0043
-28 12 21 -2.1198 -2.3753
-26 12 21 -0.8093 2.2184
-24 12 21 -12.1750 3.0155
-22 12 21 14.0594 -1.6376
-20 12 21 4.7548 -1.7313
-18 12 21 2.2906 2.9253
-16 12 21 -1.3050 1.7930
-14 12 21 -11.3478 -3.0799
-12 12 21 -8.8190 -1.0847
-10 12 21 29.5634 4.3444
-8 12 21 28.1602 2.3416
-6 12 21 15.2585 -3.9390
-4 12 21 -21.0713 -3.4668
-2 12 21 34.0156 1.7365
0 12 21 -17.3325 1.4277
2 12 21 -7.2822 -2.3069
4 12 21 -19.4076 -1.9347
6 12 21 20.1541 1.4341
8 12 21 11.3849 0.4028
10 12 21 2.8717 -2.8928
12 12 21 0.3665 -1.3573
14 12 21 -12.4153 3.0069
16 12 21 15.0414 2.7093
18 12 21 16.1026 -1.5310
20 12 21 -5.1189 -1.8490
22 12 21 20.8330 0.9939
24 12 21 -1.6675 1.7669
26 12 21 -4.3145 -0.6100
28 12 21 3.5446 -0.9425
30 12 21 -0.6503 -0.6305
-31 13 21 -7.8113 -2.1659
-29 13 21 5.7912 -0.0790
-27 13 21 3.4780 0.1402
-25 13 21 11.8886 -0.7054
-23 13 21 9.7093 -1.0909
-21 13 21 -9.6330 1.0472
-19 13 21 1.9876 2.2702
-17 13 21 2.0300 -1.0620
-15 13 21 29.9902 -3.3677
-13 13 21 17.1165 -0.9751
-11 13 21 18.0011 2.1207
-9 13 21 7.5634 1.0224
-7 13 21 -27.0343 -0.7343
-5 13 21 1.4176 -0.3196
-3 13 21 -5.8280 -1.0238
-1 13 21 -12.4351 -2.0091
1 13 21 -12.5785 0.6089
3 13 21 1.1518 3.5872
5 13 21 11.6985 1.5058
7 13 21 -5.5073 -2.5792
9 13 21 19.0768 -2.0658
11 13 21 -15.7373 0.9645
13 13 21 -8.6189 1.7784
15 13 21 7.5277 0.4901
17 13 21 -5.0985 0.0201
19 13 21 -7.1784 -0.0762
21 13 21 -6.6202 -1.6155
23 13 21 -0.4148 -0.6959
25 13 21 -6.1507 1.0873
27 13 21 4.9306 1.6767
29 13 21 -3.8441 -1.2610
-30 14 21 -1.0802 0.6249
-28 14 21 5.4287 0.7220
-26 14 21 18.8563 -0.0167
-24 14 21 5.4275 -1.1639
-22 14 21 19.1960 -0.3990
-20 14 21 -15.8473 0.3371
-18 14 21 2.4559 0.1164
-16 14 21 16.6796 0.4543
-14 14 21 -11.0222 1.1997
-12 14 21 -25.3845 0.2986
-10 14 21 -14.6513 -0.7417
-8 14 21 0.9703 -0.3940
-6 14 21 3.8119 0.9889
-4 14 21 -0.5993 1.2313
-2 14 21 33.8683 0.1515
0 14 21 1.9157 -1.0968
2 14 21 -18.6991 -1.1283
4 14 21 4.2770 -0.5618
6 14 21 8.3157 -0.0982
8 14 21 -15.3571 0.0682
10 14 21 14.2633 0.1587
12 14 21 -5.6335 -0.3580
14 14 21 -8.8023 -0.7946
16 14 21 5.9741 -0.5565
18 14 21 -1.8387 0.1771
20 14 21 -3.1338 0.3818
22 14 21 0.4653 -0.7339
24 14 21 5.6026 -0.6581
26 14 21 -4.5074 0.0833
28 14 21 -1.9958 1.0480
-29 15 21 -17.2707 -0.3928
-27 15 21 -21.5274 -0.8205
-25 15 21 7.6541 0.7680
-23 15 21 -1.5126 0.6192
-21 15 21 0.6885 -0.5620
-19 15 21 19.5303 -0.6661
-17 15 21 -7.1480 0.0089
-15 15 21 15.2050 -0.8617
-13 15 21 -8.7069 -0.8100
-11 15 21 5.0499 0.7028
-9 15 21 12.7332 0.7756
-7 15 21 9.4779 -1.2116
-5 15 21 18.1059 -1.0501
-3 15 21 14.0489 0.8339
-1 15 21 22.2079 0.3654
1 15 21 -1.8307 -0.6027
3 15 21 -8.9247 0.6017
5 15 21 -4.5227 1.7472
7 15 21 15.2022 0.8080
9 15 21 9.4302 -0.6836
11 15 21 8.7438 0.4971
13 15 21 -2.6887 1.1133
15 15 21 -3.4264 -0.3655
17 15 21 10.0100 -0.5675
19 15 21 -6.5373 0.8027
21 15 21 -2.3872 0.6311
23 15 21 -3.1957 -1.0946
25 15 21 -10.5214 -1.3043
27 15 21 17.0970 0.4768
-30 16 21 1.9827 1.4971
-28 16 21 8.3527 -1.0844
-26 16 21 3.7891 0.5543
-24 16 21 -2.3513 0.7466
-22 16 21 -1.9496 -0.7136
-20 16 21 -11.6867 -1.8516
-18 16 21 4.3341 0.5692
-16 16 21 20.6701 2.3097
-14 16 21 -6.8861 -0.9766
-12 16 21 21.3243 -2.6439
-10 16 21 -2.8284 0.7400
-8 16 21 0.7924 2.8445
-6 16 21 5.1304 -0.4709
-4 16 21 -17.9231 -1.4916
-2 16 21 -15.7491 1.8237
0 16 21 -2.7103 1.7970
2 16 21 -1.3785 -2.4428
4 16 21 20.4033 -1.7787
6 16 21 -21.4435 2.3513
8 16 21 -5.5453 1.8659
10 16 21 -2.6455 -1.5488
12 16 21 -17.4643 -1.1215
14 16 21 27.4881 1.6276
16 16 21 7.6261 0.2616
18 16 21 2.4102 -1.9392
20 16 21 16.8629 -0.6415
22 16 21 -3.9431 1.4820
24 16 21 8.4268 0.0904
26 16 21 -0.6758 -1.4704
28 16 21 -1.9001 0.1430
-29 17 21 -7.8553 -1.3354
-27 17 21 -6.2933 1.2577
-25 17 21 4.6331 1.1994
-23 17 21 9.4802 -1.1768
-21 17 21 5.7837 -1.7126
-19 17 21 12.6578 0.2233
-17 17 21 -9.8136 1.3884
-15 17 21 5.3559 -0.0609
-13 17 21 -8.7938 -0.7411
-11 17 21 -3.7902 0.1422
-9 17 21 11.3572 -0.9743
-7 17 21 -7.5107 -1.3375
-5 17 21 -1.0534 0.2693
-3 17 21 8.3992 2.0102
-1 17 21 -7.1292 1.5716
1 17 21 -3.3152 -0.5690
3 17 21 -3.2637 -1.4549
5 17 21 -6.7843 -0.0011
7 17 21 -6.0841 1.7343
9 17 21 -7.0903 1.6769
11 17 21 10.5283 0.0997
13 17 21 -11.2222 -1.1713
15 17 21 -12.9262 -1.2666
17 17 21 -8.6766 -0.2149
19 17 21 5.0900 -0.0038
21 17 21 3.0459 0.1058
23 17 21 9.0647 -0.3565
25 17 21 11.0444 -0.8548
27 17 21 1.7267 -2.3160
-28 18 21 11.1495 0.0391
-26 18 21 0.4004 0.2910
-24 18 21 6.4912 -0.0023
-22 18 21 3.8302 0.0375
-20 18 21 -4.3350 -0.2878
-18 18 21 -4.6102 -0.4198
-16 18 21 5.3829 -0.4146
-14 18 21 -5.5265 -0.4167
-12 18 21 14.9855 0.8236
-10 18 21 -17.4517 1.6751
-8 18 21 -11.9560 0.2977
-6 18 21 -4.6631 -1.0842
-4 18 21 1.9762 -0.6844
-2 18 21 26.8848 0.7622
0 18 21 -28.4640 1.1085
2 18 21 35.0697 1.1251
4 18 21 -0.9880 0.3061
6 18 21 -41.4113 -0.6972
8 18 21 19.1329 -1.3264
10 18 21 -16.8908 0.3808
12 18 21 -13.9469 2.2688
14 18 21 5.6290 0.3816
16 18 21 11.7763 -1.5104
18 18 21 9.4697 -1.1203
20 18 21 17.6554 0.5529
22 18 21 6.8280 -0.0161
24 18 21 -6.4023 -0.1508
26 18 21 -8.3993 -0.3374
-27 19 21 2.0899 2.8065
-25 19 21 -1.7267 -0.1861
-23 19 21 9.6854 -0.8594
-21 19 21 9.5028 0.3043
-19 19 21 8.6146 0.5868
-17 19 21 -11.9326 0.0567
-15 19 21 5.3214 -0.2032
-13 19 21 2.3956 0.1678
-11 19 21 19.6691 0.1221
-9 19 21 3.0368 -0.8251
-7 19 21 -13.9096 -0.6406
-5 19 21 -0.9980 0.7829
-3 19 21 -11.3190 1.2531
-1 19 21 6.5682 -0.3930
1 19 21 -24.4823 -1.4002
3 19 21 2.6575 0.2370
5 19 21 13.0621 1.5077
7 19 21 -28.8851 -0.2362
9 19 21 -1.9744 -0.5960
11 19 21 11.1524 1.1572
13 19 21 2.0500 0.9112
15 19 21 8.1015 -1.2509
17 19 21 -7.9465 -1.1297
19 19 21 8.5548 0.3796
21 19 21 -8.0010 0.6603
23 19 21 3.9437 -0.9257
25 19 21 3.0691 -0.5516
-26 20 21 5.4740 0.0262
-24 20 21 12.3393 0.5968
-22 20 21 12.9260 -0.1220
-20 20 21 -1.9973 -0.7282
-18 20 21 3.8273 0.1822
-16 20 21 4.8247 0.7096
-14 20 21 1.6730 -0.5158
-12 20 21 8.1954 -0.6292
-10 20 21 6.5295 1.1619
-8 20 21 9.4874 1.3699
-6 20 21 -3.5974 -0.4758
-4 20 21 19.2026 -0.7188
-2 20 21 23.9422 0.9627
0 20 21 -13.1597 1.0903
2 20 21 11.4599 -0.2430
4 20 21 -11.3431 0.1958
6 20 21 -13.7860 0.6608
8 20 21 1.2544 -0.6176
10 20 21 -13.7779 -1.4351
12 20 21 0.9349 0.1299
14 20 21 -8.6015 0.6201
16 20 21 2.2721 -0.3678
18 20 21 18.0588 -1.2131
20 20 21 18.8492 -0.1159
22 20 21 23.7257 -0.1269
24 20 21 2.0720 -0.0875
-25 21 21 1.1874 -0.0066
-23 21 21 -5.8598 -0.1860
-21 21 21 12.7622 -1.2062
-19 21 21 7.5348 0.5127
-17 21 21 -0.4374 1.2821
-15 21 21 -0.5718 -0.3635
-13 21 21 -5.4530 -0.7004
-11 21 21 11.7430 0.3852
-9 21 21 -11.8375 0.8393
-7 21 21 3.4551 -0.3608
-5 21 21 9.3014 -0.9236
-3 21 21 13.5294 -0.3544
-1 21 21 0.4434 0.1055
1 21 21 -0.7576 -0.4015
3 21 21 -3.6615 -0.4698
5 21 21 -10.8855 -0.1167
7 21 21 -14.5552 0.5398
9 21 21 14.8047 0.0903
11 21 21 1.2559 -0.2301
13 21 21 -14.4977 -0.1405
15 21 21 11.0245 0.8035
17 21 21 1.7762 0.5074
19 21 21 17.0342 -1.2918
21 21 21 -17.9164 -0.6591
23 21 21 2.3437 -0.0370
-26 22 21 10.4859 1.8940
-24 22 21 5.5148 0.4978
-22 22 21 3.5109 -1.0813
-20 22 21 13.8726 -0.0694
-18 22 21 4.3544 1.2953
-16 22 21 0.9541 0.1127
-14 22 21 -8.7015 -1.5090
-12 22 21 -2.2591 -0.2874
-10 22 21 -1.3464 0.3774
-8 22 21 -2.9074 0.0635
-6 22 21 8.8813 -0.0357
-4 22 21 11.1242 0.6799
-2 22 21 -1.9789 0.7122
0 22 21 -12.9321 -0.6060
2 22 21 -3.6074 -0.5965
4 22 21 -5.9949 0.7469
6 22 21 0.7917 0.8470
8 22 21 -10.8935 -0.2964
10 22 21 4.3466 0.0243
12 22 21 6.4627 -0.8870
14 22 21 -21.8444 -0.8866
16 22 21 11.5590 0.4490
18 22 21 32.5867 0.8012
20 22 21 3.0990 0.2458
22 22 21 1.1600 -1.5828
24 22 21 -5.5887 -0.6582
-25 23 21 3.3843 -0.7772
-23 23 21 0.9001 -1.0903
-21 23 21 6.5473 0.6409
-19 23 21 -12.6471 1.5496
-17 23 21 -13.5654 -0.8054
-15 23 21 -9.5883 -0.9536
-13 23 21 -4.7371 1.7006
-11 23 21 2.9896 1.2664
-9 23 21 -1.0550 -1.3603
-7 23 21 -3.6542 -0.5424
-5 23 21 -10.4176 1.5002
-3 23 21 17.1968 -0.0368
-1 23 21 4.3487 -2.0583
1 23 21 3.6556 -0.6917
3 23 21 7.3336 1.1022
5 23 21 7.8505 -0.1269
7 23 21 -6.5540 -1.6596
9 23 21 7.4624 -0.1913
11 23 21 -9.9140 1.1971
13 23 21 13.6195 -0.1522
15 23 21 5.8874 -1.2161
17 23 21 -36.0746 1.1963
19 23 21 8.9176 0.7474
21 23 21 6.0047 -1.2924
23 23 21 13.2363 -1.2636
-24 24 21 -7.7257 0.2284
-22 24 21 -3.0505 0.6546
-20 24 21 3.8079 1.0494
-18 24 21 8.5431 -1.0573
-16 24 21 8.3501 -1.3311
-14 24 21 -0.6093 0.7593
-12 24 21 -15.9039 1.3393
-10 24 21 6.8507 -1.7553
-8 24 21 -9.2570 -2.0859
-6 24 21 7.9814 1.3180
-4 24 21 -2.0333 2.1370
-2 24 21 10.6336 -0.8225
0 24 21 1.6579 -1.8242
2 24 21 6.4151 0.5231
4 24 21 -5.5450 1.4313
6 24 21 -6.3898 0.2745
8 24 21 -9.9898 -0.6808
10 24 21 4.6161 0.4235
12 24 21 -0.8473 0.1264
14 24 21 -23.0177 -0.9824
16 24 21 6.8429 -0.4026
18 24 21 14.9132 0.8199
20 24 21 8.1557 0.8674
22 24 21 -12.0235 0.9130
-23 25 21 7.2188 1.3146
-21 25 21 -12.4939 0.4962
-19 25 21 -7.5363 0.0132
-17 25 21 -17.5167 -0.4796
-15 25 21 -15.6246 0.5190
-13 25 21 7.6005 0.8765
-11 25 21 -6.3754 -0.2416
-9 25 21 -21.2498 -0.8135
-7 25 21 17.8066 0.5176
-5 25 21 -10.3537 0.8337
-3 25 21 2.7248 -0.3395
-1 25 21 -1.2625 -0.5193
1 25 21 -16.0684 0.6673
3 25 21 5.4722 -0.0245
5 25 21 9.5770 -1.1142
7 25 21 2.4298 -0.5346
9 25 21 6.9244 1.1992
11 25 21 11.8084 0.1577
13 25 21 6.6619 -1.3136
15 25 21 13.5993 -0.3663
17 25 21 -1.9144 1.4650
19 25 21 -8.6858 -0.7070
21 25 21 1.6977 0.5241
-22 26 21 -7.0272 -0.6280
-20 26 21 -7.8590 -0.5664
-18 26 21 1.4005 0.2314
-16 26 21 -7.3191 0.4167
-14 26 21 -8.0878 0.0614
-12 26 21 -20.1384 -0.5873
-10 26 21 14.9548 -0.2187
-8 26 21 -9.9165 0.0240
-6 26 21 12.9769 -0.3978
-4 26 21 -14.5512 -0.4096
-2 26 21 1.7221 0.1294
0 26 21 1.9500 0.6175
2 26 21 -3.1344 -0.1533
4 26 21 33.6924 -0.4929
6 26 21 0.4922 0.2591
8 26 21 -2.4923 0.4989
10 26 21 0.7640 0.0264
12 26 21 -2.0687 0.0808
14 26 21 0.3506 0.3131
16 26 21 0.9557 -0.2090
18 26 21 0.1200 0.2620
20 26 21 -1.3711 0.2564
-19 27 21 0.2635 1.1089
-17 27 21 -12.4286 0.2041
-15 27 21 -8.1115 -0.5313
-13 27 21 16.1828 -0.1019
-11 27 21 -6.3521 0.6588
-9 27 21 -1.8109 0.8166
-7 27 21 -0.9642 -0.4311
-5 27 21 7.1664 -0.9943
-3 27 21 2.6324 -0.0379
-1 27 21 -10.1363 0.5179
1 27 21 -8.3864 0.1852
3 27 21 -13.2121 -0.2039
5 27 21 7.1523 -0.3232
7 27 21 9.9995 -0.2222
9 27 21 -2.7587 -0.2771
11 27 21 15.1521 -0.3061
13 27 21 -16.0585 0.0137
15 27 21 -9.2385 0.1179
17 27 21 -1.1487 0.3952
-18 28 21 6.6909 -0.8157
-16 28 21 -4.2662 -1.0677
-14 28 21 0.4098 0.0498
-12 28 21 -1.3536 0.5976
-10 28 21 3.8030 -0.1969
-8 28 21 1.6634 -0.4147
-6 28 21 -4.5197 -0.1044
-4 28 21 -3.8987 0.1432
-2 28 21 13.1691 0.1052
0 28 21 -3.8152 0.3606
2 28 21 0.4122 0.6957
4 28 21 5.8967 0.5337
6 28 21 -5.2427 -0.7691
8 28 21 3.8357 -0.7123
10 28 21 -4.5448 0.5891
12 28 21 -6.0828 1.5456
14 28 21 3.2085 0.1428
16 28 21 -1.8374 -1.2011
-17 29 21 -0.7199 -1.1300
-15 29 21 -3.6374 -0.0704
-13 29 21 1.8635 -0.2623
-11 29 21 -8.3266 0.1629
-9 29 21 12.8290 -0.5705
-7 29 21 -5.7963 0.0387
-5 29 21 15.6899 0.6890
-3 29 21 15.8211 -0.2371
-1 29 21 -0.2187 -1.1720
1 29 21 -8.9565 0.4707
3 29 21 8.1452 1.9209
5 29 21 4.5703 -0.0954
7 29 21 14.2903 -0.9666
9 29 21 -13.2934 -0.7111
11 29 21 -1.1986 -0.1864
13 29 21 -11.6715 -0.8588
15 29 21 -10.0461 -0.7746
-16 30 21 -3.2169 0.2430
-14 30 21 16.5714 0.1218
-12 30 21 -3.0414 -0.4094
-10 30 21 1.9382 0.3167
-8 30 21 21.6059 0.7088
-6 30 21 -10.2731 0.4494
-4 30 21 11.2525 -0.2730
-2 30 21 9.5802 -0.5967
0 30 21 -1.2283 0.5072
2 30 21 8.3457 0.5998
4 30 21 1.4535 -0.0520
6 30 21 -3.7362 0.0661
8 30 21 7.0763 0.1040
10 30 21 1.3974 0.4593
12 30 21 -7.2170 -0.3079
14 30 21 16.4867 0.2309
-13 31 21 11.3251 -1.1911
-11 31 21 -0.3843 -0.1531
-9 31 21 -0.6354 0.3363
-7 31 21 12.4862 -0.5602
-5 31 21 -10.7651 -0.3829
-3 31 21 -6.4186 0.2194
-1 31 21 -1.1406 0.0062
1 31 21 -27.0603 -0.0833
3 31 21 9.4899 0.4349
5 31 21 0.7290 -0.7883
7 31 21 7.7960 0.5381
9 31 21 -1.8080 0.1441
11 31 21 7.7465 -1.1355
-10 32 21 0.1345 0.9145
-8 32 21 2.2861 0.0429
-6 32 21 -2.5496 0.4526
-4 32 21 0.0346 0.2303
-2 32 21 -3.9765 -0.0369
0 32 21 -0.0342 0.0564
2 32 21 14.9734 0.0641
4 32 21 10.6998 -0.5133
6 32 21 4.1157 -0.2838
8 32 21 5.5855 -0.2036
-7 33 21 8.3425 -1.0938
-5 33 21 -10.3535 0.7974
-3 33 21 -7.4920 0.3612
-1 33 21 10.3077 -1.3823
1 33 21 -12.9603 -0.9984
3 33 21 -5.5582 0.2526
5 33 21 10.2941 -0.0039
-32 0 22 -13.2950 -1.9569
-30 0 22 11.1383 -1.2418
-28 0 22 -11.6694 4.9893
-26 0 22 -5.8377 2.3707
-24 0 22 21.8799 -7.2576
-22 0 22 0.5014 -1.3893
-20 0 22 7.7458 14.9060
-18 0 22 1.2499 12.6948
-16 0 22 11.0414 -4.5504
-14 0 22 -5.7360 -9.1377
-12 0 22 -6.2333 0.8885
-10 0 22 38.0920 -0.1211
-8 0 22 41.1220 -10.7820
-6 0 22 1.3134 -7.5365
-4 0 22 -19.9337 -5.1025
-2 0 22 -6.2393 -22.7575
0 0 22 28.8873 -31.5503
2 0 22 33.0401 -6.4326
4 0 22 -16.6331 17.1556
6 0 22 17.1600 5.1905
8 0 22 9.0881 -9.6222
10 0 22 8.3662 1.3115
12 0 22 -27.8978 11.1978
14 0 22 -18.6026 6.1877
16 0 22 -19.3866 6.9852
18 0 22 -10.5027 14.1925
20 0 22 2.9569 5.1184
22 0 22 14.0815 -11.2869
24 0 22 4.7581 -5.9579
26 0 22 8.2390 8.5640
28 0 22 -1.4639 5.2032
30 0 22 11.3985 -4.6109
-33 1 22 10.0865 -1.7293
-31 1 22 4.8643 -7.3749
-29 1 22 10.8355 3.1072
-27 1 22 5.1545 11.7027
-25 1 22 -16.3209 -3.4119
-23 1 22 2.3708 -10.5276
-21 1 22 3.7073 7.6747
-19 1 22 16.3245 10.5301
-17 1 22 -15.7037 -15.5560
-15 1 22 15.3606 -13.6487
-13 1 22 17.0789 19.2439
-11 1 22 -14.3435 12.3527
-9 1 22 2.5714 -29.1783
-7 1 22 21.0238 -20.4514
-5 1 22 -10.8548 23.1324
-3 1 22 -1.5203 12.3673
-1 1 22 72.0919 -24.4755
1 1 22 -49.9926 -7.0285
3 1 22 -21.9968 22.8174
5 1 22 8.0778 -1.7335
7 1 22 -42.9880 -24.7192
9 1 22 -11.0758 8.0142
11 1 22 10.8774 29.5863
13 1 22 -3.8545 -3.4794
15 1 22 14.0505 -23.6660
17 1 22 -0.6158 2.7380
19 1 22 16.8365 17.6268
21 1 22 -11.1856 -0.7564
23 1 22 -14.6705 -8.0467
25 1 22 9.9426 3.9965
27 1 22 5.0241 4.1887
29 1 22 -12.4829 -5.3787
31 1 22 -6.9742 -3.2157
-32 2 22 0.8095 -0.7433
-30 2 22 7.6343 -0.5382
-28 2 22 -13.8263 -0.9084
-26 2 22 -16.9756 -1.7084
-24 2 22 -5.3441 -0.0620
-22 2 22 -12.4639 0.9020
-20 2 22 6.4527 1.1124
-18 2 22 -8.8431 1.4294
-16 2 22 12.5440 1.4175
-14 2 22 17.4205 1.5762
-12 2 22 37.7935 1.2155
-10 2 22 8.9189 2.3313
-8 2 22 7.9617 2.6481
-6 2 22 -8.6532 -0.5435
-4 2 22 -41.2633 -4.2315
-2 2 22 -16.1406 -3.3991
0 2 22 -8.3932 -0.7962
2 2 22 -1.3347 -0.8628
4 2 22 44.8723 -1.0402
6 2 22 49.7079 -1.4831
8 2 22 -12.3755 -2.3052
10 2 22 2.0354 -1.5486
12 2 22 -2.8099 1.2444
14 2 22 -13.2523 3.3908
16 2 22 2.6987 2.5121
18 2 22 -7.4804 -1.0184
20 2 22 -18.1069 -2.5261
22 2 22 -1.6765 -1.0061
24 2 22 -5.0733 1.8985
26 2 22 2.4111 1.7963
28 2 22 -4.2773 0.0001
30 2 22 -16.9581 -2.0457
-33 3 22 -1.1424 0.9797
-31 3 22 1.6368 -0.9898
-29 3 22 3.5572 -0.9621
-27 3 22 0.2174 1.6888
-25 3 22 -16.6896 1.8438
-23 3 22 14.8919 -0.6765
-21 3 22 -10.0524 -1.0559
-19 3 22 20.2980 1.0507
-17 3 22 -12.5970 0.2954
-15 3 22 -9.5616 -0.3205
-13 3 22 -7.2463 1.1803
-11 3 22 -3.6697 0.0667
-9 3 22 52.5975 -5.3872
-7 3 22 81.5182 -5.0708
-5 3 22 -1.1300 2.4059
-3 3 22 -6.1869 3.7552
-1 3 22 44.8831 -2.4276
1 3 22 21.4121 -4.5338
3 3 22 -7.0967 -1.6508
5 3 22 4.5586 0.2048
7 3 22 -10.5876 2.6700
9 3 22 16.3106 6.6626
11 3 22 -2.3502 3.9258
13 3 22 16.9373 -3.7752
15 3 22 2.3100 -5.0200
17 3 22 -14.8761 1.8193
19 3 22 1.7705 5.2990
21 3 22 -0.1240 2.2751
23 3 22 3.4043 -1.1736
25 3 22 -3.6024 -2.8621
27 3 22 -10.7821 -3.2317
29 3 22 -3.5657 0.1546
31 3 22 4.7744 5.4932
-32 4 22 -8.0491 -0.0512
-30 4 22 -3.2607 -3.6168
-28 4 22 -4.8154 1.9316
-26 4 22 -11.3376 3.4937
-24 4 22 10.9893 -0.7297
-22 4 22 -28.2627 -2.4130
-20 4 22 -7.4225 1.3053
-18 4 22 -16.6224 0.2226
-16 4 22 1.5359 -3.7983
-14 4 22 -3.1454 0.5042
-12 4 22 -1.2454 5.2380
-10 4 22 -14.2520 -2.0063
-8 4 22 -3.1118 -9.2923
-6 4 22 2.0838 -2.0517
-4 4 22 12.0541 5.5816
-2 4 22 31.9599 1.4487
0 4 22 32.3408 -2.5917
2 4 22 -64.8638 -0.0096
4 4 22 8.3479 -0.4506
6 4 22 11.4904 -4.1490
8 4 22 -20.1765 -0.5587
10 4 22 22.3929 7.4410
12 4 22 21.7682 3.4941
14 4 22 -11.1371 -5.5440
16 4 22 -17.7910 -4.2251
18 4 22 -2.3935 2.4782
20 4 22 -18.9147 2.3529
22 4 22 -14.4589 0.3127
24 4 22 -1.7887 0.9203
26 4 22 7.1890 0.8418
28 4 22 4.1830 -1.9390
30 4 22 -19.4639 -0.4433
-33 5 22 -6.0222 -2.7346
-31 5 22 3.8698 -3.3953
-29 5 22 1.2040 1.6341
-27 5 22 3.4312 4.0329
-25 5 22 -16.9305 -3.8225
-23 5 22 10.9543 -6.1258
-21 5 22 -6.0600 4.6870
-19 5 22 7.4129 5.2457
-17 5 22 0.6480 -8.4175
-15 5 22 10.0820 -5.8848
-13 5 22 16.7658 11.1754
-11 5 22 -7.9521 6.8268
-9 5 22 12.2353 -11.3128
-7 5 22 95.4895 -4.8402
-5 5 22 -56.0976 12.7874
-3 5 22 -35.0519 3.8264
-1 5 22 17.2849 -12.3876
1 5 22 -5.3969 0.0579
3 5 22 1.2635 14.2618
5 5 22 25.6741 0.0545
7 5 22 15.3838 -12.1821
9 5 22 -10.2297 1.9554
11 5 22 0.4976 11.7967
13 5 22 -19.8256 -1.5556
15 5 22 7.4891 -8.7522
17 5 22 13.5973 2.2962
19 5 22 3.4563 5.7362
21 5 22 5.6530 -4.1576
23 5 22 3.2244 -5.4522
25 5 22 -12.1939 2.6820
27 5 22 -8.2338 3.6033
29 5 22 -7.5482 -1.3529
31 5 22 7.8521 -2.0431
-32 6 22 -8.9013 -3.3194
-30 6 22 -3.3927 1.0029
-28 6 22 11.4651 2.2760
-26 6 22 4.2004 -0.7937
-24 6 22 12.8363 -1.5286
-22 6 22 -22.7655 1.8486
-20 6 22 0.6264 1.7404
-18 6 22 -7.3978 -2.4235
-16 6 22 -13.8441 -1.6379
-14 6 22 -12.9958 2.7107
-12 6 22 1.6126 1.7723
-10 6 22 23.9042 -2.1933
-8 6 22 -26.2563 -1.5354
-6 6 22 -9.6446 3.0967
-4 6 22 42.5214 4.0264
-2 6 22 23.2219 1.0857
0 6 22 16.2320 -0.7426
2 6 22 -7.1824 -0.6039
4 6 22 2.3250 -0.3040
6 6 22 -25.2920 0.2106
8 6 22 -7.5340 1.2434
10 6 22 -14.2897 1.0428
12 6 22 25.3169 -1.2815
14 6 22 -23.1423 -4.0164
16 6 22 -11.5152 -2.9921
18 6 22 14.2694 2.0899
20 6 22 -17.0755 3.9603
22 6 22 -1.4194 0.5510
24 6 22 14.5073 -3.0774
26 6 22 13.9492 -1.7892
28 6 22 11.5493 0.2421
30 6 22 -7.9284 2.7248
-31 7 22 -3.8772 0.7314
-29 7 22 9.7473 0.6661
-27 7 22 -5.9072 -1.8665
-25 7 22 -1.7311 -0.7781
-23 7 22 0.7790 1.9336
-21 7 22 22.6693 -0.1567
-19 7 22 11.9762 -2.2521
-17 7 22 0.0832 1.0293
-15 7 22 -1.1729 2.9241
-13 7 22 21.4178 -1.5717
-11 7 22 -23.3086 -2.7391
-9 7 22 -23.4773 2.1182
-7 7 22 29.2499 2.0418
-5 7 22 -36.0915 -4.4336
-3 7 22 -11.7931 -3.7954
-1 7 22 19.3209 2.5023
1 7 22 -14.4314 2.2884
3 7 22 -26.1585 -1.9604
5 7 22 14.3908 -0.5232
7 7 22 14.7057 1.4261
9 7 22 1.0978 -1.4729
11 7 22 22.5772 -1.8986
13 7 22 -18.3347 2.8506
15 7 22 -2.8246 4.5156
17 7 22 -25.5066 -1.3780
19 7 22 11.4782 -4.6377
21 7 22 -7.8900 -1.1186
23 7 22 -6.0698 1.6353
25 7 22 6.8855 1.0661
27 7 22 -7.7394 0.1894
29 7 22 -1.5768 0.7046
31 7 22 -0.3278 -1.9542
-32 8 22 10.5217 1.6589
-30 8 22 -6.6691 1.4971
-28 8 22 -4.9407 -2.9013
-26 8 22 1.9666 -0.5408
-24 8 22 -6.4628 1.8501
-22 8 22 -11.3368 0.2640
-20 8 22 -11.7154 -3.7620
-18 8 22 2.0686 -1.2378
-16 8 22 26.0430 2.1305
-14 8 22 -18.2458 -1.3392
-12 8 22 -3.7740 -3.9831
-10 8 22 8.1506 2.1585
-8 8 22 9.3272 7.1029
-6 8 22 -2.4282 1.1878
-4 8 22 1.5533 -3.8634
-2 8 22 -1.6493 1.6116
0 8 22 18.9828 6.1372
2 8 22 28.9569 1.5489
4 8 22 -39.1782 -1.2855
6 8 22 -39.1597 2.6026
8 8 22 21.9287 2.4278
10 8 22 -14.2900 -4.5138
12 8 22 5.2899 -5.2180
14 8 22 -22.6669 2.9812
16 8 22 16.2752 4.7425
18 8 22 16.8955 -2.2694
20 8 22 -0.6994 -4.9483
22 8 22 9.6238 0.1534
24 8 22 -0.3169 2.0386
26 8 22 5.9335 -0.1588
28 8 22 -5.0678 -0.7195
30 8 22 -4.6681 2.7412
-31 9 22 -2.6622 0.0084
-29 9 22 6.9506 0.5177
-27 9 22 2.2929 0.7599
-25 9 22 1.8061 -1.0554
-23 9 22 -5.4035 -1.6794
-21 9 22 9.7714 2.2560
-19 9 22 -1.0351 4.0673
-17 9 22 -1.2998 0.7440
-15 9 22 -0.1561 -2.2031
-13 9 22 11.9763 -0.6293
-11 9 22 3.8237 0.4172
-9 9 22 -0.7470 -0.6007
-7 9 22 -16.6978 1.3577
-5 9 22 -0.6839 2.8836
-3 9 22 -13.3227 -1.2456
-1 9 22 -63.0409 -5.6232
1 9 22 -22.6822 -2.1061
3 9 22 13.0233 3.9398
5 9 22 0.9802 2.8028
7 9 22 5.2783 -2.6013
9 9 22 -5.8613 -2.1063
11 9 22 -12.5474 0.3792
13 9 22 1.9316 -0.8092
15 9 22 -0.6364 -0.6722
17 9 22 -3.8302 2.0028
19 9 22 15.6647 1.4997
21 9 22 -13.3788 -2.1300
23 9 22 -2.4355 -2.2477
25 9 22 1.1549 1.6056
27 9 22 -10.5158 0.6625
29 9 22 -0.7909 0.2296
-32 10 22 9.3006 -1.8645
-30 10 22 0.5801 0.3726
-28 10 22 -4.6754 1.7880
-26 10 22 1.4023 -1.8882
-24 10 22 0.1508 -2.7392
-22 10 22 7.8782 0.6035
-20 10 22 -1.1607 1.3049
-18 10 22 -14.1604 -1.5553
-16 10 22 -6.2436 -1.7662
-14 10 22 -0.4685 0.4536
-12 10 22 13.7009 0.1052
-10 10 22 -1.0954 -1.5751
-8 10 22 13.7802 -0.1217
-6 10 22 -2.6871 1.8633
-4 10 22 11.4191 0.5679
-2 10 22 -0.0961 -1.7414
0 10 22 11.0341 -0.4999
2 10 22 -16.3752 3.3687
4 10 22 -28.5052 3.5549
6 10 22 6.3441 -0.6705
8 10 22 12.9324 -2.9811
10 10 22 25.6106 -0.4513
12 10 22 -1.2833 1.7713
14 10 22 -40.3270 0.6439
16 10 22 11.9804 -0.1426
18 10 22 -5.8688 0.2828
20 10 22 -14.3130 -1.1900
22 10 22 8.7213 -2.7258
24 10 22 -0.2144 -0.6496
26 10 22 13.1268 2.9188
28 10 22 -1.7964 1.4279
30 10 22 11.7584 -2.5653
-31 11 22 -5.5114 3.3040
-29 11 22 1.5277 0.8764
-27 11 22 2.0653 -0.2335
-25 11 22 -1.3870 -1.6461
-23 11 22 8.6859 1.0131
-21 11 22 -3.0341 2.2459
-19 11 22 -6.0902 0.4699
-17 11 22 13.3333 -0.5733
-15 11 22 0.7976 -0.2469
-13 11 22 -27.7747 -0.0167
-11 11 22 -14.9816 0.0853
-9 11 22 -9.1842 1.1666
-7 11 22 -22.8825 1.9280
-5 11 22 -6.5557 0.7351
-3 11 22 -7.7931 -0.9917
1 11 22 -9.5368 -0.9193
3 11 22 -5.6976 0.4436
5 11 22 -22.2184 1.0130
7 11 22 -12.5473 -0.1355
9 11 22 12.4751 -1.7462
11 11 22 -0.4986 -1.5884
13 11 22 16.0904 -0.5250
15 11 22 0.9721 0.5526
17 11 22 -14.3815 0.7495
19 11 22 4.2080 0.8910
21 11 22 4.4208 0.8062
23 11 22 16.5673 -0.8567
25 11 22 1.7991 -0.3377
27 11 22 -10.1034 0.5730
29 11 22 0.4654 1.3092
-30 12 22 0.6164 1.7950
-28 12 22 1.1245 -0.3811
-26 12 22 6.1419 -0.5191
-24 12 22 7.1993 0.7010
-22 12 22 0.3544 0.3540
-20 12 22 -1.9225 -1.1484
-18 12 22 6.7252 0.3600
-16 12 22 -4.2193 2.3163
-14 12 22 14.1871 0.0387
-12 12 22 -5.4627 -3.4317
-10 12 22 -15.3668 -1.6821
-8 12 22 3.2592 1.4833
-6 12 22 8.7029 0.9815
-4 12 22 11.1157 -1.5596
-2 12 22 -5.2078 -0.6233
0 12 22 30.6952 1.6449
2 12 22 -17.0307 -0.1205
4 12 22 -11.6130 -1.9242
6 12 22 -0.3921 1.0448
8 12 22 -13.9051 3.0512
10 12 22 12.0638 -0.0837
12 12 22 11.6994 -2.1012
14 12 22 -33.7321 -0.0070
16 12 22 14.6224 1.3068
18 12 22 -12.5658 -0.9767
20 12 22 -9.9788 -0.9939
22 12 22 5.0742 1.3853
24 12 22 -9.1701 1.5020
26 12 22 17.6296 -1.1523
28 12 22 -4.4334 -2.2786
-31 13 22 12.5760 -0.2621
-29 13 22 15.0351 -1.6930
-27 13 22 8.1694 -0.4844
-25 13 22 11.4863 1.4222
-23 13 22 15.3786 0.5378
-21 13 22 -15.5091 -1.4680
-19 13 22 -0.1034 -0.7046
-17 13 22 10.0146 0.3537
-15 13 22 -1.6236 0.9277
-13 13 22 -3.7355 1.0101
-11 13 22 8.3456 0.5907
-9 13 22 -31.5366 -0.0053
-7 13 22 -6.7000 -1.1631
-5 13 22 -2.4734 -1.3122
-3 13 22 -13.7329 0.4652
-1 13 22 -6.4524 1.7382
1 13 22 -4.1883 0.5924
3 13 22 7.6211 -2.4558
5 13 22 29.4177 -3.2117
7 13 22 2.4945 -0.2349
9 13 22 -19.6859 1.8667
11 13 22 -8.2679 0.7055
13 13 22 -16.4194 -0.8789
15 13 22 -8.4458 -0.2885
17 13 22 -10.7772 0.1942
19 13 22 -12.8868 -0.4090
21 13 22 -16.2437 0.3135
23 13 22 8.4555 1.8165
25 13 22 -0.0603 1.1697
27 13 22 -3.3538 -1.2675
29 13 22 9.7520 -1.5467
-30 14 22 5.3828 -0.1775
-28 14 22 2.0171 0.4857
-26 14 22 -15.0805 -0.7618
-24 14 22 -4.2776 -0.0044
-22 14 22 6.5070 1.8864
-20 14 22 -0.9120 0.9029
-18 14 22 4.1775 -0.3741
-16 14 22 -3.6224 -0.9046
-14 14 22 -1.3320 0.4950
-12 14 22 -5.3474 0.3069
-10 14 22 -32.6802 -1.5540
-8 14 22 -21.5551 -1.6660
-6 14 22 40.7033 -0.7683
-4 14 22 5.2189 -0.7526
-2 14 22 14.0048 -0.8800
0 14 22 19.0039 -0.3684
2 14 22 -5.7442 0.6366
4 14 22 3.0985 0.3107
6 14 22 -23.4895 -1.1127
8 14 22 5.3220 -0.2511
10 14 22 9.2000 1.7831
12 14 22 27.6982 1.6563
14 14 22 1.7827 -0.3680
16 14 22 -0.3914 -1.1135
18 14 22 -2.3309 -0.2278
20 14 22 0.6150 1.4277
22 14 22 -12.0048 1.2823
24 14 22 1.3042 0.1757
26 14 22 21.8365 -0.1407
28 14 22 -13.8849 -1.5054
-29 15 22 -13.5330 0.6791
-27 15 22 -0.5992 0.0546
-25 15 22 4.1532 -0.4618
-23 15 22 3.5490 -0.0348
-21 15 22 -1.8652 0.2398
-19 15 22 5.9325 -0.7043
-17 15 22 -8.3867 -1.0659
-15 15 22 4.1107 0.6269
-13 15 22 7.1271 1.3396
-11 15 22 6.9016 0.0372
-9 15 22 -18.5874 -0.6944
-7 15 22 -5.2908 -0.4308
-5 15 22 -6.5325 0.0265
-3 15 22 -37.3888 0.4169
-1 15 22 -6.6059 0.6109
1 15 22 4.8771 0.4605
3 15 22 -9.9860 -0.7889
5 15 22 21.2961 -1.4621
7 15 22 6.6275 -0.7685
9 15 22 -15.2556 0.7403
11 15 22 -4.1630 1.1912
13 15 22 -10.0329 0.1663
15 15 22 5.6175 -0.7821
17 15 22 -6.7807 -0.9796
19 15 22 2.9709 0.2604
21 15 22 9.4403 1.3077
23 15 22 11.6819 0.9600
25 15 22 8.6262 0.7213
27 15 22 -5.8810 0.3196
-28 16 22 15.5628 0.2631
-26 16 22 -0.7971 -1.4181
-24 16 22 2.8363 0.9101
-22 16 22 28.2361 1.8591
-20 16 22 5.7561 -1.0506
-18 16 22 6.5103 -1.8242
-16 16 22 1.5076 1.1303
-14 16 22 -13.5361 2.0054
-12 16 22 9.8996 -1.2216
-10 16 22 -20.0333 -1.5167
-8 16 22 -14.8001 0.7552
-6 16 22 18.6116 -0.3376
-4 16 22 -24.5725 -2.3768
-2 16 22 4.8191 -0.2218
0 16 22 -25.9817 1.6852
2 16 22 27.6445 -0.3233
4 16 22 -10.3514 -1.5924
6 16 22 -13.4808 0.7788
8 16 22 9.8862 0.9291
10 16 22 -12.4737 -0.5710
12 16 22 17.1544 0.4207
14 16 22 3.4907 1.6362
16 16 22 1.8612 -0.4783
18 16 22 -1.1377 -1.3798
20 16 22 -5.1301 0.7314
22 16 22 1.4507 1.2254
24 16 22 -4.0458 -0.0256
26 16 22 1.4523 -0.8573
-29 17 22 3.1996 -1.5479
-27 17 22 6.2545 -1.4717
-25 17 22 -9.5450 1.2403
-23 17 22 -0.4568 1.8749
-21 17 22 24.5020 -1.4421
-19 17 22 -2.8999 -1.4514
-17 17 22 -20.9828 1.8521
-15 17 22 16.8242 1.2811
-13 17 22 11.4412 -2.4624
-11 17 22 -3.4294 -1.1498
-9 17 22 -22.0977 3.6851
-7 17 22 1.4986 1.7083
-5 17 22 1.9614 -3.4501
-3 17 22 -10.7976 -1.2001
-1 17 22 32.7679 3.2886
1 17 22 -28.1404 1.6550
3 17 22 10.9749 -1.6065
5 17 22 19.0101 -0.4626
7 17 22 -12.0777 1.8901
9 17 22 -22.3844 -0.0735
11 17 22 -1.8851 -2.7484
13 17 22 -18.2923 0.3705
15 17 22 17.0697 2.8020
17 17 22 11.5696 -0.3578
19 17 22 6.0090 -2.7497
21 17 22 -6.6863 0.0904
23 17 22 -1.9975 2.4523
25 17 22 11.1896 -0.1956
27 17 22 -6.7186 -1.5629
-28 18 22 6.5450 -2.5094
-26 18 22 4.6966 0.2951
-24 18 22 3.0676 1.4426
-22 18 22 0.6785 -0.5692
-20 18 22 -0.7769 -2.0812
-18 18 22 -5.2950 0.9669
-16 18 22 2.2719 2.8288
-14 18 22 -0.6554 -0.8665
-12 18 22 -0.6608 -2.8989
-10 18 22 -11.4626 1.1829
-8 18 22 -12.2966 2.7980
-6 18 22 -1.8918 -1.3666
-4 18 22 14.9254 -2.3295
-2 18 22 -6.6988 1.0988
0 18 22 5.9174 0.7216
2 18 22 29.4305 -2.7094
4 18 22 -10.3018 -1.4295
6 18 22 12.5321 2.4703
8 18 22 -3.1051 1.6365
10 18 22 1.0361 -2.2271
12 18 22 6.0216 -1.9322
14 18 22 -21.0971 1.1730
16 18 22 -4.1190 1.6662
18 18 22 6.1027 -0.2312
20 18 22 -3.7327 0.2043
22 18 22 8.9047 0.2366
24 18 22 -6.4287 -0.1834
26 18 22 -3.5864 -1.9408
-27 19 22 3.6855 -0.2971
-25 19 22 -2.9238 1.7372
-23 19 22 6.9269 -1.4664
-21 19 22 44.0398 -1.9354
-19 19 22 7.2791 0.7780
-17 19 22 9.6843 1.3633
-15 19 22 3.6986 -0.7106
-13 19 22 -10.7113 -0.9809
-11 19 22 -3.2899 0.7446
-9 19 22 -16.8679 0.3834
-7 19 22 36.6441 -1.0572
-5 19 22 -0.7644 -0.0975
-3 19 22 19.5745 2.1545
-1 19 22 6.5705 0.9748
1 19 22 5.0109 -0.6803
3 19 22 2.2010 -0.2225
5 19 22 -7.7600 0.8861
7 19 22 -1.8034 0.6488
9 19 22 -2.0529 0.1471
11 19 22 16.5890 -0.1623
13 19 22 -14.4608 -0.4108
15 19 22 15.8728 -0.3199
17 19 22 -10.6157 -0.1271
19 19 22 -8.6069 0.6006
21 19 22 -7.3007 -0.3786
23 19 22 9.4534 -0.3357
25 19 22 2.7931 -0.2959
-26 20 22 0.6722 -0.8705
-24 20 22 9.5965 -0.0214
-22 20 22 -17.5643 0.1850
-20 20 22 6.4330 0.3298
-18 20 22 -20.7193 -0.1239
-16 20 22 4.1041 -0.3295
-14 20 22 -5.5767 0.2273
-12 20 22 8.3409 0.7658
-10 20 22 2.6305 0.4223
-8 20 22 6.0857 0.0077
-6 20 22 10.9937 -0.0942
-4 20 22 12.1590 0.5182
-2 20 22 -18.4008 0.5218
0 20 22 7.1152 -0.8403
2 20 22 -0.9599 -0.9739
4 20 22 4.3643 0.7246
6 20 22 8.4678 0.5510
8 20 22 -17.3040 -0.3402
10 20 22 5.9898 0.1851
12 20 22 11.2143 0.6599
14 20 22 -23.1194 -0.4977
16 20 22 8.1146 -1.3272
18 20 22 23.6774 0.3907
20 20 22 12.2343 1.3656
22 20 22 5.2331 -1.2141
24 20 22 -4.2456 -1.3037
-25 21 22 -21.2074 -0.4366
-23 21 22 -10.3213 -0.2406
-21 21 22 10.1916 -0.1267
-19 21 22 2.0503 -0.6226
-17 21 22 -8.5241 -0.2386
-15 21 22 -3.1520 0.1948
-13 21 22 -6.1105 0.1441
-11 21 22 6.3738 -0.5060
-9 21 22 4.9894 -0.6466
-7 21 22 4.0402 0.1767
-5 21 22 -5.5130 0.9356
-3 21 22 22.6577 0.9761
-1 21 22 -7.6286 0.0776
1 21 22 16.6459 -0.5695
3 21 22 7.5771 0.2816
5 21 22 3.2828 0.7179
7 21 22 3.3444 0.3376
9 21 22 -2.9851 -0.0152
11 21 22 -12.4880 -0.1108
13 21 22 -0.6803 -0.5553
15 21 22 21.5881 -0.6551
17 21 22 -2.8634 -0.0929
19 21 22 4.0035 0.4241
21 21 22 -14.4213 -0.4377
23 21 22 10.7732 -1.3925
-24 22 22 1.5100 1.2252
-22 22 22 -9.7948 -0.4957
-20 22 22 -3.5759 -1.6776
-18 22 22 -11.4735 0.1826
-16 22 22 4.1565 1.6888
-14 22 22 -12.7578 -0.0249
-12 22 22 0.9001 -0.4333
-10 22 22 -13.4806 1.2474
-8 22 22 3.8835 0.5115
-6 22 22 7.3889 -1.6013
-4 22 22 6.8083 -0.4741
-2 22 22 -4.1170 1.9834
0 22 22 11.4180 1.0130
2 22 22 -4.3398 -1.5264
4 22 22 10.6098 -1.5688
6 22 22 8.8739 0.2716
8 22 22 -17.8268 0.4005
10 22 22 17.9265 -0.0335
12 22 22 13.6167 -0.2332
14 22 22 -3.5097 0.1392
16 22 22 -2.6164 -0.5400
18 22 22 -14.9763 -1.3120
20 22 22 11.3935 -0.3842
22 22 22 11.4311 0.2831
-23 23 22 8.6530 -0.6929
-21 23 22 -4.9960 -0.9134
-19 23 22 4.5361 0.2423
-17 23 22 2.9811 0.9471
-15 23 22 6.3801 -0.2773
-13 23 22 -9.0223 -1.2805
-11 23 22 -8.9833 0.7033
-9 23 22 -3.0372 1.1881
-7 23 22 -4.8471 -0.4697
-5 23 22 -5.9036 -1.2225
-3 23 22 -10.6870 0.0508
-1 23 22 -11.7255 0.9054
1 23 22 -18.7422 0.0020
3 23 22 1.4627 -0.7068
5 23 22 -2.9081 0.6512
7 23 22 2.6836 1.2828
9 23 22 -8.8199 0.5290
11 23 22 1.3298 -1.0899
13 23 22 3.2624 -0.5388
15 23 22 0.3178 0.2083
17 23 22 4.4633 1.0549
19 23 22 7.5884 -0.5222
21 23 22 -4.3222 -1.0232
-22 24 22 -0.7301 -0.7703
-20 24 22 -20.9524 0.1663
-18 24 22 -4.0657 0.9821
-16 24 22 -3.2457 -0.7831
-14 24 22 17.1240 -0.4941
-12 24 22 7.9426 1.1228
-10 24 22 -3.5616 0.5652
-8 24 22 13.0476 -0.8775
-6 24 22 14.8918 -0.5466
-4 24 22 -1.3314 0.5143
-2 24 22 12.0780 0.5572
0 24 22 24.5301 -0.2798
2 24 22 -17.9320 -0.1666
4 24 22 3.5247 0.0867
6 24 22 1.7836 -0.7037
8 24 22 -6.5368 -1.3460
10 24 22 0.0390 -0.0496
12 24 22 -1.9122 1.6659
14 24 22 25.6595 0.5592
16 24 22 14.6597 -0.6995
18 24 22 4.5087 -1.5183
20 24 22 1.8721 -0.3033
-21 25 22 -1.4678 0.2313
-19 25 22 0.6498 -0.6918
-17 25 22 -7.4812 -0.5984
-15 25 22 -9.0738 0.4452
-13 25 22 -2.1387 0.3948
-11 25 22 3.2219 -0.0679
-9 25 22 10.7554 0.2463
-7 25 22 -13.7581 -0.1832
-5 25 22 0.4192 -0.7219
-3 25 22 -2.0288 -0.3161
-1 25 22 -2.0922 0.1551
1 25 22 -5.4906 -0.4304
3 25 22 -2.0336 -0.3100
5 25 22 8.9630 0.9808
7 25 22 2.5517 0.4293
9 25 22 3.9878 -1.0249
11 25 22 4.6174 0.0274
13 25 22 -14.1216 1.2732
15 25 22 6.4789 -0.1817
17 25 22 7.0706 -0.3158
19 25 22 10.7254 -0.8128
-20 26 22 -5.6468 -1.1273
-18 26 22 1.9965 -0.0056
-16 26 22 0.6672 0.0702
-14 26 22 -7.7987 -0.2352
-12 26 22 -3.1093 -0.4010
-10 26 22 -7.5662 -0.1943
-8 26 22 5.9018 0.6986
-6 26 22 -11.0246 0.7093
-4 26 22 2.0484 -0.3196
-2 26 22 3.1389 -0.3732
0 26 22 2.8971 -0.3300
2 26 22 -5.0044 -0.1626
4 26 22 4.1896 0.3956
6 26 22 18.3657 0.6274
8 26 22 -6.0704 -0.5163
10 26 22 -4.9044 -1.0678
12 26 22 3.4869 -0.3861
14 26 22 3.1395 0.3431
16 26 22 -9.3336 0.7013
18 26 22 11.8948 -1.0668
-19 27 22 1.3113 -0.0640
-17 27 22 -3.4670 1.4779
-15 27 22 3.1415 0.3942
-13 27 22 -1.0276 -1.7283
-11 27 22 -8.8478 -0.2197
-9 27 22 16.5290 1.3429
-7 27 22 0.2079 -0.3086
-5 27 22 -1.3319 -2.0184
-3 27 22 -2.6061 -0.3877
-1 27 22 5.5894 1.4242
1 27 22 -0.1291 -0.1657
3 27 22 4.9765 -1.6775
5 27 22 -16.3233 0.1303
7 27 22 -14.4711 1.6348
9 27 22 13.3006 -0.1988
11 27 22 -8.7286 -0.7149
13 27 22 1.3803 0.5433
15 27 22 10.7855 0.6424
17 27 22 2.5642 0.8332
-18 28 22 -6.8181 0.6385
-16 28 22 -2.2064 -0.2859
-14 28 22 12.6558 -0.9023
-12 28 22 -0.9431 0.1046
-10 28 22 2.1008 0.8865
-8 28 22 15.2385 0.2749
-6 28 22 -13.4277 0.1344
-4 28 22 17.5610 0.2540
-2 28 22 4.2480 0.3205
0 28 22 -7.9360 0.3150
2 28 22 2.8507 0.0428
4 28 22 1.4395 -0.2406
6 28 22 7.0918 0.9719
8 28 22 -0.6819 0.3092
10 28 22 -12.0064 0.3582
12 28 22 0.0943 -0.4966
14 28 22 5.4018 0.7815
16 28 22 -2.1004 1.7454
-17 29 22 3.7515 -0.6644
-15 29 22 3.3352 -0.6537
-13 29 22 -8.5065 -0.2182
-11 29 22 0.9212 0.4259
-9 29 22 4.2064 -0.1448
-7 29 22 20.2075 -1.0035
-5 29 22 -11.1939 -0.3580
-3 29 22 -1.1659 1.0764
-1 29 22 9.9047 -0.0719
1 29 22 -0.5169 -1.3508
3 29 22 11.4977 -0.4575
5 29 22 3.3828 0.1187
7 29 22 1.3190 -0.5413
9 29 22 15.5784 0.1672
11 29 22 6.1992 0.9195
13 29 22 4.6524 -0.0759
15 29 22 11.5108 -2.0331
-14 30 22 -1.3120 0.4402
-12 30 22 7.7143 1.9294
-10 30 22 3.1096 0.2019
-8 30 22 -6.9271 -0.8054
-6 30 22 -4.5380 0.8003
-4 30 22 -0.2017 0.9451
-2 30 22 2.3609 -0.3094
0 30 22 3.1852 -0.2660
2 30 22 8.4246 0.6241
4 30 22 -9.2798 0.3235
6 30 22 -2.1311 -0.9105
8 30 22 5.0756 -1.1018
10 30 22 -0.1623 1.7376
12 30 22 16.2023 0.5650
-11 31 22 -2.4207 -0.3879
-9 31 22 -10.4345 -0.3311
-7 31 22 22.3962 -0.0312
-5 31 22 -5.6156 -0.0142
-3 31 22 -16.9993 -0.5470
-1 31 22 -7.3284 -0.3235
1 31 22 -3.3494 -0.2657
3 31 22 16.5253 -0.1703
5 31 22 6.9684 0.1246
7 31 22 -9.7040 -0.7848
9 31 22 8.1179 0.7234
-10 32 22 3.1583 0.0519
-8 32 22 -11.0361 0.7669
-6 32 22 2.8698 -0.0686
-4 32 22 0.2201 -0.2790
-2 32 22 9.4016 1.1553
0 32 22 0.9048 1.1115
2 32 22 -0.2120 -0.0275
4 32 22 -3.5853 -0.4518
6 32 22 10.8927 -0.6074
8 32 22 -12.3765 0.3160
-5 33 22 -1.5481 -1.5015
-3 33 22 -11.0738 -1.9825
-1 33 22 -4.9597 -0.0616
1 33 22 -4.5020 0.3501
3 33 22 -0.8075 -0.9977
-33 1 23 -5.8231 4.9038
-31 1 23 -0.4342 -7.4211
-29 1 23 7.4589 -4.0860
-27 1 23 -0.5960 6.8284
-25 1 23 2.1495 1.0024
-23 1 23 2.2198 -8.5450
-21 1 23 0.0327 6.8755
-19 1 23 -4.8920 14.5512
-17 1 23 -0.2843 -12.5058
-15 1 23 8.6766 -22.7520
-13 1 23 16.3066 14.6073
-11 1 23 20.7758 32.9652
-9 1 23 17.5135 -5.1926
-7 1 23 -6.6777 -23.2297
-5 1 23 -11.0309 8.7081
-3 1 23 29.2447 14.7993
-1 1 23 16.0407 -14.0758
1 1 23 34.6256 -4.4157
3 1 23 12.8697 28.3655
5 1 23 10.7788 4.7218
7 1 23 2.9852 -38.6986
9 1 23 20.5349 -16.0567
11 1 23 20.8242 27.0926
13 1 23 11.7064 12.7151
15 1 23 21.6037 -17.0954
17 1 23 16.8641 -6.4136
19 1 23 -2.2826 8.1999
21 1 23 -4.1773 -5.6453
23 1 23 -6.1168 -8.8507
25 1 23 -3.3237 10.7791
27 1 23 -14.7844 11.5607
29 1 23 -2.4389 -6.3737
31 1 23 6.0057 -9.6846
-32 2 23 1.0040 -3.6110
-30 2 23 -12.8039 0.4617
-28 2 23 -8.8786 6.0051
-26 2 23 -8.9729 2.1935
-24 2 23 -3.0833 -7.6825
-22 2 23 0.4382 -3.0440
-20 2 23 -4.4825 8.5122
-18 2 23 -6.6705 4.1820
-16 2 23 -2.8861 -5.8101
-14 2 23 -15.6927 0.9950
-12 2 23 8.1605 6.1227
-10 2 23 -7.8312 -7.9419
-8 2 23 9.8084 -12.9520
-6 2 23 61.9018 5.8826
-4 2 23 6.1537 13.4359
-2 2 23 -16.9529 -5.8281
0 2 23 -21.8487 -15.1664
2 2 23 -10.4451 0.4308
4 2 23 8.7938 8.1225
6 2 23 37.4618 -1.0312
8 2 23 11.2265 -0.2132
10 2 23 9.5529 9.3524
12 2 23 15.5428 3.6631
14 2 23 -8.1034 -10.4344
16 2 23 -5.4702 -6.1619
18 2 23 -9.3901 9.0341
20 2 23 -2.6555 7.7857
22 2 23 13.3877 -4.2611
24 2 23 3.4820 -6.2435
26 2 23 -5.5582 0.2002
28 2 23 5.0782 0.7189
30 2 23 -8.9249 -1.1501
-33 3 23 -6.0323 2.3218
-31 3 23 0.3269 -1.2502
-29 3 23 10.7993 -1.1216
-27 3 23 8.8164 -0.5292
-25 3 23 1.1782 0.3068
-23 3 23 5.1424 1.0419
-21 3 23 6.3688 0.6276
-19 3 23 0.7277 -2.2303
-17 3 23 -6.4815 -5.8531
-15 3 23 -29.2923 -3.7763
-13 3 23 6.1002 2.1848
-11 3 23 6.9804 3.6766
-9 3 23 -21.3023 -0.7784
-7 3 23 -35.7976 -3.9490
-5 3 23 -21.8648 -3.3022
-3 3 23 41.1680 -0.3728
-1 3 23 33.1451 3.8525
1 3 23 30.2201 6.9683
3 3 23 -25.3748 3.3152
5 3 23 1.4084 -4.8733
7 3 23 -11.1761 -6.1350
9 3 23 -23.5890 0.5967
11 3 23 0.3422 6.4300
13 3 23 -2.9570 4.5939
15 3 23 32.9888 -1.1616
17 3 23 9.1231 -3.7789
19 3 23 -5.7028 -2.3873
21 3 23 1.4896 0.5342
23 3 23 -8.5025 3.2501
25 3 23 -4.9200 3.2047
27 3 23 4.6947 -0.3043
29 3 23 -3.1297 -3.8842
31 3 23 10.2313 -2.6393
-32 4 23 -11.2441 2.0214
-30 4 23 -8.1563 -0.7391
-28 4 23 5.8858 -3.0464
-26 4 23 1.0959 -0.3280
-24 4 23 1.4223 2.9460
-22 4 23 -13.5300 0.1859
-20 4 23 -0.0883 -2.8787
-18 4 23 3.3809 2.4534
-16 4 23 9.8542 4.7727
-14 4 23 5.1479 -2.8691
-12 4 23 -5.0078 -6.5020
-10 4 23 5.6787 1.5356
-8 4 23 -7.6457 5.2434
-6 4 23 30.8207 -2.9026
-4 4 23 16.9405 -6.1706
-2 4 23 -11.9484 -0.5335
0 4 23 -44.5964 0.1956
2 4 23 13.1261 -3.1297
4 4 23 -46.1689 1.1094
6 4 23 4.0796 7.3989
8 4 23 27.4466 3.3536
10 4 23 16.9337 -5.4885
12 4 23 25.7693 -3.9479
14 4 23 -11.4863 4.0372
16 4 23 2.8551 5.4840
18 4 23 1.2845 0.0787
20 4 23 3.9230 -2.1173
22 4 23 3.5337 -1.1568
24 4 23 9.4588 -1.5189
26 4 23 -9.1250 -0.7599
28 4 23 -6.0912 2.6713
30 4 23 8.9929 2.4963
-31 5 23 5.8649 1.0114
-29 5 23 -2.3214 -0.9320
-27 5 23 2.9894 1.9772
-25 5 23 14.9119 2.0951
-23 5 23 -10.2033 -2.0681
-21 5 23 25.1815 -2.5961
-19 5 23 -0.0841 2.1631
-17 5 23 -8.2622 2.7382
-15 5 23 -14.8562 -0.7658
-13 5 23 18.5805 -1.5241
-11 5 23 -9.7186 -1.0362
-9 5 23 -9.0077 -1.9560
-7 5 23 -17.3896 -0.7508
-5 5 23 27.4833 3.6342
-3 5 23 -9.5448 3.4134
-1 5 23 26.5696 -0.9314
1 5 23 29.2160 -3.4469
3 5 23 20.9901 -1.3977
5 5 23 15.0264 2.3542
7 5 23 -7.4214 4.0759
9 5 23 14.4384 2.6009
11 5 23 -2.7028 -0.8244
13 5 23 -3.2830 -3.0914
15 5 23 8.9019 -2.3558
17 5 23 -2.3625 1.4940
19 5 23 13.1585 2.8923
21 5 23 4.5096 0.4828
23 5 23 0.4919 -1.6117
25 5 23 2.9700 -2.1484
27 5 23 14.3392 -1.3203
29 5 23 -2.7658 -0.3079
-32 6 23 5.1887 -1.0551
-30 6 23 -3.5198 -2.5532
-28 6 23 3.3297 2.5240
-26 6 23 -10.4345 1.5787
-24 6 23 -8.9388 -2.2916
-22 6 23 0.8876 -0.9512
-20 6 23 6.1208 3.9394
-18 6 23 10.5953 1.1349
-16 6 23 -9.6572 -4.8571
-14 6 23 3.1412 -1.1157
-12 6 23 13.2092 4.2009
-10 6 23 -6.3527 -1.2206
-8 6 23 -31.6325 -6.7366
-6 6 23 -32.9785 -1.3242
-4 6 23 6.3160 2.9008
-2 6 23 -1.9062 -4.1200
0 6 23 -24.8166 -6.4066
2 6 23 51.8908 2.5376
4 6 23 -52.4871 6.4465
6 6 23 14.9152 -1.2082
8 6 23 24.0041 -4.5714
10 6 23 -9.3570 2.2772
12 6 23 -5.0885 4.4877
14 6 23 -0.0273 -0.2645
16 6 23 11.8007 -0.4993
18 6 23 -20.4288 2.8776
20 6 23 3.0381 0.8552
22 6 23 -2.4409 -3.7785
24 6 23 -10.6334 -1.5391
26 6 23 4.3215 3.2350
28 6 23 0.4466 2.0391
30 6 23 15.1228 -1.3250
-31 7 23 17.7153 -1.7679
-29 7 23 3.3270 0.7648
-27 7 23 -8.2738 1.2778
-25 7 23 9.6510 -3.3301
-23 7 23 -7.5544 -3.8142
-21 7 23 9.7725 0.4950
-19 7 23 14.9170 2.1545
-17 7 23 16.6885 -0.1036
-15 7 23 -14.2733 -0.5615
-13 7 23 -17.2386 0.4786
-11 7 23 2.9051 -2.1188
-9 7 23 22.1860 -2.7333
-7 7 23 -28.5180 3.5500
-5 7 23 42.6866 7.6864
-3 7 23 -0.2004 1.9183
-1 7 23 -28.3984 -5.2762
1 7 23 -2.9630 -3.5392
3 7 23 15.3408 3.2153
5 7 23 -19.1788 5.5087
7 7 23 7.2980 2.5172
9 7 23 14.3309 -1.0786
11 7 23 4.2986 -3.1766
13 7 23 3.8643 -4.2776
15 7 23 -23.4769 -1.7877
17 7 23 -15.5495 4.2316
19 7 23 14.9631 4.8796
21 7 23 -12.9909 -1.8204
23 7 23 -3.2365 -5.4671
25 7 23 5.1129 -2.4347
27 7 23 -6.3279 3.7389
29 7 23 0.9918 2.9362
-32 8 23 -4.4666 1.1215
-30 8 23 0.3468 0.8500
-28 8 23 -3.4526 0.4703
-26 8 23 13.2799 0.2555
-24 8 23 -8.5540 0.4398
-22 8 23 -3.4091 -0.4413
-20 8 23 3.0129 -0.8967
-18 8 23 -3.5020 0.8531
-16 8 23 -12.7235 1.5988
-14 8 23 11.7573 0.3925
-12 8 23 22.3972 -0.3082
-10 8 23 -4.8453 -0.3777
-8 8 23 -1.2700 -1.0006
-6 8 23 -0.8528 -1.0343
-4 8 23 14.7470 0.8213
-2 8 23 0.1343 2.0152
0 8 23 -4.8533 -0.8723
2 8 23 12.2381 -3.3502
4 8 23 -33.6466 -0.7905
6 8 23 -10.1448 1.4840
8 8 23 -8.4650 0.1534
10 8 23 11.3866 -0.0811
12 8 23 -11.9780 1.4460
14 8 23 7.2066 0.4048
16 8 23 12.1181 -2.4303
18 8 23 -2.1701 -1.2488
20 8 23 -8.2616 1.3147
22 8 23 6.4485 0.8401
24 8 23 -9.1671 -0.5355
26 8 23 4.4445 -0.6780
28 8 23 -4.9774 -0.3517
30 8 23 8.7259 -0.4790
-31 9 23 16.2714 -2.0428
-29 9 23 -5.3393 -0.9270
-27 9 23 -0.5847 0.4594
-25 9 23 -9.2512 1.7383
-23 9 23 28.6916 -0.7442
-21 9 23 -0.0985 -1.9495
-19 9 23 5.4928 0.1654
-17 9 23 -11.1213 1.3127
-15 9 23 7.8893 -0.1747
-13 9 23 2.0517 -1.7769
-11 9 23 -2.5233 -0.6198
-9 9 23 14.0522 0.6215
-7 9 23 -15.9516 0.0153
-5 9 23 2.7782 -0.3088
-3 9 23 12.2766 0.4596
-1 9 23 -30.4970 0.9604
1 9 23 3.4228 0.5882
3 9 23 27.2669 0.1623
5 9 23 -14.9310 1.0476
7 9 23 5.6116 1.9928
9 9 23 8.8416 0.3748
11 9 23 12.1643 -2.3515
13 9 23 -1.3886 -1.1023
15 9 23 9.9168 1.4739
17 9 23 -14.6632 0.8333
19 9 23 -0.0247 -1.7058
21 9 23 4.1085 -1.9083
23 9 23 0.7334 0.1771
25 9 23 -13.0075 -0.1261
27 9 23 -9.2376 -0.5760
29 9 23 15.6729 -0.3452
-30 10 23 9.3931 -1.7403
-28 10 23 20.3985 0.0867
-26 10 23 -2.6703 1.1503
-24 10 23 -5.8852 -2.4286
-22 10 23 -6.0299 -1.4540
-20 10 23 1.6186 2.7730
-18 10 23 6.0046 0.9230
-16 10 23 4.7183 -3.4374
-14 10 23 -17.2924 0.1396
-12 10 23 4.0792 6.0642
-10 10 23 -2.7646 2.3324
-8 10 23 -13.9061 -2.5085
-6 10 23 -15.7175 1.9210
-4 10 23 3.3388 5.1191
-2 10 23 4.3704 -0.5968
0 10 23 13.4804 -3.0219
2 10 23 7.3106 2.4606
4 10 23 -25.0296 2.1418
6 10 23 6.1548 -4.7201
8 10 23 -7.5549 -4.1528
10 10 23 -0.2300 2.2460
12 10 23 12.6628 1.5406
14 10 23 -4.4745 -3.9895
16 10 23 -3.2596 -1.8956
18 10 23 1.0955 2.5998
20 10 23 -9.9616 0.0913
22 10 23 9.7804 -2.1401
24 10 23 4.1900 0.3630
26 10 23 14.0234 1.4427
28 10 23 -0.7422 -0.6139
-31 11 23 17.6148 -1.6828
-29 11 23 -7.1432 1.6064
-27 11 23 6.9922 2.1397
-25 11 23 -3.5763 -0.3062
-23 11 23 12.3357 -2.3459
-21 11 23 -16.1087 1.5698
-19 11 23 20.3771 2.3865
-17 11 23 -24.2195 -2.5513
-15 11 23 1.7653 -3.4322
-13 11 23 24.6860 2.9144
-11 11 23 8.3487 3.6739
-9 11 23 -9.4183 -4.2390
-7 11 23 8.3516 -5.2571
-5 11 23 -5.6260 2.1384
-3 11 23 14.5279 2.7228
-1 11 23 23.5823 -2.6992
1 11 23 12.5652 -0.8292
3 11 23 -8.5183 4.7992
5 11 23 4.0828 -0.2854
7 11 23 -25.5095 -6.4698
9 11 23 -0.5379 0.1932
11 11 23 -10.6503 8.1530
13 11 23 6.3826 2.5504
15 11 23 9.9879 -5.1735
17 11 23 -5.0746 -2.4039
19 11 23 -4.5290 1.7726
21 11 23 -4.0769 -0.4813
23 11 23 -0.8888 -1.1032
25 11 23 -8.0288 1.9589
27 11 23 -8.8752 0.7033
29 11 23 1.4911 -2.9069
-30 12 23 -7.7816 0.7494
-28 12 23 15.8620 2.0687
-26 12 23 -2.7654 -0.4491
-24 12 23 -4.7374 -2.6079
-22 12 23 4.7380 0.8989
-20 12 23 -0.1107 2.7594
-18 12 23 -0.3446 -2.3961
-16 12 23 15.4133 -4.0444
-14 12 23 -4.0797 1.6211
-12 12 23 3.4228 5.0087
-10 12 23 -6.8613 -0.1265
-8 12 23 -23.5060 -3.3104
-6 12 23 17.3850 1.3789
-4 12 23 13.8871 3.5307
-2 12 23 4.5623 -0.8677
0 12 23 -1.5173 -1.5970
2 12 23 31.6711 2.7234
4 12 23 7.9331 2.5931
6 12 23 -21.9589 -2.8487
8 12 23 4.4833 -4.3862
10 12 23 -19.0917 0.7620
12 12 23 11.8566 3.0043
14 12 23 -0.0465 -0.6038
16 12 23 -17.8878 -3.2087
18 12 23 -11.2216 -0.2657
20 12 23 0.4780 1.2338
22 12 23 5.1953 -0.6917
24 12 23 -5.9412 -1.3995
26 12 23 -4.0766 1.1276
28 12 23 -5.9102 -0.3686
-29 13 23 -7.4067 -0.7953
-27 13 23 1.5419 -0.7711
-25 13 23 -0.4242 -0.2422
-23 13 23 6.4068 2.0359
-21 13 23 -23.9933 1.1994
-19 13 23 9.9212 -0.8941
-17 13 23 -3.6665 -1.3618
-15 13 23 -11.1221 -0.4068
-13 13 23 12.3115 -0.3201
-11 13 23 8.5372 0.3937
-9 13 23 9.9159 1.6176
-7 13 23 -4.2717 0.8995
-5 13 23 -15.4354 -2.3903
-3 13 23 -17.5070 -2.8970
-1 13 23 -5.9505 1.1782
1 13 23 0.1505 3.0253
3 13 23 -13.9997 -0.0125
5 13 23 30.8717 -1.8644
7 13 23 -6.4278 -0.6801
9 13 23 9.0557 -0.0782
11 13 23 -7.7132 0.0036
13 13 23 20.9382 0.7657
15 13 23 19.5965 1.7043
17 13 23 10.1721 -0.4302
19 13 23 12.7354 -2.9058
21 13 23 0.4114 -0.9647
23 13 23 -10.5914 1.7186
25 13 23 5.4569 0.8978
27 13 23 4.1162 -1.8362
-30 14 23 -12.2875 3.1238
-28 14 23 -16.3091 -0.4010
-26 14 23 4.2695 -0.4653
-24 14 23 -13.1225 -0.1811
-22 14 23 0.1618 0.2439
-20 14 23 15.8529 -0.5138
-18 14 23 -16.1071 0.0213
-16 14 23 -5.2846 0.8088
-14 14 23 -2.3915 0.2441
-12 14 23 3.2607 -1.4110
-10 14 23 8.8237 -1.1201
-8 14 23 -3.3858 0.7401
-6 14 23 5.1384 1.6590
-4 14 23 -15.7835 0.2327
-2 14 23 3.9277 -0.5085
0 14 23 -4.1574 0.5966
2 14 23 5.0250 0.5603
4 14 23 -14.1118 -0.6209
6 14 23 -7.5445 -0.0045
8 14 23 11.0997 1.6731
10 14 23 -37.5471 0.5924
12 14 23 0.8803 -1.4986
14 14 23 11.0762 -0.7503
16 14 23 4.5383 1.1924
18 14 23 -3.6253 0.0316
20 14 23 -8.8087 -1.9063
22 14 23 4.3223 -0.1118
24 14 23 -2.5036 0.9979
26 14 23 -2.2778 -0.2071
28 14 23 3.1968 -2.4499
-29 15 23 10.9787 0.4359
-27 15 23 14.1572 1.1918
-25 15 23 -0.7025 0.2815
-23 15 23 8.4464 0.2499
-21 15 23 3.9450 0.1222
-19 15 23 -6.7086 0.0543
-17 15 23 -6.7370 -0.5788
-15 15 23 -0.3160 -0.4690
-13 15 23 13.4702 0.5027
-11 15 23 -9.5098 0.8505
-9 15 23 7.4132 -0.2385
-7 15 23 -12.6569 -1.0316
-5 15 23 -21.5964 -0.5544
-3 15 23 -24.1271 -0.8350
-1 15 23 3.5601 -0.5993
1 15 23 -23.5973 0.0515
3 15 23 -0.0171 -0.2115
5 15 23 3.0655 -0.6441
7 15 23 -1.3103 -0.4852
9 15 23 7.3677 0.1943
11 15 23 8.0761 0.5476
13 15 23 2.9016 0.1467
15 15 23 7.0087 0.2729
17 15 23 -4.7804 1.0024
19 15 23 5.9108 0.6118
21 15 23 0.2665 -0.0872
23 15 23 -10.4556 0.0110
25 15 23 1.6412 -0.2018
27 15 23 -6.0514 -1.1507
-28 16 23 -14.2629 2.4621
-26 16 23 13.5221 0.0765
-24 16 23 -0.3485 -1.5958
-22 16 23 -8.9611 0.8727
-20 16 23 0.7089 2.4233
-18 16 23 -13.2177 -0.1128
-16 16 23 3.3839 -2.3087
-14 16 23 2.9729 0.2776
-12 16 23 -12.8413 0.9867
-10 16 23 -1.6230 -1.6580
-8 16 23 -4.5524 -1.4288
-6 16 23 -9.9065 2.1149
-4 16 23 23.8214 1.6684
-2 16 23 3.1447 -1.9645
0 16 23 5.0496 -1.5184
2 16 23 -0.3553 1.6104
4 16 23 -13.2329 1.5956
6 16 23 -4.4496 -0.7683
8 16 23 -9.7957 -0.6098
10 16 23 -6.0695 0.9472
12 16 23 -4.0757 0.9718
14 16 23 -6.2502 -0.9356
16 16 23 17.6897 -0.6938
18 16 23 -7.3622 1.1192
20 16 23 -14.4823 0.9551
22 16 23 -5.0510 -0.2925
24 16 23 -11.6943 -1.0300
26 16 23 -11.2939 1.0122
-27 17 23 7.3005 0.8427
-25 17 23 -3.5847 -1.4668
-23 17 23 -6.0721 -0.2866
-21 17 23 -2.3856 0.7067
-19 17 23 -8.5058 -0.4841
-17 17 23 -8.3356 -0.3800
-15 17 23 -1.0346 1.4259
-13 17 23 -9.5999 0.7959
-11 17 23 -27.1029 -1.9478
-9 17 23 7.8026 -2.3620
-7 17 23 0.2047 0.0325
-5 17 23 -25.8810 1.4746
-3 17 23 2.5791 0.0771
-1 17 23 -3.2281 -1.1305
1 17 23 1.7361 -1.2965
3 17 23 16.6668 -1.1299
5 17 23 -9.6020 0.1268
7 17 23 16.7381 1.6639
9 17 23 9.8201 1.4261
11 17 23 7.1879 0.2232
13 17 23 -8.8573 -0.9341
15 17 23 -3.9687 -0.7549
17 17 23 -6.6566 0.3753
19 17 23 -3.7957 0.8887
21 17 23 5.8509 1.1451
23 17 23 5.3999 0.3593
25 17 23 -2.2774 -1.0027
-28 18 23 -1.9147 0.8764
-26 18 23 0.4859 -1.2073
-24 18 23 -2.9231 1.1119
-22 18 23 -5.1376 0.9995
-20 18 23 -1.6623 -1.1434
-18 18 23 -0.1858 -1.4688
-16 18 23 0.1589 -0.2280
-14 18 23 -14.2283 0.8677
-12 18 23 -10.1549 -0.2384
-10 18 23 7.4943 -0.7119
-8 18 23 19.1787 0.1209
-6 18 23 -3.1807 -0.4108
-4 18 23 -21.4220 -1.5695
-2 18 23 8.2732 0.0009
0 18 23 16.1624 2.3240
2 18 23 -3.7004 1.5250
4 18 23 10.8758 -1.5903
6 18 23 6.4183 -1.7017
8 18 23 -21.9094 1.2059
10 18 23 8.5330 2.1543
12 18 23 4.4708 0.5433
14 18 23 -2.2849 -0.5963
16 18 23 12.7566 0.3888
18 18 23 -12.1138 0.3851
20 18 23 -3.3819 -0.3334
22 18 23 -4.7399 1.0463
24 18 23 3.5459 2.5699
-27 19 23 6.6378 -0.6466
-25 19 23 -8.3946 -0.2113
-23 19 23 9.6851 0.7293
-21 19 23 -7.1228 -0.3897
-19 19 23 -8.1610 0.7322
-17 19 23 0.1584 1.6975
-15 19 23 -0.6519 0.2512
-13 19 23 -12.9751 -0.6090
-11 19 23 1.3142 -0.3252
-9 19 23 17.5762 0.6148
-7 19 23 -22.8744 0.6486
-5 19 23 14.1910 0.0190
-3 19 23 13.8620 -0.0563
-1 19 23 -6.3639 -0.3034
1 19 23 6.1521 -0.6214
3 19 23 -2.4539 -0.4659
5 19 23 -0.1793 0.0338
7 19 23 5.1416 0.1496
9 19 23 13.0095 -0.2146
11 19 23 -5.0584 0.2300
13 19 23 11.5941 -0.1397
15 19 23 4.2435 -0.0626
17 19 23 -12.9857 0.5178
19 19 23 -1.7170 0.3314
21 19 23 2.4029 0.5950
23 19 23 10.7574 1.3700
25 19 23 -9.9330 -0.7317
-26 20 23 -7.1554 -0.1008
-24 20 23 -3.1009 -0.5187
-22 20 23 -6.1925 -0.0617
-20 20 23 -9.8502 0.6220
-18 20 23 11.2767 0.1017
-16 20 23 -11.4730 -1.1525
-14 20 23 -3.8843 -0.1632
-12 20 23 -8.6656 0.7535
-10 20 23 -16.8105 -0.4619
-8 20 23 23.7075 -1.4551
-6 20 23 -4.0590 -0.6588
-4 20 23 -9.3877 0.4916
-2 20 23 -3.3687 -0.2839
0 20 23 -24.1406 -0.5381
2 20 23 -21.4288 1.1309
4 20 23 8.8568 1.4310
6 20 23 2.9859 -0.6410
8 20 23 1.7884 -0.7643
10 20 23 11.9252 1.1827
12 20 23 -8.0489 0.8701
14 20 23 5.6107 -0.6694
16 20 23 12.0037 -0.5224
18 20 23 -6.4711 0.7406
20 20 23 8.1635 0.7525
22 20 23 -4.1295 -1.1238
24 20 23 -0.8042 0.7849
-25 21 23 -7.7563 -1.4801
-23 21 23 15.5533 -0.3211
-21 21 23 -6.4001 1.3436
-19 21 23 -16.3191 -0.2904
-17 21 23 -1.5595 -1.3748
-15 21 23 2.9653 0.2647
-13 21 23 -8.1209 1.3077
-11 21 23 -6.5290 -0.4266
-9 21 23 -1.5064 -0.4164
-7 21 23 -19.1624 0.9981
-5 21 23 -0.0057 0.7469
-3 21 23 -34.1130 -0.3665
-1 21 23 30.1434 -0.9220
1 21 23 8.5985 0.4852
3 21 23 1.2533 1.1951
5 21 23 16.7739 -0.2092
7 21 23 8.8705 -1.2658
9 21 23 1.6344 -0.5745
11 21 23 1.8977 0.5747
13 21 23 -3.2707 0.7299
15 21 23 3.6459 -0.2162
17 21 23 -11.6132 0.1884
19 21 23 -11.5587 0.7894
21 21 23 1.4220 0.0627
23 21 23 9.9304 2.5661
-24 22 23 0.0312 0.0669
-22 22 23 8.5668 0.2038
-20 22 23 -6.4130 0.2566
-18 22 23 25.9349 -0.3692
-16 22 23 14.7152 0.3345
-14 22 23 1.2616 0.4666
-12 22 23 -0.1362 -0.3919
-10 22 23 1.8740 -0.8993
-8 22 23 19.4838 0.3330
-6 22 23 -6.4752 0.7705
-4 22 23 -2.7017 0.0120
-2 22 23 8.1411 -1.0161
0 22 23 7.8925 -1.0377
2 22 23 -18.6079 0.4056
4 22 23 -23.7088 1.2864
6 22 23 -9.6918 0.2298
8 22 23 2.9842 -0.5724
10 22 23 3.4210 -0.4103
12 22 23 -4.1064 -0.0911
14 22 23 9.9809 -0.3071
16 22 23 -17.1438 0.5381
18 22 23 -3.5276 1.2093
20 22 23 16.0903 0.7686
22 22 23 -7.3075 -0.0201
-23 23 23 7.6891 0.8613
-21 23 23 6.1913 -0.4786
-19 23 23 19.9895 -1.6775
-17 23 23 -1.1585 0.6494
-15 23 23 2.6338 1.9503
-13 23 23 12.7948 -0.6745
-11 23 23 1.0113 -1.4220
-9 23 23 -11.4671 1.2680
-7 23 23 -6.6011 2.3500
-5 23 23 6.4687 -0.4573
-3 23 23 -13.3727 -0.9709
-1 23 23 13.8386 1.3430
1 23 23 0.8225 1.1970
3 23 23 4.8909 -0.9730
5 23 23 11.7501 -0.3218
7 23 23 3.5920 1.2364
9 23 23 0.6656 0.0116
11 23 23 -2.3935 -2.1550
13 23 23 -2.2691 -0.8406
15 23 23 12.2113 1.6892
17 23 23 6.0764 0.7825
19 23 23 -13.1014 -0.4640
21 23 23 -3.7549 -0.4483
-22 24 23 7.4323 -0.7151
-20 24 23 -1.9002 -0.8358
-18 24 23 -13.7245 0.9292
-16 24 23 8.2278 1.5025
-14 24 23 -3.7005 -0.9178
-12 24 23 -2.2022 -1.6640
-10 24 23 -2.2689 0.0201
-8 24 23 23.4074 1.0201
-6 24 23 -4.6318 -0.3011
-4 24 23 -9.5599 -0.8269
-2 24 23 1.4294 0.0325
0 24 23 12.5034 0.0531
2 24 23 18.1223 -1.1369
4 24 23 -12.6138 -0.3981
6 24 23 13.9245 1.1762
8 24 23 2.3723 1.2307
10 24 23 6.5326 -1.2908
12 24 23 -4.2536 -1.6590
14 24 23 -3.7641 0.3079
16 24 23 -1.2499 1.5379
18 24 23 -5.0577 0.8939
20 24 23 14.8501 -1.2197
-21 25 23 12.1951 -0.1664
-19 25 23 7.1025 -0.4904
-17 25 23 -1.0005 0.1381
-15 25 23 8.0890 0.5526
-13 25 23 -11.2733 -0.7503
-11 25 23 18.8572 -0.4679
-9 25 23 -7.6362 0.3697
-7 25 23 5.6979 0.0854
-5 25 23 -10.2399 -0.5249
-3 25 23 -3.8803 0.3993
-1 25 23 1.9636 1.0959
1 25 23 -3.0188 0.2545
3 25 23 6.3978 -0.7174
5 25 23 -6.9128 -0.0066
7 25 23 -7.7848 0.8636
9 25 23 6.9033 0.2089
11 25 23 -2.8429 -0.5204
13 25 23 3.8601 -0.4251
15 25 23 -21.0862 0.9322
17 25 23 -3.5988 0.8301
19 25 23 -5.8866 -0.0020
-20 26 23 24.1436 0.2492
-18 26 23 -6.4601 0.3851
-16 26 23 -7.4417 -0.1290
-14 26 23 10.4087 0.2935
-12 26 23 -8.7104 0.4093
-10 26 23 6.8976 0.3985
-8 26 23 14.4454 -0.8918
-6 26 23 -18.6845 -0.2597
-4 26 23 -13.4523 1.1454
-2 26 23 -2.6414 0.1683
0 26 23 10.3189 -1.3607
2 26 23 16.0893 -0.4838
4 26 23 -13.0078 0.5565
6 26 23 9.6556 -0.1131
8 26 23 7.5110 -0.8070
10 26 23 -1.6597 0.8602
12 26 23 0.8027 0.3824
14 26 23 -5.2260 0.0789
16 26 23 5.1800 -0.8827
18 26 23 -7.3531 0.6997
-19 27 23 -4.7016 -0.5220
-17 27 23 9.1028 -0.4109
-15 27 23 10.9650 0.4221
-13 27 23 -10.3569 0.0929
-11 27 23 19.5226 0.0920
-9 27 23 -9.7451 -0.1777
-7 27 23 8.5006 -0.6058
-5 27 23 -0.8971 -0.3215
-3 27 23 8.1160 0.2642
-1 27 23 -3.3019 0.1345
1 27 23 3.6451 0.1269
3 27 23 4.5540 0.4281
5 27 23 -11.0614 0.5123
7 27 23 3.1096 -0.5981
9 27 23 8.0503 -0.8473
11 27 23 7.9517 -0.1897
13 27 23 9.6994 0.5670
15 27 23 -7.4296 -0.1501
17 27 23 12.1897 -0.5113
-16 28 23 8.0484 0.5291
-14 28 23 -2.2280 -0.0988
-12 28 23 -10.6261 -0.4438
-10 28 23 11.5656 0.8428
-8 28 23 5.6890 0.3290
-6 28 23 18.3510 -0.8810
-4 28 23 -16.3373 -0.5563
-2 28 23 2.0770 0.8274
0 28 23 2.7842 0.5761
2 28 23 16.3426 -0.5531
4 28 23 -9.2797 -0.8916
6 28 23 -9.5010 -0.2263
8 28 23 4.3746 0.5998
10 28 23 -8.4360 0.6307
12 28 23 14.0070 -0.1807
14 28 23 -2.0659 1.2691
-15 29 23 10.1436 0.2872
-13 29 23 -1.3092 -1.2164
-11 29 23 6.2439 -0.1289
-9 29 23 -11.5258 0.5546
-7 29 23 -6.3342 -0.4978
-5 29 23 6.6658 -1.5773
-3 29 23 -5.4265 -0.3229
-1 29 23 -6.7422 1.1451
1 29 23 -9.3908 0.6033
3 29 23 -5.1602 -0.2124
5 29 23 -10.7747 0.3522
7 29 23 14.2418 0.1987
9 29 23 4.1923 -0.3883
11 29 23 12.8317 -0.0048
13 29 23 13.0360 1.1447
-14 30 23 -19.2986 -0.3459
-12 30 23 4.6087 1.0536
-10 30 23 1.0606 1.2741
-8 30 23 -15.1498 0.1807
-6 30 23 2.4920 -0.6104
-4 30 23 -4.6666 0.1938
-2 30 23 11.4353 0.7032
0 30 23 5.0834 -0.4270
2 30 23 7.0854 -0.6111
4 30 23 -10.3215 0.7731
6 30 23 0.8217 -0.4502
8 30 23 -4.2748 -0.5672
10 30 23 -2.3148 -0.9503
12 30 23 2.3851 0.5377
-11 31 23 -4.3487 0.2033
-9 31 23 -2.3072 -1.5271
-7 31 23 -3.1872 -0.9289
-5 31 23 4.5431 0.9922
-3 31 23 -17.8390 0.6061
-1 31 23 3.6718 -1.1236
1 31 23 -8.0405 -0.4315
3 31 23 3.8205 1.4228
5 31 23 -7.9842 1.5865
7 31 23 -8.9959 0.0288
9 31 23 -11.5385 -1.1611
-8 32 23 1.3957 0.0586
-6 32 23 -12.1032 0.3143
-4 32 23 -2.8575 0.6463
-2 32 23 5.3127 0.3610
0 32 23 -2.6854 -0.4486
2 32 23 2.9232 0.3066
4 32 23 -5.2880 0.6208
6 32 23 -0.8094 0.4874
-32 0 24 -9.5989 5.5464
-30 0 24 -5.3312 6.1185
-28 0 24 -7.3741 -8.0624
-26 0 24 18.4594 -10.9044
-24 0 24 -16.7130 7.2996
-22 0 24 -3.4150 8.9983
-20 0 24 -6.6274 -8.5710
-18 0 24 -28.3047 -1.6183
-16 0 24 -5.2452 18.5954
-14 0 24 -9.7203 3.9367
-12 0 24 13.8435 -16.1217
-10 0 24 8.2440 13.7085
-8 0 24 -37.0262 42.4665
-6 0 24 55.8680 3.8609
-4 0 24 18.5728 -32.5670
-2 0 24 12.0007 -1.6255
0 0 24 11.4278 20.6722
2 0 24 16.3350 -14.2228
4 0 24 41.6446 -28.4823
6 0 24 3.6208 4.6398
8 0 24 12.5049 3.9370
10 0 24 -34.3884 -32.0188
12 0 24 3.9917 -21.0756
14 0 24 1.9165 21.3095
16 0 24 7.3502 17.8174
18 0 24 -9.0639 -13.3665
20 0 24 -13.0588 -10.6239
22 0 24 8.8647 9.9522
24 0 24 18.5966 6.4422
26 0 24 13.5896 -3.9527
28 0 24 0.5571 1.8808
30 0 24 -7.7648 5.3537
-31 1 24 -5.3703 5.9703
-29 1 24 0.7169 -1.4258
-27 1 24 -11.5910 -6.4327
-25 1 24 7.3836 4.8044
-23 1 24 9.2641 11.1758
-21 1 24 7.6900 -4.4237
-19 1 24 5.0021 -11.1287
-17 1 24 3.0185 8.7547
-15 1 24 -19.5219 17.0566
-13 1 24 8.1971 -4.0856
-11 1 24 20.0351 -13.5201
-9 1 24 7.8641 5.2381
-7 1 24 -7.3647 9.1567
-5 1 24 13.6647 -10.0102
-3 1 24 18.8889 -8.3717
-1 1 24 10.9908 11.1822
1 1 24 57.9149 3.7144
3 1 24 -23.3457 -20.3097
5 1 24 -0.9005 -12.7382
7 1 24 13.8258 15.1905
9 1 24 4.8785 10.5385
11 1 24 -0.7632 -12.8400
13 1 24 21.9408 -9.7155
15 1 24 10.6105 6.8744
17 1 24 1.7842 2.3720
19 1 24 -26.9936 -6.6271
21 1 24 12.8475 3.0544
23 1 24 -2.2425 9.4600
25 1 24 -5.8735 -3.1076
27 1 24 -9.5330 -9.2911
29 1 24 13.5956 0.9239
-32 2 24 -7.5399 -1.4641
-30 2 24 9.8163 -0.3451
-28 2 24 -5.9248 -0.2778
-26 2 24 21.9604 -0.9482
-24 2 24 7.8351 -1.0548
-22 2 24 -4.5054 -1.6334
-20 2 24 4.7363 -0.7879
-18 2 24 -6.7356 -1.3627
-16 2 24 10.0724 -1.8077
-14 2 24 -1.5509 -0.6157
-12 2 24 -3.0716 2.1217
-10 2 24 24.0711 3.4291
-8 2 24 -28.0452 2.4920
-6 2 24 29.7924 1.1503
-4 2 24 -14.9688 1.1231
-2 2 24 -33.5015 1.8253
0 2 24 -3.7758 1.3367
2 2 24 -1.8288 1.3375
4 2 24 -35.8051 0.6702
6 2 24 -7.9465 -2.7045
8 2 24 41.1119 -5.0222
10 2 24 -5.1792 -1.4941
12 2 24 -9.9136 2.5612
14 2 24 0.4165 1.5762
16 2 24 -1.2692 -1.5122
18 2 24 -10.8510 -1.8572
20 2 24 -7.5169 -1.2702
22 2 24 -0.4110 0.1930
24 2 24 22.8868 0.7591
26 2 24 -1.9961 1.7255
28 2 24 3.9880 0.4128
30 2 24 -1.2682 -0.9391
-31 3 24 -5.3662 -0.8586
-29 3 24 -12.4799 1.0657
-27 3 24 3.1482 -0.3301
-25 3 24 -5.8867 -0.5001
-23 3 24 -5.7094 0.9965
-21 3 24 -5.3886 0.9401
-19 3 24 -8.8097 -0.6983
-17 3 24 -0.2546 0.9677
-15 3 24 -12.6817 4.2650
-13 3 24 11.0032 1.7484
-11 3 24 -21.2889 -2.9558
-9 3 24 -19.7965 -1.3801
-7 3 24 -2.0420 3.0150
-5 3 24 22.8938 1.5319
-3 3 24 -25.4251 -1.0407
-1 3 24 5.7174 -1.0830
1 3 24 17.9156 -3.9610
3 3 24 12.6632 -6.5900
5 3 24 1.2019 -0.4710
7 3 24 -14.5209 6.4396
9 3 24 -9.8165 2.4696
11 3 24 -29.0511 -4.4924
13 3 24 28.5005 -3.8983
15 3 24 -7.1443 0.4962
17 3 24 -1.0778 2.9163
19 3 24 -15.6824 3.9346
21 3 24 7.8712 2.6980
23 3 24 -9.6252 -2.3213
25 3 24 -2.7518 -5.4549
27 3 24 2.9110 -1.2134
29 3 24 -1.0750 5.0401
-32 4 24 3.4450 1.3994
-30 4 24 7.1316 3.4017
-28 4 24 -1.6013 -0.9179
-26 4 24 -0.4483 -1.2896
-24 4 24 -5.2233 3.5087
-22 4 24 -16.4706 2.6260
-20 4 24 8.7249 -4.8052
-18 4 24 0.1530 -2.0576
-16 4 24 -11.2005 7.6492
-14 4 24 -20.5964 4.5710
-12 4 24 -12.1444 -6.2997
-10 4 24 7.9098 -3.5583
-8 4 24 -32.6971 4.8955
-6 4 24 -7.2647 -0.1746
-4 4 24 33.0524 -5.7981
-2 4 24 -0.3930 4.5598
0 4 24 18.9804 7.8761
2 4 24 44.8120 -6.8433
4 4 24 -35.0417 -11.1827
6 4 24 11.6572 4.5378
8 4 24 31.9688 10.0901
10 4 24 -5.7780 -2.0431
12 4 24 -27.6748 -5.7934
14 4 24 11.5221 0.5857
16 4 24 -18.3305 0.1810
18 4 24 -15.5150 -3.6606
20 4 24 -6.9124 0.6290
22 4 24 -10.2666 5.7575
24 4 24 4.8247 -0.1333
26 4 24 0.9519 -5.5588
28 4 24 6.8696 -1.9140
30 4 24 10.5324 2.0552
-31 5 24 7.4989 2.1907
-29 5 24 -1.4805 -0.8537
-27 5 24 1.4988 -3.4736
-25 5 24 9.7166 2.7849
-23 5 24 12.3844 4.8640
-21 5 24 10.4193 -3.7393
-19 5 24 1.5476 -7.1915
-17 5 24 13.8013 2.4875
-15 5 24 -6.0721 6.2492
-13 5 24 -4.3493 -4.0641
-11 5 24 0.8699 -6.3713
-9 5 24 5.1286 4.1440
-7 5 24 -21.5298 4.6907
-5 5 24 11.3654 -7.0818
-3 5 24 -41.0257 -5.4687
-1 5 24 -26.5537 7.9619
1 5 24 8.1858 5.7217
3 5 24 27.5549 -8.1613
5 5 24 -3.0729 -4.8487
7 5 24 -0.6586 7.8862
9 5 24 15.2696 3.9640
11 5 24 -18.6441 -6.1700
13 5 24 13.6903 -0.9685
15 5 24 -22.2013 7.8060
17 5 24 -9.5185 1.2393
19 5 24 -10.4396 -6.1827
21 5 24 4.1289 -0.2348
23 5 24 11.0344 4.8192
25 5 24 3.3014 -0.3914
27 5 24 -16.5698 -2.3166
29 5 24 2.7594 0.7715
-32 6 24 -3.3961 0.0330
-30 6 24 7.2383 -1.6407
-28 6 24 -7.5694 -2.5058
-26 6 24 -1.8850 0.3169
-24 6 24 -4.6263 1.9874
-22 6 24 -4.8016 -1.5989
-20 6 24 -3.2629 -2.5990
-18 6 24 -1.4718 1.6168
-16 6 24 4.5082 2.7530
-14 6 24 -2.5914 -1.2831
-12 6 24 -9.3278 -3.6927
-10 6 24 -7.3797 -0.6502
-8 6 24 7.2256 1.4981
-6 6 24 -2.3550 -0.2180
-4 6 24 3.6011 -1.0274
-2 6 24 3.1018 2.0147
0 6 24 3.8863 1.1915
2 6 24 -10.4977 -2.7504
4 6 24 -8.1122 -0.7913
6 6 24 -5.7337 4.8093
8 6 24 2.9867 5.2528
10 6 24 -2.0977 -0.5394
12 6 24 -10.9826 -3.9325
14 6 24 11.7849 -1.5531
16 6 24 -26.7198 1.7065
18 6 24 5.6823 2.1254
20 6 24 -2.9235 0.2743
22 6 24 -10.1370 -0.5984
24 6 24 -7.1330 -1.8625
26 6 24 0.4188 -2.1518
28 6 24 5.1044 0.0273
30 6 24 4.2678 3.3316
-31 7 24 -1.1816 1.6226
-29 7 24 14.8374 -0.8748
-27 7 24 13.3098 1.3183
-25 7 24 -7.7004 -0.3155
-23 7 24 4.9250 -1.0366
-21 7 24 6.5659 -0.4125
-19 7 24 -0.1537 1.4863
-17 7 24 9.5530 0.8348
-15 7 24 -8.1158 -0.5950
-13 7 24 -27.7566 0.9326
-11 7 24 1.1279 2.1523
-9 7 24 -5.9560 0.6415
-7 7 24 -26.1408 -1.4279
-5 7 24 -0.7143 -1.1262
-3 7 24 -1.8066 0.6767
-1 7 24 -34.0929 1.1252
1 7 24 13.5397 -0.3008
3 7 24 22.2756 -0.1024
5 7 24 -27.2620 -0.7053
7 7 24 16.1232 -2.6194
9 7 24 -5.9635 -2.1615
11 7 24 -0.5886 2.1692
13 7 24 1.3376 3.9782
15 7 24 16.4347 0.0360
17 7 24 8.5401 -2.7197
19 7 24 -6.3830 -1.3681
21 7 24 -2.4605 0.2862
23 7 24 6.9975 0.9020
25 7 24 -2.7552 1.9293
27 7 24 -14.9755 0.7582
29 7 24 9.8461 -0.8286
-30 8 24 11.7867 -0.3891
-28 8 24 1.1533 1.9525
-26 8 24 9.2686 1.7020
-24 8 24 -1.4043 -1.2231
-22 8 24 2.4477 -0.6016
-20 8 24 -2.7397 2.1176
-18 8 24 -23.3638 0.1167
-16 8 24 -2.3714 -4.6894
-14 8 24 -7.4209 -2.7078
-12 8 24 13.1589 2.3226
-10 8 24 9.0135 0.6731
-8 8 24 -1.2359 -4.1887
-6 8 24 -1.2020 -2.9385
-4 8 24 17.7731 1.1118
-2 8 24 8.7942 -0.3930
0 8 24 11.5957 -2.5542
2 8 24 -1.6820 3.1639
4 8 24 13.9415 6.9775
6 8 24 -3.5489 -0.1590
8 8 24 -4.1026 -4.7330
10 8 24 9.0631 0.9124
12 8 24 -5.2958 5.2568
14 8 24 4.8977 1.3792
16 8 24 -1.7909 -0.8697
18 8 24 6.5228 1.0842
20 8 24 -7.3298 0.4427
22 8 24 6.4644 -2.7203
24 8 24 11.0719 -1.3765
26 8 24 -10.3604 3.3286
28 8 24 6.1839 3.5792
-31 9 24 -5.4778 1.2619
-29 9 24 6.4494 -0.1189
-27 9 24 15.0276 -2.2684
-25 9 24 -15.5169 -1.7828
-23 9 24 7.1010 1.3214
-21 9 24 7.6872 1.1598
-19 9 24 2.2778 -0.1093
-17 9 24 2.6122 0.8187
-15 9 24 14.4494 0.7088
-13 9 24 -22.3707 -1.7378
-11 9 24 -11.6775 -0.9095
-9 9 24 -16.7600 3.8587
-7 9 24 9.0445 3.8520
-5 9 24 -16.1834 -1.7980
-3 9 24 -21.3999 -2.5454
-1 9 24 12.3697 0.9967
1 9 24 -15.6837 1.4517
3 9 24 -10.4052 0.4215
5 9 24 -12.0699 1.6129
7 9 24 -0.0839 0.6738
9 9 24 3.8607 -2.6541
11 9 24 0.2109 -2.5556
13 9 24 18.7790 1.1742
15 9 24 -2.9634 1.6047
17 9 24 -10.3412 -0.9097
19 9 24 -1.1235 -1.0748
21 9 24 10.1814 0.1173
23 9 24 9.3121 -0.2928
25 9 24 -7.7547 0.2308
27 9 24 -7.3225 1.0416
29 9 24 -5.0549 0.6571
-30 10 24 -5.9457 -0.7510
-28 10 24 -1.1156 -1.9369
-26 10 24 0.7386 0.5808
-24 10 24 -14.8995 1.5452
-22 10 24 -4.1683 -0.8016
-20 10 24 -5.5642 -1.8403
-18 10 24 -3.3260 1.3156
-16 10 24 6.1245 1.7039
-14 10 24 -13.1295 -1.9961
-12 10 24 13.0358 -2.3944
-10 10 24 14.3160 1.8432
-8 10 24 -4.3857 1.6219
-6 10 24 -12.5488 -3.4686
-4 10 24 21.8071 -3.8867
-2 10 24 -0.2413 1.0758
0 10 24 1.0285 2.0799
2 10 24 37.6594 -0.6713
4 10 24 9.2089 -0.3148
6 10 24 -12.5174 0.9289
8 10 24 -0.0863 -0.6000
10 10 24 1.1264 -1.5115
12 10 24 5.5329 2.1601
14 10 24 15.4337 3.3933
16 10 24 14.4616 0.5212
18 10 24 17.1596 -2.5275
20 10 24 10.4072 -1.4536
22 10 24 -3.3564 0.2571
24 10 24 2.4116 1.6842
26 10 24 -6.5935 0.8378
28 10 24 5.2952 0.5442
-31 11 24 -10.4077 -1.0027
-29 11 24 -0.2468 -2.0518
-27 11 24 6.5930 -1.8412
-25 11 24 -0.0978 1.6794
-23 11 24 -2.7240 0.7244
-21 11 24 -3.0258 -1.4209
-19 11 24 7.3601 -0.6411
-17 11 24 9.3488 1.6856
-15 11 24 -1.4514 -0.5467
-13 11 24 -18.5653 -3.2890
-11 11 24 -0.1747 0.0765
-9 11 24 9.5480 3.9090
-7 11 24 1.7043 1.5091
-5 11 24 0.2980 -2.5874
-3 11 24 -17.7972 -0.2903
-1 11 24 18.5708 3.0122
1 11 24 -15.2080 1.2481
3 11 24 -3.8294 -0.5937
5 11 24 39.3237 1.1084
7 11 24 -14.7927 1.8203
9 11 24 -2.9209 -1.7614
11 11 24 -30.7031 -3.2538
13 11 24 14.7252 -0.4547
15 11 24 9.4596 1.7454
17 11 24 -3.5830 0.5329
19 11 24 -21.5480 -1.0395
21 11 24 7.4775 -0.8594
23 11 24 -0.0072 0.2110
25 11 24 -0.1834 0.6297
27 11 24 -3.9122 0.7972
-30 12 24 7.7243 -1.9792
-28 12 24 -5.3672 0.4772
-26 12 24 10.6870 0.8266
-24 12 24 -3.8180 -1.5695
-22 12 24 8.1042 -1.6015
-20 12 24 -6.7115 2.6579
-18 12 24 -3.7342 3.0452
-16 12 24 1.4652 -1.2885
-14 12 24 -10.2394 -1.8591
-12 12 24 13.2897 1.9135
-10 12 24 28.6873 1.3411
-8 12 24 18.8212 -2.1640
-6 12 24 -10.3392 -0.2702
-4 12 24 18.7039 3.2650
-2 12 24 6.5689 -0.7318
0 12 24 -18.5190 -4.9924
2 12 24 -3.8170 -0.2713
4 12 24 4.1502 3.1958
6 12 24 4.3110 -0.5632
8 12 24 17.9014 -2.7445
10 12 24 -0.4346 1.0135
12 12 24 8.5491 1.7527
14 12 24 6.7587 -2.0519
16 12 24 3.3154 -2.0788
18 12 24 18.1441 1.7679
20 12 24 10.6665 2.5074
22 12 24 -12.0506 -0.4391
24 12 24 3.5232 -0.9521
26 12 24 -10.2987 0.4149
28 12 24 11.8354 1.5431
-29 13 24 -7.4817 1.9312
-27 13 24 -13.7784 0.8615
-25 13 24 8.8854 -0.1808
-23 13 24 6.6624 -0.8747
-21 13 24 -7.1182 0.0856
-19 13 24 -8.3855 -0.6470
-17 13 24 -12.8059 -1.1196
-15 13 24 -1.7259 0.6907
-13 13 24 -20.0601 1.8746
-11 13 24 2.4993 0.3237
-9 13 24 25.1249 -1.8465
-7 13 24 -2.9601 -1.3865
-5 13 24 -19.7661 1.5891
-3 13 24 -23.6382 2.7989
-1 13 24 -9.1135 1.0336
1 13 24 -29.6442 -1.1447
3 13 24 -10.3532 -1.0217
5 13 24 -6.1361 -0.0874
7 13 24 0.1233 0.1589
9 13 24 -6.0459 -0.0019
11 13 24 -5.0548 0.4345
13 13 24 -3.4204 0.0935
15 13 24 0.6553 -2.1075
17 13 24 -3.7649 -1.8303
19 13 24 -5.0408 1.2861
21 13 24 10.2244 1.8499
23 13 24 -20.0306 -1.1103
25 13 24 10.3674 -1.1084
27 13 24 -8.2754 0.0552
-28 14 24 4.1507 -0.5155
-26 14 24 7.2981 0.0030
-24 14 24 -10.6842 0.3008
-22 14 24 3.6455 0.2953
-20 14 24 5.9374 -0.0705
-18 14 24 6.8433 -0.0584
-16 14 24 17.6595 0.9867
-14 14 24 1.6592 0.7871
-12 14 24 -1.5972 0.5571
-10 14 24 -7.3507 0.4001
-8 14 24 -1.8469 0.3138
-6 14 24 -8.1541 -0.1810
-4 14 24 -10.0534 -0.8819
-2 14 24 17.2761 -0.1983
0 14 24 3.8970 0.5854
2 14 24 -10.0456 -0.8008
4 14 24 0.1281 -2.1103
6 14 24 2.7415 -0.8020
8 14 24 -9.5715 0.8606
10 14 24 -1.1439 0.1940
12 14 24 10.1112 -0.7370
14 14 24 6.4155 -0.6235
16 14 24 7.8977 -0.2918
18 14 24 -8.4699 -0.6104
20 14 24 -1.2341 0.1921
22 14 24 -3.9074 1.4438
24 14 24 7.5924 0.2888
26 14 24 -10.2394 -1.2046
-29 15 24 0.1197 -0.3319
-27 15 24 -6.9825 -0.6060
-25 15 24 8.7401 2.0176
-23 15 24 -0.9057 -0.1534
-21 15 24 -15.5129 -2.3282
-19 15 24 -4.0497 -0.5134
-17 15 24 -13.9053 1.3971
-15 15 24 1.0356 0.3851
-13 15 24 -31.4351 -1.8404
-11 15 24 15.0005 -0.2986
-9 15 24 32.8347 0.7215
-7 15 24 8.3357 -0.6153
-5 15 24 -21.8298 -0.9226
-3 15 24 16.4647 1.3666
-1 15 24 -21.2770 2.0620
1 15 24 2.0306 -0.0308
3 15 24 19.9093 -2.1767
5 15 24 -16.1295 -1.2496
7 15 24 4.6143 1.3001
9 15 24 -13.9639 1.4651
11 15 24 -1.1777 -0.6477
13 15 24 -15.0955 -1.0284
15 15 24 -6.8154 -0.2098
17 15 24 -1.3360 -0.5891
19 15 24 -3.3522 -1.0070
21 15 24 -0.6755 0.6870
23 15 24 -8.4948 2.1032
25 15 24 4.0151 0.5103
27 15 24 -4.0752 -1.7719
-28 16 24 -0.9239 -0.7267
-26 16 24 -7.9612 2.8519
-24 16 24 -16.4915 -0.2589
-22 16 24 3.1545 -1.9840
-20 16 24 -12.8017 0.4706
-18 16 24 -10.9901 1.7091
-16 16 24 12.9293 -1.1090
-14 16 24 5.1030 -0.4957
-12 16 24 -3.5381 2.4472
-10 16 24 -12.5456 1.2750
-8 16 24 5.2472 -2.6537
-6 16 24 12.7280 -0.9096
-4 16 24 -30.0062 2.1377
-2 16 24 36.6683 0.3850
0 16 24 4.7881 -1.3452
2 16 24 6.0153 0.2800
4 16 24 2.6349 0.0982
6 16 24 7.5103 -1.9212
8 16 24 -15.2735 -1.2016
10 16 24 6.8094 2.0161
12 16 24 -4.7778 1.5226
14 16 24 6.1000 -1.6964
16 16 24 -5.1679 -0.9918
18 16 24 -11.7484 0.7122
20 16 24 8.7194 -0.0725
22 16 24 -3.7713 -0.6868
24 16 24 4.4974 0.1762
26 16 24 -2.8350 1.4324
-27 17 24 -0.7218 2.4840
-25 17 24 -1.4505 -0.8297
-23 17 24 5.8232 -1.9574
-21 17 24 -0.5816 1.0048
-19 17 24 4.9937 2.0005
-17 17 24 3.2410 -2.2422
-15 17 24 -8.8681 -3.1719
-13 17 24 -30.7870 1.6388
-11 17 24 4.5621 3.0212
-9 17 24 18.6597 -2.2513
-7 17 24 -5.4936 -3.3741
-5 17 24 2.3275 1.5726
-3 17 24 19.5730 1.3441
-1 17 24 6.2241 -2.4058
1 17 24 5.6008 -1.1406
3 17 24 9.0523 3.5086
5 17 24 -2.4370 1.5682
7 17 24 -2.9205 -3.6021
9 17 24 20.3413 -1.4759
11 17 24 12.8984 3.6524
13 17 24 2.9556 2.3157
15 17 24 -16.6685 -2.5376
17 17 24 1.8054 -1.8218
19 17 24 6.6813 0.7896
21 17 24 3.5240 0.5773
23 17 24 1.5965 -0.8665
25 17 24 -1.2387 -0.1453
-26 18 24 0.7473 1.5749
-24 18 24 5.9352 -1.2549
-22 18 24 15.1884 0.7365
-20 18 24 -18.8850 1.6928
-18 18 24 3.8667 -0.1670
-16 18 24 -1.4759 -1.9392
-14 18 24 -5.0609 0.0650
-12 18 24 3.9289 1.4556
-10 18 24 -3.7406 0.2892
-8 18 24 28.1588 -0.5754
-6 18 24 -11.7621 1.0962
-4 18 24 -20.3228 1.9090
-2 18 24 -4.6370 -0.3288
0 18 24 -21.0785 -1.9906
2 18 24 -7.7803 0.0931
4 18 24 -2.3043 2.1297
6 18 24 12.7773 0.3305
8 18 24 -26.2085 -1.8388
10 18 24 8.7526 -0.8041
12 18 24 -17.0080 0.6761
14 18 24 5.7109 0.0236
16 18 24 -7.7267 -0.5887
18 18 24 -9.6565 0.1781
20 18 24 15.9361 0.4956
22 18 24 1.5333 -0.6150
24 18 24 -5.6478 -1.9592
-25 19 24 -8.5836 -1.9518
-23 19 24 -5.1500 -0.1799
-21 19 24 -2.6308 0.4226
-19 19 24 -8.4174 0.2399
-17 19 24 11.1247 -0.5772
-15 19 24 -0.0717 -0.0790
-13 19 24 -4.6074 0.4865
-11 19 24 -0.1650 -1.0785
-9 19 24 7.0220 -1.6602
-7 19 24 -14.8914 -0.1431
-5 19 24 2.1837 0.8638
-3 19 24 -2.5687 -0.7539
-1 19 24 34.8988 -1.4258
1 19 24 4.4588 0.0071
3 19 24 -14.9175 0.5012
5 19 24 3.9851 0.2615
7 19 24 -4.4307 0.4140
9 19 24 -0.8133 0.8021
11 19 24 -16.3322 0.6363
13 19 24 3.6626 0.0168
15 19 24 3.1829 -0.0593
17 19 24 6.2116 0.3626
19 19 24 2.0342 -0.1422
21 19 24 -4.3851 -1.1031
23 19 24 -2.6855 -0.6203
-26 20 24 -0.7226 1.2884
-24 20 24 3.8865 0.7281
-22 20 24 3.6251 -0.0399
-20 20 24 -14.3422 -1.4955
-18 20 24 6.0780 -0.1154
-16 20 24 1.1301 0.2122
-14 20 24 2.6763 -0.8033
-12 20 24 8.2270 -0.5409
-10 20 24 -21.9515 0.6261
-8 20 24 -2.3225 0.4188
-6 20 24 -3.6986 -0.3814
-4 20 24 13.8945 -0.0829
-2 20 24 -30.8868 0.4415
0 20 24 -0.4054 0.2841
2 20 24 9.6802 -0.2318
4 20 24 -5.2363 0.1152
6 20 24 -3.5888 0.0916
8 20 24 -1.3684 0.7617
10 20 24 12.4575 0.1259
12 20 24 -5.0955 -0.9242
14 20 24 -21.4834 -0.3369
16 20 24 -20.1918 0.8769
18 20 24 -4.1599 0.4669
20 20 24 8.5678 -1.0837
22 20 24 -2.7261 -0.4819
-25 21 24 17.2918 0.2301
-23 21 24 7.4600 0.4344
-21 21 24 -0.3024 0.8373
-19 21 24 6.0552 1.2347
-17 21 24 19.1493 -0.1828
-15 21 24 -1.8341 -0.4932
-13 21 24 0.5656 -0.0802
-11 21 24 -4.8717 -0.2670
-9 21 24 3.6547 -1.1516
-7 21 24 -7.2394 0.0205
-5 21 24 -6.6876 1.2978
-3 21 24 1.7042 -0.2722
-1 21 24 21.6337 -1.3416
1 21 24 3.2468 -0.3599
3 21 24 -16.0527 0.8010
5 21 24 -1.7971 0.6152
7 21 24 -8.5626 0.5385
9 21 24 1.2892 0.7506
11 21 24 -7.0606 0.2417
13 21 24 -5.4597 -0.8587
15 21 24 -11.3767 -0.7117
17 21 24 -5.2138 1.3462
19 21 24 3.8086 0.1771
21 21 24 3.0281 -2.2365
23 21 24 -12.1632 -0.6098
-24 22 24 5.2840 0.0467
-22 22 24 -0.7799 -0.4405
-20 22 24 1.5978 0.0181
-18 22 24 -12.5921 0.1560
-16 22 24 3.0491 -0.7355
-14 22 24 4.7569 0.0612
-12 22 24 7.7177 1.3159
-10 22 24 -8.0423 -0.3197
-8 22 24 -0.3634 -1.5421
-6 22 24 -1.4203 0.3320
-4 22 24 2.9213 1.5721
-2 22 24 -12.3787 0.5524
0 22 24 17.6514 -0.2828
2 22 24 17.0062 -0.2509
4 22 24 -21.4867 -0.2909
6 22 24 5.3226 -0.2060
8 22 24 -0.9514 0.1385
10 22 24 -15.4176 1.0497
12 22 24 8.5134 0.6648
14 22 24 -12.7085 -1.1828
16 22 24 -4.4149 -0.9689
18 22 24 0.6041 0.1626
20 22 24 -20.4006 -0.1849
22 22 24 -8.6612 1.0683
-23 23 24 -3.1352 1.5443
-21 23 24 -1.2580 1.8182
-19 23 24 -1.9789 0.3239
-17 23 24 -5.7680 -1.7160
-15 23 24 -5.3240 -0.2666
-13 23 24 -2.0608 1.5257
-11 23 24 14.7984 0.4351
-9 23 24 9.8112 -1.5259
-7 23 24 -5.9180 -0.4515
-5 23 24 -28.1941 0.9742
-3 23 24 10.3770 -0.5168
-1 23 24 0.6891 -1.6157
1 23 24 6.4899 -0.2499
3 23 24 10.5443 1.0897
5 23 24 -4.8498 0.1314
7 23 24 1.1966 -0.6860
9 23 24 18.1059 0.5078
11 23 24 -11.4384 0.6584
13 23 24 5.2294 -0.3800
15 23 24 -4.6216 -0.9107
17 23 24 -9.5469 0.4621
19 23 24 -11.0547 0.1258
21 23 24 7.1955 -2.3418
-22 24 24 -10.1404 0.6781
-20 24 24 0.6912 0.5341
-18 24 24 -17.5363 0.2230
-16 24 24 0.8873 0.5316
-14 24 24 19.0066 0.4081
-12 24 24 1.9200 -0.0540
-10 24 24 -13.1722 -0.1197
-8 24 24 -10.0231 -0.1188
-6 24 24 20.5691 0.2636
-4 24 24 3.2273 0.5170
-2 24 24 -9.1878 0.1666
0 24 24 10.8887 0.4649
2 24 24 2.7661 0.8441
4 24 24 -12.3341 -0.2650
6 24 24 -0.7017 -0.9558
8 24 24 -6.0914 0.1461
10 24 24 -9.4341 1.0288
12 24 24 15.1226 -0.0950
14 24 24 -45.3942 -0.5743
16 24 24 -8.9861 0.0911
18 24 24 28.1455 -1.1562
20 24 24 -11.0093 -2.3166
-21 25 24 9.9987 0.8362
-19 25 24 -4.7311 0.2961
-17 25 24 9.5723 0.0782
-15 25 24 -5.4120 0.2849
-13 25 24 -18.4087 0.4169
-11 25 24 9.0895 0.2430
-9 25 24 10.5827 0.2886
-7 25 24 -4.4891 0.2343
-5 25 24 -26.6589 -0.5453
-3 25 24 -1.0108 -0.8461
-1 25 24 -14.2843 -0.0441
1 25 24 -13.5622 0.5241
3 25 24 -4.6297 -0.1149
5 25 24 -4.6669 -0.7622
7 25 24 10.3002 -0.6796
9 25 24 16.3195 0.0847
11 25 24 -6.4710 -0.0858
13 25 24 -4.4100 -0.5433
15 25 24 16.7662 -0.5804
17 25 24 0.3035 0.0899
19 25 24 -21.5940 1.6244
-20 26 24 8.1868 1.9201
-18 26 24 4.7109 1.1415
-16 26 24 4.1713 -0.7340
-14 26 24 16.6995 -0.6839
-12 26 24 0.0882 0.0562
-10 26 24 0.9350 0.4661
-8 26 24 -4.7420 0.2568
-6 26 24 12.4493 0.3088
-4 26 24 2.7389 -0.1770
-2 26 24 5.7227 -0.9038
0 26 24 4.6252 -0.0577
2 26 24 -2.1264 0.7482
4 26 24 -19.0958 0.6974
6 26 24 -3.0850 -0.3352
8 26 24 10.5238 -0.2007
10 26 24 -13.3699 -0.1180
12 26 24 32.5054 -0.2518
14 26 24 -17.5721 0.8935
16 26 24 -6.6833 0.0123
-17 27 24 9.0474 -1.3579
-15 27 24 5.9907 -0.0903
-13 27 24 -0.5627 0.8028
-11 27 24 11.6349 0.2956
-9 27 24 -2.0869 -0.5832
-7 27 24 11.3953 -0.3651
-5 27 24 22.1136 0.8225
-3 27 24 -3.3352 -0.0480
-1 27 24 8.6359 -1.0107
1 27 24 -7.5430 -0.3474
3 27 24 1.9200 0.6745
5 27 24 -9.4683 -0.0495
7 27 24 -0.5565 -1.4211
9 27 24 0.9883 -0.3372
11 27 24 0.6915 1.1686
13 27 24 -9.0116 -0.0087
15 27 24 5.7250 -2.4940
-16 28 24 4.3131 -1.0307
-14 28 24 -10.4839 1.0544
-12 28 24 1.8328 0.3008
-10 28 24 5.6936 -0.9460
-8 28 24 2.0454 -0.4582
-6 28 24 3.2411 1.1088
-4 28 24 19.4132 0.5683
-2 28 24 15.0759 -0.9393
0 28 24 -6.1680 -0.3359
2 28 24 -19.1434 1.1905
4 28 24 -3.3445 1.1266
6 28 24 -2.2016 -0.5065
8 28 24 0.7894 -0.3943
10 28 24 -1.5697 -0.1227
12 28 24 17.0141 0.2869
14 28 24 -11.4948 -0.6670
-15 29 24 1.0162 0.8116
-13 29 24 11.1876 -0.7562
-11 29 24 -7.8524 -1.5072
-9 29 24 -3.2113 -0.0432
-7 29 24 3.3681 0.5297
-5 29 24 -2.3857 0.6365
-3 29 24 -12.9326 -0.0672
-1 29 24 5.7358 0.1947
1 29 24 2.2956 -0.0538
3 29 24 4.7618 -0.7033
5 29 24 -6.6473 -0.2069
7 29 24 -0.3421 0.1198
9 29 24 -9.8716 0.5672
11 29 24 2.8877 -0.0554
13 29 24 2.3922 -1.0469
-12 30 24 4.5735 -1.0478
-10 30 24 -4.7813 -0.1022
-8 30 24 1.9427 1.2113
-6 30 24 -0.3679 -0.4355
-4 30 24 -0.8477 -0.5670
-2 30 24 -0.2055 0.1237
0 30 24 -10.1952 0.7163
2 30 24 -10.2165 0.3033
4 30 24 16.3726 -1.2554
6 30 24 -0.3469 0.8192
8 30 24 -15.5239 1.6426
10 30 24 2.4528 0.2909
-9 31 24 9.4732 0.2045
-7 31 24 3.3219 -0.5196
-5 31 24 4.9188 -0.7553
-3 31 24 -2.9361 -0.1417
-1 31 24 1.9334 0.7483
1 31 24 1.9880 -0.0993
3 31 24 -15.3687 -0.3991
5 31 24 5.1372 -0.5274
7 31 24 -8.9401 -0.2143
-4 32 24 -1.3262 0.6921
-2 32 24 6.6804 0.1874
0 32 24 -7.9506 -0.0175
2 32 24 17.3916 0.6220
-31 1 25 -2.2237 2.9346
-29 1 25 -3.9626 -2.6533
-27 1 25 6.9148 -9.5538
-25 1 25 -5.1544 2.7191
-23 1 25 -4.3269 15.3465
-21 1 25 -7.4407 -2.9985
-19 1 25 10.1278 -19.3944
-17 1 25 -0.6887 -0.9589
-15 1 25 -5.8740 13.3192
-13 1 25 14.0402 -2.8443
-11 1 25 9.4212 -7.9156
-9 1 25 -18.3886 12.9245
-7 1 25 -5.9002 6.8641
-5 1 25 -10.1088 -23.6017
-3 1 25 -29.3202 -8.7131
-1 1 25 -8.9573 31.6236
1 1 25 -1.9352 21.0158
3 1 25 4.0582 -18.5597
5 1 25 -11.1217 -14.4355
7 1 25 -5.3571 12.4494
9 1 25 -20.3015 5.5351
11 1 25 -10.5796 -8.6142
13 1 25 2.4953 5.8998
15 1 25 -21.6103 12.4348
17 1 25 5.4343 -10.1936
19 1 25 12.8028 -19.7218
21 1 25 2.1401 3.0419
23 1 25 -12.4142 15.6063
25 1 25 -1.9963 2.2966
27 1 25 2.1253 -9.1476
29 1 25 -8.3615 0.0192
-32 2 25 -2.6423 3.3036
-30 2 25 5.0375 3.8640
-28 2 25 -4.8357 -2.7568
-26 2 25 -7.3705 -4.9643
-24 2 25 -9.8208 2.4039
-22 2 25 6.8273 3.8114
-20 2 25 -9.4903 -4.7592
-18 2 25 1.0254 -1.8146
-16 2 25 17.1244 10.4841
-14 2 25 -12.0432 5.7024
-12 2 25 -43.5402 -12.0257
-10 2 25 4.3737 -6.6742
-8 2 25 3.7406 14.4365
-6 2 25 7.0690 10.0483
-4 2 25 23.2934 -10.4820
-2 2 25 -5.3972 -7.0250
0 2 25 -30.5199 7.1735
2 2 25 -21.6525 -2.5142
4 2 25 -13.8041 -13.5054
6 2 25 0.9598 3.4755
8 2 25 3.5747 15.9470
10 2 25 20.1845 -2.6291
12 2 25 -27.2926 -16.8009
14 2 25 21.9122 -0.8607
16 2 25 -9.7925 12.1510
18 2 25 -16.0948 2.1181
20 2 25 -20.0028 -4.3341
22 2 25 -6.8404 2.3360
24 2 25 9.4622 2.4846
26 2 25 -11.6329 -4.8795
28 2 25 -10.7314 -5.0023
30 2 25 2.7077 6.4877
-31 3 25 -6.7826 0.9908
-29 3 25 -11.0464 -0.2508
-27 3 25 -2.2621 0.3949
-25 3 25 -2.4530 2.8503
-23 3 25 11.4251 3.0651
-21 3 25 2.7147 0.7125
-19 3 25 5.7593 -2.7556
-17 3 25 7.5347 -2.1236
-15 3 25 2.8929 2.0603
-13 3 25 6.7644 3.0373
-11 3 25 -0.9474 0.0821
-9 3 25 -10.4142 -3.2471
-7 3 25 -13.9680 -4.4814
-5 3 25 -30.6532 -4.4003
-3 3 25 -10.9443 -0.5405
-1 3 25 1.3026 4.9090
1 3 25 37.0985 3.9261
3 3 25 44.3958 -3.2942
5 3 25 -3.2331 -7.4849
7 3 25 -3.7980 -1.7632
9 3 25 0.2791 5.3420
11 3 25 -16.2813 4.4959
13 3 25 3.2213 0.2640
15 3 25 -13.5595 -2.4811
17 3 25 8.5101 -3.3122
19 3 25 23.6367 -1.7123
21 3 25 -6.4520 2.2923
23 3 25 -19.9756 4.3111
25 3 25 -18.0056 0.9037
27 3 25 -5.5656 -3.7516
29 3 25 3.9685 -3.2455
-32 4 25 -5.4675 0.0060
-30 4 25 8.3710 -1.1177
-28 4 25 10.6917 0.7815
-26 4 25 -6.6850 -0.2614
-24 4 25 -5.2645 -2.9904
-22 4 25 22.4922 -1.3617
-20 4 25 5.3628 3.7407
-18 4 25 8.0050 1.6915
-16 4 25 15.5030 -4.3820
-14 4 25 9.9827 -2.0479
-12 4 25 5.7418 5.2070
-10 4 25 6.4538 3.4900
-8 4 25 4.1961 -2.2228
-6 4 25 4.2292 0.2605
-4 4 25 5.1488 3.2598
-2 4 25 10.4838 -3.6281
0 4 25 -13.3737 -8.0903
2 4 25 -11.1067 1.2495
4 4 25 15.9019 7.8073
6 4 25 -11.6724 -1.3011
8 4 25 -13.2848 -8.6980
10 4 25 1.7807 -1.9884
12 4 25 -13.2698 3.9485
14 4 25 -2.9238 0.8751
16 4 25 -17.1892 0.2839
18 4 25 3.5753 3.2988
20 4 25 1.7490 0.1569
22 4 25 9.8795 -5.3416
24 4 25 8.6684 -1.9222
26 4 25 5.0094 4.1296
28 4 25 -16.3857 2.9441
-31 5 25 -2.6438 -2.2676
-29 5 25 7.0764 3.4453
-27 5 25 -9.9945 0.7904
-25 5 25 13.2105 -2.6035
-23 5 25 0.1214 -1.1125
-21 5 25 15.0495 1.9106
-19 5 25 -3.3174 0.5601
-17 5 25 2.8021 -0.3522
-15 5 25 -5.2712 1.8690
-13 5 25 -20.8460 0.4917
-11 5 25 -2.8981 -4.2454
-9 5 25 18.0996 -2.4288
-7 5 25 -32.4932 3.9217
-5 5 25 -1.9271 3.0932
-3 5 25 30.9561 -2.5888
-1 5 25 -36.3470 -3.2480
1 5 25 -4.7839 -1.4045
3 5 25 18.6806 -1.0644
5 5 25 17.9310 1.2352
7 5 25 -4.2308 4.4027
9 5 25 5.0646 1.2809
11 5 25 -18.1947 -3.6021
13 5 25 -15.1185 -2.3322
15 5 25 -8.1389 2.1747
17 5 25 8.1510 2.2845
19 5 25 19.2788 0.7776
21 5 25 -25.9496 0.8158
23 5 25 -6.1261 -0.7504
25 5 25 -3.3756 -3.0263
27 5 25 -2.7028 -0.8852
29 5 25 12.7717 0.0830
-30 6 25 -14.1705 1.8779
-28 6 25 7.6230 -0.3937
-26 6 25 -1.6762 -1.4313
-24 6 25 -5.8302 2.1048
-22 6 25 9.6071 2.7709
-20 6 25 5.1566 -2.4221
-18 6 25 16.5708 -1.8003
-16 6 25 2.6701 4.9500
-14 6 25 -10.4043 3.5564
-12 6 25 15.5103 -3.8331
-10 6 25 -4.0344 -0.7329
-8 6 25 -0.1066 6.5496
-6 6 25 -9.4612 0.6233
-4 6 25 -27.4138 -8.2626
-2 6 25 -0.0190 -2.2391
0 6 25 -18.9078 5.7372
2 6 25 -14.3860 -0.6199
4 6 25 -10.5485 -7.0485
6 6 25 -30.1602 -0.8168
8 6 25 -1.4337 2.8269
10 6 25 -0.8240 -3.2179
12 6 25 16.5144 -3.8127
14 6 25 0.9755 4.6540
16 6 25 16.3993 5.0583
18 6 25 1.9629 -3.2555
20 6 25 8.4470 -4.9877
22 6 25 -0.7852 1.0817
24 6 25 0.3699 2.8008
26 6 25 -8.4254 0.6702
28 6 25 -3.7855 -1.8141
-31 7 25 -4.5137 2.3888
-29 7 25 -2.2343 1.0979
-27 7 25 -3.8932 -2.3170
-25 7 25 5.5198 -0.7867
-23 7 25 -3.3977 0.9763
-21 7 25 19.4375 -0.4064
-19 7 25 -26.6875 -1.4613
-17 7 25 4.4587 1.3607
-15 7 25 27.2841 1.2570
-13 7 25 -5.7464 -4.8454
-11 7 25 -8.2935 -5.8960
-9 7 25 -3.8212 2.2205
-7 7 25 -3.4191 6.8704
-5 7 25 -0.1496 -0.2943
-3 7 25 -8.8507 -6.7407
-1 7 25 -6.3786 -2.4245
1 7 25 2.9802 1.6689
3 7 25 18.5351 1.2631
5 7 25 -5.9306 3.3925
7 7 25 -30.8269 5.2915
9 7 25 -4.8192 -0.4016
11 7 25 14.0283 -6.2933
13 7 25 -4.7222 -1.8216
15 7 25 -9.6537 6.6804
17 7 25 6.0394 5.8765
19 7 25 4.9351 -1.7182
21 7 25 -4.0556 -4.7767
23 7 25 -6.4786 -2.1414
25 7 25 -2.5639 -0.2336
27 7 25 11.4074 0.9791
29 7 25 0.5297 2.8880
-30 8 25 -6.9066 -0.6865
-28 8 25 0.2621 -0.4721
-26 8 25 -10.8029 0.6279
-24 8 25 -2.9465 0.1210
-22 8 25 0.9416 -1.3745
-20 8 25 3.4445 -0.4204
-18 8 25 6.4819 1.5264
-16 8 25 1.1905 1.1453
-14 8 25 -4.7958 -0.5772
-12 8 25 14.1670 -0.2875
-10 8 25 29.7182 0.6312
-8 8 25 -4.9140 0.1588
-6 8 25 -12.5820 -0.1789
-4 8 25 25.5010 1.8126
-2 8 25 4.3590 2.5659
0 8 25 -11.7254 -0.6226
2 8 25 18.5643 -2.6265
4 8 25 9.3494 -0.0034
6 8 25 17.6516 2.2128
8 8 25 -2.6897 0.0953
10 8 25 -11.6964 -0.8544
12 8 25 -12.2577 0.9429
14 8 25 -0.3798 0.1666
16 8 25 9.1015 -2.3110
18 8 25 4.5315 -0.7829
20 8 25 7.0995 1.3878
22 8 25 -3.3845 0.5017
24 8 25 5.1958 -1.2377
26 8 25 -10.4941 -0.4787
28 8 25 3.2096 -1.3973
-31 9 25 -10.9213 0.0137
-29 9 25 0.4192 1.8535
-27 9 25 -2.8596 1.4494
-25 9 25 0.5022 -2.2597
-23 9 25 -9.0189 -0.2828
-21 9 25 6.1828 1.8341
-19 9 25 -11.3579 0.4961
-17 9 25 23.2292 -1.0630
-15 9 25 -25.6434 0.6605
-13 9 25 4.3058 1.0584
-11 9 25 3.6145 -1.7396
-9 9 25 7.7323 -1.5345
-7 9 25 11.6169 1.0353
-5 9 25 -13.5199 0.3531
-3 9 25 -4.7036 -2.3295
-1 9 25 19.4493 -1.8147
1 9 25 -7.7432 0.3537
3 9 25 -16.5876 0.4495
5 9 25 17.1039 0.3523
7 9 25 -5.1770 0.5154
9 9 25 5.9491 -0.3998
11 9 25 25.5794 -0.0413
13 9 25 7.1862 1.8183
15 9 25 -6.0071 1.4887
17 9 25 11.5024 -0.7298
19 9 25 -0.5743 -0.9720
21 9 25 5.0888 -0.0191
23 9 25 -18.6479 -0.4270
25 9 25 -0.8820 -1.7463
27 9 25 9.3268 1.8892
-30 10 25 -19.6037 2.4998
-28 10 25 -1.9541 -0.7101
-26 10 25 1.1781 -1.6282
-24 10 25 6.4751 0.6423
-22 10 25 8.7596 1.6552
-20 10 25 -5.0520 -2.9416
-18 10 25 -14.0302 -3.6450
-16 10 25 10.2559 1.2869
-14 10 25 -5.8221 1.1393
-12 10 25 -12.7466 -3.7169
-10 10 25 17.5943 -1.8956
-8 10 25 -7.3413 3.7897
-6 10 25 -24.2768 1.4746
-4 10 25 7.6635 -2.8907
-2 10 25 4.6239 1.7320
0 10 25 -4.7938 6.0177
2 10 25 0.7047 0.7683
4 10 25 2.2062 -2.3330
6 10 25 -3.8671 2.0547
8 10 25 -17.6443 4.0429
10 10 25 -5.2083 -1.3851
12 10 25 -8.4206 -2.6781
14 10 25 2.5063 1.3735
16 10 25 -4.1188 0.6442
18 10 25 -2.5726 -1.5993
20 10 25 2.6979 -1.1024
22 10 25 -5.2258 0.9976
24 10 25 -3.3327 -0.2781
26 10 25 -1.2383 -2.4076
28 10 25 6.6131 -0.8129
-29 11 25 16.6518 -0.3801
-27 11 25 -13.8865 -2.4948
-25 11 25 9.8847 1.1535
-23 11 25 6.1739 4.0208
-21 11 25 -5.3954 -0.9991
-19 11 25 -9.0117 -3.7896
-17 11 25 35.6810 2.3826
-15 11 25 -20.1058 5.1081
-13 11 25 12.5518 -0.7442
-11 11 25 1.9220 -2.7790
-9 11 25 5.6234 2.9462
-7 11 25 -13.0046 2.2232
-5 11 25 -10.8769 -4.2540
-3 11 25 -11.4957 -1.9835
-1 11 25 -14.5687 5.5518
1 11 25 0.4477 2.5620
3 11 25 8.9713 -5.8085
5 11 25 26.7528 -4.3747
7 11 25 1.8280 2.9881
9 11 25 -20.3945 3.2912
11 11 25 -0.9212 -0.5486
13 11 25 -4.0139 -0.0174
15 11 25 3.4925 1.1575
17 11 25 5.4629 -1.6297
19 11 25 5.2696 -2.7268
21 11 25 4.3488 1.6028
23 11 25 -13.3803 4.0626
25 11 25 7.8505 -0.0182
27 11 25 4.2570 -3.1302
-30 12 25 0.6040 -1.1336
-28 12 25 3.7578 -1.7383
-26 12 25 -3.8521 0.3102
-24 12 25 0.6143 2.7564
-22 12 25 0.1398 -0.9395
-20 12 25 2.1667 -3.7930
-18 12 25 -18.3318 0.0526
-16 12 25 -16.9186 2.3897
-14 12 25 -12.3259 -0.8286
-12 12 25 -7.6713 -2.5955
-10 12 25 19.4319 0.2899
-8 12 25 7.6608 1.4956
-6 12 25 0.1445 -2.0685
-4 12 25 3.0088 -2.5615
-2 12 25 9.0454 2.3954
0 12 25 2.2917 4.3703
2 12 25 -15.8658 0.1208
4 12 25 -4.5233 -2.6082
6 12 25 12.4675 0.3576
8 12 25 8.5226 2.7514
10 12 25 -0.5424 0.1854
12 12 25 -4.7613 -1.3340
14 12 25 -16.4364 0.7426
16 12 25 -4.7648 1.0196
18 12 25 -6.2701 -1.1861
20 12 25 1.6912 -2.0141
22 12 25 -3.7594 0.6358
24 12 25 2.8583 1.4220
26 12 25 2.0271 -0.4401
-29 13 25 10.3819 -2.1083
-27 13 25 4.8117 0.8826
-25 13 25 -3.1339 1.1779
-23 13 25 -6.0322 0.0721
-21 13 25 7.7163 -0.2434
-19 13 25 -20.0288 0.4788
-17 13 25 17.3339 -0.6694
-15 13 25 5.2436 -1.4857
-13 13 25 0.9583 1.1348
-11 13 25 11.4834 2.9859
-9 13 25 -13.1080 0.2780
-7 13 25 -11.5798 -2.3753
-5 13 25 -8.7216 -1.5549
-3 13 25 -20.4053 1.0354
-1 13 25 3.3492 1.3003
1 13 25 -7.8473 0.3544
3 13 25 1.0653 0.2309
5 13 25 -3.6918 -0.6196
7 13 25 9.6210 -2.4421
9 13 25 -21.8549 -1.1236
11 13 25 13.6427 2.0536
13 13 25 15.8167 1.8563
15 13 25 6.4977 -1.2534
17 13 25 -6.1271 -2.5043
19 13 25 3.1021 -0.0009
21 13 25 -4.0191 1.2129
23 13 25 -8.7391 0.6320
25 13 25 6.3003 0.0427
27 13 25 6.4791 -0.1558
-28 14 25 -3.5101 1.2155
-26 14 25 -14.3530 -0.8842
-24 14 25 0.0189 -0.6974
-22 14 25 -18.0731 -0.0942
-20 14 25 2.2236 1.1833
-18 14 25 12.6012 0.1766
-16 14 25 -8.5429 -0.2555
-14 14 25 2.1924 0.2125
-12 14 25 -19.7284 -0.5861
-10 14 25 -3.7326 -0.9530
-8 14 25 -10.4944 0.1288
-6 14 25 13.8857 1.1469
-4 14 25 -2.4214 -0.0785
-2 14 25 8.5625 -0.9619
0 14 25 12.1031 -0.2811
2 14 25 47.1097 0.5059
4 14 25 10.2861 0.5933
6 14 25 -4.5490 0.5877
8 14 25 0.8280 0.1739
10 14 25 20.1205 -0.0525
12 14 25 0.0282 0.6359
14 14 25 -12.0059 -0.2147
16 14 25 -10.2701 -0.3578
18 14 25 -3.1694 0.2691
20 14 25 6.9373 0.7407
22 14 25 5.6124 -0.3747
24 14 25 2.3668 -0.1766
26 14 25 1.9184 0.7259
-27 15 25 7.4804 -0.7718
-25 15 25 -10.3236 0.9846
-23 15 25 -12.5598 0.4243
-21 15 25 24.7161 -1.2313
-19 15 25 -24.3286 -0.8268
-17 15 25 2.9584 0.5479
-15 15 25 -0.9926 1.1715
-13 15 25 -14.6638 0.5585
-11 15 25 2.4298 0.8418
-9 15 25 1.5622 0.9392
-7 15 25 3.4412 -0.1411
-5 15 25 12.3955 -0.6338
-3 15 25 -3.1615 1.0596
-1 15 25 10.4481 1.2469
1 15 25 -5.5864 -0.7293
3 15 25 -7.4897 -1.1793
5 15 25 5.8569 -0.0588
7 15 25 16.1270 -0.1999
9 15 25 -3.8419 -1.8028
11 15 25 -0.2234 -0.9346
13 15 25 1.5850 0.8527
15 15 25 6.8778 0.6504
17 15 25 1.9209 -0.7608
19 15 25 -0.4794 0.8223
21 15 25 3.4255 1.5311
23 15 25 5.3513 -0.1624
25 15 25 -6.4939 -0.3591
-28 16 25 6.9296 -2.9476
-26 16 25 -0.5007 -0.6620
-24 16 25 -1.5616 1.9965
-22 16 25 -7.4101 0.5667
-20 16 25 5.4419 -0.9936
-18 16 25 18.5830 0.3476
-16 16 25 -13.6777 1.7014
-14 16 25 8.5474 -0.5868
-12 16 25 -3.2499 -2.4802
-10 16 25 10.2917 0.9038
-8 16 25 5.7364 2.8208
-6 16 25 -4.2744 -0.7831
-4 16 25 2.4932 -3.2510
-2 16 25 8.4645 -0.0503
0 16 25 12.4097 1.7148
2 16 25 12.0641 -1.1696
4 16 25 20.0369 -1.7291
6 16 25 15.3737 1.6630
8 16 25 -12.9090 1.4172
10 16 25 3.0463 -2.2533
12 16 25 6.6017 -2.1365
14 16 25 12.5577 1.7643
16 16 25 -1.4153 1.9163
18 16 25 9.9217 -0.7004
20 16 25 8.8254 -0.4701
22 16 25 3.5415 1.5682
24 16 25 -4.3215 0.7666
26 16 25 10.0875 -2.5620
-27 17 25 2.8022 -1.2699
-25 17 25 -2.0973 1.0868
-23 17 25 8.1859 -1.7906
-21 17 25 7.5571 -1.4259
-19 17 25 -12.5099 1.0833
-17 17 25 8.5097 2.4510
-15 17 25 -17.5602 0.7174
-13 17 25 -7.8627 -1.3673
-11 17 25 -15.4041 -0.7475
-9 17 25 -8.5114 0.9029
-7 17 25 2.1864 0.7398
-5 17 25 2.5160 0.3647
-3 17 25 -3.1659 0.7950
-1 17 25 -5.5781 -0.1736
1 17 25 -12.0788 -2.2079
3 17 25 -28.5714 -1.7499
5 17 25 20.0464 0.8703
7 17 25 3.7255 1.3310
9 17 25 13.2638 -0.0144
11 17 25 8.1734 -1.6073
13 17 25 -4.6610 -1.6575
15 17 25 0.1516 0.0979
17 17 25 -8.7507 1.4015
19 17 25 -5.0184 1.5489
21 17 25 2.5211 0.6486
23 17 25 9.1375 -1.4179
25 17 25 2.7070 -1.0467
-26 18 25 -3.1617 -0.4590
-24 18 25 -4.1906 0.5797
-22 18 25 -8.3999 -0.4082
-20 18 25 2.9030 -0.7347
-18 18 25 14.1951 -0.2181
-16 18 25 6.5081 0.3192
-14 18 25 18.3232 0.7801
-12 18 25 -2.9697 0.4974
-10 18 25 3.5647 0.2150
-8 18 25 -16.9850 -0.9273
-6 18 25 3.2617 -1.4664
-4 18 25 35.0639 -0.4158
-2 18 25 -22.6978 1.4299
0 18 25 1.2581 0.2784
2 18 25 19.6455 -1.5263
4 18 25 4.5392 -1.0692
6 18 25 -0.6230 -0.0358
8 18 25 4.3815 -0.1808
10 18 25 -27.2956 0.0709
12 18 25 -5.8803 1.2194
14 18 25 4.7751 0.7899
16 18 25 -0.1919 -0.8079
18 18 25 8.5083 -0.1012
20 18 25 0.2325 2.2404
22 18 25 -6.3127 0.5603
24 18 25 -6.4734 -1.1011
-25 19 25 2.1041 -1.3467
-23 19 25 3.6709 -1.2018
-21 19 25 -7.0807 0.3249
-19 19 25 7.1765 0.7107
-17 19 25 -0.2198 0.1424
-15 19 25 -11.9511 -0.9125
-13 19 25 -2.9243 -0.4769
-11 19 25 -18.1622 0.5844
-9 19 25 -5.2249 0.6459
-7 19 25 -0.2041 -0.1857
-5 19 25 -8.5018 0.4430
-3 19 25 5.0642 0.9569
-1 19 25 3.2548 -0.5267
1 19 25 15.0785 -1.1580
3 19 25 -12.6682 0.2878
5 19 25 17.8874 1.3985
7 19 25 -3.6538 -0.2558
9 19 25 6.7715 -1.5568
11 19 25 -13.0007 -0.2822
13 19 25 -4.7541 1.0309
15 19 25 8.0358 0.0108
17 19 25 -7.3065 -0.5173
19 19 25 -5.8680 1.5648
21 19 25 6.7804 1.3185
23 19 25 6.1323 -1.2537
-24 20 25 1.8206 0.5562
-22 20 25 0.9479 0.1191
-20 20 25 -0.2612 -1.5619
-18 20 25 1.8246 -0.3371
-16 20 25 0.8147 0.8231
-14 20 25 3.9351 0.4378
-12 20 25 10.6933 -0.7113
-10 20 25 15.3444 -0.0753
-8 20 25 1.1230 0.3560
-6 20 25 4.6548 -0.9881
-4 20 25 15.5736 -0.9415
-2 20 25 -2.5316 0.5978
0 20 25 1.2787 0.8123
2 20 25 0.5714 -1.1259
4 20 25 -4.9350 -1.0577
6 20 25 5.3563 0.9660
8 20 25 10.8582 0.5858
10 20 25 -20.1391 -0.7313
12 20 25 10.7424 -0.0304
14 20 25 8.3967 1.2580
16 20 25 -28.9900 1.0763
18 20 25 0.7319 -0.8868
20 20 25 -2.1383 -0.2780
22 20 25 -5.9337 1.2531
-23 21 25 -3.3643 -1.1029
-21 21 25 0.0201 -1.0358
-19 21 25 -2.4231 -0.1066
-17 21 25 -12.2476 1.0029
-15 21 25 1.5151 -0.7805
-13 21 25 -2.7281 -1.2357
-11 21 25 -16.7116 0.5677
-9 21 25 -6.0680 1.2434
-7 21 25 -2.5004 -0.4457
-5 21 25 -2.3117 -1.2380
-3 21 25 18.4834 -0.0297
-1 21 25 -11.9602 1.0024
1 21 25 11.9686 0.7428
3 21 25 18.3509 0.1340
5 21 25 -0.9522 -0.6955
7 21 25 13.4221 -0.1879
9 21 25 11.9761 0.7357
11 21 25 -21.8461 0.1142
13 21 25 0.4350 -0.0594
15 21 25 14.9080 0.9642
17 21 25 3.5239 0.1135
19 21 25 -13.7575 -1.2141
21 21 25 -12.6037 -0.4776
-22 22 25 -4.3301 -1.2189
-20 22 25 6.8642 -0.7758
-18 22 25 -8.6698 1.4877
-16 22 25 -0.8033 0.3684
-14 22 25 8.6103 -1.4480
-12 22 25 9.0586 -0.4542
-10 22 25 1.6517 1.4722
-8 22 25 0.6626 0.8247
-6 22 25 3.0793 -0.7391
-4 22 25 -8.8534 -0.4297
-2 22 25 -5.2128 0.0751
0 22 25 -10.9489 -0.5525
2 22 25 -11.5693 0.1083
4 22 25 -4.6141 1.0815
6 22 25 4.9546 0.6667
8 22 25 3.2064 -0.9441
10 22 25 -5.3649 -0.8808
12 22 25 13.3941 0.1785
14 22 25 11.7409 0.9751
16 22 25 -8.7853 1.2577
18 22 25 4.5334 0.0549
20 22 25 -13.1071 -0.4659
-21 23 25 6.2810 0.8527
-19 23 25 -22.5627 1.3468
-17 23 25 1.1926 -0.5810
-15 23 25 6.5139 -2.5736
-13 23 25 14.3814 0.0147
-11 23 25 -10.6972 1.6194
-9 23 25 3.9766 -0.6755
-7 23 25 2.2333 -1.5382
-5 23 25 -3.6988 0.8901
-3 23 25 8.2487 1.4112
-1 23 25 9.0923 -1.0111
1 23 25 -1.2501 -0.6366
3 23 25 7.5402 1.9957
5 23 25 7.4678 1.6895
7 23 25 10.6358 -1.3960
9 23 25 10.0764 -0.9828
11 23 25 -16.4696 0.9711
13 23 25 -11.0113 0.9625
15 23 25 0.7072 0.2394
17 23 25 0.4777 -0.0851
19 23 25 7.0375 0.1432
-20 24 25 19.5418 1.0977
-18 24 25 -0.3758 0.5611
-16 24 25 -2.5194 -1.7694
-14 24 25 -10.2247 -0.4414
-12 24 25 7.4636 1.6271
-10 24 25 1.6018 0.3269
-8 24 25 -0.6913 -1.0339
-6 24 25 3.9194 0.8459
-4 24 25 -6.0720 1.5752
-2 24 25 -13.5201 -0.9864
0 24 25 -10.4067 -2.4426
2 24 25 -0.6763 0.1781
4 24 25 -10.5996 2.2573
6 24 25 0.1640 0.1561
8 24 25 -1.7399 -1.2434
10 24 25 -3.0009 -0.7090
12 24 25 9.0337 0.7062
14 24 25 -11.2381 1.2820
16 24 25 4.1571 0.4510
18 24 25 6.2398 -1.5260
-19 25 25 -10.4713 -0.4437
-17 25 25 15.5515 -0.9893
-15 25 25 11.7122 -0.3207
-13 25 25 -2.4007 0.2793
-11 25 25 -13.5214 -0.7746
-9 25 25 -3.5598 -1.4840
-7 25 25 -6.0217 -0.0624
-5 25 25 16.7804 0.8594
-3 25 25 3.7708 -0.1823
-1 25 25 9.5329 -0.7641
1 25 25 -27.5618 0.1620
3 25 25 -2.1776 1.0654
5 25 25 4.7047 0.2513
7 25 25 10.8995 0.0082
9 25 25 -0.5700 0.8610
11 25 25 -6.1218 0.6750
13 25 25 14.6066 -1.2259
15 25 25 -2.3528 -0.8338
17 25 25 -7.4630 0.0119
-18 26 25 2.0102 0.5904
-16 26 25 7.1445 -0.1568
-14 26 25 -1.6161 0.1501
-12 26 25 12.2466 -0.4301
-10 26 25 5.6541 0.1152
-8 26 25 2.8425 0.8479
-6 26 25 6.4283 1.1139
-4 26 25 18.0341 0.3014
-2 26 25 -2.8303 0.1063
0 26 25 14.2329 0.8395
2 26 25 11.1589 -0.0196
4 26 25 1.5789 -0.7608
6 26 25 -6.9113 -0.1793
8 26 25 -22.0719 0.1409
10 26 25 -12.2982 0.1901
12 26 25 -4.9424 0.2483
14 26 25 1.0809 -0.3621
16 26 25 -2.1101 0.9303
-17 27 25 6.2990 -0.4685
-15 27 25 -1.9394 -0.5390
-13 27 25 -2.4501 -0.0409
-11 27 25 -7.7650 0.3003
-9 27 25 2.4800 0.2667
-7 27 25 14.8247 -0.4804
-5 27 25 6.2258 -0.7900
-3 27 25 5.0763 -0.3419
-1 27 25 3.3855 0.0804
1 27 25 -14.3269 -0.0485
3 27 25 -2.8193 -0.3560
5 27 25 -0.9609 -0.2400
7 27 25 -9.4332 0.1454
9 27 25 -1.3614 0.3959
11 27 25 -4.2864 0.6007
13 27 25 5.4899 -0.5228
15 27 25 -10.3955 0.3587
-16 28 25 2.5537 -1.4064
-14 28 25 5.4043 0.4488
-12 28 25 1.7277 1.7600
-10 28 25 -5.6831 -0.0854
-8 28 25 -13.3578 -0.9355
-6 28 25 -1.1522 -0.0189
-4 28 25 4.7096 0.6774
-2 28 25 -0.8625 0.6247
0 28 25 6.8487 -0.2396
2 28 25 3.8475 -0.1682
4 28 25 0.7309 -0.5091
6 28 25 0.4113 -0.4881
8 28 25 -10.8385 -0.7361
10 28 25 -13.8647 1.7439
12 28 25 -6.5914 1.6041
-13 29 25 3.8403 0.5249
-11 29 25 -2.7692 0.2716
-9 29 25 0.2051 -1.1921
-7 29 25 -2.2513 0.0720
-5 29 25 -13.6824 -0.1375
-3 29 25 -14.6752 -0.7301
-1 29 25 -5.0342 -0.6307
1 29 25 5.3322 -0.3699
3 29 25 -4.3170 -0.1702
5 29 25 4.9407 -0.1543
7 29 25 -23.8680 -1.9777
9 29 25 4.0349 -0.0823
11 29 25 1.5262 1.6677
-10 30 25 6.0406 -0.0959
-8 30 25 -2.2836 0.6541
-6 30 25 2.5688 1.1126
-4 30 25 5.8565 0.9042
-2 30 25 5.5998 -0.6533
0 30 25 -4.8620 0.3703
2 30 25 6.5944 1.5409
4 30 25 -10.4843 -0.2131
6 30 25 -10.4219 -0.2043
8 30 25 -7.3629 0.3223
-7 31 25 -4.1285 0.4921
-5 31 25 0.7125 -1.3511
-3 31 25 -12.4407 -1.8221
-1 31 25 -9.6700 -0.1143
1 31 25 2.4392 0.1030
3 31 25 -1.4942 -0.8443
5 31 25 5.5497 -0.4414
-30 0 26 -0.0153 -4.6979
-28 0 26 -1.3811 0.1325
-26 0 26 8.8534 3.2241
-24 0 26 2.0602 -3.6584
-22 0 26 2.6347 -4.9586
-20 0 26 1.4430 4.1451
-18 0 26 4.1220 1.8884
-16 0 26 11.0933 -13.7961
-14 0 26 -12.7158 -13.8078
-12 0 26 -24.7883 7.9405
-10 0 26 10.1221 16.0599
-8 0 26 -8.5776 1.7467
-6 0 26 -52.3796 -1.8880
-4 0 26 -7.3591 10.6587
-2 0 26 -37.1192 12.5730
0 0 26 -25.5798 5.3880
2 0 26 -5.2700 12.3331
4 0 26 16.2982 19.9611
6 0 26 6.5738 -0.0999
8 0 26 5.1840 -20.3625
10 0 26 15.3086 -7.3917
12 0 26 -9.4502 9.1800
14 0 26 -12.2509 0.7308
16 0 26 7.2711 -10.8138
18 0 26 1.9897 -4.8871
20 0 26 6.3614 -0.5305
22 0 26 3.6247 -6.3258
24 0 26 -3.3230 -2.1522
26 0 26 -9.7870 8.7223
28 0 26 2.9339 4.4133
-31 1 26 2.7542 -6.5868
-29 1 26 -6.0703 0.0810
-27 1 26 17.9917 9.3614
-25 1 26 -6.9061 -0.6237
-23 1 26 4.0986 -13.9241
-21 1 26 11.8161 0.1582
-19 1 26 0.3189 15.2189
-17 1 26 -19.0472 -1.5208
-15 1 26 0.3161 -13.5943
-13 1 26 -4.4327 10.0225
-11 1 26 -1.9118 18.5215
-9 1 26 -34.0522 -11.8412
-7 1 26 -9.7044 -15.7029
-5 1 26 11.7810 22.2185
-3 1 26 25.5930 24.0167
-1 1 26 -0.8936 -18.4177
1 1 26 -4.0045 -20.5311
3 1 26 25.2068 16.8347
5 1 26 -32.4392 14.4994
7 1 26 13.1323 -15.9052
9 1 26 -16.5235 -7.1897
11 1 26 11.7413 15.5554
13 1 26 8.3054 -0.2723
15 1 26 14.9509 -20.2277
17 1 26 0.5215 -1.3552
19 1 26 9.1546 18.0553
21 1 26 -8.5546 2.2031
23 1 26 9.5575 -13.5305
25 1 26 -2.0616 -3.9370
27 1 26 -10.3408 6.9555
29 1 26 0.1574 4.0448
-30 2 26 5.5708 0.2044
-28 2 26 10.2511 -0.2959
-26 2 26 -4.5939 0.1265
-24 2 26 -8.0329 0.5749
-22 2 26 9.2666 0.9467
-20 2 26 4.5969 -1.2341
-18 2 26 9.1255 -2.6814
-16 2 26 -6.0632 -2.3595
-14 2 26 -12.2982 -1.5855
-12 2 26 -10.5951 -1.2027
-10 2 26 -18.0124 -0.8838
-8 2 26 4.1136 -0.4689
-6 2 26 -29.4293 -1.1594
-4 2 26 21.4434 -1.4102
-2 2 26 -9.3491 2.3191
0 2 26 -38.7770 5.3788
2 2 26 -9.8586 3.4441
4 2 26 15.5579 -0.2817
6 2 26 -8.9539 -1.0590
8 2 26 -3.5763 0.5955
10 2 26 3.7197 1.5545
12 2 26 -8.1483 0.8365
14 2 26 -17.3173 0.2044
16 2 26 12.2987 -1.5087
18 2 26 -3.5864 -2.6701
20 2 26 8.4438 -1.3429
22 2 26 9.6895 2.3623
24 2 26 -0.1872 2.6640
26 2 26 2.3059 -0.6368
28 2 26 10.1512 -3.0168
-31 3 26 -1.3621 0.6818
-29 3 26 -12.0217 -2.3514
-27 3 26 10.4889 0.6968
-25 3 26 25.4749 0.5120
-23 3 26 11.2630 -2.0078
-21 3 26 24.7798 -2.0828
-19 3 26 2.4352 1.6163
-17 3 26 -6.9543 2.1590
-15 3 26 -4.6650 -1.1741
-13 3 26 7.7186 -0.7797
-11 3 26 8.0501 1.5078
-9 3 26 10.5887 0.5831
-7 3 26 -29.6922 0.9711
-5 3 26 -15.2051 5.5458
-3 3 26 5.9370 4.4037
-1 3 26 -0.5519 -3.7673
1 3 26 10.4417 -4.9786
3 3 26 27.8676 2.0245
5 3 26 5.8563 4.8181
7 3 26 -5.5967 0.1415
9 3 26 -4.6988 -2.4717
11 3 26 -11.6614 -3.2825
13 3 26 0.1133 -4.9147
15 3 26 2.0725 -1.7206
17 3 26 0.8097 4.7881
19 3 26 19.5129 4.8627
21 3 26 1.5656 -2.0387
23 3 26 10.6648 -5.7635
25 3 26 -0.4328 -1.3691
27 3 26 -0.6442 1.9840
29 3 26 6.2130 3.7361
-30 4 26 7.3983 -1.2043
-28 4 26 13.4446 0.4778
-26 4 26 -1.0800 3.3083
-24 4 26 6.6028 -1.9084
-22 4 26 -8.1339 -4.0237
-20 4 26 -2.6047 1.5278
-18 4 26 13.6994 3.7581
-16 4 26 -19.3443 -0.6317
-14 4 26 -2.9009 -0.9291
-12 4 26 -4.1474 3.4048
-10 4 26 -55.8395 0.2471
-8 4 26 -13.6025 -5.7001
-6 4 26 -34.0023 0.1434
-4 4 26 18.4936 7.9047
-2 4 26 12.2083 2.0471
0 4 26 -38.0011 -6.4945
2 4 26 -1.0274 -3.3527
4 4 26 10.6100 3.2848
6 4 26 -23.4601 1.7393
8 4 26 -10.2056 0.1130
10 4 26 18.3398 2.9409
12 4 26 15.9628 0.8317
14 4 26 -11.0407 -5.0354
16 4 26 -0.8407 -2.6119
18 4 26 -6.0844 4.3899
20 4 26 12.6328 3.7635
22 4 26 -0.7423 -1.3105
24 4 26 -0.1426 -2.9668
26 4 26 11.5174 -1.0721
28 4 26 23.7561 -0.1273
-31 5 26 6.0767 -2.1250
-29 5 26 -25.0383 0.4409
-27 5 26 -4.0382 6.6075
-25 5 26 1.1267 0.2932
-23 5 26 -6.3035 -5.4747
-21 5 26 22.4138 1.4949
-19 5 26 -3.5723 7.7606
-17 5 26 0.0890 -2.2805
-15 5 26 -12.3826 -7.9613
-13 5 26 3.7831 4.9190
-11 5 26 -6.7980 8.7126
-9 5 26 20.3865 -7.4862
-7 5 26 -0.9169 -9.7320
-5 5 26 -7.0636 7.7389
-3 5 26 -35.4010 8.1122
-1 5 26 -17.3919 -9.2432
1 5 26 -31.8051 -7.5388
3 5 26 -7.4419 8.5716
5 5 26 2.4014 4.2346
7 5 26 3.0486 -10.2465
9 5 26 -10.3970 -4.2396
11 5 26 -5.6669 9.1405
13 5 26 -0.3115 2.4944
15 5 26 -1.8599 -7.8857
17 5 26 28.4214 -1.4423
19 5 26 -6.5090 6.4349
21 5 26 19.2479 0.9568
23 5 26 0.5841 -3.9944
25 5 26 -2.9804 1.6877
27 5 26 2.5034 2.8764
29 5 26 8.3086 -0.4297
-30 6 26 -1.3997 -0.0970
-28 6 26 2.5930 1.9345
-26 6 26 2.5483 -1.2585
-24 6 26 -2.6500 -3.4815
-22 6 26 -4.2067 0.1709
-20 6 26 -5.7427 2.7011
-18 6 26 15.2468 -0.3754
-16 6 26 -2.6270 -1.9582
-14 6 26 1.8854 1.5311
-12 6 26 3.4837 1.2975
-10 6 26 4.0553 -2.6161
-8 6 26 -9.4385 -2.3122
-6 6 26 0.7898 2.3654
-4 6 26 19.4158 1.6354
-2 6 26 13.7947 -2.8373
0 6 26 -22.5871 -4.1423
2 6 26 18.4270 -1.4020
4 6 26 -10.0243 1.5763
6 6 26 -19.5729 2.5908
8 6 26 -9.2583 0.7924
10 6 26 14.0207 -1.1788
12 6 26 11.5515 -1.4980
14 6 26 9.0493 -0.5729
16 6 26 -18.1950 1.5315
18 6 26 -16.5727 2.4557
20 6 26 5.7596 1.5058
22 6 26 -7.2669 -1.8375
24 6 26 -3.1270 -3.5489
26 6 26 2.8919 -0.9475
28 6 26 14.9114 2.3738
-31 7 26 3.1485 0.6823
-29 7 26 -18.6958 1.3937
-27 7 26 -3.1411 -1.5826
-25 7 26 9.4200 -0.9483
-23 7 26 5.0863 1.1037
-21 7 26 -6.0999 0.7404
-19 7 26 -7.7189 -2.2539
-17 7 26 -2.9151 -1.2581
-15 7 26 2.4295 2.1174
-13 7 26 16.5059 0.6975
-11 7 26 -18.0912 -1.2392
-9 7 26 -5.5368 0.5482
-7 7 26 -14.1565 1.3624
-5 7 26 -15.6761 -1.0243
-3 7 26 -13.3582 -0.8508
-1 7 26 24.1171 3.5186
1 7 26 -15.6909 2.9481
3 7 26 -9.9605 -2.2710
5 7 26 9.5464 -3.5165
7 7 26 -8.8847 -0.1328
9 7 26 -27.5206 2.1634
11 7 26 12.6682 0.7863
13 7 26 -2.7186 0.7340
15 7 26 -12.3917 0.7549
17 7 26 7.1515 -2.0281
19 7 26 -3.3420 -2.5219
21 7 26 17.4000 1.5874
23 7 26 -7.7305 3.5128
25 7 26 -6.9997 2.1019
27 7 26 6.8385 -2.2544
-30 8 26 -4.8546 -0.6036
-28 8 26 -12.1190 -1.2362
-26 8 26 -8.6304 -0.2984
-24 8 26 -8.5364 3.8336
-22 8 26 6.5287 2.8515
-20 8 26 4.0245 -1.3516
-18 8 26 7.7074 -0.9680
-16 8 26 -3.2675 3.0818
-14 8 26 8.3272 2.2995
-12 8 26 -2.0492 -2.0514
-10 8 26 4.7365 -0.0799
-8 8 26 9.4384 2.7586
-6 8 26 4.6494 -2.0236
-4 8 26 -13.6170 -7.7319
-2 8 26 42.0042 -2.6274
0 8 26 -0.8630 3.9721
2 8 26 0.4177 0.4956
4 8 26 6.5403 -5.1879
6 8 26 21.6561 -2.6233
8 8 26 -5.4831 1.5625
10 8 26 17.3974 0.0429
12 8 26 -15.6205 -1.2137
14 8 26 12.9494 2.8392
16 8 26 12.3832 4.4516
18 8 26 5.7935 -1.6130
20 8 26 3.6319 -4.0592
22 8 26 11.1154 0.9284
24 8 26 -1.5955 4.7477
26 8 26 -4.1340 0.6237
28 8 26 8.0429 -0.7386
-29 9 26 3.0608 0.1019
-27 9 26 6.9764 -0.2224
-25 9 26 -6.7735 -0.2523
-23 9 26 13.4113 -1.7248
-21 9 26 0.6766 0.2157
-19 9 26 -4.1993 1.3690
-17 9 26 6.6323 -1.6981
-15 9 26 -1.8484 -4.0130
-13 9 26 2.0240 -0.7115
-11 9 26 -13.5669 2.6548
-9 9 26 -3.4692 0.5740
-7 9 26 -8.8890 -1.5586
-5 9 26 3.4152 0.1475
-3 9 26 -5.5938 0.5597
-1 9 26 -4.4403 -1.2816
1 9 26 -12.4996 0.0630
3 9 26 6.4246 4.3606
5 9 26 6.2598 2.5195
7 9 26 -8.7849 -2.8510
9 9 26 -23.3182 -1.7633
11 9 26 -6.2845 2.7918
13 9 26 6.0197 1.5612
15 9 26 7.7967 -1.4396
17 9 26 -16.0730 -0.2674
19 9 26 5.7380 0.5719
21 9 26 7.6345 -1.1833
23 9 26 0.0714 -1.2813
25 9 26 -2.1035 0.9857
27 9 26 7.3571 -1.2047
-30 10 26 3.2646 1.0556
-28 10 26 -10.3870 2.0859
-26 10 26 0.7237 0.2677
-24 10 26 17.6264 -1.8353
-22 10 26 -7.6988 0.9746
-20 10 26 2.7139 2.8152
-18 10 26 3.3992 -0.4664
-16 10 26 -15.3200 -1.9233
-14 10 26 15.2891 0.9378
-12 10 26 10.2779 3.1420
-10 10 26 6.6834 0.7581
-8 10 26 20.3053 -2.3658
-6 10 26 4.9078 -1.1609
-4 10 26 -13.1630 1.1065
-2 10 26 20.4335 -0.6789
0 10 26 4.1886 -1.3451
2 10 26 -17.4466 0.7530
4 10 26 19.4553 0.8306
6 10 26 20.4531 -3.4350
8 10 26 -3.5701 -3.7379
10 10 26 6.4347 2.2419
12 10 26 -28.4211 4.7953
14 10 26 -1.8950 0.6788
16 10 26 2.8326 -2.7861
18 10 26 -0.6607 -1.1405
20 10 26 -2.5133 0.9418
22 10 26 -3.5326 0.5457
24 10 26 -0.8960 0.8694
26 10 26 -1.1569 1.7309
28 10 26 3.2346 -1.0025
-29 11 26 -1.7738 1.5604
-27 11 26 1.4614 0.3263
-25 11 26 -24.7716 -1.0707
-23 11 26 -3.6057 0.4440
-21 11 26 3.7419 1.7659
-19 11 26 -10.8644 -0.4521
-17 11 26 -7.0864 -2.5753
-15 11 26 -3.6692 -0.9179
-13 11 26 -2.7543 0.5565
-11 11 26 -3.5268 -0.1513
-9 11 26 -12.6880 -1.0153
-7 11 26 -19.4979 -0.6027
-5 11 26 4.2077 -0.9042
-3 11 26 -14.2568 -1.7866
-1 11 26 11.3377 -0.4961
1 11 26 -0.5296 1.5371
3 11 26 18.0849 1.9325
5 11 26 -19.0638 1.1748
7 11 26 -2.8652 0.1210
9 11 26 -15.0790 -0.6433
11 11 26 7.9462 0.3154
13 11 26 3.9985 1.2223
15 11 26 -1.2678 1.5367
17 11 26 -13.2370 0.2075
19 11 26 2.0145 -1.1615
21 11 26 -6.0037 -0.9747
23 11 26 8.4700 -0.3263
25 11 26 -8.6290 0.1907
27 11 26 1.2290 0.5301
-28 12 26 -15.2442 -1.9848
-26 12 26 -6.6594 -1.4567
-24 12 26 6.4264 0.2079
-22 12 26 -8.2899 1.7525
-20 12 26 4.3965 -0.6157
-18 12 26 3.4963 -1.0093
-16 12 26 6.2057 0.3724
-14 12 26 21.5755 0.1648
-12 12 26 -3.5559 -1.5445
-10 12 26 -10.9062 -0.6849
-8 12 26 19.7696 2.7956
-6 12 26 15.4084 2.5926
-4 12 26 -3.6023 -1.0612
-2 12 26 9.7089 -1.7102
0 12 26 -10.6284 1.0374
2 12 26 -4.4615 1.6469
4 12 26 -0.7462 -1.2279
6 12 26 -0.7567 -0.4027
8 12 26 -1.5868 1.9324
10 12 26 -3.6324 0.0315
12 12 26 -1.9564 -2.3887
14 12 26 4.8087 -1.2911
16 12 26 4.3021 1.3591
18 12 26 -6.6932 0.0773
20 12 26 7.2473 -1.1047
22 12 26 1.9562 -0.3417
24 12 26 2.0218 1.4159
26 12 26 -1.4880 -0.5499
-29 13 26 0.4440 0.8827
-27 13 26 -9.6661 0.4950
-25 13 26 -18.7357 0.8908
-23 13 26 -16.0913 0.3211
-21 13 26 8.4466 -1.2426
-19 13 26 3.2074 -0.7283
-17 13 26 -2.2366 1.6929
-15 13 26 2.5504 1.3011
-13 13 26 -2.9843 -1.1343
-11 13 26 3.6939 -2.0143
-9 13 26 21.1665 -0.7120
-7 13 26 5.5325 0.4673
-5 13 26 31.2243 0.8715
-3 13 26 -16.8110 0.4984
-1 13 26 -0.0412 -0.1281
1 13 26 -0.9242 0.0506
3 13 26 3.8501 -0.5248
5 13 26 -6.1191 -0.1901
7 13 26 12.8631 1.7150
9 13 26 2.5890 2.2282
11 13 26 11.6226 -0.0987
13 13 26 3.3513 -1.6654
15 13 26 11.0810 -0.5197
17 13 26 7.5926 1.4082
19 13 26 -0.2314 -0.1185
21 13 26 -4.7940 -1.8313
23 13 26 8.3520 -0.1073
25 13 26 -19.1868 -0.4618
-28 14 26 -2.6360 1.4012
-26 14 26 -0.1447 0.5953
-24 14 26 -5.8883 -0.6928
-22 14 26 -4.9132 0.1818
-20 14 26 5.2856 0.7528
-18 14 26 -4.6748 -0.6602
-16 14 26 -5.1680 -1.4562
-14 14 26 11.3191 0.6932
-12 14 26 9.2171 1.8295
-10 14 26 -9.9746 -0.1451
-8 14 26 -3.3309 -0.8625
-6 14 26 -4.1361 0.7667
-4 14 26 -7.4487 2.0417
-2 14 26 15.7359 0.2915
0 14 26 5.0139 -0.6000
2 14 26 13.3638 0.2201
4 14 26 -3.9138 0.0857
6 14 26 2.4764 -0.3579
8 14 26 -1.6497 -0.2242
10 14 26 -15.2087 0.4971
12 14 26 9.9585 -0.0546
14 14 26 4.0856 -1.2663
16 14 26 2.0015 -1.9931
18 14 26 -3.6010 -0.3809
20 14 26 -2.8413 1.1225
22 14 26 -4.5428 0.2319
24 14 26 -3.3389 -0.3913
26 14 26 -5.5019 -1.0650
-27 15 26 -4.3505 1.8355
-25 15 26 6.7015 -0.7637
-23 15 26 4.6383 -0.1454
-21 15 26 -0.7262 0.8258
-19 15 26 -9.2299 0.3629
-17 15 26 0.5806 -0.4761
-15 15 26 -3.7907 0.3521
-13 15 26 3.4361 0.6118
-11 15 26 -12.6643 -0.8066
-9 15 26 25.6006 -1.7808
-7 15 26 8.3880 0.1389
-5 15 26 -5.4198 1.5050
-3 15 26 15.6135 0.4691
-1 15 26 0.0657 -0.8951
1 15 26 -5.0208 -0.6842
3 15 26 -30.2472 -0.1118
5 15 26 11.3801 -0.0501
7 15 26 -6.4205 0.5539
9 15 26 0.6888 0.9130
11 15 26 3.0815 0.4959
13 15 26 -13.0425 -0.8788
15 15 26 20.8214 -1.8988
17 15 26 7.2336 -0.4927
19 15 26 -3.1692 0.9752
21 15 26 -3.1371 0.7163
23 15 26 9.0856 0.3150
25 15 26 -4.7195 -1.0101
-26 16 26 -4.5358 -1.7991
-24 16 26 0.1042 -0.6860
-22 16 26 7.3470 1.5608
-20 16 26 2.7822 -0.3223
-18 16 26 10.3257 -2.4380
-16 16 26 -0.3729 0.3711
-14 16 26 -3.4746 2.8920
-12 16 26 -3.2839 -0.3912
-10 16 26 -3.7259 -2.9863
-8 16 26 -13.5301 0.1069
-6 16 26 12.9212 1.8801
-4 16 26 9.6785 -0.0904
-2 16 26 -18.7801 0.2777
0 16 26 -21.9152 1.9122
2 16 26 0.6624 -0.1080
4 16 26 -11.4980 -1.9914
6 16 26 -13.2077 0.1025
8 16 26 4.9196 1.7167
10 16 26 -15.5754 0.2288
12 16 26 7.0243 -0.4983
14 16 26 6.2598 0.4041
16 16 26 -7.6618 -0.7149
18 16 26 -3.4537 -1.1593
20 16 26 -0.2396 0.2794
22 16 26 1.7132 1.4219
24 16 26 2.0083 -1.0057
-27 17 26 -4.4887 -0.0900
-25 17 26 -1.3177 -0.1144
-23 17 26 1.5608 2.7220
-21 17 26 -15.1638 -1.0231
-19 17 26 3.1237 -2.2234
-17 17 26 5.6728 0.7721
-15 17 26 -5.0409 2.6704
-13 17 26 14.3217 -0.7509
-11 17 26 -13.2042 -1.6876
-9 17 26 12.6356 1.7834
-7 17 26 0.8861 1.7083
-5 17 26 -5.5038 -2.8358
-3 17 26 11.7760 -2.6511
-1 17 26 -8.0676 2.3114
1 17 26 3.2089 2.3450
3 17 26 -21.9097 -2.6088
5 17 26 10.0743 -2.8003
7 17 26 -21.1809 1.0233
9 17 26 -8.4987 1.3285
11 17 26 -20.2046 -0.8972
13 17 26 -3.2656 -0.2652
15 17 26 16.0254 0.4899
17 17 26 -3.1857 -0.3742
19 17 26 2.3186 -1.5942
21 17 26 -0.4730 -0.3724
23 17 26 3.4946 1.5534
-26 18 26 -5.8979 -1.4222
-24 18 26 -5.3165 1.9058
-22 18 26 -0.6375 1.3176
-20 18 26 -8.2724 -1.6619
-18 18 26 -3.8030 -0.4230
-16 18 26 -0.3944 1.7970
-14 18 26 -8.1319 0.2480
-12 18 26 -1.1460 -2.7623
-10 18 26 12.4262 -0.2625
-8 18 26 -12.6712 2.8420
-6 18 26 6.0457 0.7280
-4 18 26 5.0126 -2.4212
-2 18 26 -11.6939 -0.0538
0 18 26 -5.7942 2.3243
2 18 26 13.5628 0.1812
4 18 26 -0.3515 -1.1673
6 18 26 11.9275 0.9433
8 18 26 17.0719 1.0461
10 18 26 -13.5334 -2.1524
12 18 26 -9.0334 -2.0848
14 18 26 12.9132 0.6266
16 18 26 -1.1848 1.1662
18 18 26 -2.1611 -1.4407
20 18 26 11.1329 -1.5353
22 18 26 -2.5857 0.7249
24 18 26 7.7121 0.2365
-25 19 26 4.1559 0.2753
-23 19 26 12.5287 -0.2955
-21 19 26 -6.0260 -1.3931
-19 19 26 4.5555 1.0982
-17 19 26 3.5980 1.6672
-15 19 26 0.7625 0.1664
-13 19 26 9.2886 -1.0570
-11 19 26 -3.7194 0.4862
-9 19 26 20.5956 0.9140
-7 19 26 8.4110 -0.4108
-5 19 26 -7.2610 -1.3527
-3 19 26 20.3268 -0.4479
-1 19 26 -9.1327 -0.4473
1 19 26 -11.6895 -0.6759
3 19 26 -6.9084 -0.8301
5 19 26 -19.4157 -0.2460
7 19 26 -10.9680 0.2354
9 19 26 29.0251 -0.3431
11 19 26 7.2181 -0.0333
13 19 26 14.4762 0.6657
15 19 26 9.8330 0.4507
17 19 26 -3.2806 0.4569
19 19 26 -14.7427 0.2746
21 19 26 -7.1506 1.1167
23 19 26 3.8162 0.3464
-24 20 26 3.5407 1.0277
-22 20 26 -1.2245 -0.8285
-20 20 26 0.0315 0.0595
-18 20 26 -12.1871 -0.5516
-16 20 26 -7.9648 -0.6712
-14 20 26 3.6590 -0.1110
-12 20 26 8.0427 -0.1519
-10 20 26 2.6131 -0.0943
-8 20 26 -12.6151 -0.2326
-6 20 26 14.7232 -0.1466
-4 20 26 -12.1417 0.4118
-2 20 26 -8.1979 0.1048
0 20 26 -17.5275 -0.8279
2 20 26 -14.7898 -0.3707
4 20 26 5.1515 0.8769
6 20 26 5.1113 0.8007
8 20 26 0.9955 -1.2465
10 20 26 -1.4101 -0.9230
12 20 26 7.4626 0.4901
14 20 26 1.3648 0.4756
16 20 26 -9.7800 -0.0136
18 20 26 -2.7141 0.9079
20 20 26 12.8793 1.4096
22 20 26 -8.0486 -1.0719
-23 21 26 -0.3285 -0.1916
-21 21 26 -0.5493 0.5277
-19 21 26 -5.9432 0.7344
-17 21 26 -1.8767 0.3440
-15 21 26 7.8292 0.6617
-13 21 26 6.2995 -0.2976
-11 21 26 2.4372 -0.1164
-9 21 26 10.8767 0.5053
-7 21 26 -6.9387 0.5647
-5 21 26 -7.8517 -0.0727
-3 21 26 -8.1276 -0.5364
-1 21 26 0.8434 -1.0778
1 21 26 3.3083 -1.2149
3 21 26 -0.0148 -0.1244
5 21 26 -6.7768 1.1189
7 21 26 7.5986 -0.0615
9 21 26 5.7241 -1.1060
11 21 26 0.4464 -0.8557
13 21 26 15.9450 0.2253
15 21 26 14.8707 0.5838
17 21 26 5.2870 0.6543
19 21 26 -16.3977 0.4958
21 21 26 1.4769 0.4180
-22 22 26 -17.3757 -2.1620
-20 22 26 2.8643 -1.4365
-18 22 26 16.5303 0.1378
-16 22 26 7.7299 1.8162
-14 22 26 12.4093 -0.1581
-12 22 26 12.5825 -2.1687
-10 22 26 -4.8571 0.0189
-8 22 26 -7.6165 0.6289
-6 22 26 8.5938 -0.6533
-4 22 26 -8.2614 -0.5120
-2 22 26 3.0861 0.9508
0 22 26 -23.7742 0.5759
2 22 26 2.5575 -1.1121
4 22 26 6.2652 -1.1727
6 22 26 -3.9125 1.6419
8 22 26 9.1074 1.9947
10 22 26 5.5788 -0.0887
12 22 26 5.1443 -1.4045
14 22 26 -5.8040 -0.2793
16 22 26 4.3889 0.7477
18 22 26 8.1785 -0.3285
20 22 26 10.8228 1.4140
-21 23 26 -2.0787 0.0974
-19 23 26 -5.4482 -0.6550
-17 23 26 -2.0021 0.7465
-15 23 26 -8.7543 0.6301
-13 23 26 -17.6347 -0.8157
-11 23 26 4.9751 0.0386
-9 23 26 -4.2239 1.2557
-7 23 26 -20.8985 0.1500
-5 23 26 8.6301 -0.7164
-3 23 26 -25.8628 0.3523
-1 23 26 -6.3334 0.6889
1 23 26 -23.5058 -0.0147
3 23 26 -4.7828 -0.7904
5 23 26 14.1707 -0.0921
7 23 26 11.3554 0.1862
9 23 26 -4.3857 -0.1415
11 23 26 1.1319 -0.6449
13 23 26 6.5925 -0.2034
15 23 26 -6.3990 1.5607
17 23 26 9.9534 1.1029
19 23 26 -16.3763 1.5238
-20 24 26 9.0568 1.0380
-18 24 26 4.4244 1.2488
-16 24 26 -1.0933 -0.4803
-14 24 26 14.6272 -0.7809
-12 24 26 -7.2872 0.0077
-10 24 26 4.7895 0.7681
-8 24 26 -6.6806 -0.3167
-6 24 26 0.6804 -1.4255
-4 24 26 28.2768 -0.1432
-2 24 26 12.4389 0.3638
0 24 26 1.2329 -0.1650
2 24 26 15.4426 -0.5689
4 24 26 -0.4091 0.2874
6 24 26 -15.1699 0.2075
8 24 26 -6.3397 -0.5555
10 24 26 -8.7534 0.0010
12 24 26 3.8198 0.9600
14 24 26 4.2013 1.1496
16 24 26 -21.8457 0.0920
18 24 26 -15.8540 -0.2743
-19 25 26 -10.0617 -1.7360
-17 25 26 13.1622 -0.0339
-15 25 26 -3.6309 0.9277
-13 25 26 -5.6736 0.7898
-11 25 26 2.5249 -0.0696
-9 25 26 5.2222 0.5122
-7 25 26 -4.2685 -0.2410
-5 25 26 11.0365 -0.5738
-3 25 26 -11.8667 0.5354
-1 25 26 4.1853 0.9645
1 25 26 0.4115 0.1811
3 25 26 -5.9104 -0.0644
5 25 26 -2.1954 0.4519
7 25 26 6.4158 0.4885
9 25 26 -4.2862 -0.6498
11 25 26 -20.0078 -0.0914
13 25 26 -5.2426 0.4797
15 25 26 4.3780 0.4148
17 25 26 -1.3618 -1.3499
-18 26 26 5.7419 -0.6442
-16 26 26 1.4662 0.3827
-14 26 26 1.8490 -0.0947
-12 26 26 -11.4646 -0.2139
-10 26 26 1.4745 0.8341
-8 26 26 0.8233 0.9353
-6 26 26 -1.9287 -0.6219
-4 26 26 6.0366 -0.7968
-2 26 26 8.8629 0.3240
0 26 26 -14.4931 0.6311
2 26 26 2.8553 0.4196
4 26 26 2.8905 -0.2104
6 26 26 -7.2387 0.3235
8 26 26 -2.5348 -0.4309
10 26 26 1.8778 -0.2548
12 26 26 -0.0882 -0.0821
14 26 26 -4.6682 1.7764
16 26 26 8.0826 1.7531
-15 27 26 -4.3514 0.7336
-13 27 26 0.9163 -1.6682
-11 27 26 -3.6723 -0.1874
-9 27 26 -6.1626 1.7695
-7 27 26 -25.7124 1.0941
-5 27 26 11.4164 -1.4252
-3 27 26 -2.2337 -0.5472
-1 27 26 8.8743 1.9600
1 27 26 8.2723 0.6730
3 27 26 2.8278 -1.2567
5 27 26 -3.9816 -0.2095
7 27 26 -4.0941 0.4538
9 27 26 8.0222 1.4474
11 27 26 -12.5602 -1.9551
13 27 26 1.0609 -0.5222
-14 28 26 5.6274 -0.1114
-12 28 26 4.8887 0.7166
-10 28 26 -3.8275 1.1542
-8 28 26 7.7791 -0.0068
-6 28 26 -4.8799 -0.4365
-4 28 26 -10.3125 -0.3805
-2 28 26 -1.9374 0.1026
0 28 26 -4.2420 -0.0484
2 28 26 4.4207 0.6709
4 28 26 -1.7226 0.9458
6 28 26 -5.6176 -0.0638
8 28 26 -9.7967 -0.6790
10 28 26 -0.1731 -0.3891
12 28 26 -3.4021 0.3700
-11 29 26 9.0100 1.1339
-9 29 26 5.9796 -0.2163
-7 29 26 -15.1406 -0.5562
-5 29 26 -3.9414 0.4962
-3 29 26 -1.2361 1.2920
-1 29 26 -0.7236 -0.6339
1 29 26 -10.8566 -1.1553
3 29 26 -1.1715 0.4696
5 29 26 -5.7006 1.7361
7 29 26 9.3605 -0.1389
9 29 26 7.3308 0.5658
-10 30 26 8.6940 0.2549
-8 30 26 -9.4853 -1.9059
-6 30 26 -2.7199 0.4397
-4 30 26 5.2237 2.7691
-2 30 26 -7.3383 0.4920
0 30 26 2.4215 -2.1858
2 30 26 -2.8956 -0.3854
4 30 26 -1.3082 2.1906
6 30 26 -9.0518 0.0654
-5 31 26 -8.1170 1.4281
-3 31 26 7.3737 0.6023
-1 31 26 -4.6213 -1.1813
1 31 26 2.8891 -0.3484
3 31 26 -4.1878 1.4247
-31 1 27 6.2388 -6.3228
-29 1 27 -3.0087 -6.0641
-27 1 27 -2.1092 8.7105
-25 1 27 7.2383 7.4284
-23 1 27 9.8649 -9.5495
-21 1 27 -3.2645 -6.1577
-19 1 27 -6.2219 9.5809
-17 1 27 -0.6443 -0.7400
-15 1 27 -5.9951 -15.5310
-13 1 27 4.1336 5.5948
-11 1 27 -1.8032 22.5568
-9 1 27 26.2357 -9.8879
-7 1 27 8.5486 -33.3894
-5 1 27 1.5343 1.5548
-3 1 27 16.4477 28.1304
-1 1 27 -0.9385 -0.5887
3 1 27 17.3622 6.3484
5 1 27 -1.4028 12.4440
7 1 27 -1.8222 -15.3244
9 1 27 16.0700 -8.0584
11 1 27 -3.4432 25.8753
13 1 27 14.9911 15.5482
15 1 27 -6.7559 -20.0767
17 1 27 -4.7394 -14.1303
19 1 27 4.3222 13.1508
21 1 27 0.6052 8.8300
23 1 27 5.5288 -6.2745
25 1 27 1.0660 -0.9688
27 1 27 0.6798 3.1767
29 1 27 10.4789 -6.3603
-30 2 27 3.3701 -2.7570
-28 2 27 2.5701 3.4590
-26 2 27 -3.6663 2.9539
-24 2 27 -3.6378 -5.1421
-22 2 27 2.9767 -4.9193
-20 2 27 7.0447 6.5097
-18 2 27 3.4398 5.7917
-16 2 27 -5.6626 -7.3663
-14 2 27 7.2996 -6.8940
-12 2 27 15.4918 5.1837
-10 2 27 -40.3943 3.4613
-8 2 27 3.5017 -4.7461
-6 2 27 15.5997 3.6606
-4 2 27 -20.0613 11.4209
-2 2 27 -4.0512 -2.0052
0 2 27 6.0041 -12.7399
2 2 27 -25.7983 0.9627
4 2 27 -9.5993 13.2559
6 2 27 9.8279 2.5441
8 2 27 -37.4152 -8.7137
10 2 27 -2.1610 -2.9323
12 2 27 -2.9242 2.2928
14 2 27 -4.7751 -3.4187
16 2 27 -2.0257 -3.1412
18 2 27 -8.5230 6.6597
20 2 27 11.7325 6.5254
22 2 27 0.0527 -4.7870
24 2 27 -12.4887 -8.0734
26 2 27 9.2114 -0.0844
28 2 27 7.7409 5.6321
-31 3 27 12.6601 -1.3464
-29 3 27 -24.0836 -0.7642
-27 3 27 1.3874 1.0085
-25 3 27 7.8370 1.3998
-23 3 27 -7.3545 -0.1386
-21 3 27 -10.5983 -0.4085
-19 3 27 4.2251 -0.4992
-17 3 27 5.1068 1.0363
-15 3 27 -6.0211 3.1874
-13 3 27 -3.9158 5.1969
-11 3 27 -10.9146 1.7560
-9 3 27 7.1418 -3.9651
-7 3 27 -18.2651 -4.0806
-5 3 27 -27.9953 1.0656
-3 3 27 -6.1487 4.5669
-1 3 27 -11.0134 2.5663
1 3 27 -20.3754 -1.7846
3 3 27 22.3929 -4.5961
5 3 27 -3.7803 -4.2046
7 3 27 5.0060 0.0488
9 3 27 -8.5980 4.7196
11 3 27 -17.4411 4.3860
13 3 27 11.9450 -1.2685
15 3 27 -18.5382 -5.9498
17 3 27 3.4357 -2.9165
19 3 27 -0.7340 2.3572
21 3 27 12.2950 3.6371
23 3 27 5.7382 0.7120
25 3 27 -1.3559 -1.8349
27 3 27 -2.9740 -2.3991
-30 4 27 1.4482 1.4194
-28 4 27 1.6701 -2.1470
-26 4 27 -5.7953 -1.5386
-24 4 27 -7.8454 2.4473
-22 4 27 -4.2810 1.7808
-20 4 27 -2.0640 -3.3414
-18 4 27 -1.8518 -2.3505
-16 4 27 4.3430 2.0361
-14 4 27 -0.6867 -0.7101
-12 4 27 -6.8085 -4.0992
-10 4 27 6.8269 1.7824
-8 4 27 18.6417 7.1097
-6 4 27 12.4158 0.1828
-4 4 27 -8.5698 -6.2089
-2 4 27 -5.2797 0.3568
0 4 27 -16.4565 6.5588
2 4 27 -31.4052 1.9374
4 4 27 -31.0844 -2.0920
6 4 27 -7.1305 -0.0431
8 4 27 -22.4810 -0.5465
10 4 27 1.5580 -4.6239
12 4 27 13.6586 -2.0579
14 4 27 6.5857 4.9670
16 4 27 -17.2168 4.4113
18 4 27 -14.8235 -3.1078
20 4 27 -3.4854 -5.3941
22 4 27 4.9960 -0.3778
24 4 27 6.2123 3.2979
26 4 27 7.3399 3.0098
28 4 27 0.9041 0.5787
-31 5 27 7.6236 0.1224
-29 5 27 -11.9728 -2.6691
-27 5 27 -4.7714 -1.1333
-25 5 27 3.9420 1.0521
-23 5 27 0.7617 -0.9723
-21 5 27 -10.1495 -1.9094
-19 5 27 1.4051 1.8938
-17 5 27 -3.7042 3.3864
-15 5 27 19.4476 -1.4648
-13 5 27 6.5327 -3.2922
-11 5 27 -14.8323 0.5607
-9 5 27 -10.6814 2.3989
-7 5 27 21.3981 1.2522
-5 5 27 5.4211 0.1889
-3 5 27 -4.0116 -0.0393
-1 5 27 18.1305 -2.4311
1 5 27 -14.3461 -3.1077
3 5 27 -15.7639 0.5173
5 5 27 16.1988 2.8741
7 5 27 10.0782 0.5896
9 5 27 -6.9463 -2.5315
11 5 27 27.7636 -2.6138
13 5 27 12.5383 -0.9266
15 5 27 -10.1410 0.6587
17 5 27 -3.9225 2.2613
19 5 27 8.5440 2.1982
21 5 27 5.7593 -0.9458
23 5 27 -13.0602 -2.5991
25 5 27 -2.1154 -1.8711
27 5 27 -2.0736 1.1464
-30 6 27 -1.4064 -0.7290
-28 6 27 5.7107 -0.1938
-26 6 27 4.9540 2.4883
-24 6 27 -3.0522 -2.2560
-22 6 27 0.9047 -2.6499
-20 6 27 1.5705 1.7271
-18 6 27 -5.1690 2.3265
-16 6 27 21.3359 -2.7755
-14 6 27 24.7889 -1.9686
-12 6 27 -8.6410 5.1541
-10 6 27 16.7526 3.8700
-8 6 27 5.0781 -2.2648
-6 6 27 -8.8495 -1.2733
-4 6 27 -28.6470 4.5708
-2 6 27 16.7125 2.9418
0 6 27 -0.9830 -2.1920
2 6 27 -0.7438 0.8666
4 6 27 2.9058 4.3803
6 6 27 -0.5847 -1.5757
8 6 27 -0.5227 -6.3709
10 6 27 -22.1848 -0.3904
12 6 27 -7.2299 4.8873
14 6 27 5.6357 0.7948
16 6 27 23.6949 -3.7661
18 6 27 -4.3064 -1.2853
20 6 27 5.5460 0.9105
22 6 27 19.6674 -0.6662
24 6 27 -0.9258 -0.5722
26 6 27 -20.5225 2.0601
28 6 27 -6.1670 -0.9133
-29 7 27 6.5533 1.3569
-27 7 27 -1.2036 2.1272
-25 7 27 -4.3382 -0.7806
-23 7 27 0.4621 -1.2499
-21 7 27 -3.0870 3.1757
-19 7 27 5.0916 3.8448
-17 7 27 -10.2053 -0.9326
-15 7 27 4.1131 -3.4722
-13 7 27 -11.6375 -0.3925
-11 7 27 1.9561 1.6988
-9 7 27 3.7348 1.1095
-7 7 27 20.3199 0.6916
-5 7 27 8.5086 -0.2226
-3 7 27 5.0823 -3.2265
-1 7 27 6.1716 -5.4163
1 7 27 -9.4324 -1.3283
3 7 27 -21.0731 4.9564
5 7 27 38.3276 4.0810
7 7 27 16.7634 -3.6876
9 7 27 -9.1118 -6.4799
11 7 27 8.9268 -0.9169
13 7 27 -5.6936 3.9284
15 7 27 2.3831 3.1794
17 7 27 -2.5433 1.2257
19 7 27 16.6116 -0.2661
21 7 27 -17.2570 -2.2696
23 7 27 9.4405 -2.7831
25 7 27 18.4049 1.3631
27 7 27 4.7377 5.4273
-30 8 27 -5.7482 -0.1326
-28 8 27 7.3065 -0.4007
-26 8 27 1.2984 -1.2085
-24 8 27 10.1029 -0.8136
-22 8 27 -3.2253 -0.7621
-20 8 27 4.1828 -0.2591
-18 8 27 -2.7246 0.2439
-16 8 27 -10.1338 0.4033
-14 8 27 7.8630 -1.3040
-12 8 27 -12.6531 -1.6385
-10 8 27 -31.7054 -0.0027
-8 8 27 13.0573 0.5392
-6 8 27 -1.8311 -0.3450
-4 8 27 -23.0888 0.2867
-2 8 27 20.4781 1.3944
0 8 27 32.8859 -0.8211
2 8 27 -20.1785 -2.0774
4 8 27 9.3906 1.1398
6 8 27 -2.4136 2.9363
8 8 27 -4.5571 0.6392
10 8 27 13.1206 -0.8795
12 8 27 1.4904 0.4225
14 8 27 6.8734 0.5299
16 8 27 7.8229 -1.1144
18 8 27 -11.0892 0.5404
20 8 27 6.8700 1.7982
22 8 27 6.4205 1.0741
24 8 27 8.9090 -1.8235
26 8 27 -5.1500 -1.5630
28 8 27 -2.1204 -1.5232
-29 9 27 1.0068 -2.2416
-27 9 27 6.5483 -1.0456
-25 9 27 -4.8672 1.3159
-23 9 27 0.0934 0.3291
-21 9 27 7.2118 -1.5025
-19 9 27 -11.1752 -0.0162
-17 9 27 -2.6028 2.0735
-15 9 27 8.0168 0.4814
-13 9 27 -5.8310 -1.3033
-11 9 27 4.8047 0.2798
-9 9 27 -13.2846 2.6455
-7 9 27 3.5049 1.0895
-5 9 27 7.7753 -1.4649
-3 9 27 -9.2065 -0.8006
-1 9 27 -24.2902 0.7636
1 9 27 -14.1458 0.4787
3 9 27 4.4783 -0.7706
5 9 27 -0.0454 -1.3346
7 9 27 3.4067 -0.7170
9 9 27 -12.0851 -0.2767
11 9 27 -13.6732 -0.5236
13 9 27 -1.8280 0.1649
15 9 27 0.5296 1.3772
17 9 27 -2.8786 0.5780
19 9 27 -0.7330 -0.8713
21 9 27 -10.3177 -0.9198
23 9 27 -1.2877 0.7921
25 9 27 -4.4970 1.2261
27 9 27 -1.5509 -0.0584
-28 10 27 1.5754 0.4862
-26 10 27 -8.3316 1.5164
-24 10 27 -1.8906 0.2867
-22 10 27 -9.0827 -1.8590
-20 10 27 -1.8573 1.8396
-18 10 27 2.2869 2.5822
-16 10 27 -5.1432 -2.0966
-14 10 27 -12.9764 -2.8183
-12 10 27 -22.1981 1.3802
-10 10 27 -5.0287 0.7243
-8 10 27 30.0629 -4.4794
-6 10 27 4.4950 -2.7466
-4 10 27 7.1223 2.6733
-2 10 27 -14.9911 -0.0543
0 10 27 7.5062 -4.3912
2 10 27 -10.0658 -0.0820
4 10 27 4.8388 4.4258
6 10 27 19.8919 0.5612
8 10 27 7.9979 -1.8367
10 10 27 -7.4107 1.7081
12 10 27 2.6713 2.7569
14 10 27 -4.2695 -1.5639
16 10 27 1.9698 -1.2067
18 10 27 8.7565 2.5858
20 10 27 1.7426 1.5276
22 10 27 -2.5305 -1.1419
24 10 27 3.8316 -1.2821
26 10 27 -3.9830 0.2949
-29 11 27 -2.1599 -0.8204
-27 11 27 -2.4929 1.4359
-25 11 27 1.7357 0.0093
-23 11 27 -11.3153 -2.6132
-21 11 27 9.3570 -0.8366
-19 11 27 -0.9151 2.7086
-17 11 27 -1.8241 -0.6581
-15 11 27 17.0991 -3.1791
-13 11 27 12.1297 1.7029
-11 11 27 8.0358 4.3447
-9 11 27 -10.2100 -2.0180
-7 11 27 -2.8086 -4.7354
-5 11 27 -4.0880 3.2285
-3 11 27 -24.9673 6.3668
-1 11 27 9.4245 -1.7563
1 11 27 -8.9755 -4.9560
3 11 27 -14.4840 1.6464
5 11 27 -3.1828 1.9488
7 11 27 12.4970 -3.3721
9 11 27 12.1022 -0.2953
11 11 27 -0.4083 5.1254
13 11 27 8.7995 0.5435
15 11 27 -7.0339 -5.8384
17 11 27 0.9076 -1.8732
19 11 27 -12.1224 4.8976
21 11 27 -13.2929 3.3309
23 11 27 -3.9960 -0.8801
25 11 27 10.6616 -0.3545
27 11 27 3.1956 2.0943
-28 12 27 4.5780 3.5027
-26 12 27 -9.4064 0.8768
-24 12 27 1.8533 -2.1600
-22 12 27 7.8108 -0.8155
-20 12 27 3.3138 2.8147
-18 12 27 1.7559 0.5197
-16 12 27 -0.0767 -2.6573
-14 12 27 -6.5245 0.2354
-12 12 27 -21.9828 3.7980
-10 12 27 -6.4158 -0.0582
-8 12 27 -0.6290 -5.0570
-6 12 27 8.5083 -2.1405
-4 12 27 18.8048 3.3073
-2 12 27 6.8291 0.8386
0 12 27 -5.8103 -3.8127
2 12 27 21.5969 -1.1993
4 12 27 -28.4365 2.3759
6 12 27 -14.3181 0.0944
8 12 27 6.0590 -2.1397
10 12 27 -4.5590 0.7924
12 12 27 17.4342 3.7647
14 12 27 0.1224 0.9733
16 12 27 -7.4910 -2.1852
18 12 27 -5.9444 -0.2950
20 12 27 5.7678 2.2503
22 12 27 7.2506 1.2857
24 12 27 -17.1555 -0.3221
26 12 27 -6.2163 -1.1115
-27 13 27 -2.6145 -1.2951
-25 13 27 13.2407 0.3668
-23 13 27 -11.4178 0.8358
-21 13 27 1.1954 0.2548
-19 13 27 0.4853 -1.8566
-17 13 27 -3.1364 -1.5924
-15 13 27 5.3390 0.8222
-13 13 27 5.6437 1.5089
-11 13 27 1.9208 -0.2725
-9 13 27 -14.6349 -0.8856
-7 13 27 -1.2654 -0.3331
-5 13 27 4.9758 -0.3412
-3 13 27 -24.6040 0.0242
-1 13 27 0.0043 1.5663
1 13 27 7.7069 2.1524
3 13 27 -18.1286 -0.5651
5 13 27 17.8443 -2.0573
7 13 27 -4.9207 0.0274
9 13 27 -5.3469 2.1840
11 13 27 -18.1904 1.2266
13 13 27 -0.3748 -1.3949
15 13 27 6.7111 -0.7363
17 13 27 18.0298 0.1468
19 13 27 -3.8980 -0.0080
21 13 27 -13.3927 0.2304
23 13 27 -5.6457 2.0051
25 13 27 6.4456 2.2652
-28 14 27 7.0401 -0.5686
-26 14 27 4.6040 -0.1680
-24 14 27 14.7217 0.7020
-22 14 27 7.8554 0.0612
-20 14 27 -2.7376 0.1925
-18 14 27 2.0391 0.2182
-16 14 27 3.6638 0.2084
-14 14 27 5.2540 -0.2140
-12 14 27 -9.6873 -0.2579
-10 14 27 7.5818 0.0831
-8 14 27 1.9907 0.0967
-6 14 27 6.6608 0.2381
-4 14 27 -4.5269 -0.4211
-2 14 27 9.0842 -1.3582
0 14 27 -19.0546 -0.5998
2 14 27 14.2500 0.3608
4 14 27 -8.9140 -0.5345
6 14 27 1.8830 -0.8899
8 14 27 0.8584 0.5868
10 14 27 -14.0048 1.2567
12 14 27 -13.1147 -0.6106
14 14 27 -1.3538 -0.9771
16 14 27 -14.3005 1.2063
18 14 27 -12.5237 1.1157
20 14 27 3.7906 -0.9544
22 14 27 3.4165 0.5369
24 14 27 -1.6704 1.8985
-27 15 27 -3.9553 -0.7577
-25 15 27 1.2503 0.4393
-23 15 27 1.0991 -0.7568
-21 15 27 -3.2146 -0.5658
-19 15 27 6.4794 -0.7613
-17 15 27 1.3295 -0.3702
-15 15 27 -16.2402 -0.3049
-13 15 27 1.1943 0.9182
-11 15 27 -1.7680 0.4486
-9 15 27 -22.9217 -0.4923
-7 15 27 11.2445 -0.6721
-5 15 27 12.7132 0.4285
-3 15 27 8.5812 1.2016
-1 15 27 -4.3404 1.1570
1 15 27 4.3433 0.5884
3 15 27 -6.6863 0.7008
5 15 27 -5.4350 0.5689
7 15 27 -19.8846 -0.2988
9 15 27 5.5054 -0.1389
11 15 27 5.0147 0.2531
13 15 27 2.5907 -0.3103
15 15 27 -6.0052 -0.0308
17 15 27 1.3956 0.1615
19 15 27 9.5869 0.1522
21 15 27 -6.3911 -0.7685
23 15 27 4.0419 0.3423
25 15 27 15.0775 1.7279
-26 16 27 5.6106 1.4205
-24 16 27 9.0581 -1.7079
-22 16 27 0.0758 0.2406
-20 16 27 -0.4878 2.3427
-18 16 27 4.2402 0.2119
-16 16 27 7.3939 -2.7459
-14 16 27 0.0821 -0.7283
-12 16 27 0.9315 2.9383
-10 16 27 4.3740 1.1387
-8 16 27 -10.9747 -1.2345
-6 16 27 -5.8023 0.1954
-4 16 27 20.7400 1.4850
-2 16 27 -4.3171 -1.2296
0 16 27 4.0706 -2.2219
2 16 27 13.2026 0.7411
4 16 27 7.4348 2.1049
6 16 27 0.5806 -0.5246
8 16 27 -19.2313 -2.4248
10 16 27 -0.2300 -0.5452
12 16 27 -26.1214 0.7182
14 16 27 -2.6607 -0.3647
16 16 27 -15.2728 -0.0979
18 16 27 -1.6043 0.7723
20 16 27 12.2691 1.3238
22 16 27 2.0710 -0.2017
24 16 27 -6.6285 -0.2714
-25 17 27 -1.1878 -1.4240
-23 17 27 1.3255 0.0903
-21 17 27 -5.4667 1.9870
-19 17 27 -1.8377 0.5264
-17 17 27 3.5793 -0.9218
-15 17 27 9.2484 -0.4761
-13 17 27 -0.9205 0.4923
-11 17 27 7.3647 -0.9193
-9 17 27 -2.3830 -1.1194
-7 17 27 32.6800 1.5818
-5 17 27 -0.7872 2.5924
-3 17 27 10.8817 -0.1789
-1 17 27 -18.8534 -2.1162
1 17 27 -8.0267 -0.4897
3 17 27 -0.5881 1.2732
5 17 27 -24.9149 1.6797
7 17 27 10.9441 1.0498
9 17 27 3.0731 -0.3822
11 17 27 4.4662 -1.6268
13 17 27 15.1490 -1.0448
15 17 27 -13.7345 0.7004
17 17 27 1.1846 1.4219
19 17 27 4.0778 -0.0474
21 17 27 -2.2385 -1.9801
23 17 27 0.4565 -1.5675
-24 18 27 10.6763 0.1040
-22 18 27 -4.4267 0.8488
-20 18 27 -0.7824 -1.0318
-18 18 27 -9.6263 -0.8951
-16 18 27 -4.5551 0.6556
-14 18 27 8.7414 1.5904
-12 18 27 21.5465 0.6010
-10 18 27 15.4313 -1.1350
-8 18 27 2.8606 -0.2748
-6 18 27 -4.2355 1.1698
-4 18 27 -3.4480 0.8517
-2 18 27 -4.2248 -0.1669
0 18 27 -2.4540 0.0807
2 18 27 -4.9471 0.0291
4 18 27 16.3675 -1.6284
6 18 27 4.8514 -1.6260
8 18 27 -7.6234 0.7026
10 18 27 16.3805 1.5673
12 18 27 -9.9678 -1.1683
14 18 27 -2.9467 -2.4597
16 18 27 -1.4934 0.0079
18 18 27 3.6010 1.1763
20 18 27 3.7879 0.1037
22 18 27 -1.7500 -1.7704
-25 19 27 2.8691 -0.5889
-23 19 27 -7.0703 0.9745
-21 19 27 -5.6422 0.3113
-19 19 27 -2.6687 -0.1263
-17 19 27 -1.4578 -0.1736
-15 19 27 15.2369 -0.8904
-13 19 27 6.4646 -0.9801
-11 19 27 16.7479 -0.1350
-9 19 27 -6.8409 0.3786
-7 19 27 2.3761 0.3200
-5 19 27 10.9437 -0.2282
-3 19 27 10.4840 -0.3746
-1 19 27 -9.5194 -0.4470
1 19 27 -3.4222 0.2720
3 19 27 6.9944 0.4964
5 19 27 -19.6683 0.3937
7 19 27 -4.8506 0.3772
9 19 27 -1.8380 0.2266
11 19 27 9.3776 -0.7128
13 19 27 25.1189 -0.9272
15 19 27 -13.8005 -0.3714
17 19 27 1.3186 0.6109
19 19 27 1.1166 0.0718
21 19 27 -10.4227 -0.9121
-24 20 27 5.9115 0.4659
-22 20 27 -9.5084 0.1227
-20 20 27 -3.0907 1.2344
-18 20 27 -2.1705 1.4072
-16 20 27 0.6836 -0.4428
-14 20 27 6.3130 -0.1905
-12 20 27 7.8861 1.0000
-10 20 27 -8.6979 0.1289
-8 20 27 -13.9939 -1.1620
-6 20 27 -1.8938 0.3427
-4 20 27 -9.1855 1.7381
-2 20 27 1.7476 0.5238
0 20 27 -24.8485 -1.2501
2 20 27 7.3800 -0.7848
4 20 27 -7.7782 0.3402
6 20 27 2.1257 -0.3820
8 20 27 1.0552 -0.7816
10 20 27 -13.3838 0.9075
12 20 27 -0.6715 0.8224
14 20 27 -5.1931 -1.0544
16 20 27 1.1725 -1.4657
18 20 27 1.9547 1.0415
20 20 27 -4.7010 -0.2898
-23 21 27 -3.9871 1.8675
-21 21 27 -11.1876 1.6469
-19 21 27 -3.2502 0.5543
-17 21 27 2.1855 -1.8823
-15 21 27 13.3928 -0.6914
-13 21 27 1.2511 1.8318
-11 21 27 16.3806 0.6212
-9 21 27 5.3801 -1.8849
-7 21 27 -6.4883 -1.4426
-5 21 27 13.7264 0.5489
-3 21 27 -9.3527 0.0201
-1 21 27 16.1964 -1.0481
1 21 27 2.5914 0.0110
3 21 27 7.9426 0.4641
5 21 27 -4.2412 -0.4634
7 21 27 -5.2450 -1.2515
9 21 27 3.1587 0.0278
11 21 27 -2.6951 1.7389
13 21 27 2.5309 0.9996
15 21 27 -2.4636 -1.3774
17 21 27 12.1572 -1.0664
19 21 27 20.5665 -0.8125
-22 22 27 -15.0603 2.2871
-20 22 27 -9.6276 1.3190
-18 22 27 -1.7733 -0.4064
-16 22 27 -9.6188 -1.1392
-14 22 27 3.0363 0.4556
-12 22 27 -9.9349 0.4550
-10 22 27 1.0661 -0.0704
-8 22 27 -0.3031 -0.0136
-6 22 27 -4.8104 0.5808
-4 22 27 10.4397 0.0104
-2 22 27 9.6185 -1.0162
0 22 27 -28.9361 -0.4393
2 22 27 6.7890 0.9547
4 22 27 -3.0981 0.9510
6 22 27 -5.0154 -1.0517
8 22 27 -3.7656 -1.2050
10 22 27 -15.7715 -0.1611
12 22 27 -12.3344 0.6478
14 22 27 -3.2458 0.3952
16 22 27 -3.9050 -0.6772
18 22 27 10.9864 -0.6973
20 22 27 -9.6838 -0.6245
-21 23 27 -2.5067 1.3722
-19 23 27 -6.6389 0.0112
-17 23 27 1.3334 -0.0182
-15 23 27 -9.5507 1.5007
-13 23 27 -6.4927 0.5457
-11 23 27 7.5581 -1.9896
-9 23 27 4.6939 -0.5246
-7 23 27 -21.6807 1.4123
-5 23 27 15.1747 -1.0189
-3 23 27 1.6753 -2.0620
-1 23 27 -7.2634 0.1758
1 23 27 5.2454 2.0206
3 23 27 -7.3443 -0.6005
5 23 27 -5.0059 -1.7550
7 23 27 7.9326 1.0106
9 23 27 -4.7325 1.6895
11 23 27 -6.3649 -0.5910
13 23 27 -10.4146 -0.6423
15 23 27 8.1506 0.5743
17 23 27 -15.2808 0.7083
-20 24 27 -6.1772 -0.3459
-18 24 27 -4.4201 0.7699
-16 24 27 -0.9498 1.1099
-14 24 27 6.4825 -0.4235
-12 24 27 -17.8849 -1.9220
-10 24 27 -10.0339 0.3325
-8 24 27 0.8411 2.0407
-6 24 27 12.0517 0.1149
-4 24 27 7.3928 -1.7046
-2 24 27 11.3476 -0.7670
0 24 27 -6.1578 1.1577
2 24 27 -4.8612 0.5648
4 24 27 6.5083 -1.0142
6 24 27 -4.0758 -0.2467
8 24 27 -11.9428 0.3890
10 24 27 -0.0733 -0.1688
12 24 27 -4.2855 -0.3398
14 24 27 -16.9269 0.2629
16 24 27 3.7655 0.6596
-17 25 27 10.7816 0.2816
-15 25 27 -5.5632 0.9083
-13 25 27 -1.9900 0.2380
-11 25 27 -2.3903 -1.1381
-9 25 27 26.2244 0.1278
-7 25 27 10.4571 0.5790
-5 25 27 -0.0644 -0.6524
-3 25 27 2.3005 -1.5115
-1 25 27 7.9109 -0.0987
1 25 27 -0.5821 0.5964
3 25 27 -2.7379 -1.0282
5 25 27 -16.6733 -1.1326
7 25 27 4.8368 0.8386
9 25 27 15.1119 1.1419
11 25 27 -7.5648 -0.4784
13 25 27 -4.4673 0.6152
15 25 27 32.6289 -0.1358
-16 26 27 -17.1257 -0.3232
-14 26 27 -0.3511 -0.7814
-12 26 27 15.7978 -0.6858
-10 26 27 -1.2150 -0.0740
-8 26 27 -11.0358 -0.0471
-6 26 27 5.8065 0.2758
-4 26 27 4.8158 1.1261
-2 26 27 -7.4983 0.3736
0 26 27 1.7462 -0.6999
2 26 27 5.5467 0.2677
4 26 27 14.3611 1.0312
6 26 27 14.0051 0.8833
8 26 27 -6.1463 0.2470
10 26 27 5.4726 0.3294
12 26 27 9.5827 0.5263
14 26 27 -8.7279 -0.1352
-15 27 27 -4.7098 1.2209
-13 27 27 -7.4804 0.0286
-11 27 27 1.2059 -1.0663
-9 27 27 -1.1091 -0.0654
-7 27 27 2.1565 0.2428
-5 27 27 -20.6443 0.0859
-3 27 27 7.3806 0.2390
-1 27 27 3.8444 0.0535
1 27 27 -12.0338 -0.7197
3 27 27 4.9229 -0.9141
5 27 27 15.4991 -0.1702
7 27 27 5.7966 0.2294
9 27 27 -3.1929 0.4399
11 27 27 5.0796 0.3069
13 27 27 2.7304 1.3583
-12 28 27 15.2230 -0.9427
-10 28 27 7.6189 -0.4714
-8 28 27 6.6329 -0.2023
-6 28 27 3.0248 -0.2757
-4 28 27 -1.8892 0.3000
-2 28 27 -6.4286 0.4429
0 28 27 -3.5703 0.5293
2 28 27 -1.2225 -0.2261
4 28 27 0.9776 -0.0363
6 28 27 -8.4832 -0.2212
8 28 27 6.8450 1.8744
10 28 27 -0.7678 0.1153
-11 29 27 6.7650 -1.7184
-9 29 27 0.0799 0.7597
-7 29 27 1.0620 0.7884
-5 29 27 -6.3395 -0.0134
-3 29 27 4.4357 -0.1352
-1 29 27 -20.4975 0.2693
1 29 27 -3.5298 0.3194
3 29 27 -9.3044 -0.9563
5 29 27 24.9474 -1.0755
7 29 27 13.6480 1.4793
9 29 27 -5.0400 -0.2020
-8 30 27 1.4055 0.5316
-6 30 27 0.4811 -1.5253
-4 30 27 3.5298 -0.7030
-2 30 27 6.9945 0.7046
0 30 27 2.2854 0.5180
2 30 27 6.0600 -0.4857
4 30 27 -1.8178 0.3332
-30 0 28 -3.8758 4.8881
-28 0 28 1.1844 -4.0616
-26 0 28 -19.1127 -8.0134
-24 0 28 -9.7535 8.1322
-22 0 28 -21.7234 14.1832
-20 0 28 -9.1072 -8.0753
-18 0 28 -2.0182 -15.6506
-16 0 28 -8.6609 5.9818
-14 0 28 -26.2687 7.0032
-12 0 28 1.7061 -18.3444
-10 0 28 -17.7228 -12.8918
-8 0 28 8.7803 14.2850
-6 0 28 25.3773 -3.4344
-4 0 28 -26.8331 -34.1697
-2 0 28 -33.9273 -4.6567
0 0 28 -0.1288 35.4587
2 0 28 -36.9487 11.7275
4 0 28 2.8842 -19.5630
6 0 28 47.7606 4.6064
8 0 28 -25.3850 25.7777
10 0 28 6.9879 1.7489
12 0 28 13.4205 -9.0327
14 0 28 2.3915 13.3686
16 0 28 -30.2285 14.2715
18 0 28 -3.2015 -12.4574
20 0 28 25.3032 -15.3604
22 0 28 17.7597 7.0197
24 0 28 -3.9026 10.4313
26 0 28 1.8926 -4.9920
28 0 28 2.1551 -7.1440
-29 1 28 -5.0775 0.8522
-27 1 28 1.5888 -6.2452
-25 1 28 1.8927 -3.3423
-23 1 28 4.4365 6.6377
-21 1 28 -2.1117 -1.0219
-19 1 28 2.8873 -11.1859
-17 1 28 -18.1761 -0.2148
-15 1 28 12.3996 11.7654
-13 1 28 32.4463 -3.6190
-11 1 28 -24.8250 -17.3405
-9 1 28 -2.6551 0.4260
-7 1 28 -0.8454 17.2275
-5 1 28 -20.7544 2.3504
-3 1 28 8.6488 -10.7258
-1 1 28 26.2644 2.7231
1 1 28 -12.2801 11.1211
3 1 28 -2.5356 -3.9084
5 1 28 -14.6348 -6.7998
7 1 28 9.4137 12.9512
9 1 28 -23.2935 12.5117
11 1 28 -4.7832 -11.3981
13 1 28 1.8282 -13.3104
15 1 28 22.9831 8.4159
17 1 28 1.2128 11.3449
19 1 28 4.8684 -4.1781
21 1 28 -2.7009 -5.7366
23 1 28 -15.3189 3.1130
25 1 28 -11.3506 0.7562
27 1 28 5.8156 -4.7478
-30 2 28 6.2084 1.8239
-28 2 28 4.7534 1.3350
-26 2 28 -10.1862 1.4424
-24 2 28 1.7396 1.6833
-22 2 28 -17.7317 0.5609
-20 2 28 5.5993 0.8598
-18 2 28 0.8040 0.8221
-16 2 28 18.2709 -0.0617
-14 2 28 4.4718 -0.1315
-12 2 28 -5.4475 0.3716
-10 2 28 -2.7934 -1.0256
-8 2 28 16.8623 -3.9147
-6 2 28 11.1590 -4.6404
-4 2 28 -12.5535 -1.2312
-2 2 28 -9.9297 1.0220
0 2 28 5.1236 0.2474
2 2 28 -25.5166 -0.9458
4 2 28 3.2450 -0.4177
6 2 28 17.7176 -0.7306
8 2 28 -11.2922 0.3513
10 2 28 30.3175 3.2428
12 2 28 11.7051 3.8426
14 2 28 -2.6535 -0.4261
16 2 28 -12.9093 -3.0517
18 2 28 16.1353 -1.2403
20 2 28 13.8251 1.5806
22 2 28 4.4593 2.4046
24 2 28 3.9242 0.0374
26 2 28 -6.2142 -2.8094
28 2 28 -9.6450 -0.4057
-29 3 28 -3.8225 2.0085
-27 3 28 5.9814 0.1949
-25 3 28 -10.1611 -2.5544
-23 3 28 1.1779 0.1460
-21 3 28 -17.3464 0.7637
-19 3 28 -0.7247 -0.9868
-17 3 28 -10.3926 -1.5041
-15 3 28 11.1890 0.3780
-13 3 28 13.7772 -1.7222
-11 3 28 -1.9937 -4.0739
-9 3 28 1.5836 0.2912
-7 3 28 21.1680 4.9741
-5 3 28 -6.7938 1.8053
-3 3 28 -10.5109 -3.3170
-1 3 28 10.3465 -1.7232
1 3 28 -12.5166 2.2250
3 3 28 -9.7149 2.1854
5 3 28 17.3929 3.2117
7 3 28 26.4346 4.4787
9 3 28 -24.2235 -1.3294
11 3 28 8.5259 -6.6945
13 3 28 12.8568 -2.2012
15 3 28 10.7934 5.4081
17 3 28 -11.4346 5.0155
19 3 28 5.6985 -0.7421
21 3 28 15.4626 -3.3909
23 3 28 -7.6172 -2.2742
25 3 28 -3.9093 -1.2377
27 3 28 14.8269 1.1387
-30 4 28 12.2213 -0.9488
-28 4 28 20.6775 -0.4332
-26 4 28 -11.8886 -3.0907
-24 4 28 8.4104 0.0100
-22 4 28 -7.4893 1.9470
-20 4 28 3.6421 -2.5961
-18 4 28 -7.5823 -2.8353
-16 4 28 11.0281 4.5024
-14 4 28 14.2807 3.5357
-12 4 28 -13.7398 -6.3131
-10 4 28 0.4959 -5.0490
-8 4 28 7.5307 5.7564
-6 4 28 -18.3205 4.5764
-4 4 28 -1.8684 -4.3699
-2 4 28 21.2463 -2.0722
0 4 28 -5.0014 3.4996
2 4 28 -15.9298 -2.4110
4 4 28 7.5564 -6.7056
6 4 28 14.4636 4.0884
8 4 28 8.0729 9.1081
10 4 28 12.8027 -2.9378
12 4 28 -4.1613 -8.4423
14 4 28 -7.3507 0.7830
16 4 28 13.1545 6.4668
18 4 28 1.9669 0.9739
20 4 28 0.0838 -1.2828
22 4 28 -15.7463 1.4461
24 4 28 1.2129 0.4114
26 4 28 -3.4602 -2.4100
28 4 28 -7.8159 2.4422
-29 5 28 -1.5317 -0.2738
-27 5 28 11.7098 -3.2347
-25 5 28 3.2971 0.0311
-23 5 28 7.7135 4.7376
-21 5 28 -18.4868 0.5739
-19 5 28 4.0767 -5.4073
-17 5 28 9.4749 1.0005
-15 5 28 16.6317 7.7441
-13 5 28 5.6503 -0.1291
-11 5 28 13.5042 -7.2815
-9 5 28 -0.8989 1.3322
-7 5 28 27.8864 7.7736
-5 5 28 8.9594 -1.5647
-3 5 28 -20.5363 -6.9691
-1 5 28 16.7966 3.6587
1 5 28 17.8608 7.2367
3 5 28 -26.9603 -4.8476
5 5 28 -2.3623 -7.6131
7 5 28 7.5332 4.7040
9 5 28 -1.1449 6.1629
11 5 28 14.8971 -5.3721
13 5 28 7.7033 -5.6385
15 5 28 -6.1390 4.6299
17 5 28 15.0339 3.1200
19 5 28 17.5926 -5.2091
21 5 28 4.5897 -2.0707
23 5 28 1.2940 5.2323
25 5 28 2.8041 2.3671
27 5 28 -4.1661 -3.8078
-30 6 28 -0.4430 0.9822
-28 6 28 10.5877 -1.2373
-26 6 28 -7.3561 0.5889
-24 6 28 1.8010 2.0890
-22 6 28 -4.8261 -0.2018
-20 6 28 -1.9933 -2.2272
-18 6 28 -27.9875 0.6157
-16 6 28 0.2563 3.0450
-14 6 28 18.3478 -0.6792
-12 6 28 3.4393 -3.3800
-10 6 28 -11.4111 0.5086
-8 6 28 18.2767 4.1975
-6 6 28 26.8504 1.6146
-4 6 28 -0.0835 -2.0445
-2 6 28 18.1804 -1.4238
0 6 28 35.9607 0.3716
2 6 28 -4.6336 -0.6369
4 6 28 35.8090 -0.6683
6 6 28 2.4594 1.5716
8 6 28 -9.0293 0.4959
10 6 28 -0.6937 -3.3873
12 6 28 -0.1295 -3.5006
14 6 28 5.2753 1.1633
16 6 28 21.7595 3.6235
18 6 28 -6.4717 1.8089
20 6 28 -3.5262 -1.7712
22 6 28 -6.7602 -2.9365
24 6 28 -2.1379 -1.6275
26 6 28 4.8423 0.1910
-29 7 28 6.2322 -0.8285
-27 7 28 10.7751 0.1001
-25 7 28 -12.2806 0.8883
-23 7 28 7.0748 -0.8147
-21 7 28 -2.1270 -1.0728
-19 7 28 6.3675 0.4826
-17 7 28 -4.8705 0.9719
-15 7 28 -13.9338 -0.9314
-13 7 28 -2.4281 -1.1411
-11 7 28 0.2994 0.9033
-9 7 28 -4.4399 0.2276
-7 7 28 1.6430 -2.2508
-5 7 28 -14.4920 -1.4109
-3 7 28 5.6627 2.7751
-1 7 28 -15.0881 2.7795
1 7 28 9.8872 -1.3229
3 7 28 -4.3253 -2.6669
5 7 28 -9.0910 -0.0906
7 7 28 37.2400 0.8375
9 7 28 -6.3170 0.0459
11 7 28 -1.2654 1.5196
13 7 28 -5.1896 1.3204
15 7 28 -2.1573 -2.3510
17 7 28 7.3677 -3.3216
19 7 28 9.5869 0.3108
21 7 28 3.8774 2.8528
23 7 28 -4.8302 1.4743
25 7 28 2.0587 -1.2450
27 7 28 -0.8351 -3.3010
-28 8 28 10.0260 -0.8521
-26 8 28 6.7680 1.8867
-24 8 28 0.9111 -0.9020
-22 8 28 -6.4849 -1.1789
-20 8 28 -5.1253 1.1327
-18 8 28 -6.7097 1.8829
-16 8 28 11.0203 -1.1131
-14 8 28 -23.0798 -0.2102
-12 8 28 9.4548 4.9808
-10 8 28 4.9936 4.0648
-8 8 28 9.7015 -2.0647
-6 8 28 30.5482 -1.7569
-4 8 28 -1.6680 3.5979
-2 8 28 -26.5509 3.0318
0 8 28 26.8403 -1.8600
2 8 28 -9.7668 -1.1740
4 8 28 -6.3157 1.7636
6 8 28 -9.8731 -2.4105
8 8 28 0.1934 -5.6825
10 8 28 -2.9198 -0.2852
12 8 28 -5.9090 4.5294
14 8 28 -11.2205 0.7544
16 8 28 -15.9294 -4.0900
18 8 28 9.5527 -2.0234
20 8 28 -12.3499 2.1336
22 8 28 -2.6098 1.1052
24 8 28 5.8247 0.0521
26 8 28 5.2412 0.2384
-29 9 28 -3.7202 2.8260
-27 9 28 -2.4650 -0.5207
-25 9 28 7.8831 0.0543
-23 9 28 -12.4361 1.6189
-21 9 28 1.4142 1.7157
-19 9 28 -8.9098 -1.8815
-17 9 28 -21.1020 -1.6235
-15 9 28 7.5042 0.3316
-13 9 28 0.0145 -0.4711
-11 9 28 -17.5184 -1.1582
-9 9 28 -15.4041 0.6590
-7 9 28 -9.7719 0.4971
-5 9 28 -7.0546 -3.2688
-3 9 28 18.9875 -3.0356
-1 9 28 9.7117 1.3769
1 9 28 6.5104 1.6389
3 9 28 -1.9447 -1.2394
5 9 28 -24.2971 -1.2172
7 9 28 -6.2900 0.2244
9 9 28 -6.8476 0.2210
11 9 28 -1.8116 -0.0996
13 9 28 8.9448 2.1376
15 9 28 -0.1714 1.5454
17 9 28 -5.7266 -0.8768
19 9 28 -6.2864 -1.3133
21 9 28 7.5626 0.3477
23 9 28 -12.9486 -0.4069
25 9 28 -6.4195 -2.2175
27 9 28 -5.4514 -2.4684
-28 10 28 9.2522 -1.7083
-26 10 28 -6.2272 0.2057
-24 10 28 -3.4633 2.4317
-22 10 28 4.0025 0.4070
-20 10 28 -7.8684 -2.4656
-18 10 28 12.5099 -0.1378
-16 10 28 18.0650 2.2343
-14 10 28 7.9895 0.0994
-12 10 28 4.6737 -1.0545
-10 10 28 7.8432 1.4861
-8 10 28 -6.4784 2.2411
-6 10 28 -6.8733 -1.0515
-4 10 28 5.8663 -1.0889
-2 10 28 -27.8895 3.1964
0 10 28 -7.5508 3.4907
2 10 28 22.7622 -0.8580
4 10 28 -11.1524 -2.8387
6 10 28 15.1800 -1.0586
8 10 28 5.6350 0.1117
10 10 28 -3.6847 0.5690
12 10 28 -20.1227 0.9256
14 10 28 1.5747 -0.1663
16 10 28 0.1243 -2.4875
18 10 28 7.9904 -2.8995
20 10 28 -6.0698 -0.4533
22 10 28 4.3296 1.0044
24 10 28 -1.7203 2.1413
26 10 28 6.8631 -0.0109
-27 11 28 -3.7593 -0.3489
-25 11 28 13.7913 1.4981
-23 11 28 -8.2050 1.9836
-21 11 28 0.0318 -1.0736
-19 11 28 2.3965 -1.2093
-17 11 28 -1.3081 1.5134
-15 11 28 -2.0496 1.5057
-13 11 28 3.5479 -0.9315
-11 11 28 2.9630 -0.1239
-9 11 28 -9.7956 2.3544
-7 11 28 -2.3717 0.0602
-5 11 28 14.4517 -4.0164
-3 11 28 -17.7324 -2.2763
-1 11 28 -2.3845 1.6622
1 11 28 4.4624 0.9830
3 11 28 -5.9644 -1.5211
5 11 28 0.8729 -1.3313
7 11 28 -6.1357 0.1799
9 11 28 3.9902 -0.6036
11 11 28 1.6687 -0.5620
13 11 28 13.9111 2.1203
15 11 28 -2.6833 2.4315
17 11 28 0.5124 0.1447
19 11 28 1.8416 -1.6423
21 11 28 7.3105 -0.5666
23 11 28 1.9186 0.3663
25 11 28 0.7537 -0.4640
-28 12 28 1.4706 -0.8232
-26 12 28 14.4513 1.1763
-24 12 28 9.1832 -0.1836
-22 12 28 -2.3336 -1.5754
-20 12 28 2.2389 0.8718
-18 12 28 4.1185 1.9281
-16 12 28 -14.2208 -2.0790
-14 12 28 2.1652 -3.7549
-12 12 28 -9.6854 0.6646
-10 12 28 -3.6611 2.3378
-8 12 28 -16.4826 -1.6899
-6 12 28 8.6544 -2.1073
-4 12 28 13.5989 1.6714
-2 12 28 11.1606 0.9608
0 12 28 18.9258 -2.3960
2 12 28 31.0020 -0.0740
4 12 28 -6.6897 3.7246
6 12 28 -7.1205 1.4287
8 12 28 -4.6892 -1.7337
10 12 28 10.1482 0.0107
12 12 28 -30.7452 2.1506
14 12 28 10.4126 0.0549
16 12 28 7.7427 -1.9001
18 12 28 -1.2029 0.8417
20 12 28 -10.0539 1.3622
22 12 28 6.0728 -0.8720
24 12 28 -7.9945 -1.0953
26 12 28 1.4960 2.0811
-27 13 28 4.0380 0.8500
-25 13 28 8.3194 -0.5189
-23 13 28 6.0993 -1.1083
-21 13 28 -15.1685 -0.1726
-19 13 28 -11.6960 1.5409
-17 13 28 12.3561 0.0162
-15 13 28 -3.8697 -0.1399
-13 13 28 14.6494 0.4497
-11 13 28 -11.3910 -0.4325
-9 13 28 -14.6582 -0.9504
-7 13 28 -14.4198 0.0068
-5 13 28 9.6203 1.2990
-3 13 28 -0.8210 0.9724
-1 13 28 -10.0177 -1.5112
1 13 28 1.6403 -2.7202
3 13 28 -5.8153 -0.4738
5 13 28 5.7800 1.6394
7 13 28 -13.5556 0.8042
9 13 28 -9.2545 -1.1061
11 13 28 15.5865 -0.5801
13 13 28 0.0119 0.9218
15 13 28 -11.7861 0.2923
17 13 28 -11.4924 -0.6979
19 13 28 13.4614 0.8722
21 13 28 2.2019 0.4155
23 13 28 3.5344 -1.0594
25 13 28 8.7610 -2.7914
-26 14 28 6.1243 -1.1457
-24 14 28 0.6308 1.0109
-22 14 28 -4.7336 0.2114
-20 14 28 -3.9509 -1.2201
-18 14 28 20.6013 -1.0814
-16 14 28 -6.6843 0.1794
-14 14 28 -15.0197 0.7366
-12 14 28 -2.4444 -0.9021
-10 14 28 -13.7833 -0.7725
-8 14 28 -6.8264 0.7121
-6 14 28 7.6015 0.2495
-4 14 28 13.1024 -0.5659
-2 14 28 1.4730 0.0520
0 14 28 -1.3651 1.1171
2 14 28 5.3282 0.4252
4 14 28 19.0491 -0.2377
6 14 28 -11.2185 0.9129
8 14 28 -7.4575 1.5282
10 14 28 27.4398 0.0176
12 14 28 -10.4392 -1.0119
14 14 28 -2.5037 -0.1161
16 14 28 -0.2524 1.0148
18 14 28 4.3988 1.2277
20 14 28 -3.1473 -0.0180
22 14 28 14.3317 -0.6406
24 14 28 4.0343 -1.9112
-27 15 28 -4.6741 -3.5562
-25 15 28 6.0379 0.3234
-23 15 28 -1.1544 0.1435
-21 15 28 3.4017 -1.3801
-19 15 28 4.0686 0.0397
-17 15 28 4.2186 2.1128
-15 15 28 -4.0696 0.8342
-13 15 28 -6.3583 -1.8457
-11 15 28 -8.5763 -1.0282
-9 15 28 0.5989 1.3263
-7 15 28 5.8945 0.9532
-5 15 28 -9.4133 -0.4802
-3 15 28 9.9898 -0.2930
-1 15 28 -16.6737 0.0720
1 15 28 -2.4926 -0.7605
3 15 28 -13.5646 -0.9151
5 15 28 1.7448 0.2310
7 15 28 22.6375 1.7792
9 15 28 -2.4755 1.0587
11 15 28 -2.1597 -1.8202
13 15 28 -11.7971 -1.8723
15 15 28 -2.7552 0.8041
17 15 28 12.3934 1.8392
19 15 28 15.2165 0.7471
21 15 28 0.6342 -0.7764
23 15 28 -2.1861 0.7491
-26 16 28 0.0125 0.2029
-24 16 28 -0.7151 0.4531
-22 16 28 3.7268 -2.8256
-20 16 28 -19.4678 -1.0707
-18 16 28 7.3775 1.6098
-16 16 28 2.4134 0.8636
-14 16 28 4.5867 -1.3057
-12 16 28 17.2672 -0.3663
-10 16 28 -12.7536 0.2593
-8 16 28 -12.6710 -1.2554
-6 16 28 4.6995 -0.8453
-4 16 28 3.8947 1.8776
-2 16 28 -1.7327 1.1512
0 16 28 8.7186 -2.0046
2 16 28 -13.5807 -1.1783
4 16 28 20.5338 1.1982
6 16 28 0.4884 0.9039
8 16 28 -11.0713 -0.0633
10 16 28 8.6773 0.5410
12 16 28 6.2742 0.5307
14 16 28 7.4098 -0.9028
16 16 28 -7.4238 -0.2582
18 16 28 -1.2923 2.4042
20 16 28 -8.0161 1.3282
22 16 28 -1.4424 -1.1413
-25 17 28 4.0411 -0.2089
-23 17 28 -7.3391 -2.3583
-21 17 28 4.9677 0.1959
-19 17 28 0.6178 1.9489
-17 17 28 -2.2938 -1.0226
-15 17 28 4.3519 -2.2919
-13 17 28 3.2131 1.6792
-11 17 28 13.0874 3.6247
-9 17 28 1.2055 -0.9527
-7 17 28 -10.8796 -3.2163
-5 17 28 -11.2346 1.2812
-3 17 28 14.2031 3.6158
-1 17 28 -8.7940 -0.2914
1 17 28 -4.0671 -2.1641
3 17 28 0.3946 0.9522
5 17 28 -3.9103 1.2783
7 17 28 9.0348 -2.0154
9 17 28 28.0541 -2.0695
11 17 28 8.0178 1.9551
13 17 28 -0.3338 2.1715
15 17 28 0.0338 -1.9352
17 17 28 6.4008 -1.8512
19 17 28 -9.5865 1.9602
21 17 28 -0.5709 1.7907
23 17 28 3.7465 -2.9729
-24 18 28 10.1926 -2.6909
-22 18 28 4.6159 -1.4142
-20 18 28 -2.3332 1.3386
-18 18 28 3.9984 0.2104
-16 18 28 3.6156 -1.4473
-14 18 28 -1.1091 -1.3275
-12 18 28 -1.6418 0.8302
-10 18 28 -10.3797 0.2426
-8 18 28 -8.2159 -1.4822
-6 18 28 3.8301 -0.6930
-4 18 28 -13.6994 0.8382
-2 18 28 -2.7049 -0.1132
0 18 28 -5.1250 -1.9020
2 18 28 -2.2900 0.1911
4 18 28 3.2672 2.6566
6 18 28 -14.0181 1.2800
8 18 28 1.0177 -2.0067
10 18 28 -9.8623 -1.4401
12 18 28 2.5254 1.3005
14 18 28 -5.5372 1.2854
16 18 28 -1.1386 -0.7842
18 18 28 10.6809 -0.0502
20 18 28 -3.0759 0.2755
22 18 28 -0.7537 -1.7188
-23 19 28 -10.2655 -1.2000
-21 19 28 -4.4956 0.5989
-19 19 28 -4.3335 -0.2910
-17 19 28 4.2072 -0.8785
-15 19 28 0.7394 -0.3312
-13 19 28 -6.6307 0.6677
-11 19 28 11.3806 0.9233
-9 19 28 -10.7048 0.1571
-7 19 28 2.6925 0.5550
-5 19 28 1.5747 1.0782
-3 19 28 -1.2001 0.9188
-1 19 28 22.0791 -0.2972
1 19 28 2.3649 -0.4797
3 19 28 -7.0117 0.5577
5 19 28 5.9675 0.1881
7 19 28 -5.0320 -1.1266
9 19 28 -2.6846 -0.9775
11 19 28 -15.8619 -0.2480
13 19 28 5.1727 -0.2305
15 19 28 20.0676 0.0072
17 19 28 4.6107 1.4021
19 19 28 -2.5796 0.9343
21 19 28 -6.9297 -0.1066
-22 20 28 0.4781 -0.5819
-20 20 28 14.9954 -0.2511
-18 20 28 -6.8351 0.1698
-16 20 28 -2.7985 0.9729
-14 20 28 -1.5649 -0.0198
-12 20 28 -4.6292 0.0123
-10 20 28 1.2943 0.8911
-8 20 28 -12.1543 0.2753
-6 20 28 -10.3871 -0.6350
-4 20 28 9.5369 -0.5863
-2 20 28 10.8443 -0.0329
0 20 28 -7.4841 0.0567
2 20 28 3.1236 0.3564
4 20 28 11.3486 0.6069
6 20 28 -10.2818 -0.3481
8 20 28 14.5261 -0.9697
10 20 28 -0.6412 -0.4226
12 20 28 -1.9702 -0.2414
14 20 28 -0.0071 0.4482
16 20 28 -4.2605 1.9123
18 20 28 16.8857 0.7367
20 20 28 2.9182 -0.1975
-21 21 28 -9.1885 0.8338
-19 21 28 4.1389 0.3198
-17 21 28 12.4714 -1.1482
-15 21 28 -3.4820 -1.6921
-13 21 28 -8.6748 -0.1669
-11 21 28 6.0510 1.1804
-9 21 28 2.8519 -0.0441
-7 21 28 11.2665 0.2852
-5 21 28 -10.1898 1.2898
-3 21 28 3.8990 0.1294
-1 21 28 -10.1561 -1.3747
1 21 28 2.6905 0.1464
3 21 28 -3.7598 2.1621
5 21 28 7.9487 1.1657
7 21 28 7.3576 -1.5417
9 21 28 -4.4235 -1.5389
11 21 28 4.1284 -0.2005
13 21 28 -19.9990 -0.7322
15 21 28 8.0003 0.1469
17 21 28 9.1607 1.4667
19 21 28 0.3800 1.4830
-20 22 28 16.8939 1.2066
-18 22 28 -24.9248 0.8387
-16 22 28 0.9429 -0.7911
-14 22 28 -12.8337 -0.3594
-12 22 28 -7.4733 0.4340
-10 22 28 3.4928 -0.0477
-8 22 28 -1.5406 -1.1847
-6 22 28 4.3759 0.2899
-4 22 28 -5.5783 1.1989
-2 22 28 -6.3675 -0.4869
0 22 28 4.8232 -2.2570
2 22 28 -15.0851 -0.7408
4 22 28 10.1322 0.7067
6 22 28 -7.1296 -0.0202
8 22 28 -4.3999 -0.7974
10 22 28 5.6836 -0.1601
12 22 28 0.7004 -0.1983
14 22 28 -6.3756 -0.1155
16 22 28 -3.7421 0.4545
18 22 28 3.6334 1.5207
-19 23 28 13.6388 -0.3437
-17 23 28 5.0726 -1.5910
-15 23 28 -11.4353 -1.3141
-13 23 28 -5.5352 1.1976
-11 23 28 2.4668 0.8612
-9 23 28 11.9755 -1.3537
-7 23 28 12.5062 -0.7110
-5 23 28 10.1559 1.5021
-3 23 28 3.5335 0.7460
-1 23 28 -10.2926 -1.1912
1 23 28 19.1303 0.1808
3 23 28 -4.6024 1.6685
5 23 28 -1.0264 0.3864
7 23 28 11.0009 -1.2645
9 23 28 -3.6507 -0.2442
11 23 28 3.3262 1.0574
13 23 28 4.5842 0.3750
15 23 28 1.9191 -0.4645
17 23 28 -7.4789 1.1505
-18 24 28 -2.7057 -0.6577
-16 24 28 9.3702 -0.3993
-14 24 28 -9.0008 0.1170
-12 24 28 -1.4337 -0.0461
-10 24 28 0.6995 -0.1176
-8 24 28 -3.8178 0.0937
-6 24 28 3.3108 0.5726
-4 24 28 -6.9879 0.4879
-2 24 28 -3.9092 -0.2798
0 24 28 2.2194 -0.0905
2 24 28 -0.3473 0.4054
4 24 28 27.8354 -0.1833
6 24 28 8.8338 -0.7022
8 24 28 -10.1813 0.0800
10 24 28 8.2770 1.5406
12 24 28 14.4912 0.2255
14 24 28 6.0825 -0.1553
16 24 28 16.0102 -1.0183
-17 25 28 -7.2650 -0.8404
-15 25 28 -11.3961 -1.1305
-13 25 28 1.4693 0.4616
-11 25 28 19.6883 -0.4069
-9 25 28 4.0688 -0.9813
-7 25 28 3.0246 -0.3247
-5 25 28 -5.1398 0.1004
-3 25 28 -5.6035 -0.3573
-1 25 28 -6.3364 -0.0750
1 25 28 9.4809 0.8090
3 25 28 4.7724 0.0902
5 25 28 13.4741 -0.6368
7 25 28 11.0693 -1.2063
9 25 28 4.0081 -0.0346
11 25 28 -2.6047 1.0671
13 25 28 12.3702 0.1835
15 25 28 5.1604 -2.5143
-16 26 28 3.0606 -2.0002
-14 26 28 -4.0117 -0.6079
-12 26 28 -1.5308 0.7180
-10 26 28 -0.8891 0.0824
-8 26 28 -6.8437 -0.3019
-6 26 28 5.6796 -0.4605
-4 26 28 -6.7626 -0.3452
-2 26 28 0.1043 -0.0184
0 26 28 -11.1162 -0.2124
2 26 28 12.2532 0.6675
4 26 28 0.9687 0.7190
6 26 28 -0.0772 -1.1937
8 26 28 -13.1680 -0.3453
10 26 28 -7.4031 0.8014
12 26 28 2.6133 2.1694
-13 27 28 3.7056 0.4550
-11 27 28 4.0259 1.1791
-9 27 28 -6.0001 -0.5199
-7 27 28 -8.9596 -0.4669
-5 27 28 -13.5927 0.5825
-3 27 28 -3.4548 0.0379
-1 27 28 -7.4241 -1.1658
1 27 28 4.0662 -0.5932
3 27 28 -17.0159 0.7948
5 27 28 17.5601 0.7357
7 27 28 -7.6158 -1.7322
9 27 28 -2.4870 -0.8776
11 27 28 -5.3436 2.8891
-12 28 28 6.5842 2.0729
-10 28 28 4.9667 -0.5872
-8 28 28 -1.9244 -0.7586
-6 28 28 -3.4916 0.2699
-4 28 28 5.2900 0.3121
-2 28 28 -6.4149 -0.7038
0 28 28 -20.8244 0.1419
2 28 28 13.7335 1.2771
4 28 28 -15.8593 1.1223
6 28 28 2.8921 -0.6513
8 28 28 0.3279 -1.1846
-9 29 28 0.0277 -0.6897
-7 29 28 -4.5912 1.5973
-5 29 28 -2.3534 0.5016
-3 29 28 -8.3609 -1.2072
-1 29 28 4.3117 -0.9450
1 29 28 4.4106 0.3161
3 29 28 -12.8062 0.2330
5 29 28 5.2359 -0.9665
7 29 28 -11.5681 -0.5926
-4 30 28 15.8461 -1.0881
-2 30 28 -7.5883 -2.0647
0 30 28 -3.0594 0.5169
2 30 28 3.4264 1.0278
-29 1 29 4.2329 6.2574
-27 1 29 12.2479 -3.2291
-25 1 29 -3.2378 -1.1439
-23 1 29 -5.6848 9.3332
-21 1 29 0.7987 0.2967
-19 1 29 1.3148 -15.1361
-17 1 29 9.2097 0.1362
-15 1 29 -7.9539 20.1365
-13 1 29 -8.7268 4.4674
-11 1 29 -7.4058 -17.2240
-9 1 29 -27.1556 -3.0185
-7 1 29 8.2021 10.2085
-5 1 29 -1.0901 -5.8139
-3 1 29 2.8618 -9.4671
-1 1 29 19.4787 12.9135
1 1 29 -0.5292 9.6143
3 1 29 2.8598 -21.6404
5 1 29 5.6900 -19.9466
7 1 29 -4.2103 14.5135
9 1 29 -13.1027 17.8514
11 1 29 1.9501 -7.9524
13 1 29 -3.3376 -10.0359
15 1 29 -0.2551 5.6786
17 1 29 -4.6615 2.9677
19 1 29 -1.4152 -7.4284
21 1 29 -3.3108 2.2715
23 1 29 -6.0810 12.1549
25 1 29 10.0180 0.1124
27 1 29 9.5462 -11.6233
-30 2 29 14.1488 6.0235
-28 2 29 4.9372 -1.4232
-26 2 29 -3.5883 -4.3814
-24 2 29 3.5167 1.9369
-22 2 29 9.7008 7.3338
-20 2 29 -10.5448 -0.4879
-18 2 29 -10.0184 -6.7770
-16 2 29 12.7610 1.5469
-14 2 29 4.2076 4.7764
-12 2 29 -5.1759 -7.4573
-10 2 29 15.8680 -8.4091
-8 2 29 14.6747 8.8149
-6 2 29 -10.7143 10.4730
-4 2 29 19.8953 -10.3974
-2 2 29 1.2046 -12.4642
0 2 29 -19.2208 8.1966
2 2 29 9.1689 11.0633
4 2 29 -11.0850 -4.4559
6 2 29 -4.3695 -2.7365
8 2 29 8.2440 8.5913
10 2 29 27.5737 0.5162
12 2 29 -13.9365 -12.0460
14 2 29 -0.5396 -1.5823
16 2 29 -1.8614 12.3173
18 2 29 -3.2166 3.2477
20 2 29 -1.3858 -9.1018
22 2 29 9.5260 -5.4496
24 2 29 0.8659 3.9991
26 2 29 -3.1955 1.1201
-29 3 29 4.5769 0.9368
-27 3 29 7.4519 0.0223
-25 3 29 7.2064 -0.0281
-23 3 29 13.6127 -1.5269
-21 3 29 -13.9852 -2.5510
-19 3 29 -14.4750 -1.7278
-17 3 29 13.8552 1.0016
-15 3 29 -10.2254 3.4815
-13 3 29 9.4501 1.9824
-11 3 29 9.5724 -2.0479
-9 3 29 -17.1320 -3.0963
-7 3 29 15.1309 -0.0712
-5 3 29 -2.2626 3.8242
-3 3 29 -38.2927 4.2393
-1 3 29 9.2170 1.8962
1 3 29 2.7619 -1.7843
3 3 29 11.4049 -4.4299
5 3 29 8.2599 -2.6146
7 3 29 10.2909 3.6207
9 3 29 4.9198 6.7126
11 3 29 13.4416 1.1628
13 3 29 7.1293 -5.2643
15 3 29 -0.8443 -4.0752
17 3 29 5.3100 1.0200
19 3 29 3.5489 3.2248
21 3 29 -5.2845 2.2656
23 3 29 -10.1850 0.1660
25 3 29 2.6106 -1.5372
27 3 29 -2.9018 -3.8109
-30 4 29 10.4814 -0.7342
-28 4 29 5.1443 0.8500
-26 4 29 4.4152 1.7760
-24 4 29 -21.6078 -0.7851
-22 4 29 11.6454 -1.0526
-20 4 29 -2.6041 2.6108
-18 4 29 -18.5100 1.7808
-16 4 29 6.7498 -4.1078
-14 4 29 -3.3863 -3.1948
-12 4 29 9.4519 3.8725
-10 4 29 -5.7701 3.3700
-8 4 29 1.0500 -5.0559
-6 4 29 15.5536 -5.3568
-4 4 29 10.6192 1.8989
-2 4 29 5.2824 2.1843
0 4 29 27.9518 -1.9316
2 4 29 8.7368 1.4654
4 4 29 -16.1228 5.7616
6 4 29 -18.1947 -0.8205
8 4 29 -7.1349 -6.8054
10 4 29 14.8813 0.1090
12 4 29 -6.4927 7.7115
14 4 29 -0.8732 3.0560
16 4 29 -0.5150 -3.7434
18 4 29 0.9078 -2.0713
20 4 29 -11.2685 0.2434
22 4 29 4.2282 -0.6032
24 4 29 -10.4332 1.5594
26 4 29 2.3890 4.1894
-29 5 29 -8.1049 1.5026
-27 5 29 -5.6564 2.1282
-25 5 29 2.6778 -3.1406
-23 5 29 -0.3658 -0.9258
-21 5 29 -10.7029 2.6562
-19 5 29 -7.0931 0.9815
-17 5 29 -7.0614 -2.8991
-15 5 29 -27.8100 -0.5488
-13 5 29 -13.0235 1.5817
-11 5 29 -4.5087 -1.1793
-9 5 29 -5.0964 -0.5235
-7 5 29 -8.0505 3.7098
-5 5 29 38.0759 2.4049
-3 5 29 5.4278 -3.2052
-1 5 29 -17.3029 -2.4207
1 5 29 20.6220 2.7966
3 5 29 6.0419 2.5977
5 5 29 -30.3590 -0.1080
7 5 29 18.1262 -0.1328
9 5 29 -5.9530 -0.9236
11 5 29 -3.0116 -3.1210
13 5 29 -6.5853 -1.9437
15 5 29 9.1936 2.8963
17 5 29 3.6529 2.1279
19 5 29 -4.5899 -1.5409
21 5 29 -3.3316 -1.6816
23 5 29 5.4831 -0.1601
25 5 29 2.8529 1.5922
27 5 29 4.5673 0.5430
-28 6 29 -2.4987 0.6346
-26 6 29 10.8854 -3.2067
-24 6 29 -8.2821 0.6680
-22 6 29 9.4440 2.0841
-20 6 29 -1.8847 -2.1195
-18 6 29 -25.5754 -4.5221
-16 6 29 -15.5197 1.2130
-14 6 29 -16.5255 2.9275
-12 6 29 27.8397 -3.8635
-10 6 29 4.7107 -4.3346
-8 6 29 -0.3929 3.3461
-6 6 29 7.9163 2.1864
-4 6 29 -25.6988 -5.0505
-2 6 29 -9.5320 -1.2361
0 6 29 27.1787 7.3617
2 6 29 -12.5022 3.2460
4 6 29 -2.5550 -5.3876
6 6 29 -22.4218 -2.3116
8 6 29 -1.0612 4.6591
10 6 29 2.5930 2.4539
12 6 29 1.3192 -1.4936
14 6 29 -9.4131 0.6643
16 6 29 -9.5443 2.3279
18 6 29 9.9097 -1.6354
20 6 29 4.9534 -2.6720
22 6 29 12.5572 3.1086
24 6 29 0.1052 3.5764
26 6 29 -4.5646 0.1332
-29 7 29 5.1709 -0.7573
-27 7 29 -11.9060 -3.0556
-25 7 29 -3.1132 -1.0922
-23 7 29 -10.0812 3.0246
-21 7 29 2.6461 2.2431
-19 7 29 10.1643 -0.9804
-17 7 29 0.6446 -1.0414
-15 7 29 -3.7355 1.7517
-13 7 29 1.3988 0.2195
-11 7 29 -20.7682 -0.7763
-9 7 29 -19.5321 3.7010
-7 7 29 -8.8729 4.6783
-5 7 29 9.5767 -2.7824
-3 7 29 8.9239 -6.5441
-1 7 29 -26.9823 0.4741
1 7 29 3.9877 6.4094
3 7 29 -0.7922 2.2669
5 7 29 -37.0847 -3.0556
7 7 29 7.2613 -3.3256
9 7 29 2.8317 -2.2562
11 7 29 -4.1609 -1.5779
13 7 29 -16.6612 1.1939
15 7 29 1.1590 3.9662
17 7 29 -16.9911 1.3519
19 7 29 -4.2287 -4.3049
21 7 29 -8.2564 -3.7756
23 7 29 6.4151 2.1313
25 7 29 3.6364 5.7984
-28 8 29 -5.5584 1.0100
-26 8 29 5.9480 -0.2583
-24 8 29 -9.5014 -0.1023
-22 8 29 -5.4499 -0.4290
-20 8 29 4.1451 0.1537
-18 8 29 -12.0908 0.7770
-16 8 29 -10.4548 0.6889
-14 8 29 -16.7609 -1.3749
-12 8 29 1.6172 -1.7625
-10 8 29 9.8630 0.6065
-8 8 29 -12.4452 1.1371
-6 8 29 -0.2417 -0.7556
-4 8 29 12.4246 -0.6762
-2 8 29 -9.6414 0.1858
0 8 29 -0.1210 -1.7142
2 8 29 22.0105 -2.5036
4 8 29 11.2016 0.7255
6 8 29 9.2157 2.3814
8 8 29 -6.8019 -0.0753
10 8 29 -4.4013 -1.8566
12 8 29 -16.4811 -0.1640
14 8 29 7.7675 0.2040
16 8 29 19.4686 0.2338
18 8 29 1.6992 0.8334
20 8 29 3.6400 2.1162
22 8 29 7.4057 1.1600
24 8 29 -4.2958 -1.1924
26 8 29 -5.7331 -1.0206
-29 9 29 2.1458 4.2304
-27 9 29 -13.5510 0.9486
-25 9 29 -2.7265 -1.5282
-23 9 29 3.8635 -1.5106
-21 9 29 -0.5429 1.8633
-19 9 29 10.6480 0.5180
-17 9 29 1.6550 -2.6676
-15 9 29 -11.9637 -0.7388
-13 9 29 20.3263 1.0741
-11 9 29 1.7093 0.2452
-9 9 29 0.1239 -0.7017
-7 9 29 4.3715 0.8850
-5 9 29 5.8645 0.7485
-3 9 29 4.8652 -0.0497
-1 9 29 -6.4319 0.7140
1 9 29 -1.3979 1.9248
3 9 29 1.9611 0.3941
5 9 29 -5.4513 -1.1287
7 9 29 -1.2633 -0.9772
9 9 29 19.9889 -0.5053
11 9 29 -3.5128 0.0081
13 9 29 0.5969 1.0136
15 9 29 -3.2590 0.5825
17 9 29 -2.1918 -1.5516
19 9 29 -2.5164 -1.2371
21 9 29 -9.4041 1.9690
23 9 29 15.6113 1.8625
25 9 29 5.3257 1.9279
-28 10 29 -9.0339 -0.2241
-26 10 29 8.8455 -0.9152
-24 10 29 1.1045 0.7258
-22 10 29 -4.7832 2.6350
-20 10 29 4.1015 0.6798
-18 10 29 6.1964 -1.5429
-16 10 29 -2.3225 2.2079
-14 10 29 6.1676 3.1487
-12 10 29 3.9562 -1.4986
-10 10 29 4.4023 -2.2124
-8 10 29 0.0890 2.6414
-6 10 29 2.4869 1.9985
-4 10 29 11.0428 -3.4639
-2 10 29 -2.5816 -2.7920
0 10 29 -0.4407 0.8320
2 10 29 11.7573 -0.1747
4 10 29 -8.0855 -2.9783
6 10 29 -16.7634 -0.6510
8 10 29 -8.6173 2.4620
10 10 29 15.0163 -0.6123
12 10 29 -7.5960 -2.6378
14 10 29 0.2653 0.5896
16 10 29 4.5808 2.6748
18 10 29 -4.3615 0.2659
20 10 29 5.7548 -1.1670
22 10 29 4.8869 0.7624
24 10 29 -3.4564 0.3571
26 10 29 -5.2633 0.1147
-27 11 29 -7.9655 -3.4732
-25 11 29 -10.5655 -1.0205
-23 11 29 9.8214 2.5536
-21 11 29 -7.1033 0.1315
-19 11 29 7.6480 -4.0025
-17 11 29 4.0377 0.2632
-15 11 29 -17.6104 3.6676
-13 11 29 7.7800 -1.5977
-11 11 29 -5.3440 -5.0600
-9 11 29 -13.3598 0.1522
-7 11 29 3.5965 3.7791
-5 11 29 25.0034 -0.5522
-3 11 29 -16.1359 -2.1036
-1 11 29 -14.8935 2.0088
1 11 29 9.8318 1.8941
3 11 29 13.7800 -3.3940
5 11 29 4.8201 -2.6016
7 11 29 -4.7939 3.7640
9 11 29 5.0003 4.0998
11 11 29 5.3892 -2.2114
13 11 29 8.1178 -4.6659
15 11 29 -2.9010 -0.4517
17 11 29 4.5385 1.6134
19 11 29 3.4207 0.1475
21 11 29 -9.3977 0.4440
23 11 29 4.5757 2.1169
25 11 29 3.2691 0.5266
-26 12 29 -0.4452 -0.0822
-24 12 29 -2.3407 2.4162
-22 12 29 2.5268 0.3430
-20 12 29 1.5014 -2.2325
-18 12 29 3.3345 0.1375
-16 12 29 -5.7249 3.9627
-14 12 29 -3.4060 1.3457
-12 12 29 2.6150 -1.9788
-10 12 29 -0.8695 -0.0980
-8 12 29 26.2312 2.6251
-6 12 29 3.2677 0.8308
-4 12 29 23.5911 -1.5239
-2 12 29 27.7827 0.6279
0 12 29 -5.0849 1.7276
2 12 29 -13.9592 -1.3465
4 12 29 -3.9723 -3.5358
6 12 29 -7.5956 -1.1107
8 12 29 4.2392 1.8213
10 12 29 3.2652 0.8540
12 12 29 -1.2374 -1.9498
14 12 29 -18.6088 -0.7634
16 12 29 10.1746 1.3316
18 12 29 3.9572 0.0202
20 12 29 -4.4574 -0.4173
22 12 29 4.0361 0.6804
24 12 29 -0.5411 0.2182
-27 13 29 -1.2078 1.9064
-25 13 29 -2.7304 2.3407
-23 13 29 0.5037 0.3493
-21 13 29 -8.8690 -1.0056
-19 13 29 7.4299 -0.0193
-17 13 29 9.0390 0.9885
-15 13 29 -2.2189 -0.4178
-13 13 29 -0.6180 -0.2097
-11 13 29 8.0908 1.1200
-9 13 29 -5.8897 -0.2548
-7 13 29 7.2960 -2.4122
-5 13 29 -7.8873 -1.4057
-3 13 29 1.7574 1.9733
-1 13 29 -13.6086 0.9964
1 13 29 -4.5668 -1.8848
3 13 29 4.2254 -1.2895
5 13 29 2.0967 0.8387
7 13 29 6.9775 0.5952
9 13 29 8.3186 0.1375
11 13 29 4.3229 1.2016
13 13 29 8.6598 0.9420
15 13 29 -10.7306 -1.0072
17 13 29 -11.9051 -1.2270
19 13 29 7.1189 0.5669
21 13 29 -2.7545 1.0269
23 13 29 1.9434 0.9995
-26 14 29 -16.7966 0.5432
-24 14 29 -3.7641 -0.8251
-22 14 29 21.6817 0.6908
-20 14 29 5.1967 0.6221
-18 14 29 2.6026 0.1330
-16 14 29 -2.5465 -0.6884
-14 14 29 -9.3987 0.1387
-12 14 29 1.2541 0.6366
-10 14 29 -7.2737 -0.0116
-8 14 29 15.3930 -0.2168
-6 14 29 6.6321 0.7955
-4 14 29 -3.2502 0.6730
-2 14 29 0.9615 -0.4746
0 14 29 -0.4757 -0.2749
2 14 29 -10.7170 0.0300
4 14 29 -3.0237 0.3645
6 14 29 -1.7446 -0.3323
8 14 29 4.4850 -0.8272
10 14 29 4.4521 0.0986
12 14 29 -1.9968 0.6897
14 14 29 -33.4055 -0.5637
16 14 29 10.2264 -1.1027
18 14 29 5.2446 -0.9443
20 14 29 -6.6258 0.4910
22 14 29 -6.7422 -0.5178
24 14 29 -1.4157 -2.1509
-25 15 29 -6.5346 -0.7963
-23 15 29 3.7651 0.4443
-21 15 29 6.0726 -0.6246
-19 15 29 1.5746 -0.5671
-17 15 29 6.4091 0.7273
-15 15 29 25.5966 0.8656
-13 15 29 7.6607 -0.5753
-11 15 29 3.6926 -1.1281
-9 15 29 -11.2236 -0.5419
-7 15 29 3.4656 -0.7396
-5 15 29 -12.9365 -1.0536
-3 15 29 11.5961 -0.1319
-1 15 29 -7.1342 1.1696
1 15 29 0.8194 -0.1289
3 15 29 -6.7712 -0.9860
5 15 29 -2.2438 0.9162
7 15 29 -1.4104 1.4242
9 15 29 5.3849 -0.0747
11 15 29 -6.0347 -0.1482
13 15 29 2.8087 1.7539
15 15 29 -3.5389 0.8336
17 15 29 -8.0793 -1.6835
19 15 29 -9.4534 -0.8345
21 15 29 2.4731 -0.1260
23 15 29 2.2159 -0.1599
-24 16 29 -2.3763 1.9457
-22 16 29 8.6563 1.5217
-20 16 29 -0.8992 -2.2147
-18 16 29 -4.1066 -0.9706
-16 16 29 -0.3894 0.8839
-14 16 29 -12.0646 0.1035
-12 16 29 13.9216 -1.2758
-10 16 29 14.2447 0.6400
-8 16 29 8.0495 2.8637
-6 16 29 -12.4456 0.2494
-4 16 29 -1.5115 -2.5035
-2 16 29 2.1948 0.0052
0 16 29 7.1465 3.2802
2 16 29 3.4709 0.9005
4 16 29 6.3791 -1.8253
6 16 29 11.0991 0.2970
8 16 29 -8.5994 1.3923
10 16 29 -12.3070 -1.0273
12 16 29 0.3145 -2.0249
14 16 29 1.6811 0.9874
16 16 29 0.2762 1.3560
18 16 29 -11.1458 -1.5727
20 16 29 -6.1071 -1.9182
22 16 29 -0.2497 0.8919
-25 17 29 -10.6446 -1.1525
-23 17 29 10.4587 0.9704
-21 17 29 -1.8692 -0.9494
-19 17 29 5.0721 1.1590
-17 17 29 -4.8481 2.0070
-15 17 29 8.4638 -0.2207
-13 17 29 -4.3764 -2.6367
-11 17 29 -0.8149 -1.3452
-9 17 29 -9.9251 2.1873
-7 17 29 4.2501 1.1427
-5 17 29 -0.2407 -1.6976
-3 17 29 -11.5635 -1.5378
-1 17 29 9.3461 -0.2406
1 17 29 9.2945 -0.4671
3 17 29 -10.2095 0.1324
5 17 29 -18.4864 1.3659
7 17 29 -13.8646 1.3038
9 17 29 31.5167 -0.6650
11 17 29 11.6872 -1.4310
13 17 29 1.9530 0.4859
15 17 29 -8.0427 1.6796
17 17 29 7.7558 0.0529
19 17 29 -10.6870 -0.3029
21 17 29 9.1578 -2.6674
-24 18 29 -4.0182 0.4825
-22 18 29 12.6803 -1.5541
-20 18 29 7.3124 -1.0217
-18 18 29 -5.6045 0.0786
-16 18 29 12.3387 0.6233
-14 18 29 -3.9751 0.4226
-12 18 29 -4.2706 -0.4790
-10 18 29 8.4888 -0.5911
-8 18 29 11.7102 0.0061
-6 18 29 1.8093 0.1815
-4 18 29 11.0758 0.9587
-2 18 29 8.1912 1.7329
0 18 29 8.0021 0.4881
2 18 29 6.9963 -1.1468
4 18 29 9.7027 -0.2583
6 18 29 6.7444 1.8860
8 18 29 -14.5105 0.7725
10 18 29 -11.3643 -0.7206
12 18 29 0.4865 -0.9149
14 18 29 -2.6658 -0.4756
16 18 29 -4.5303 -0.8324
18 18 29 6.0930 -0.1447
20 18 29 0.8242 0.3017
-23 19 29 10.4486 1.6004
-21 19 29 -12.5065 0.0580
-19 19 29 17.6049 1.2625
-17 19 29 -1.5531 -0.5156
-15 19 29 0.9499 -0.7627
-13 19 29 -1.6546 -0.3504
-11 19 29 10.8499 1.4805
-9 19 29 7.2973 1.0619
-7 19 29 -4.1404 -0.7885
-5 19 29 -27.5671 -1.1285
-3 19 29 -9.2851 0.2677
-1 19 29 -0.8720 -0.2131
1 19 29 9.2025 -1.2173
3 19 29 -17.9081 0.2646
5 19 29 -0.5158 1.5559
7 19 29 -3.3880 -0.3233
9 19 29 7.8484 -1.6055
11 19 29 23.4062 -0.1603
13 19 29 8.9510 0.4741
15 19 29 4.4120 -0.1761
17 19 29 7.7315 -0.9939
19 19 29 -11.8927 2.5185
21 19 29 12.5762 0.5155
-22 20 29 2.8692 -1.4582
-20 20 29 7.1269 -0.3718
-18 20 29 -4.8671 -0.7325
-16 20 29 4.9276 1.2121
-14 20 29 -12.4471 1.0116
-12 20 29 -6.5407 -1.7626
-10 20 29 4.3541 -0.6594
-8 20 29 -0.2232 0.9858
-6 20 29 -1.6596 0.2284
-4 20 29 -0.3354 -0.6095
-2 20 29 -2.4354 0.4824
0 20 29 5.6613 0.7604
2 20 29 0.7364 -1.0224
4 20 29 18.1316 -1.4312
6 20 29 3.4921 0.9611
8 20 29 7.5838 1.9583
10 20 29 -1.8055 -0.6893
12 20 29 5.0549 -1.7026
14 20 29 -12.5734 0.3191
16 20 29 -11.2703 0.4692
18 20 29 1.9105 0.3940
20 20 29 -9.1211 0.6870
-21 21 29 -9.1390 -1.5783
-19 21 29 9.9514 -0.5551
-17 21 29 -3.2512 0.9737
-15 21 29 6.7010 1.3518
-13 21 29 -6.3028 -0.3514
-11 21 29 10.4696 -0.2163
-9 21 29 16.3263 0.6150
-7 21 29 -3.1868 -0.2859
-5 21 29 0.2236 -0.5145
-3 21 29 -15.1657 0.6170
-1 21 29 -39.4159 1.4000
1 21 29 6.6609 0.5025
3 21 29 -7.5596 -1.4717
5 21 29 1.5332 -2.1061
7 21 29 -7.2555 0.5518
9 21 29 -0.3599 2.0334
11 21 29 21.4452 0.2251
13 21 29 3.9041 -1.4332
15 21 29 -0.5519 -1.2495
17 21 29 2.6429 -0.5715
19 21 29 -1.8445 0.7438
-20 22 29 11.7094 0.7839
-18 22 29 5.7556 0.3555
-16 22 29 -3.9026 1.3996
-14 22 29 -23.5032 -0.1210
-12 22 29 -1.3871 -0.2891
-10 22 29 -12.5505 1.7130
-8 22 29 -3.5270 0.9538
-6 22 29 -1.7365 -0.9894
-4 22 29 1.1804 -0.9599
-2 22 29 0.9078 0.8012
0 22 29 23.5454 0.8568
2 22 29 -9.3129 0.4555
4 22 29 10.1519 -0.3360
6 22 29 6.8019 -0.9725
8 22 29 -1.7962 -0.4608
10 22 29 0.5005 -0.1098
12 22 29 12.6305 -0.5674
14 22 29 -7.2816 0.7761
16 22 29 -3.3308 -1.4707
18 22 29 -3.7357 -0.5536
-19 23 29 7.2188 0.3149
-17 23 29 3.5477 0.0662
-15 23 29 9.8397 -1.1191
-13 23 29 -11.7126 0.0332
-11 23 29 3.8499 2.0632
-9 23 29 21.9533 0.2618
-7 23 29 -9.8981 -2.1981
-5 23 29 -0.7835 -0.5482
-3 23 29 -0.5437 1.4722
-1 23 29 0.8066 -0.4186
1 23 29 10.3424 -1.8432
3 23 29 13.3417 -0.5714
5 23 29 4.0044 0.6701
7 23 29 -2.2174 -1.4124
9 23 29 3.2104 -1.7020
11 23 29 3.6377 0.4901
13 23 29 20.5179 0.8299
15 23 29 12.7497 -1.0275
17 23 29 -3.8561 -1.1246
-18 24 29 0.4828 -0.4148
-16 24 29 -6.7220 -1.0952
-14 24 29 -4.1864 -0.6158
-12 24 29 13.7874 1.6082
-10 24 29 -12.0957 0.7576
-8 24 29 -8.2254 -1.4932
-6 24 29 -1.9927 -0.7537
-4 24 29 -1.7146 0.9977
-2 24 29 -3.8080 0.1715
0 24 29 6.8515 -1.1575
2 24 29 4.6300 0.6184
4 24 29 -2.7793 1.6931
6 24 29 -7.7092 -0.3188
8 24 29 -3.9538 -0.9929
10 24 29 1.7771 -0.0244
12 24 29 -0.7124 0.7966
14 24 29 -1.4267 0.9635
-15 25 29 15.6529 0.8523
-13 25 29 -2.4066 1.2908
-11 25 29 -10.4235 1.1838
-9 25 29 -1.9749 0.4391
-7 25 29 5.6496 0.0568
-5 25 29 1.2114 1.1148
-3 25 29 -6.5348 0.8334
-1 25 29 11.7223 -0.4776
1 25 29 -10.1565 -0.5102
3 25 29 -14.0063 0.4409
5 25 29 7.4157 -0.3777
7 25 29 -8.2897 -1.5920
9 25 29 -1.1406 -0.4084
11 25 29 0.2278 0.2542
13 25 29 -7.6515 -1.5319
-14 26 29 -6.3059 -0.1647
-12 26 29 6.0523 -0.4044
-10 26 29 -10.9570 0.1397
-8 26 29 0.6584 -0.9603
-6 26 29 -28.7431 -0.1302
-4 26 29 -5.8091 0.4628
-2 26 29 7.9852 -0.0847
0 26 29 -5.9138 0.0635
2 26 29 0.2909 0.3761
4 26 29 -20.9035 0.6386
6 26 29 -17.1608 0.0548
8 26 29 -14.1454 -0.2626
10 26 29 3.1766 -0.0332
12 26 29 1.5113 -0.8599
-13 27 29 -2.3381 0.0316
-11 27 29 -7.5124 1.2594
-9 27 29 -1.5456 0.2624
-7 27 29 3.4176 -0.4740
-5 27 29 5.8962 1.1655
-3 27 29 -9.4989 0.6575
-1 27 29 1.9053 -1.3842
1 27 29 -4.0802 -0.7605
3 27 29 -13.3531 0.7252
5 27 29 8.9286 0.2478
7 27 29 5.4025 -0.9397
9 27 29 6.1476 -0.9786
-10 28 29 -14.4702 0.3463
-8 28 29 10.3664 -2.6259
-6 28 29 0.6716 -0.8219
-4 28 29 0.8689 2.9347
-2 28 29 -4.7740 0.9259
0 28 29 6.7533 -2.0441
2 28 29 -3.6111 0.0706
4 28 29 -3.0065 1.1357
6 28 29 -2.6411 1.1812
8 28 29 -4.5679 0.3446
-7 29 29 -10.2303 -0.5931
-5 29 29 1.8061 1.1716
-3 29 29 11.3811 1.8979
-1 29 29 11.6141 0.0868
1 29 29 0.8690 -0.9851
3 29 29 7.8301 -0.0229
-28 0 30 -1.7140 -1.6301
-26 0 30 5.6090 6.8450
-24 0 30 5.3264 3.0031
-22 0 30 11.7172 -4.3079
-20 0 30 -3.7718 1.8844
-18 0 30 0.7274 7.5930
-16 0 30 24.6444 -0.5406
-14 0 30 -8.9918 -4.2488
-12 0 30 -27.4296 8.7234
-10 0 30 -0.7095 11.2906
-8 0 30 21.6917 -9.2499
-6 0 30 3.0567 -18.8529
-4 0 30 -21.4036 -4.1378
-2 0 30 7.5844 4.4535
0 0 30 -21.0766 -7.1097
2 0 30 10.6468 -12.8703
4 0 30 11.8469 -2.0181
6 0 30 -4.2578 -1.8824
8 0 30 4.8777 -9.8201
10 0 30 26.5940 0.9886
12 0 30 -13.7469 16.3480
14 0 30 12.1695 7.3407
16 0 30 -4.9556 -9.1673
18 0 30 -0.0785 -3.6112
20 0 30 -17.5825 8.6943
22 0 30 -11.7003 3.9716
24 0 30 3.2505 -2.5151
26 0 30 4.5676 1.8678
-29 1 30 14.9376 -1.4586
-27 1 30 6.3610 6.9674
-25 1 30 -2.6986 4.1027
-23 1 30 -8.0026 -9.9938
-21 1 30 13.5005 -3.8385
-19 1 30 -22.4761 14.0463
-17 1 30 20.5182 4.1505
-15 1 30 4.1318 -17.4174
-13 1 30 14.0905 -5.9995
-11 1 30 16.3281 14.6339
-9 1 30 -6.7439 -2.3314
-7 1 30 17.5952 -19.2583
-5 1 30 23.0187 4.5701
-3 1 30 -0.4774 17.4923
-1 1 30 29.9692 -12.2990
1 1 30 18.4365 -23.1341
3 1 30 -9.2540 11.5323
5 1 30 -0.5624 22.8034
7 1 30 1.6838 -8.5267
9 1 30 -3.4291 -16.5285
11 1 30 -7.3850 7.9292
13 1 30 0.0879 10.2841
15 1 30 -3.4852 -7.4338
17 1 30 -8.0753 -3.6438
19 1 30 -8.6170 11.3459
21 1 30 4.3101 3.7917
23 1 30 -10.1166 -10.9615
25 1 30 -1.4465 -4.8075
27 1 30 -2.2443 7.9896
-28 2 30 -7.7123 -0.5917
-26 2 30 -2.1975 0.3015
-24 2 30 -0.5298 0.3140
-22 2 30 -4.4941 0.7375
-20 2 30 -12.9194 0.3226
-18 2 30 -6.1733 -0.6289
-16 2 30 3.6384 2.2768
-14 2 30 -12.5932 3.7312
-12 2 30 -5.3565 1.9486
-10 2 30 -6.9607 -0.4366
-8 2 30 6.9754 -0.7215
-6 2 30 6.7972 -0.1164
-4 2 30 -9.3793 -0.7944
-2 2 30 -10.2050 -0.2001
0 2 30 0.7612 -0.0062
2 2 30 13.5220 -2.4748
4 2 30 2.4080 -4.7260
6 2 30 2.8617 -2.3528
8 2 30 -8.3998 2.2728
10 2 30 1.8884 2.7353
12 2 30 -7.4671 -0.5121
14 2 30 -12.5300 -1.8392
16 2 30 -15.8614 -1.1208
18 2 30 6.4255 -0.4128
20 2 30 -10.0342 1.2054
22 2 30 0.6947 1.0556
24 2 30 -1.5331 0.2492
26 2 30 10.6329 -2.7682
-29 3 30 -6.0523 1.2022
-27 3 30 -4.7341 -0.4592
-25 3 30 11.0522 1.8695
-23 3 30 -5.3060 -0.5829
-21 3 30 11.4882 -0.8155
-19 3 30 -17.7689 2.3058
-17 3 30 3.7624 1.7720
-15 3 30 6.1092 -3.0568
-13 3 30 -6.0982 -3.7777
-11 3 30 8.0655 1.3693
-9 3 30 36.0254 1.6852
-7 3 30 -5.5840 -1.4632
-5 3 30 15.1636 -1.8349
-3 3 30 8.1153 -1.4776
-1 3 30 -3.3318 -3.7409
1 3 30 8.6741 -1.7468
3 3 30 -6.3881 5.0154
5 3 30 -20.7837 5.3704
7 3 30 4.4368 -2.2132
9 3 30 20.3865 -5.2258
11 3 30 -21.1043 -0.5602
13 3 30 3.2757 3.1950
15 3 30 8.8097 3.6844
17 3 30 2.1248 2.2249
19 3 30 -10.3598 -0.4003
21 3 30 -26.9006 -4.4370
23 3 30 -4.4280 -3.3799
25 3 30 -2.1498 2.5874
-28 4 30 3.5191 -0.5828
-26 4 30 -7.3381 2.6247
-24 4 30 -3.9814 -0.4208
-22 4 30 -9.1125 -3.4025
-20 4 30 5.0828 0.5277
-18 4 30 2.1954 4.3541
-16 4 30 -5.4935 -0.3813
-14 4 30 -13.1457 -4.8917
-12 4 30 21.8326 -0.4216
-10 4 30 -4.2506 3.0337
-8 4 30 -10.6853 -0.8969
-6 4 30 6.6529 -0.7781
-4 4 30 -7.1605 3.5948
-2 4 30 -3.4676 0.6255
0 4 30 30.2437 -6.2071
2 4 30 9.9632 -2.2224
4 4 30 -21.7852 5.7366
6 4 30 -6.7813 3.0223
8 4 30 -9.7240 -3.7241
10 4 30 -3.4876 -3.2382
12 4 30 25.6847 -0.3349
14 4 30 -16.8755 0.0274
16 4 30 -1.1018 0.6318
18 4 30 9.5355 2.4190
20 4 30 6.8649 1.4414
22 4 30 6.1392 -3.2882
24 4 30 -4.9435 -1.8040
26 4 30 6.8230 -0.3611
-29 5 30 -0.2424 1.3152
-27 5 30 -11.6328 2.9345
-25 5 30 7.2383 1.3658
-23 5 30 0.7134 -5.9701
-21 5 30 17.7724 -1.8767
-19 5 30 -3.5784 6.4348
-17 5 30 -16.0222 1.4239
-15 5 30 4.0967 -7.6319
-13 5 30 -9.6682 -0.3056
-11 5 30 -5.3055 8.6688
-9 5 30 29.3992 -1.3013
-7 5 30 -5.7902 -9.1112
-5 5 30 -0.4058 3.2313
-3 5 30 23.9638 10.3071
-1 5 30 -17.7081 -3.9078
1 5 30 -10.8479 -9.4081
3 5 30 9.7739 5.0447
5 5 30 9.2217 8.6082
7 5 30 8.5265 -4.7314
9 5 30 16.8444 -6.2825
11 5 30 -30.4511 6.1628
13 5 30 -12.9394 5.6786
15 5 30 0.2865 -5.8965
17 5 30 2.2989 -4.6832
19 5 30 2.3651 3.9733
21 5 30 -5.3884 2.7006
23 5 30 15.5580 -2.0616
25 5 30 7.1054 -2.2464
-28 6 30 8.8924 2.8798
-26 6 30 -10.2369 1.4958
-24 6 30 2.3113 -2.3235
-22 6 30 -15.8811 -0.2725
-20 6 30 11.2850 3.0730
-18 6 30 10.8224 0.3607
-16 6 30 -8.2386 -3.2593
-14 6 30 -21.4450 -0.7010
-12 6 30 4.1582 1.9506
-10 6 30 8.8844 0.0415
-8 6 30 2.6889 -0.6273
-6 6 30 3.0182 1.3131
-4 6 30 5.4492 1.4203
-2 6 30 -7.7174 -1.6064
0 6 30 2.2255 -1.4851
2 6 30 18.6793 1.9290
4 6 30 -3.0235 3.5318
6 6 30 14.5301 1.1599
8 6 30 2.3015 -2.9184
10 6 30 -4.0080 -3.6703
12 6 30 -13.4134 -0.4760
14 6 30 -18.9596 2.7848
16 6 30 3.4956 1.6295
18 6 30 -6.3435 -1.4827
20 6 30 -12.3539 -2.2008
22 6 30 -16.1369 -2.8750
24 6 30 4.6573 -0.1048
26 6 30 6.1847 1.3941
-27 7 30 -5.3939 0.6866
-25 7 30 4.9184 -1.5452
-23 7 30 -3.6823 0.7597
-21 7 30 4.3515 1.6333
-19 7 30 -2.7074 -0.4930
-17 7 30 5.2978 -1.4497
-15 7 30 -1.7257 1.0963
-13 7 30 -6.9003 1.2148
-11 7 30 -0.2486 -2.1680
-9 7 30 -4.1230 -1.7021
-7 7 30 -7.0138 0.8460
-5 7 30 -14.4199 1.1330
-3 7 30 6.1650 -0.5777
-1 7 30 -0.1895 0.2942
1 7 30 -2.8632 0.7009
3 7 30 2.1888 -1.7197
5 7 30 -1.0002 -2.4294
7 7 30 -7.1717 1.8839
9 7 30 9.4441 4.2614
11 7 30 15.6264 0.2730
13 7 30 18.3275 -3.1586
15 7 30 -2.2174 -1.6042
17 7 30 5.0757 0.3287
19 7 30 -2.8778 0.9585
21 7 30 -4.3807 0.9726
23 7 30 -1.7069 0.3520
25 7 30 0.2139 -1.8457
-28 8 30 -0.5535 -1.0695
-26 8 30 -3.1033 -1.4262
-24 8 30 -0.4002 -0.0269
-22 8 30 9.7838 0.3078
-20 8 30 -0.7071 -3.4231
-18 8 30 2.2368 -3.0369
-16 8 30 -2.6398 1.1670
-14 8 30 -12.7948 2.4112
-12 8 30 2.8971 -2.0779
-10 8 30 19.6811 -2.4358
-8 8 30 13.8765 2.0924
-6 8 30 -5.1247 2.0619
-4 8 30 15.4027 -0.8613
-2 8 30 2.1363 0.9399
0 8 30 -10.2544 5.4454
2 8 30 17.0257 3.0716
4 8 30 18.1211 -3.1734
6 8 30 6.0118 -2.5524
8 8 30 -1.4679 3.0928
10 8 30 4.5597 3.5391
12 8 30 -16.1957 -1.6368
14 8 30 6.1004 -1.8762
16 8 30 2.1872 0.3958
18 8 30 5.2999 -0.8204
20 8 30 -7.9411 -2.0635
22 8 30 -2.2550 0.7348
24 8 30 8.8430 5.0082
26 8 30 -0.4257 1.7352
-27 9 30 -3.1841 0.6986
-25 9 30 1.3353 1.4850
-23 9 30 2.9969 0.8133
-21 9 30 0.6690 -0.2281
-19 9 30 8.0587 1.3945
-17 9 30 12.4773 0.3258
-15 9 30 5.6395 -0.9655
-13 9 30 4.7815 1.4776
-11 9 30 5.0189 3.5269
-9 9 30 9.3065 0.5780
-7 9 30 -7.6089 -3.0429
-5 9 30 18.1488 -0.6881
-3 9 30 1.1023 2.2766
-1 9 30 -18.7190 -0.3662
1 9 30 9.6805 -2.0461
3 9 30 -11.6001 0.1749
5 9 30 2.8662 0.2203
7 9 30 4.2894 -3.4501
9 9 30 3.9294 -1.8279
11 9 30 6.8735 2.1969
13 9 30 8.4925 0.5341
15 9 30 -19.9612 -2.0585
17 9 30 8.5775 -0.8445
19 9 30 -1.6082 1.7543
21 9 30 -5.9306 0.1033
23 9 30 -7.3164 -0.7434
25 9 30 -4.7567 -0.1956
-28 10 30 7.7078 0.9825
-26 10 30 6.4197 0.0814
-24 10 30 -3.7789 -2.1530
-22 10 30 13.6971 -0.5808
-20 10 30 -11.7017 1.2497
-18 10 30 -10.7015 -0.1029
-16 10 30 -3.6062 -3.2306
-14 10 30 -15.5199 -0.8179
-12 10 30 2.5693 1.9872
-10 10 30 8.5973 -0.2616
-8 10 30 23.2969 -3.5856
-6 10 30 3.8139 -1.5543
-4 10 30 -6.3217 3.3321
-2 10 30 -0.3828 2.2683
0 10 30 -11.7486 -1.6649
2 10 30 -6.3171 -0.6864
4 10 30 -0.3781 1.2176
6 10 30 -3.0607 -0.1230
8 10 30 19.8935 -0.7438
10 10 30 8.6382 2.3373
12 10 30 8.2967 2.5987
14 10 30 -1.8382 -2.0149
16 10 30 -12.6558 -4.4844
18 10 30 4.6647 -0.3646
20 10 30 -3.7584 2.4981
22 10 30 -5.9863 1.1498
24 10 30 -2.9533 0.6556
-27 11 30 -3.5276 1.0530
-25 11 30 -5.1517 -0.9424
-23 11 30 5.9152 -1.3142
-21 11 30 4.0237 0.2329
-19 11 30 1.4704 -0.2107
-17 11 30 1.5375 -1.7534
-15 11 30 -0.2952 0.3086
-13 11 30 -14.7043 2.8019
-11 11 30 7.1176 1.7479
-9 11 30 8.3599 -0.3770
-7 11 30 -23.5667 -0.5787
-5 11 30 1.8840 0.4769
-3 11 30 16.9655 0.8481
-1 11 30 -4.9912 0.4626
1 11 30 2.6338 0.6926
3 11 30 -6.7550 0.0968
5 11 30 -4.8549 -1.6530
7 11 30 -8.7008 -2.3599
9 11 30 3.9575 -0.8215
11 11 30 4.5409 1.1663
13 11 30 14.6250 0.8534
15 11 30 -13.8745 -0.0828
17 11 30 3.9175 -0.1870
19 11 30 2.5922 -0.5381
21 11 30 -6.0757 0.2581
23 11 30 -8.8849 0.6248
-26 12 30 -8.4849 -1.0149
-24 12 30 -0.8650 0.8173
-22 12 30 2.3278 1.7988
-20 12 30 2.0345 1.0534
-18 12 30 -3.3295 -1.6945
-16 12 30 10.8547 -0.1501
-14 12 30 9.7300 1.5459
-12 12 30 3.2834 0.4963
-10 12 30 -1.3009 -0.8589
-8 12 30 -3.1065 0.2741
-6 12 30 -4.7539 0.7012
-4 12 30 -15.2377 -1.7409
-2 12 30 3.8249 -2.6768
0 12 30 -6.0595 0.0279
2 12 30 -3.4808 1.4982
4 12 30 10.3137 -0.6377
6 12 30 7.1882 -1.4830
8 12 30 3.4170 0.6686
10 12 30 -13.3989 1.1434
12 12 30 -15.1555 -0.6592
14 12 30 -22.2832 -0.6446
16 12 30 -14.8963 2.4232
18 12 30 -0.2866 2.7122
20 12 30 0.0001 -0.6023
22 12 30 5.1116 -1.2332
24 12 30 10.6933 3.0275
-25 13 30 0.7643 -0.5970
-23 13 30 10.2406 0.1168
-21 13 30 18.3630 -0.5814
-19 13 30 -2.5595 -0.7221
-17 13 30 -2.6990 0.5956
-15 13 30 3.6349 1.2112
-13 13 30 -6.5448 -0.9971
-11 13 30 3.5709 -1.5946
-9 13 30 1.2166 0.4303
-7 13 30 2.3007 1.9169
-5 13 30 0.0357 1.2080
-3 13 30 11.7353 -1.0074
-1 13 30 -31.6199 -1.3185
1 13 30 -9.0390 0.2630
3 13 30 -16.1383 0.4966
5 13 30 3.0300 -0.2545
7 13 30 12.1421 -0.5120
9 13 30 7.5212 0.1066
11 13 30 -6.7982 -0.4064
13 13 30 -0.1884 -1.3989
15 13 30 -6.3193 -0.6215
17 13 30 2.1935 2.2204
19 13 30 -0.8083 0.7717
21 13 30 3.0620 -0.4753
23 13 30 -6.7545 -1.9112
-26 14 30 -1.1747 1.5900
-24 14 30 -1.3144 -1.4530
-22 14 30 -0.8607 -1.1875
-20 14 30 7.4686 1.0536
-18 14 30 -3.1192 0.0937
-16 14 30 -0.4440 -1.1722
-14 14 30 -1.9680 -0.8722
-12 14 30 13.9928 1.1005
-10 14 30 11.1216 0.0754
-8 14 30 -19.0525 -1.2038
-6 14 30 -9.0511 -0.4455
-4 14 30 -4.3476 0.6083
-2 14 30 5.6359 -0.6628
0 14 30 12.2774 -1.5856
2 14 30 5.7158 -0.4325
4 14 30 17.5786 0.9230
6 14 30 -6.6383 0.3717
8 14 30 -8.2197 -0.5374
10 14 30 -9.1730 -0.7118
12 14 30 4.2291 -0.2816
14 14 30 2.0210 0.4189
16 14 30 -15.5909 1.5403
18 14 30 -9.3646 0.7861
20 14 30 -4.9323 -0.6086
22 14 30 -4.0771 -0.3609
-25 15 30 -0.4614 0.9876
-23 15 30 1.7319 -1.3135
-21 15 30 -0.8504 1.2601
-19 15 30 0.0120 1.1332
-17 15 30 -3.0558 -0.0895
-15 15 30 7.0133 -0.5135
-13 15 30 1.0868 0.2905
-11 15 30 1.8319 0.3995
-9 15 30 8.8359 -0.2850
-7 15 30 -7.4452 1.0029
-5 15 30 -10.1456 1.7420
-3 15 30 9.5307 -0.1170
-1 15 30 2.3790 -1.9577
1 15 30 22.4950 -0.6304
3 15 30 -3.6511 1.0337
5 15 30 9.5473 1.5205
7 15 30 12.8454 0.4334
9 15 30 9.8132 -0.4187
11 15 30 8.3933 -0.4752
13 15 30 -2.6127 -0.7278
15 15 30 -15.0953 0.6324
17 15 30 5.8860 1.5109
19 15 30 11.2786 1.1302
21 15 30 11.9644 0.9526
23 15 30 10.1899 -2.8497
-24 16 30 5.1040 -2.6756
-22 16 30 0.1720 1.6155
-20 16 30 6.9488 2.3012
-18 16 30 -6.2490 -0.9068
-16 16 30 -9.4231 0.1712
-14 16 30 6.3337 1.5160
-12 16 30 12.4692 -0.0279
-10 16 30 7.6375 -2.2116
-8 16 30 -3.2255 0.3553
-6 16 30 0.8267 2.5727
-4 16 30 18.3350 -0.0150
-2 16 30 -5.5136 -1.9064
0 16 30 -0.6775 -0.7977
2 16 30 -0.7298 -0.4700
4 16 30 -7.6964 -0.5645
6 16 30 -24.9633 0.7152
8 16 30 1.4616 0.6542
10 16 30 -0.4759 -0.4785
12 16 30 2.7307 -1.3591
14 16 30 15.7514 0.5872
16 16 30 1.4614 2.1973
18 16 30 -8.7956 1.3574
20 16 30 1.0008 0.2441
22 16 30 2.2761 0.7471
-23 17 30 -1.5228 0.4987
-21 17 30 -3.3685 0.0935
-19 17 30 17.9207 -3.3472
-17 17 30 7.6594 -0.2920
-15 17 30 6.0715 2.0056
-13 17 30 1.3004 -0.0387
-11 17 30 -0.2459 -2.4592
-9 17 30 16.5164 -0.6045
-7 17 30 -9.9877 1.4911
-5 17 30 -11.0548 -0.6241
-3 17 30 -2.4594 -0.6535
-1 17 30 7.1732 1.6260
1 17 30 1.2444 2.1392
3 17 30 -0.3141 -0.7170
5 17 30 14.2145 -1.5741
7 17 30 8.4987 0.9324
9 17 30 -5.5520 1.8484
11 17 30 11.3777 0.2915
13 17 30 8.9647 -1.6271
15 17 30 -9.4616 -0.3013
17 17 30 8.0297 1.5230
19 17 30 8.2803 0.7201
21 17 30 -0.6862 -0.0530
-22 18 30 -10.0919 1.9256
-20 18 30 -2.5006 -1.1219
-18 18 30 -8.9984 -1.1027
-16 18 30 -21.8606 1.4762
-14 18 30 4.9634 0.4504
-12 18 30 11.5175 -1.8595
-10 18 30 4.1060 -0.6969
-8 18 30 1.7873 2.1686
-6 18 30 -3.8333 0.9296
-4 18 30 -3.4581 -2.7228
-2 18 30 -5.2514 -1.6013
0 18 30 -3.4809 1.8241
2 18 30 -8.4104 0.6286
4 18 30 13.2313 -1.3874
6 18 30 2.9580 0.1059
8 18 30 15.0321 1.0593
10 18 30 -9.7159 0.2157
12 18 30 1.7349 -0.4111
14 18 30 1.2264 0.8531
16 18 30 3.8989 1.6709
18 18 30 -1.7924 -1.3735
20 18 30 2.3127 -2.2665
-21 19 30 -8.6711 0.8981
-19 19 30 5.9721 -0.2071
-17 19 30 7.5328 1.1149
-15 19 30 10.0983 0.0268
-13 19 30 -2.0419 -1.3800
-11 19 30 6.6836 -0.3733
-9 19 30 7.2066 0.8500
-7 19 30 -23.9806 0.6001
-5 19 30 0.8501 -0.4627
-3 19 30 5.8372 0.0573
-1 19 30 -7.2338 1.5340
1 19 30 8.8347 0.9719
3 19 30 14.1689 -0.0036
5 19 30 0.1441 0.8006
7 19 30 6.8020 0.5717
9 19 30 7.0938 0.0355
11 19 30 7.4110 -0.2194
13 19 30 -4.0704 0.3445
15 19 30 0.1209 0.1433
17 19 30 -2.0556 -0.1651
19 19 30 4.9539 -0.0676
-20 20 30 5.7618 -0.1646
-18 20 30 1.0529 0.9175
-16 20 30 -14.1600 -0.3296
-14 20 30 -2.3192 0.2452
-12 20 30 -1.9013 1.1764
-10 20 30 -13.0433 0.4996
-8 20 30 10.1923 -0.3045
-6 20 30 -0.1798 -0.4949
-4 20 30 7.9331 0.0175
-2 20 30 -6.6940 0.2763
0 20 30 4.5462 0.1274
2 20 30 -7.2766 0.1216
4 20 30 -0.2164 0.4962
6 20 30 -13.5889 -0.4667
8 20 30 -1.5633 -1.9441
10 20 30 -10.8513 -0.7450
12 20 30 -1.8574 1.5972
14 20 30 -19.3343 1.2956
16 20 30 -0.1746 -0.6192
18 20 30 -7.3908 -0.7382
-19 21 30 -7.1640 -0.4065
-17 21 30 3.4259 -0.6460
-15 21 30 1.0811 -0.3688
-13 21 30 2.6187 -0.6646
-11 21 30 -1.6928 -0.8195
-9 21 30 -5.4592 0.2067
-7 21 30 -6.0696 0.5683
-5 21 30 16.8746 -0.7339
-3 21 30 2.2209 -0.8052
-1 21 30 17.2552 -0.0065
1 21 30 5.9766 0.6739
3 21 30 -3.7969 1.2514
5 21 30 4.7150 0.9257
7 21 30 4.7840 0.0295
9 21 30 -15.4801 -0.6725
11 21 30 -3.6555 0.4442
13 21 30 0.9485 1.2095
15 21 30 2.2232 0.8149
17 21 30 -5.8505 -0.7332
-18 22 30 -3.3737 1.3338
-16 22 30 -3.1257 1.3095
-14 22 30 2.0771 0.0454
-12 22 30 -4.5882 -1.7873
-10 22 30 -14.8387 -0.4791
-8 22 30 11.9915 1.9116
-6 22 30 2.3253 1.5212
-4 22 30 9.9849 -1.1685
-2 22 30 5.5689 -0.3160
0 22 30 8.6650 0.7868
2 22 30 9.2300 0.0483
4 22 30 -0.1379 -1.0489
6 22 30 -11.2073 0.2054
8 22 30 8.5418 1.0064
10 22 30 3.4866 0.3900
12 22 30 -6.5490 -1.8595
14 22 30 -2.4882 -1.6374
16 22 30 13.3652 0.3942
-17 23 30 15.2850 -0.0479
-15 23 30 6.3139 1.0565
-13 23 30 21.1436 -0.2458
-11 23 30 -5.5513 -1.2251
-9 23 30 -1.1672 0.0033
-7 23 30 1.4034 1.0360
-5 23 30 0.7376 -0.9235
-3 23 30 -12.4904 -0.9622
-1 23 30 14.1863 0.7215
1 23 30 6.1956 1.1083
3 23 30 -16.1812 -0.3361
5 23 30 1.5597 -1.0026
7 23 30 -3.6899 -0.3155
9 23 30 -15.9201 0.1922
11 23 30 -0.4949 0.1638
13 23 30 -5.1400 -0.2577
15 23 30 2.1811 -0.7531
-16 24 30 4.8014 -0.9728
-14 24 30 17.0560 -0.0738
-12 24 30 7.5658 0.2525
-10 24 30 -25.2218 0.4071
-8 24 30 5.9271 0.4422
-6 24 30 25.8142 -0.6041
-4 24 30 -7.9854 0.0532
-2 24 30 13.8268 0.9273
0 24 30 12.6794 0.2505
2 24 30 -3.0399 -1.0006
4 24 30 -11.5622 -0.6777
6 24 30 -11.9672 0.0563
8 24 30 -8.4972 0.1697
10 24 30 11.1354 -0.5208
12 24 30 -3.3005 1.0679
14 24 30 -4.1623 -1.2652
-15 25 30 -7.8686 0.9931
-13 25 30 -5.9420 -0.0274
-11 25 30 -6.7149 -0.9344
-9 25 30 5.4284 -0.7289
-7 25 30 14.0557 0.0146
-5 25 30 -9.6571 0.0987
-3 25 30 -12.5621 -0.1734
-1 25 30 -6.2162 -0.3371
1 25 30 4.8618 -0.6440
3 25 30 -15.6039 -1.3768
5 25 30 -7.9128 -0.2425
7 25 30 -5.7902 0.4670
9 25 30 -2.3594 1.4753
11 25 30 2.8205 0.0935
13 25 30 5.0095 -0.1549
-12 26 30 5.9134 -0.6333
-10 26 30 -11.8262 -0.7593
-8 26 30 -4.3969 -0.7068
-6 26 30 7.3274 -0.5529
-4 26 30 -12.0255 -0.3898
-2 26 30 3.9170 1.0899
0 26 30 -1.0067 1.3801
2 26 30 -5.5116 -0.1737
4 26 30 7.0344 -1.9017
6 26 30 18.4717 -0.8270
8 26 30 -3.4359 0.6686
10 26 30 10.5241 -0.6540
-11 27 30 4.8559 -1.2844
-9 27 30 3.1098 0.8826
-7 27 30 6.8777 1.9246
-5 27 30 0.9195 -1.1072
-3 27 30 -1.9322 -1.6311
-1 27 30 -2.6464 1.0433
1 27 30 15.8333 1.1252
3 27 30 2.0548 -2.6296
5 27 30 6.8727 -2.4569
7 27 30 7.0681 -0.0084
-8 28 30 0.6181 -1.2035
-6 28 30 8.5242 -1.0629
-4 28 30 -3.4287 -0.7412
-2 28 30 10.6784 0.0154
0 28 30 3.4062 0.4294
2 28 30 4.0517 0.5861
4 28 30 14.2814 -0.7689
-29 1 31 -6.6880 -6.1105
-27 1 31 -0.5567 6.5478
-25 1 31 6.6759 7.1189
-23 1 31 4.9031 -9.2882
-21 1 31 -8.5610 -11.7869
-19 1 31 -0.8097 9.4089
-17 1 31 -6.5155 12.3000
-15 1 31 9.6396 -8.8470
-13 1 31 5.6814 -6.6896
-11 1 31 12.7739 14.1116
-9 1 31 16.6326 3.7163
-7 1 31 -9.0369 -19.4566
-5 1 31 -3.5298 1.5576
-3 1 31 8.0650 29.3490
-1 1 31 -1.8385 4.3560
1 1 31 6.7850 -28.0841
3 1 31 19.2176 -6.2994
5 1 31 1.7719 19.7706
7 1 31 4.1302 0.2383
9 1 31 1.2016 -14.4308
11 1 31 -5.8100 5.2957
13 1 31 -0.5367 8.6529
15 1 31 -8.8529 -14.2055
17 1 31 5.8480 -12.5490
19 1 31 13.5515 12.5717
21 1 31 -7.6236 13.1332
23 1 31 1.1212 -5.5518
25 1 31 -6.8289 -9.4177
-28 2 31 -0.3216 -0.0278
-26 2 31 -4.6102 3.8947
-24 2 31 2.1737 0.0195
-22 2 31 -2.7484 -2.8829
-20 2 31 -2.9331 4.0618
-18 2 31 4.3085 6.1212
-16 2 31 0.2065 -4.4308
-14 2 31 -2.0635 -7.6278
-12 2 31 4.5874 5.5005
-10 2 31 -3.3400 8.5502
-8 2 31 1.6537 -3.9543
-6 2 31 -20.1565 -7.8123
-4 2 31 2.5500 2.1535
-2 2 31 -2.1625 0.4055
0 2 31 -1.1467 -8.4051
2 2 31 -4.0303 -0.6864
4 2 31 -9.0099 10.4969
6 2 31 4.2260 2.6771
8 2 31 -2.6675 -10.0111
10 2 31 14.3723 -4.6459
12 2 31 2.9657 7.4093
14 2 31 1.9742 5.0261
16 2 31 -0.0964 -2.6778
18 2 31 -1.1223 -0.1839
20 2 31 -4.3194 2.5533
22 2 31 -4.4859 -1.8922
24 2 31 -2.3768 -2.8108
26 2 31 7.8596 2.4538
-29 3 31 -14.9327 -2.4857
-27 3 31 2.9440 0.7927
-25 3 31 -4.5567 -0.8652
-23 3 31 1.6853 -1.7452
-21 3 31 2.8541 -1.8775
-19 3 31 9.2590 -0.5386
-17 3 31 -7.6585 0.6661
-15 3 31 -2.5087 0.7860
-13 3 31 -12.3690 -1.1348
-11 3 31 7.3355 -3.8843
-9 3 31 16.2436 -3.2202
-7 3 31 -6.1678 -0.2796
-5 3 31 -2.7699 3.5756
-3 3 31 12.8742 3.0830
-1 3 31 4.1523 -1.4229
1 3 31 -14.0003 -4.4575
3 3 31 3.3383 -2.4004
5 3 31 -8.0670 1.7157
7 3 31 7.1167 4.4940
9 3 31 13.2159 2.6316
11 3 31 -17.5185 -1.2882
13 3 31 -5.3825 -3.8522
15 3 31 -8.2198 -2.4343
17 3 31 8.5185 2.1187
19 3 31 1.4387 4.2593
21 3 31 -4.8552 1.4636
23 3 31 9.0518 -2.6981
25 3 31 0.5627 -3.5291
-28 4 31 1.4310 -1.1725
-26 4 31 -4.4318 -2.5249
-24 4 31 12.8062 3.1383
-22 4 31 -5.5394 2.4413
-20 4 31 0.0565 -1.7231
-18 4 31 4.6307 -2.3186
-16 4 31 2.3387 3.6338
-14 4 31 4.4592 3.3199
-12 4 31 -3.6562 -1.2988
-10 4 31 9.4963 -0.6236
-8 4 31 -2.0626 2.9618
-6 4 31 -16.9185 -1.3018
-4 4 31 2.5573 -5.9590
-2 4 31 -0.8441 -0.2304
0 4 31 0.8890 6.3462
2 4 31 16.1219 0.5186
4 4 31 4.5742 -6.7366
6 4 31 8.3528 -3.1101
8 4 31 -15.7748 2.5996
10 4 31 12.9525 1.5615
12 4 31 -7.8830 0.4367
14 4 31 -0.5425 2.5325
16 4 31 -3.2455 1.0817
18 4 31 1.2056 -3.6209
20 4 31 2.0933 -3.3632
22 4 31 -10.1758 3.2101
24 4 31 1.0565 5.0243
26 4 31 11.9580 0.8795
-27 5 31 -0.0385 -1.1400
-25 5 31 -5.6891 2.6511
-23 5 31 2.4884 1.1037
-21 5 31 0.0503 -1.4239
-19 5 31 8.1810 0.2365
-17 5 31 7.0269 1.3513
-15 5 31 -5.2175 -1.5492
-13 5 31 1.3748 -3.3344
-11 5 31 1.8340 0.9177
-9 5 31 -12.6186 3.3332
-7 5 31 4.4259 -0.3910
-5 5 31 9.4578 -2.3993
-3 5 31 12.4764 -0.4891
-1 5 31 24.1544 0.7722
1 5 31 0.6699 0.6854
3 5 31 15.5694 1.9133
5 5 31 17.6138 2.7988
7 5 31 -0.6843 -0.3261
9 5 31 1.8331 -2.8555
11 5 31 -1.0181 -0.4506
13 5 31 5.1119 2.4769
15 5 31 -5.5092 1.5246
17 5 31 2.3721 0.2594
19 5 31 -13.0720 -0.6420
21 5 31 -6.6551 -0.7938
23 5 31 2.7939 -1.1268
25 5 31 -4.7804 2.2488
-28 6 31 3.4199 1.6866
-26 6 31 5.0578 2.1322
-24 6 31 -9.7704 1.0965
-22 6 31 -0.0670 -1.6674
-20 6 31 -1.0597 1.3669
-18 6 31 3.0101 2.6276
-16 6 31 7.0927 -0.8157
-14 6 31 2.0509 -2.6433
-12 6 31 -5.9899 1.3207
-10 6 31 15.8665 2.1309
-8 6 31 11.1809 -4.0551
-6 6 31 -11.9346 -4.7682
-4 6 31 0.6344 1.4646
-2 6 31 3.4242 2.8724
0 6 31 -9.3183 -2.6808
2 6 31 10.0514 -3.6283
4 6 31 10.8651 1.0387
6 6 31 4.6698 0.7530
8 6 31 0.4695 -2.3400
10 6 31 10.9386 0.0841
12 6 31 -7.4404 4.3845
14 6 31 7.1992 0.0731
16 6 31 10.4908 -4.6299
18 6 31 0.9612 -1.6609
20 6 31 -4.8357 3.7642
22 6 31 -5.7524 3.2460
24 6 31 0.1204 -2.2832
-27 7 31 -0.9300 -0.3627
-25 7 31 6.3182 0.2464
-23 7 31 3.6489 -1.2583
-21 7 31 0.1671 -0.3146
-19 7 31 -14.7298 0.5402
-17 7 31 14.7133 -2.0060
-15 7 31 -2.7468 -3.1549
-13 7 31 -10.8304 0.4479
-11 7 31 5.9115 4.1657
-9 7 31 8.9101 1.6521
-7 7 31 -4.4385 -2.7755
-5 7 31 23.5289 -2.6418
-3 7 31 5.7445 0.9276
-1 7 31 2.9827 2.6067
1 7 31 6.2040 2.4677
3 7 31 -6.3086 2.3582
5 7 31 -2.3603 0.8708
7 7 31 1.5270 -3.7391
9 7 31 -2.2903 -3.6270
11 7 31 5.8329 3.1276
13 7 31 13.2391 6.0016
15 7 31 -5.8174 0.8634
17 7 31 -7.8211 -5.3176
19 7 31 -6.0515 -4.0713
21 7 31 0.0690 0.2410
23 7 31 -6.7244 1.2104
25 7 31 8.4578 4.9233
-28 8 31 5.5188 0.2641
-26 8 31 0.9280 -0.1894
-24 8 31 -1.2178 0.6835
-22 8 31 2.3332 0.6951
-20 8 31 -11.4496 1.0035
-18 8 31 -7.8834 0.3710
-16 8 31 6.1059 0.2143
-14 8 31 29.5379 -0.5680
-12 8 31 10.8144 -0.5673
-10 8 31 -0.0498 1.1287
-8 8 31 2.5498 1.7447
-6 8 31 -25.4306 0.1481
-4 8 31 -8.0386 -0.4173
-2 8 31 16.5110 0.3457
0 8 31 0.7617 -0.7301
2 8 31 13.6096 -1.1527
4 8 31 14.1755 0.4911
6 8 31 0.8325 1.9559
8 8 31 -7.7702 -0.5127
10 8 31 5.9200 -2.2320
12 8 31 4.7060 -0.9816
14 8 31 -0.5242 0.4559
16 8 31 2.5918 0.5935
18 8 31 10.2169 0.5296
20 8 31 -5.7616 1.2975
22 8 31 -6.5456 0.9486
24 8 31 -4.8615 -1.9211
-27 9 31 9.4312 -0.2922
-25 9 31 -4.4967 1.8543
-23 9 31 6.6189 2.1173
-21 9 31 9.8937 -1.0365
-19 9 31 -20.3574 -1.1982
-17 9 31 10.2104 1.1516
-15 9 31 11.7553 0.3388
-13 9 31 2.8625 -1.6821
-11 9 31 -6.1731 -0.8830
-9 9 31 6.5067 0.1596
-7 9 31 -12.2580 -0.4903
-5 9 31 4.1149 -1.9664
-3 9 31 -0.9919 -0.2257
-1 9 31 1.9865 1.3055
1 9 31 -8.9131 1.1824
3 9 31 -0.4360 0.0640
5 9 31 -4.5242 -0.8776
7 9 31 9.2041 -0.2878
9 9 31 -3.3376 0.6947
11 9 31 -13.1630 1.1326
13 9 31 0.0072 0.4911
15 9 31 2.8887 -0.8089
17 9 31 -6.8572 -0.9085
19 9 31 -6.9323 -0.0954
21 9 31 8.4448 -0.3090
23 9 31 -3.8198 1.2635
-26 10 31 -12.1777 0.6973
-24 10 31 -1.9750 -0.0863
-22 10 31 -5.5952 -1.7369
-20 10 31 2.0801 -0.7088
-18 10 31 -12.9674 2.1815
-16 10 31 2.5569 -0.3705
-14 10 31 0.3669 -2.5285
-12 10 31 -0.8324 1.2643
-10 10 31 4.3901 3.7109
-8 10 31 5.7098 -0.2311
-6 10 31 7.8755 -2.1372
-4 10 31 4.0683 2.4485
-2 10 31 1.8045 2.9403
0 10 31 -8.5194 -2.4886
2 10 31 -15.9116 -1.6794
4 10 31 0.8646 3.2423
6 10 31 10.3141 0.8405
8 10 31 -2.8717 -3.6276
10 10 31 -3.0210 -1.9240
12 10 31 -1.5900 1.8490
14 10 31 4.0169 0.0594
16 10 31 8.9698 -2.1935
18 10 31 6.9957 -0.6822
20 10 31 -0.1756 0.5471
22 10 31 -0.7414 -1.7978
24 10 31 2.8546 -1.1464
-25 11 31 -2.9028 0.7767
-23 11 31 3.3282 -2.0021
-21 11 31 -0.7246 -0.5566
-19 11 31 -13.8760 3.2159
-17 11 31 5.0792 1.4367
-15 11 31 17.4354 -3.2984
-13 11 31 11.0812 -0.9744
-11 11 31 -5.3257 2.4780
-9 11 31 3.5627 -0.6255
-7 11 31 -18.7096 -3.4555
-5 11 31 0.1377 1.5676
-3 11 31 2.0050 4.5455
-1 11 31 6.3906 -2.7694
1 11 31 5.8253 -5.9061
3 11 31 19.4706 1.2980
5 11 31 7.1722 4.8609
7 11 31 4.1126 0.0276
9 11 31 -0.6069 -2.0417
11 11 31 -6.3719 0.6258
13 11 31 0.0293 -0.0047
15 11 31 -1.0319 -3.5527
17 11 31 -11.3077 -1.1294
19 11 31 -13.2530 3.8466
21 11 31 -3.1037 0.6262
23 11 31 2.5626 -2.5840
-26 12 31 -0.6802 1.9944
-24 12 31 4.2648 -2.2626
-22 12 31 -2.2983 -2.3282
-20 12 31 3.1735 0.9326
-18 12 31 -8.1330 2.1289
-16 12 31 -5.1845 -2.4008
-14 12 31 -12.2380 -1.4832
-12 12 31 11.8082 1.8582
-10 12 31 -9.7923 1.1913
-8 12 31 -16.2700 -2.4659
-6 12 31 -7.5138 -0.8398
-4 12 31 -7.6650 4.1680
-2 12 31 13.8365 3.0830
0 12 31 11.0317 -2.4373
2 12 31 -3.6459 -2.0247
4 12 31 1.8878 2.1777
6 12 31 -9.7733 1.6542
8 12 31 -7.7467 -1.7022
10 12 31 -6.2830 -1.1231
12 12 31 -3.1931 1.3106
14 12 31 -6.0802 -0.0805
16 12 31 7.6777 -2.2595
18 12 31 10.3065 -1.3397
20 12 31 3.2089 1.8660
22 12 31 4.2454 -0.1961
-25 13 31 4.3504 -2.4611
-23 13 31 -0.2285 -0.0097
-21 13 31 4.6657 0.5221
-19 13 31 -6.5598 -0.2284
-17 13 31 5.4130 -0.1083
-15 13 31 7.5850 1.1614
-13 13 31 -1.7092 1.9420
-11 13 31 -3.4128 -0.6487
-9 13 31 3.9407 -1.6377
-7 13 31 -10.0111 0.4428
-5 13 31 12.1328 1.4717
-3 13 31 -6.1132 -0.1136
-1 13 31 -1.5534 -1.3493
1 13 31 -0.8695 -0.8010
3 13 31 -3.9624 -0.5291
5 13 31 3.4044 -1.5309
7 13 31 1.3851 -0.6510
9 13 31 -2.9217 1.7875
11 13 31 -4.7863 0.4968
13 13 31 12.8369 -2.0191
15 13 31 10.1233 -0.8712
17 13 31 -0.9559 1.3250
19 13 31 -5.0047 1.2737
21 13 31 2.9856 -1.5670
23 13 31 9.6692 0.9756
-24 14 31 -3.0041 0.9174
-22 14 31 -10.5894 -0.3845
-20 14 31 -7.4826 -0.5183
-18 14 31 3.7966 -0.1807
-16 14 31 3.3203 -0.3462
-14 14 31 -1.2744 0.0740
-12 14 31 -1.5231 0.1820
-10 14 31 3.5685 -0.3484
-8 14 31 5.0732 -0.3831
-6 14 31 -5.9369 0.0514
-4 14 31 8.8017 0.7884
-2 14 31 5.2260 -0.0867
0 14 31 0.2099 0.1147
2 14 31 -8.3978 1.4984
4 14 31 -7.7908 0.0130
6 14 31 -7.1297 -1.1188
8 14 31 1.7466 0.2071
10 14 31 8.6633 1.3372
12 14 31 7.1079 -0.9966
14 14 31 1.0108 -2.0920
16 14 31 7.7446 -0.5228
18 14 31 9.1352 0.5929
20 14 31 3.0966 -0.6330
22 14 31 0.2525 -1.5630
-23 15 31 -5.2676 -1.2805
-21 15 31 -1.5445 -0.4473
-19 15 31 4.0072 0.8422
-17 15 31 -9.4719 0.3805
-15 15 31 -13.7668 0.6620
-13 15 31 5.6756 0.2087
-11 15 31 2.1767 0.3222
-9 15 31 -1.9736 0.0591
-7 15 31 -19.9485 -0.7997
-5 15 31 -4.5300 -0.0306
-3 15 31 -14.2966 0.4824
-1 15 31 19.9299 -0.7908
1 15 31 1.8909 -1.3012
3 15 31 -5.1939 -0.5108
5 15 31 -14.0746 -0.5376
7 15 31 9.6844 -0.6514
9 15 31 9.5081 -0.0811
11 15 31 -2.9758 1.0477
13 15 31 14.8075 0.0384
15 15 31 20.7038 -0.8619
17 15 31 -0.8143 -0.6633
19 15 31 -0.1012 -0.3655
21 15 31 1.9890 -2.0069
-24 16 31 4.1338 -1.4514
-22 16 31 0.0746 -2.5584
-20 16 31 -6.7094 1.0648
-18 16 31 3.9948 0.1837
-16 16 31 3.4639 -2.6053
-14 16 31 -0.3628 -0.9701
-12 16 31 -5.0438 2.2199
-10 16 31 13.8343 0.7377
-8 16 31 5.8152 -2.8011
-6 16 31 -2.5757 -2.0022
-4 16 31 -11.4474 1.3969
-2 16 31 -0.6107 0.6830
0 16 31 -3.7695 -0.7508
2 16 31 -2.6677 0.4683
4 16 31 12.0784 1.8309
6 16 31 -1.5457 0.0525
8 16 31 -6.8934 -1.3614
10 16 31 -0.1461 0.2750
12 16 31 -8.8541 1.6014
14 16 31 5.8035 0.5794
16 16 31 23.9215 -1.2004
18 16 31 3.0833 0.6057
20 16 31 -6.9041 0.0566
-23 17 31 -6.8126 -2.3911
-21 17 31 -5.4570 1.6015
-19 17 31 5.7147 0.6858
-17 17 31 -5.1631 -2.0532
-15 17 31 8.2819 -0.8542
-13 17 31 -5.5890 0.5099
-11 17 31 -16.2732 1.2204
-9 17 31 -3.7418 0.1650
-7 17 31 -7.8886 0.0238
-5 17 31 -1.5465 0.5413
-3 17 31 -15.4427 -0.9058
-1 17 31 3.7578 -1.8324
1 17 31 -13.8734 0.0054
3 17 31 -16.1280 1.4737
5 17 31 -10.8053 0.7382
7 17 31 -4.6790 -1.4765
9 17 31 5.0747 -1.7876
11 17 31 -3.3795 -0.2297
13 17 31 7.2641 1.6369
15 17 31 -3.6419 1.2525
17 17 31 -15.3581 1.5248
19 17 31 8.8990 -1.0861
-22 18 31 -6.3091 -0.2858
-20 18 31 -13.0619 0.1877
-18 18 31 -6.4864 -1.0510
-16 18 31 -14.0011 0.3988
-14 18 31 -10.9772 1.0586
-12 18 31 -12.2715 -0.8652
-10 18 31 -2.5487 -1.5743
-8 18 31 -17.2177 -0.5296
-6 18 31 12.6378 0.5810
-4 18 31 8.6213 0.7858
-2 18 31 7.5760 -0.9265
0 18 31 -0.9222 -1.0565
2 18 31 1.1135 0.1491
4 18 31 -2.9925 0.9139
6 18 31 -6.0285 0.3076
8 18 31 4.5041 0.6418
10 18 31 -16.4407 1.3599
12 18 31 -22.0465 -0.7190
14 18 31 -13.1869 -1.7347
16 18 31 12.4062 0.2066
18 18 31 -6.2463 2.1077
20 18 31 1.4898 -1.9880
-21 19 31 4.3760 0.6806
-19 19 31 7.5990 -0.7555
-17 19 31 2.4315 -0.5324
-15 19 31 7.8615 0.4039
-13 19 31 -4.4460 -0.2186
-11 19 31 -3.2316 0.4324
-9 19 31 -2.4680 1.2447
-7 19 31 -2.8514 0.3113
-5 19 31 -7.0330 -0.2438
-3 19 31 -7.9386 -0.4561
-1 19 31 6.0808 0.1101
1 19 31 -2.7548 1.2364
3 19 31 -10.3506 0.6204
5 19 31 -8.1110 0.0182
7 19 31 0.7925 -0.2262
9 19 31 4.4596 -0.1888
11 19 31 4.8094 0.2256
13 19 31 0.6754 -1.1766
15 19 31 0.4375 -0.5510
17 19 31 -3.8252 2.1411
19 19 31 7.8997 -2.2804
-20 20 31 3.4346 0.4999
-18 20 31 -4.0929 0.5774
-16 20 31 -1.8801 -0.1025
-14 20 31 -4.9650 -1.2296
-12 20 31 -8.7827 -0.4022
-10 20 31 -11.3589 0.6490
-8 20 31 1.9392 -0.1959
-6 20 31 7.1567 -0.4293
-4 20 31 8.3357 0.5823
-2 20 31 -6.3325 0.0817
0 20 31 2.2898 -1.7179
2 20 31 7.2508 -0.3370
4 20 31 -8.4947 1.7831
6 20 31 -1.3638 0.9592
8 20 31 -2.2380 -1.1353
10 20 31 -14.3000 -0.1427
12 20 31 -5.5558 0.7473
14 20 31 -8.5741 -0.0328
16 20 31 -2.3376 1.4083
18 20 31 -1.2190 1.3978
-19 21 31 0.0294 -0.7220
-17 21 31 2.2561 -1.2333
-15 21 31 10.3486 -1.0325
-13 21 31 13.2188 1.3409
-11 21 31 -14.0911 1.1741
-9 21 31 0.9108 -1.7834
-7 21 31 9.3768 -1.5133
-5 21 31 9.1678 2.3803
-3 21 31 -6.1911 2.7681
-1 21 31 16.1255 -0.7171
1 21 31 -1.3714 -1.4267
3 21 31 -14.6921 0.4713
5 21 31 -12.0343 0.6138
7 21 31 0.3504 -0.1957
9 21 31 5.4979 -0.2985
11 21 31 13.3183 1.9480
13 21 31 2.2113 -0.3950
15 21 31 -5.1295 -2.0969
17 21 31 5.2668 1.4565
-18 22 31 6.3746 -2.2198
-16 22 31 4.5760 -0.7836
-14 22 31 -5.9982 0.3466
-12 22 31 11.4590 0.8805
-10 22 31 -5.4891 -0.2017
-8 22 31 5.7900 -0.8253
-6 22 31 -1.1070 -0.7618
-4 22 31 -1.2660 -0.1584
-2 22 31 -17.7512 -0.0059
0 22 31 4.8022 0.0929
2 22 31 27.9037 0.6553
4 22 31 -12.2924 0.6240
6 22 31 -8.4191 -0.1629
8 22 31 -10.5864 -1.1730
10 22 31 -4.1307 0.9846
12 22 31 -4.3170 0.9742
14 22 31 5.7417 -0.7504
16 22 31 0.8237 0.3075
-17 23 31 11.1956 -1.2328
-15 23 31 10.4514 0.6165
-13 23 31 17.8222 0.7751
-11 23 31 -4.0621 -0.4535
-9 23 31 -0.3161 -0.3037
-7 23 31 5.6238 2.0809
-5 23 31 -7.0802 1.1832
-3 23 31 -18.5804 -0.8630
-1 23 31 -1.3436 0.2588
1 23 31 -15.4126 2.6158
3 23 31 -6.8153 0.2505
5 23 31 0.7862 -1.0595
7 23 31 8.2236 -0.0102
9 23 31 13.5367 1.4400
11 23 31 1.6561 -0.2854
13 23 31 19.6916 -0.2564
-16 24 31 -16.0213 1.3517
-14 24 31 -17.6658 0.2943
-12 24 31 -9.7569 -0.0830
-10 24 31 2.0473 0.0128
-8 24 31 -2.2399 0.5276
-6 24 31 -11.7938 -0.3117
-4 24 31 -1.6264 -1.6792
-2 24 31 -4.0268 -0.5580
0 24 31 -6.6268 1.5632
2 24 31 9.4972 0.7227
4 24 31 -5.5926 -0.8686
6 24 31 -0.4220 -1.3631
8 24 31 -12.5452 -0.7679
10 24 31 12.5658 1.0394
12 24 31 -0.4408 0.2070
-13 25 31 1.7002 -0.1646
-11 25 31 3.3193 0.3911
-9 25 31 -4.5947 -0.2998
-7 25 31 -3.4715 0.7528
-5 25 31 4.7102 0.8710
-3 25 31 7.2605 -1.1430
-1 25 31 -0.4150 0.0536
1 25 31 5.7431 1.4626
3 25 31 11.3083 0.3624
5 25 31 -7.4789 -0.5666
7 25 31 9.6992 -1.6139
9 25 31 7.7508 -0.4505
11 25 31 -3.5044 -1.3210
-12 26 31 -2.0249 -0.2362
-10 26 31 12.0548 0.5416
-8 26 31 -0.7970 -0.9084
-6 26 31 -17.7953 0.0644
-4 26 31 -4.2072 -0.4099
-2 26 31 -0.1022 -0.7796
0 26 31 -2.0494 -0.6092
2 26 31 10.3899 -0.2800
4 26 31 4.0658 1.6672
6 26 31 7.1715 0.1161
8 26 31 0.8195 -1.4059
-9 27 31 -3.8427 0.1309
-7 27 31 -8.5949 1.1829
-5 27 31 1.0568 0.0727
-3 27 31 6.8450 -0.7547
-1 27 31 -6.7009 -0.1368
1 27 31 4.6823 0.9094
3 27 31 -1.0979 -0.2109
5 27 31 -2.2257 -1.0294
-4 28 31 3.6373 -1.1279
-2 28 31 5.1684 -0.6457
0 28 31 4.0351 1.1161
2 28 31 6.9463 -0.9165
-28 0 32 -18.4067 0.3557
-26 0 32 1.3334 -7.3706
-24 0 32 5.9647 0.9752
-22 0 32 5.7328 9.4371
-20 0 32 1.8188 -4.9254
-18 0 32 17.6446 -15.3816
-16 0 32 -5.6564 6.3149
-14 0 32 -7.1955 20.9424
-12 0 32 12.3981 -1.7780
-10 0 32 -4.4172 -12.4262
-8 0 32 -13.9032 12.9485
-6 0 32 -20.7195 16.3675
-4 0 32 -0.6628 -11.1546
-2 0 32 12.8944 -6.8562
0 0 32 14.2823 21.0356
2 0 32 -23.4804 6.0385
4 0 32 7.1062 -28.8693
6 0 32 -8.5010 -15.3395
8 0 32 -10.2247 15.9588
10 0 32 2.2624 4.9142
12 0 32 -18.8858 -16.8641
14 0 32 -9.0389 -5.8409
16 0 32 -14.8211 8.7721
18 0 32 7.7869 -2.0037
20 0 32 7.8497 -8.5682
22 0 32 2.4627 5.6031
24 0 32 -14.4520 9.6379
-27 1 32 -2.1526 -5.4943
-25 1 32 3.1114 -4.5437
-23 1 32 -6.7580 6.1487
-21 1 32 2.3060 7.1934
-19 1 32 3.8691 -5.2019
-17 1 32 -1.1403 -3.2646
-15 1 32 24.6351 9.1621
-13 1 32 -11.6428 3.8939
-11 1 32 9.4836 -10.8710
-9 1 32 16.1102 -2.2053
-7 1 32 -12.3253 14.5805
-5 1 32 -13.0052 2.7493
-3 1 32 18.0136 -17.1329
-1 1 32 -29.6675 -7.3199
1 1 32 -17.6381 11.6716
3 1 32 26.8331 2.9503
5 1 32 -24.3482 -11.1913
7 1 32 -14.2257 -1.0303
9 1 32 3.8319 7.6086
11 1 32 11.0285 -5.1431
13 1 32 -11.0640 -9.8409
15 1 32 3.6669 6.3731
17 1 32 -4.7959 11.1095
19 1 32 -5.0107 -4.7187
21 1 32 -16.3369 -9.9404
23 1 32 1.7120 2.0028
25 1 32 2.2585 6.7122
-28 2 32 -12.0227 -1.2252
-26 2 32 -7.8337 -1.1346
-24 2 32 -3.6655 -1.7353
-22 2 32 13.8795 -1.7578
-20 2 32 3.6152 -1.4690
-18 2 32 10.7086 0.4490
-16 2 32 -8.4869 0.5208
-14 2 32 -9.4853 0.3995
-12 2 32 7.3453 0.9635
-10 2 32 7.9967 0.7331
-8 2 32 0.3087 0.2595
-6 2 32 -1.9160 1.2673
-4 2 32 11.5110 3.2577
-2 2 32 2.3344 3.1070
0 2 32 -2.4758 -0.2544
2 2 32 -8.7242 -1.9907
4 2 32 -3.0280 -1.2562
6 2 32 -13.8985 -0.0985
8 2 32 -9.6974 0.3176
10 2 32 11.0313 0.2309
12 2 32 1.8809 -0.6586
14 2 32 3.1574 -1.8444
16 2 32 -16.2584 -2.1734
18 2 32 -1.7990 -0.1052
20 2 32 -4.1985 2.3370
22 2 32 6.0940 0.5812
24 2 32 -0.2991 0.0862
-27 3 32 -13.1141 0.8969
-25 3 32 4.2416 -1.1614
-23 3 32 -11.4582 0.6857
-21 3 32 5.3525 2.7467
-19 3 32 18.2070 0.3168
-17 3 32 3.4876 -1.8760
-15 3 32 -1.8069 0.3183
-13 3 32 -9.1016 2.2416
-11 3 32 2.1176 -0.1220
-9 3 32 -9.7338 0.5506
-7 3 32 3.4968 3.3689
-5 3 32 15.8498 -1.6209
-3 3 32 4.8093 -6.3927
-1 3 32 -4.3113 -1.7153
1 3 32 4.2921 4.7280
3 3 32 -1.3942 2.5557
5 3 32 6.0131 -3.1488
7 3 32 -11.3689 -3.3449
9 3 32 2.9168 -2.4548
11 3 32 8.3647 -1.8423
13 3 32 -12.4204 2.3471
15 3 32 4.6814 5.1167
17 3 32 3.5976 0.2861
19 3 32 -1.4706 -6.2154
21 3 32 1.9322 -3.5758
23 3 32 -7.4493 3.9159
25 3 32 -7.0698 1.9416
-28 4 32 -5.5950 -1.9421
-26 4 32 2.2694 -1.2505
-24 4 32 -8.9482 -2.0811
-22 4 32 0.7456 3.7633
-20 4 32 -2.0481 0.9976
-18 4 32 10.5067 -2.8009
-16 4 32 -5.6673 0.4000
-14 4 32 8.2477 3.1706
-12 4 32 1.1063 -2.7581
-10 4 32 9.5004 -4.2266
-8 4 32 -0.1090 5.6535
-6 4 32 -21.4674 6.1016
-4 4 32 10.1310 -4.7819
-2 4 32 11.9839 -6.3292
0 4 32 -16.4016 3.5984
2 4 32 27.0298 4.8584
4 4 32 -2.0137 -1.9535
6 4 32 -22.7157 -0.5651
8 4 32 -12.2385 3.9757
10 4 32 -18.1744 -1.6090
12 4 32 0.8516 -6.0106
14 4 32 1.6739 0.9746
16 4 32 6.1759 6.7862
18 4 32 -4.1951 0.3225
20 4 32 -4.4102 -5.1569
22 4 32 1.0896 -2.9061
24 4 32 13.0045 2.0518
-27 5 32 -14.1879 -2.8896
-25 5 32 2.3691 -2.3689
-23 5 32 -4.4981 3.1935
-21 5 32 4.5100 1.5289
-19 5 32 7.9223 -4.7505
-17 5 32 8.5020 -3.2931
-15 5 32 -5.4510 4.8901
-13 5 32 -7.8844 2.1199
-11 5 32 6.8088 -7.3003
-9 5 32 -6.5625 -2.7173
-7 5 32 9.5936 7.6418
-5 5 32 15.9759 1.7846
-3 5 32 -5.2048 -7.9467
-1 5 32 -4.2652 -1.0350
1 5 32 4.0703 7.0904
3 5 32 -19.5882 -0.3284
5 5 32 8.4734 -7.5165
7 5 32 -13.0627 1.2583
9 5 32 16.4928 7.0729
11 5 32 17.0431 -1.5604
13 5 32 7.3078 -5.5761
15 5 32 -1.9921 2.5300
17 5 32 -4.1772 4.2420
19 5 32 -1.6690 -2.3356
21 5 32 5.9906 -1.8600
23 5 32 3.2718 4.4687
25 5 32 7.5880 -0.6684
-26 6 32 5.2645 -2.3968
-24 6 32 -8.0691 1.5228
-22 6 32 -2.4128 1.7546
-20 6 32 -15.1297 -1.5232
-18 6 32 -3.2360 -0.8660
-16 6 32 -10.4327 1.5055
-14 6 32 14.2656 0.2259
-12 6 32 9.5078 -2.4378
-10 6 32 -11.7306 -0.0530
-8 6 32 -1.6820 3.8188
-6 6 32 -11.1479 0.0077
-4 6 32 -2.0157 -4.7537
-2 6 32 21.4021 -2.2383
0 6 32 -13.3519 3.0024
2 6 32 16.9270 3.3773
4 6 32 4.8197 0.3896
6 6 32 -6.9639 -0.9484
8 6 32 -12.3387 -1.1305
10 6 32 -3.0210 -1.4139
12 6 32 12.4320 0.0774
14 6 32 5.0658 2.8506
16 6 32 12.8586 2.4345
18 6 32 -8.8578 -1.4323
20 6 32 7.7223 -3.5172
22 6 32 -6.4071 -1.5668
24 6 32 -0.8846 2.9648
-27 7 32 -2.2803 -0.1308
-25 7 32 -6.1047 0.8494
-23 7 32 4.0452 0.0716
-21 7 32 -5.4872 -1.4640
-19 7 32 5.9624 0.2364
-17 7 32 -0.3175 1.8844
-15 7 32 19.3965 0.3492
-13 7 32 12.3584 -1.5280
-11 7 32 -8.2739 -0.4398
-9 7 32 5.2296 1.4089
-7 7 32 -8.9587 0.1795
-5 7 32 -8.6484 -0.6329
-3 7 32 2.0081 1.6582
-1 7 32 -11.4092 1.3873
1 7 32 -19.4653 -2.7823
3 7 32 15.5311 -2.4531
5 7 32 5.2533 2.0681
7 7 32 16.0139 3.5223
9 7 32 5.5287 -0.1603
11 7 32 -18.7246 -1.3278
13 7 32 -7.1023 -1.1402
15 7 32 13.5506 -1.0627
17 7 32 7.5106 -0.3316
19 7 32 0.8908 1.7828
21 7 32 0.6430 2.2483
23 7 32 -1.2471 -0.0199
-26 8 32 -2.7000 1.4450
-24 8 32 -10.0873 1.0662
-22 8 32 4.4674 -2.0843
-20 8 32 4.4012 -0.0141
-18 8 32 2.3440 1.7130
-16 8 32 -3.5092 -0.7122
-14 8 32 -6.4418 -2.6394
-12 8 32 9.3488 -0.0404
-10 8 32 -4.7199 0.8053
-8 8 32 4.3399 -3.3359
-6 8 32 18.7392 -4.2541
-4 8 32 -18.4752 1.8963
-2 8 32 0.6384 3.6270
0 8 32 14.5971 -1.9826
2 8 32 -10.1018 -3.2309
4 8 32 -1.9082 1.4932
6 8 32 7.9296 2.6759
8 8 32 -7.8325 -0.2516
10 8 32 15.0807 0.9502
12 8 32 3.2298 2.9658
14 8 32 -0.2136 1.0881
16 8 32 2.5873 -3.5651
18 8 32 -20.1650 -1.1500
20 8 32 11.1441 3.3599
22 8 32 5.8002 3.9394
24 8 32 6.2063 1.7593
-27 9 32 1.8272 -2.2734
-25 9 32 -3.4163 -1.9242
-23 9 32 12.5604 0.9844
-21 9 32 -16.5629 0.3012
-19 9 32 12.9238 -2.0537
-17 9 32 -6.6229 -1.6110
-15 9 32 4.3108 2.1585
-13 9 32 11.9166 1.4520
-11 9 32 -13.0236 -0.8002
-9 9 32 -6.8104 0.2179
-7 9 32 -1.6175 1.5079
-5 9 32 -6.1939 0.2899
-3 9 32 15.4053 -0.1230
-1 9 32 5.0999 2.6524
1 9 32 -6.0448 2.3387
3 9 32 17.7719 -1.4172
5 9 32 -14.0478 -1.3959
7 9 32 -7.5987 1.0669
9 9 32 8.6394 0.6180
11 9 32 -1.9599 -1.4701
13 9 32 7.4044 -0.8424
15 9 32 11.7859 0.7843
17 9 32 -0.4172 0.2723
19 9 32 -1.4007 -0.3203
21 9 32 -14.0397 0.3482
23 9 32 3.1315 0.1899
-26 10 32 -6.3510 -1.7175
-24 10 32 -8.9472 1.2626
-22 10 32 -5.1564 1.1479
-20 10 32 -1.4083 -2.1305
-18 10 32 -1.4811 -0.5066
-16 10 32 0.4030 2.8331
-14 10 32 -4.0919 0.6540
-12 10 32 7.5302 -2.7165
-10 10 32 5.4694 -1.3218
-8 10 32 -9.9510 1.1432
-6 10 32 13.9724 -0.7602
-4 10 32 3.5729 -1.5115
-2 10 32 -2.6711 0.8398
0 10 32 4.5290 0.6969
2 10 32 -11.9525 -2.7968
4 10 32 -1.6577 -2.4430
6 10 32 1.5440 1.4714
8 10 32 -5.9324 2.9590
10 10 32 -2.1759 0.8465
12 10 32 5.3530 -0.8126
14 10 32 -6.7712 -1.7752
16 10 32 8.7767 -0.5355
18 10 32 -26.6235 1.1804
20 10 32 -5.8518 1.4864
22 10 32 11.4865 2.2327
-25 11 32 7.8583 2.2594
-23 11 32 -0.8999 1.7459
-21 11 32 -0.1018 -1.5973
-19 11 32 16.0594 -2.4619
-17 11 32 6.6155 1.0918
-15 11 32 -6.1381 1.7947
-13 11 32 -6.0778 -1.2051
-11 11 32 -13.0642 -1.5543
-9 11 32 -5.2397 1.0981
-7 11 32 14.4249 0.5519
-5 11 32 -1.5619 -1.5282
-3 11 32 0.8172 0.2191
-1 11 32 17.3362 3.6272
1 11 32 -0.9368 1.8532
3 11 32 1.9215 -1.6394
5 11 32 2.2377 -1.3248
7 11 32 -6.1715 0.8333
9 11 32 11.3709 0.6459
11 11 32 -8.0013 -0.2565
13 11 32 0.3326 -0.1166
15 11 32 -4.4073 -0.0238
17 11 32 6.8244 -0.7884
19 11 32 19.0086 -1.2893
21 11 32 -6.0073 1.1927
23 11 32 1.3279 1.7973
-24 12 32 8.9961 0.6101
-22 12 32 4.8780 -0.6251
-20 12 32 -3.2343 -0.8455
-18 12 32 15.9710 1.5456
-16 12 32 -6.7986 0.6491
-14 12 32 -3.3321 -1.1743
-12 12 32 -1.6788 2.0075
-10 12 32 11.4724 3.8759
-8 12 32 3.0328 0.1755
-6 12 32 -10.6577 -1.9988
-4 12 32 -3.0163 0.6337
-2 12 32 6.1680 1.6607
0 12 32 0.7967 -0.9351
2 12 32 8.8623 -1.1312
4 12 32 -18.2750 0.5391
6 12 32 -3.6243 0.4662
8 12 32 10.5099 -2.4077
10 12 32 9.4032 -1.8589
12 12 32 16.3530 1.1099
14 12 32 0.8348 0.5002
16 12 32 12.3295 0.2513
18 12 32 -23.6678 0.5504
20 12 32 -11.4275 0.9613
22 12 32 12.1653 1.1988
-25 13 32 2.1877 0.6837
-23 13 32 -8.0723 -1.2330
-21 13 32 6.7790 0.2943
-19 13 32 1.6716 1.3782
-17 13 32 5.0771 0.6714
-15 13 32 4.6638 -2.0287
-13 13 32 -1.4976 -0.5718
-11 13 32 -4.0318 0.6460
-9 13 32 -2.3742 -0.3743
-7 13 32 10.3570 -0.7241
-5 13 32 9.3378 0.2140
-3 13 32 -5.3865 0.9526
-1 13 32 29.4615 -0.3223
1 13 32 -8.7986 -0.5225
3 13 32 -0.4211 0.5538
5 13 32 -1.2593 1.5529
7 13 32 0.7804 0.9467
9 13 32 -2.0606 -1.1278
11 13 32 5.5954 -0.8076
13 13 32 -0.7578 0.9867
15 13 32 7.5973 0.6477
17 13 32 -1.4934 -1.0285
19 13 32 2.2794 -0.4706
21 13 32 -6.3094 0.8338
-24 14 32 -1.7254 -0.5576
-22 14 32 0.6117 1.2639
-20 14 32 -6.9161 -0.7096
-18 14 32 12.7018 -0.7153
-16 14 32 -14.8349 0.8010
-14 14 32 10.2595 0.1867
-12 14 32 1.1473 -0.0006
-10 14 32 3.4387 -0.1260
-8 14 32 8.9523 0.6306
-6 14 32 -7.0380 0.3723
-4 14 32 -5.6546 -0.4588
-2 14 32 1.6139 -0.3678
0 14 32 -3.5718 0.3015
2 14 32 14.5452 0.4112
4 14 32 -11.3527 -0.4027
6 14 32 -8.1940 -0.7034
8 14 32 -6.9568 -0.5115
10 14 32 2.3692 -1.3317
12 14 32 -0.2698 -0.2922
14 14 32 -2.6609 0.1319
16 14 32 3.1565 1.0910
18 14 32 -12.6779 0.2703
20 14 32 -6.6290 -0.5069
-23 15 32 2.1916 1.6106
-21 15 32 7.3604 -0.2752
-19 15 32 3.2009 -0.4560
-17 15 32 -1.9864 1.8303
-15 15 32 11.4617 0.1898
-13 15 32 -17.4093 -1.3118
-11 15 32 -5.3839 -0.7173
-9 15 32 8.4971 1.8507
-7 15 32 20.4387 1.7779
-5 15 32 4.7121 -0.8970
-3 15 32 -32.7683 -1.7846
-1 15 32 12.9372 -0.4730
1 15 32 -6.7007 0.9003
3 15 32 -3.4097 0.0562
5 15 32 0.8555 -0.2600
7 15 32 17.2074 0.7303
9 15 32 -3.3207 0.2646
11 15 32 -12.3462 -1.4969
13 15 32 -10.7054 -1.8200
15 15 32 26.3102 1.2741
17 15 32 -8.0862 1.7124
19 15 32 -6.5752 -0.6734
21 15 32 -2.7348 -2.8184
-22 16 32 0.8571 0.1376
-20 16 32 -8.3269 -1.1451
-18 16 32 3.2923 2.0496
-16 16 32 -18.7561 1.4883
-14 16 32 5.6191 -1.5857
-12 16 32 -6.3964 -1.0475
-10 16 32 -2.6601 1.2136
-8 16 32 -0.2536 1.4943
-6 16 32 5.1090 0.2856
-4 16 32 8.1817 0.7287
-2 16 32 12.1726 0.5942
0 16 32 -12.0583 -1.0058
2 16 32 4.9028 -0.8679
4 16 32 0.0459 1.4522
6 16 32 1.7724 0.9831
8 16 32 -20.1279 -1.0317
10 16 32 3.6258 -1.0173
12 16 32 3.5068 -0.3510
14 16 32 -11.8804 -0.7994
16 16 32 -12.0146 -0.3439
18 16 32 3.2375 0.6734
20 16 32 -3.2543 0.5594
-21 17 32 -1.6808 -0.5563
-19 17 32 -2.5870 2.7207
-17 17 32 -10.9172 1.1825
-15 17 32 11.5141 -2.1699
-13 17 32 -7.8542 0.0629
-11 17 32 -8.2087 1.8711
-9 17 32 -4.6728 -1.0511
-7 17 32 4.3321 -3.0755
-5 17 32 11.4740 -0.3656
-3 17 32 -19.3506 2.5688
-1 17 32 8.3777 0.3506
1 17 32 5.6953 -3.2772
3 17 32 7.5845 -0.6414
5 17 32 -7.5582 2.1108
7 17 32 4.2836 0.1640
9 17 32 1.0229 -0.9842
11 17 32 -1.6252 0.8149
13 17 32 -7.3303 1.6128
15 17 32 -7.2661 -0.8504
17 17 32 -12.1155 -1.8560
19 17 32 -0.3501 1.5696
-20 18 32 3.8376 1.7313
-18 18 32 6.9258 2.0197
-16 18 32 6.8851 -0.6049
-14 18 32 3.0663 -0.4954
-12 18 32 -5.5895 1.2341
-10 18 32 4.2215 1.6424
-8 18 32 19.5229 -0.7729
-6 18 32 9.2206 -1.1599
-4 18 32 3.2572 0.8370
-2 18 32 -1.0800 0.8781
0 18 32 -9.0831 -1.1439
2 18 32 0.0990 -0.9393
4 18 32 -23.8417 0.4969
6 18 32 6.6134 -0.0045
8 18 32 1.8590 -1.4336
10 18 32 -0.7210 0.0371
12 18 32 0.5055 2.3938
14 18 32 -14.4155 0.4756
16 18 32 -8.7247 -2.0861
18 18 32 -1.8937 -1.3324
-21 19 32 0.4746 -1.6073
-19 19 32 10.6717 1.3864
-17 19 32 8.4865 -0.3289
-15 19 32 7.2278 -0.4309
-13 19 32 4.0274 0.1011
-11 19 32 -1.5739 -0.4081
-9 19 32 1.9199 -0.8262
-7 19 32 -3.3303 -1.2545
-5 19 32 -0.3197 0.0213
-3 19 32 -22.0951 0.5685
-1 19 32 1.0945 -0.6582
1 19 32 0.5824 -0.9317
3 19 32 21.0313 0.2621
5 19 32 4.2230 0.1573
7 19 32 -5.0279 -0.2233
9 19 32 -7.5074 0.6447
11 19 32 10.3093 1.2342
13 19 32 5.9485 -0.6962
15 19 32 -2.0161 -1.2895
17 19 32 4.2578 -1.6354
-20 20 32 10.1357 -1.1868
-18 20 32 -7.5970 0.4148
-16 20 32 1.5090 1.1561
-14 20 32 1.5228 0.7020
-12 20 32 6.4785 -0.1019
-10 20 32 -15.3761 0.0941
-8 20 32 11.6286 0.0045
-6 20 32 -4.1927 -0.6109
-4 20 32 14.5947 -0.0838
-2 20 32 -2.6292 1.1197
0 20 32 -12.8774 1.5615
2 20 32 6.2324 0.9369
4 20 32 -8.4750 -0.2190
6 20 32 5.0829 -1.6265
8 20 32 -1.8203 0.7485
10 20 32 11.0640 2.2242
12 20 32 7.6799 0.2208
14 20 32 4.4538 -0.0806
16 20 32 -6.7554 -1.4895
-17 21 32 19.5116 -0.4058
-15 21 32 -6.5925 -0.2798
-13 21 32 -2.2721 0.2844
-11 21 32 11.4705 2.0047
-9 21 32 1.5837 0.4612
-7 21 32 -6.1562 -1.5384
-5 21 32 -8.8322 -0.9847
-3 21 32 -29.4355 -0.1266
-1 21 32 -5.0642 -0.7831
1 21 32 7.4763 -0.0727
3 21 32 15.4098 0.7011
5 21 32 -3.4883 0.1214
7 21 32 -6.1497 -1.4738
9 21 32 1.5916 -0.5359
11 21 32 -4.9598 2.0811
13 21 32 9.2594 2.1404
15 21 32 -4.4624 0.1623
-16 22 32 5.4564 -0.8482
-14 22 32 1.1774 0.1952
-12 22 32 -5.1040 0.1521
-10 22 32 -5.7201 -0.0960
-8 22 32 6.5043 -1.1152
-6 22 32 -2.1246 -0.7157
-4 22 32 3.3222 1.0925
-2 22 32 10.1016 0.3132
0 22 32 -1.2649 -1.3594
2 22 32 -0.1261 -0.2145
4 22 32 4.1841 1.5420
6 22 32 -1.8609 0.5946
8 22 32 -9.9898 -0.5107
10 22 32 22.9523 0.4005
12 22 32 -5.8902 -1.1252
14 22 32 6.7685 -0.3878
-15 23 32 -17.6984 0.3725
-13 23 32 -1.8579 0.9138
-11 23 32 2.5040 1.7254
-9 23 32 -4.8020 -0.1373
-7 23 32 -3.5807 -1.1143
-5 23 32 0.1408 1.0501
-3 23 32 12.0003 1.5794
-1 23 32 8.9030 -0.9485
1 23 32 -6.9608 -1.0298
3 23 32 6.8446 0.7771
5 23 32 -12.5990 0.7597
7 23 32 -5.7122 -1.4537
9 23 32 4.3202 0.2698
11 23 32 -10.2294 1.7162
13 23 32 6.9363 1.1370
-14 24 32 -8.5287 0.7188
-12 24 32 -8.7866 -0.7626
-10 24 32 6.5943 -0.2214
-8 24 32 -17.2011 -1.4121
-6 24 32 -13.8169 0.0602
-4 24 32 -0.5004 1.2369
-2 24 32 3.8073 0.6353
0 24 32 -3.4009 0.1553
2 24 32 -1.4228 0.8198
4 24 32 -0.8362 1.6457
6 24 32 3.2437 -0.8988
8 24 32 -1.6709 1.7764
10 24 32 4.8983 0.9849
-11 25 32 0.6336 0.2834
-9 25 32 -2.3123 0.4893
-7 25 32 0.3817 0.3599
-5 25 32 -8.0761 1.0658
-3 25 32 3.4727 1.4092
-1 25 32 7.3293 -0.7296
1 25 32 -4.1529 -0.9939
3 25 32 1.0674 -0.3687
5 25 32 -5.4857 -0.5456
7 25 32 -3.7471 -0.1592
9 25 32 1.7268 -1.0242
-10 26 32 12.8190 1.1190
-8 26 32 8.9376 -2.1000
-6 26 32 1.1385 -1.5647
-4 26 32 8.1685 1.5020
-2 26 32 10.9112 1.3003
0 26 32 5.2014 -0.8141
2 26 32 1.7291 -0.9645
4 26 32 -10.5256 1.8082
6 26 32 -3.8778 -0.0033
-5 27 32 3.6470 0.6716
-3 27 32 1.9155 3.3006
-1 27 32 -7.3716 -0.2541
1 27 32 -5.7768 -1.7153
3 27 32 -1.6301 0.8127
-27 1 33 -3.8851 -0.8799
-25 1 33 -9.0191 -6.7564
-23 1 33 -7.8861 2.7425
-21 1 33 1.0255 3.7297
-19 1 33 -0.7721 -6.9663
-17 1 33 -0.2286 -3.9439
-15 1 33 -20.2295 12.9457
-13 1 33 0.9215 3.2391
-11 1 33 4.3001 -18.2521
-9 1 33 -6.0442 -7.0875
-7 1 33 -2.5897 16.4523
-5 1 33 3.0707 7.9050
-3 1 33 0.1245 -10.9214
-1 1 33 1.2662 -1.1498
1 1 33 11.6645 10.6260
3 1 33 -11.5273 -3.6513
5 1 33 7.3308 -10.3316
7 1 33 11.2555 11.4829
9 1 33 -5.2508 16.6310
11 1 33 -9.2935 -7.9157
13 1 33 9.3398 -17.1455
15 1 33 -5.4465 2.8247
17 1 33 -5.4473 11.6787
19 1 33 -7.8973 -0.9076
21 1 33 0.0584 -4.7485
23 1 33 9.0761 3.9453
-26 2 33 -5.9846 -5.0524
-24 2 33 6.2240 -0.1391
-22 2 33 -0.7842 5.5276
-20 2 33 12.3639 0.7547
-18 2 33 4.7345 -8.0291
-16 2 33 2.7226 -1.4146
-14 2 33 8.9354 8.0311
-12 2 33 -14.0802 1.3933
-10 2 33 0.8947 -5.7493
-8 2 33 12.1732 3.8853
-6 2 33 -3.0807 8.5473
-4 2 33 14.8012 -5.8852
-2 2 33 3.5133 -11.5477
0 2 33 -21.3330 5.5211
2 2 33 10.5697 11.8820
4 2 33 -11.7998 -4.7606
6 2 33 -8.7868 -11.9095
8 2 33 -1.0519 1.3533
10 2 33 -4.3763 5.1277
12 2 33 10.8370 -4.6802
14 2 33 -7.6773 -1.8114
16 2 33 6.2607 7.7486
18 2 33 13.1585 3.5874
20 2 33 16.7461 -8.3111
22 2 33 -9.2587 -4.7578
24 2 33 9.5061 6.9534
-27 3 33 6.2984 0.3510
-25 3 33 -0.5872 -0.5114
-23 3 33 -6.1207 -0.7784
-21 3 33 -5.0435 -0.1340
-19 3 33 -6.0670 1.3828
-17 3 33 1.0296 2.1233
-15 3 33 -14.3387 0.9434
-13 3 33 14.7209 -2.0382
-11 3 33 16.7399 -3.2401
-9 3 33 16.9570 -1.2196
-7 3 33 20.1331 2.0731
-5 3 33 -0.0735 3.2085
-3 3 33 -1.9470 -0.4759
-1 3 33 4.1451 -4.3981
1 3 33 21.3370 -3.4696
3 3 33 -6.6898 0.0487
5 3 33 12.2931 2.1074
7 3 33 -16.2741 2.2474
9 3 33 -10.3503 0.6497
11 3 33 -19.2605 -3.2851
13 3 33 22.3168 -4.4949
15 3 33 -0.6008 -0.5623
17 3 33 7.5137 4.1594
19 3 33 -1.1828 2.1114
21 3 33 7.7586 -2.4915
23 3 33 9.4631 -2.5879
-26 4 33 1.1957 1.7342
-24 4 33 -1.4915 -0.9456
-22 4 33 -5.9419 -3.3500
-20 4 33 7.2905 0.0053
-18 4 33 15.5615 1.5843
-16 4 33 1.7888 -0.9502
-14 4 33 20.0070 -1.7274
-12 4 33 -5.1453 4.1390
-10 4 33 -4.6842 4.2231
-8 4 33 -3.5353 -2.9055
-6 4 33 -9.1329 -4.3367
-4 4 33 -1.7573 4.1614
-2 4 33 7.6035 6.4640
0 4 33 -12.3920 -1.2008
2 4 33 -0.7189 -3.9766
4 4 33 13.9757 0.3759
6 4 33 17.0449 -0.4752
8 4 33 5.9663 -3.6419
10 4 33 -7.1056 0.4765
12 4 33 15.1218 5.8324
14 4 33 -0.4649 -0.4084
16 4 33 -5.3203 -6.5489
18 4 33 1.7215 -3.3815
20 4 33 9.4713 2.7154
22 4 33 -0.2474 2.7506
24 4 33 14.1651 0.3486
-27 5 33 5.8187 2.3043
-25 5 33 -6.4678 -1.4081
-23 5 33 1.3612 -0.9232
-21 5 33 -2.9379 2.9994
-19 5 33 -4.4583 1.7965
-17 5 33 -2.5435 -3.0930
-15 5 33 -5.6219 -1.8712
-13 5 33 -4.2027 2.5239
-11 5 33 -16.3384 1.3341
-9 5 33 6.4222 -1.9187
-7 5 33 1.3657 -0.3071
-5 5 33 -15.8606 0.0579
-3 5 33 12.4469 -3.3158
-1 5 33 2.5095 -2.6745
1 5 33 -9.7443 2.8198
3 5 33 -2.6667 2.8974
5 5 33 5.9121 -1.8652
7 5 33 5.9189 -2.1445
9 5 33 10.7219 0.6743
11 5 33 -19.5780 0.6575
13 5 33 -2.3559 0.9134
15 5 33 8.0941 2.5011
17 5 33 -4.0836 1.0006
19 5 33 0.1987 -2.6594
21 5 33 6.0996 -2.9541
23 5 33 -1.9767 -0.0772
-26 6 33 9.4175 -1.1744
-24 6 33 13.0510 -0.6507
-22 6 33 -2.0358 2.6032
-20 6 33 -7.8460 0.5734
-18 6 33 1.5818 -2.0892
-16 6 33 -2.0634 1.9826
-14 6 33 13.2992 4.2410
-12 6 33 5.4171 -0.0948
-10 6 33 7.9942 -4.0033
-8 6 33 0.4330 1.3301
-6 6 33 13.8199 4.4733
-4 6 33 -14.4092 -0.6869
-2 6 33 -9.1602 -2.7183
0 6 33 13.2746 2.3761
2 6 33 -21.2049 1.4888
4 6 33 17.6871 -4.7068
6 6 33 -2.4408 -3.3054
8 6 33 -19.3864 3.8045
10 6 33 -11.6532 3.2451
12 6 33 5.7776 -2.9465
14 6 33 -3.6958 -3.6879
16 6 33 -5.3427 -0.6101
18 6 33 3.5829 -0.0117
20 6 33 -1.9274 -0.1012
22 6 33 0.3753 -0.1309
24 6 33 -0.5045 -1.3175
-25 7 33 -4.4771 -0.9201
-23 7 33 -1.0729 1.7464
-21 7 33 0.3000 0.6960
-19 7 33 20.0433 -3.2670
-17 7 33 9.0230 -3.2145
-15 7 33 9.0382 1.3786
-13 7 33 -4.5476 2.6191
-11 7 33 -16.0593 -0.9934
-9 7 33 7.7820 -2.0804
-7 7 33 -5.2217 -0.1855
-5 7 33 -7.8218 -1.8471
-3 7 33 19.5863 -2.5517
-1 7 33 5.6075 2.0281
1 7 33 1.0567 5.2403
3 7 33 -6.7016 0.2656
5 7 33 -4.5206 -5.5921
7 7 33 -0.5349 -3.2101
9 7 33 4.2970 3.0452
11 7 33 -3.4533 4.8230
13 7 33 1.8316 1.1565
15 7 33 3.4562 -1.3822
17 7 33 -19.3950 -2.4745
19 7 33 -11.9896 -3.1359
21 7 33 7.1563 -1.9591
23 7 33 2.9342 2.2629
-26 8 33 2.0983 0.1777
-24 8 33 8.8810 -0.0805
-22 8 33 7.1617 0.5310
-20 8 33 1.0831 0.1739
-18 8 33 6.1305 0.5064
-16 8 33 -2.0923 0.0531
-14 8 33 -1.9035 -0.6809
-12 8 33 -5.8694 -0.3814
-10 8 33 16.3187 1.5145
-8 8 33 4.7726 1.2485
-6 8 33 9.4658 -0.4566
-4 8 33 -17.5617 -0.4228
-2 8 33 -13.1054 0.9804
0 8 33 -8.1845 0.2964
2 8 33 -17.5730 0.0027
4 8 33 -0.6495 1.3950
6 8 33 8.6238 1.6035
8 8 33 3.3353 -0.7340
10 8 33 -2.9086 -1.9615
12 8 33 -2.2110 -0.5093
14 8 33 -7.2484 0.8959
16 8 33 8.2715 0.2715
18 8 33 9.1768 -0.9431
20 8 33 1.0160 -0.7550
22 8 33 1.5633 -1.9656
-25 9 33 14.4926 -2.3333
-23 9 33 2.6737 -1.3458
-21 9 33 -0.8386 1.2459
-19 9 33 4.1143 1.3828
-17 9 33 -3.0610 -1.3228
-15 9 33 -4.9216 -0.5615
-13 9 33 -9.5036 2.3102
-11 9 33 2.6128 0.8694
-9 9 33 7.8465 -1.7640
-7 9 33 -6.5988 -0.8829
-5 9 33 10.2851 0.3132
-3 9 33 11.1665 -0.6437
-1 9 33 2.2559 -0.6539
1 9 33 12.6594 0.0498
3 9 33 -27.5453 -0.5215
5 9 33 -4.7604 -0.8038
7 9 33 -12.1932 0.1138
9 9 33 5.2339 1.3688
11 9 33 7.8963 0.4007
13 9 33 14.5086 0.8395
15 9 33 -17.7465 0.3895
17 9 33 -13.3202 -1.5786
19 9 33 -8.6396 -0.1141
21 9 33 3.7734 1.5533
23 9 33 4.2880 1.2639
-24 10 33 15.4135 -0.5515
-22 10 33 -4.7248 0.7974
-20 10 33 -8.3017 0.2853
-18 10 33 8.0323 -3.0115
-16 10 33 7.4355 -1.8243
-14 10 33 1.4311 2.0877
-12 10 33 -32.4390 -0.7771
-10 10 33 1.6278 -3.4891
-8 10 33 6.5262 0.1623
-6 10 33 -7.5302 2.6826
-4 10 33 -11.3181 -1.1494
-2 10 33 26.4547 -2.3928
0 10 33 -1.6245 2.0263
2 10 33 -0.0228 3.4127
4 10 33 -5.0749 -0.3020
6 10 33 -11.7230 -2.0910
8 10 33 -5.3154 1.1358
10 10 33 -2.3483 1.4726
12 10 33 -3.1886 -1.1178
14 10 33 -11.4314 -0.2832
16 10 33 -1.8965 1.5710
18 10 33 1.9617 -0.2042
20 10 33 -0.0119 -3.0665
22 10 33 -0.3996 -1.8871
-25 11 33 3.3344 -3.3274
-23 11 33 4.9411 2.6372
-21 11 33 13.6583 0.7309
-19 11 33 -1.3740 -1.8970
-17 11 33 9.3566 -1.0058
-15 11 33 -3.6213 3.5622
-13 11 33 1.0915 1.2467
-11 11 33 -5.4889 -2.9207
-9 11 33 0.8276 -0.3664
-7 11 33 -7.5241 4.4545
-5 11 33 -5.3050 1.4881
-3 11 33 -17.8746 -3.7982
-1 11 33 -7.2193 -1.8476
1 11 33 8.3775 1.8348
3 11 33 -6.7293 1.0854
5 11 33 8.5029 -1.6633
7 11 33 11.5652 1.3100
9 11 33 -6.7761 1.9951
11 11 33 3.2372 -2.1376
13 11 33 -2.4807 -3.6636
15 11 33 -4.2809 1.0700
17 11 33 2.8869 3.5085
19 11 33 -1.8110 0.4503
21 11 33 9.6277 -2.9537
-24 12 33 11.3015 0.9985
-22 12 33 -1.8811 0.6100
-20 12 33 -7.6165 -1.5478
-18 12 33 3.1676 -1.3168
-16 12 33 -7.7003 1.1232
-14 12 33 10.6445 0.8787
-12 12 33 -1.0311 -3.2329
-10 12 33 15.3694 -2.2676
-8 12 33 5.1431 1.2009
-6 12 33 6.3878 1.3851
-4 12 33 -16.5558 -0.9340
-2 12 33 5.8993 -1.2033
0 12 33 -6.1244 1.1159
2 12 33 -8.5321 1.3364
4 12 33 -1.3996 -1.0622
6 12 33 -0.9110 -0.0987
8 12 33 5.6200 2.5599
10 12 33 4.1812 1.8928
12 12 33 3.1248 -2.0145
14 12 33 0.0279 -0.9311
16 12 33 5.4737 1.1848
18 12 33 -0.7848 1.9335
20 12 33 -2.9456 0.6104
22 12 33 -3.8164 0.1306
-23 13 33 -3.9864 -0.7291
-21 13 33 -1.9143 -1.7736
-19 13 33 -7.0609 -0.5315
-17 13 33 0.0389 0.8776
-15 13 33 -8.5498 0.4447
-13 13 33 -17.1739 -1.3225
-11 13 33 -7.7661 -0.2145
-9 13 33 0.2193 0.9947
-7 13 33 10.0298 0.2433
-5 13 33 0.1049 0.1265
-3 13 33 0.8066 1.5222
-1 13 33 0.4905 0.9677
1 13 33 3.5913 -1.0852
3 13 33 2.5412 -0.8521
5 13 33 9.6338 1.0708
7 13 33 6.9773 0.9028
9 13 33 -6.6527 -1.3009
11 13 33 -4.2307 -2.0765
13 13 33 -5.1905 -0.3450
15 13 33 5.3621 0.8303
17 13 33 1.8920 1.0268
19 13 33 -9.1896 0.7359
21 13 33 10.8626 0.2631
-22 14 33 -4.6735 -0.0095
-20 14 33 -13.3791 0.6182
-18 14 33 -4.5850 -0.6294
-16 14 33 -22.8460 -0.5970
-14 14 33 10.8844 0.1422
-12 14 33 0.5546 0.2285
-10 14 33 3.6117 -0.0374
-8 14 33 -1.9754 -0.5158
-6 14 33 11.2844 0.0875
-4 14 33 -27.3522 0.2062
-2 14 33 -18.8970 -0.5366
0 14 33 3.0523 -0.5699
2 14 33 6.6126 0.0832
4 14 33 -6.2364 0.4915
6 14 33 1.1088 0.4524
8 14 33 -8.8054 0.1165
10 14 33 4.4393 -0.2578
12 14 33 0.4936 -0.1783
14 14 33 -1.3863 0.1294
16 14 33 -4.7382 0.6001
18 14 33 7.1569 0.4471
20 14 33 7.2658 0.6740
-23 15 33 -2.1345 -0.7788
-21 15 33 0.0437 1.2749
-19 15 33 -5.8293 0.1160
-17 15 33 -3.2023 0.5047
-15 15 33 5.1028 1.0007
-13 15 33 -7.8041 -0.2475
-11 15 33 -1.0595 -1.0568
-9 15 33 -4.5685 0.3463
-7 15 33 15.4593 1.1567
-5 15 33 -0.3124 0.5333
-3 15 33 5.0864 0.4585
-1 15 33 -4.0170 0.9379
1 15 33 -6.2867 -0.6867
3 15 33 6.2349 -1.4464
5 15 33 3.8472 -0.2238
7 15 33 0.8627 1.0842
9 15 33 5.7271 -0.8549
11 15 33 1.0543 -1.1671
13 15 33 -4.1231 0.3835
15 15 33 -12.6619 0.5623
17 15 33 16.6045 -0.3755
19 15 33 -0.6373 -0.3034
-22 16 33 -10.5367 1.8453
-20 16 33 -7.9413 -1.7789
-18 16 33 -2.6250 -2.2913
-16 16 33 -5.6913 1.3676
-14 16 33 2.5425 1.6581
-12 16 33 4.1669 -1.2760
-10 16 33 12.3678 -1.6338
-8 16 33 3.3363 0.7941
-6 16 33 1.5847 0.5139
-4 16 33 -11.5361 -2.5894
-2 16 33 -5.9732 -1.1603
0 16 33 -10.4164 2.7398
2 16 33 -8.8516 0.9261
4 16 33 0.6282 -2.6752
6 16 33 16.5827 -1.3492
8 16 33 -0.1796 1.2027
10 16 33 -7.7369 0.2722
12 16 33 -0.9975 -0.5996
14 16 33 4.3387 0.8621
16 16 33 -0.9281 1.5753
18 16 33 9.5591 1.0076
-21 17 33 1.6413 1.5788
-19 17 33 2.5099 -1.1999
-17 17 33 2.9963 0.7197
-15 17 33 3.4264 0.1294
-13 17 33 6.1550 -1.6533
-11 17 33 -3.7651 -0.0749
-9 17 33 -14.8100 2.3461
-7 17 33 6.3710 1.3759
-5 17 33 -0.4755 -1.2972
-3 17 33 -3.2946 -1.2892
-1 17 33 -1.8629 1.7935
1 17 33 -1.2284 1.8645
3 17 33 3.4642 0.5386
5 17 33 -3.4260 -1.0063
7 17 33 12.3350 -0.4025
9 17 33 16.7939 -1.0363
11 17 33 7.9455 -1.0060
13 17 33 2.0602 1.2163
15 17 33 -14.2374 1.8224
17 17 33 0.7871 0.3701
-20 18 33 6.1489 -0.4085
-18 18 33 -0.9212 1.9469
-16 18 33 7.4678 1.2162
-14 18 33 -3.6241 -0.1988
-12 18 33 18.4006 -0.8141
-10 18 33 5.1180 -0.2005
-8 18 33 2.0484 0.9958
-6 18 33 -5.9476 0.3586
-4 18 33 -4.5062 -0.4685
-2 18 33 0.3242 -0.5358
0 18 33 -6.4274 -0.2536
2 18 33 13.2228 -0.6231
4 18 33 17.0124 -0.3248
6 18 33 1.5090 1.0962
8 18 33 -4.9533 0.2680
10 18 33 -2.7832 -1.4339
12 18 33 -2.8146 0.6579
14 18 33 -3.4043 0.9021
16 18 33 3.0813 0.9963
-19 19 33 -5.5131 -1.1970
-17 19 33 5.1802 0.3668
-15 19 33 1.1211 -2.0671
-13 19 33 -0.3190 -0.7085
-11 19 33 -4.5457 0.8965
-9 19 33 -10.9725 0.3667
-7 19 33 4.0079 -0.9418
-5 19 33 -9.1498 -0.8564
-3 19 33 -3.1739 -0.1622
-1 19 33 -0.0177 0.5523
1 19 33 -9.2019 -0.0686
3 19 33 8.9827 0.2445
5 19 33 10.0367 0.8612
7 19 33 1.1996 -0.3653
9 19 33 2.2060 -2.5467
11 19 33 6.7942 0.2296
13 19 33 4.5736 1.2280
15 19 33 7.0425 0.0953
17 19 33 6.6058 -2.7672
-18 20 33 -2.3424 1.7074
-16 20 33 -6.3653 0.7372
-14 20 33 -16.0598 0.4649
-12 20 33 19.0005 -0.4964
-10 20 33 -3.2712 -0.1165
-8 20 33 -13.9973 2.1143
-6 20 33 12.8547 1.0453
-4 20 33 9.7385 -1.4877
-2 20 33 9.1644 -1.2693
0 20 33 8.0516 0.2429
2 20 33 7.4496 0.1568
4 20 33 -5.8097 -0.2239
6 20 33 3.0472 0.2237
8 20 33 -4.5416 -0.4605
10 20 33 -1.7782 -1.0514
12 20 33 -26.3783 -0.1133
14 20 33 10.7473 1.0632
-17 21 33 1.0419 1.7648
-15 21 33 2.5943 -0.1608
-13 21 33 10.2267 -0.7225
-11 21 33 -3.6193 -2.3501
-9 21 33 -1.4246 -0.9456
-7 21 33 -6.9969 1.1899
-5 21 33 2.8652 0.8809
-3 21 33 0.9669 -0.5363
-1 21 33 8.2520 0.7506
1 21 33 -16.0594 0.6222
3 21 33 3.2116 0.2829
5 21 33 10.4003 -0.1890
7 21 33 0.0338 1.4019
9 21 33 2.9560 1.7813
11 21 33 8.2343 1.9746
13 21 33 -5.6695 -1.0139
-16 22 33 -4.2464 0.2185
-14 22 33 -8.7048 -0.6361
-12 22 33 1.4412 -0.4600
-10 22 33 -1.6622 0.0119
-8 22 33 -12.6570 0.6829
-6 22 33 15.4826 0.3595
-4 22 33 0.9520 -0.9654
-2 22 33 17.8501 -0.1695
0 22 33 -2.1468 1.4692
2 22 33 3.7425 1.0505
4 22 33 -2.7148 -1.3378
6 22 33 10.1748 -1.0438
8 22 33 5.1152 -0.2024
10 22 33 -6.9471 1.0405
12 22 33 -19.4980 0.7883
-13 23 33 3.1711 -0.9565
-11 23 33 2.5251 0.8158
-9 23 33 6.8651 0.1194
-7 23 33 -12.2158 -0.4900
-5 23 33 9.9255 -0.5775
-3 23 33 -6.0183 -0.0040
-1 23 33 14.1230 -0.2717
1 23 33 -5.3288 -1.7467
3 23 33 -10.9163 -0.7363
5 23 33 -2.3104 1.3251
7 23 33 1.9229 0.0469
9 23 33 -3.6220 -0.7803
11 23 33 1.6152 -0.0475
-12 24 33 6.1661 0.1900
-10 24 33 8.4310 -0.1258
-8 24 33 -5.6516 -1.6135
-6 24 33 13.0823 -0.6824
-4 24 33 2.4030 0.7603
-2 24 33 2.8050 1.0642
0 24 33 -8.0816 0.1845
2 24 33 11.0406 0.5728
4 24 33 -9.2347 0.4177
6 24 33 2.2868 0.0512
8 24 33 4.7832 1.5963
10 24 33 -15.4399 0.5786
-9 25 33 10.6707 -0.2185
-7 25 33 5.0013 1.0894
-5 25 33 5.4036 0.3850
-3 25 33 -7.2735 -0.5144
-1 25 33 -2.5807 -0.4470
1 25 33 -8.6335 1.4242
3 25 33 -1.7057 0.0567
5 25 33 17.5569 -0.7270
7 25 33 15.4577 0.9659
-6 26 33 -0.3188 0.2647
-4 26 33 1.9827 -1.7226
-2 26 33 -4.4878 -0.8227
0 26 33 -8.4009 0.9187
2 26 33 -2.5857 0.8776
4 26 33 -4.4262 -0.3522
-26 0 34 -5.7090 6.1727
-24 0 34 -3.7466 3.4089
-22 0 34 -2.5751 -7.8568
-20 0 34 2.1630 -6.3020
-18 0 34 -8.6739 4.6390
-16 0 34 -14.1200 2.4463
-14 0 34 -3.9702 -7.6782
-12 0 34 -7.9609 -2.5797
-10 0 34 19.9353 6.3299
-8 0 34 20.3122 -1.9716
-6 0 34 -15.7005 -8.0706
-4 0 34 -2.2950 6.7634
-2 0 34 -6.6182 18.3744
0 0 34 -13.0766 4.7439
2 0 34 10.5716 -8.5446
4 0 34 1.9940 2.0711
6 0 34 4.0771 10.6464
8 0 34 22.8058 0.5661
10 0 34 -7.6012 -3.9581
12 0 34 6.0264 3.5547
14 0 34 0.6533 0.9463
16 0 34 -4.0632 -10.4893
18 0 34 -0.5757 -5.8171
20 0 34 11.4793 7.8352
22 0 34 -1.9525 3.6385
-25 1 34 -2.0830 4.9951
-23 1 34 -9.8279 -5.3689
-21 1 34 5.7420 -6.3888
-19 1 34 -8.5789 8.9748
-17 1 34 -9.0922 7.3841
-15 1 34 5.4647 -11.7271
-13 1 34 10.8395 -7.8165
-11 1 34 5.8843 16.0332
-9 1 34 -6.2650 10.6417
-7 1 34 5.1318 -13.2944
-5 1 34 -2.1872 -5.4839
-3 1 34 -12.7543 15.6190
-1 1 34 -2.6801 2.6332
1 1 34 -14.5121 -15.0021
3 1 34 -5.1254 3.5373
5 1 34 -0.4923 17.8986
7 1 34 5.6602 -4.9289
9 1 34 -16.3945 -18.9734
11 1 34 -2.3978 2.7924
13 1 34 19.0109 14.8874
15 1 34 -2.2785 -1.8887
17 1 34 12.6790 -10.3632
19 1 34 9.6746 0.9236
21 1 34 10.3233 4.6172
23 1 34 5.8049 -0.7337
-26 2 34 10.6611 -0.7872
-24 2 34 0.6638 -0.9852
-22 2 34 -0.4638 -0.7113
-20 2 34 3.9453 -0.7890
-18 2 34 -2.8340 -1.4659
-16 2 34 -14.3488 -1.0727
-14 2 34 3.2139 1.1715
-12 2 34 -12.3726 -1.3155
-10 2 34 -5.0740 -3.4361
-8 2 34 -7.1538 -1.1126
-6 2 34 -8.0765 2.4460
-4 2 34 -3.7691 1.7920
-2 2 34 12.2158 -0.2635
0 2 34 14.4975 0.1675
2 2 34 -6.1799 0.3346
4 2 34 4.7338 -0.1668
6 2 34 2.4661 1.0843
8 2 34 -6.2570 2.6708
10 2 34 -10.4354 1.3340
12 2 34 -6.1044 -1.8435
14 2 34 3.3516 -1.9001
16 2 34 -4.5519 0.9507
18 2 34 2.6719 1.3081
20 2 34 -0.0598 1.5965
22 2 34 5.2927 0.8483
-25 3 34 4.8797 0.2105
-23 3 34 -1.9021 0.9248
-21 3 34 -1.7738 -1.3538
-19 3 34 -2.2900 0.3066
-17 3 34 -0.6919 1.0629
-15 3 34 16.6959 -1.4909
-13 3 34 -4.4592 -1.1397
-11 3 34 -2.9467 3.7192
-9 3 34 7.1837 4.0249
-7 3 34 4.3587 -1.3557
-5 3 34 -3.9134 -2.9327
-3 3 34 -6.6953 0.3709
-1 3 34 -17.6824 2.7706
1 3 34 -12.6451 2.3636
3 3 34 7.5883 1.8004
5 3 34 -1.8853 -0.9565
7 3 34 10.6492 -4.7616
9 3 34 6.3988 -3.7797
11 3 34 -0.8568 2.4264
13 3 34 5.0187 5.7068
15 3 34 7.3921 0.1488
17 3 34 0.8084 -3.9844
19 3 34 0.7819 -3.7137
21 3 34 9.9472 -1.1928
23 3 34 5.9889 2.5840
-26 4 34 -0.8740 -0.7043
-24 4 34 -8.8688 1.5391
-22 4 34 0.6057 -1.8339
-20 4 34 -8.8867 -0.7596
-18 4 34 -0.5625 2.8970
-16 4 34 -8.9035 0.0413
-14 4 34 0.4036 -4.2545
-12 4 34 7.3432 -1.1128
-10 4 34 -6.8569 4.5452
-8 4 34 -22.2961 1.3255
-6 4 34 -1.1689 -3.0197
-4 4 34 -22.3419 -1.2325
-2 4 34 -6.5896 0.6927
0 4 34 22.3791 -1.1351
2 4 34 -37.7128 -0.1851
4 4 34 12.7391 4.0462
6 4 34 5.0538 2.4081
8 4 34 -5.4565 -4.1230
10 4 34 5.4472 -3.4227
12 4 34 -1.9373 2.6196
14 4 34 -3.8544 3.8906
16 4 34 -6.2865 -0.2930
18 4 34 1.8676 -0.5067
20 4 34 -8.5021 -0.8081
22 4 34 11.3377 0.9281
-25 5 34 16.2158 1.0609
-23 5 34 2.1938 -3.6492
-21 5 34 4.5835 -2.8446
-19 5 34 7.6527 5.2506
-17 5 34 -10.6522 3.2385
-15 5 34 14.3362 -6.2710
-13 5 34 -25.8961 -3.8446
-11 5 34 -7.9907 6.3974
-9 5 34 1.8405 2.6348
-7 5 34 -2.4380 -7.8221
-5 5 34 9.4490 -1.9074
-3 5 34 9.7270 8.4486
-1 5 34 -7.8014 0.8606
1 5 34 -2.7890 -9.0290
3 5 34 -3.1875 -0.0647
5 5 34 0.0402 7.9935
7 5 34 6.4940 -1.1727
9 5 34 -8.7573 -7.6216
11 5 34 -12.4402 1.9268
13 5 34 -6.9333 5.6704
15 5 34 0.9176 -2.7741
17 5 34 -1.9837 -5.1817
19 5 34 -9.7706 2.2173
21 5 34 -4.0378 4.8037
23 5 34 -4.1702 -0.3810
-26 6 34 -4.6226 0.1076
-24 6 34 2.7673 -3.0795
-22 6 34 8.9498 -1.4361
-20 6 34 5.7141 1.7334
-18 6 34 4.3707 0.9368
-16 6 34 4.1631 -2.6024
-14 6 34 2.0215 -0.9774
-12 6 34 -2.8638 2.7728
-10 6 34 -2.6819 2.0631
-8 6 34 -7.7421 -1.1419
-6 6 34 -3.8635 -1.5509
-4 6 34 -8.7682 -0.7205
-2 6 34 -9.4986 -0.4604
0 6 34 4.6723 0.4262
2 6 34 -10.9902 0.9735
4 6 34 -10.5552 0.4979
6 6 34 -15.7112 -1.4670
8 6 34 6.8552 -2.4554
10 6 34 12.5976 -1.0322
12 6 34 -6.6236 2.6921
14 6 34 -10.8738 3.9079
16 6 34 9.9993 -0.2293
18 6 34 5.3025 -2.9461
20 6 34 -3.2733 -2.8643
22 6 34 9.8836 1.6247
-25 7 34 5.6121 -0.2886
-23 7 34 4.3297 -1.0878
-21 7 34 6.8891 1.4454
-19 7 34 2.2150 -0.1753
-17 7 34 -6.6664 -1.3606
-15 7 34 16.6563 0.3578
-13 7 34 -4.9160 0.4507
-11 7 34 15.8179 -1.5453
-9 7 34 1.6331 -1.9496
-7 7 34 -7.7638 2.2683
-5 7 34 3.6066 2.6358
-3 7 34 -19.7202 -1.3877
-1 7 34 -7.0669 -2.2703
1 7 34 -4.0244 0.2575
3 7 34 -18.0445 0.8813
5 7 34 1.9176 -0.1406
7 7 34 3.0293 1.4113
9 7 34 -8.2856 2.0096
11 7 34 -2.7187 -1.6488
13 7 34 13.4502 -3.6544
15 7 34 -15.5235 -0.6675
17 7 34 -1.0428 3.5548
19 7 34 11.4124 2.7550
21 7 34 0.0624 -0.7449
23 7 34 2.7131 -1.3338
-24 8 34 1.1759 -0.4993
-22 8 34 1.9354 1.6472
-20 8 34 6.7346 0.1193
-18 8 34 -7.0258 -0.0672
-16 8 34 -2.2892 2.9095
-14 8 34 5.4337 2.3142
-12 8 34 -13.4551 -0.9019
-10 8 34 -5.9800 -2.8978
-8 8 34 -0.3695 0.2038
-6 8 34 -14.3265 1.6357
-4 8 34 0.6855 -1.0608
-2 8 34 -0.1376 -2.1099
0 8 34 -19.4566 -0.3245
2 8 34 0.1894 -0.7353
4 8 34 -7.0447 -2.4818
6 8 34 -11.5019 -2.1329
8 8 34 2.8376 1.9126
10 8 34 8.9848 2.9574
12 8 34 -7.6594 -1.3050
14 8 34 -7.7155 -3.8295
16 8 34 8.0669 0.8332
18 8 34 -2.6187 1.9037
20 8 34 -2.3832 -0.3865
22 8 34 2.3560 0.3851
-25 9 34 -8.7272 1.5249
-23 9 34 -7.1553 -1.8712
-21 9 34 -1.0208 -0.8499
-19 9 34 -9.4832 -0.1576
-17 9 34 3.8314 0.5540
-15 9 34 15.0622 -1.3768
-13 9 34 1.2823 -1.5141
-11 9 34 -4.6313 1.1707
-9 9 34 -13.3373 -0.3459
-7 9 34 -2.6305 -2.6347
-5 9 34 15.7882 -0.1853
-3 9 34 -13.4307 2.7375
-1 9 34 14.5823 0.6501
1 9 34 14.3320 -1.9256
3 9 34 2.7971 0.8695
5 9 34 11.0307 3.0209
7 9 34 3.9947 -0.1637
9 9 34 -10.0039 -0.9022
11 9 34 -12.3146 1.3693
13 9 34 -4.7232 1.3294
15 9 34 -2.8171 -1.7769
17 9 34 0.2185 -1.2464
19 9 34 11.4246 0.4696
21 9 34 -7.8567 -1.0005
-24 10 34 -0.1559 -2.0199
-22 10 34 8.3676 -0.7508
-20 10 34 2.5652 1.4203
-18 10 34 0.0813 2.1336
-16 10 34 -3.9221 -0.1786
-14 10 34 3.1221 -1.1793
-12 10 34 -7.7092 2.4707
-10 10 34 -3.6339 1.1879
-8 10 34 3.7198 -1.8134
-6 10 34 -6.0187 -0.4194
-4 10 34 4.6977 3.4276
-2 10 34 -8.8375 1.3186
0 10 34 -13.3779 -3.4451
2 10 34 -4.0050 -3.2169
4 10 34 3.5615 1.5020
6 10 34 -11.3516 1.5302
8 10 34 7.9978 -0.3609
10 10 34 2.3217 -0.4696
12 10 34 8.2173 0.2090
14 10 34 2.4777 -2.3257
16 10 34 3.2971 -2.1399
18 10 34 5.6039 1.3486
20 10 34 4.4570 2.5835
22 10 34 5.8967 -0.8647
-23 11 34 -8.6082 -0.8743
-21 11 34 1.4221 0.3482
-19 11 34 -5.5418 1.0683
-17 11 34 5.3367 0.4257
-15 11 34 2.2317 -0.4816
-13 11 34 10.0064 0.4126
-11 11 34 9.7579 0.2443
-9 11 34 -10.2497 -2.0332
-7 11 34 -1.0374 -2.5896
-5 11 34 1.1105 0.2999
-3 11 34 -26.7932 1.4924
-1 11 34 0.9735 0.2521
1 11 34 6.5368 -0.6516
3 11 34 12.3884 -0.1687
5 11 34 18.4678 0.0961
7 11 34 -7.0619 0.0825
9 11 34 -5.8731 1.2969
11 11 34 -4.3627 2.3572
13 11 34 -6.9013 0.1596
15 11 34 4.6013 -1.9566
17 11 34 1.0451 -1.4361
19 11 34 1.7005 -0.2705
21 11 34 1.8478 -0.1298
-24 12 34 -11.4668 -2.4398
-22 12 34 -4.1711 1.1154
-20 12 34 -16.4125 -0.4013
-18 12 34 -6.4045 -1.5733
-16 12 34 -9.5290 -0.9281
-14 12 34 -0.9454 1.0963
-12 12 34 -5.9428 1.3920
-10 12 34 2.8106 -0.6652
-8 12 34 -9.1954 -0.8297
-6 12 34 15.6436 0.6635
-4 12 34 2.1320 1.4294
-2 12 34 -10.6857 -0.2568
0 12 34 2.8698 0.7620
2 12 34 1.4488 2.6411
4 12 34 -8.7120 0.4692
6 12 34 -8.4149 -1.9801
8 12 34 -2.5733 -0.9702
10 12 34 -1.1514 1.0413
12 12 34 0.2794 -0.3187
14 12 34 -2.8536 -2.3554
16 12 34 5.7481 -0.0491
18 12 34 8.5285 0.6840
20 12 34 -1.9539 -0.9471
-23 13 34 -3.9699 2.2644
-21 13 34 -3.4568 1.4009
-19 13 34 -4.7184 0.3816
-17 13 34 -13.9772 -0.0705
-15 13 34 4.7602 0.4940
-13 13 34 7.7508 0.1561
-11 13 34 -9.7585 0.0083
-9 13 34 -5.3383 0.4701
-7 13 34 2.1771 0.2799
-5 13 34 -1.5042 -0.7050
-3 13 34 -3.5072 -1.1058
-1 13 34 -0.0719 -1.0978
1 13 34 -4.6752 0.9251
3 13 34 2.0652 0.9824
5 13 34 6.0680 0.0269
7 13 34 -3.9637 -1.1639
9 13 34 -3.8830 0.7434
11 13 34 -8.6332 1.3174
13 13 34 13.3728 -0.3571
15 13 34 11.7847 -1.1746
17 13 34 15.9753 0.3066
19 13 34 8.7543 0.3461
-22 14 34 -3.6063 -1.1001
-20 14 34 -3.7544 0.3336
-18 14 34 -3.7433 1.2087
-16 14 34 1.5063 -0.7110
-14 14 34 -6.7658 -0.0662
-12 14 34 4.4733 0.5297
-10 14 34 10.8894 0.0569
-8 14 34 -11.6433 -1.2468
-6 14 34 4.4206 -0.4366
-4 14 34 -8.7857 1.1331
-2 14 34 -8.6327 0.4669
0 14 34 -4.2299 0.0866
2 14 34 5.5001 0.8417
4 14 34 3.3274 0.9135
6 14 34 -0.1374 -0.9902
8 14 34 -0.1763 0.1317
10 14 34 6.4728 1.0270
12 14 34 6.3966 0.0772
14 14 34 -1.4289 -0.7902
16 14 34 -1.0923 -0.3145
18 14 34 1.0656 -1.1330
-21 15 34 -2.3282 -0.3201
-19 15 34 -7.3518 1.2437
-17 15 34 -7.9954 -1.4067
-15 15 34 11.3596 -1.7498
-13 15 34 1.8587 1.0434
-11 15 34 -16.5929 1.0821
-9 15 34 7.2182 -0.3047
-7 15 34 6.1144 -0.9597
-5 15 34 7.8500 0.0523
-3 15 34 -4.0621 -0.1012
-1 15 34 10.4436 -1.2612
1 15 34 -3.9223 0.5170
3 15 34 5.2852 1.6795
5 15 34 -0.6693 0.0793
7 15 34 -7.3541 -1.3064
9 15 34 7.1520 -0.7811
11 15 34 -9.4442 0.0861
13 15 34 -3.5177 0.0738
15 15 34 -6.9992 -0.2349
17 15 34 13.0649 0.2411
19 15 34 3.3884 1.1670
-20 16 34 3.3846 2.1739
-18 16 34 -7.2600 -1.1161
-16 16 34 12.1407 -2.5489
-14 16 34 3.5456 0.1907
-12 16 34 19.7370 0.2101
-10 16 34 -6.0415 -0.5642
-8 16 34 -12.7752 0.2034
-6 16 34 -5.6621 1.7391
-4 16 34 -1.1465 -0.0203
-2 16 34 8.0900 -1.6226
0 16 34 -2.6602 0.2350
2 16 34 1.0271 1.8834
4 16 34 -3.4818 0.6897
6 16 34 4.1082 -0.4328
8 16 34 -4.8014 0.2605
10 16 34 -3.7715 0.4975
12 16 34 7.6062 -1.2660
14 16 34 0.4759 -1.1422
16 16 34 -1.9924 0.5904
18 16 34 -14.2507 -0.1223
-19 17 34 -6.0082 -0.1546
-17 17 34 3.1399 -1.0983
-15 17 34 -5.6564 2.6053
-13 17 34 -13.4381 2.1407
-11 17 34 -12.2140 -1.8042
-9 17 34 -7.4881 -0.6070
-7 17 34 -11.9191 0.9901
-5 17 34 0.4247 0.4638
-3 17 34 7.9369 -1.1579
-1 17 34 10.2501 -0.8946
1 17 34 -1.0384 0.3256
3 17 34 18.6868 -0.6010
5 17 34 -1.2479 -1.8772
7 17 34 -15.4246 -0.4035
9 17 34 5.0763 2.2689
11 17 34 -9.0111 0.1983
13 17 34 5.2530 -2.3841
15 17 34 8.3475 -1.9328
17 17 34 4.9969 1.2714
-18 18 34 -19.1418 -2.0784
-16 18 34 -10.0577 0.6589
-14 18 34 -14.8328 1.4759
-12 18 34 5.0597 -1.0018
-10 18 34 -1.8900 -1.4851
-8 18 34 -5.0588 1.3103
-6 18 34 2.8216 0.6344
-4 18 34 -1.6541 -1.3140
-2 18 34 -0.4794 -0.4596
0 18 34 -4.6422 1.8579
2 18 34 -17.3918 0.9682
4 18 34 -3.2103 -1.8313
6 18 34 11.3566 -1.9487
8 18 34 -14.2410 1.5942
10 18 34 7.1934 1.7764
12 18 34 -6.5598 -0.0766
14 18 34 -6.0315 -2.2390
16 18 34 1.4369 1.6301
-17 19 34 4.2689 -0.4089
-15 19 34 -1.2251 0.8993
-13 19 34 -8.6016 -0.0774
-11 19 34 0.1216 -0.5174
-9 19 34 2.9599 1.2421
-7 19 34 8.4017 0.8246
-5 19 34 -0.8263 0.0294
-3 19 34 5.7740 -0.1534
-1 19 34 4.5461 0.1359
1 19 34 -1.5984 -0.1862
3 19 34 7.9323 -0.4199
5 19 34 -2.8798 -0.8404
7 19 34 5.7335 -0.1579
9 19 34 -7.4905 -0.0126
11 19 34 -6.9281 -0.2234
13 19 34 -1.2967 -0.6504
15 19 34 12.4186 -2.3102
-16 20 34 -8.7346 0.1267
-14 20 34 1.6777 -0.0611
-12 20 34 1.2006 1.3672
-10 20 34 -4.9951 0.5621
-8 20 34 -7.8930 -1.2935
-6 20 34 -12.4173 -1.4262
-4 20 34 3.9228 0.2053
-2 20 34 10.8674 0.7042
0 20 34 12.0496 -0.1541
2 20 34 -6.4350 -2.0411
4 20 34 -9.5492 0.0028
6 20 34 2.0459 0.2439
8 20 34 -10.0202 -0.3064
10 20 34 7.4365 1.2260
12 20 34 -5.5451 0.1829
14 20 34 -6.6562 -0.1805
-15 21 34 4.0796 -0.3013
-13 21 34 -18.1854 0.1178
-11 21 34 -5.6359 0.2493
-9 21 34 3.7536 0.0123
-7 21 34 3.7362 -1.2706
-5 21 34 7.0234 -1.1035
-3 21 34 1.3793 0.0403
-1 21 34 3.9795 0.7509
1 21 34 -12.0912 0.1838
3 21 34 1.8185 0.0402
5 21 34 3.6971 -1.6459
7 21 34 7.0229 -1.8525
9 21 34 -6.8699 0.6185
11 21 34 -5.3449 0.9125
13 21 34 4.4138 3.1618
-14 22 34 5.0978 -1.3302
-12 22 34 -8.6852 -1.0606
-10 22 34 9.6542 -0.3096
-8 22 34 11.5664 1.2868
-6 22 34 -10.8604 1.7024
-4 22 34 -1.8441 -0.3057
-2 22 34 -4.5517 -1.4427
0 22 34 -13.3609 0.5879
2 22 34 0.8214 1.3749
4 22 34 -17.3196 -0.0551
6 22 34 1.9520 0.6367
8 22 34 12.2385 1.2978
10 22 34 -4.5679 0.0132
-13 23 34 -6.7460 -0.1193
-11 23 34 4.7741 0.8340
-9 23 34 0.9480 0.9577
-7 23 34 0.5122 1.1215
-5 23 34 -8.3291 0.3364
-3 23 34 -3.5994 -1.2913
-1 23 34 5.4802 -0.1115
1 23 34 4.0687 0.9844
3 23 34 -8.0248 -0.3872
5 23 34 10.3895 -0.4565
7 23 34 8.3461 -0.9254
9 23 34 -10.9740 -0.0456
-10 24 34 12.7750 0.4338
-8 24 34 7.0296 -1.2056
-6 24 34 -6.2253 -2.6196
-4 24 34 11.4750 -0.3412
-2 24 34 10.9315 0.0941
0 24 34 -11.7290 -0.5497
2 24 34 5.5971 -0.6651
4 24 34 3.2186 1.2326
6 24 34 3.6990 1.9815
8 24 34 13.8683 0.2932
-7 25 34 -1.7994 1.1694
-5 25 34 -7.3841 2.4431
-3 25 34 -7.6578 0.7382
-1 25 34 -6.0905 -0.9406
1 25 34 6.6784 -0.2784
3 25 34 -14.8718 0.5057
5 25 34 11.6427 0.7422
-25 1 35 9.0110 5.4940
-23 1 35 4.3615 -3.0386
-21 1 35 2.5887 -9.5051
-19 1 35 -4.1370 6.1645
-17 1 35 -1.6633 14.3942
-15 1 35 0.4506 -6.3933
-13 1 35 -4.7138 -16.6370
-11 1 35 3.0171 6.0395
-9 1 35 7.9903 12.2725
-7 1 35 -0.3001 -9.5489
-5 1 35 -0.2107 -9.3390
-3 1 35 2.0174 13.4497
-1 1 35 -13.0238 5.6398
1 1 35 -12.4257 -21.4578
3 1 35 4.4538 -7.2500
5 1 35 -6.9502 23.1176
7 1 35 -2.1008 9.8724
9 1 35 -0.0950 -15.9327
11 1 35 -7.0992 -5.5120
13 1 35 -0.5275 11.3043
15 1 35 18.8846 1.2402
17 1 35 5.4919 -6.7816
19 1 35 1.6649 4.2978
21 1 35 -2.6235 8.0705
23 1 35 2.5288 -6.2361
-26 2 35 -2.1379 5.2378
-24 2 35 -4.6210 1.5009
-22 2 35 4.8685 -4.4862
-20 2 35 4.0501 -1.1639
-18 2 35 20.8576 3.4937
-16 2 35 3.8826 -2.0595
-14 2 35 -4.5723 -6.7361
-12 2 35 -0.3212 3.2268
-10 2 35 -14.4431 8.4746
-8 2 35 -23.3405 -1.6473
-6 2 35 15.3303 -8.4964
-4 2 35 1.7427 2.1090
-2 2 35 -1.4600 7.9769
0 2 35 27.2762 -0.0591
2 2 35 -0.8388 -2.9022
4 2 35 -2.8414 4.1040
6 2 35 8.4288 2.2317
8 2 35 -4.4021 -7.6529
10 2 35 21.8945 -4.7477
12 2 35 17.1010 6.2139
14 2 35 -13.6549 5.8475
16 2 35 -3.8994 -4.0093
18 2 35 0.8270 -6.1920
20 2 35 -5.4207 -0.3917
22 2 35 12.3003 3.0333
-25 3 35 -0.4094 -0.3417
-23 3 35 5.5353 1.2589
-21 3 35 -6.1242 1.4162
-19 3 35 -10.5926 1.9750
-17 3 35 -3.8155 0.8023
-15 3 35 -7.4605 0.3332
-13 3 35 -19.6448 -0.6780
-11 3 35 1.4861 -0.4409
-9 3 35 2.0929 1.4166
-7 3 35 2.9686 3.4369
-5 3 35 1.6099 1.9749
-3 3 35 -1.4914 -1.3826
-1 3 35 -9.6497 -3.9311
1 3 35 -8.9524 -2.1457
3 3 35 6.7438 2.0765
5 3 35 -2.7375 4.3084
7 3 35 4.4506 0.9864
9 3 35 2.8963 -3.0847
11 3 35 -15.6136 -3.7897
13 3 35 -15.1795 -1.0782
15 3 35 -4.1191 2.4310
17 3 35 11.0474 1.6205
19 3 35 -7.7763 0.2922
21 3 35 1.5650 -2.7793
-24 4 35 2.8794 0.1924
-22 4 35 17.0605 1.4223
-20 4 35 8.1660 -3.6870
-18 4 35 3.5191 -3.6864
-16 4 35 -3.3110 1.4345
-14 4 35 -4.8576 2.9766
-12 4 35 0.6942 -2.4613
-10 4 35 -3.0463 -4.4570
-8 4 35 -10.2544 1.5841
-6 4 35 3.2999 2.1698
-4 4 35 10.1667 -0.9762
-2 4 35 -18.9608 1.0964
0 4 35 4.2524 5.2353
2 4 35 -2.7389 0.8392
4 4 35 -2.0529 -5.1309
6 4 35 -4.3496 -1.3285
8 4 35 -1.3207 5.5037
10 4 35 12.5533 3.3493
12 4 35 -2.5452 -2.3050
14 4 35 -6.2545 -2.7112
16 4 35 3.1858 -1.1556
18 4 35 2.9282 -0.6754
20 4 35 -8.9866 1.2591
22 4 35 -14.1545 2.7037
-25 5 35 -2.6240 -0.7878
-23 5 35 11.2113 2.1089
-21 5 35 -0.0514 -1.8911
-19 5 35 5.3743 -1.3779
-17 5 35 4.0166 1.2772
-15 5 35 2.1490 0.5546
-13 5 35 1.2021 -0.4688
-11 5 35 13.4731 1.0466
-9 5 35 -12.7498 3.2599
-7 5 35 -11.6792 -0.2307
-5 5 35 7.3202 -3.1567
-3 5 35 -15.5089 0.1016
-1 5 35 5.1162 2.2365
1 5 35 -4.5671 0.5497
3 5 35 3.5201 -1.2974
5 5 35 -5.7486 -0.5116
7 5 35 1.5316 -1.0495
9 5 35 -2.8110 -2.2883
11 5 35 10.4609 0.5535
13 5 35 15.5179 1.7510
15 5 35 -2.5397 1.5534
17 5 35 28.1442 -0.6505
19 5 35 1.3903 -0.7026
21 5 35 14.7002 -1.0931
-24 6 35 -11.2377 -0.1903
-22 6 35 11.3164 -2.5333
-20 6 35 8.5045 -1.1738
-18 6 35 -3.4814 2.0886
-16 6 35 -9.3741 0.7928
-14 6 35 0.3727 -2.3713
-12 6 35 6.9420 -0.1087
-10 6 35 -8.4631 2.2453
-8 6 35 6.5260 -0.0835
-6 6 35 -7.8394 -1.8448
-4 6 35 -4.3351 2.8092
-2 6 35 -23.2532 4.0737
0 6 35 -11.0069 -1.8946
2 6 35 4.4531 -3.8754
4 6 35 10.8278 1.1447
6 6 35 4.1604 4.5192
8 6 35 15.2947 0.5622
10 6 35 8.0537 -1.3806
12 6 35 -18.1628 0.2581
14 6 35 -1.9839 -0.0406
16 6 35 3.0888 -2.4721
18 6 35 4.4738 -1.2756
20 6 35 12.8854 3.6135
22 6 35 -9.5861 -0.0331
-25 7 35 -7.3881 0.4608
-23 7 35 -0.2598 1.1235
-21 7 35 -8.4415 -1.7391
-19 7 35 5.1161 -0.3846
-17 7 35 2.7458 0.7640
-15 7 35 3.7998 0.0098
-13 7 35 3.5240 1.0521
-11 7 35 -4.4908 1.8338
-9 7 35 -9.2966 -0.1382
-7 7 35 -6.2020 -3.9431
-5 7 35 17.1523 -2.3886
-3 7 35 -14.6360 3.0560
-1 7 35 0.4931 3.3274
1 7 35 1.4114 -1.4956
3 7 35 0.4323 -3.9445
5 7 35 -9.5462 -2.1303
7 7 35 1.0097 0.0294
9 7 35 -9.8753 0.3213
11 7 35 3.8291 2.3910
13 7 35 13.1123 2.0918
15 7 35 1.2957 -2.5643
17 7 35 -1.5046 -4.6855
19 7 35 -7.7823 0.0578
21 7 35 -1.4033 2.7940
-24 8 35 -13.9553 -1.0723
-22 8 35 -2.0619 -0.2527
-20 8 35 3.5410 -0.6670
-18 8 35 -4.0913 -0.7680
-16 8 35 1.0996 -0.6166
-14 8 35 -2.6868 -0.3342
-12 8 35 17.9366 -0.4357
-10 8 35 -11.9026 0.4255
-8 8 35 -1.5182 0.7377
-6 8 35 12.9784 -0.8519
-4 8 35 5.6274 -1.1447
-2 8 35 -8.7160 0.2124
0 8 35 2.5300 0.9177
2 8 35 9.8231 0.0069
4 8 35 11.5135 0.4482
6 8 35 -3.2326 1.6725
8 8 35 5.8442 -0.2239
10 8 35 10.9150 -1.6600
12 8 35 4.0765 -0.1347
14 8 35 -0.4717 2.3141
16 8 35 -4.3274 1.1799
18 8 35 -0.0212 -0.0187
20 8 35 9.5661 -0.8263
-23 9 35 0.4913 0.4030
-21 9 35 -7.8145 -1.1169
-19 9 35 6.2692 -2.0969
-17 9 35 13.1042 1.0343
-15 9 35 -7.3445 1.6998
-13 9 35 4.3459 -0.0890
-11 9 35 2.8981 -0.0997
-9 9 35 -2.8872 1.1525
-7 9 35 -5.7547 0.7856
-5 9 35 -1.7148 0.0566
-3 9 35 12.4056 0.6711
-1 9 35 0.9925 0.3629
1 9 35 -2.2739 -0.5955
3 9 35 2.0324 -1.1929
5 9 35 -1.9006 -0.6678
7 9 35 -4.4657 0.3631
9 9 35 -7.3668 0.7354
11 9 35 -8.0523 0.6112
13 9 35 3.2571 -0.1816
15 9 35 11.3063 -0.1660
17 9 35 3.7475 0.7126
19 9 35 7.6177 2.4710
21 9 35 0.1539 1.1647
-24 10 35 -4.9230 3.7513
-22 10 35 -2.9590 -0.6215
-20 10 35 17.9199 -1.3838
-18 10 35 -0.9858 1.5266
-16 10 35 0.3273 1.6677
-14 10 35 1.8380 -2.1714
-12 10 35 13.1666 -1.0270
-10 10 35 -7.2495 2.5464
-8 10 35 -15.8301 -0.6753
-6 10 35 4.4023 -4.3447
-4 10 35 -12.7160 -0.9786
-2 10 35 -34.7514 2.0024
0 10 35 8.6437 -0.6449
2 10 35 -5.1713 -2.9922
4 10 35 -13.7320 0.7413
6 10 35 10.7891 1.7509
8 10 35 -0.0485 -1.9710
10 10 35 -1.6786 -1.7596
12 10 35 2.3593 2.4479
14 10 35 4.1004 3.0563
16 10 35 0.9741 -1.6616
18 10 35 -1.2513 -0.0767
20 10 35 3.0720 0.0124
-23 11 35 0.5791 -2.7471
-21 11 35 -15.6975 -1.7044
-19 11 35 -2.9001 1.2762
-17 11 35 3.8796 1.2591
-15 11 35 -5.2030 -2.6212
-13 11 35 -2.6175 -2.4150
-11 11 35 5.8333 2.9185
-9 11 35 5.0065 2.0374
-7 11 35 13.4321 -1.9204
-5 11 35 -2.3121 -0.0599
-3 11 35 15.8402 2.9534
-1 11 35 -4.6492 -0.4495
1 11 35 -7.3424 -3.6011
3 11 35 14.5500 1.8239
5 11 35 -2.2631 4.9649
7 11 35 0.3637 0.4367
9 11 35 4.6666 -4.1039
11 11 35 6.3000 -1.7697
13 11 35 2.2081 1.7801
15 11 35 0.5391 0.5460
17 11 35 -11.6213 0.9910
19 11 35 3.9681 1.3260
-22 12 35 -1.9672 -3.2919
-20 12 35 14.6933 1.5829
-18 12 35 -1.8649 3.0443
-16 12 35 -16.1856 0.1904
-14 12 35 -2.3627 -3.0721
-12 12 35 8.2783 0.8897
-10 12 35 2.2798 2.5317
-8 12 35 -5.9179 -1.5803
-6 12 35 -14.2651 -2.4390
-4 12 35 3.6352 1.5051
-2 12 35 0.1443 1.1921
0 12 35 19.8634 -2.9908
2 12 35 2.1074 -2.4874
4 12 35 -8.2440 1.7395
6 12 35 6.9399 2.4907
8 12 35 3.1171 -0.7181
10 12 35 -3.2138 -1.5260
12 12 35 5.4093 0.8754
14 12 35 10.8185 1.6772
16 12 35 20.0332 0.2067
18 12 35 4.6908 1.1263
20 12 35 5.8383 0.8194
-21 13 35 -3.7738 1.2054
-19 13 35 5.5803 0.9143
-17 13 35 -1.0316 0.1291
-15 13 35 29.1387 -0.2616
-13 13 35 15.9810 -0.7155
-11 13 35 4.5334 -0.2135
-9 13 35 -1.1327 -1.7301
-7 13 35 2.7905 0.3546
-5 13 35 -2.4367 2.0243
-3 13 35 3.9976 0.0874
-1 13 35 0.7226 -1.4762
1 13 35 1.0302 0.1732
3 13 35 2.8621 1.9300
5 13 35 -3.1473 1.3996
7 13 35 3.3047 -0.5346
9 13 35 0.0789 -0.0604
11 13 35 1.7016 0.1344
13 13 35 -2.2940 -0.4103
15 13 35 -0.7205 0.6144
17 13 35 -21.5156 2.7243
19 13 35 10.8856 0.8743
-20 14 35 4.0029 -0.5267
-18 14 35 4.5556 0.1908
-16 14 35 0.8774 0.5887
-14 14 35 -7.7705 -0.2181
-12 14 35 4.8507 0.2067
-10 14 35 -6.9915 -0.0644
-8 14 35 5.7729 -0.3815
-6 14 35 -14.0357 0.4502
-4 14 35 18.8068 0.7118
-2 14 35 2.5108 -1.2749
0 14 35 -10.1060 -0.7908
2 14 35 -1.5305 -0.1589
4 14 35 3.0738 0.9609
6 14 35 0.8798 -0.4359
8 14 35 -6.7937 -0.0727
10 14 35 -1.9090 -0.1613
12 14 35 5.0651 -0.5235
14 14 35 -1.1350 -1.4656
16 14 35 11.3364 1.0166
18 14 35 -17.4743 2.7649
-21 15 35 -2.4598 0.0468
-19 15 35 3.4448 0.7684
-17 15 35 -8.9916 0.7157
-15 15 35 5.8227 -1.3312
-13 15 35 -2.9008 -1.6606
-11 15 35 1.1410 -0.6543
-9 15 35 0.4808 -0.5025
-7 15 35 -9.0777 0.2629
-5 15 35 4.1915 1.2552
-3 15 35 10.4357 0.9460
-1 15 35 2.8331 -0.2938
1 15 35 4.5959 -0.1680
3 15 35 3.3753 1.3722
5 15 35 -1.9351 1.0069
7 15 35 10.4155 0.6568
9 15 35 6.4158 -0.3598
11 15 35 2.6540 0.6938
13 15 35 -0.2899 -0.4907
15 15 35 -3.8425 -1.2528
17 15 35 -19.4247 -0.1535
-20 16 35 -7.3194 0.6714
-18 16 35 6.0202 3.7208
-16 16 35 -1.6218 -0.1898
-14 16 35 -4.7981 -0.5746
-12 16 35 12.2976 2.3557
-10 16 35 4.4690 1.7452
-8 16 35 4.0470 -2.0380
-6 16 35 -15.8743 -1.3815
-4 16 35 3.1631 1.9836
-2 16 35 7.4713 1.3150
0 16 35 9.2470 -0.6824
2 16 35 -0.5762 -1.5827
4 16 35 11.6531 0.1848
6 16 35 19.3515 0.2334
8 16 35 -11.1590 -1.3885
10 16 35 4.7828 -0.2177
12 16 35 7.4577 1.8798
14 16 35 7.2478 0.6300
16 16 35 2.5471 -0.5919
-19 17 35 -2.2296 2.2450
-17 17 35 -9.8368 -0.6157
-15 17 35 5.4852 -1.5980
-13 17 35 -16.0817 1.2751
-11 17 35 -7.6784 1.5927
-9 17 35 3.7494 -0.3712
-7 17 35 -2.6921 -1.7754
-5 17 35 4.0403 -0.3031
-3 17 35 12.7586 0.3890
-1 17 35 -17.3746 0.1403
1 17 35 5.8041 0.8684
3 17 35 4.5794 1.2580
5 17 35 -7.2651 0.3525
7 17 35 -3.0501 -1.5639
9 17 35 -8.5385 -1.2604
11 17 35 10.2907 0.9269
13 17 35 -5.1575 1.6044
15 17 35 9.8899 -0.6235
-18 18 35 19.8610 0.9362
-16 18 35 -2.0916 -0.9014
-14 18 35 6.7025 0.3505
-12 18 35 -4.4602 0.4361
-10 18 35 2.5341 -1.3091
-8 18 35 3.7930 -0.6751
-6 18 35 -8.4747 0.9010
-4 18 35 2.5848 1.2682
-2 18 35 0.2857 -0.4209
0 18 35 3.6391 -1.2107
2 18 35 -6.3255 0.6841
4 18 35 -1.1929 1.7033
6 18 35 15.1065 -1.7556
8 18 35 -3.4734 -1.3306
10 18 35 -10.9497 1.2362
12 18 35 1.6692 1.2381
14 18 35 12.3051 0.0954
-17 19 35 -6.6127 -0.9828
-15 19 35 4.7460 -0.5062
-13 19 35 -4.0399 0.5788
-11 19 35 -1.0718 -0.4860
-9 19 35 -2.1253 -0.4271
-7 19 35 -0.5188 -0.4264
-5 19 35 -7.3429 -0.0845
-3 19 35 4.5274 -0.6242
-1 19 35 2.7617 0.0844
1 19 35 5.0941 0.9961
3 19 35 5.2794 0.3015
5 19 35 15.5434 -0.7577
7 19 35 3.1035 -0.4758
9 19 35 -0.6487 0.7144
11 19 35 8.0015 1.5284
13 19 35 5.7008 -0.3392
-16 20 35 -2.4847 -0.7425
-14 20 35 1.4851 -1.3603
-12 20 35 -23.9599 0.9921
-10 20 35 -0.0775 1.6855
-8 20 35 1.2707 0.9139
-6 20 35 -3.4930 0.2680
-4 20 35 13.9583 -0.0224
-2 20 35 -3.4686 -0.7512
0 20 35 -3.7975 0.1587
2 20 35 28.0181 0.8649
4 20 35 -5.1810 2.0515
6 20 35 -1.9126 -0.8589
8 20 35 2.8256 -2.8816
10 20 35 -4.3566 -0.1929
12 20 35 -1.6819 -2.4208
-13 21 35 -5.3889 1.2100
-11 21 35 -8.7305 0.9382
-9 21 35 3.6680 -1.5808
-7 21 35 15.5287 -2.1650
-5 21 35 2.1050 0.5206
-3 21 35 9.0964 1.0184
-1 21 35 3.8669 -0.9343
1 21 35 -0.3388 -3.2142
3 21 35 -11.6498 0.1075
5 21 35 8.4621 0.4235
7 21 35 -4.7435 -0.2654
9 21 35 0.9214 -0.5257
11 21 35 1.2068 -0.7188
-12 22 35 0.7810 1.0175
-10 22 35 6.0412 -1.8893
-8 22 35 -20.9855 -1.7125
-6 22 35 -1.5757 0.1309
-4 22 35 -5.5618 2.2154
-2 22 35 5.6899 0.5345
0 22 35 4.0265 -0.2137
2 22 35 11.2535 -0.4170
4 22 35 -2.3546 1.0027
6 22 35 -7.0044 -0.4884
8 22 35 -0.4629 0.5734
10 22 35 -12.7669 1.9112
-11 23 35 -1.4934 -0.2279
-9 23 35 4.3649 -0.1779
-7 23 35 12.4619 1.0295
-5 23 35 -6.2387 1.5682
-3 23 35 9.5942 -0.8453
-1 23 35 -5.6760 -1.0476
1 23 35 10.6974 0.6501
3 23 35 -6.0851 0.3667
5 23 35 18.1673 -1.9855
7 23 35 9.3377 -0.7493
-8 24 35 -16.8465 -0.2658
-6 24 35 5.4530 0.0809
-4 24 35 -9.3681 0.0691
-2 24 35 -1.5806 0.7416
0 24 35 3.0601 0.7000
2 24 35 -8.4170 -0.8385
4 24 35 1.3617 -0.2385
-1 25 35 10.9798 -0.0763
-24 0 36 11.2249 -2.8445
-22 0 36 9.3497 7.4875
-20 0 36 0.1751 2.6200
-18 0 36 1.3270 -9.6654
-16 0 36 -9.7917 0.0719
-14 0 36 -21.7356 14.3812
-12 0 36 6.9452 -3.3582
-10 0 36 -14.7795 -22.1495
-8 0 36 -9.8168 -2.2496
-6 0 36 12.5013 14.7816
-4 0 36 -3.7682 -5.1395
-2 0 36 12.1305 -16.1359
0 0 36 4.5306 5.9156
2 0 36 -7.2306 12.2168
4 0 36 0.3581 -9.9507
6 0 36 4.5631 -7.8449
8 0 36 10.6411 17.5831
10 0 36 0.3314 14.4850
12 0 36 3.6896 -10.2372
14 0 36 -21.3488 -9.4312
16 0 36 17.6672 9.8175
18 0 36 0.6318 7.5925
20 0 36 10.8601 -6.2163
22 0 36 -4.6983 -1.9327
-25 1 36 -8.7684 -3.7863
-23 1 36 4.3717 3.1575
-21 1 36 0.0921 5.5364
-19 1 36 -11.0373 -4.5456
-17 1 36 10.6338 -9.0395
-15 1 36 7.4766 3.0050
-13 1 36 -4.5676 7.1554
-11 1 36 -6.1557 -5.4657
-9 1 36 4.1651 -6.8929
-7 1 36 -1.9455 7.1700
-5 1 36 -2.5672 5.7985
-3 1 36 -0.2612 -9.8370
-1 1 36 6.8452 -5.1034
1 1 36 21.0859 13.3128
3 1 36 2.7116 8.4941
5 1 36 -8.7266 -10.2060
7 1 36 10.1201 -6.5155
9 1 36 6.1636 8.4544
11 1 36 -1.9230 4.9228
13 1 36 15.8377 -4.5547
15 1 36 16.0145 0.6627
17 1 36 0.1617 5.7592
19 1 36 -7.7633 -2.0918
21 1 36 4.6769 -6.8712
-24 2 36 3.5633 0.2096
-22 2 36 10.2957 0.4390
-20 2 36 -2.6073 1.1372
-18 2 36 0.7056 1.3592
-16 2 36 -2.7711 0.9985
-14 2 36 -10.5145 -0.2961
-12 2 36 10.8262 -0.9957
-10 2 36 0.1211 -0.0710
-8 2 36 6.4384 -0.2472
-6 2 36 11.7996 0.2816
-4 2 36 1.7671 0.6389
-2 2 36 -7.8695 -0.7024
0 2 36 4.3254 -2.1253
2 2 36 7.2983 -1.4510
4 2 36 17.7231 0.4059
6 2 36 17.2106 2.6463
8 2 36 -0.9466 1.1155
10 2 36 -3.0441 -0.8219
12 2 36 -3.9753 -2.1917
14 2 36 -11.3495 0.2738
16 2 36 7.2949 1.2687
18 2 36 2.8216 2.8391
20 2 36 -0.0787 -1.5560
22 2 36 -7.8508 -0.7374
-25 3 36 -4.5709 1.4197
-23 3 36 15.2313 -0.2633
-21 3 36 -1.5721 1.9360
-19 3 36 -11.9068 -0.1180
-17 3 36 5.0963 -3.3765
-15 3 36 -8.4202 -0.4588
-13 3 36 4.0087 3.2423
-11 3 36 -7.3455 0.6671
-9 3 36 -8.4211 -2.6669
-7 3 36 -10.4224 -0.9720
-5 3 36 -1.0814 -0.0332
-3 3 36 0.1117 -1.2891
-1 3 36 5.9124 1.9232
1 3 36 5.5138 5.6652
3 3 36 -10.2181 1.4711
5 3 36 6.1888 -4.8578
7 3 36 8.4347 -2.8823
9 3 36 3.8855 3.4877
11 3 36 -11.2450 3.7694
13 3 36 5.9792 1.9106
15 3 36 4.3670 -0.6660
17 3 36 2.5623 -3.3858
19 3 36 -9.3201 -6.7990
21 3 36 -1.5309 0.7757
-24 4 36 -2.1852 -0.2378
-22 4 36 0.2995 1.5595
-20 4 36 -1.0533 1.7350
-18 4 36 -7.8296 -2.7816
-16 4 36 1.4341 -2.3069
-14 4 36 4.2226 2.9833
-12 4 36 5.0935 0.4758
-10 4 36 -8.8050 -3.1961
-8 4 36 0.5986 0.0494
-6 4 36 -16.6436 3.7511
-4 4 36 -0.7391 -2.7558
-2 4 36 -12.1427 -6.0157
0 4 36 13.4862 2.4986
2 4 36 10.1890 6.4556
4 4 36 0.1690 -1.8369
6 4 36 -1.8941 -5.4327
8 4 36 3.2605 1.0202
10 4 36 7.4855 2.4624
12 4 36 -5.3924 -1.1836
14 4 36 8.5946 0.1099
16 4 36 10.1128 2.3252
18 4 36 0.5678 -0.2616
20 4 36 6.0169 -4.7682
-23 5 36 10.9768 1.5882
-21 5 36 1.5675 3.3240
-19 5 36 1.1831 -1.9624
-17 5 36 4.5287 -3.0620
-15 5 36 -11.2019 4.0967
-13 5 36 10.9688 4.5169
-11 5 36 -10.2249 -3.8712
-9 5 36 -1.7758 -4.4459
-7 5 36 -1.3302 5.0618
-5 5 36 12.0258 5.0826
-3 5 36 -10.3166 -5.1682
-1 5 36 4.9876 -3.5953
1 5 36 11.3453 5.9196
3 5 36 1.9728 3.0885
5 5 36 9.2244 -5.8169
7 5 36 10.4774 -0.4127
9 5 36 -2.5310 6.2304
11 5 36 -9.3200 0.2310
13 5 36 18.6750 -5.8060
15 5 36 5.6401 -0.7481
17 5 36 3.7665 4.9401
19 5 36 -2.7007 -1.4347
21 5 36 5.3162 -2.3669
-24 6 36 -2.9446 2.5950
-22 6 36 -9.7046 3.1303
-20 6 36 -6.9029 -0.8560
-18 6 36 -5.8449 -2.1231
-16 6 36 8.1958 0.5126
-14 6 36 6.7779 1.9358
-12 6 36 20.4859 0.1336
-10 6 36 -4.0015 -0.1731
-8 6 36 -5.9366 1.6227
-6 6 36 -7.1430 0.2365
-4 6 36 4.2371 -2.2790
-2 6 36 -0.9553 0.1152
0 6 36 -1.7410 3.7236
2 6 36 3.1486 1.7835
4 6 36 -9.2381 -2.7031
6 6 36 1.2783 -3.2249
8 6 36 -0.1219 -0.5972
10 6 36 -4.0979 1.5235
12 6 36 -6.3983 1.8436
14 6 36 1.3369 0.9967
16 6 36 -8.7417 -0.6618
18 6 36 -12.6584 -2.7072
20 6 36 0.0945 -2.6258
-23 7 36 -5.5282 -0.1381
-21 7 36 -1.1336 -0.5189
-19 7 36 2.6606 -0.1890
-17 7 36 0.7598 1.3904
-15 7 36 -2.9677 0.0364
-13 7 36 -2.4106 -2.2410
-11 7 36 -16.5275 -1.5070
-9 7 36 4.2616 1.5904
-7 7 36 10.7538 0.6828
-5 7 36 14.1678 -1.2366
-3 7 36 2.6594 -1.1639
-1 7 36 -0.9426 -0.2178
1 7 36 -2.7170 -1.5864
3 7 36 -3.0305 -0.7468
5 7 36 -8.4068 2.5728
7 7 36 2.1940 1.8313
9 7 36 0.3263 -1.9684
11 7 36 -12.8810 -3.3559
13 7 36 3.0659 -0.3618
15 7 36 3.9466 2.3891
17 7 36 -2.0207 0.1721
19 7 36 -2.0747 -1.0595
21 7 36 -1.5403 -1.2857
-22 8 36 0.7466 -1.3130
-20 8 36 4.7784 -0.9476
-18 8 36 -5.1096 1.8658
-16 8 36 -1.4616 0.2140
-14 8 36 -17.1184 -1.5273
-12 8 36 9.7058 -0.1040
-10 8 36 2.4645 1.9346
-8 8 36 -3.6545 1.2778
-6 8 36 -0.8262 -1.0672
-4 8 36 5.5328 1.5756
-2 8 36 5.7190 3.3080
0 8 36 3.9570 -1.0707
2 8 36 3.9455 -3.7719
4 8 36 -26.9868 -0.1357
6 8 36 3.3725 3.3373
8 8 36 -0.3091 0.4376
10 8 36 0.7039 -2.3225
12 8 36 2.8574 -0.8063
14 8 36 -1.5978 -0.4560
16 8 36 -6.7455 -1.1488
18 8 36 1.7256 -1.7394
20 8 36 4.0643 1.0461
-23 9 36 11.7811 0.8185
-21 9 36 5.1770 1.2401
-19 9 36 -4.5357 -0.6187
-17 9 36 -0.5580 -0.5273
-15 9 36 6.8678 1.6025
-13 9 36 3.8495 2.1024
-11 9 36 1.1197 -1.6991
-9 9 36 1.4962 -1.5978
-7 9 36 -9.0949 0.9505
-5 9 36 -16.3492 0.2787
-3 9 36 -8.4304 -1.8827
-1 9 36 -5.6703 -0.8694
1 9 36 14.0349 0.6082
3 9 36 10.6896 -0.9457
5 9 36 9.0412 -1.2136
7 9 36 -1.4629 0.6535
9 9 36 -14.8484 1.2903
11 9 36 -4.3130 -0.0870
13 9 36 -1.0683 -0.6678
15 9 36 8.3905 1.9564
17 9 36 -1.3980 -0.1582
19 9 36 5.1945 -0.3679
-22 10 36 0.9032 1.0703
-20 10 36 -3.3829 -1.0757
-18 10 36 -9.3658 -1.1770
-16 10 36 -3.7436 0.9581
-14 10 36 -9.9067 0.9416
-12 10 36 9.1494 -2.2993
-10 10 36 -2.0181 -1.3970
-8 10 36 2.5349 2.1724
-6 10 36 -3.3327 1.5380
-4 10 36 5.5306 -0.5954
-2 10 36 13.5596 -0.1922
0 10 36 -4.0241 0.6248
2 10 36 -11.3670 -0.3501
4 10 36 -11.3785 -0.2951
6 10 36 -0.2188 1.0267
8 10 36 10.1229 1.9455
10 10 36 1.2231 0.0261
12 10 36 -8.9427 -2.5183
14 10 36 -8.9510 -1.1523
16 10 36 -1.8646 1.7509
18 10 36 -4.8808 2.0415
-21 11 36 2.5301 -0.7288
-19 11 36 5.6627 -1.7911
-17 11 36 -9.1620 1.5287
-15 11 36 -2.2189 2.9019
-13 11 36 -5.1199 -0.2597
-11 11 36 0.1422 -2.3450
-9 11 36 9.8496 0.7445
-7 11 36 -1.0221 1.4380
-5 11 36 1.0628 -0.9802
-3 11 36 -1.0018 -0.7469
-1 11 36 -10.4875 0.4553
1 11 36 12.4907 -0.6899
3 11 36 2.1730 -2.7023
5 11 36 1.2056 -1.8975
7 11 36 3.3345 1.0180
9 11 36 -10.9292 1.8031
11 11 36 3.5575 0.6171
13 11 36 -1.5630 -1.1820
15 11 36 8.3350 -0.9383
17 11 36 -3.1097 -0.7351
19 11 36 4.2691 0.3094
-22 12 36 6.5917 -2.7733
-20 12 36 -6.8767 -1.0164
-18 12 36 -1.6594 -0.5459
-16 12 36 15.0684 0.1154
-14 12 36 -5.6721 -1.1415
-12 12 36 5.3665 -1.3577
-10 12 36 6.5795 0.2296
-8 12 36 0.2518 0.1298
-6 12 36 -3.1822 -2.0852
-4 12 36 1.5501 -0.2376
-2 12 36 13.1483 2.2063
0 12 36 -0.4824 0.8786
2 12 36 -3.7806 0.0537
4 12 36 -6.7011 0.4390
6 12 36 -1.5684 1.3605
8 12 36 6.6039 0.1245
10 12 36 7.0638 -0.7835
12 12 36 2.2972 -0.6324
14 12 36 -2.0597 0.4628
16 12 36 1.1963 -0.1080
18 12 36 -4.4018 -2.2751
-21 13 36 -4.5447 -0.4795
-19 13 36 1.1074 0.9422
-17 13 36 -4.5172 0.1098
-15 13 36 2.7398 -0.8654
-13 13 36 1.7650 -0.0263
-11 13 36 0.8702 1.7162
-9 13 36 2.7030 1.2899
-7 13 36 -0.9222 -0.8353
-5 13 36 0.2572 -0.9972
-3 13 36 6.2229 0.0475
-1 13 36 -8.5824 -0.0473
1 13 36 -0.7406 -0.2078
3 13 36 14.6675 -1.1263
5 13 36 -6.4184 0.1600
7 13 36 -1.6953 0.2194
9 13 36 -3.7208 0.0903
11 13 36 1.9561 -0.3458
13 13 36 -4.1771 1.3652
15 13 36 2.8811 1.5447
17 13 36 -11.9255 0.0991
-20 14 36 -4.8052 0.4699
-18 14 36 -1.1710 -1.2330
-16 14 36 5.4095 0.0311
-14 14 36 -6.4482 1.0380
-12 14 36 5.7065 -0.9143
-10 14 36 7.8540 -1.0836
-8 14 36 -4.2229 -0.3936
-6 14 36 2.9027 -0.7048
-4 14 36 0.4494 -0.6205
-2 14 36 -0.4368 -0.3874
0 14 36 -0.9164 0.3503
2 14 36 -2.6100 -0.3916
4 14 36 -5.1650 -0.7491
6 14 36 5.7670 -0.2019
8 14 36 -3.6872 0.4908
10 14 36 2.1235 0.8422
12 14 36 5.2917 1.2395
14 14 36 -7.6040 1.1020
16 14 36 -8.9495 0.9949
-19 15 36 -1.1921 -2.0512
-17 15 36 5.9963 -1.0149
-15 15 36 7.0589 0.5735
-13 15 36 -12.9588 -0.6523
-11 15 36 -3.1214 -0.9255
-9 15 36 8.9426 0.9579
-7 15 36 4.9063 0.9971
-5 15 36 -5.9488 -1.0297
-3 15 36 5.8230 -1.1278
-1 15 36 -4.2499 1.0824
1 15 36 1.3831 2.5708
3 15 36 -9.4204 0.7954
5 15 36 -5.1252 -1.8325
7 15 36 5.2779 -1.0523
9 15 36 1.1516 0.7390
11 15 36 -2.1355 -0.8400
13 15 36 -0.6631 -0.7088
15 15 36 15.8165 0.1694
-18 16 36 9.6942 -0.2710
-16 16 36 -9.9465 0.9179
-14 16 36 -0.0539 -0.8639
-12 16 36 2.3181 -1.5742
-10 16 36 -2.1435 1.4297
-8 16 36 -4.4699 1.0868
-6 16 36 -6.7045 -1.3636
-4 16 36 2.7491 -1.3243
-2 16 36 -5.1758 -0.5787
0 16 36 -5.2998 -0.4755
2 16 36 9.8518 0.6247
4 16 36 6.3086 1.3578
6 16 36 8.2066 1.3820
8 16 36 13.4238 -0.4132
10 16 36 -2.8300 -0.8372
12 16 36 6.8957 0.6697
14 16 36 6.1535 0.9057
16 16 36 5.0236 0.3959
-17 17 36 11.0364 0.6095
-15 17 36 9.1688 -2.1819
-13 17 36 2.7528 -2.0812
-11 17 36 3.4228 1.2554
-9 17 36 -6.2128 1.7897
-7 17 36 8.6141 -0.8514
-5 17 36 -9.2483 -0.6045
-3 17 36 -0.3465 2.3051
-1 17 36 5.3511 1.0003
1 17 36 11.0946 -1.9350
3 17 36 -1.3348 -1.4300
5 17 36 2.8149 2.7076
7 17 36 -15.0882 0.9310
9 17 36 -0.2689 -2.0505
11 17 36 -4.7599 -0.7078
13 17 36 1.8340 1.1027
15 17 36 11.5371 1.4741
-16 18 36 -0.8735 0.0870
-14 18 36 3.8790 -2.7034
-12 18 36 -1.2662 1.1335
-10 18 36 -7.9686 1.5135
-8 18 36 9.9453 -0.6427
-6 18 36 -2.6932 -1.6930
-4 18 36 28.1652 0.2768
-2 18 36 -1.7759 1.2909
0 18 36 -2.5207 -0.4037
2 18 36 7.0024 -1.8316
4 18 36 -5.0460 0.4717
6 18 36 5.5364 0.0467
8 18 36 6.7845 -1.4078
10 18 36 -1.6780 -2.5198
12 18 36 -2.1548 1.2754
14 18 36 8.7577 3.1578
-15 19 36 -8.8863 -1.5585
-13 19 36 -9.7566 -0.6364
-11 19 36 -4.5501 0.0717
-9 19 36 -14.8605 -0.1216
-7 19 36 4.6024 -0.7327
-5 19 36 4.6789 0.9506
-3 19 36 6.4146 1.1070
-1 19 36 3.8527 -1.0393
1 19 36 3.4425 -1.0910
3 19 36 3.3631 1.1090
5 19 36 -9.2850 1.3750
7 19 36 -9.2763 0.4381
9 19 36 8.8756 -1.7092
11 19 36 -6.4073 1.0357
-14 20 36 -7.5038 -1.2706
-12 20 36 21.8606 -0.0319
-10 20 36 2.9297 -0.4001
-8 20 36 7.0245 -0.0502
-6 20 36 -10.8138 0.9773
-4 20 36 13.4349 0.9746
-2 20 36 -3.1269 -0.4712
0 20 36 -3.6955 0.4981
2 20 36 -7.1555 0.1131
4 20 36 -3.0675 0.3007
6 20 36 2.2666 -1.4618
8 20 36 -0.7271 -0.1031
10 20 36 1.7673 -0.1968
-13 21 36 -0.1599 0.5856
-11 21 36 8.2756 2.4551
-9 21 36 2.7229 0.6380
-7 21 36 -0.4852 -2.0358
-5 21 36 -3.2658 0.4178
-3 21 36 -0.9993 0.6296
-1 21 36 -4.7053 0.1015
1 21 36 0.9341 -0.2500
3 21 36 -17.0876 0.6754
5 21 36 2.6222 -0.7909
7 21 36 2.5447 -2.5609
9 21 36 9.0008 -1.3587
-10 22 36 -0.4268 0.7718
-8 22 36 -0.7790 -0.9569
-6 22 36 -0.2801 -0.3583
-4 22 36 0.8107 1.1791
-2 22 36 -5.8790 -0.1284
0 22 36 5.1971 -3.2639
2 22 36 -0.8809 0.1603
4 22 36 2.5793 1.3389
6 22 36 -1.8323 -0.3798
8 22 36 4.0467 -0.8067
-7 23 36 4.2278 -2.0921
-5 23 36 -6.3580 1.2905
-3 23 36 -2.7296 0.6252
-1 23 36 -3.7221 -0.7604
1 23 36 -2.8158 -0.7957
3 23 36 -1.9998 -0.2873
5 23 36 7.2527 0.8705
-2 24 36 -11.2685 -1.0685
0 24 36 -9.8101 -3.0392
-23 1 37 3.8828 -1.5768
-21 1 37 -6.2540 8.3321
-19 1 37 3.2295 0.0660
-17 1 37 3.1391 -6.7093
-15 1 37 -5.8786 2.6842
-13 1 37 6.7846 6.8434
-11 1 37 7.5986 -7.3458
-9 1 37 -1.3600 -7.5025
-7 1 37 -9.6162 13.4406
-5 1 37 -8.0238 9.9082
-3 1 37 -0.7005 -14.3092
-1 1 37 10.6379 -12.6831
1 1 37 10.4665 9.3059
3 1 37 -4.3239 7.7825
5 1 37 10.9222 -8.4224
7 1 37 3.9166 -3.6463
9 1 37 0.5363 7.6882
11 1 37 -1.9177 -1.7892
13 1 37 -15.5303 -10.8514
15 1 37 2.9662 3.4873
17 1 37 -6.8764 12.5743
19 1 37 -3.4864 0.0643
21 1 37 -6.6658 -10.7131
-24 2 37 1.7672 -2.1198
-22 2 37 5.1712 4.1466
-20 2 37 -5.1569 1.6189
-18 2 37 -7.2087 -5.8913
-16 2 37 7.4737 -2.6775
-14 2 37 9.1654 6.0625
-12 2 37 -14.5940 3.6361
-10 2 37 -6.1864 -7.5618
-8 2 37 -6.4851 -4.0824
-6 2 37 -1.0725 6.0635
-4 2 37 10.2160 0.5813
-2 2 37 -5.4263 -7.3857
0 2 37 -14.9382 2.5185
2 2 37 14.7555 10.8800
4 2 37 -5.7117 -0.3380
6 2 37 0.3425 -10.5564
8 2 37 -7.9068 0.3544
10 2 37 8.0454 9.5814
12 2 37 -2.7871 1.3279
14 2 37 4.2068 -4.7207
16 2 37 -9.0673 2.9649
18 2 37 6.1152 3.2284
20 2 37 -5.4504 -5.2098
-23 3 37 -0.6843 -0.5923
-21 3 37 -17.5226 1.0202
-19 3 37 -5.0713 1.3023
-17 3 37 -4.7615 -0.0099
-15 3 37 -11.1236 -1.6647
-13 3 37 -1.9835 -1.7427
-11 3 37 4.3010 0.8047
-9 3 37 -1.7217 1.2634
-7 3 37 -11.4681 2.6234
-5 3 37 2.6255 1.2131
-3 3 37 -4.7852 -2.1230
-1 3 37 0.7791 -2.8201
1 3 37 -1.3969 0.3923
3 3 37 -7.7346 4.5412
5 3 37 5.0222 3.0852
7 3 37 -12.1306 -1.9383
9 3 37 3.3059 -3.2490
11 3 37 0.1102 -1.4508
13 3 37 1.5853 0.5408
15 3 37 9.2981 1.7251
17 3 37 -2.7100 3.1733
19 3 37 -12.0509 1.0280
-24 4 37 0.9190 -0.2745
-22 4 37 -5.5936 -1.9499
-20 4 37 5.2727 0.2953
-18 4 37 2.4672 3.1541
-16 4 37 -2.7091 0.5526
-14 4 37 4.3733 -3.3487
-12 4 37 1.7957 -0.3125
-10 4 37 -1.9999 1.3397
-8 4 37 -8.2896 -2.9815
-6 4 37 2.4962 -4.0169
-4 4 37 2.2840 2.3568
-2 4 37 6.7722 4.8145
0 4 37 -0.7059 -2.2436
2 4 37 16.2381 -6.1192
4 4 37 -8.8638 1.2501
6 4 37 9.8959 4.6081
8 4 37 12.9005 0.5623
10 4 37 13.3057 -0.6899
12 4 37 -3.3547 1.7484
14 4 37 7.4001 -1.8295
16 4 37 3.8089 -3.4388
18 4 37 1.5763 0.9470
20 4 37 8.4840 4.7239
-23 5 37 -8.8670 -2.3244
-21 5 37 -11.9110 0.6169
-19 5 37 -0.5438 1.4749
-17 5 37 2.9291 -1.9396
-15 5 37 1.5028 -1.6488
-13 5 37 -0.9568 1.2888
-11 5 37 3.3729 2.2321
-9 5 37 4.8819 -1.4421
-7 5 37 -11.1813 -0.6559
-5 5 37 2.5655 1.6265
-3 5 37 -2.7857 0.7337
-1 5 37 2.4342 -0.1051
1 5 37 -10.3083 2.5189
3 5 37 3.8978 1.7356
5 5 37 -10.7207 -2.0330
7 5 37 -12.4356 -1.6375
9 5 37 -0.9718 1.2228
11 5 37 -3.6921 1.1407
13 5 37 -6.1860 -0.3480
15 5 37 -9.0511 0.4196
17 5 37 -2.7701 1.5904
19 5 37 -7.3354 1.4481
-22 6 37 2.1920 1.1502
-20 6 37 5.9269 1.1265
-18 6 37 -20.6562 -2.1208
-16 6 37 -4.8937 -0.3852
-14 6 37 -6.2786 1.9715
-12 6 37 3.7929 -1.0623
-10 6 37 6.1247 -3.7708
-8 6 37 5.2282 -0.3001
-6 6 37 13.8084 3.7481
-4 6 37 3.5509 0.2894
-2 6 37 9.0997 -3.6556
0 6 37 -13.9519 -1.1428
2 6 37 -1.9901 1.6331
4 6 37 -8.9619 -0.4046
6 6 37 -4.3669 0.0623
8 6 37 2.0126 2.1730
10 6 37 9.7601 2.0510
12 6 37 -0.4069 -2.4871
14 6 37 -2.0602 -3.0060
16 6 37 -0.4760 1.7154
18 6 37 -13.2337 4.8293
20 6 37 4.0188 2.8622
-23 7 37 -6.4527 -0.0135
-21 7 37 -9.2272 1.6282
-19 7 37 3.9675 -1.0494
-17 7 37 9.5167 -1.7554
-15 7 37 -10.2849 2.7840
-13 7 37 -1.7167 2.6967
-11 7 37 -1.7647 -1.6371
-9 7 37 -4.2679 -3.6000
-7 7 37 -10.5967 -0.1071
-5 7 37 -0.5015 2.9259
-3 7 37 15.4813 1.9367
-1 7 37 6.7956 0.5988
1 7 37 7.1635 0.6169
3 7 37 8.7991 -1.8807
5 7 37 -3.4310 -3.4115
7 7 37 -1.8468 0.2219
9 7 37 -10.3362 4.0481
11 7 37 6.5329 2.0477
13 7 37 -1.8584 -3.6529
15 7 37 3.2698 -5.4274
17 7 37 1.0038 0.5929
19 7 37 3.2674 2.4152
-22 8 37 9.6135 0.5169
-20 8 37 2.7163 -0.1249
-18 8 37 -31.3014 0.3019
-16 8 37 5.0066 0.9487
-14 8 37 -9.1862 -0.6461
-12 8 37 2.8938 -0.5441
-10 8 37 8.9683 1.1624
-8 8 37 10.2728 0.7117
-6 8 37 -21.7511 -1.4660
-4 8 37 -20.7108 -1.9204
-2 8 37 4.5862 -0.1003
0 8 37 -7.0757 1.1475
2 8 37 -2.1804 0.0878
4 8 37 13.6839 -0.3894
6 8 37 1.6302 -0.1888
8 8 37 -0.9137 -0.4439
10 8 37 2.6269 -0.8019
12 8 37 -5.1745 0.4998
14 8 37 -17.2607 1.7572
16 8 37 5.9290 -0.5215
18 8 37 -5.8836 0.6052
-21 9 37 1.6497 0.9798
-19 9 37 -0.6240 1.8021
-17 9 37 8.0279 -0.5183
-15 9 37 -12.5466 -0.9169
-13 9 37 -5.4414 0.4515
-11 9 37 -3.7201 1.1244
-9 9 37 -3.3147 -0.7534
-7 9 37 -5.1051 -0.7257
-5 9 37 5.7257 1.5370
-3 9 37 9.6961 1.7893
-1 9 37 6.7743 -0.0993
1 9 37 13.5304 -0.8331
3 9 37 1.6988 -0.0163
5 9 37 4.4758 -0.1125
7 9 37 -2.5455 1.5265
9 9 37 1.1949 0.6088
11 9 37 3.5078 -0.8141
13 9 37 1.6467 -1.4083
15 9 37 0.2459 -0.5793
17 9 37 -14.8650 0.3135
19 9 37 1.1652 1.3527
-22 10 37 -3.7464 2.6300
-20 10 37 -5.8403 1.1768
-18 10 37 -6.1404 -1.0595
-16 10 37 6.6047 0.4172
-14 10 37 -10.5406 3.0884
-12 10 37 -0.2207 2.2290
-10 10 37 -0.3136 -1.4339
-8 10 37 13.4684 -0.7467
-6 10 37 -8.5184 2.2537
-4 10 37 3.5465 1.1289
-2 10 37 16.0390 -2.2967
0 10 37 -9.8926 -0.2349
2 10 37 -6.4402 2.4480
4 10 37 7.4231 -1.1115
6 10 37 -2.5358 -3.6852
8 10 37 1.2920 0.0427
10 10 37 6.6096 2.0903
12 10 37 0.4996 0.1801
14 10 37 -9.1556 -1.4706
16 10 37 0.5871 -1.8233
18 10 37 1.6028 1.1741
-21 11 37 5.0900 2.3049
-19 11 37 -0.3357 -1.5271
-17 11 37 8.2595 -2.2559
-15 11 37 11.5001 0.4051
-13 11 37 0.8485 0.6087
-11 11 37 2.3542 -1.9801
-9 11 37 4.3602 -1.6034
-7 11 37 -9.8097 1.8849
-5 11 37 17.2980 0.5872
-3 11 37 -3.6207 -3.0718
-1 11 37 8.3837 -1.5764
1 11 37 -6.3996 2.5306
3 11 37 4.7078 2.6714
5 11 37 -4.7581 -1.4704
7 11 37 -5.8124 -1.3408
9 11 37 0.0016 0.7442
11 11 37 -2.2781 0.0539
13 11 37 2.5038 -1.1740
15 11 37 -3.4036 1.0802
17 11 37 -8.8059 2.6481
-20 12 37 -1.8966 0.0357
-18 12 37 1.4101 -0.3735
-16 12 37 -1.0742 0.9081
-14 12 37 -0.0197 1.7214
-12 12 37 -1.4436 -0.2881
-10 12 37 -11.9300 -0.8553
-8 12 37 5.7141 1.6714
-6 12 37 -0.8222 2.7403
-4 12 37 -5.0806 -0.6180
-2 12 37 4.7916 -2.1897
0 12 37 0.0748 -0.4327
2 12 37 -7.0696 1.6144
4 12 37 -2.4722 -0.4010
6 12 37 -8.6601 -1.5535
8 12 37 -6.1103 0.5840
10 12 37 -0.0563 1.1377
12 12 37 -4.2365 -1.2937
14 12 37 1.6373 -2.3157
16 12 37 -3.9392 -0.1266
-19 13 37 3.5139 0.8739
-17 13 37 4.2155 1.4063
-15 13 37 -1.1784 1.2036
-13 13 37 -16.4792 -0.1192
-11 13 37 1.2223 -0.3142
-9 13 37 11.7159 0.7625
-7 13 37 0.9618 0.0581
-5 13 37 10.4732 -0.6730
-3 13 37 -3.8764 -1.0181
-1 13 37 1.1093 -0.2947
1 13 37 -12.0256 0.4200
3 13 37 1.9390 0.2728
5 13 37 4.3331 0.3994
7 13 37 5.6397 0.5496
9 13 37 5.6149 0.0237
11 13 37 -2.3763 -0.0293
13 13 37 4.3427 -0.5010
15 13 37 -4.7657 1.1310
17 13 37 -14.1476 0.7928
-18 14 37 7.6203 -0.2657
-16 14 37 -3.8026 -1.7687
-14 14 37 17.8285 -0.2649
-12 14 37 -2.8069 0.4816
-10 14 37 -29.2539 -0.1565
-8 14 37 -7.6500 -0.2762
-6 14 37 -1.4644 0.9397
-4 14 37 10.2610 0.4574
-2 14 37 7.2488 -0.4030
0 14 37 13.5093 0.0021
2 14 37 7.7208 0.2580
4 14 37 6.3574 1.0920
6 14 37 -5.6901 0.4031
8 14 37 -2.4002 0.5546
10 14 37 -7.0238 0.6980
12 14 37 -4.4512 0.1343
14 14 37 -3.3091 -0.7201
16 14 37 -7.2389 -1.3459
-17 15 37 15.7238 -1.0619
-15 15 37 1.0670 0.0282
-13 15 37 -6.8650 -0.2573
-11 15 37 6.2239 -0.9322
-9 15 37 3.7480 -0.2161
-7 15 37 8.0739 0.4668
-5 15 37 2.3716 -0.2012
-3 15 37 -13.7468 -1.1376
-1 15 37 8.0791 -0.2970
1 15 37 4.4038 -0.8951
3 15 37 -6.5080 -1.1608
5 15 37 2.5340 -0.1910
7 15 37 -9.7887 1.1773
9 15 37 3.3555 0.9920
11 15 37 -7.9256 0.3094
13 15 37 -1.9238 -1.2955
15 15 37 -1.7237 -0.2485
-18 16 37 14.6865 -2.1630
-16 16 37 -1.4791 1.2783
-14 16 37 1.4824 3.4318
-12 16 37 2.3013 -0.3714
-10 16 37 -10.3746 -1.6818
-8 16 37 2.3303 1.5658
-6 16 37 -4.3905 2.0573
-4 16 37 15.0563 -1.1028
-2 16 37 2.7529 -0.9447
0 16 37 -6.4178 2.2064
2 16 37 -4.9724 1.1049
4 16 37 2.1866 -2.8531
6 16 37 -4.0042 -1.1868
8 16 37 -5.2806 1.6712
10 16 37 -12.7374 1.9635
12 16 37 -9.8131 -1.1417
14 16 37 10.5106 -1.0091
-17 17 37 6.8308 -3.4711
-15 17 37 -7.2060 0.8799
-13 17 37 -6.2404 0.3674
-11 17 37 -3.5988 -1.0696
-9 17 37 -5.2365 -0.0016
-7 17 37 2.8604 0.3836
-5 17 37 8.2906 -1.8820
-3 17 37 -4.5142 -0.9851
-1 17 37 8.9291 1.7881
1 17 37 -2.4423 2.2880
3 17 37 -5.5500 -1.6488
5 17 37 -1.0846 -0.9220
7 17 37 -7.1016 -0.1244
9 17 37 -5.9210 2.2330
11 17 37 5.4779 1.7097
13 17 37 -2.4923 -1.7004
-14 18 37 -9.7508 1.4245
-12 18 37 2.3954 -0.9605
-10 18 37 -5.8429 0.7898
-8 18 37 4.1609 0.9580
-6 18 37 5.7694 0.0132
-4 18 37 5.1094 -0.8799
-2 18 37 -4.6199 -0.2995
0 18 37 0.8361 1.5227
2 18 37 -8.4160 -0.6086
4 18 37 -9.8091 0.1384
6 18 37 -12.7280 -0.1636
8 18 37 4.8497 0.9776
10 18 37 -0.3990 0.6698
12 18 37 -7.7318 -0.8219
-13 19 37 -1.3948 0.5632
-11 19 37 20.0621 -0.1194
-9 19 37 20.8123 0.4718
-7 19 37 4.3219 -2.0454
-5 19 37 -4.3446 -1.0820
-3 19 37 -13.6368 1.0090
-1 19 37 -4.4055 0.7264
1 19 37 -3.2588 -1.4656
3 19 37 -8.4177 -2.4406
5 19 37 1.9665 -0.9783
7 19 37 -7.8096 -0.3865
9 19 37 -9.6821 0.7937
11 19 37 0.2188 0.8816
-12 20 37 9.4274 -1.1727
-10 20 37 2.9371 1.3994
-8 20 37 5.6541 0.9803
-6 20 37 5.0119 -1.0968
-4 20 37 -6.1156 -1.3033
-2 20 37 -1.1399 -0.2636
0 20 37 4.1129 1.8905
2 20 37 -4.0816 1.3925
4 20 37 -14.0598 0.2841
6 20 37 -7.6890 0.5442
8 20 37 0.9581 -0.5218
-11 21 37 1.9538 -0.7023
-9 21 37 0.1874 1.8804
-7 21 37 1.4074 0.5001
-5 21 37 -7.4668 0.0944
-3 21 37 -12.3336 -0.6846
-1 21 37 -1.3416 -0.1543
1 21 37 -7.5494 -1.8745
3 21 37 -1.6612 0.2603
5 21 37 -1.9358 -0.0558
7 21 37 -0.8403 -0.4219
-8 22 37 3.8602 -0.1195
-6 22 37 5.0392 -0.9630
-4 22 37 -14.2432 -0.6547
-2 22 37 -20.5106 0.8267
0 22 37 -8.2916 -0.5754
2 22 37 4.4801 0.1570
4 22 37 1.4732 -2.7830
-3 23 37 6.3853 0.6434
-1 23 37 13.4205 1.5311
-22 0 38 8.0765 -4.2704
-20 0 38 1.7706 -4.4339
-18 0 38 8.1499 6.9523
-16 0 38 0.3925 8.7546
-14 0 38 -11.7874 -4.1221
-12 0 38 -7.3603 -5.6956
-10 0 38 18.7378 5.8333
-8 0 38 14.5949 4.9392
-6 0 38 9.2716 -5.9856
-4 0 38 10.3930 -3.6490
-2 0 38 -1.1421 5.4078
0 0 38 -16.4782 -2.7292
2 0 38 11.7514 -14.7920
4 0 38 -0.4058 -4.4374
6 0 38 -5.9601 9.4797
8 0 38 -9.9920 1.8188
10 0 38 9.5953 -8.5098
12 0 38 -18.1829 -2.1113
14 0 38 -17.7075 5.7350
16 0 38 -20.4161 -0.6586
18 0 38 -0.3734 -1.0146
-23 1 38 -0.2535 0.8416
-21 1 38 -16.5092 -6.6259
-19 1 38 -3.7816 1.6528
-17 1 38 8.2278 8.1949
-15 1 38 10.1630 -5.4929
-13 1 38 -2.2504 -9.1119
-11 1 38 -1.9656 7.7606
-9 1 38 -5.8796 9.3890
-7 1 38 -15.4039 -11.6559
-5 1 38 1.8143 -12.9937
-3 1 38 13.2643 9.4649
-1 1 38 -0.3406 9.7169
1 1 38 3.9332 -10.7582
3 1 38 0.2619 -6.5731
5 1 38 4.2806 9.9316
7 1 38 -1.9996 2.4570
9 1 38 -7.7618 -11.4728
11 1 38 7.1012 0.5218
13 1 38 -3.5870 11.6422
15 1 38 6.5097 0.4629
17 1 38 -15.3157 -9.6063
19 1 38 3.6278 -2.8687
-22 2 38 2.9545 -0.4452
-20 2 38 -3.2850 0.8741
-18 2 38 6.2630 0.7895
-16 2 38 1.6220 0.4931
-14 2 38 -5.0517 0.2282
-12 2 38 -2.1273 0.8536
-10 2 38 -11.6913 0.0829
-8 2 38 -13.8510 0.0644
-6 2 38 7.0913 2.4787
-4 2 38 10.7451 1.5473
-2 2 38 1.5600 -1.1836
0 2 38 -5.9100 -1.9646
2 2 38 5.5284 -0.2310
4 2 38 2.3080 1.4823
6 2 38 3.0354 0.8524
8 2 38 0.2559 -0.3691
10 2 38 9.1686 -1.1976
12 2 38 -11.0386 -1.3910
14 2 38 -3.0415 1.3347
16 2 38 -22.0491 1.4841
18 2 38 4.9014 1.2277
-23 3 38 -5.5543 0.6486
-21 3 38 -0.7532 -0.3190
-19 3 38 1.1987 -1.4883
-17 3 38 5.7185 1.4000
-15 3 38 -3.9358 -0.1477
-13 3 38 -7.4079 -0.7378
-11 3 38 7.0203 1.1556
-9 3 38 22.5645 0.4169
-7 3 38 3.4199 -3.7442
-5 3 38 5.8569 -3.4375
-3 3 38 13.9200 2.2106
-1 3 38 -2.2838 4.1569
1 3 38 -0.0919 -0.9473
3 3 38 -2.1663 -3.4963
5 3 38 -8.1224 -1.7166
7 3 38 -5.2846 -0.0856
9 3 38 8.2002 1.2797
11 3 38 8.8422 3.7060
13 3 38 -0.0843 3.3449
15 3 38 10.7274 -2.1381
17 3 38 5.3328 -2.9908
19 3 38 1.9504 0.8921
-22 4 38 -4.9547 -0.0564
-20 4 38 -7.0935 -2.0849
-18 4 38 3.6665 1.0133
-16 4 38 0.2767 2.1694
-14 4 38 0.8371 -2.1567
-12 4 38 21.2820 -0.5671
-10 4 38 2.9009 3.7559
-8 4 38 3.4638 1.7776
-6 4 38 3.3866 -3.7886
-4 4 38 -2.3737 -1.9896
-2 4 38 3.8621 3.2578
0 4 38 -0.1855 2.0277
2 4 38 -3.9058 -1.7526
4 4 38 10.4341 -0.5445
6 4 38 -4.1254 0.6544
8 4 38 -10.8322 -1.9502
10 4 38 -8.0903 -1.4486
12 4 38 3.8356 2.8491
14 4 38 -8.6208 0.5136
16 4 38 -13.4140 -1.8319
18 4 38 -2.1787 -2.9668
-21 5 38 3.5618 -2.8335
-19 5 38 1.6039 3.5123
-17 5 38 9.1363 5.0902
-15 5 38 -6.0727 -3.9221
-13 5 38 -9.6232 -5.0615
-11 5 38 -10.0950 4.7712
-9 5 38 6.1920 5.3047
-7 5 38 3.0130 -5.5508
-5 5 38 4.9608 -4.1634
-3 5 38 7.8982 6.5006
-1 5 38 -6.1575 4.0800
1 5 38 -6.9261 -7.4076
3 5 38 6.2927 -2.8203
5 5 38 -3.1083 6.7074
7 5 38 4.5943 3.3398
9 5 38 4.3074 -5.2249
11 5 38 -5.3973 -1.4991
13 5 38 0.3869 4.0127
15 5 38 -4.6128 1.5549
17 5 38 -9.4666 -0.7608
19 5 38 -0.0334 0.2602
-22 6 38 8.8423 -0.2673
-20 6 38 -2.1321 1.2343
-18 6 38 -8.3541 1.1097
-16 6 38 3.3224 -1.4579
-14 6 38 1.9626 -0.8364
-12 6 38 -2.2642 2.1080
-10 6 38 -5.3271 1.1496
-8 6 38 20.5159 -2.8217
-6 6 38 -5.4876 -2.7710
-4 6 38 -8.0769 1.1189
-2 6 38 19.9765 2.8585
0 6 38 3.4888 1.8047
2 6 38 7.9341 -0.6546
4 6 38 6.1901 -1.0744
6 6 38 -4.7538 -1.1462
8 6 38 5.2120 -0.5785
10 6 38 6.8044 2.4639
12 6 38 15.3093 3.2388
14 6 38 -4.1917 0.9621
16 6 38 8.4305 -1.3249
18 6 38 -6.0671 -2.8596
-21 7 38 -8.1035 1.0987
-19 7 38 -3.1233 1.1798
-17 7 38 1.5006 -1.1041
-15 7 38 -4.1341 -1.6530
-13 7 38 0.5792 1.3615
-11 7 38 -3.2883 0.9671
-9 7 38 1.3497 -0.4684
-7 7 38 2.1290 0.4022
-5 7 38 -2.8880 1.5318
-3 7 38 1.2623 -2.1282
-1 7 38 5.8055 -3.1991
1 7 38 -0.6287 0.5932
3 7 38 1.1542 2.9052
5 7 38 2.2954 0.5319
7 7 38 -7.4162 -2.1134
9 7 38 -3.7035 -1.2679
11 7 38 -5.0980 -0.7870
13 7 38 7.2607 -1.2077
15 7 38 -16.1986 1.9225
17 7 38 -12.0477 2.4677
-20 8 38 -6.0316 0.4152
-18 8 38 3.8699 -1.1402
-16 8 38 5.2559 -0.8162
-14 8 38 -8.7782 -0.2730
-12 8 38 -8.9899 -1.4644
-10 8 38 1.2810 -1.7823
-8 8 38 6.2265 0.5407
-6 8 38 -8.4134 2.5884
-4 8 38 -6.0416 0.9514
-2 8 38 17.7912 -1.4844
0 8 38 -5.3816 -0.5880
2 8 38 1.6635 0.8772
4 8 38 3.5086 1.5165
6 8 38 3.8400 -0.3281
8 8 38 8.6327 0.3237
10 8 38 5.1193 0.9372
12 8 38 -3.6433 -1.1158
14 8 38 -2.4321 -2.7507
16 8 38 -1.0999 2.6924
18 8 38 5.1594 2.6295
-21 9 38 -2.7682 -1.2603
-19 9 38 5.7386 1.7861
-17 9 38 -0.7199 1.6238
-15 9 38 1.0733 0.1359
-13 9 38 -0.0338 -1.0210
-11 9 38 -21.6319 1.3955
-9 9 38 9.5866 1.5082
-7 9 38 16.8606 -1.0940
-5 9 38 1.8053 -0.5363
-3 9 38 -10.9049 1.9632
-1 9 38 -0.4964 0.4662
1 9 38 -8.6041 -2.5611
3 9 38 1.2486 -0.6793
5 9 38 -0.6530 1.5967
7 9 38 8.1597 -0.8808
9 9 38 6.2113 -1.5078
11 9 38 -4.4680 0.8863
13 9 38 3.3887 1.5866
15 9 38 5.8825 1.3742
17 9 38 3.8452 0.6215
-20 10 38 -5.6374 0.2113
-18 10 38 11.8373 0.7813
-16 10 38 -9.3765 -2.1844
-14 10 38 2.4392 -2.8311
-12 10 38 4.3350 -0.1698
-10 10 38 2.9230 1.3446
-8 10 38 -9.8760 -1.2781
-6 10 38 10.9006 -1.9084
-4 10 38 10.7912 1.7306
-2 10 38 3.2680 0.7239
0 10 38 -5.4456 -2.3861
2 10 38 -15.7490 -1.1194
4 10 38 -3.1023 2.9262
6 10 38 -2.6591 2.7782
8 10 38 3.2728 -2.1022
10 10 38 13.1393 -2.0581
12 10 38 10.6044 -0.0114
14 10 38 13.3200 1.3057
16 10 38 -3.5632 2.0975
-19 11 38 2.8331 2.4944
-17 11 38 3.2672 0.4604
-15 11 38 1.2484 -1.3851
-13 11 38 -10.3765 -1.0293
-11 11 38 -22.9939 0.7097
-9 11 38 7.1450 0.0131
-7 11 38 10.5397 -0.0336
-5 11 38 -7.5612 1.3810
-3 11 38 -8.9682 1.9063
-1 11 38 3.0207 -0.4645
1 11 38 -9.5119 -2.3236
3 11 38 3.3952 -0.5784
5 11 38 -3.6170 0.5989
7 11 38 1.6457 -0.4440
9 11 38 -4.9577 -0.1125
11 11 38 -3.2232 -0.5787
13 11 38 4.7943 -1.2617
15 11 38 -1.1038 -2.2310
17 11 38 1.7579 2.7637
-18 12 38 2.8838 0.7170
-16 12 38 -21.5257 -0.3342
-14 12 38 7.5470 0.5696
-12 12 38 3.0434 0.5153
-10 12 38 -5.7991 -1.2968
-8 12 38 -6.9371 -2.4941
-6 12 38 -0.4032 0.2656
-4 12 38 2.6624 1.1319
-2 12 38 -0.6978 -1.4660
0 12 38 2.3640 -2.1639
2 12 38 7.1870 0.7762
4 12 38 3.9577 1.6715
6 12 38 -3.3263 -0.7926
8 12 38 1.6688 -0.8196
10 12 38 -1.6992 1.0739
12 12 38 -3.9604 1.5293
14 12 38 2.7458 -0.7530
16 12 38 -1.9815 1.1754
-19 13 38 2.8692 -0.8826
-17 13 38 7.7571 -1.4763
-15 13 38 0.0382 -1.4540
-13 13 38 -9.2313 -0.0093
-11 13 38 -4.3835 0.2932
-9 13 38 -1.1360 0.0344
-7 13 38 -0.5465 0.2815
-5 13 38 -6.7399 0.7529
-3 13 38 -7.7251 0.3705
-1 13 38 3.6920 -0.6907
1 13 38 -3.0739 0.7087
3 13 38 -3.7717 0.9870
5 13 38 12.9051 -0.9121
7 13 38 7.9062 -1.6884
9 13 38 -5.3625 -0.0957
11 13 38 -7.0975 0.4838
13 13 38 0.4313 -0.1635
15 13 38 0.2088 -1.4449
-18 14 38 13.9042 1.0530
-16 14 38 3.4343 0.0471
-14 14 38 -10.4508 -1.0948
-12 14 38 -0.6705 0.6478
-10 14 38 -4.6524 0.1897
-8 14 38 -6.1370 -0.5185
-6 14 38 -10.0719 0.4579
-4 14 38 -1.3075 1.0946
-2 14 38 -3.2939 -0.0848
0 14 38 -16.5949 -1.0423
2 14 38 -5.8108 -0.0157
4 14 38 4.2492 -0.5141
6 14 38 7.1791 -1.4529
8 14 38 3.6901 0.0049
10 14 38 -2.5476 0.6027
12 14 38 0.2580 0.7774
14 14 38 3.9295 0.8187
-17 15 38 -0.6605 1.0313
-15 15 38 -2.2942 -1.4436
-13 15 38 -4.0807 0.8190
-11 15 38 -1.8558 2.0291
-9 15 38 12.3505 -1.4865
-7 15 38 1.6725 -1.8172
-5 15 38 -4.1002 0.3253
-3 15 38 -16.1047 0.5842
-1 15 38 -0.1749 0.4982
1 15 38 -0.4748 0.7758
3 15 38 -13.9614 1.9335
5 15 38 -16.6844 0.3434
7 15 38 -2.1143 -0.6185
9 15 38 -9.7241 -0.8745
11 15 38 -2.9523 0.5778
13 15 38 -11.5982 1.3265
-16 16 38 6.7066 -1.8451
-14 16 38 -7.9434 -0.6382
-12 16 38 12.1447 1.7584
-10 16 38 7.4161 0.2039
-8 16 38 -9.5010 -0.7690
-6 16 38 -4.4781 0.8657
-4 16 38 -7.2656 -0.0494
-2 16 38 0.8086 -2.4556
0 16 38 -6.4669 -1.3215
2 16 38 -7.8546 2.0997
4 16 38 10.0005 0.2013
6 16 38 11.8375 -1.5909
8 16 38 -2.7000 -1.4453
10 16 38 -7.6994 0.8770
12 16 38 7.5678 0.1022
-15 17 38 1.6217 -0.0577
-13 17 38 -5.0427 1.1667
-11 17 38 -1.1586 -1.4052
-9 17 38 10.2502 -2.3478
-7 17 38 -1.7374 1.0845
-5 17 38 -4.2427 2.4447
-3 17 38 -7.6158 -0.8292
-1 17 38 -12.4487 -1.7162
1 17 38 -1.6614 1.2620
3 17 38 -2.4373 1.2617
5 17 38 -10.1536 0.0979
7 17 38 4.5672 -0.7999
9 17 38 3.4428 1.3893
11 17 38 -1.9918 0.9340
-14 18 38 3.2419 2.8273
-12 18 38 7.4334 1.5385
-10 18 38 8.8461 -0.7018
-8 18 38 -9.6463 -0.8196
-6 18 38 5.7609 2.3608
-4 18 38 -9.6060 0.6301
-2 18 38 -7.3007 -1.8411
0 18 38 3.3319 1.6456
2 18 38 -6.7889 2.7269
4 18 38 -9.5066 1.4234
6 18 38 4.4453 -1.4395
8 18 38 -7.6962 -0.1185
10 18 38 -1.4512 1.8710
-11 19 38 11.8501 -1.6735
-9 19 38 7.3827 -0.9418
-7 19 38 3.2230 0.6758
-5 19 38 -2.5659 1.1287
-3 19 38 -1.8176 -0.9927
-1 19 38 -8.0000 -1.4756
1 19 38 -1.3397 0.6205
3 19 38 18.3393 1.4866
5 19 38 -9.5906 -0.4681
7 19 38 -1.5438 1.8916
9 19 38 13.0195 1.3480
-10 20 38 -6.5767 0.4859
-8 20 38 -17.5763 -0.3030
-6 20 38 5.8393 1.7274
-4 20 38 1.6206 -0.2284
-2 20 38 -3.1396 -0.1647
0 20 38 10.5818 -0.4295
2 20 38 7.5291 -0.5009
4 20 38 4.2672 -0.5100
6 20 38 6.2284 2.3315
-7 21 38 -0.2898 -1.7056
-5 21 38 3.3945 -0.2311
-3 21 38 -6.8031 0.4183
-1 21 38 -2.8885 0.9368
1 21 38 -3.3249 0.8331
3 21 38 13.1010 0.1493
-2 22 38 -3.1841 0.9331
-21 1 39 -0.9883 -4.9835
-19 1 39 -3.7989 1.1698
-17 1 39 3.1978 9.1348
-15 1 39 -3.4768 -3.2214
-13 1 39 -2.9231 -13.4898
-11 1 39 -2.1140 3.5627
-9 1 39 4.1395 17.3667
-7 1 39 -2.9149 -1.5890
-5 1 39 -3.0085 -14.1935
-3 1 39 -2.1804 3.9988
-1 1 39 -25.6271 11.4283
1 1 39 -3.4970 -7.3464
3 1 39 1.0956 -8.8733
5 1 39 -3.9275 12.7381
7 1 39 1.8129 7.6729
9 1 39 3.0778 -14.4716
11 1 39 -1.9267 -9.7875
13 1 39 3.5925 10.5729
15 1 39 9.7800 7.2106
17 1 39 5.8545 -7.1564
-22 2 39 1.4757 -4.7250
-20 2 39 2.4244 -1.9627
-18 2 39 -1.1615 4.1007
-16 2 39 5.1327 2.6010
-14 2 39 -3.5121 -3.3957
-12 2 39 14.2824 -1.4597
-10 2 39 -7.6408 4.2808
-8 2 39 6.7264 -1.4003
-6 2 39 4.5311 -7.5757
-4 2 39 -3.3250 -0.2343
-2 2 39 16.0844 7.1910
0 2 39 14.7697 0.5391
2 2 39 -11.4416 -6.0530
4 2 39 -9.9553 -1.4014
6 2 39 10.9940 4.1279
8 2 39 -2.5374 -0.0402
10 2 39 -0.3042 -1.4467
12 2 39 14.1950 2.9444
14 2 39 4.1998 3.1820
16 2 39 -3.5803 -1.0897
18 2 39 5.9361 -5.6028
-21 3 39 0.6449 0.9935
-19 3 39 2.8990 -1.1181
-17 3 39 1.8317 -0.4049
-15 3 39 -4.5426 -1.6122
-13 3 39 8.8632 -1.1980
-11 3 39 -0.4448 0.7511
-9 3 39 6.0293 1.5968
-7 3 39 -1.7101 0.5549
-5 3 39 -11.2738 -1.1112
-3 3 39 3.5975 -2.0698
-1 3 39 -7.4250 -1.1281
1 3 39 13.0503 1.9533
3 3 39 8.0119 2.0832
5 3 39 -9.3230 1.5673
7 3 39 -10.0006 -1.7819
9 3 39 3.7043 -2.0350
11 3 39 -10.5287 -1.5989
13 3 39 9.7720 3.7265
15 3 39 -1.3802 2.2199
17 3 39 -6.2058 -0.4943
-20 4 39 2.7984 1.3405
-18 4 39 2.6207 -1.2906
-16 4 39 9.5025 2.2716
-14 4 39 8.8721 4.6159
-12 4 39 -3.9994 -1.4605
-10 4 39 -15.3528 -4.2222
-8 4 39 13.6891 1.1961
-6 4 39 3.6330 4.1882
-4 4 39 -7.0534 -0.9578
-2 4 39 -0.1255 -3.5993
0 4 39 -8.4633 -0.3751
2 4 39 -10.9244 -0.3106
4 4 39 -2.5267 -2.5173
6 4 39 1.2307 0.0130
8 4 39 1.4355 4.6339
10 4 39 -9.3203 1.6098
12 4 39 4.6264 -4.3500
14 4 39 -9.8937 -3.8190
16 4 39 -5.6738 1.6727
18 4 39 -2.9368 3.2754
-21 5 39 0.3674 1.3169
-19 5 39 5.9395 -2.8426
-17 5 39 -4.4925 1.3149
-15 5 39 -0.4456 1.7572
-13 5 39 3.5100 -1.9711
-11 5 39 -3.3270 -1.3598
-9 5 39 -2.6387 0.6786
-7 5 39 0.9427 -0.3327
-5 5 39 -10.3077 -2.4086
-3 5 39 4.4072 -0.1472
-1 5 39 6.8174 2.6870
1 5 39 1.4243 1.3195
3 5 39 -1.1414 -1.7235
5 5 39 -7.4144 -0.6015
7 5 39 3.9212 1.2840
9 5 39 7.1831 -0.1644
11 5 39 -6.4721 0.5988
13 5 39 18.7951 0.1414
15 5 39 -2.8207 -0.5901
17 5 39 -8.5758 2.1305
-20 6 39 -6.5507 0.7743
-18 6 39 0.1626 1.7209
-16 6 39 -12.4361 1.4224
-14 6 39 6.7150 -2.3216
-12 6 39 -8.4069 -1.8722
-10 6 39 -4.0992 1.7645
-8 6 39 3.4221 1.7854
-6 6 39 6.3875 -1.3100
-4 6 39 -5.4515 -1.2329
-2 6 39 1.0681 1.0013
0 6 39 -4.3778 -0.6373
2 6 39 -4.7536 -3.6469
4 6 39 -3.4442 0.3296
6 6 39 -2.2352 4.1385
8 6 39 -10.0582 0.0215
10 6 39 0.5520 -4.6280
12 6 39 -4.5254 -1.6982
14 6 39 -13.5032 1.9795
16 6 39 -6.7782 1.5708
-21 7 39 4.6916 -0.3496
-19 7 39 1.0642 -0.9569
-17 7 39 5.2060 1.4857
-15 7 39 6.0570 1.2216
-13 7 39 -4.5057 -1.3456
-11 7 39 -4.9412 -1.4623
-9 7 39 -11.2789 -0.0185
-7 7 39 0.3352 -0.1084
-5 7 39 -6.3047 0.0730
-3 7 39 -0.4518 2.7634
-1 7 39 -0.1267 2.2418
1 7 39 1.3031 -2.4812
3 7 39 7.1893 -3.9714
5 7 39 1.7227 1.2551
7 7 39 10.8797 5.0385
9 7 39 -4.6921 2.2699
11 7 39 -9.2146 -0.5693
13 7 39 1.9336 -1.1583
15 7 39 5.6915 -3.5767
17 7 39 1.8021 0.3781
-20 8 39 3.3010 0.8903
-18 8 39 4.1830 -0.0808
-16 8 39 -16.1244 1.1326
-14 8 39 2.9511 0.8504
-12 8 39 -4.6673 0.4429
-10 8 39 5.7786 0.8054
-8 8 39 6.5664 0.7798
-6 8 39 24.3975 -1.2217
-4 8 39 9.6417 -1.5341
-2 8 39 -16.9039 0.6801
0 8 39 -8.4170 1.8581
2 8 39 -7.7463 -0.2072
4 8 39 -3.7130 -1.6800
6 8 39 6.2279 -0.2623
8 8 39 -7.3194 -0.4276
10 8 39 2.4616 -1.0961
12 8 39 7.4966 0.1716
14 8 39 -3.1876 0.3771
16 8 39 4.0850 -1.1826
-19 9 39 -4.9030 -0.2764
-17 9 39 0.2049 0.1128
-15 9 39 -0.0772 1.2591
-13 9 39 -0.4600 -0.8602
-11 9 39 3.5779 -2.0061
-9 9 39 -8.8922 0.8745
-7 9 39 -3.4463 0.8046
-5 9 39 4.0742 -0.6328
-3 9 39 8.9288 -0.2250
-1 9 39 -2.9249 0.3648
1 9 39 2.2681 -0.0940
3 9 39 1.2573 -0.0880
5 9 39 -0.6903 0.6333
7 9 39 0.4937 1.0015
9 9 39 -5.1343 -0.5667
11 9 39 -1.9548 1.2791
13 9 39 8.8377 -1.0350
15 9 39 11.8120 -1.3904
-18 10 39 -9.0364 0.6439
-16 10 39 -10.0989 1.0038
-14 10 39 2.9783 -0.5821
-12 10 39 -4.2910 -1.4174
-10 10 39 -3.6398 1.4591
-8 10 39 -4.8926 2.0924
-6 10 39 9.8345 -2.4298
-4 10 39 -7.9869 -0.3628
-2 10 39 -6.8471 4.3984
0 10 39 8.6346 2.1345
2 10 39 -2.2599 -2.4160
4 10 39 3.9837 -0.9191
6 10 39 -2.2698 1.4766
8 10 39 -13.3712 -0.0580
10 10 39 -3.0204 0.0048
12 10 39 10.6013 0.9313
14 10 39 1.4693 -0.6776
16 10 39 3.0544 -6.0310
-19 11 39 0.0030 2.1000
-17 11 39 -1.6295 1.6645
-15 11 39 1.7807 -0.8502
-13 11 39 -15.7097 -0.8828
-11 11 39 0.6636 2.3036
-9 11 39 2.9410 3.0367
-7 11 39 -3.3869 -2.2764
-5 11 39 3.0775 -3.6461
-3 11 39 0.9955 0.7442
-1 11 39 -17.4295 1.3233
1 11 39 13.2878 -2.0631
3 11 39 9.6671 -0.9612
5 11 39 3.8177 1.5572
7 11 39 0.0506 -0.2764
9 11 39 -0.0487 -3.3914
11 11 39 -14.8770 0.1616
13 11 39 4.6528 2.3592
15 11 39 -7.2761 0.4805
-18 12 39 -11.2640 3.0507
-16 12 39 -1.2300 -1.6754
-14 12 39 -1.5359 -3.6450
-12 12 39 0.3849 -0.2079
-10 12 39 -1.5858 2.8908
-8 12 39 -8.0986 1.0926
-6 12 39 10.7759 -2.6414
-4 12 39 -9.5242 0.1220
-2 12 39 4.6265 2.2199
0 12 39 4.0950 -0.0480
2 12 39 5.8454 -0.9598
4 12 39 6.0376 1.8659
6 12 39 4.8546 1.6586
8 12 39 -10.7551 -1.5879
10 12 39 -3.6756 -1.1466
12 12 39 -10.7023 1.3814
14 12 39 -14.6256 1.0531
-17 13 39 9.7894 -2.0996
-15 13 39 8.3436 -1.8845
-13 13 39 -5.2215 0.2747
-11 13 39 16.4033 1.1864
-9 13 39 7.1060 0.9741
-7 13 39 -0.4517 -0.0392
-5 13 39 -8.2090 -0.6341
-3 13 39 -11.3705 -0.3104
-1 13 39 -6.9715 -0.7422
1 13 39 4.1200 -0.4722
3 13 39 -12.7042 0.7720
5 13 39 -5.6033 -1.0780
7 13 39 -1.9396 -2.3173
9 13 39 2.3921 -0.7548
11 13 39 -4.0998 2.0381
13 13 39 0.9307 -0.3152
-16 14 39 -0.0056 -0.2027
-14 14 39 -8.0707 0.0092
-12 14 39 1.0756 0.8407
-10 14 39 5.0567 -0.1362
-8 14 39 -1.0142 -0.5333
-6 14 39 7.8974 -0.5204
-4 14 39 -11.1390 0.4299
-2 14 39 1.1005 0.1414
0 14 39 -11.5381 -0.4450
2 14 39 7.4654 -0.2986
4 14 39 -9.9886 0.4786
6 14 39 9.3065 -0.0761
8 14 39 -0.4724 -1.2121
10 14 39 -2.6091 1.1908
12 14 39 -1.0187 1.4778
-15 15 39 -2.5757 0.1121
-13 15 39 -1.7914 -0.2307
-11 15 39 1.6673 0.8912
-9 15 39 -1.1877 1.0288
-7 15 39 10.7082 -0.1183
-5 15 39 -5.9760 -1.0767
-3 15 39 -1.3750 -0.9547
-1 15 39 -8.0314 -0.7004
1 15 39 -0.9934 -1.0434
3 15 39 -5.3215 0.0358
5 15 39 -4.0426 1.8557
7 15 39 -9.9258 -0.8434
9 15 39 6.1963 0.2463
11 15 39 1.3320 1.2212
-14 16 39 -1.9802 -3.4720
-12 16 39 8.1119 -0.1141
-10 16 39 6.5547 1.1106
-8 16 39 -4.4031 -0.4725
-6 16 39 16.8172 -0.7408
-4 16 39 -5.8812 2.3328
-2 16 39 10.0996 2.4564
0 16 39 3.6070 -1.6505
2 16 39 14.4928 -2.7159
4 16 39 -12.6102 -0.3762
6 16 39 6.0294 1.2744
8 16 39 1.6215 -0.5890
10 16 39 4.6150 -2.1267
-13 17 39 -5.4178 0.3467
-11 17 39 1.0398 3.8062
-9 17 39 -6.0562 0.3028
-7 17 39 6.5754 -1.4164
-5 17 39 -7.7505 -0.8043
-3 17 39 15.7043 1.1018
-1 17 39 -3.9484 0.3037
1 17 39 0.0803 -1.2584
3 17 39 9.8549 -2.1740
5 17 39 -5.0468 1.2705
7 17 39 -12.0913 -0.6988
9 17 39 1.7108 -0.4623
-12 18 39 0.8073 1.0117
-10 18 39 -1.2928 -0.4314
-8 18 39 -3.0922 -2.1441
-6 18 39 11.4801 -1.5178
-4 18 39 4.3963 0.2212
-2 18 39 1.9911 -0.1385
0 18 39 3.0781 -1.3735
2 18 39 3.3549 -0.3234
4 18 39 -7.6574 1.9105
6 18 39 -4.3952 -0.6789
8 18 39 4.7717 0.1065
-9 19 39 1.3379 -1.6172
-7 19 39 0.1882 0.1512
-5 19 39 -5.7915 1.2917
-3 19 39 -0.1900 2.9952
-1 19 39 2.1487 1.4748
1 19 39 -12.4861 -2.1691
3 19 39 6.0215 0.0421
5 19 39 5.1377 -1.9389
-6 20 39 -3.9871 -0.0059
-4 20 39 -6.6132 -0.6622
-2 20 39 -3.8603 -0.9935
0 20 39 1.7335 -0.4329
2 20 39 1.0937 2.8699
4 20 39 -8.3103 0.6665
-20 0 40 -2.0441 5.6861
-18 0 40 4.1890 -6.1278
-16 0 40 19.1750 -5.4539
-14 0 40 -7.7240 8.9412
-12 0 40 2.2417 4.3923
-10 0 40 -17.5265 -10.4704
-8 0 40 3.8846 -0.1885
-6 0 40 9.4889 18.2518
-4 0 40 -2.5148 5.8082
-2 0 40 -8.8100 -14.1140
0 0 40 -7.8569 -2.4388
2 0 40 5.9589 13.4612
4 0 40 -16.2341 -0.0051
6 0 40 10.0425 -11.2281
8 0 40 -9.2443 1.7422
10 0 40 14.0084 6.9531
12 0 40 25.1493 -8.8779
14 0 40 -13.7071 -10.9337
16 0 40 -6.7596 7.2817
-21 1 40 4.4841 5.9268
-19 1 40 4.4647 -1.0760
-17 1 40 -10.1973 -6.6920
-15 1 40 -4.2499 1.9750
-13 1 40 -0.1018 9.3841
-11 1 40 -5.2495 -0.6111
-9 1 40 11.6729 -8.5878
-7 1 40 -7.2756 1.1883
-5 1 40 -7.7037 7.6071
-3 1 40 7.6940 -2.7040
-1 1 40 2.7290 -6.9456
1 1 40 0.7641 4.0263
3 1 40 -4.5761 5.9290
5 1 40 -1.3208 -7.8910
7 1 40 2.6026 -7.4933
9 1 40 -3.5536 5.9156
11 1 40 -5.3264 6.3023
13 1 40 13.8579 -6.0695
15 1 40 13.6836 -5.9663
17 1 40 -6.8247 2.9986
-20 2 40 3.9472 -0.2413
-18 2 40 6.6878 -0.9669
-16 2 40 4.5261 -1.8822
-14 2 40 -0.3517 -1.0413
-12 2 40 10.0327 -0.3255
-10 2 40 0.4723 0.0819
-8 2 40 5.3947 1.2638
-6 2 40 5.3588 0.7002
-4 2 40 9.0589 -0.2360
-2 2 40 -5.1921 -0.3394
0 2 40 -7.9100 -0.0032
2 2 40 -3.8791 1.0622
4 2 40 -4.9975 0.6280
6 2 40 1.1391 1.6283
8 2 40 -11.7749 0.5049
10 2 40 7.7779 -0.2335
12 2 40 11.4139 -2.2836
14 2 40 0.2537 0.1758
16 2 40 -0.6156 3.4135
-19 3 40 12.6225 0.0763
-17 3 40 -8.7695 -0.9923
-15 3 40 -1.1006 0.5500
-13 3 40 -3.0392 2.8960
-11 3 40 -11.3137 -0.2310
-9 3 40 -4.9962 -2.8316
-7 3 40 3.4323 -1.1123
-5 3 40 -7.1596 2.3499
-3 3 40 -7.6310 1.8586
-1 3 40 8.0213 -0.8296
1 3 40 -5.7892 -0.8106
3 3 40 -9.8230 -2.1115
5 3 40 -0.2452 -4.3411
7 3 40 1.4137 -0.0228
9 3 40 -6.8458 4.9304
11 3 40 -7.2774 2.5373
13 3 40 -5.3728 -4.5845
15 3 40 -11.3195 -3.0949
17 3 40 -2.7335 -1.4153
-20 4 40 0.3027 -0.0511
-18 4 40 4.8022 -1.6359
-16 4 40 -2.1794 -0.6439
-14 4 40 -0.8593 2.8906
-12 4 40 0.0707 3.1032
-10 4 40 2.6227 -2.7462
-8 4 40 -10.5250 -2.3509
-6 4 40 2.2136 2.1162
-4 4 40 4.3369 1.2902
-2 4 40 -10.9432 -2.3845
0 4 40 -1.8408 0.4451
2 4 40 2.3650 3.9137
4 4 40 8.9461 -0.7057
6 4 40 -2.8224 -5.1120
8 4 40 1.3127 1.8189
10 4 40 -0.4574 3.2387
12 4 40 5.3192 -0.6340
14 4 40 -2.4753 -2.7089
16 4 40 -2.7042 -0.2920
-19 5 40 8.2730 -2.2081
-17 5 40 -18.7741 -5.2038
-15 5 40 3.9067 1.2166
-13 5 40 -0.2376 4.9823
-11 5 40 3.2147 -2.4036
-9 5 40 3.0564 -4.4913
-7 5 40 12.4140 2.7431
-5 5 40 1.1654 5.2383
-3 5 40 -1.8826 -3.1550
-1 5 40 10.0263 -5.2403
1 5 40 -5.5525 2.4053
3 5 40 -8.3686 4.0595
5 5 40 -2.0733 -3.3419
7 5 40 -0.4861 -2.1170
9 5 40 -15.8709 4.2068
11 5 40 5.0022 1.0158
13 5 40 -15.5939 -4.4950
15 5 40 1.3171 -0.5761
-20 6 40 -3.5548 -1.1128
-18 6 40 0.6140 -2.3751
-16 6 40 5.8004 0.7300
-14 6 40 -5.8582 2.4440
-12 6 40 13.8864 0.2921
-10 6 40 13.9501 -1.5835
-8 6 40 -20.6730 -0.5648
-6 6 40 7.6519 -0.2707
-4 6 40 11.6612 -0.0046
-2 6 40 -7.7582 0.8826
0 6 40 -6.2084 1.5438
2 6 40 -0.6850 -0.6431
4 6 40 3.8137 -3.6316
6 6 40 6.5676 -1.3967
8 6 40 -5.7826 3.1248
10 6 40 -16.3779 3.6530
12 6 40 4.9906 -0.8671
14 6 40 -5.9619 -1.5372
16 6 40 14.2146 -1.7753
-19 7 40 1.9085 -0.3070
-17 7 40 -9.8371 0.7253
-15 7 40 1.0129 0.8875
-13 7 40 -11.6744 -0.8217
-11 7 40 -0.2172 -0.3401
-9 7 40 1.1516 1.8287
-7 7 40 11.0467 0.9719
-5 7 40 -9.2813 -1.0557
-3 7 40 -9.7774 -1.3623
-1 7 40 -2.1690 0.3821
1 7 40 5.2701 1.5012
3 7 40 0.2862 0.7083
5 7 40 -5.6284 1.2309
7 7 40 1.7228 -0.0942
9 7 40 -4.3117 -0.9074
11 7 40 4.4517 -1.4964
13 7 40 8.6515 1.7501
15 7 40 5.6806 3.7766
-18 8 40 -6.7372 0.5410
-16 8 40 7.1667 1.6298
-14 8 40 11.3877 -0.2629
-12 8 40 -0.8370 -1.7629
-10 8 40 4.6587 1.0167
-8 8 40 -4.9384 0.2655
-6 8 40 8.6506 -1.4090
-4 8 40 13.6974 -0.7775
-2 8 40 -4.4497 -0.1878
0 8 40 11.5656 -0.7802
2 8 40 -1.5839 -2.0055
4 8 40 -7.3123 0.9700
6 8 40 -0.2364 2.6883
8 8 40 -12.6166 1.5546
10 8 40 -1.0590 -2.2076
12 8 40 6.0564 -2.8924
14 8 40 2.4601 0.2344
-17 9 40 1.0183 -1.0998
-15 9 40 -0.0750 -0.3353
-13 9 40 0.9003 1.6330
-11 9 40 16.0760 0.0544
-9 9 40 -4.8640 -0.0847
-7 9 40 -0.5584 0.7757
-5 9 40 -2.4665 2.0706
-3 9 40 -3.6564 0.6302
-1 9 40 6.5166 -0.2436
1 9 40 12.7763 0.8456
3 9 40 1.5134 0.4107
5 9 40 -3.3534 -0.0137
7 9 40 1.7219 0.2172
9 9 40 10.6492 0.5249
11 9 40 -5.5372 -0.5541
13 9 40 6.8042 -0.5700
15 9 40 -7.2216 1.5843
-18 10 40 -6.3016 -2.1637
-16 10 40 4.8486 0.4740
-14 10 40 15.9899 0.9968
-12 10 40 -6.1307 -0.9767
-10 10 40 6.7288 -0.2238
-8 10 40 -6.4975 1.2243
-6 10 40 -8.1346 1.5780
-4 10 40 7.9888 -1.9219
-2 10 40 3.2736 -2.8647
0 10 40 3.3089 0.4676
2 10 40 1.3072 1.5448
4 10 40 -3.6624 0.4811
6 10 40 -3.2275 -0.3113
8 10 40 -11.9748 0.0554
10 10 40 -0.1695 -0.7179
12 10 40 -4.9600 -1.2992
14 10 40 -3.2329 1.2796
-17 11 40 0.0180 1.3454
-15 11 40 -0.1167 0.4526
-13 11 40 4.4554 -1.2626
-11 11 40 3.7771 -3.3484
-9 11 40 -1.3490 -0.0396
-7 11 40 -1.8899 2.0809
-5 11 40 -2.9771 1.8580
-3 11 40 -17.5193 -1.2308
-1 11 40 2.6046 -0.8355
1 11 40 12.4841 0.8655
3 11 40 -3.8115 0.8788
5 11 40 -4.6956 0.7019
7 11 40 1.7178 1.3008
9 11 40 0.3042 0.9346
11 11 40 -8.7801 -1.5048
13 11 40 -14.0507 -1.9206
-16 12 40 9.3282 0.9750
-14 12 40 -4.1589 0.5841
-12 12 40 2.3765 -0.7508
-10 12 40 7.6463 0.6861
-8 12 40 1.0925 0.5417
-6 12 40 9.4650 -0.0093
-4 12 40 7.3897 0.2371
-2 12 40 0.6783 -0.3899
0 12 40 -13.0605 -0.1543
2 12 40 0.6743 -0.0785
4 12 40 -7.1140 -0.2397
6 12 40 3.8613 0.3070
8 12 40 4.1761 0.7879
10 12 40 3.8224 -0.2087
12 12 40 3.4609 -0.2940
-15 13 40 -5.4854 -1.7097
-13 13 40 15.7576 -0.0343
-11 13 40 5.7539 0.4634
-9 13 40 9.7681 0.0041
-7 13 40 4.5483 -0.3798
-5 13 40 -6.5318 0.7046
-3 13 40 3.1833 0.5442
-1 13 40 9.0290 0.2402
1 13 40 -1.2133 0.7045
3 13 40 2.2352 -0.5207
5 13 40 -2.3079 -0.6336
7 13 40 11.8707 1.8590
9 13 40 11.6549 0.2335
11 13 40 16.4808 -0.5808
-14 14 40 0.5213 2.1212
-12 14 40 6.1017 0.7564
-10 14 40 -7.2120 0.0795
-8 14 40 -9.2063 0.2376
-6 14 40 3.7015 1.6833
-4 14 40 19.9884 1.0115
-2 14 40 8.7535 -0.8209
0 14 40 2.3347 0.0279
2 14 40 6.3926 0.3133
4 14 40 -3.2642 -1.4320
6 14 40 -5.8264 -0.4988
8 14 40 -6.5889 -1.6266
10 14 40 -1.2501 1.0292
-13 15 40 -8.1777 0.7101
-11 15 40 -6.4302 -0.9995
-9 15 40 -0.7763 -1.1877
-7 15 40 8.8639 0.5100
-5 15 40 -3.1147 0.0066
-3 15 40 8.8418 -1.4987
-1 15 40 5.8223 -0.3555
1 15 40 -10.7895 1.9381
3 15 40 8.7526 0.1626
5 15 40 -4.5225 -3.0160
7 15 40 1.3172 0.4404
9 15 40 -1.1993 2.2685
-12 16 40 -7.0019 0.2539
-10 16 40 -3.5150 0.2535
-8 16 40 -4.1129 1.0843
-6 16 40 0.1444 0.4866
-4 16 40 21.3668 0.2041
-2 16 40 -4.0677 1.2179
0 16 40 5.8474 0.6974
2 16 40 -4.3196 0.2794
4 16 40 12.3126 -0.6805
6 16 40 -0.5515 -0.9367
8 16 40 4.7013 -1.4264
-11 17 40 3.5557 1.3667
-9 17 40 -0.0565 1.6216
-7 17 40 2.0200 -0.1771
-5 17 40 -5.2074 -2.3317
-3 17 40 -1.5137 -0.4661
-1 17 40 10.4717 0.4311
1 17 40 -8.5553 -1.4341
3 17 40 6.2627 -0.3026
5 17 40 -4.6368 -0.4251
7 17 40 -3.1366 1.3458
-8 18 40 9.1987 -0.0338
-6 18 40 2.8539 -2.4542
-4 18 40 12.2783 0.4503
-2 18 40 -8.7081 2.5636
0 18 40 9.5646 1.8019
2 18 40 -3.3337 -1.9688
4 18 40 6.8152 0.2025
-5 19 40 -9.0915 -1.0766
-3 19 40 -18.1722 0.4953
-1 19 40 6.9439 -0.4130
1 19 40 -14.0922 -3.9392
-19 1 41 -0.7483 3.9129
-17 1 41 -6.2429 -7.7665
-15 1 41 -4.4299 -4.8357
-13 1 41 12.0063 7.0251
-11 1 41 14.4636 0.0243
-9 1 41 -8.0108 -7.0293
-7 1 41 -10.3128 1.6703
-5 1 41 -0.9484 8.1081
-3 1 41 4.0181 -5.4682
-1 1 41 9.3851 -9.3544
1 1 41 -3.0437 8.6172
3 1 41 -5.8306 13.0272
5 1 41 -2.5194 -6.4476
7 1 41 2.3325 -11.1105
9 1 41 2.5516 5.0798
11 1 41 -3.2442 4.9279
13 1 41 -9.4886 -3.4029
15 1 41 -0.0581 -2.3185
-18 2 41 5.0778 -2.6305
-16 2 41 -0.1425 -2.1237
-14 2 41 -0.9746 4.0823
-12 2 41 -0.9573 3.4734
-10 2 41 -1.3743 -4.6071
-8 2 41 5.3912 -4.6552
-6 2 41 10.9046 4.7168
-4 2 41 3.1546 4.9983
-2 2 41 -4.6914 -3.9295
0 2 41 9.5380 -3.5924
2 2 41 -0.9169 4.4590
4 2 41 8.8035 0.8313
6 2 41 -5.3063 -7.1807
8 2 41 -2.2851 -0.9034
10 2 41 -5.1055 7.8823
12 2 41 -7.5663 3.9240
14 2 41 -6.4828 -4.5483
-19 3 41 3.5466 1.7834
-17 3 41 -2.4875 -0.1621
-15 3 41 -5.4610 -1.3158
-13 3 41 0.6985 1.5097
-11 3 41 2.6926 1.7921
-9 3 41 -6.0430 0.7036
-7 3 41 -4.3211 -1.1683
-5 3 41 -4.1221 -2.3753
-3 3 41 -10.1811 -0.9538
-1 3 41 -5.6593 0.0374
1 3 41 -9.6225 1.5639
3 3 41 9.8596 1.6887
5 3 41 8.0496 -0.6096
7 3 41 0.4206 -4.6860
9 3 41 -11.6538 0.0224
11 3 41 -14.8437 2.4252
13 3 41 -15.7101 2.8730
15 3 41 0.7947 -2.2587
-18 4 41 -3.9157 3.6075
-16 4 41 4.8997 0.4265
-14 4 41 6.4521 -2.5602
-12 4 41 16.5576 -1.2123
-10 4 41 6.9176 2.7277
-8 4 41 -1.7588 1.6263
-6 4 41 4.7150 -1.0721
-4 4 41 0.5979 0.9266
-2 4 41 -6.2961 2.9751
0 4 41 4.5300 -1.4915
2 4 41 -12.7414 -4.6139
4 4 41 -3.5221 0.8679
6 4 41 -1.4395 4.1308
8 4 41 4.2924 -0.3617
10 4 41 -6.6639 -2.9228
12 4 41 3.0621 -0.9778
14 4 41 -8.0644 -0.0146
-19 5 41 -1.7904 1.4354
-17 5 41 -8.2675 -0.8413
-15 5 41 -1.8771 -3.5291
-13 5 41 3.4277 0.1102
-11 5 41 -5.9466 0.9409
-9 5 41 -1.3674 -2.4703
-7 5 41 10.8209 -2.1891
-5 5 41 -0.7459 0.1200
-3 5 41 0.6178 0.1009
-1 5 41 5.8761 -1.0116
1 5 41 -1.8176 -0.1469
3 5 41 14.9971 0.6991
5 5 41 -7.9593 -1.9323
7 5 41 -11.1402 -2.1976
9 5 41 6.2658 0.7139
11 5 41 -5.5066 2.4215
13 5 41 -14.4424 -0.8232
15 5 41 4.1041 -0.2089
-18 6 41 2.2041 1.3647
-16 6 41 9.1170 -3.2760
-14 6 41 9.7177 1.3106
-12 6 41 6.4711 2.1725
-10 6 41 1.2379 -0.7169
-8 6 41 2.5216 0.3164
-6 6 41 -1.1011 2.5786
-4 6 41 -1.2277 0.1880
-2 6 41 -8.0405 -2.7601
0 6 41 8.5323 -1.5110
2 6 41 -2.6298 3.5743
4 6 41 -10.5130 1.7244
6 6 41 10.1124 -0.9977
8 6 41 -3.7236 -2.2337
10 6 41 -6.0188 0.1703
12 6 41 20.2117 0.4241
14 6 41 17.3652 -0.8713
-17 7 41 4.1858 -1.4859
-15 7 41 4.1448 0.6291
-13 7 41 5.7588 1.4230
-11 7 41 -1.8697 -1.0432
-9 7 41 -0.4941 -3.6067
-7 7 41 3.1050 1.3300
-5 7 41 3.2679 3.7238
-3 7 41 -2.1100 0.2895
-1 7 41 1.7251 -3.8333
1 7 41 1.0893 -2.6291
3 7 41 -3.7258 -0.4220
5 7 41 -5.2436 0.6756
7 7 41 -3.1131 0.1516
9 7 41 28.4545 1.8090
11 7 41 -3.5612 2.5292
13 7 41 -15.7220 -3.5625
-16 8 41 -1.7164 -2.7116
-14 8 41 9.0946 -0.3682
-12 8 41 -2.3204 0.1822
-10 8 41 -8.0693 0.1745
-8 8 41 3.2380 0.3981
-6 8 41 -4.0007 -0.6669
-4 8 41 0.5712 -1.5413
-2 8 41 0.6324 1.6111
0 8 41 -8.3078 2.6869
2 8 41 -5.5277 0.6479
4 8 41 -2.9889 -1.0847
6 8 41 0.7245 -1.9026
8 8 41 -2.8638 0.4514
10 8 41 -5.5875 1.0650
12 8 41 3.7415 0.7856
14 8 41 -6.0955 -0.3583
-17 9 41 2.8758 -1.9269
-15 9 41 -2.7251 -1.4911
-13 9 41 5.0643 -0.5797
-11 9 41 -1.8936 0.8819
-9 9 41 -3.8030 0.8454
-7 9 41 -12.0742 0.5606
-5 9 41 1.9084 -1.1276
-3 9 41 -9.5555 -0.3260
-1 9 41 3.3871 -0.2970
1 9 41 9.1334 -0.7518
3 9 41 -4.1467 0.9003
5 9 41 -1.7995 0.7687
7 9 41 1.3900 0.0914
9 9 41 12.4899 -2.2839
11 9 41 4.8404 -0.8459
13 9 41 -3.9667 -0.8768
-16 10 41 3.3661 -2.3488
-14 10 41 1.9721 -0.1063
-12 10 41 0.0658 1.6416
-10 10 41 7.4054 -2.1384
-8 10 41 10.2776 -2.5357
-6 10 41 0.9327 1.1440
-4 10 41 2.7450 1.7419
-2 10 41 0.6336 -0.5705
0 10 41 -15.0159 -1.1921
2 10 41 0.8091 0.8038
4 10 41 6.2644 0.8584
6 10 41 -3.4753 -2.0156
8 10 41 3.2776 0.2717
10 10 41 -11.7687 3.6232
12 10 41 2.8711 0.6180
-15 11 41 -1.9133 1.7720
-13 11 41 12.0310 2.5844
-11 11 41 0.3872 -0.2673
-9 11 41 -3.2458 -1.8343
-7 11 41 0.5015 -0.0018
-5 11 41 -3.3761 0.9497
-3 11 41 -2.6496 -2.0361
-1 11 41 4.6697 -1.0064
1 11 41 -10.6887 3.1200
3 11 41 5.9784 2.6340
5 11 41 1.6692 -2.0617
7 11 41 9.7694 -3.5910
9 11 41 8.9971 1.4540
11 11 41 8.1578 2.9031
-14 12 41 -6.6451 0.4328
-12 12 41 0.3193 0.9459
-10 12 41 6.1112 -1.1531
-8 12 41 8.5666 0.1708
-6 12 41 -5.7869 1.4404
-4 12 41 -2.6912 0.2490
-2 12 41 -4.2313 -1.5936
0 12 41 -10.5222 -0.9749
2 12 41 -9.5950 1.9370
4 12 41 4.3620 0.9720
6 12 41 2.8920 -2.9183
8 12 41 13.3451 -0.7769
10 12 41 2.4870 0.8273
-13 13 41 -8.9774 -0.4467
-11 13 41 3.1687 0.8479
-9 13 41 -3.7987 1.1837
-7 13 41 -7.6823 0.3706
-5 13 41 -4.5247 0.5853
-3 13 41 12.8950 -0.1368
-1 13 41 7.8383 0.3881
1 13 41 -7.0584 1.3625
3 13 41 -1.2044 1.5999
5 13 41 -1.6317 -0.6659
7 13 41 0.8554 -1.2201
9 13 41 0.1527 -0.7964
-12 14 41 -4.5070 1.1263
-10 14 41 -14.3944 0.2935
-8 14 41 -6.4239 -0.7048
-6 14 41 -1.6849 -0.2708
-4 14 41 0.9255 0.0379
-2 14 41 -5.2519 -1.1921
0 14 41 0.2563 -0.1049
2 14 41 -1.3839 1.1866
4 14 41 11.6878 0.9132
6 14 41 -6.3554 -2.0421
8 14 41 1.8320 0.2581
-11 15 41 12.0198 0.5347
-9 15 41 8.1286 -0.3133
-7 15 41 -12.9882 -0.5527
-5 15 41 -7.1323 0.7962
-3 15 41 3.6149 0.2783
-1 15 41 -0.2182 -0.6158
1 15 41 0.2742 -0.9655
3 15 41 -8.2704 0.7987
5 15 41 8.9302 0.6567
7 15 41 -1.8741 -0.5296
-10 16 41 9.7950 -4.2500
-8 16 41 -2.3446 0.5292
-6 16 41 4.8267 2.4728
-4 16 41 -1.5174 0.8929
-2 16 41 -6.3850 -2.1588
0 16 41 -7.6271 -0.3415
2 16 41 -8.4078 2.7018
4 16 41 -0.7013 1.5757
6 16 41 3.6357 -4.5267
-7 17 41 -14.0539 0.1293
-5 17 41 -10.4521 0.5117
-3 17 41 -3.1307 -0.4773
-1 17 41 3.2115 -0.3685
1 17 41 10.5468 1.2510
3 17 41 -0.7119 1.2764
-4 18 41 -9.7097 1.0030
-2 18 41 8.5701 -1.8517
0 18 41 -4.7332 -0.8365
-18 0 42 -1.9786 1.8990
-16 0 42 -13.7812 3.4916
-14 0 42 0.0882 -6.0204
-12 0 42 19.9197 -9.2446
-10 0 42 4.3778 3.1060
-8 0 42 2.6767 7.7945
-6 0 42 8.4416 -2.7678
-4 0 42 -3.9410 -6.2623
-2 0 42 -5.1496 4.6381
0 0 42 -7.6760 6.4471
2 0 42 -20.1280 -3.1365
4 0 42 7.1477 -0.1654
6 0 42 -8.1739 10.1284
8 0 42 -1.6936 3.5709
10 0 42 2.6417 -9.2656
12 0 42 -10.2469 -2.5587
14 0 42 5.7275 7.2206
-17 1 42 -0.5675 5.7977
-15 1 42 -0.5000 1.9623
-13 1 42 -0.2501 -8.3356
-11 1 42 6.2556 -0.2259
-9 1 42 0.2123 9.7104
-7 1 42 -8.4743 -1.9779
-5 1 42 -5.2048 -8.8554
-3 1 42 -11.6624 5.3225
-1 1 42 7.9790 11.4025
1 1 42 16.1218 -5.2855
3 1 42 9.0930 -10.3207
5 1 42 -8.7336 4.8208
7 1 42 6.9567 8.6873
9 1 42 3.5884 -2.9625
11 1 42 -11.7243 -4.8510
13 1 42 -3.9705 0.2837
-18 2 42 2.9225 -0.7991
-16 2 42 -2.3010 0.5204
-14 2 42 3.7389 -0.5265
-12 2 42 12.6130 -0.3165
-10 2 42 -13.3513 -0.6728
-8 2 42 -5.8527 0.0485
-6 2 42 -4.0552 -0.5938
-4 2 42 -16.8446 -1.8471
-2 2 42 -8.4697 -1.0522
0 2 42 2.8778 0.5290
2 2 42 -2.9662 0.6854
4 2 42 9.8777 -0.0052
6 2 42 7.7806 -0.3104
8 2 42 7.1564 -0.3839
10 2 42 1.1956 -1.9266
12 2 42 -6.7518 -1.5831
14 2 42 2.4426 2.0812
-17 3 42 -5.6597 -2.2421
-15 3 42 2.5921 2.5279
-13 3 42 8.4635 -0.0979
-11 3 42 1.5396 -2.2225
-9 3 42 10.5598 0.5646
-7 3 42 0.9144 -0.2738
-5 3 42 -6.0659 -0.1673
-3 3 42 -12.4679 3.1637
-1 3 42 -0.7600 3.3043
1 3 42 -0.4182 -2.4876
3 3 42 -2.8636 -3.6564
5 3 42 -8.9137 0.4672
7 3 42 -13.7943 4.7416
9 3 42 5.1998 2.1707
11 3 42 -0.6202 -1.9584
13 3 42 2.8781 -5.2851
-16 4 42 -2.7084 0.7732
-14 4 42 -0.6003 -0.8770
-12 4 42 4.0113 -1.6575
-10 4 42 -3.5347 -1.2798
-8 4 42 9.3721 1.3582
-6 4 42 1.7029 -2.0793
-4 4 42 0.6502 -1.8359
-2 4 42 3.1434 1.5703
0 4 42 0.6568 1.5533
2 4 42 -4.1178 -2.3528
4 4 42 -5.6643 -2.1063
6 4 42 5.1505 -0.4420
8 4 42 10.5015 1.9386
10 4 42 8.6829 -0.1625
12 4 42 6.6881 -0.0308
14 4 42 8.6700 -3.6303
-17 5 42 3.0572 -0.2826
-15 5 42 -1.7895 -0.9781
-13 5 42 4.0089 -4.4060
-11 5 42 -2.0428 0.9932
-9 5 42 -4.9600 5.0046
-7 5 42 -7.4186 -1.8962
-5 5 42 -6.4080 -5.0203
-3 5 42 -16.0141 2.9628
-1 5 42 -0.5125 4.5838
1 5 42 10.3725 -3.9886
3 5 42 -4.1882 -3.7083
5 5 42 -1.1697 2.2815
7 5 42 1.2499 2.7674
9 5 42 0.9382 -2.3452
11 5 42 7.4772 -3.6571
13 5 42 4.4164 0.7481
-16 6 42 5.7272 0.2634
-14 6 42 1.2018 0.0799
-12 6 42 -9.3042 2.2753
-10 6 42 0.8142 0.6348
-8 6 42 2.6956 -0.8991
-6 6 42 -3.4439 -1.9366
-4 6 42 5.2697 1.7605
-2 6 42 7.0050 2.9747
0 6 42 -5.2303 -0.4451
2 6 42 -1.7352 -1.6924
4 6 42 -1.7772 -0.8322
6 6 42 8.5942 0.1359
8 6 42 11.3252 2.0441
10 6 42 12.5108 2.1282
12 6 42 8.8144 0.1840
-15 7 42 -4.7878 -0.8333
-13 7 42 -1.5889 2.8533
-11 7 42 -2.1007 1.4401
-9 7 42 -4.6406 -0.7824
-7 7 42 -5.9798 -0.9695
-5 7 42 5.6328 -0.9353
-3 7 42 -3.6952 -0.5473
-1 7 42 0.6525 -0.5430
1 7 42 6.2821 0.7096
3 7 42 -7.5667 1.6668
5 7 42 -0.5004 -0.9159
7 7 42 2.4959 -3.2547
9 7 42 -4.4386 1.1471
11 7 42 -3.1619 2.3164
-16 8 42 4.7460 0.6920
-14 8 42 -4.9452 0.5608
-12 8 42 2.3022 1.0134
-10 8 42 2.6651 -0.0639
-8 8 42 -9.7509 1.1172
-6 8 42 -4.2253 1.1702
-4 8 42 4.0843 0.1438
-2 8 42 5.6236 -1.3774
0 8 42 -9.7975 -0.9928
2 8 42 7.4431 0.4954
4 8 42 16.9889 2.3134
6 8 42 5.0931 0.2008
8 8 42 -3.5707 -1.0523
10 8 42 -4.2460 0.4475
12 8 42 6.2655 -1.6309
-15 9 42 4.6074 -0.8107
-13 9 42 -2.2683 0.1784
-11 9 42 2.0538 0.2091
-9 9 42 14.8804 0.6549
-7 9 42 0.0687 -0.9231
-5 9 42 -7.5393 -1.3768
-3 9 42 -11.3252 1.2965
-1 9 42 4.8903 2.3751
1 9 42 5.9749 -0.6120
3 9 42 -1.7020 -0.8596
5 9 42 0.4275 1.2557
7 9 42 3.3180 -1.6084
9 9 42 -7.4805 -0.5839
11 9 42 -0.0880 1.2487
-14 10 42 -6.0656 -0.5740
-12 10 42 1.2498 2.6183
-10 10 42 -5.7188 4.3546
-8 10 42 -3.9907 -0.3098
-6 10 42 12.5993 -2.3501
-4 10 42 1.8641 -1.0424
-2 10 42 -5.4870 0.6647
0 10 42 -3.6844 -0.3900
2 10 42 -0.3419 0.3460
4 10 42 12.5443 1.7211
6 10 42 7.3313 1.2249
8 10 42 0.0582 -3.1757
10 10 42 3.9502 0.0616
-13 11 42 2.3636 -1.0300
-11 11 42 12.5295 1.1012
-9 11 42 6.1210 1.0605
-7 11 42 -4.6725 -1.1440
-5 11 42 -11.8397 0.8504
-3 11 42 4.1478 0.8319
-1 11 42 4.7121 -1.8361
1 11 42 -1.1033 -1.7078
3 11 42 -2.0842 0.8120
5 11 42 1.0212 4.4342
7 11 42 10.9546 1.0874
9 11 42 2.8016 -0.3290
-12 12 42 -2.9285 1.6334
-10 12 42 -4.3848 2.1911
-8 12 42 -12.6356 -0.5322
-6 12 42 12.3429 1.7160
-4 12 42 11.8085 2.5034
-2 12 42 -6.2328 0.8795
0 12 42 18.2141 -1.4595
2 12 42 6.3491 -0.9141
4 12 42 -0.4984 0.9004
6 12 42 -2.0590 -0.3903
8 12 42 -19.4963 -2.3630
-11 13 42 6.6378 0.8771
-9 13 42 7.1168 -1.9217
-7 13 42 -0.5611 -1.8961
-5 13 42 -9.6578 -0.1421
-3 13 42 1.4390 -1.0773
-1 13 42 0.5032 -0.9292
1 13 42 -0.5844 0.8060
3 13 42 -6.4318 0.6527
5 13 42 -2.7885 -0.0806
7 13 42 1.0232 -1.5114
-10 14 42 -5.9303 1.0514
-8 14 42 -9.3059 -0.3249
-6 14 42 13.6292 -0.7376
-4 14 42 8.8270 1.4887
-2 14 42 -6.1070 1.0275
0 14 42 0.6838 0.5126
2 14 42 1.0323 0.6956
4 14 42 -5.0024 -0.2326
6 14 42 4.9253 2.2642
-7 15 42 -3.7318 -0.1919
-5 15 42 2.1056 0.4106
-3 15 42 2.4836 0.2462
-1 15 42 4.0994 -0.8259
1 15 42 9.5743 -1.9594
3 15 42 4.3789 -2.0596
5 15 42 -5.1988 1.7699
-6 16 42 3.6375 -2.4839
-4 16 42 -4.5728 -0.4007
-2 16 42 8.1625 0.4265
0 16 42 6.3245 1.4095
2 16 42 2.6221 1.2365
-15 1 43 -2.1335 4.0026
-13 1 43 -7.8093 -6.5462
-11 1 43 -7.7206 -2.7485
-9 1 43 7.2832 11.5864
-7 1 43 0.6611 -0.3475
-5 1 43 -8.1316 -14.9511
-3 1 43 -8.5165 -1.3810
-1 1 43 -2.1576 13.9794
1 1 43 1.8989 0.7644
3 1 43 -0.2947 -9.9436
5 1 43 6.4691 2.0471
7 1 43 -6.4191 6.8131
9 1 43 -1.8907 -3.7199
11 1 43 0.0862 -6.2556
-16 2 43 -0.5186 5.0261
-14 2 43 0.5352 -1.6147
-12 2 43 0.6500 -2.5109
-10 2 43 -3.4785 2.0990
-8 2 43 -0.6941 2.7559
-6 2 43 -3.8194 -3.2380
-4 2 43 2.6577 -2.0346
-2 2 43 1.5706 4.7771
0 2 43 -0.8612 1.9288
2 2 43 -2.8648 -5.7923
4 2 43 -4.1739 -3.6263
6 2 43 1.3687 3.6827
8 2 43 -3.0183 3.3738
10 2 43 1.0804 0.0176
12 2 43 10.3887 -2.5202
-15 3 43 1.0005 1.0669
-13 3 43 -4.5480 1.7226
-11 3 43 -3.6253 0.2225
-9 3 43 4.1178 0.4814
-7 3 43 2.7818 -1.0283
-5 3 43 14.0899 -1.6514
-3 3 43 -0.1277 0.8107
-1 3 43 4.7284 2.7505
1 3 43 -1.5906 1.3385
3 3 43 -5.6353 -1.1134
5 3 43 3.3817 -1.7980
7 3 43 2.2569 -2.4491
9 3 43 15.1724 1.6084
11 3 43 3.6198 2.2080
-16 4 43 -0.7261 -2.4989
-14 4 43 2.6842 1.0221
-12 4 43 -7.2854 -0.9251
-10 4 43 9.4560 -1.8341
-8 4 43 2.1161 1.4237
-6 4 43 -6.5540 3.3342
-4 4 43 4.9610 0.3050
-2 4 43 -1.1678 -3.4664
0 4 43 -2.8012 -1.0849
2 4 43 -1.3244 2.9041
4 4 43 -0.1376 1.0699
6 4 43 -1.6075 -0.5634
8 4 43 -5.3218 -0.3265
10 4 43 4.3938 1.7818
12 4 43 21.3782 -2.8187
-15 5 43 -2.4384 2.4829
-13 5 43 -11.5172 1.8347
-11 5 43 -8.1728 -1.6374
-9 5 43 -0.5315 1.0617
-7 5 43 -8.0920 1.8330
-5 5 43 14.3947 -1.1193
-3 5 43 1.1555 -1.8829
-1 5 43 8.1318 0.2814
1 5 43 1.4240 0.4935
3 5 43 1.5782 -1.5749
5 5 43 2.0468 -0.7552
7 5 43 8.4619 0.8883
9 5 43 7.4126 0.7086
11 5 43 -6.3502 1.7794
-14 6 43 -5.1139 -0.2988
-12 6 43 -9.1070 -1.5705
-10 6 43 14.5218 0.7270
-8 6 43 -3.6378 1.5862
-6 6 43 2.3745 -1.0557
-4 6 43 0.2225 -2.3015
-2 6 43 -3.8305 0.6267
0 6 43 -3.1398 1.8257
2 6 43 1.6922 0.5651
4 6 43 7.3867 0.1393
6 6 43 -4.7909 1.9771
8 6 43 -8.6437 -0.0978
10 6 43 -7.2442 -0.9556
-13 7 43 8.9394 -0.8514
-11 7 43 -16.0187 -1.3896
-9 7 43 1.9454 1.0515
-7 7 43 -0.4688 1.0795
-5 7 43 0.7954 0.3606
-3 7 43 1.1129 0.7332
-1 7 43 3.1774 -0.3786
1 7 43 1.7336 -1.5514
3 7 43 6.9912 -2.6314
5 7 43 7.5203 1.5649
7 7 43 3.0093 2.4348
9 7 43 3.5924 -2.0127
11 7 43 9.3195 -1.9253
-14 8 43 -1.3625 -1.5547
-12 8 43 5.6357 -0.0370
-10 8 43 15.8355 -1.1742
-8 8 43 -5.6899 -0.3560
-6 8 43 1.5144 -0.6575
-4 8 43 -2.2034 -0.3745
-2 8 43 -9.5225 0.0258
0 8 43 10.1323 -0.2042
2 8 43 -1.7471 -1.4314
4 8 43 -6.5969 -0.1965
6 8 43 -2.8601 -0.1730
8 8 43 2.3953 -0.1912
10 8 43 -3.1468 -0.8460
-13 9 43 0.4301 -1.8371
-11 9 43 -4.3118 -0.2728
-9 9 43 11.0419 -0.1611
-7 9 43 2.1858 1.6011
-5 9 43 -6.7002 0.8497
-3 9 43 2.7423 -1.3168
-1 9 43 4.1300 -1.1139
1 9 43 -1.7763 0.6003
3 9 43 3.3052 3.2254
5 9 43 -1.8737 0.8200
7 9 43 -1.9940 -1.8661
9 9 43 -1.6669 -2.9738
-12 10 43 4.5669 -2.9997
-10 10 43 -0.9396 -0.7195
-8 10 43 0.6941 -0.4246
-6 10 43 -1.4376 -0.9553
-4 10 43 -0.1971 0.5422
-2 10 43 -6.6805 1.2010
0 10 43 10.3596 -1.6036
2 10 43 -1.4416 -2.4969
4 10 43 -1.7714 0.8462
6 10 43 8.3277 1.2962
8 10 43 6.4119 2.9555
-11 11 43 3.8197 2.4731
-9 11 43 3.4121 -0.2870
-7 11 43 -5.3850 -1.2058
-5 11 43 4.1066 -0.8918
-3 11 43 8.7295 3.3435
-1 11 43 4.6395 2.3062
1 11 43 0.1348 -1.5462
3 11 43 -9.2917 -0.4203
5 11 43 -8.9989 0.2908
7 11 43 -4.0785 0.4008
-10 12 43 -15.9873 2.5451
-8 12 43 3.8348 -0.3419
-6 12 43 3.0064 -2.2373
-4 12 43 -0.4773 0.2818
-2 12 43 3.1513 0.8916
0 12 43 -4.5714 -0.9982
2 12 43 -8.5121 -0.7495
4 12 43 -6.2805 0.5624
6 12 43 -9.3120 -2.0768
-9 13 43 10.6242 -6.1676
-7 13 43 -7.3902 -2.4946
-5 13 43 -5.7913 -0.4572
-3 13 43 9.5299 0.1180
-1 13 43 16.8725 0.7197
1 13 43 10.5572 0.8558
3 13 43 0.1605 2.3555
5 13 43 2.2102 0.1246
-6 14 43 4.7327 1.3114
-4 14 43 -3.9526 2.9421
-2 14 43 3.0506 -0.1963
0 14 43 -10.4503 -2.9706
2 14 43 -1.7740 -0.0613
-14 0 44 -10.3797 3.2320
-12 0 44 -3.8750 6.1584
-10 0 44 5.8578 -6.2957
-8 0 44 1.1492 -7.2266
-6 0 44 0.7055 6.8584
-4 0 44 -4.4074 3.3150
-2 0 44 9.3632 -13.2686
0 0 44 2.8858 -6.1743
2 0 44 -4.5462 12.4438
4 0 44 8.0209 5.5482
6 0 44 6.5650 -10.0859
8 0 44 -6.4065 -2.2185
10 0 44 -1.2675 8.9320
-13 1 44 -0.3408 4.7497
-11 1 44 -5.0413 0.1434
-9 1 44 0.6592 -8.1571
-7 1 44 -3.8930 -0.7150
-5 1 44 -2.6599 9.4412
-3 1 44 0.8039 2.4048
-1 1 44 3.6364 -7.4905
1 1 44 -3.1328 -1.5222
3 1 44 -3.0183 6.5207
5 1 44 1.3764 0.5639
7 1 44 -10.1466 -3.8138
9 1 44 -3.6168 2.8943
-14 2 44 -3.5294 0.2191
-12 2 44 -1.7228 1.3056
-10 2 44 5.4514 -1.2251
-8 2 44 -1.7172 -0.4645
-6 2 44 12.6158 1.2288
-4 2 44 5.3051 -2.3930
-2 2 44 0.9174 -3.5722
0 2 44 -15.6454 1.0401
2 2 44 -11.6530 3.7198
4 2 44 7.2287 -1.2384
6 2 44 2.5476 -5.5201
8 2 44 0.9590 -1.8259
10 2 44 4.2494 -0.5910
-13 3 44 0.3639 -1.5916
-11 3 44 -0.8045 -1.7219
-9 3 44 10.7630 -4.2670
-7 3 44 -4.0239 0.5767
-5 3 44 1.2511 3.8962
-3 3 44 3.8177 -0.3699
-1 3 44 1.6871 -2.4667
1 3 44 -5.4138 -0.1405
3 3 44 -6.7627 1.8794
5 3 44 -1.4704 -1.9876
7 3 44 -4.2371 2.6772
9 3 44 -2.0240 3.7124
-12 4 44 -3.2646 2.1222
-10 4 44 -3.7394 -3.6260
-8 4 44 -12.9824 -1.9826
-6 4 44 12.7848 2.8548
-4 4 44 -4.9339 1.7500
-2 4 44 1.1422 -3.2941
0 4 44 -8.4313 -1.3789
2 4 44 9.1640 2.5358
4 4 44 13.6964 -0.4921
6 4 44 -0.3688 -5.0875
8 4 44 -5.3651 2.2577
10 4 44 6.9213 -2.3711
-13 5 44 4.8815 2.9931
-11 5 44 -6.4261 0.1482
-9 5 44 13.2185 -5.6871
-7 5 44 0.6475 1.7574
-5 5 44 -0.8403 3.7191
-3 5 44 4.5825 -3.5087
-1 5 44 3.6305 -4.1823
1 5 44 -2.5061 2.8598
3 5 44 -2.8397 5.3698
5 5 44 2.4128 -3.5181
7 5 44 -2.4737 -3.4390
9 5 44 -5.8983 1.8095
-12 6 44 5.3723 -0.6476
-10 6 44 2.4099 -5.0523
-8 6 44 -3.8684 -0.1723
-6 6 44 9.4868 2.9441
-4 6 44 -0.8207 -0.0071
-2 6 44 -0.5059 -0.1828
0 6 44 -13.0311 1.7649
2 6 44 6.6436 0.6835
4 6 44 -0.9570 -3.3280
6 6 44 2.1997 -3.2334
8 6 44 -0.4568 4.1373
-11 7 44 -8.3687 0.2971
-9 7 44 -1.3135 -0.1592
-7 7 44 -5.7612 2.3236
-5 7 44 -13.0226 -2.0275
-3 7 44 0.8836 -1.9593
-1 7 44 5.6474 2.7024
1 7 44 -4.2996 2.7216
3 7 44 -3.4882 -1.9812
5 7 44 6.0453 -3.3483
7 7 44 -3.7289 -4.1371
-10 8 44 5.6710 -1.4137
-8 8 44 10.4102 1.9157
-6 8 44 2.2599 0.5366
-4 8 44 -3.5479 -3.7215
-2 8 44 -6.2870 -1.0696
0 8 44 -0.3437 1.8021
2 8 44 3.5666 0.8288
4 8 44 2.9080 1.1886
6 8 44 -4.4116 -1.5225
-9 9 44 -2.2096 -2.9519
-7 9 44 0.0297 0.0087
-5 9 44 0.5881 -0.8837
-3 9 44 8.3188 -0.8538
-1 9 44 0.9711 0.4980
1 9 44 -6.4345 1.1204
3 9 44 -3.5496 -0.4438
5 9 44 0.5777 -1.5909
7 9 44 -1.8047 -0.3911
-8 10 44 5.4838 0.2861
-6 10 44 0.8953 0.8453
-4 10 44 -5.5998 -0.6549
-2 10 44 7.7354 -0.4239
0 10 44 -1.6416 1.3507
2 10 44 -9.1822 2.0301
4 10 44 5.3512 -0.2307
-7 11 44 -5.5495 2.4046
-5 11 44 -6.0697 0.3928
-3 11 44 -2.7474 -2.7221
-1 11 44 7.7837 -2.8402
1 11 44 -6.0569 0.6053
3 11 44 -6.9497 0.4221
-6 12 44 -0.7766 -2.5248
-4 12 44 -12.7450 -2.3898
-2 12 44 -1.1580 0.5611
0 12 44 -7.1163 2.5951
2 12 44 4.2027 -0.5046
-11 1 45 6.0070 4.9613
-9 1 45 -2.4400 -6.7802
-7 1 45 -1.7395 -5.0422
-5 1 45 0.8146 4.5065
-3 1 45 -1.5651 2.6060
-1 1 45 -6.1059 -5.2843
1 1 45 -4.2508 -0.0533
3 1 45 -2.8143 7.2778
5 1 45 -6.4648 -2.7734
7 1 45 2.6065 -10.3108
-12 2 45 3.9769 5.8328
-10 2 45 -0.2942 -2.8894
-8 2 45 1.8385 -3.6461
-6 2 45 6.8188 1.4536
-4 2 45 -0.9993 4.0562
-2 2 45 3.2084 -0.5523
0 2 45 -1.6753 -4.2366
2 2 45 3.0264 0.3307
4 2 45 1.4400 3.2448
6 2 45 1.0913 -4.1115
-11 3 45 -9.1551 2.5094
-9 3 45 5.8329 -0.4358
-7 3 45 -1.1843 -2.9767
-5 3 45 -2.0714 -0.7792
-3 3 45 0.8022 3.7210
-1 3 45 -4.4235 1.4122
1 3 45 2.2568 -2.4381
3 3 45 0.8757 -0.1001
5 3 45 -1.2837 0.8579
7 3 45 -2.4604 -3.2339
-10 4 45 1.2249 3.0081
-8 4 45 -6.8889 1.0463
-6 4 45 2.9826 -2.2849
-4 4 45 -8.2021 -1.5524
-2 4 45 8.7008 1.2398
0 4 45 1.3691 -0.2844
2 4 45 6.5114 -0.3794
4 4 45 -2.8339 1.3774
6 4 45 0.0012 3.2393
-9 5 45 10.9182 2.4947
-7 5 45 1.9493 -1.8095
-5 5 45 -1.4626 0.9705
-3 5 45 12.2391 2.8486
-1 5 45 2.7150 0.4342
1 5 45 8.6605 -1.5780
3 5 45 0.9699 -0.1115
5 5 45 -0.7517 2.2908
-10 6 45 -3.7379 2.5302
-8 6 45 -8.8582 -1.3434
-6 6 45 -7.6484 -0.1138
-4 6 45 -10.1110 1.4479
-2 6 45 5.3672 -1.5769
0 6 45 7.3245 -1.8899
2 6 45 -0.4589 2.4093
4 6 45 3.0033 1.3754
6 6 45 2.9423 1.7930
-9 7 45 9.3051 2.7834
-7 7 45 3.0146 -1.0464
-5 7 45 -1.6639 4.2175
-3 7 45 7.6370 1.0779
-1 7 45 -4.1331 -4.3215
1 7 45 2.3713 -0.9002
3 7 45 -2.2094 3.5620
5 7 45 -2.5388 3.2232
-8 8 45 -0.3120 -2.0557
-6 8 45 -2.6670 -1.1021
-4 8 45 -8.6805 2.3721
-2 8 45 5.0602 -1.1512
0 8 45 0.9264 -1.6997
2 8 45 -3.4185 0.6800
4 8 45 6.1298 -0.4081
-7 9 45 1.4703 -2.9260
-5 9 45 1.4916 1.9382
-3 9 45 1.5085 1.4549
-1 9 45 3.0759 -1.6102
1 9 45 4.2642 0.0237
3 9 45 -6.0630 4.0501
-4 10 45 -9.1347 5.5880
-2 10 45 5.0378 -2.4452
0 10 45 -4.7162 -7.0291
-8 0 46 7.1608 6.6675
-6 0 46 5.6214 -2.1491
-4 0 46 2.4167 -8.3352
-2 0 46 1.5272 0.6817
0 0 46 -3.8842 6.2786
2 0 46 -11.3291 -2.6267
4 0 46 4.9794 -6.2118
-7 1 46 -4.5368 2.5617
-5 1 46 0.4856 -4.2366
-3 1 46 4.1889 -2.3018
-1 1 46 -0.0235 3.8057
1 1 46 0.8299 -0.4039
3 1 46 -5.2645 -5.7016
-8 2 46 0.8227 2.7005
-6 2 46 -3.3954 1.9557
-4 2 46 5.5343 -0.2896
-2 2 46 11.9977 -1.6930
0 2 46 7.6945 1.5286
2 2 46 -4.1198 3.7352
4 2 46 3.0908 -3.1057
-7 3 46 2.7515 -0.1381
-5 3 46 3.2687 2.3491
-3 3 46 10.4503 -1.4123
-1 3 46 3.3020 -4.2147
1 3 46 9.0685 -2.1878
3 3 46 -2.5309 2.1867
-6 4 46 -2.8306 3.1786
-4 4 46 6.0357 1.8818
-2 4 46 9.9383 -1.2181
0 4 46 5.2253 -0.9346
2 4 46 -1.5987 2.6087
-5 5 46 -3.3826 -0.1337
-3 5 46 0.7966 0.8192
-1 5 46 -11.4458 0.1915
1 5 46 0.7945 -1.5118
-4 6 46 -1.0512 1.8367
-2 6 46 7.3266 1.2495
0 6 46 4.6136 -2.3169
0 0 0 0.0 0.0
;
_shelx_fab_checksum              40057
_platon_squeeze_void_probe_radius 1.20
_olex2_submission_special_instructions 'No special instructions were received'
loop_
_space_group_symop_operation_xyz
'x, y, z'
'-x, y, -z+1/2'
'x+1/2, y+1/2, z'
'-x+1/2, y+1/2, -z+1/2'
'-x, -y, -z'
'x, -y, z-1/2'
'-x+1/2, -y+1/2, -z'
'x+1/2, -y+1/2, z-1/2'
loop_
_atom_site_label
_atom_site_type_symbol
_atom_site_fract_x
_atom_site_fract_y
_atom_site_fract_z
_atom_site_U_iso_or_equiv
_atom_site_adp_type
_atom_site_occupancy
_atom_site_site_symmetry_order
_atom_site_calc_flag
_atom_site_refinement_flags_posn
_atom_site_refinement_flags_adp
_atom_site_refinement_flags_occupancy
_atom_site_disorder_assembly
_atom_site_disorder_group
Pt32 Pt 0.36942(2) 0.36293(2) 0.26953(2) 0.0815(2) Uani 1 1 d . . . A 1
Pt58 Pt 0.58485(2) 0.24273(3) 0.55141(2) 0.1155(3) Uani 1 1 d . . . B 1
Pt28 Pt 0.63143(3) 0.52091(3) 0.48345(2) 0.1081(3) Uani 1 1 d . . . C 1
Pt90 Pt 0.52562(4) 0.13963(3) 0.36844(2) 0.1339(4) Uani 1 1 d . . . D 1
P24 P 0.40420(11) 0.37686(15) 0.22279(8) 0.0798(10) Uani 1 1 d . U . . .
P66 P 0.30301(12) 0.36852(16) 0.24811(8) 0.0880(12) Uani 1 1 d . U . . .
P30 P 0.68428(16) 0.56717(17) 0.48507(13) 0.1072(14) Uani 1 1 d . U . . .
P92 P 0.58632(16) 0.5588(2) 0.51472(13) 0.1147(16) Uani 1 1 d . U . . .
P94 P 0.65583(14) 0.2483(3) 0.55005(14) 0.146(2) Uani 1 1 d D U . . .
P52 P 0.58409(17) 0.2023(3) 0.59737(14) 0.145(2) Uani 1 1 d . U . . .
P60 P 0.4573(3) 0.1256(2) 0.3748(2) 0.159(2) Uani 1 1 d . U . . .
P88 P 0.5461(3) 0.0742(2) 0.3620(2) 0.165(3) Uani 1 1 d . U . . .
O82 O 0.4350(3) 0.4003(3) 0.3255(2) 0.083(3) Uani 1 1 d . U . . .
O106 O 0.4273(3) 0.3449(3) 0.29115(19) 0.070(2) Uani 1 1 d . U . . .
O96 O 0.5765(3) 0.2807(4) 0.5081(2) 0.089(3) Uani 1 1 d . U . . .
N68 N 0.3400(3) 0.2927(4) 0.4724(2) 0.067(2) Uani 1 1 d . U . . .
N86 N 0.3499(2) 0.3490(3) 0.31716(13) 0.072(2) Uani 1 1 d G U . . .
C240 C 0.3396(3) 0.3807(2) 0.33913(18) 0.075(3) Uani 1 1 d G U . A .
H240 H 0.3400 0.4089 0.3320 0.090 Uiso 1 1 calc R U . . .
C104 C 0.3287(3) 0.3710(2) 0.37158(16) 0.074(3) Uani 1 1 d G U . A .
H104 H 0.3216 0.3927 0.3866 0.089 Uiso 1 1 calc R U . . .
C16 C 0.3280(3) 0.3297(3) 0.38207(13) 0.069(2) Uani 1 1 d DG U . A .
C204 C 0.3383(3) 0.2980(2) 0.36010(18) 0.075(3) Uani 1 1 d G U . A .
H204 H 0.3379 0.2697 0.3673 0.090 Uiso 1 1 calc R U . . .
C210 C 0.3492(3) 0.3077(2) 0.32765(16) 0.074(3) Uani 1 1 d G U . A .
H210 H 0.3563 0.2860 0.3126 0.089 Uiso 1 1 calc R U . . .
N40 N 0.2325(3) 0.3084(4) 0.5228(2) 0.074(2) Uani 1 1 d . U . . .
N98 N 0.3183(3) 0.2780(4) 0.5418(2) 0.078(3) Uani 1 1 d . U . . .
N100 N 0.2538(3) 0.3226(4) 0.4542(2) 0.072(2) Uani 1 1 d . U . . .
O12 O 0.5663(4) 0.4800(4) 0.4290(3) 0.111(3) Uani 1 1 d . U . . .
C84 C 0.3153(3) 0.3213(4) 0.4174(2) 0.066(2) Uani 1 1 d D U . . .
C1 C 0.2434(3) 0.3522(4) 0.4025(3) 0.073(3) Uani 1 1 d D U . . .
H1 H 0.2465 0.3605 0.3798 0.087 Uiso 1 1 calc R U . . .
C70 C 0.3456(3) 0.3024(4) 0.4393(3) 0.067(2) Uani 1 1 d D U . . .
O64 O 0.5906(4) 0.4727(3) 0.4827(2) 0.099(3) Uani 1 1 d . U . . .
O22 O 0.5790(4) 0.3375(4) 0.5407(3) 0.118(4) Uani 1 1 d . U . . .
C108 C 0.3786(4) 0.2800(5) 0.4854(3) 0.075(3) Uani 1 1 d D U . . .
O34 O 0.5093(4) 0.2144(4) 0.3196(3) 0.104(3) Uani 1 1 d . U . . .
C118 C 0.5732(4) 0.3206(6) 0.5127(4) 0.086(3) Uani 1 1 d . U . . .
O10 O 0.5140(4) 0.2037(5) 0.3757(3) 0.123(3) Uani 1 1 d . U . . .
N54 N 0.7815(5) 0.3803(4) 0.3538(3) 0.098(3) Uani 1 1 d . U . . .
N36 N 0.5188(2) 0.2452(3) 0.5468(2) 0.099(3) Uani 1 1 d G U . . .
C234 C 0.4999(3) 0.2816(3) 0.5577(2) 0.096(3) Uani 1 1 d G U . B .
H234 H 0.5159 0.3009 0.5713 0.115 Uiso 1 1 calc R U . . .
C130 C 0.4576(3) 0.2897(3) 0.5486(2) 0.091(3) Uani 1 1 d G U . B .
H130 H 0.4447 0.3146 0.5560 0.110 Uiso 1 1 calc R U . . .
C238 C 0.43412(19) 0.2615(3) 0.5286(2) 0.085(3) Uani 1 1 d DG U . B .
C286 C 0.4530(3) 0.2251(3) 0.5178(2) 0.093(3) Uani 1 1 d G U . B .
H286 H 0.4370 0.2058 0.5041 0.112 Uiso 1 1 calc R U . . .
C334 C 0.4953(3) 0.2169(3) 0.5269(2) 0.099(3) Uani 1 1 d G U . B .
H334 H 0.5082 0.1921 0.5195 0.118 Uiso 1 1 calc R U . . .
C8 C 0.3883(3) 0.2698(5) 0.5192(2) 0.081(3) Uani 1 1 d D U . . .
C14 C 0.2141(4) 0.3379(5) 0.4521(3) 0.076(3) Uani 1 1 d D U . . .
C38 C 0.2586(4) 0.2859(5) 0.5798(2) 0.083(3) Uani 1 1 d D U . . .
C26 C 0.2745(3) 0.3328(4) 0.4242(3) 0.070(2) Uani 1 1 d D U . . .
C4 C 0.4439(4) 0.3658(5) 0.3181(3) 0.072(3) Uani 1 1 d . U . . .
N44 N 0.7207(5) 0.3165(4) 0.3713(3) 0.093(3) Uani 1 1 d . U . . .
C46 C 0.2484(3) 0.2862(3) 0.61641(16) 0.092(3) Uani 1 1 d DG U . . .
C120 C 0.2301(4) 0.3214(3) 0.6300(2) 0.103(4) Uani 1 1 d G U . . .
H120 H 0.2238 0.3450 0.6162 0.123 Uiso 1 1 calc R U . . .
C20 C 0.2210(4) 0.3220(3) 0.6638(2) 0.114(4) Uani 1 1 d G U . . .
H20 H 0.2084 0.3460 0.6730 0.137 Uiso 1 1 calc R U . . .
C48 C 0.2302(4) 0.2874(4) 0.68396(16) 0.113(4) Uani 1 1 d G U . . .
H48 H 0.2239 0.2878 0.7070 0.136 Uiso 1 1 calc R U . . .
C116 C 0.2485(4) 0.2522(3) 0.6704(2) 0.106(4) Uani 1 1 d G U . . .
H116 H 0.2548 0.2286 0.6842 0.127 Uiso 1 1 calc R U . . .
C122 C 0.2577(3) 0.2517(3) 0.6366(2) 0.099(3) Uani 1 1 d G U . . .
H122 H 0.2702 0.2277 0.6273 0.118 Uiso 1 1 calc R U . . .
N76 N 0.6633(3) 0.4799(3) 0.4537(2) 0.098(3) Uani 1 1 d G U . . .
C268 C 0.6838(4) 0.4453(3) 0.46809(17) 0.102(4) Uani 1 1 d G U . C .
H268 H 0.6851 0.4417 0.4918 0.123 Uiso 1 1 calc R U . . .
C306 C 0.7025(4) 0.4161(3) 0.4478(2) 0.107(4) Uani 1 1 d G U . C .
H306 H 0.7165 0.3925 0.4576 0.128 Uiso 1 1 calc R U . . .
C222 C 0.7006(4) 0.4215(3) 0.4130(2) 0.098(3) Uani 1 1 d DG U . C .
C318 C 0.6801(4) 0.4560(3) 0.39864(16) 0.103(4) Uani 1 1 d G U . C .
H318 H 0.6789 0.4597 0.3749 0.124 Uiso 1 1 calc R U . . .
C228 C 0.6615(4) 0.4852(3) 0.4190(2) 0.103(4) Uani 1 1 d G U . C .
H228 H 0.6475 0.5088 0.4092 0.124 Uiso 1 1 calc R U . . .
C148 C 0.5359(3) 0.3515(3) 0.42429(15) 0.076(3) Uani 1 1 d G U . . .
C74 C 0.5445(3) 0.3940(3) 0.42533(16) 0.078(3) Uani 1 1 d G U . . .
H74 H 0.5387 0.4107 0.4059 0.094 Uiso 1 1 calc R U . . .
C232 C 0.5618(3) 0.4120(2) 0.4548(2) 0.082(3) Uani 1 1 d G U . . .
C78 C 0.5704(3) 0.3876(3) 0.48317(16) 0.077(3) Uani 1 1 d G U . . .
H78 H 0.5823 0.3999 0.5033 0.092 Uiso 1 1 calc R U . . .
C230 C 0.5618(3) 0.3451(3) 0.48214(16) 0.077(3) Uani 1 1 d G U . . .
C200 C 0.5445(3) 0.3270(2) 0.45269(19) 0.073(3) Uani 1 1 d G U . . .
H200 H 0.5386 0.2980 0.4520 0.088 Uiso 1 1 calc R U . . .
C216 C 0.1630(4) 0.3146(5) 0.5339(3) 0.085(3) Uani 1 1 d D U . . .
H216 H 0.1335 0.3195 0.5305 0.102 Uiso 1 1 calc R U . . .
C146 C 0.3012(3) 0.2794(5) 0.5727(3) 0.082(3) Uani 1 1 d D U . . .
C174 C 0.3352(4) 0.2701(5) 0.5978(3) 0.091(3) Uani 1 1 d D U . . .
H174 H 0.3331 0.2673 0.6215 0.109 Uiso 1 1 calc R U . . .
C224 C 0.3603(4) 0.2714(5) 0.5455(2) 0.083(3) Uani 1 1 d D U . . .
C212 C 0.2904(5) 0.3237(5) 0.2203(3) 0.096(3) Uani 1 1 d D U . . .
H21A H 0.2615 0.3272 0.2097 0.116 Uiso 1 1 calc R U . . .
H21B H 0.3106 0.3229 0.2021 0.116 Uiso 1 1 calc R U . . .
C164 C 0.2273(4) 0.2984(5) 0.5562(3) 0.081(3) Uani 1 1 d D U . . .
C220 C 0.5138(3) 0.3313(3) 0.39278(15) 0.073(3) Uani 1 1 d G U . . .
C124 C 0.5195(3) 0.2892(3) 0.38627(18) 0.075(3) Uani 1 1 d G U . . .
H124 H 0.5356 0.2723 0.4019 0.090 Uiso 1 1 calc R U . . .
C144 C 0.5015(3) 0.2716(2) 0.3568(2) 0.081(3) Uani 1 1 d DG U . . .
C56 C 0.4780(3) 0.2963(3) 0.33393(16) 0.074(3) Uani 1 1 d G U . . .
H56 H 0.4657 0.2843 0.3138 0.089 Uiso 1 1 calc R U . . .
C42 C 0.4724(2) 0.3385(2) 0.34045(16) 0.065(2) Uani 1 1 d G U . . .
C202 C 0.4903(3) 0.3560(2) 0.36988(18) 0.067(3) Uani 1 1 d G U . . .
H202 H 0.4864 0.3848 0.3743 0.081 Uiso 1 1 calc R U . . .
C156 C 0.1937(4) 0.3199(5) 0.5102(3) 0.078(3) Uani 1 1 d D U . . .
C194 C 0.7588(5) 0.4030(5) 0.3757(4) 0.099(3) Uani 1 1 d D U . . .
C226 C 0.6893(5) 0.2858(5) 0.3741(4) 0.099(3) Uani 1 1 d D U . . .
N126 N 0.8208(5) 0.3179(5) 0.3133(4) 0.108(3) Uani 1 1 d . U . . .
C160 C 0.1843(4) 0.3338(5) 0.4773(3) 0.085(3) Uani 1 1 d D U . . .
C198 C 0.6933(5) 0.2456(4) 0.3606(4) 0.105(3) Uani 1 1 d D U . . .
C168 C 0.7275(6) 0.2319(5) 0.3432(4) 0.110(3) Uani 1 1 d D U . . .
C180 C 0.8186(6) 0.2442(5) 0.2967(5) 0.127(4) Uani 1 1 d D U . . .
C192 C 0.2074(4) 0.3570(5) 0.4208(3) 0.080(3) Uani 1 1 d D U . . .
H192 H 0.1823 0.3711 0.4132 0.096 Uiso 1 1 calc R U . . .
C136 C 0.6546(5) 0.2996(5) 0.3907(4) 0.101(4) Uani 1 1 d D U . . .
H136 H 0.6293 0.2846 0.3944 0.121 Uiso 1 1 calc R U . . .
C128 C 0.6645(5) 0.3400(5) 0.4010(4) 0.098(3) Uani 1 1 d D U . . .
H128 H 0.6478 0.3577 0.4142 0.117 Uiso 1 1 calc R U . . .
C178 C 0.3882(3) 0.2931(5) 0.4307(3) 0.076(3) Uani 1 1 d D U . . .
H178 H 0.3995 0.2954 0.4092 0.091 Uiso 1 1 calc R U . . .
C132 C 0.8458(6) 0.3520(6) 0.3053(4) 0.108(3) Uani 1 1 d D U . . .
C154 C 0.1418(3) 0.3530(4) 0.4703(3) 0.104(3) Uani 1 1 d DG U . . .
C152 C 0.1172(4) 0.3396(4) 0.4423(3) 0.120(4) Uani 1 1 d G U . . .
H152 H 0.1274 0.3181 0.4284 0.143 Uiso 1 1 calc R U . . .
C162 C 0.0778(3) 0.3575(5) 0.4347(3) 0.128(4) Uani 1 1 d G U . . .
H162 H 0.0610 0.3483 0.4155 0.154 Uiso 1 1 calc R U . . .
C184 C 0.0629(3) 0.3888(4) 0.4550(4) 0.135(4) Uani 1 1 d G U . . .
H184 H 0.0359 0.4011 0.4498 0.162 Uiso 1 1 calc R U . . .
C260 C 0.0874(4) 0.4023(4) 0.4831(3) 0.128(4) Uani 1 1 d G U . . .
H260 H 0.0772 0.4237 0.4970 0.153 Uiso 1 1 calc R U . . .
C254 C 0.1269(3) 0.3844(4) 0.4907(3) 0.118(4) Uani 1 1 d G U . . .
H254 H 0.1437 0.3935 0.5098 0.141 Uiso 1 1 calc R U . . .
C282 C 0.4093(4) 0.4023(6) 0.1562(3) 0.095(4) Uani 1 1 d D U . . .
H28A H 0.4146 0.3756 0.1453 0.143 Uiso 1 1 calc R U . . .
H28B H 0.4360 0.4135 0.1661 0.143 Uiso 1 1 calc R U . . .
H28C H 0.3971 0.4220 0.1394 0.143 Uiso 1 1 calc R U . . .
C270 C 0.8420(5) 0.3922(5) 0.3191(4) 0.115(3) Uani 1 1 d D U . . .
C308 C 0.7217(5) 0.3899(4) 0.3907(4) 0.097(3) Uani 1 1 d D U . . .
C280 C 0.8367(5) 0.2841(6) 0.2959(4) 0.114(3) Uani 1 1 d D U . . .
C346 C 0.7042(5) 0.3499(5) 0.3883(4) 0.093(3) Uani 1 1 d D U . . .
C290 C 0.1842(4) 0.3006(5) 0.5634(3) 0.088(3) Uani 1 1 d D U . . .
H290 H 0.1722 0.2940 0.5841 0.105 Uiso 1 1 calc R U . . .
C264 C 0.3783(4) 0.3959(6) 0.1837(3) 0.085(3) Uani 1 1 d D U . . .
H26A H 0.3562 0.3757 0.1758 0.102 Uiso 1 1 calc R U . . .
H26B H 0.3640 0.4227 0.1881 0.102 Uiso 1 1 calc R U . . .
C348 C 0.8116(6) 0.4053(5) 0.3408(4) 0.108(3) Uani 1 1 d D U . . .
C252 C 0.8787(5) 0.3407(6) 0.2839(4) 0.109(4) Uani 1 1 d D U . . .
H252 H 0.9003 0.3579 0.2757 0.131 Uiso 1 1 calc R U . . .
N244 N 0.7635(5) 0.2559(4) 0.3330(4) 0.103(3) Uani 1 1 d . U . . .
C324 C 0.8077(6) 0.4448(5) 0.3554(4) 0.117(4) Uani 1 1 d D U . . .
H324 H 0.8239 0.4688 0.3504 0.140 Uiso 1 1 calc R U . . .
C300 C 0.4090(4) 0.2804(5) 0.4599(3) 0.082(3) Uani 1 1 d D U . . .
H300 H 0.4382 0.2732 0.4628 0.098 Uiso 1 1 calc R U . . .
C322 C 0.5715(5) 0.4582(6) 0.4539(4) 0.092(3) Uani 1 1 d . U . . .
C310 C 0.2867(5) 0.4145(5) 0.2251(4) 0.104(4) Uani 1 1 d D U . . .
H31A H 0.3031 0.4166 0.2047 0.125 Uiso 1 1 calc R U . . .
H31B H 0.2564 0.4120 0.2178 0.125 Uiso 1 1 calc R U . . .
C274 C 0.7761(5) 0.4431(5) 0.3783(4) 0.107(4) Uani 1 1 d D U . . .
H274 H 0.7679 0.4648 0.3928 0.128 Uiso 1 1 calc R U . . .
C250 C 0.3708(4) 0.2662(5) 0.5800(3) 0.089(3) Uani 1 1 d D U . . .
H250 H 0.3985 0.2607 0.5896 0.107 Uiso 1 1 calc R U . . .
C328 C 0.4337(5) 0.3310(5) 0.2118(4) 0.095(3) Uani 1 1 d D U . . .
H32A H 0.4552 0.3395 0.1960 0.114 Uiso 1 1 calc R U . . .
H32B H 0.4492 0.3206 0.2325 0.114 Uiso 1 1 calc R U . . .
C248 C 0.8714(5) 0.2984(6) 0.2778(4) 0.111(4) Uani 1 1 d D U . . .
H248 H 0.8874 0.2815 0.2635 0.134 Uiso 1 1 calc R U . . .
C296 C 0.7700(6) 0.1892(5) 0.3140(5) 0.119(4) Uani 1 1 d D U . . .
H296 H 0.7813 0.1656 0.3032 0.143 Uiso 1 1 calc R U . . .
C330 C 0.7128(6) 0.5741(6) 0.5284(5) 0.119(4) Uani 1 1 d D U . . .
H33A H 0.7386 0.5914 0.5267 0.143 Uiso 1 1 calc R U . . .
H33B H 0.6940 0.5880 0.5440 0.143 Uiso 1 1 calc R U . . .
C342 C 0.2649(4) 0.3641(6) 0.2811(4) 0.098(3) Uani 1 1 d D U . . .
H34A H 0.2725 0.3396 0.2952 0.118 Uiso 1 1 calc R U . . .
H34B H 0.2675 0.3891 0.2956 0.118 Uiso 1 1 calc R U . . .
C201 C 0.5097(6) 0.2263(5) 0.3490(4) 0.104(3) Uani 1 1 d D U . . .
C49 C 0.8719(5) 0.4250(5) 0.3060(4) 0.151(4) Uani 1 1 d DG U . . .
C189 C 0.9082(6) 0.4369(5) 0.3249(3) 0.168(5) Uani 1 1 d G U . . .
H189 H 0.9147 0.4245 0.3463 0.202 Uiso 1 1 calc R U . . .
C217 C 0.9351(5) 0.4669(6) 0.3126(4) 0.180(6) Uani 1 1 d G U . . .
H217 H 0.9599 0.4751 0.3255 0.216 Uiso 1 1 calc R U . . .
C205 C 0.9256(6) 0.4851(5) 0.2813(5) 0.184(6) Uani 1 1 d G U . . .
H205 H 0.9439 0.5056 0.2729 0.221 Uiso 1 1 calc R U . . .
C109 C 0.8892(6) 0.4732(6) 0.2624(4) 0.184(6) Uani 1 1 d G U . . .
H109 H 0.8827 0.4856 0.2411 0.221 Uiso 1 1 calc R U . . .
C53 C 0.8624(5) 0.4431(6) 0.2747(4) 0.174(5) Uani 1 1 d G U . . .
H53 H 0.8376 0.4350 0.2618 0.209 Uiso 1 1 calc R U . . .
C361 C 0.2194(4) 0.3600(7) 0.2684(4) 0.117(5) Uani 1 1 d D U . . .
H36A H 0.2136 0.3795 0.2497 0.176 Uiso 1 1 calc R U . . .
H36B H 0.2009 0.3663 0.2866 0.176 Uiso 1 1 calc R U . . .
H36C H 0.2142 0.3314 0.2605 0.176 Uiso 1 1 calc R U . . .
C219 C 0.5757(5) 0.6024(7) 0.5730(4) 0.117(5) Uani 1 1 d D U . . .
H21C H 0.5564 0.6216 0.5606 0.175 Uiso 1 1 calc R U . . .
H21D H 0.5898 0.6170 0.5921 0.175 Uiso 1 1 calc R U . . .
H21E H 0.5595 0.5788 0.5812 0.175 Uiso 1 1 calc R U . . .
C356 C 0.6086(5) 0.5866(7) 0.5500(4) 0.115(4) Uani 1 1 d D U . . .
H35A H 0.6286 0.5681 0.5630 0.138 Uiso 1 1 calc R U . . .
H35B H 0.6249 0.6106 0.5419 0.138 Uiso 1 1 calc R U . . .
C27 C 0.4430(5) 0.4144(5) 0.2346(4) 0.091(3) Uani 1 1 d D U . . .
H27A H 0.4617 0.4028 0.2531 0.110 Uiso 1 1 calc R U . . .
H27B H 0.4607 0.4194 0.2152 0.110 Uiso 1 1 calc R U . . .
C95 C 0.2927(6) 0.2833(5) 0.2394(4) 0.117(5) Uani 1 1 d D U . . .
H95A H 0.2786 0.2613 0.2258 0.175 Uiso 1 1 calc R U . . .
H95B H 0.2786 0.2865 0.2606 0.175 Uiso 1 1 calc R U . . .
H95C H 0.3225 0.2757 0.2443 0.175 Uiso 1 1 calc R U . . .
C3 C 0.7332(6) 0.1916(5) 0.3316(5) 0.119(4) Uani 1 1 d D U . . .
H3 H 0.7147 0.1688 0.3351 0.143 Uiso 1 1 calc R U . . .
C185 C 0.8419(5) 0.2154(5) 0.2743(4) 0.155(4) Uani 1 1 d DG U . . .
C227 C 0.8328(5) 0.2138(5) 0.2397(4) 0.169(5) Uani 1 1 d G U . . .
H227 H 0.8131 0.2328 0.2293 0.203 Uiso 1 1 calc R U . . .
C7 C 0.8527(6) 0.1843(6) 0.2203(3) 0.181(6) Uani 1 1 d G U . . .
H7 H 0.8465 0.1833 0.1967 0.217 Uiso 1 1 calc R U . . .
C51 C 0.8816(6) 0.1565(5) 0.2355(5) 0.183(6) Uani 1 1 d G U . . .
H51 H 0.8951 0.1364 0.2223 0.219 Uiso 1 1 calc R U . . .
C115 C 0.8906(5) 0.1581(5) 0.2701(5) 0.177(6) Uani 1 1 d G U . . .
H115 H 0.9103 0.1391 0.2805 0.212 Uiso 1 1 calc R U . . .
C207 C 0.8707(6) 0.1875(6) 0.2895(4) 0.168(5) Uani 1 1 d G U . . .
H207 H 0.8769 0.1886 0.3131 0.202 Uiso 1 1 calc R U . . .
C231 C 0.6541(8) 0.6182(8) 0.4351(4) 0.142(7) Uani 1 1 d D U . . .
H23A H 0.6767 0.6084 0.4212 0.214 Uiso 1 1 d R U . . .
H23B H 0.6457 0.6465 0.4284 0.214 Uiso 1 1 d R U . . .
H23C H 0.6296 0.5995 0.4322 0.214 Uiso 1 1 d R U . . .
C352 C 0.2932(7) 0.4530(6) 0.2454(5) 0.126(6) Uani 1 1 d D U . . .
H35C H 0.2880 0.4774 0.2310 0.188 Uiso 1 1 calc R U . . .
H35D H 0.3224 0.4537 0.2552 0.188 Uiso 1 1 calc R U . . .
H35E H 0.2734 0.4532 0.2636 0.188 Uiso 1 1 calc R U . . .
C358 C 0.5645(9) 0.4935(8) 0.5577(6) 0.173(8) Uani 1 1 d D U . . .
H35F H 0.5718 0.4685 0.5449 0.260 Uiso 1 1 d R U . . .
H35G H 0.5443 0.4860 0.5744 0.260 Uiso 1 1 d R U . . .
H35H H 0.5902 0.5051 0.5690 0.260 Uiso 1 1 d R U . . .
C199 C 0.6700(6) 0.6182(6) 0.4719(4) 0.117(4) Uani 1 1 d D U . . .
H19A H 0.6475 0.6290 0.4860 0.140 Uiso 1 1 calc R U . . .
H19B H 0.6949 0.6369 0.4749 0.140 Uiso 1 1 calc R U . . .
C135 C 0.6269(7) 0.1643(8) 0.6067(6) 0.159(5) Uani 1 1 d D U . . .
H13A H 0.6549 0.1772 0.6036 0.191 Uiso 1 1 calc DR U . . .
H13B H 0.6263 0.1544 0.6302 0.191 Uiso 1 1 calc R U . . .
C141 C 0.5909(6) 0.2344(8) 0.6362(5) 0.159(5) Uani 1 1 d D U . . .
H14A H 0.5910 0.2157 0.6560 0.191 Uiso 1 1 calc R U . . .
H14B H 0.6189 0.2484 0.6365 0.191 Uiso 1 1 calc R U . . .
C261 C 0.6818(6) 0.2726(8) 0.5894(5) 0.173(5) Uani 1 1 d D U . . .
H26C H 0.6956 0.2988 0.5825 0.207 Uiso 1 1 calc R U . . .
H26D H 0.6589 0.2806 0.6041 0.207 Uiso 1 1 calc R U . . .
C243 C 0.4089(6) 0.2955(6) 0.1964(4) 0.127(6) Uani 1 1 d D U . . .
H24A H 0.3983 0.3032 0.1737 0.190 Uiso 1 1 calc R U . . .
H24B H 0.3850 0.2891 0.2102 0.190 Uiso 1 1 calc R U . . .
H24C H 0.4273 0.2709 0.1953 0.190 Uiso 1 1 calc R U . . .
C241 C 0.7243(8) 0.5317(7) 0.5409(6) 0.156(7) Uani 1 1 d D U . . .
H24D H 0.7368 0.5159 0.5229 0.233 Uiso 1 1 calc R U . . .
H24E H 0.6988 0.5174 0.5477 0.233 Uiso 1 1 calc R U . . .
H24F H 0.7448 0.5340 0.5602 0.233 Uiso 1 1 calc R U . . .
C129 C 0.5297(10) 0.0338(7) 0.3881(8) 0.181(5) Uani 1 1 d D U . . .
H12A H 0.5343 0.0451 0.4112 0.217 Uiso 1 1 calc R U . . .
H12B H 0.4986 0.0327 0.3837 0.217 Uiso 1 1 calc R U . . .
C123 C 0.4256(6) 0.4553(5) 0.2457(5) 0.126(6) Uani 1 1 d D U . . .
H12C H 0.4080 0.4676 0.2273 0.189 Uiso 1 1 calc R U . . .
H12D H 0.4490 0.4742 0.2521 0.189 Uiso 1 1 calc R U . . .
H12E H 0.4083 0.4508 0.2651 0.189 Uiso 1 1 calc R U . . .
C121 C 0.7867(6) 0.2304(5) 0.3159(5) 0.115(3) Uani 1 1 d D U . . .
N61 N 0.5851(4) 0.1653(4) 0.3656(3) 0.139(4) Uani 1 1 d G U . . .
C245 C 0.6053(4) 0.1796(4) 0.3954(2) 0.133(4) Uani 1 1 d G U . D .
H245 H 0.5946 0.1722 0.4164 0.159 Uiso 1 1 calc R U . . .
C63 C 0.6410(4) 0.2047(4) 0.3943(2) 0.126(4) Uani 1 1 d G U . D .
H63 H 0.6548 0.2144 0.4147 0.151 Uiso 1 1 calc R U . . .
C9 C 0.6567(4) 0.2155(4) 0.3636(3) 0.114(3) Uani 1 1 d DG U . D .
C265 C 0.6365(4) 0.2012(4) 0.3338(2) 0.119(4) Uani 1 1 d G U . D .
H265 H 0.6472 0.2086 0.3127 0.143 Uiso 1 1 calc R U . . .
C259 C 0.6008(4) 0.1761(4) 0.3348(2) 0.132(4) Uani 1 1 d G U . D .
H259 H 0.5870 0.1664 0.3145 0.158 Uiso 1 1 calc R U . . .
C69 C 0.6852(5) 0.1984(9) 0.5405(6) 0.159(5) Uani 1 1 d D U . . .
H69A H 0.6789 0.1765 0.5570 0.190 Uiso 1 1 calc R U . . .
H69B H 0.6763 0.1882 0.5176 0.190 Uiso 1 1 calc R U . . .
C287 C 0.6736(6) 0.2856(8) 0.5191(5) 0.154(5) Uani 1 1 d D U . . .
H28D H 0.6584 0.3123 0.5219 0.184 Uiso 1 1 calc R U . . .
H28E H 0.7042 0.2909 0.5238 0.184 Uiso 1 1 calc R U . . .
C239 C 0.5329(6) 0.1741(8) 0.5990(6) 0.158(5) Uani 1 1 d D U . . .
H23D H 0.5102 0.1950 0.6016 0.190 Uiso 1 1 calc R U . . .
H23E H 0.5270 0.1601 0.5771 0.190 Uiso 1 1 calc R U . . .
C255 C 0.7319(5) 0.2081(10) 0.5425(6) 0.178(8) Uani 1 1 d D U . . .
H25A H 0.7446 0.1979 0.5221 0.266 Uiso 1 1 calc R U . . .
H25B H 0.7455 0.1943 0.5623 0.266 Uiso 1 1 calc DR U . . .
H25C H 0.7360 0.2383 0.5444 0.266 Uiso 1 1 calc DR U . . .
C269 C 0.6669(6) 0.2721(9) 0.4836(5) 0.174(8) Uani 1 1 d D U . . .
H26E H 0.6885 0.2848 0.4701 0.261 Uiso 1 1 calc R U . . .
H26F H 0.6386 0.2810 0.4749 0.261 Uiso 1 1 calc R U . . .
H26G H 0.6690 0.2417 0.4823 0.261 Uiso 1 1 calc R U . . .
C35 C 0.6192(8) 0.1283(8) 0.5823(6) 0.180(8) Uani 1 1 d D U . . .
H35I H 0.6169 0.1390 0.5592 0.270 Uiso 1 1 calc R U . . .
H35J H 0.5929 0.1140 0.5873 0.270 Uiso 1 1 calc R U . . .
H35K H 0.6429 0.1086 0.5847 0.270 Uiso 1 1 calc R U . . .
C147 C 0.5576(8) 0.2667(9) 0.6396(7) 0.187(8) Uani 1 1 d D U . . .
H14C H 0.5319 0.2563 0.6272 0.280 Uiso 1 1 d R U . . .
H14D H 0.5671 0.2923 0.6290 0.280 Uiso 1 1 d R U . . .
H14E H 0.5514 0.2724 0.6630 0.280 Uiso 1 1 d R U . . .
C237 C 0.5293(8) 0.1420(9) 0.6262(7) 0.199(8) Uani 1 1 d D U . . .
H23F H 0.5498 0.1208 0.6200 0.299 Uiso 1 1 d R U . . .
H23G H 0.5009 0.1298 0.6254 0.299 Uiso 1 1 d R U . . .
H23H H 0.5368 0.1520 0.6490 0.299 Uiso 1 1 d R U . . .
C41 C 0.7138(6) 0.2488(8) 0.6104(6) 0.235(10) Uani 1 1 d D U . . .
H41A H 0.7384 0.2427 0.5973 0.353 Uiso 1 1 calc DR U . . .
H41B H 0.7012 0.2225 0.6177 0.353 Uiso 1 1 calc DR U . . .
H41C H 0.7229 0.2653 0.6303 0.353 Uiso 1 1 calc R U . . .
C77 C 0.4246(7) 0.1742(7) 0.3627(8) 0.164(5) Uani 1 1 d D U . . .
H77A H 0.4326 0.1965 0.3791 0.197 Uiso 1 1 calc R U . . .
H77B H 0.4330 0.1838 0.3404 0.197 Uiso 1 1 calc R U . . .
C331 C 0.4629(9) 0.1414(9) 0.4429(7) 0.191(9) Uani 1 1 d D U . . .
H33C H 0.4821 0.1632 0.4356 0.286 Uiso 1 1 calc R U . . .
H33D H 0.4771 0.1251 0.4610 0.286 Uiso 1 1 calc R U . . .
H33E H 0.4372 0.1542 0.4510 0.286 Uiso 1 1 calc R U . . .
C37 C 0.4512(9) 0.1136(8) 0.4141(7) 0.168(5) Uani 1 1 d D U . . .
H37A H 0.4208 0.1069 0.4157 0.202 Uiso 1 1 calc R U . . .
H37B H 0.4670 0.0872 0.4183 0.202 Uiso 1 1 calc R U . . .
C21 C 0.6019(10) 0.0699(8) 0.3566(7) 0.184(5) Uani 1 1 d D U . . .
H21F H 0.6084 0.0436 0.3449 0.220 Uiso 1 1 calc R U . . .
H21G H 0.6119 0.0936 0.3432 0.220 Uiso 1 1 calc R U . . .
C345 C 0.5263(10) 0.0499(8) 0.3214(7) 0.179(5) Uani 1 1 d D U . . .
H34C H 0.5365 0.0207 0.3203 0.215 Uiso 1 1 calc R U . . .
H34D H 0.4949 0.0495 0.3200 0.215 Uiso 1 1 calc DR U . . .
C177 C 0.4289(9) 0.0865(6) 0.3468(7) 0.172(5) Uani 1 1 d D U . . .
H17A H 0.4437 0.0593 0.3491 0.207 Uiso 1 1 calc R U . . .
H17B H 0.3998 0.0827 0.3543 0.207 Uiso 1 1 calc DR U . . .
C81 C 0.3774(7) 0.1703(7) 0.3612(8) 0.188(9) Uani 1 1 d D U . . .
H81A H 0.3653 0.1866 0.3422 0.282 Uiso 1 1 calc R U . . .
H81B H 0.3665 0.1807 0.3822 0.282 Uiso 1 1 calc R U . . .
H81C H 0.3695 0.1409 0.3582 0.282 Uiso 1 1 calc DR U . . .
C159 C 0.6228(11) 0.0703(9) 0.3912(8) 0.216(9) Uani 1 1 d D U . . .
H15A H 0.6370 0.0436 0.3958 0.324 Uiso 1 1 d R U . . .
H15B H 0.6018 0.0752 0.4080 0.324 Uiso 1 1 d R U . . .
H15C H 0.6438 0.0929 0.3923 0.324 Uiso 1 1 d R U . . .
C301 C 0.5421(11) 0.0745(9) 0.2925(8) 0.213(9) Uani 1 1 d D U . . .
H30A H 0.5730 0.0772 0.2952 0.319 Uiso 1 1 calc R U . . .
H30B H 0.5291 0.1022 0.2920 0.319 Uiso 1 1 calc R U . . .
H30C H 0.5345 0.0600 0.2713 0.319 Uiso 1 1 calc R U . . .
C167 C 0.5473(6) 0.5247(7) 0.5320(5) 0.134(4) Uani 1 1 d D U . . .
H16A H 0.5259 0.5421 0.5426 0.160 Uiso 1 1 calc R U . . .
H16B H 0.5326 0.5092 0.5132 0.160 Uiso 1 1 calc R U . . .
C337 C 0.5428(12) -0.0109(7) 0.3912(9) 0.225(10) Uani 1 1 d D U . . .
H33F H 0.5620 -0.0168 0.3732 0.338 Uiso 1 1 d R U . . .
H33G H 0.5177 -0.0288 0.3883 0.338 Uiso 1 1 d R U . . .
H33H H 0.5575 -0.0165 0.4131 0.338 Uiso 1 1 d R U . . .
C349 C 0.7639(7) 0.5818(7) 0.4579(6) 0.152(7) Uani 1 1 d D U . . .
H34E H 0.7534 0.6103 0.4543 0.228 Uiso 1 1 calc R U . . .
H34F H 0.7825 0.5743 0.4399 0.228 Uiso 1 1 calc R U . . .
H34G H 0.7799 0.5802 0.4797 0.228 Uiso 1 1 calc R U . . .
C173 C 0.7268(6) 0.5520(6) 0.4576(5) 0.122(4) Uani 1 1 d D U . . .
H17C H 0.7374 0.5241 0.4646 0.146 Uiso 1 1 calc R U . . .
H17D H 0.7146 0.5495 0.4342 0.146 Uiso 1 1 calc R U . . .
C79 C 0.5551(6) 0.6020(7) 0.4890(5) 0.131(4) Uani 1 1 d D U . . .
H79A H 0.5389 0.6194 0.5043 0.157 Uiso 1 1 calc R U . . .
H79B H 0.5753 0.6202 0.4777 0.157 Uiso 1 1 calc R U . . .
C175 C 0.5252(7) 0.5819(8) 0.4630(6) 0.166(8) Uani 1 1 d D U . . .
H17E H 0.5411 0.5634 0.4487 0.248 Uiso 1 1 calc R U . . .
H17F H 0.5111 0.6036 0.4490 0.248 Uiso 1 1 calc R U . . .
H17G H 0.5038 0.5657 0.4743 0.248 Uiso 1 1 calc R U . . .
C89 C 0.4265(11) 0.0990(9) 0.3105(7) 0.208(9) Uani 1 1 d D U . . .
H89A H 0.3967 0.1007 0.3023 0.311 Uiso 1 1 calc R U . . .
H89B H 0.4412 0.0783 0.2973 0.311 Uiso 1 1 calc DR U . . .
H89C H 0.4400 0.1263 0.3081 0.311 Uiso 1 1 calc R U . . .
loop_
_atom_site_aniso_label
_atom_site_aniso_U_11
_atom_site_aniso_U_22
_atom_site_aniso_U_33
_atom_site_aniso_U_23
_atom_site_aniso_U_13
_atom_site_aniso_U_12
Pt32 0.0676(3) 0.1294(6) 0.0474(3) -0.0006(3) 0.0020(2) -0.0034(3)
Pt58 0.0698(4) 0.1885(9) 0.0868(4) 0.0468(5) -0.0085(3) 0.0108(4)
Pt28 0.1280(6) 0.1168(6) 0.0786(4) -0.0260(4) -0.0017(4) -0.0163(5)
Pt90 0.1752(9) 0.1010(6) 0.1246(7) 0.0119(5) 0.0000(6) -0.0075(6)
P24 0.065(2) 0.125(3) 0.0502(16) 0.0055(18) 0.0069(14) 0.001(2)
P66 0.068(2) 0.146(4) 0.0499(17) 0.0037(19) -0.0016(15) -0.002(2)
P30 0.103(3) 0.113(3) 0.107(3) -0.038(3) 0.017(2) -0.018(3)
P92 0.092(3) 0.150(4) 0.102(3) -0.047(3) 0.004(2) -0.017(3)
P94 0.060(2) 0.265(7) 0.110(3) 0.080(4) -0.008(2) 0.005(3)
P52 0.090(3) 0.237(7) 0.107(3) 0.089(4) -0.002(3) 0.019(4)
P60 0.166(5) 0.090(4) 0.218(7) 0.007(4) -0.010(5) -0.012(4)
P88 0.224(7) 0.095(4) 0.178(6) 0.025(4) 0.035(5) 0.015(4)
O82 0.079(6) 0.089(7) 0.079(6) -0.008(5) -0.019(5) 0.013(5)
O106 0.059(4) 0.101(6) 0.049(4) -0.005(4) 0.001(3) -0.002(4)
O96 0.057(5) 0.138(8) 0.071(5) 0.017(6) -0.004(4) -0.002(6)
N68 0.054(5) 0.101(6) 0.047(4) 0.001(4) 0.003(4) -0.001(5)
N86 0.063(5) 0.104(6) 0.049(4) 0.001(4) -0.003(4) -0.007(5)
C240 0.064(6) 0.102(7) 0.059(5) -0.003(5) 0.000(5) 0.004(6)
C104 0.065(6) 0.107(7) 0.051(5) -0.010(5) -0.002(5) 0.000(6)
C16 0.060(5) 0.100(6) 0.047(4) -0.003(5) 0.004(4) 0.002(5)
C204 0.068(6) 0.105(7) 0.051(5) -0.002(5) -0.003(5) -0.003(6)
C210 0.065(6) 0.103(7) 0.053(5) -0.007(5) 0.002(5) -0.003(6)
N40 0.064(5) 0.108(6) 0.053(4) 0.002(5) 0.016(4) -0.001(5)
N98 0.069(5) 0.122(7) 0.043(4) 0.000(5) -0.003(4) 0.008(5)
N100 0.056(5) 0.114(6) 0.048(4) -0.004(4) 0.005(4) -0.002(5)
O12 0.147(9) 0.096(8) 0.087(7) 0.001(6) -0.016(7) 0.002(7)
C84 0.060(5) 0.098(6) 0.041(4) 0.003(4) 0.005(4) 0.002(5)
C1 0.062(5) 0.108(7) 0.048(5) -0.001(5) -0.004(4) 0.001(5)
C70 0.056(5) 0.101(6) 0.044(4) 0.000(4) 0.003(4) 0.001(5)
O64 0.113(7) 0.112(7) 0.069(5) -0.026(5) -0.024(5) -0.020(6)
O22 0.135(9) 0.145(10) 0.070(6) 0.009(6) -0.039(6) -0.029(8)
C108 0.061(5) 0.109(6) 0.056(5) 0.000(5) -0.001(4) 0.003(5)
O34 0.131(9) 0.101(8) 0.078(6) -0.013(6) -0.016(6) 0.006(6)
C118 0.064(5) 0.128(7) 0.065(5) 0.012(6) -0.010(5) -0.002(6)
O10 0.133(8) 0.148(9) 0.085(6) 0.013(6) -0.011(6) 0.001(7)
N54 0.111(7) 0.087(7) 0.092(6) -0.003(5) -0.038(6) -0.005(6)
N36 0.071(6) 0.147(8) 0.076(6) 0.018(6) -0.005(5) 0.025(6)
C234 0.073(6) 0.143(9) 0.070(6) 0.018(6) -0.016(5) 0.014(6)
C130 0.065(6) 0.134(8) 0.073(6) 0.016(6) -0.015(5) 0.017(6)
C238 0.064(5) 0.127(7) 0.063(5) 0.013(5) -0.006(5) 0.010(5)
C286 0.062(6) 0.136(8) 0.081(6) 0.017(6) -0.001(5) 0.011(6)
C334 0.071(6) 0.139(9) 0.085(7) 0.020(6) 0.000(6) 0.019(6)
C8 0.061(5) 0.124(6) 0.058(5) 0.005(5) -0.005(4) 0.018(5)
C14 0.056(5) 0.114(6) 0.058(5) 0.001(5) 0.008(4) 0.001(5)
C38 0.079(5) 0.121(6) 0.049(5) -0.002(5) 0.010(4) -0.011(5)
C26 0.060(5) 0.104(6) 0.046(4) -0.004(5) 0.001(4) -0.003(5)
C4 0.063(5) 0.102(7) 0.052(5) -0.009(5) 0.010(4) 0.001(5)
N44 0.119(7) 0.092(7) 0.065(5) -0.003(5) -0.023(5) 0.016(6)
C46 0.094(6) 0.130(7) 0.051(5) -0.006(5) 0.013(5) -0.025(6)
C120 0.110(8) 0.136(9) 0.062(6) -0.007(6) 0.015(6) -0.014(7)
C20 0.132(8) 0.141(9) 0.071(6) -0.016(6) 0.022(6) -0.012(8)
C48 0.135(8) 0.141(9) 0.065(6) -0.012(6) 0.021(6) -0.023(8)
C116 0.126(8) 0.130(9) 0.061(6) -0.008(6) 0.009(6) -0.034(7)
C122 0.110(7) 0.129(8) 0.057(6) 0.004(6) 0.009(6) -0.034(7)
N76 0.124(7) 0.102(7) 0.068(5) -0.018(5) -0.001(6) 0.003(6)
C268 0.126(8) 0.104(8) 0.074(6) -0.009(6) -0.012(6) 0.007(7)
C306 0.134(8) 0.106(8) 0.077(6) -0.003(6) -0.015(6) 0.012(7)
C222 0.115(7) 0.093(7) 0.082(6) -0.011(5) -0.018(6) 0.009(6)
C318 0.122(8) 0.098(8) 0.088(7) -0.009(6) -0.015(6) 0.007(7)
C228 0.125(8) 0.103(8) 0.081(6) -0.012(6) -0.002(6) 0.012(7)
C148 0.067(5) 0.103(6) 0.058(5) -0.001(5) -0.007(4) -0.002(5)
C74 0.077(6) 0.100(7) 0.056(5) -0.006(5) -0.009(5) 0.007(6)
C232 0.076(6) 0.106(6) 0.062(5) -0.013(5) -0.013(5) 0.000(5)
C78 0.067(6) 0.107(7) 0.055(5) -0.010(5) -0.013(5) -0.002(6)
C230 0.058(5) 0.115(6) 0.057(5) 0.000(5) -0.010(4) -0.006(5)
C200 0.058(5) 0.105(7) 0.057(5) -0.001(5) -0.003(5) -0.003(5)
C216 0.072(6) 0.112(7) 0.072(6) -0.001(6) 0.016(5) -0.001(6)
C146 0.071(5) 0.128(7) 0.048(4) 0.007(5) 0.000(4) 0.000(5)
C174 0.080(6) 0.139(8) 0.053(5) 0.010(6) -0.007(5) 0.002(6)
C224 0.068(5) 0.130(7) 0.050(5) 0.010(5) -0.004(4) 0.004(5)
C212 0.084(7) 0.146(8) 0.058(6) -0.008(6) -0.010(6) -0.012(7)
C164 0.074(5) 0.112(6) 0.057(5) -0.009(5) 0.018(4) -0.007(5)
C220 0.061(5) 0.102(6) 0.054(5) 0.002(5) -0.002(4) -0.004(5)
C124 0.072(6) 0.092(7) 0.061(5) -0.001(5) -0.004(5) -0.012(6)
C144 0.082(6) 0.097(6) 0.063(5) -0.002(5) -0.001(5) -0.005(5)
C56 0.074(6) 0.098(7) 0.051(5) -0.013(5) 0.001(5) -0.008(6)
C42 0.060(5) 0.092(6) 0.044(4) -0.009(4) 0.004(4) -0.003(5)
C202 0.057(5) 0.093(6) 0.051(5) -0.004(5) -0.002(4) -0.001(5)
C156 0.069(5) 0.109(6) 0.059(5) 0.002(5) 0.015(4) 0.005(5)
C194 0.113(7) 0.091(6) 0.089(6) -0.005(6) -0.025(6) 0.001(6)
C226 0.125(7) 0.096(7) 0.071(5) -0.008(5) -0.028(5) 0.011(6)
N126 0.101(7) 0.119(8) 0.099(7) -0.013(6) -0.034(6) 0.015(6)
C160 0.066(5) 0.120(6) 0.072(5) 0.004(5) 0.012(5) 0.004(5)
C198 0.135(7) 0.096(6) 0.080(6) -0.005(5) -0.023(6) 0.013(6)
C168 0.127(7) 0.095(7) 0.102(6) -0.012(6) -0.034(6) 0.018(6)
C180 0.122(7) 0.123(7) 0.131(7) -0.031(7) -0.028(6) 0.025(6)
C192 0.060(5) 0.118(7) 0.062(5) 0.003(5) -0.004(5) 0.004(6)
C136 0.128(8) 0.101(7) 0.072(6) -0.012(6) -0.020(6) 0.004(7)
C128 0.123(8) 0.098(7) 0.069(6) -0.005(6) -0.015(6) 0.011(7)
C178 0.065(6) 0.112(7) 0.052(5) 0.008(5) 0.004(5) 0.018(6)
C132 0.101(7) 0.121(7) 0.098(6) 0.001(6) -0.037(6) 0.006(6)
C154 0.070(6) 0.147(8) 0.095(6) 0.012(6) 0.015(5) 0.006(6)
C152 0.081(7) 0.162(9) 0.116(8) 0.022(8) 0.008(7) 0.006(7)
C162 0.084(7) 0.170(10) 0.132(9) 0.029(8) 0.011(7) 0.011(8)
C184 0.088(8) 0.177(10) 0.141(9) 0.027(8) 0.023(7) 0.018(8)
C260 0.085(7) 0.170(10) 0.130(9) 0.016(8) 0.031(7) 0.023(8)
C254 0.079(7) 0.161(9) 0.115(8) 0.010(8) 0.025(6) 0.008(7)
C282 0.084(9) 0.145(12) 0.057(7) 0.008(8) 0.012(6) 0.013(9)
C270 0.122(7) 0.112(7) 0.105(7) 0.007(6) -0.045(6) -0.004(6)
C308 0.112(6) 0.094(6) 0.081(6) -0.006(5) -0.019(5) 0.003(6)
C280 0.101(7) 0.127(7) 0.110(7) -0.016(6) -0.031(6) 0.015(6)
C346 0.117(7) 0.091(6) 0.068(5) -0.001(5) -0.018(5) 0.008(6)
C290 0.081(6) 0.115(7) 0.069(6) -0.005(6) 0.018(5) -0.004(6)
C264 0.081(6) 0.127(8) 0.047(5) 0.011(6) -0.001(5) -0.007(6)
C348 0.119(7) 0.099(7) 0.101(7) 0.002(6) -0.040(6) -0.004(6)
C252 0.098(7) 0.129(8) 0.096(7) -0.005(7) -0.039(6) 0.005(7)
N244 0.115(7) 0.091(7) 0.099(7) -0.020(6) -0.029(6) 0.024(6)
C324 0.124(8) 0.102(8) 0.120(8) 0.001(7) -0.024(7) 0.001(7)
C300 0.064(6) 0.118(7) 0.063(5) -0.007(6) 0.004(5) 0.013(6)
C322 0.095(6) 0.111(7) 0.068(6) -0.017(6) -0.015(5) -0.004(6)
C310 0.088(7) 0.148(9) 0.075(7) -0.003(7) 0.002(6) 0.020(7)
C274 0.116(8) 0.095(7) 0.107(8) 0.000(7) -0.013(7) 0.004(7)
C250 0.074(6) 0.139(8) 0.055(5) 0.002(6) -0.003(5) 0.000(6)
C328 0.071(7) 0.147(8) 0.067(6) -0.001(6) 0.011(6) 0.016(7)
C248 0.096(7) 0.130(8) 0.105(7) -0.013(7) -0.025(6) 0.010(7)
C296 0.123(8) 0.104(8) 0.127(8) -0.026(7) -0.028(7) 0.021(8)
C330 0.114(8) 0.131(9) 0.112(8) -0.044(7) 0.008(7) -0.009(8)
C342 0.057(6) 0.164(9) 0.073(6) 0.009(7) -0.001(5) -0.016(7)
C201 0.114(7) 0.116(7) 0.079(6) 0.008(6) -0.009(6) -0.006(7)
C49 0.168(9) 0.136(8) 0.141(8) 0.027(7) -0.052(7) -0.020(7)
C189 0.184(11) 0.149(10) 0.165(10) 0.036(9) -0.045(9) -0.034(9)
C217 0.196(12) 0.162(11) 0.176(11) 0.041(9) -0.046(10) -0.038(10)
C205 0.203(12) 0.167(11) 0.178(11) 0.046(10) -0.043(10) -0.044(10)
C109 0.201(12) 0.171(11) 0.175(11) 0.049(10) -0.046(10) -0.036(10)
C53 0.195(11) 0.157(10) 0.165(10) 0.042(9) -0.048(9) -0.031(9)
C361 0.078(9) 0.191(15) 0.083(9) 0.009(10) 0.009(8) -0.002(10)
C219 0.083(9) 0.151(13) 0.116(11) -0.065(10) 0.011(9) -0.004(10)
C356 0.087(7) 0.155(9) 0.101(7) -0.045(7) 0.004(7) -0.009(7)
C27 0.079(7) 0.132(8) 0.064(6) 0.011(6) 0.012(6) 0.001(7)
C95 0.125(12) 0.132(13) 0.089(10) 0.003(9) -0.024(9) -0.008(11)
C3 0.132(8) 0.102(8) 0.119(8) -0.017(7) -0.032(7) 0.017(8)
C185 0.151(9) 0.141(8) 0.170(9) -0.045(8) -0.025(8) 0.034(7)
C227 0.169(10) 0.150(10) 0.185(11) -0.052(9) -0.018(10) 0.039(9)
C7 0.183(11) 0.157(11) 0.200(12) -0.049(10) -0.014(10) 0.035(9)
C51 0.184(11) 0.155(11) 0.206(12) -0.048(10) -0.011(11) 0.040(9)
C115 0.179(11) 0.147(11) 0.201(12) -0.043(10) -0.017(10) 0.044(9)
C207 0.167(10) 0.142(10) 0.191(11) -0.045(9) -0.027(10) 0.038(9)
C231 0.158(15) 0.151(15) 0.117(12) -0.003(12) -0.005(12) -0.009(13)
C352 0.138(13) 0.133(14) 0.105(11) 0.004(10) -0.007(10) -0.001(12)
C358 0.189(17) 0.207(18) 0.127(14) 0.006(14) 0.039(13) -0.041(15)
C199 0.110(8) 0.127(8) 0.113(8) -0.019(8) 0.011(7) -0.013(8)
C135 0.107(8) 0.248(11) 0.122(9) 0.081(9) -0.004(8) 0.027(9)
C141 0.112(8) 0.248(11) 0.117(8) 0.083(9) -0.004(8) 0.010(8)
C261 0.096(8) 0.292(11) 0.129(9) 0.061(9) -0.006(7) -0.015(9)
C243 0.134(13) 0.166(15) 0.082(10) -0.010(10) 0.021(9) 0.014(12)
C241 0.169(15) 0.161(16) 0.132(14) -0.007(13) -0.030(13) 0.006(14)
C129 0.239(11) 0.106(9) 0.200(10) 0.046(9) 0.037(10) 0.022(9)
C123 0.129(13) 0.117(13) 0.128(12) 0.020(11) -0.025(11) -0.026(11)
C121 0.116(7) 0.108(7) 0.117(7) -0.024(6) -0.029(6) 0.022(6)
N61 0.215(10) 0.110(8) 0.089(7) -0.001(7) -0.007(8) 0.025(8)
C245 0.194(11) 0.112(9) 0.091(7) -0.002(7) -0.007(8) 0.006(8)
C63 0.175(10) 0.109(8) 0.091(7) 0.000(7) -0.012(8) 0.009(8)
C9 0.156(8) 0.097(7) 0.087(6) 0.001(6) -0.012(6) 0.008(6)
C265 0.167(10) 0.101(8) 0.087(7) 0.002(7) -0.005(7) 0.010(7)
C259 0.189(11) 0.110(9) 0.094(7) -0.004(7) -0.009(8) 0.015(8)
C69 0.076(7) 0.271(11) 0.128(8) 0.072(9) 0.001(7) 0.021(8)
C287 0.063(7) 0.273(11) 0.123(8) 0.072(9) -0.008(7) -0.005(8)
C239 0.094(8) 0.248(11) 0.133(8) 0.105(8) 0.010(7) 0.020(8)
C255 0.094(12) 0.275(19) 0.164(15) 0.066(15) 0.009(12) 0.032(14)
C269 0.066(10) 0.31(2) 0.144(14) 0.068(15) 0.004(10) 0.011(13)
C35 0.136(14) 0.26(2) 0.143(15) 0.076(15) 0.007(13) 0.057(15)
C147 0.141(14) 0.263(18) 0.155(15) 0.059(15) 0.000(13) 0.027(11)
C237 0.135(14) 0.279(19) 0.185(16) 0.133(15) 0.020(13) 0.029(15)
C41 0.190(17) 0.31(2) 0.204(18) 0.058(16) -0.028(14) 0.061(15)
C77 0.166(10) 0.095(8) 0.228(11) 0.013(9) -0.015(10) -0.001(9)
C331 0.165(16) 0.179(18) 0.233(19) -0.008(16) 0.059(16) -0.004(15)
C37 0.167(10) 0.110(9) 0.228(11) -0.002(9) 0.004(10) -0.013(9)
C21 0.240(11) 0.119(9) 0.193(11) 0.012(9) 0.028(10) 0.021(10)
C345 0.233(11) 0.113(9) 0.193(11) 0.027(9) 0.022(10) 0.009(9)
C177 0.195(10) 0.101(9) 0.219(11) 0.007(9) -0.013(10) -0.006(9)
C81 0.178(17) 0.130(15) 0.254(19) 0.010(15) -0.007(17) 0.013(15)
C159 0.26(2) 0.145(16) 0.24(2) 0.000(17) -0.001(19) 0.052(16)
C301 0.26(2) 0.156(17) 0.221(19) 0.024(16) 0.031(18) -0.020(17)
C167 0.110(8) 0.165(10) 0.127(8) -0.028(8) 0.011(8) -0.019(8)
C337 0.29(2) 0.151(16) 0.241(19) 0.046(16) 0.025(18) 0.028(17)
C349 0.136(14) 0.161(15) 0.162(15) -0.054(13) 0.031(12) -0.035(12)
C173 0.113(8) 0.122(8) 0.133(8) -0.027(8) 0.029(7) -0.018(7)
C79 0.106(8) 0.160(9) 0.126(8) -0.041(8) -0.009(7) 0.011(8)
C175 0.137(14) 0.190(17) 0.165(15) -0.032(14) -0.035(13) 0.012(14)
C89 0.239(19) 0.145(16) 0.24(2) -0.007(17) 0.024(19) 0.013(16)
loop_
_atom_type_symbol
_atom_type_description
_atom_type_scat_dispersion_real
_atom_type_scat_dispersion_imag
_atom_type_scat_source
C C 0.0033 0.0016 'International Tables Vol C Tables 4.2.6.8 and 6.1.1.4'
H H 0.0000 0.0000 'International Tables Vol C Tables 4.2.6.8 and 6.1.1.4'
N N 0.0061 0.0033 'International Tables Vol C Tables 4.2.6.8 and 6.1.1.4'
O O 0.0106 0.0060 'International Tables Vol C Tables 4.2.6.8 and 6.1.1.4'
P P 0.1023 0.0942 'International Tables Vol C Tables 4.2.6.8 and 6.1.1.4'
Pt Pt -1.7033 8.3905 'International Tables Vol C Tables 4.2.6.8 and 6.1.1.4'
loop_
_geom_angle_atom_site_label_1
_geom_angle_atom_site_label_2
_geom_angle_atom_site_label_3
_geom_angle
_geom_angle_site_symmetry_1
_geom_angle_site_symmetry_3
_geom_angle_publ_flag
P66 Pt32 P24 99.23(13) . . ?
O106 Pt32 P24 86.5(2) . . ?
O106 Pt32 P66 167.9(3) . . ?
O106 Pt32 N86 82.0(3) . . ?
N86 Pt32 P24 168.2(2) . . ?
N86 Pt32 P66 92.6(2) . . ?
P52 Pt58 P94 96.97(19) . . ?
O96 Pt58 P94 90.8(3) . . ?
O96 Pt58 P52 172.2(3) . . ?
N36 Pt58 P94 170.8(3) . . ?
N36 Pt58 P52 92.1(3) . . ?
N36 Pt58 O96 80.1(4) . . ?
P30 Pt28 P92 96.85(18) . . ?
O64 Pt28 P30 171.5(4) . . ?
O64 Pt28 P92 89.8(4) . . ?
O64 Pt28 N76 80.5(4) . . ?
N76 Pt28 P30 93.0(3) . . ?
N76 Pt28 P92 170.1(3) . . ?
P88 Pt90 P60 96.5(3) . . ?
O10 Pt90 P60 90.2(4) . . ?
O10 Pt90 P88 173.0(5) . . ?
N61 Pt90 P60 167.7(4) . . ?
N61 Pt90 P88 95.6(4) . . ?
N61 Pt90 O10 77.6(5) . . ?
C264 P24 Pt32 123.6(4) . . ?
C328 P24 Pt32 108.6(5) . . ?
C328 P24 C264 106.3(7) . . ?
C27 P24 Pt32 106.2(5) . . ?
C27 P24 C264 105.7(7) . . ?
C27 P24 C328 105.1(7) . . ?
C212 P66 Pt32 109.5(5) . . ?
C310 P66 Pt32 119.9(6) . . ?
C310 P66 C212 106.7(7) . . ?
C310 P66 C342 104.3(8) . . ?
C342 P66 Pt32 111.3(4) . . ?
C342 P66 C212 104.0(8) . . ?
C330 P30 Pt28 114.7(7) . . ?
C199 P30 Pt28 115.4(7) . . ?
C199 P30 C330 105.0(8) . . ?
C199 P30 C173 104.5(10) . . ?
C173 P30 Pt28 112.0(6) . . ?
C173 P30 C330 104.1(9) . . ?
C356 P92 Pt28 117.7(5) . . ?
C356 P92 C167 104.5(10) . . ?
C356 P92 C79 102.9(9) . . ?
C167 P92 Pt28 110.1(8) . . ?
C167 P92 C79 107.1(10) . . ?
C79 P92 Pt28 113.6(7) . . ?
C261 P94 Pt58 113.5(7) . . ?
C261 P94 C69 108.6(10) . . ?
C69 P94 Pt58 115.9(7) . . ?
C287 P94 Pt58 114.3(6) . . ?
C287 P94 C261 98.8(11) . . ?
C287 P94 C69 104.1(10) . . ?
C135 P52 Pt58 120.3(7) . . ?
C135 P52 C141 98.6(10) . . ?
C135 P52 C239 107.5(11) . . ?
C141 P52 Pt58 110.6(8) . . ?
C239 P52 Pt58 111.1(6) . . ?
C239 P52 C141 107.5(11) . . ?
C77 P60 Pt90 108.6(8) . . ?
C37 P60 Pt90 108.8(11) . . ?
C37 P60 C77 110.0(15) . . ?
C37 P60 C177 109.5(13) . . ?
C177 P60 Pt90 120.0(10) . . ?
C177 P60 C77 99.3(12) . . ?
C129 P88 Pt90 122.2(10) . . ?
C129 P88 C21 109.8(14) . . ?
C129 P88 C345 96.2(13) . . ?
C21 P88 Pt90 112.5(10) . . ?
C21 P88 C345 98.5(14) . . ?
C345 P88 Pt90 114.1(9) . . ?
C4 O106 Pt32 119.4(8) . . ?
C118 O96 Pt58 117.4(9) . . ?
C108 N68 C70 105.6(9) . . ?
C240 N86 Pt32 120.6(4) . . ?
C240 N86 C210 120.0 . . ?
C210 N86 Pt32 119.3(4) . . ?
N86 C240 H240 120.0 . . ?
N86 C240 C104 120.0 . . ?
C104 C240 H240 120.0 . . ?
C240 C104 H104 120.0 . . ?
C16 C104 C240 120.0 . . ?
C16 C104 H104 120.0 . . ?
C104 C16 C84 117.3(7) . . ?
C204 C16 C104 120.0 . . ?
C204 C16 C84 122.7(7) . . ?
C16 C204 H204 120.0 . . ?
C16 C204 C210 120.0 . . ?
C210 C204 H204 120.0 . . ?
N86 C210 H210 120.0 . . ?
C204 C210 N86 120.0 . . ?
C204 C210 H210 120.0 . . ?
C156 N40 C164 105.5(9) . . ?
C224 N98 C146 110.1(9) . . ?
C14 N100 C26 109.6(9) . . ?
C70 C84 C16 116.8(8) . . ?
C26 C84 C16 115.8(8) . . ?
C26 C84 C70 127.4(9) . . ?
C26 C1 H1 126.7 . . ?
C192 C1 H1 126.7 . . ?
C192 C1 C26 106.7(10) . . ?
N68 C70 C84 125.2(9) . . ?
N68 C70 C178 110.7(9) . . ?
C84 C70 C178 124.0(9) . . ?
C322 O64 Pt28 122.2(11) . . ?
N68 C108 C8 125.2(10) . . ?
N68 C108 C300 110.6(9) . . ?
C8 C108 C300 124.2(11) . . ?
O96 C118 C230 115.1(13) . . ?
O22 C118 O96 123.1(14) . . ?
O22 C118 C230 121.7(17) . . ?
C201 O10 Pt90 116.6(11) . . ?
C194 N54 C348 109.2(13) . . ?
C234 N36 Pt58 116.7(5) . . ?
C234 N36 C334 120.0 . . ?
C334 N36 Pt58 121.6(5) . . ?
N36 C234 H234 120.0 . . ?
C130 C234 N36 120.0 . . ?
C130 C234 H234 120.0 . . ?
C234 C130 H130 120.0 . . ?
C234 C130 C238 120.0 . . ?
C238 C130 H130 120.0 . . ?
C130 C238 C8 120.2(9) . . ?
C286 C238 C130 120.0 . . ?
C286 C238 C8 119.7(9) . . ?
C238 C286 H286 120.0 . . ?
C334 C286 C238 120.0 . . ?
C334 C286 H286 120.0 . . ?
N36 C334 H334 120.0 . . ?
C286 C334 N36 120.0 . . ?
C286 C334 H334 120.0 . . ?
C108 C8 C238 116.0(9) . . ?
C108 C8 C224 126.3(10) . . ?
C224 C8 C238 117.2(9) . . ?
N100 C14 C160 125.4(10) . . ?
N100 C14 C192 107.9(9) . . ?
C192 C14 C160 126.8(11) . . ?
C146 C38 C46 116.9(10) . . ?
C164 C38 C46 118.2(10) . . ?
C164 C38 C146 124.1(9) . . ?
C84 C26 N100 125.2(10) . . ?
C84 C26 C1 128.4(10) . . ?
C1 C26 N100 106.0(9) . . ?
O82 C4 O106 125.2(13) . . ?
O82 C4 C42 122.5(11) . . ?
O106 C4 C42 112.0(12) . . ?
C346 N44 C226 102.5(13) . . ?
C120 C46 C38 119.8(9) . . ?
C120 C46 C122 120.0 . . ?
C122 C46 C38 120.2(9) . . ?
C46 C120 H120 120.0 . . ?
C20 C120 C46 120.0 . . ?
C20 C120 H120 120.0 . . ?
C120 C20 H20 120.0 . . ?
C120 C20 C48 120.0 . . ?
C48 C20 H20 120.0 . . ?
C20 C48 H48 120.0 . . ?
C116 C48 C20 120.0 . . ?
C116 C48 H48 120.0 . . ?
C48 C116 H116 120.0 . . ?
C122 C116 C48 120.0 . . ?
C122 C116 H116 120.0 . . ?
C46 C122 H122 120.0 . . ?
C116 C122 C46 120.0 . . ?
C116 C122 H122 120.0 . . ?
C268 N76 Pt28 120.1(5) . . ?
C268 N76 C228 120.0 . . ?
C228 N76 Pt28 119.7(5) . . ?
N76 C268 H268 120.0 . . ?
N76 C268 C306 120.0 . . ?
C306 C268 H268 120.0 . . ?
C268 C306 H306 120.0 . . ?
C222 C306 C268 120.0 . . ?
C222 C306 H306 120.0 . . ?
C306 C222 C318 120.0 . . ?
C306 C222 C308 120.2(9) . . ?
C318 C222 C308 119.8(9) . . ?
C222 C318 H318 120.0 . . ?
C222 C318 C228 120.0 . . ?
C228 C318 H318 120.0 . . ?
N76 C228 H228 120.0 . . ?
C318 C228 N76 120.0 . . ?
C318 C228 H228 120.0 . . ?
C74 C148 C200 120.0 . . ?
C74 C148 C220 121.0(6) . . ?
C200 C148 C220 118.9(6) . . ?
C148 C74 H74 120.0 . . ?
C232 C74 C148 120.0 . . ?
C232 C74 H74 120.0 . . ?
C74 C232 C78 120.0 . . ?
C74 C232 C322 117.3(8) . . ?
C78 C232 C322 122.7(8) . . ?
C232 C78 H78 120.0 . . ?
C232 C78 C230 120.0 . . ?
C230 C78 H78 120.0 . . ?
C78 C230 C118 117.2(9) . . ?
C78 C230 C200 120.0 . . ?
C200 C230 C118 122.7(9) . . ?
C148 C200 H200 120.0 . . ?
C230 C200 C148 120.0 . . ?
C230 C200 H200 120.0 . . ?
C156 C216 H216 126.6 . . ?
C290 C216 H216 126.6 . . ?
C290 C216 C156 106.9(11) . . ?
N98 C146 C38 127.9(9) . . ?
N98 C146 C174 107.3(10) . . ?
C38 C146 C174 124.7(10) . . ?
C146 C174 H174 127.5 . . ?
C250 C174 C146 105.0(10) . . ?
C250 C174 H174 127.5 . . ?
N98 C224 C8 125.7(10) . . ?
N98 C224 C250 107.6(10) . . ?
C250 C224 C8 126.8(11) . . ?
P66 C212 H21A 109.3 . . ?
P66 C212 H21B 109.3 . . ?
H21A C212 H21B 108.0 . . ?
C95 C212 P66 111.4(10) . . ?
C95 C212 H21A 109.3 . . ?
C95 C212 H21B 109.3 . . ?
N40 C164 C38 127.0(10) . . ?
N40 C164 C290 110.6(10) . . ?
C38 C164 C290 122.4(11) . . ?
C124 C220 C148 120.2(6) . . ?
C124 C220 C202 120.0 . . ?
C202 C220 C148 119.7(6) . . ?
C220 C124 H124 120.0 . . ?
C144 C124 C220 120.0 . . ?
C144 C124 H124 120.0 . . ?
C124 C144 C201 119.8(8) . . ?
C56 C144 C124 120.0 . . ?
C56 C144 C201 120.1(8) . . ?
C144 C56 H56 120.0 . . ?
C144 C56 C42 120.0 . . ?
C42 C56 H56 120.0 . . ?
C56 C42 C4 122.2(8) . . ?
C56 C42 C202 120.0 . . ?
C202 C42 C4 117.6(7) . . ?
C220 C202 H202 120.0 . . ?
C42 C202 C220 120.0 . . ?
C42 C202 H202 120.0 . . ?
N40 C156 C216 111.2(10) . . ?
N40 C156 C160 125.2(10) . . ?
C160 C156 C216 123.5(12) . . ?
N54 C194 C308 126.1(14) . . ?
N54 C194 C274 108.6(15) . . ?
C274 C194 C308 125.0(16) . . ?
C198 C226 N44 122.2(15) . . ?
C136 C226 N44 113.2(13) . . ?
C136 C226 C198 124.6(16) . . ?
C132 N126 C280 105.9(15) . . ?
C14 C160 C154 117.2(10) . . ?
C156 C160 C14 125.1(10) . . ?
C156 C160 C154 116.7(10) . . ?
C226 C198 C9 118.0(14) . . ?
C168 C198 C226 124.8(14) . . ?
C168 C198 C9 117.1(14) . . ?
C198 C168 N244 128.1(14) . . ?
C198 C168 C3 125.5(18) . . ?
C3 C168 N244 106.4(15) . . ?
C280 C180 C185 109.5(16) . . ?
C121 C180 C280 128.4(15) . . ?
C121 C180 C185 122.0(17) . . ?
C1 C192 C14 109.5(10) . . ?
C1 C192 H192 125.2 . . ?
C14 C192 H192 125.2 . . ?
C226 C136 H136 127.2 . . ?
C226 C136 C128 105.6(15) . . ?
C128 C136 H136 127.2 . . ?
C136 C128 H128 126.5 . . ?
C136 C128 C346 107.1(14) . . ?
C346 C128 H128 126.5 . . ?
C70 C178 H178 127.1 . . ?
C300 C178 C70 105.9(10) . . ?
C300 C178 H178 127.1 . . ?
N126 C132 C270 124.6(16) . . ?
N126 C132 C252 112.1(16) . . ?
C270 C132 C252 123.0(18) . . ?
C152 C154 C160 118.6(10) . . ?
C152 C154 C254 120.0 . . ?
C254 C154 C160 121.4(10) . . ?
C154 C152 H152 120.0 . . ?
C154 C152 C162 120.0 . . ?
C162 C152 H152 120.0 . . ?
C152 C162 H162 120.0 . . ?
C152 C162 C184 120.0 . . ?
C184 C162 H162 120.0 . . ?
C162 C184 H184 120.0 . . ?
C260 C184 C162 120.0 . . ?
C260 C184 H184 120.0 . . ?
C184 C260 H260 120.0 . . ?
C254 C260 C184 120.0 . . ?
C254 C260 H260 120.0 . . ?
C154 C254 H254 120.0 . . ?
C260 C254 C154 120.0 . . ?
C260 C254 H254 120.0 . . ?
H28A C282 H28B 109.5 . . ?
H28A C282 H28C 109.5 . . ?
H28B C282 H28C 109.5 . . ?
C264 C282 H28A 109.5 . . ?
C264 C282 H28B 109.5 . . ?
C264 C282 H28C 109.5 . . ?
C132 C270 C49 115.5(16) . . ?
C348 C270 C132 126.5(15) . . ?
C348 C270 C49 117.7(16) . . ?
C194 C308 C222 116.8(13) . . ?
C346 C308 C222 117.6(13) . . ?
C346 C308 C194 125.5(13) . . ?
N126 C280 C180 122.7(16) . . ?
N126 C280 C248 107.9(16) . . ?
C180 C280 C248 129.4(18) . . ?
N44 C346 C128 111.5(13) . . ?
N44 C346 C308 125.7(14) . . ?
C308 C346 C128 122.5(15) . . ?
C216 C290 C164 105.6(11) . . ?
C216 C290 H290 127.2 . . ?
C164 C290 H290 127.2 . . ?
P24 C264 H26A 109.1 . . ?
P24 C264 H26B 109.1 . . ?
C282 C264 P24 112.5(10) . . ?
C282 C264 H26A 109.1 . . ?
C282 C264 H26B 109.1 . . ?
H26A C264 H26B 107.8 . . ?
N54 C348 C270 125.1(15) . . ?
N54 C348 C324 107.2(16) . . ?
C270 C348 C324 127.6(18) . . ?
C132 C252 H252 128.3 . . ?
C248 C252 C132 103.4(16) . . ?
C248 C252 H252 128.3 . . ?
C121 N244 C168 106.5(14) . . ?
C348 C324 H324 125.7 . . ?
C274 C324 C348 108.5(17) . . ?
C274 C324 H324 125.7 . . ?
C108 C300 H300 126.5 . . ?
C178 C300 C108 107.0(10) . . ?
C178 C300 H300 126.5 . . ?
O12 C322 O64 121.9(16) . . ?
O12 C322 C232 124.3(12) . . ?
O64 C322 C232 113.6(13) . . ?
P66 C310 H31A 109.2 . . ?
P66 C310 H31B 109.2 . . ?
H31A C310 H31B 107.9 . . ?
C352 C310 P66 112.2(12) . . ?
C352 C310 H31A 109.2 . . ?
C352 C310 H31B 109.2 . . ?
C194 C274 H274 126.9 . . ?
C324 C274 C194 106.2(16) . . ?
C324 C274 H274 126.9 . . ?
C174 C250 C224 109.8(11) . . ?
C174 C250 H250 125.1 . . ?
C224 C250 H250 125.1 . . ?
P24 C328 H32A 108.0 . . ?
P24 C328 H32B 108.0 . . ?
H32A C328 H32B 107.3 . . ?
C243 C328 P24 117.0(12) . . ?
C243 C328 H32A 108.0 . . ?
C243 C328 H32B 108.0 . . ?
C280 C248 H248 124.7 . . ?
C252 C248 C280 110.6(17) . . ?
C252 C248 H248 124.7 . . ?
C3 C296 H296 128.1 . . ?
C3 C296 C121 103.9(16) . . ?
C121 C296 H296 128.1 . . ?
P30 C330 H33A 110.4 . . ?
P30 C330 H33B 110.4 . . ?
H33A C330 H33B 108.6 . . ?
C241 C330 P30 106.7(13) . . ?
C241 C330 H33A 110.4 . . ?
C241 C330 H33B 110.4 . . ?
P66 C342 H34A 108.5 . . ?
P66 C342 H34B 108.5 . . ?
H34A C342 H34B 107.5 . . ?
C361 C342 P66 114.9(11) . . ?
C361 C342 H34A 108.5 . . ?
C361 C342 H34B 108.5 . . ?
O34 C201 O10 127.1(15) . . ?
O34 C201 C144 120.3(14) . . ?
O10 C201 C144 112.5(14) . . ?
C189 C49 C270 120.8(12) . . ?
C189 C49 C53 120.0 . . ?
C53 C49 C270 119.2(12) . . ?
C49 C189 H189 120.0 . . ?
C217 C189 C49 120.0 . . ?
C217 C189 H189 120.0 . . ?
C189 C217 H217 120.0 . . ?
C189 C217 C205 120.0 . . ?
C205 C217 H217 120.0 . . ?
C217 C205 H205 120.0 . . ?
C109 C205 C217 120.0 . . ?
C109 C205 H205 120.0 . . ?
C205 C109 H109 120.0 . . ?
C205 C109 C53 120.0 . . ?
C53 C109 H109 120.0 . . ?
C49 C53 H53 120.0 . . ?
C109 C53 C49 120.0 . . ?
C109 C53 H53 120.0 . . ?
C342 C361 H36A 109.5 . . ?
C342 C361 H36B 109.5 . . ?
C342 C361 H36C 109.5 . . ?
H36A C361 H36B 109.5 . . ?
H36A C361 H36C 109.5 . . ?
H36B C361 H36C 109.5 . . ?
H21C C219 H21D 109.5 . . ?
H21C C219 H21E 109.5 . . ?
H21D C219 H21E 109.5 . . ?
C356 C219 H21C 109.5 . . ?
C356 C219 H21D 109.5 . . ?
C356 C219 H21E 109.5 . . ?
P92 C356 H35A 109.0 . . ?
P92 C356 H35B 109.0 . . ?
C219 C356 P92 113.1(11) . . ?
C219 C356 H35A 109.0 . . ?
C219 C356 H35B 109.0 . . ?
H35A C356 H35B 107.8 . . ?
P24 C27 H27A 108.6 . . ?
P24 C27 H27B 108.6 . . ?
H27A C27 H27B 107.6 . . ?
C123 C27 P24 114.5(12) . . ?
C123 C27 H27A 108.6 . . ?
C123 C27 H27B 108.6 . . ?
C212 C95 H95A 109.5 . . ?
C212 C95 H95B 109.5 . . ?
C212 C95 H95C 109.5 . . ?
H95A C95 H95B 109.5 . . ?
H95A C95 H95C 109.5 . . ?
H95B C95 H95C 109.5 . . ?
C168 C3 C296 110.3(17) . . ?
C168 C3 H3 124.9 . . ?
C296 C3 H3 124.9 . . ?
C227 C185 C180 122.0(14) . . ?
C227 C185 C207 120.0 . . ?
C207 C185 C180 117.8(14) . . ?
C185 C227 H227 120.0 . . ?
C185 C227 C7 120.0 . . ?
C7 C227 H227 120.0 . . ?
C227 C7 H7 120.0 . . ?
C51 C7 C227 120.0 . . ?
C51 C7 H7 120.0 . . ?
C7 C51 H51 120.0 . . ?
C7 C51 C115 120.0 . . ?
C115 C51 H51 120.0 . . ?
C51 C115 H115 120.0 . . ?
C207 C115 C51 120.0 . . ?
C207 C115 H115 120.0 . . ?
C185 C207 H207 120.0 . . ?
C115 C207 C185 120.0 . . ?
C115 C207 H207 120.0 . . ?
H23A C231 H23B 109.5 . . ?
H23A C231 H23C 109.5 . . ?
H23B C231 H23C 109.4 . . ?
C199 C231 H23A 109.5 . . ?
C199 C231 H23B 109.5 . . ?
C199 C231 H23C 109.5 . . ?
C310 C352 H35C 109.5 . . ?
C310 C352 H35D 109.5 . . ?
C310 C352 H35E 109.5 . . ?
H35C C352 H35D 109.5 . . ?
H35C C352 H35E 109.5 . . ?
H35D C352 H35E 109.5 . . ?
H35F C358 H35G 109.4 . . ?
H35F C358 H35H 109.5 . . ?
H35G C358 H35H 109.6 . . ?
C167 C358 H35F 106.2 . . ?
C167 C358 H35G 113.6 . . ?
C167 C358 H35H 108.5 . . ?
P30 C199 H19A 109.6 . . ?
P30 C199 H19B 109.6 . . ?
C231 C199 P30 110.4(14) . . ?
C231 C199 H19A 109.6 . . ?
C231 C199 H19B 109.6 . . ?
H19A C199 H19B 108.1 . . ?
P52 C135 H13A 110.4 . . ?
P52 C135 H13B 110.4 . . ?
H13A C135 H13B 108.6 . . ?
C35 C135 P52 106.6(15) . . ?
C35 C135 H13A 110.4 . . ?
C35 C135 H13B 110.4 . . ?
P52 C141 H14A 108.7 . . ?
P52 C141 H14B 108.7 . . ?
H14A C141 H14B 107.6 . . ?
C147 C141 P52 114.2(17) . . ?
C147 C141 H14A 108.7 . . ?
C147 C141 H14B 108.7 . . ?
P94 C261 H26C 107.3 . . ?
P94 C261 H26D 107.3 . . ?
H26C C261 H26D 106.9 . . ?
C41 C261 P94 120.2(16) . . ?
C41 C261 H26C 107.3 . . ?
C41 C261 H26D 107.3 . . ?
C328 C243 H24A 109.5 . . ?
C328 C243 H24B 109.5 . . ?
C328 C243 H24C 109.5 . . ?
H24A C243 H24B 109.5 . . ?
H24A C243 H24C 109.5 . . ?
H24B C243 H24C 109.5 . . ?
C330 C241 H24D 109.5 . . ?
C330 C241 H24E 109.5 . . ?
C330 C241 H24F 109.5 . . ?
H24D C241 H24E 109.5 . . ?
H24D C241 H24F 109.5 . . ?
H24E C241 H24F 109.5 . . ?
P88 C129 H12A 104.3 . . ?
P88 C129 H12B 104.3 . . ?
H12A C129 H12B 105.6 . . ?
C337 C129 P88 132(2) . . ?
C337 C129 H12A 104.3 . . ?
C337 C129 H12B 104.3 . . ?
C27 C123 H12C 109.5 . . ?
C27 C123 H12D 109.5 . . ?
C27 C123 H12E 109.5 . . ?
H12C C123 H12D 109.5 . . ?
H12C C123 H12E 109.5 . . ?
H12D C123 H12E 109.5 . . ?
C180 C121 C296 123.5(18) . . ?
N244 C121 C180 122.4(16) . . ?
N244 C121 C296 113.0(17) . . ?
C245 N61 Pt90 117.4(7) . . ?
C245 N61 C259 120.0 . . ?
C259 N61 Pt90 121.3(7) . . ?
N61 C245 H245 120.0 . . ?
C63 C245 N61 120.0 . . ?
C63 C245 H245 120.0 . . ?
C245 C63 H63 120.0 . . ?
C245 C63 C9 120.0 . . ?
C9 C63 H63 120.0 . . ?
C63 C9 C198 122.5(10) . . ?
C265 C9 C198 117.3(10) . . ?
C265 C9 C63 120.0 . . ?
C9 C265 H265 120.0 . . ?
C9 C265 C259 120.0 . . ?
C259 C265 H265 120.0 . . ?
N61 C259 H259 120.0 . . ?
C265 C259 N61 120.0 . . ?
C265 C259 H259 120.0 . . ?
P94 C69 H69A 110.2 . . ?
P94 C69 H69B 110.2 . . ?
H69A C69 H69B 108.5 . . ?
C255 C69 P94 107.7(19) . . ?
C255 C69 H69A 110.2 . . ?
C255 C69 H69B 110.2 . . ?
P94 C287 H28D 108.6 . . ?
P94 C287 H28E 108.6 . . ?
H28D C287 H28E 107.6 . . ?
C269 C287 P94 114.8(18) . . ?
C269 C287 H28D 108.6 . . ?
C269 C287 H28E 108.6 . . ?
P52 C239 H23D 108.0 . . ?
P52 C239 H23E 108.0 . . ?
H23D C239 H23E 107.2 . . ?
C237 C239 P52 117.4(16) . . ?
C237 C239 H23D 108.0 . . ?
C237 C239 H23E 108.0 . . ?
C69 C255 H25A 109.5 . . ?
C69 C255 H25B 109.5 . . ?
C69 C255 H25C 109.5 . . ?
H25A C255 H25B 109.5 . . ?
H25A C255 H25C 109.5 . . ?
H25B C255 H25C 109.5 . . ?
C287 C269 H26E 109.5 . . ?
C287 C269 H26F 109.5 . . ?
C287 C269 H26G 109.5 . . ?
H26E C269 H26F 109.5 . . ?
H26E C269 H26G 109.5 . . ?
H26F C269 H26G 109.5 . . ?
C135 C35 H35I 109.5 . . ?
C135 C35 H35J 109.5 . . ?
C135 C35 H35K 109.5 . . ?
H35I C35 H35J 109.5 . . ?
H35I C35 H35K 109.5 . . ?
H35J C35 H35K 109.5 . . ?
C141 C147 H14C 106.8 . . ?
C141 C147 H14D 108.0 . . ?
C141 C147 H14E 113.4 . . ?
H14C C147 H14D 109.4 . . ?
H14C C147 H14E 109.6 . . ?
H14D C147 H14E 109.5 . . ?
C239 C237 H23F 102.5 . . ?
C239 C237 H23G 110.8 . . ?
C239 C237 H23H 114.7 . . ?
H23F C237 H23G 109.6 . . ?
H23F C237 H23H 109.5 . . ?
H23G C237 H23H 109.5 . . ?
C261 C41 H41A 109.5 . . ?
C261 C41 H41B 109.5 . . ?
C261 C41 H41C 109.5 . . ?
H41A C41 H41B 109.5 . . ?
H41A C41 H41C 109.5 . . ?
H41B C41 H41C 109.5 . . ?
P60 C77 H77A 107.9 . . ?
P60 C77 H77B 107.9 . . ?
H77A C77 H77B 107.2 . . ?
C81 C77 P60 117.6(16) . . ?
C81 C77 H77A 107.9 . . ?
C81 C77 H77B 107.9 . . ?
H33C C331 H33D 109.5 . . ?
H33C C331 H33E 109.5 . . ?
H33D C331 H33E 109.5 . . ?
C37 C331 H33C 109.5 . . ?
C37 C331 H33D 109.5 . . ?
C37 C331 H33E 109.5 . . ?
P60 C37 H37A 106.3 . . ?
P60 C37 H37B 106.3 . . ?
C331 C37 P60 124(2) . . ?
C331 C37 H37A 106.3 . . ?
C331 C37 H37B 106.3 . . ?
H37A C37 H37B 106.4 . . ?
P88 C21 H21F 110.5 . . ?
P88 C21 H21G 110.5 . . ?
H21F C21 H21G 108.7 . . ?
C159 C21 P88 106(2) . . ?
C159 C21 H21F 110.5 . . ?
C159 C21 H21G 110.5 . . ?
P88 C345 H34C 109.8 . . ?
P88 C345 H34D 109.8 . . ?
H34C C345 H34D 108.2 . . ?
C301 C345 P88 109(2) . . ?
C301 C345 H34C 109.8 . . ?
C301 C345 H34D 109.8 . . ?
P60 C177 H17A 109.0 . . ?
P60 C177 H17B 109.0 . . ?
H17A C177 H17B 107.8 . . ?
C89 C177 P60 113(2) . . ?
C89 C177 H17A 109.0 . . ?
C89 C177 H17B 109.0 . . ?
C77 C81 H81A 109.5 . . ?
C77 C81 H81B 109.5 . . ?
C77 C81 H81C 109.5 . . ?
H81A C81 H81B 109.5 . . ?
H81A C81 H81C 109.5 . . ?
H81B C81 H81C 109.5 . . ?
C21 C159 H15A 109.7 . . ?
C21 C159 H15B 110.4 . . ?
C21 C159 H15C 108.3 . . ?
H15A C159 H15B 109.5 . . ?
H15A C159 H15C 109.5 . . ?
H15B C159 H15C 109.5 . . ?
C345 C301 H30A 109.5 . . ?
C345 C301 H30B 109.5 . . ?
C345 C301 H30C 109.5 . . ?
H30A C301 H30B 109.5 . . ?
H30A C301 H30C 109.5 . . ?
H30B C301 H30C 109.5 . . ?
P92 C167 H16A 108.4 . . ?
P92 C167 H16B 108.4 . . ?
C358 C167 P92 115.5(16) . . ?
C358 C167 H16A 108.4 . . ?
C358 C167 H16B 108.4 . . ?
H16A C167 H16B 107.5 . . ?
C129 C337 H33F 107.7 . . ?
C129 C337 H33G 109.4 . . ?
C129 C337 H33H 111.1 . . ?
H33F C337 H33G 109.5 . . ?
H33F C337 H33H 109.5 . . ?
H33G C337 H33H 109.5 . . ?
H34E C349 H34F 109.5 . . ?
H34E C349 H34G 109.5 . . ?
H34F C349 H34G 109.5 . . ?
C173 C349 H34E 109.5 . . ?
C173 C349 H34F 109.5 . . ?
C173 C349 H34G 109.5 . . ?
P30 C173 H17C 108.6 . . ?
P30 C173 H17D 108.6 . . ?
C349 C173 P30 114.6(14) . . ?
C349 C173 H17C 108.6 . . ?
C349 C173 H17D 108.6 . . ?
H17C C173 H17D 107.6 . . ?
P92 C79 H79A 109.8 . . ?
P92 C79 H79B 109.8 . . ?
H79A C79 H79B 108.2 . . ?
C175 C79 P92 109.6(16) . . ?
C175 C79 H79A 109.8 . . ?
C175 C79 H79B 109.8 . . ?
C79 C175 H17E 109.5 . . ?
C79 C175 H17F 109.5 . . ?
C79 C175 H17G 109.5 . . ?
H17E C175 H17F 109.5 . . ?
H17E C175 H17G 109.5 . . ?
H17F C175 H17G 109.5 . . ?
C177 C89 H89A 109.5 . . ?
C177 C89 H89B 109.5 . . ?
C177 C89 H89C 109.5 . . ?
H89A C89 H89B 109.5 . . ?
H89A C89 H89C 109.5 . . ?
H89B C89 H89C 109.5 . . ?
loop_
_geom_bond_atom_site_label_1
_geom_bond_atom_site_label_2
_geom_bond_distance
_geom_bond_site_symmetry_2
_geom_bond_publ_flag
Pt32 P24 2.256(3) . ?
Pt32 P66 2.226(4) . ?
Pt32 O106 2.058(8) . ?
Pt32 N86 2.074(5) . ?
Pt58 P94 2.252(5) . ?
Pt58 P52 2.242(5) . ?
Pt58 O96 2.116(10) . ?
Pt58 N36 2.086(6) . ?
Pt28 P30 2.231(5) . ?
Pt28 P92 2.291(5) . ?
Pt28 O64 2.012(11) . ?
Pt28 N76 2.068(7) . ?
Pt90 P60 2.232(8) . ?
Pt90 P88 2.215(7) . ?
Pt90 O10 2.109(15) . ?
Pt90 N61 2.060(10) . ?
P24 C264 1.822(13) . ?
P24 C328 1.808(16) . ?
P24 C27 1.761(17) . ?
P66 C212 1.844(16) . ?
P66 C310 1.795(17) . ?
P66 C342 1.835(14) . ?
P30 C330 1.914(19) . ?
P30 C199 1.77(2) . ?
P30 C173 1.844(18) . ?
P92 C356 1.773(16) . ?
P92 C167 1.81(2) . ?
P92 C79 1.96(2) . ?
P94 C261 1.894(16) . ?
P94 C69 1.90(3) . ?
P94 C287 1.83(2) . ?
P52 C135 1.84(2) . ?
P52 C141 1.86(3) . ?
P52 C239 1.86(2) . ?
P60 C77 1.92(2) . ?
P60 C37 1.63(3) . ?
P60 C177 1.87(3) . ?
P88 C129 1.75(2) . ?
P88 C21 1.79(3) . ?
P88 C345 1.87(3) . ?
O82 C4 1.184(16) . ?
O106 C4 1.344(15) . ?
O96 C118 1.297(19) . ?
N68 C70 1.375(14) . ?
N68 C108 1.359(15) . ?
N86 C240 1.3900 . ?
N86 C210 1.3900 . ?
C240 H240 0.9500 . ?
C240 C104 1.3900 . ?
C104 H104 0.9500 . ?
C104 C16 1.3900 . ?
C16 C204 1.3900 . ?
C16 C84 1.507(9) . ?
C204 H204 0.9500 . ?
C204 C210 1.3900 . ?
C210 H210 0.9500 . ?
N40 C164 1.382(15) . ?
N40 C156 1.350(16) . ?
N98 C146 1.369(15) . ?
N98 C224 1.345(16) . ?
N100 C14 1.345(15) . ?
N100 C26 1.429(14) . ?
O12 C322 1.216(18) . ?
C84 C70 1.396(11) . ?
C84 C26 1.381(11) . ?
C1 H1 0.9500 . ?
C1 C26 1.415(11) . ?
C1 C192 1.392(12) . ?
C70 C178 1.438(11) . ?
O64 C322 1.347(16) . ?
O22 C118 1.243(18) . ?
C108 C8 1.401(11) . ?
C108 C300 1.436(12) . ?
O34 C201 1.229(18) . ?
C118 C230 1.473(16) . ?
O10 C201 1.287(19) . ?
N54 C194 1.37(2) . ?
N54 C348 1.37(2) . ?
N36 C234 1.3900 . ?
N36 C334 1.3900 . ?
C234 H234 0.9500 . ?
C234 C130 1.3900 . ?
C130 H130 0.9500 . ?
C130 C238 1.3900 . ?
C238 C286 1.3900 . ?
C238 C8 1.498(10) . ?
C286 H286 0.9500 . ?
C286 C334 1.3900 . ?
C334 H334 0.9500 . ?
C8 C224 1.408(12) . ?
C14 C160 1.419(11) . ?
C14 C192 1.393(12) . ?
C38 C46 1.508(10) . ?
C38 C146 1.408(12) . ?
C38 C164 1.384(12) . ?
C4 C42 1.509(16) . ?
N44 C226 1.41(2) . ?
N44 C346 1.385(19) . ?
C46 C120 1.3900 . ?
C46 C122 1.3900 . ?
C120 H120 0.9500 . ?
C120 C20 1.3900 . ?
C20 H20 0.9500 . ?
C20 C48 1.3900 . ?
C48 H48 0.9500 . ?
C48 C116 1.3900 . ?
C116 H116 0.9500 . ?
C116 C122 1.3900 . ?
C122 H122 0.9500 . ?
N76 C268 1.3900 . ?
N76 C228 1.3900 . ?
C268 H268 0.9500 . ?
C268 C306 1.3900 . ?
C306 H306 0.9500 . ?
C306 C222 1.3900 . ?
C222 C318 1.3900 . ?
C222 C308 1.525(12) . ?
C318 H318 0.9500 . ?
C318 C228 1.3900 . ?
C228 H228 0.9500 . ?
C148 C74 1.3900 . ?
C148 C200 1.3900 . ?
C148 C220 1.541(7) . ?
C74 H74 0.9500 . ?
C74 C232 1.3900 . ?
C232 C78 1.3900 . ?
C232 C322 1.512(19) . ?
C78 H78 0.9500 . ?
C78 C230 1.3900 . ?
C230 C200 1.3900 . ?
C200 H200 0.9500 . ?
C216 H216 0.9500 . ?
C216 C156 1.400(12) . ?
C216 C290 1.391(12) . ?
C146 C174 1.457(8) . ?
C174 H174 0.9500 . ?
C174 C250 1.368(12) . ?
C224 C250 1.407(11) . ?
C212 H21A 0.9900 . ?
C212 H21B 0.9900 . ?
C212 C95 1.503(13) . ?
C164 C290 1.409(12) . ?
C220 C124 1.3900 . ?
C220 C202 1.3900 . ?
C124 H124 0.9500 . ?
C124 C144 1.3900 . ?
C144 C56 1.3900 . ?
C144 C201 1.511(15) . ?
C56 H56 0.9500 . ?
C56 C42 1.3900 . ?
C42 C202 1.3900 . ?
C202 H202 0.9500 . ?
C156 C160 1.397(12) . ?
C194 C308 1.406(13) . ?
C194 C274 1.399(13) . ?
C226 C198 1.405(13) . ?
C226 C136 1.385(13) . ?
N126 C132 1.39(2) . ?
N126 C280 1.40(2) . ?
C160 C154 1.488(11) . ?
C198 C168 1.385(13) . ?
C198 C9 1.516(13) . ?
C168 N244 1.45(2) . ?
C168 C3 1.390(13) . ?
C180 C280 1.402(13) . ?
C180 C185 1.503(13) . ?
C180 C121 1.372(13) . ?
C192 H192 0.9500 . ?
C136 H136 0.9500 . ?
C136 C128 1.388(13) . ?
C128 H128 0.9500 . ?
C128 C346 1.413(13) . ?
C178 H178 0.9500 . ?
C178 C300 1.362(12) . ?
C132 C270 1.407(13) . ?
C132 C252 1.427(13) . ?
C154 C152 1.3900 . ?
C154 C254 1.3900 . ?
C152 H152 0.9500 . ?
C152 C162 1.3900 . ?
C162 H162 0.9500 . ?
C162 C184 1.3900 . ?
C184 H184 0.9500 . ?
C184 C260 1.3900 . ?
C260 H260 0.9500 . ?
C260 C254 1.3900 . ?
C254 H254 0.9500 . ?
C282 H28A 0.9800 . ?
C282 H28B 0.9800 . ?
C282 H28C 0.9800 . ?
C282 C264 1.523(12) . ?
C270 C348 1.393(13) . ?
C270 C49 1.525(11) . ?
C308 C346 1.397(13) . ?
C280 C248 1.418(13) . ?
C290 H290 0.9500 . ?
C264 H26A 0.9900 . ?
C264 H26B 0.9900 . ?
C348 C324 1.399(13) . ?
C252 H252 0.9500 . ?
C252 C248 1.396(13) . ?
N244 C121 1.31(2) . ?
C324 H324 0.9500 . ?
C324 C274 1.391(13) . ?
C300 H300 0.9500 . ?
C310 H31A 0.9900 . ?
C310 H31B 0.9900 . ?
C310 C352 1.483(11) . ?
C274 H274 0.9500 . ?
C250 H250 0.9500 . ?
C328 H32A 0.9900 . ?
C328 H32B 0.9900 . ?
C328 C243 1.491(13) . ?
C248 H248 0.9500 . ?
C296 H296 0.9500 . ?
C296 C3 1.392(13) . ?
C296 C121 1.422(13) . ?
C330 H33A 0.9900 . ?
C330 H33B 0.9900 . ?
C330 C241 1.484(14) . ?
C342 H34A 0.9900 . ?
C342 H34B 0.9900 . ?
C342 C361 1.499(13) . ?
C49 C189 1.3900 . ?
C49 C53 1.3900 . ?
C189 H189 0.9500 . ?
C189 C217 1.3900 . ?
C217 H217 0.9500 . ?
C217 C205 1.3900 . ?
C205 H205 0.9500 . ?
C205 C109 1.3900 . ?
C109 H109 0.9500 . ?
C109 C53 1.3900 . ?
C53 H53 0.9500 . ?
C361 H36A 0.9800 . ?
C361 H36B 0.9800 . ?
C361 H36C 0.9800 . ?
C219 H21C 0.9800 . ?
C219 H21D 0.9800 . ?
C219 H21E 0.9800 . ?
C219 C356 1.510(13) . ?
C356 H35A 0.9900 . ?
C356 H35B 0.9900 . ?
C27 H27A 0.9900 . ?
C27 H27B 0.9900 . ?
C27 C123 1.499(13) . ?
C95 H95A 0.9800 . ?
C95 H95B 0.9800 . ?
C95 H95C 0.9800 . ?
C3 H3 0.9500 . ?
C185 C227 1.3900 . ?
C185 C207 1.3900 . ?
C227 H227 0.9500 . ?
C227 C7 1.3900 . ?
C7 H7 0.9500 . ?
C7 C51 1.3900 . ?
C51 H51 0.9500 . ?
C51 C115 1.3900 . ?
C115 H115 0.9500 . ?
C115 C207 1.3900 . ?
C207 H207 0.9500 . ?
C231 H23A 0.9799 . ?
C231 H23B 0.9801 . ?
C231 H23C 0.9805 . ?
C231 C199 1.519(13) . ?
C352 H35C 0.9800 . ?
C352 H35D 0.9800 . ?
C352 H35E 0.9800 . ?
C358 H35F 0.9807 . ?
C358 H35G 0.9800 . ?
C358 H35H 0.9793 . ?
C358 C167 1.507(12) . ?
C199 H19A 0.9900 . ?
C199 H19B 0.9900 . ?
C135 H13A 0.9900 . ?
C135 H13B 0.9900 . ?
C135 C35 1.520(14) . ?
C141 H14A 0.9900 . ?
C141 H14B 0.9900 . ?
C141 C147 1.486(12) . ?
C261 H26C 0.9900 . ?
C261 H26D 0.9900 . ?
C261 C41 1.487(10) . ?
C243 H24A 0.9800 . ?
C243 H24B 0.9800 . ?
C243 H24C 0.9800 . ?
C241 H24D 0.9800 . ?
C241 H24E 0.9800 . ?
C241 H24F 0.9800 . ?
C129 H12A 0.9900 . ?
C129 H12B 0.9900 . ?
C129 C337 1.497(12) . ?
C123 H12C 0.9800 . ?
C123 H12D 0.9800 . ?
C123 H12E 0.9800 . ?
N61 C245 1.3900 . ?
N61 C259 1.3900 . ?
C245 H245 0.9500 . ?
C245 C63 1.3900 . ?
C63 H63 0.9500 . ?
C63 C9 1.3900 . ?
C9 C265 1.3900 . ?
C265 H265 0.9500 . ?
C265 C259 1.3900 . ?
C259 H259 0.9500 . ?
C69 H69A 0.9900 . ?
C69 H69B 0.9900 . ?
C69 C255 1.503(14) . ?
C287 H28D 0.9900 . ?
C287 H28E 0.9900 . ?
C287 C269 1.479(14) . ?
C239 H23D 0.9900 . ?
C239 H23E 0.9900 . ?
C239 C237 1.502(11) . ?
C255 H25A 0.9800 . ?
C255 H25B 0.9800 . ?
C255 H25C 0.9800 . ?
C269 H26E 0.9800 . ?
C269 H26F 0.9800 . ?
C269 H26G 0.9800 . ?
C35 H35I 0.9800 . ?
C35 H35J 0.9800 . ?
C35 H35K 0.9800 . ?
C147 H14C 0.9800 . ?
C147 H14D 0.9794 . ?
C147 H14E 0.9802 . ?
C237 H23F 0.9793 . ?
C237 H23G 0.9788 . ?
C237 H23H 0.9802 . ?
C41 H41A 0.9800 . ?
C41 H41B 0.9800 . ?
C41 H41C 0.9800 . ?
C77 H77A 0.9900 . ?
C77 H77B 0.9900 . ?
C77 C81 1.492(14) . ?
C331 H33C 0.9800 . ?
C331 H33D 0.9800 . ?
C331 H33E 0.9800 . ?
C331 C37 1.481(12) . ?
C37 H37A 0.9900 . ?
C37 H37B 0.9900 . ?
C21 H21F 0.9900 . ?
C21 H21G 0.9900 . ?
C21 C159 1.491(14) . ?
C345 H34C 0.9900 . ?
C345 H34D 0.9900 . ?
C345 C301 1.503(14) . ?
C177 H17A 0.9900 . ?
C177 H17B 0.9900 . ?
C177 C89 1.496(12) . ?
C81 H81A 0.9800 . ?
C81 H81B 0.9800 . ?
C81 H81C 0.9800 . ?
C159 H15A 0.9802 . ?
C159 H15B 0.9802 . ?
C159 H15C 0.9801 . ?
C301 H30A 0.9800 . ?
C301 H30B 0.9800 . ?
C301 H30C 0.9800 . ?
C167 H16A 0.9900 . ?
C167 H16B 0.9900 . ?
C337 H33F 0.9787 . ?
C337 H33G 0.9802 . ?
C337 H33H 0.9799 . ?
C349 H34E 0.9800 . ?
C349 H34F 0.9800 . ?
C349 H34G 0.9800 . ?
C349 C173 1.512(13) . ?
C173 H17C 0.9900 . ?
C173 H17D 0.9900 . ?
C79 H79A 0.9900 . ?
C79 H79B 0.9900 . ?
C79 C175 1.505(14) . ?
C175 H17E 0.9800 . ?
C175 H17F 0.9800 . ?
C175 H17G 0.9800 . ?
C89 H89A 0.9800 . ?
C89 H89B 0.9800 . ?
C89 H89C 0.9800 . ?
loop_
_geom_torsion_atom_site_label_1
_geom_torsion_atom_site_label_2
_geom_torsion_atom_site_label_3
_geom_torsion_atom_site_label_4
_geom_torsion
_geom_torsion_site_symmetry_1
_geom_torsion_site_symmetry_2
_geom_torsion_site_symmetry_3
_geom_torsion_site_symmetry_4
_geom_torsion_publ_flag
Pt32 P24 C264 C282 -179.5(10) . . . . ?
Pt32 P24 C328 C243 74.6(13) . . . . ?
Pt32 P24 C27 C123 -63.5(13) . . . . ?
Pt32 P66 C212 C95 62.6(13) . . . . ?
Pt32 P66 C310 C352 -57.9(15) . . . . ?
Pt32 P66 C342 C361 -169.7(13) . . . . ?
Pt32 O106 C4 O82 -22.3(18) . . . . ?
Pt32 O106 C4 C42 151.7(7) . . . . ?
Pt32 N86 C240 C104 -176.7(5) . . . . ?
Pt32 N86 C210 C204 176.7(5) . . . . ?
Pt58 P94 C261 C41 119.5(18) . . . . ?
Pt58 P94 C69 C255 -177.1(12) . . . . ?
Pt58 P94 C287 C269 -71.5(17) . . . . ?
Pt58 P52 C135 C35 -74.8(18) . . . . ?
Pt58 P52 C141 C147 59.5(19) . . . . ?
Pt58 P52 C239 C237 173(2) . . . . ?
Pt58 O96 C118 O22 7.3(19) . . . . ?
Pt58 O96 C118 C230 -172.2(7) . . . . ?
Pt58 N36 C234 C130 165.1(6) . . . . ?
Pt58 N36 C334 C286 -164.4(6) . . . . ?
Pt28 P30 C199 C231 -63.0(16) . . . . ?
Pt28 P30 C173 C349 -179.3(16) . . . . ?
Pt28 P92 C356 C219 -167.3(13) . . . . ?
Pt28 P92 C167 C358 66.1(19) . . . . ?
Pt28 O64 C322 O12 -25(2) . . . . ?
Pt28 O64 C322 C232 149.5(10) . . . . ?
Pt28 N76 C268 C306 175.1(8) . . . . ?
Pt28 N76 C228 C318 -175.2(8) . . . . ?
Pt90 P60 C37 C331 58(3) . . . . ?
Pt90 P60 C177 C89 -63(2) . . . . ?
Pt90 P88 C129 C337 -172(3) . . . . ?
Pt90 P88 C21 C159 83(2) . . . . ?
Pt90 P88 C345 C301 60(2) . . . . ?
Pt90 O10 C201 O34 4(3) . . . . ?
Pt90 O10 C201 C144 -179.9(9) . . . . ?
Pt90 N61 C245 C63 -166.7(8) . . . . ?
Pt90 N61 C259 C265 166.2(9) . . . . ?
O82 C4 C42 C56 171.0(11) . . . . ?
O82 C4 C42 C202 -3.5(16) . . . . ?
O106 C4 C42 C56 -3.2(13) . . . . ?
O106 C4 C42 C202 -177.7(7) . . . . ?
O96 C118 C230 C78 -160.7(10) . . . . ?
O96 C118 C230 C200 16.9(16) . . . . ?
N68 C70 C178 C300 -4.1(17) . . . . ?
N68 C108 C8 C238 -172.9(13) . . . . ?
N68 C108 C8 C224 -1(3) . . . . ?
N68 C108 C300 C178 -0.9(18) . . . . ?
N86 C240 C104 C16 0.0 . . . . ?
C240 N86 C210 C204 0.0 . . . . ?
C240 C104 C16 C204 0.0 . . . . ?
C240 C104 C16 C84 -179.2(8) . . . . ?
C104 C16 C204 C210 0.0 . . . . ?
C104 C16 C84 C70 -118.2(11) . . . . ?
C104 C16 C84 C26 62.8(13) . . . . ?
C16 C204 C210 N86 0.0 . . . . ?
C16 C84 C70 N68 179.3(12) . . . . ?
C16 C84 C70 C178 4(2) . . . . ?
C16 C84 C26 N100 170.7(11) . . . . ?
C16 C84 C26 C1 -2(2) . . . . ?
C204 C16 C84 C70 62.6(14) . . . . ?
C204 C16 C84 C26 -116.3(11) . . . . ?
C210 N86 C240 C104 0.0 . . . . ?
N40 C164 C290 C216 -3.3(18) . . . . ?
N40 C156 C160 C14 0(3) . . . . ?
N40 C156 C160 C154 -168.1(14) . . . . ?
N98 C146 C174 C250 3.5(19) . . . . ?
N98 C224 C250 C174 -1(2) . . . . ?
N100 C14 C160 C156 12(3) . . . . ?
N100 C14 C160 C154 179.9(14) . . . . ?
N100 C14 C192 C1 2.1(18) . . . . ?
C84 C16 C204 C210 179.1(8) . . . . ?
C84 C70 C178 C300 171.7(14) . . . . ?
C70 N68 C108 C8 175.3(15) . . . . ?
C70 N68 C108 C300 -1.6(16) . . . . ?
C70 C84 C26 N100 -8(2) . . . . ?
C70 C84 C26 C1 179.6(15) . . . . ?
C70 C178 C300 C108 2.9(17) . . . . ?
O22 C118 C230 C78 19.8(17) . . . . ?
O22 C118 C230 C200 -162.6(12) . . . . ?
C108 N68 C70 C84 -172.2(14) . . . . ?
C108 N68 C70 C178 3.5(16) . . . . ?
C108 C8 C224 N98 9(3) . . . . ?
C108 C8 C224 C250 -171.8(17) . . . . ?
C118 C230 C200 C148 -177.5(10) . . . . ?
N54 C194 C308 C222 -177.1(13) . . . . ?
N54 C194 C308 C346 7(3) . . . . ?
N54 C194 C274 C324 4.6(19) . . . . ?
N54 C348 C324 C274 2(2) . . . . ?
N36 C234 C130 C238 0.0 . . . . ?
C234 N36 C334 C286 0.0 . . . . ?
C234 C130 C238 C286 0.0 . . . . ?
C234 C130 C238 C8 179.0(9) . . . . ?
C130 C238 C286 C334 0.0 . . . . ?
C130 C238 C8 C108 109.3(13) . . . . ?
C130 C238 C8 C224 -63.5(16) . . . . ?
C238 C286 C334 N36 0.0 . . . . ?
C238 C8 C224 N98 -179.2(15) . . . . ?
C238 C8 C224 C250 0(3) . . . . ?
C286 C238 C8 C108 -71.7(16) . . . . ?
C286 C238 C8 C224 115.5(13) . . . . ?
C334 N36 C234 C130 0.0 . . . . ?
C8 C108 C300 C178 -177.9(15) . . . . ?
C8 C238 C286 C334 -179.0(9) . . . . ?
C8 C224 C250 C174 179.8(17) . . . . ?
C14 N100 C26 C84 -178.6(14) . . . . ?
C14 N100 C26 C1 -4.9(16) . . . . ?
C14 C160 C154 C152 59.7(17) . . . . ?
C14 C160 C154 C254 -118.9(13) . . . . ?
C38 C46 C120 C20 -179.5(10) . . . . ?
C38 C46 C122 C116 179.5(10) . . . . ?
C38 C146 C174 C250 179.9(17) . . . . ?
C38 C164 C290 C216 179.5(15) . . . . ?
C26 N100 C14 C160 -179.9(15) . . . . ?
C26 N100 C14 C192 1.8(16) . . . . ?
C26 C84 C70 N68 -2(2) . . . . ?
C26 C84 C70 C178 -177.0(15) . . . . ?
C26 C1 C192 C14 -5.1(17) . . . . ?
C4 C42 C202 C220 174.6(9) . . . . ?
N44 C226 C198 C168 -1(2) . . . . ?
N44 C226 C198 C9 -177.1(12) . . . . ?
N44 C226 C136 C128 -3.5(18) . . . . ?
C46 C38 C146 N98 -179.6(15) . . . . ?
C46 C38 C146 C174 5(2) . . . . ?
C46 C38 C164 N40 166.0(14) . . . . ?
C46 C38 C164 C290 -17(2) . . . . ?
C46 C120 C20 C48 0.0 . . . . ?
C120 C46 C122 C116 0.0 . . . . ?
C120 C20 C48 C116 0.0 . . . . ?
C20 C48 C116 C122 0.0 . . . . ?
C48 C116 C122 C46 0.0 . . . . ?
C122 C46 C120 C20 0.0 . . . . ?
N76 C268 C306 C222 0.0 . . . . ?
C268 N76 C228 C318 0.0 . . . . ?
C268 C306 C222 C318 0.0 . . . . ?
C268 C306 C222 C308 178.9(12) . . . . ?
C306 C222 C318 C228 0.0 . . . . ?
C306 C222 C308 C194 -108.2(14) . . . . ?
C306 C222 C308 C346 68.2(15) . . . . ?
C222 C318 C228 N76 0.0 . . . . ?
C222 C308 C346 N44 -175.0(12) . . . . ?
C222 C308 C346 C128 11(2) . . . . ?
C318 C222 C308 C194 70.7(15) . . . . ?
C318 C222 C308 C346 -112.9(13) . . . . ?
C228 N76 C268 C306 0.0 . . . . ?
C148 C74 C232 C78 0.0 . . . . ?
C148 C74 C232 C322 178.5(10) . . . . ?
C148 C220 C124 C144 -176.3(8) . . . . ?
C148 C220 C202 C42 176.3(8) . . . . ?
C74 C148 C200 C230 0.0 . . . . ?
C74 C148 C220 C124 155.3(5) . . . . ?
C74 C148 C220 C202 -21.0(9) . . . . ?
C74 C232 C78 C230 0.0 . . . . ?
C74 C232 C322 O12 -2(2) . . . . ?
C74 C232 C322 O64 -176.1(10) . . . . ?
C232 C78 C230 C118 177.6(10) . . . . ?
C232 C78 C230 C200 0.0 . . . . ?
C78 C232 C322 O12 176.2(13) . . . . ?
C78 C232 C322 O64 2.4(17) . . . . ?
C78 C230 C200 C148 0.0 . . . . ?
C200 C148 C74 C232 0.0 . . . . ?
C200 C148 C220 C124 -29.0(9) . . . . ?
C200 C148 C220 C202 154.7(5) . . . . ?
C216 C156 C160 C14 -177.1(16) . . . . ?
C216 C156 C160 C154 15(2) . . . . ?
C146 N98 C224 C8 -177.4(16) . . . . ?
C146 N98 C224 C250 3.1(19) . . . . ?
C146 C38 C46 C120 121.0(13) . . . . ?
C146 C38 C46 C122 -58.6(16) . . . . ?
C146 C38 C164 N40 -3(3) . . . . ?
C146 C38 C164 C290 173.5(16) . . . . ?
C146 C174 C250 C224 -2(2) . . . . ?
C224 N98 C146 C38 179.6(17) . . . . ?
C224 N98 C146 C174 -4.1(19) . . . . ?
C212 P66 C310 C352 177.1(13) . . . . ?
C212 P66 C342 C361 -51.9(17) . . . . ?
C164 N40 C156 C216 -4.6(17) . . . . ?
C164 N40 C156 C160 178.0(16) . . . . ?
C164 C38 C46 C120 -49.0(17) . . . . ?
C164 C38 C46 C122 131.5(13) . . . . ?
C164 C38 C146 N98 -10(3) . . . . ?
C164 C38 C146 C174 174.0(16) . . . . ?
C220 C148 C74 C232 175.7(8) . . . . ?
C220 C148 C200 C230 -175.7(8) . . . . ?
C220 C124 C144 C56 0.0 . . . . ?
C220 C124 C144 C201 176.7(11) . . . . ?
C124 C220 C202 C42 0.0 . . . . ?
C124 C144 C56 C42 0.0 . . . . ?
C124 C144 C201 O34 -151.5(13) . . . . ?
C124 C144 C201 O10 32.5(18) . . . . ?
C144 C56 C42 C4 -174.3(9) . . . . ?
C144 C56 C42 C202 0.0 . . . . ?
C56 C144 C201 O34 25(2) . . . . ?
C56 C144 C201 O10 -150.7(11) . . . . ?
C56 C42 C202 C220 0.0 . . . . ?
C202 C220 C124 C144 0.0 . . . . ?
C156 N40 C164 C38 -178.1(16) . . . . ?
C156 N40 C164 C290 4.9(17) . . . . ?
C156 C216 C290 C164 0.4(18) . . . . ?
C156 C160 C154 C152 -131.2(13) . . . . ?
C156 C160 C154 C254 50.2(17) . . . . ?
C194 N54 C348 C270 176.3(16) . . . . ?
C194 N54 C348 C324 0.6(18) . . . . ?
C194 C308 C346 N44 1(3) . . . . ?
C194 C308 C346 C128 -173.4(15) . . . . ?
C226 N44 C346 C128 0.3(16) . . . . ?
C226 N44 C346 C308 -174.6(14) . . . . ?
C226 C198 C168 N244 -5(3) . . . . ?
C226 C198 C168 C3 175.7(16) . . . . ?
C226 C198 C9 C63 -57.3(17) . . . . ?
C226 C198 C9 C265 117.7(13) . . . . ?
C226 C136 C128 C346 3.5(17) . . . . ?
N126 C132 C270 C348 -5(3) . . . . ?
N126 C132 C270 C49 -178.5(14) . . . . ?
N126 C132 C252 C248 2.7(18) . . . . ?
N126 C280 C248 C252 1(2) . . . . ?
C160 C14 C192 C1 -176.2(15) . . . . ?
C160 C154 C152 C162 -178.7(11) . . . . ?
C160 C154 C254 C260 178.6(12) . . . . ?
C198 C226 C136 C128 177.4(14) . . . . ?
C198 C168 N244 C121 -177.2(17) . . . . ?
C198 C168 C3 C296 177.5(17) . . . . ?
C198 C9 C265 C259 -175.1(12) . . . . ?
C168 C198 C9 C63 126.1(13) . . . . ?
C168 C198 C9 C265 -58.9(17) . . . . ?
C168 N244 C121 C180 166.8(18) . . . . ?
C168 N244 C121 C296 -1(2) . . . . ?
C180 C280 C248 C252 179.3(18) . . . . ?
C180 C185 C227 C7 -174.8(18) . . . . ?
C180 C185 C207 C115 175.1(17) . . . . ?
C192 C1 C26 N100 6.0(16) . . . . ?
C192 C1 C26 C84 179.5(15) . . . . ?
C192 C14 C160 C156 -170.1(16) . . . . ?
C192 C14 C160 C154 -2(2) . . . . ?
C136 C226 C198 C168 178.3(16) . . . . ?
C136 C226 C198 C9 2(2) . . . . ?
C136 C128 C346 N44 -2.4(17) . . . . ?
C136 C128 C346 C308 172.7(14) . . . . ?
C132 N126 C280 C180 -177.7(16) . . . . ?
C132 N126 C280 C248 0.4(18) . . . . ?
C132 C270 C348 N54 4(3) . . . . ?
C132 C270 C348 C324 178.6(17) . . . . ?
C132 C270 C49 C189 -101.6(17) . . . . ?
C132 C270 C49 C53 78.6(18) . . . . ?
C132 C252 C248 C280 -2.4(18) . . . . ?
C154 C152 C162 C184 0.0 . . . . ?
C152 C154 C254 C260 0.0 . . . . ?
C152 C162 C184 C260 0.0 . . . . ?
C162 C184 C260 C254 0.0 . . . . ?
C184 C260 C254 C154 0.0 . . . . ?
C254 C154 C152 C162 0.0 . . . . ?
C270 C132 C252 C248 177.1(15) . . . . ?
C270 C348 C324 C274 -173.2(17) . . . . ?
C270 C49 C189 C217 -179.8(18) . . . . ?
C270 C49 C53 C109 179.8(18) . . . . ?
C308 C222 C318 C228 -178.9(11) . . . . ?
C308 C194 C274 C324 -169.7(16) . . . . ?
C280 N126 C132 C270 -176.3(15) . . . . ?
C280 N126 C132 C252 -2.0(18) . . . . ?
C280 C180 C185 C227 -82.4(19) . . . . ?
C280 C180 C185 C207 102.6(17) . . . . ?
C280 C180 C121 N244 11(3) . . . . ?
C280 C180 C121 C296 178.3(18) . . . . ?
C346 N44 C226 C198 -178.9(14) . . . . ?
C346 N44 C226 C136 2.0(16) . . . . ?
C290 C216 C156 N40 2.7(19) . . . . ?
C290 C216 C156 C160 -179.9(16) . . . . ?
C264 P24 C328 C243 -60.4(14) . . . . ?
C264 P24 C27 C123 69.4(13) . . . . ?
C348 N54 C194 C308 171.0(15) . . . . ?
C348 N54 C194 C274 -3.2(18) . . . . ?
C348 C270 C49 C189 83.9(18) . . . . ?
C348 C270 C49 C53 -95.9(17) . . . . ?
C348 C324 C274 C194 -4(2) . . . . ?
C252 C132 C270 C348 -178.3(16) . . . . ?
C252 C132 C270 C49 8(2) . . . . ?
N244 C168 C3 C296 -2(2) . . . . ?
C300 C108 C8 C238 4(2) . . . . ?
C300 C108 C8 C224 175.7(16) . . . . ?
C322 C232 C78 C230 -178.4(11) . . . . ?
C310 P66 C212 C95 -166.3(13) . . . . ?
C310 P66 C342 C361 59.7(17) . . . . ?
C274 C194 C308 C222 -4(2) . . . . ?
C274 C194 C308 C346 -179.9(15) . . . . ?
C328 P24 C264 C282 -53.2(14) . . . . ?
C328 P24 C27 C123 -178.4(12) . . . . ?
C330 P30 C199 C231 169.8(15) . . . . ?
C330 P30 C173 C349 -55(2) . . . . ?
C342 P66 C212 C95 -56.4(14) . . . . ?
C342 P66 C310 C352 67.4(15) . . . . ?
C201 C144 C56 C42 -176.7(11) . . . . ?
C49 C270 C348 N54 177.6(14) . . . . ?
C49 C270 C348 C324 -8(3) . . . . ?
C49 C189 C217 C205 0.0 . . . . ?
C189 C49 C53 C109 0.0 . . . . ?
C189 C217 C205 C109 0.0 . . . . ?
C217 C205 C109 C53 0.0 . . . . ?
C205 C109 C53 C49 0.0 . . . . ?
C53 C49 C189 C217 0.0 . . . . ?
C356 P92 C167 C358 -61(2) . . . . ?
C27 P24 C264 C282 58.1(14) . . . . ?
C27 P24 C328 C243 -172.1(12) . . . . ?
C3 C168 N244 C121 1.8(19) . . . . ?
C3 C296 C121 C180 -167.6(19) . . . . ?
C3 C296 C121 N244 1(2) . . . . ?
C185 C180 C280 N126 177.6(15) . . . . ?
C185 C180 C280 C248 0(3) . . . . ?
C185 C180 C121 N244 -173.3(16) . . . . ?
C185 C180 C121 C296 -6(3) . . . . ?
C185 C227 C7 C51 0.0 . . . . ?
C227 C185 C207 C115 0.0 . . . . ?
C227 C7 C51 C115 0.0 . . . . ?
C7 C51 C115 C207 0.0 . . . . ?
C51 C115 C207 C185 0.0 . . . . ?
C207 C185 C227 C7 0.0 . . . . ?
C199 P30 C173 C349 55(2) . . . . ?
C135 P52 C141 C147 -173.4(18) . . . . ?
C135 P52 C239 C237 40(3) . . . . ?
C141 P52 C135 C35 165.1(17) . . . . ?
C141 P52 C239 C237 -66(3) . . . . ?
C261 P94 C69 C255 -47.9(17) . . . . ?
C261 P94 C287 C269 167.7(15) . . . . ?
C129 P88 C21 C159 -56(2) . . . . ?
C129 P88 C345 C301 -171(2) . . . . ?
C121 C180 C280 N126 -6(3) . . . . ?
C121 C180 C280 C248 176(2) . . . . ?
C121 C180 C185 C227 101(2) . . . . ?
C121 C180 C185 C207 -74(2) . . . . ?
C121 C296 C3 C168 1(2) . . . . ?
N61 C245 C63 C9 0.0 . . . . ?
C245 N61 C259 C265 0.0 . . . . ?
C245 C63 C9 C198 174.9(13) . . . . ?
C245 C63 C9 C265 0.0 . . . . ?
C63 C9 C265 C259 0.0 . . . . ?
C9 C198 C168 N244 171.0(14) . . . . ?
C9 C198 C168 C3 -8(3) . . . . ?
C9 C265 C259 N61 0.0 . . . . ?
C259 N61 C245 C63 0.0 . . . . ?
C69 P94 C261 C41 -11(2) . . . . ?
C69 P94 C287 C269 55.9(17) . . . . ?
C287 P94 C261 C41 -119.1(19) . . . . ?
C287 P94 C69 C255 56.6(16) . . . . ?
C239 P52 C135 C35 53.6(19) . . . . ?
C239 P52 C141 C147 -62(2) . . . . ?
C77 P60 C37 C331 -61(3) . . . . ?
C77 P60 C177 C89 55(2) . . . . ?
C37 P60 C177 C89 170(2) . . . . ?
C21 P88 C129 C337 -37(4) . . . . ?
C21 P88 C345 C301 -60(2) . . . . ?
C345 P88 C129 C337 64(4) . . . . ?
C345 P88 C21 C159 -156(2) . . . . ?
C177 P60 C37 C331 -169(2) . . . . ?
C167 P92 C356 C219 -44.8(19) . . . . ?
C173 P30 C199 C231 60.5(17) . . . . ?
C79 P92 C356 C219 66.9(18) . . . . ?
C79 P92 C167 C358 -169.9(17) . . . . ?
loop_
_twin_individual_id
_twin_individual_mass_fraction_refined
1 0.54(3)
2 0.46(3)
loop_
_smtbx_masks_void_nr
_smtbx_masks_void_average_x
_smtbx_masks_void_average_y
_smtbx_masks_void_average_z
_smtbx_masks_void_volume
_smtbx_masks_void_count_electrons
_smtbx_masks_void_content
1 -0.432 -0.309 -0.040 16109.2 4622.4 '128 C2H3N,40 C6H14O'
