#------------------------------------------------------------------------------
#$Date: 2023-03-18 01:56:06 +0200 (Sat, 18 Mar 2023) $
#$Revision: 281938 $
#$URL: file:///home/coder/svn-repositories/cod/cif/7/71/26/7712650.cif $
#------------------------------------------------------------------------------
#
# This file is available in the Crystallography Open Database (COD),
# http://www.crystallography.net/
#
# All data on this site have been placed in the public domain by the
# contributors.
#
data_7712650
loop_
_publ_author_name
'Zhu, Zi-Yi'
'Wang, Zirui'
'Li, Qiao-Hong'
'Ma, Zhi-Zhou'
'Wang, Fei'
'Zhang, Jian'
_publ_section_title
;
 Porphyrin Metal-Organic Frameworks with Bilayer and Pillar-layered
 Frameworks for Third-order Nonlinear Optical Properties
;
_journal_name_full               'Dalton Transactions'
_journal_paper_doi               10.1039/D3DT00440F
_journal_year                    2023
_chemical_formula_moiety         'C60 H40 N6 O11 Zn3, C4 H8 O2'
_chemical_formula_sum            'C64 H48 N6 O13 Zn3'
_chemical_formula_weight         1305.19
_space_group_crystal_system      triclinic
_space_group_IT_number           2
_space_group_name_Hall           '-P 1'
_space_group_name_H-M_alt        'P -1'
_atom_sites_solution_hydrogens   mixed
_atom_sites_solution_primary     dual
_audit_creation_date             2023-01-08
_audit_creation_method
;
Olex2 1.3-alpha
(compiled 2020.11.12 svn.r5f609507 for OlexSys, GUI svn.r6408)
;
_audit_update_record
;
2023-01-09 deposited with the CCDC.	2023-03-17 downloaded from the CCDC.
;
_cell_angle_alpha                118.127(4)
_cell_angle_beta                 90.188(3)
_cell_angle_gamma                108.145(3)
_cell_formula_units_Z            2
_cell_length_a                   16.6123(5)
_cell_length_b                   16.6936(6)
_cell_length_c                   16.7212(6)
_cell_measurement_reflns_used    12636
_cell_measurement_temperature    100.00(10)
_cell_measurement_theta_max      74.9050
_cell_measurement_theta_min      2.7880
_cell_volume                     3823.3(3)
_computing_cell_refinement       'CrysAlisPro 1.171.40.84a (Rigaku OD, 2020)'
_computing_data_collection       'CrysAlisPro 1.171.40.84a (Rigaku OD, 2020)'
_computing_data_reduction        'CrysAlisPro 1.171.40.84a (Rigaku OD, 2020)'
_computing_molecular_graphics    'Olex2 1.3-alpha (Dolomanov et al., 2009)'
_computing_publication_material  'Olex2 1.3-alpha (Dolomanov et al., 2009)'
_computing_structure_refinement  'SHELXL 2014/7 (Sheldrick, 2015)'
_computing_structure_solution    'SHELXT 2014/5 (Sheldrick, 2014)'
_diffrn_ambient_environment      N~2~
_diffrn_ambient_temperature      100.00(10)
_diffrn_detector                 'CCD plate'
_diffrn_detector_area_resol_mean 10.3468
_diffrn_detector_type            Atlas
_diffrn_measured_fraction_theta_full 0.999
_diffrn_measured_fraction_theta_max 0.973
_diffrn_measurement_details
;
List of Runs (angles in degrees, time in seconds):

  # Type    Start    End  Width  t~exp~   \w     \q     \k     \f   Frames
#--------------------------------------------------------------------------
  1  \w    -63.00  29.00   1.00    1.00    --  -41.54  57.00 150.00   92
  2  \w   -113.00 -17.00   1.00    1.00    --  -41.54 -57.00   0.00   96
  3  \w      8.00  61.00   1.00    1.00    --   41.54 -99.00-150.00   53
  4  \w     82.00 113.00   1.00    1.00    --   41.54  38.00  60.00   31
  5  \w     56.00  82.00   1.00    1.00    --   41.54 -99.00 -90.00   26
  6  \w     20.00  83.00   1.00    1.00    --   41.54  57.00 -60.00   63
  7  \w     49.00 109.00   1.00    1.00    --  108.23-111.00-150.00   60
  8  \w     34.00 110.00   1.00    1.00    --  108.23 -30.00-150.00   76
  9  \w    109.00 159.00   1.00    1.00    --  108.23 111.00 150.00   50
 10  \w     62.00  87.00   1.00    1.00    --  108.23 178.00  30.00   25
 11  \w     99.00 124.00   1.00    1.00    --  108.23 178.00  30.00   25
 12  \w     56.00 109.00   1.00    1.00    --  108.23-111.00   0.00   53
 13  \w     99.00 141.00   1.00    1.00    --  108.23 -77.00 120.00   42
 14  \w     40.00 109.00   1.00    1.00    --  108.23-111.00 120.00   69
 15  \w    109.00 135.00   1.00    1.00    --  108.23  77.00 -60.00   26
 16  \w    106.00 177.00   1.00    1.00    --  108.23 111.00 120.00   71
 17  \w     67.00  97.00   1.00    1.00    --  108.23-111.00  60.00   30
 18  \w     61.00 103.00   1.00    1.00    --  108.23-111.00 -60.00   42
 19  \w     84.00 168.00   1.00    1.00    --  108.23  45.00-120.00   84
 20  \w     53.00  79.00   1.00    1.00    --  108.23 -77.00 120.00   26
 21  \w    111.00 166.00   1.00    1.00    --  108.23 111.00-180.00   55
 22  \w     33.00 136.00   1.00    1.00    --  108.23 -30.00  60.00  103
;
_diffrn_measurement_device       'four-circle diffractometer'
_diffrn_measurement_device_type  'SuperNova, Dual, Cu at home/near, Atlas'
_diffrn_measurement_method       '\w scans'
_diffrn_orient_matrix_type
'CrysAlisPro convention (1999,Acta A55,543-557)'
_diffrn_orient_matrix_UB_11      -0.0785816000
_diffrn_orient_matrix_UB_12      -0.0477949000
_diffrn_orient_matrix_UB_13      -0.0771045000
_diffrn_orient_matrix_UB_21      -0.0602832000
_diffrn_orient_matrix_UB_22      0.0061294000
_diffrn_orient_matrix_UB_23      0.0708284000
_diffrn_orient_matrix_UB_31      0.0054798000
_diffrn_orient_matrix_UB_32      0.1010233000
_diffrn_orient_matrix_UB_33      0.0177149000
_diffrn_radiation_monochromator  mirror
_diffrn_radiation_probe          x-ray
_diffrn_radiation_type           'Cu K\a'
_diffrn_radiation_wavelength     1.54184
_diffrn_reflns_av_R_equivalents  0.0364
_diffrn_reflns_av_unetI/netI     0.0431
_diffrn_reflns_Laue_measured_fraction_full 0.999
_diffrn_reflns_Laue_measured_fraction_max 0.973
_diffrn_reflns_limit_h_max       18
_diffrn_reflns_limit_h_min       -20
_diffrn_reflns_limit_k_max       20
_diffrn_reflns_limit_k_min       -13
_diffrn_reflns_limit_l_max       20
_diffrn_reflns_limit_l_min       -20
_diffrn_reflns_number            28712
_diffrn_reflns_point_group_measured_fraction_full 0.999
_diffrn_reflns_point_group_measured_fraction_max 0.973
_diffrn_reflns_theta_full        67.684
_diffrn_reflns_theta_max         75.036
_diffrn_reflns_theta_min         2.845
_diffrn_source                   'micro-focus sealed X-ray tube'
_diffrn_source_type              'SuperNova (Cu) X-ray Source'
_exptl_absorpt_coefficient_mu    1.551
_exptl_absorpt_correction_T_max  1.00000
_exptl_absorpt_correction_T_min  0.86581
_exptl_absorpt_correction_type   multi-scan
_exptl_absorpt_process_details
;
CrysAlisPro 1.171.40.84a (Rigaku Oxford Diffraction, 2020)
Empirical absorption correction using spherical harmonics,
implemented in SCALE3 ABSPACK scaling algorithm.
;
_exptl_crystal_colour            'metallic reddish red'
_exptl_crystal_colour_lustre     metallic
_exptl_crystal_colour_modifier   reddish
_exptl_crystal_colour_primary    red
_exptl_crystal_density_diffrn    1.134
_exptl_crystal_description       block
_exptl_crystal_F_000             1336
_exptl_crystal_size_max          0.1
_exptl_crystal_size_mid          0.1
_exptl_crystal_size_min          0.1
_refine_diff_density_max         0.978
_refine_diff_density_min         -0.605
_refine_diff_density_rms         0.106
_refine_ls_extinction_coef       0.00048(5)
_refine_ls_extinction_expression Fc^*^=kFc[1+0.001xFc^2^\l^3^/sin(2\q)]^-1/4^
_refine_ls_extinction_method     'SHELXL-2014/7 (Sheldrick 2014'
_refine_ls_goodness_of_fit_ref   0.799
_refine_ls_hydrogen_treatment    constr
_refine_ls_matrix_type           full
_refine_ls_number_parameters     776
_refine_ls_number_reflns         15324
_refine_ls_number_restraints     1
_refine_ls_restrained_S_all      0.799
_refine_ls_R_factor_all          0.0630
_refine_ls_R_factor_gt           0.0547
_refine_ls_shift/su_max          0.001
_refine_ls_shift/su_mean         0.000
_refine_ls_structure_factor_coef Fsqd
_refine_ls_weighting_details
'w=1/[\s^2^(Fo^2^)+(0.0966P)^2^+18.6490P] where P=(Fo^2^+2Fc^2^)/3'
_refine_ls_weighting_scheme      calc
_refine_ls_wR_factor_gt          0.1514
_refine_ls_wR_factor_ref         0.1595
_reflns_Friedel_coverage         0.000
_reflns_number_gt                12699
_reflns_number_total             15324
_reflns_threshold_expression     'I > 2\s(I)'
_cod_data_source_file            d3dt00440f2.cif
_cod_data_source_block           zzy-7-2-2
_cod_database_code               7712650
_shelx_shelxl_version_number     2014/7
_chemical_oxdiff_formula         'Zn C N O'
_shelx_space_group_comment
;
The symmetry employed for this shelxl refinement is uniquely defined
by the following loop, which should always be used as a source of
symmetry information in preference to the above space-group names.
They are only intended as comments.
;
_shelx_estimated_absorpt_t_max   0.860
_shelx_estimated_absorpt_t_min   0.860
_reflns_odcompleteness_completeness 99.97
_reflns_odcompleteness_iscentric 1
_reflns_odcompleteness_theta     68.13
_olex2_refinement_description
;
1. Fixed Uiso
 At 1.2 times of:
  All C(H) groups, All C(H,H) groups, All N(H) groups
 At 1.5 times of:
  All O(H,H) groups
2. Restrained distances
 O4-H4B
 0.856 with sigma of 0.02
3.a Riding coordinates:
 O4(H4A,H4B)
3.b Secondary CH2 refined with riding coordinates:
 C7(H7A,H7B), C57(H57A,H57B), C29(H29A,H29B), C59(H59A,H59B), C15(H15A,H15B),
 C61(H61A,H61B), C31(H31A,H31B), C63(H63A,H63B)
3.c Aromatic/amide H refined with riding coordinates:
 N5(H5), C14(H14), C20(H20), C26(H26), C36(H36), C40(H40), C44(H44), C46(H46),
 C50(H50), C54(H54), C58(H58), C60(H60), C62(H62), C64(H64), C9(H9), C39(H39),
 C5(H5A), C21(H21), C43(H43), C11(H11), C45(H45), C47(H47), C3(H3), C49(H49),
 C25(H25), C51(H51), C13(H13), C53(H53), C27(H27), C55(H55)
;
_smtbx_masks_void_probe_radius   1.2
_smtbx_masks_void_truncation_radius 1.2
_shelx_res_file
;
    zzy-7-2-2.res created by SHELXL-2014/7

TITL zzy-7-2-2_a.res in P-1
REM Old TITL zzy-7-2-2_a.res in P-1
REM SHELXT solution in P-1
REM R1 0.126, Rweak 0.005, Alpha 0.067, Orientation as input
REM Formula found by SHELXT: C83 N4 O18 Zn3
CELL 1.54184 16.6123 16.6936 16.7212 118.127 90.188 108.145
ZERR 2 0.0005 0.0006 0.0006 0.004 0.003 0.003
LATT 1
SFAC C H N O Zn
UNIT 128 96 12 26 6
DFIX 0.856 O4 H4b

L.S. 10
PLAN  99
SIZE 0.1 0.1 0.1
CONF
list 4
MORE -1
BOND $H
ABIN
fmap 2
acta
OMIT 1 -1 2
OMIT -8 1 0
OMIT 0 0 1
OMIT 8 -7 2
OMIT 8 -3 2
OMIT -3 -5 7
OMIT -4 -2 3
OMIT 8 -10 7
OMIT -3 5 0
REM <olex2.extras>
REM <HklSrc "%.\\ZZY-7-2-2.hkl">
REM </olex2.extras>

WGHT    0.096600   18.649002
EXTI    0.000478
FVAR       0.22764
ZN1   5    1.022080    0.574219    0.904141    11.00000    0.01289    0.01607 =
         0.01191    0.00852    0.00203    0.00661
ZN3   5    0.086557    0.787360   -0.006111    11.00000    0.01318    0.01527 =
         0.01226    0.00767    0.00186    0.00622
ZN2   5    0.555372    0.685072    0.454677    11.00000    0.01272    0.02339 =
         0.01246    0.01036    0.00248    0.00821
O1    4    0.964364    0.617985    0.021759    11.00000    0.01978    0.02393 =
         0.01942    0.01425    0.01026    0.01285
O3    4    1.001897    0.741887    0.879458    11.00000    0.01705    0.02192 =
         0.01896    0.01108   -0.00270    0.00581
O4    4    0.980597    0.433054    0.860538    11.00000    0.01833    0.01993 =
         0.02300    0.01314    0.00219    0.00598
AFIX   3
H4A   2    1.007257    0.422284    0.896208    11.00000   -1.50000
H4B   2    0.927857    0.413674    0.866088    11.00000   -1.50000
AFIX   0
O6    4    0.099761    0.587376    0.815272    11.00000    0.01985    0.02111 =
         0.01628    0.00968    0.00575    0.00408
O8    4    0.975142    0.768070    0.054449    11.00000    0.01968    0.02321 =
         0.02370    0.01593    0.00924    0.01240
O10   4    0.172921    0.746505    0.909476    11.00000    0.01860    0.02165 =
         0.01809    0.00867    0.00591    0.00719
O11   4    0.148569    0.769882    0.087290    11.00000    0.02200    0.02088 =
         0.01496    0.00911    0.00005    0.00961
O5    4    0.928679    0.586477    0.838432    11.00000    0.01706    0.02076 =
         0.02565    0.01508   -0.00171    0.00594
O2    4    0.126435    0.611944   -0.005736    11.00000    0.01819    0.01984 =
         0.01626    0.00810   -0.00118    0.00775
N1    3    0.429484    0.676746    0.451248    11.00000    0.00850    0.02015 =
         0.01395    0.00863   -0.00051    0.00463
O7    4    0.615933    0.845881    0.549734    11.00000    0.02991    0.02185 =
         0.02475    0.00854    0.00296    0.00726
N4    3    0.673228    0.669755    0.443850    11.00000    0.01139    0.02247 =
         0.01693    0.01113    0.00202    0.00832
N6    3    0.545794    0.649601    0.557205    11.00000    0.01634    0.02192 =
         0.01412    0.01107    0.00434    0.00872
N3    3    0.554020    0.690747    0.334666    11.00000    0.01486    0.02986 =
         0.01258    0.01150    0.00184    0.01091
N2    3    0.139049    0.930420    0.038059    11.00000    0.01656    0.01719 =
         0.01866    0.00875    0.00167    0.00797
N5    3    0.167114    1.081334    0.066083    11.00000    0.02978    0.01477 =
         0.03196    0.01204   -0.00054    0.00875
AFIX  43
H5    2    0.158840    1.131387    0.070161    11.00000   -1.20000
AFIX   0
C1    1    0.478597    0.643401    0.603449    11.00000    0.01824    0.02167 =
         0.01245    0.00822    0.00350    0.00652

O13   4    0.829348    0.007207    0.639186    11.00000    0.07861    0.04530 =
         0.03964    0.01794    0.00692    0.03016
C4    1    0.403482    0.659473    0.588248    11.00000    0.01754    0.01920 =
         0.01432    0.00732    0.00177    0.00473
O9    4    0.539767    0.987964    0.601474    11.00000    0.05635    0.03140 =
         0.06219    0.01030   -0.00242    0.01982
C6    1    0.722207    0.664171    0.505960    11.00000    0.01802    0.02238 =
         0.01600    0.01153    0.00050    0.00836
C8    1    0.620309    0.694002    0.286487    11.00000    0.02182    0.02931 =
         0.01492    0.01275    0.00399    0.01068
C10   1    0.692200    0.649082    0.578361    11.00000    0.01808    0.02159 =
         0.01390    0.00971    0.00325    0.00905
C12   1    0.381899    0.688585    0.392645    11.00000    0.01528    0.01950 =
         0.01623    0.00955   -0.00033    0.00607
C14   1    0.806324    0.671219    0.481632    11.00000    0.00966    0.02623 =
         0.02755    0.01130   -0.00162    0.00835
AFIX  43
H14   2    0.851884    0.670423    0.513368    11.00000   -1.20000
AFIX   0
C16   1    0.762222    0.690813    0.244317    11.00000    0.01609    0.02608 =
         0.01494    0.01131    0.00324    0.00822
C18   1    0.380374    0.674689    0.517532    11.00000    0.01495    0.01953 =
         0.01704    0.00865    0.00412    0.00580
C20   1    0.805969    0.572090    0.713004    11.00000    0.01781    0.02011 =
         0.02245    0.01239   -0.00078    0.00657
AFIX  43
H20   2    0.798425    0.517852    0.719245    11.00000   -1.20000
AFIX   0
C22   1    0.944338    0.692925    0.062932    11.00000    0.01500    0.02440 =
         0.01604    0.01296    0.00411    0.00995
C24   1    0.343654    0.696527    0.253349    11.00000    0.01802    0.02705 =
         0.01495    0.01256    0.00043    0.00982
C26   1    0.224113    0.608298    0.126825    11.00000    0.01631    0.02057 =
         0.02224    0.01296   -0.00598    0.00347
AFIX  43
H26   2    0.183925    0.549456    0.082167    11.00000   -1.20000
AFIX   0
C28   1    0.609162    0.637855    0.598702    11.00000    0.02018    0.01936 =
         0.01383    0.00796   -0.00008    0.00874
C30   1    0.877261    0.656816    0.764905    11.00000    0.01993    0.02031 =
         0.01593    0.00972    0.00115    0.00766
C32   1    0.879712    0.692146    0.124986    11.00000    0.01807    0.02315 =
         0.01673    0.01222    0.00642    0.01146
C34   1    0.342093    0.660939    0.654103    11.00000    0.02046    0.02300 =
         0.01676    0.01217    0.00351    0.01009
C36   1    0.282620    0.610078    0.187491    11.00000    0.02616    0.02205 =
         0.02827    0.01661   -0.00257    0.00818
AFIX  43
H36   2    0.280730    0.552132    0.183771    11.00000   -1.20000
AFIX   0
C38   1    0.225777    0.695680    0.133077    11.00000    0.01690    0.02088 =
         0.01622    0.01224    0.00243    0.00723
C40   1    0.285349    0.782670    0.201341    11.00000    0.02405    0.01922 =
         0.01949    0.01159    0.00023    0.00802
AFIX  43
H40   2    0.285494    0.841112    0.207611    11.00000   -1.20000
AFIX   0
C42   1    0.756510    0.649238    0.641431    11.00000    0.01639    0.02152 =
         0.01587    0.01062    0.00328    0.00860
C44   1    0.781080    0.607800    0.188334    11.00000    0.02253    0.02603 =
         0.02290    0.01527    0.00911    0.01175
AFIX  43
H44   2    0.754560    0.551465    0.191170    11.00000   -1.20000
AFIX   0
C46   1    0.301803    0.687811    0.498883    11.00000    0.01252    0.02955 =
         0.02803    0.01339    0.00185    0.01307
AFIX  43
H46   2    0.258450    0.691018    0.534074    11.00000   -1.20000
AFIX   0
C48   1    0.940371    0.661766    0.833393    11.00000    0.01457    0.02359 =
         0.01416    0.01097    0.00344    0.00787
C50   1    0.838831    0.607771    0.128351    11.00000    0.02009    0.02465 =
         0.01963    0.01267    0.00625    0.01125
AFIX  43
H50   2    0.850023    0.551524    0.090674    11.00000   -1.20000
AFIX   0
C52   1    0.699412    0.688479    0.307705    11.00000    0.01698    0.02409 =
         0.01472    0.01047    0.00629    0.00936
C54   1    0.888850    0.736318    0.753358    11.00000    0.01679    0.01954 =
         0.01911    0.01038   -0.00040    0.00410
AFIX  43
H54   2    0.937060    0.792328    0.786497    11.00000   -1.20000
AFIX   0
C56   1    0.407920    0.694621    0.314880    11.00000    0.01853    0.02176 =
         0.01705    0.01114   -0.00029    0.00570
C58   1    0.302196    0.694405    0.423906    11.00000    0.01311    0.02701 =
         0.02981    0.01376    0.00430    0.00961
AFIX  43
H58   2    0.258620    0.701590    0.395764    11.00000   -1.20000
AFIX   0
C60   1    0.746049    0.568704    0.651803    11.00000    0.01831    0.02272 =
         0.01968    0.01045   -0.00159    0.00587
AFIX  43
H60   2    0.698608    0.512104    0.617550    11.00000   -1.20000
AFIX   0
C62   1    0.595425    0.701866    0.207749    11.00000    0.02771    0.04850 =
         0.01999    0.02349    0.01023    0.01899
AFIX  43
H62   2    0.628626    0.705083    0.163944    11.00000   -1.20000
AFIX   0
C64   1    0.807626    0.678937    0.407178    11.00000    0.01272    0.02279 =
         0.03077    0.01290    0.00497    0.00681
AFIX  43
H64   2    0.853796    0.683788    0.376291    11.00000   -1.20000
AFIX   0
C2    1    0.226009    0.663871    0.775284    11.00000    0.01557    0.02467 =
         0.01627    0.01219    0.00577    0.00740
C33   1    0.227831    0.983141    0.071910    11.00000    0.02069    0.01946 =
         0.02195    0.00967   -0.00132    0.00324
C17   1    0.723489    0.678528    0.381623    11.00000    0.01980    0.02250 =
         0.01719    0.01110    0.00616    0.01099

O12   4    0.946642   -0.072133    0.664638    11.00000    0.05007    0.06809 =
         0.07697    0.03648    0.01397    0.02309
C35   1    0.161609    0.665943    0.838174    11.00000    0.01550    0.02208 =
         0.01404    0.00986    0.00346    0.00900
C9    1    0.829057    0.732975    0.692718    11.00000    0.01728    0.01965 =
         0.02149    0.01197   -0.00431    0.00270
AFIX  43
H9    2    0.837312    0.787096    0.686079    11.00000   -1.20000
AFIX   0
C37   1    0.106192    0.992907    0.035260    11.00000    0.02248    0.01787 =
         0.02217    0.00796   -0.00063    0.00762
C19   1    0.162550    0.692778    0.066646    11.00000    0.01711    0.01950 =
         0.01405    0.01150    0.00329    0.00567
C39   1    0.861272    0.775698    0.180521    11.00000    0.02695    0.02329 =
         0.02240    0.01347    0.00985    0.01130
AFIX  43
H39   2    0.888043    0.832112    0.177892    11.00000   -1.20000
AFIX   0
C5    1    0.498069    0.622470    0.674229    11.00000    0.02528    0.03202 =
         0.01945    0.01591    0.00611    0.01243
AFIX  43
H5A   2    0.462063    0.612580    0.713718    11.00000   -1.20000
AFIX   0
C41   1    0.488802    0.696482    0.289556    11.00000    0.01967    0.02557 =
         0.01711    0.01150   -0.00060    0.00857
C21   1    0.803047    0.774676    0.239641    11.00000    0.02573    0.02868 =
         0.02435    0.01481    0.01193    0.01549
AFIX  43
H21   2    0.791157    0.830641    0.276561    11.00000   -1.20000
AFIX   0
C43   1    0.514215    0.703600    0.210641    11.00000    0.02739    0.04687 =
         0.02250    0.02165    0.00458    0.01665
AFIX  43
H43   2    0.481300    0.708488    0.169181    11.00000   -1.20000
AFIX   0
C11   1    0.345005    0.783181    0.260625    11.00000    0.02450    0.02389 =
         0.01796    0.00818   -0.00430    0.00500
AFIX  43
H11   2    0.385725    0.841704    0.305074    11.00000   -1.20000
AFIX   0
C45   1    0.014877    0.967770    0.003325    11.00000    0.02202    0.02218 =
         0.04619    0.01443   -0.00163    0.00988
AFIX  43
H45   2   -0.023721    0.906304   -0.012803    11.00000   -1.20000
AFIX   0
C23   1    0.244464    1.077821    0.089803    11.00000    0.02265    0.02346 =
         0.03133    0.01490   -0.00022    0.00411
C47   1    0.578730    0.619993    0.672124    11.00000    0.01950    0.03720 =
         0.01937    0.01978    0.00544    0.01211
AFIX  43
H47   2    0.608957    0.608934    0.710483    11.00000   -1.20000
AFIX   0
C3    1    0.293862    0.953287    0.085148    11.00000    0.02520    0.02777 =
         0.03703    0.01849   -0.00024    0.00902
AFIX  43
H3    2    0.283234    0.890074    0.072725    11.00000   -1.20000
AFIX   0
C49   1    0.220388    0.578053    0.698493    11.00000    0.03353    0.02179 =
         0.03533    0.00873    0.02101    0.00289
AFIX  43
H49   2    0.178037    0.520276    0.687113    11.00000   -1.20000
AFIX   0
C25   1    0.277565    0.576990    0.637693    11.00000    0.04068    0.02399 =
         0.03498    0.00642    0.02700    0.00410
AFIX  43
H25   2    0.272033    0.518649    0.585217    11.00000   -1.20000
AFIX   0
C51   1    0.327440    1.147656    0.123816    11.00000    0.03307    0.02384 =
         0.05594    0.02124   -0.01335   -0.00335
AFIX  43
H51   2    0.338529    1.210875    0.136028    11.00000   -1.20000
AFIX   0
C13   1    0.350173    0.746308    0.733287    11.00000    0.03486    0.02411 =
         0.03409    0.00473    0.01970   -0.00062
AFIX  43
H13   2    0.394711    0.803299    0.746342    11.00000   -1.20000
AFIX   0
C53   1    0.376023    1.022530    0.117719    11.00000    0.02338    0.04136 =
         0.05075    0.02436   -0.00855    0.00368
AFIX  43
H53   2    0.422064    1.005192    0.126218    11.00000   -1.20000
AFIX   0
C27   1    0.292495    0.748384    0.794067    11.00000    0.04186    0.02606 =
         0.03298    0.00260    0.02139    0.00389
AFIX  43
H27   2    0.298682    0.806479    0.847166    11.00000   -1.20000
AFIX   0
C55   1    0.391374    1.118187    0.138176    11.00000    0.02905    0.03638 =
         0.06126    0.02664   -0.01231   -0.00235
AFIX  43
H55   2    0.447162    1.163248    0.162424    11.00000   -1.20000
AFIX   0
C7    1    0.521485    0.924109    0.637486    11.00000    0.04909    0.02833 =
         0.05034    0.00596    0.01256    0.01111
AFIX  23
H7A   2    0.470863    0.867508    0.599224    11.00000   -1.20000
H7B   2    0.509142    0.956430    0.699105    11.00000   -1.20000
AFIX   0

C57   1    0.840776    0.000760    0.719976    11.00000    0.06567    0.04971 =
         0.03960    0.02331    0.01105    0.02269
AFIX  23
H57A  2    0.798563   -0.059028    0.711758    11.00000   -1.20000
H57B  2    0.831159    0.054644    0.771790    11.00000   -1.20000
AFIX   0

C29   1    0.596860    0.892226    0.640889    11.00000    0.05639    0.02813 =
         0.02978    0.00893    0.00968    0.01044
AFIX  23
H29A  2    0.646812    0.948174    0.681909    11.00000   -1.20000
H29B  2    0.582730    0.847290    0.664381    11.00000   -1.20000
AFIX   0
C59   1    0.560394    0.941654    0.510662    11.00000    0.07006    0.03521 =
         0.05149    0.01762   -0.01060    0.01623
AFIX  23
H59A  2    0.574447    0.986437    0.486993    11.00000   -1.20000
H59B  2    0.510962    0.885235    0.469205    11.00000   -1.20000
AFIX   0
C15   1    0.635602    0.911109    0.515019    11.00000    0.04946    0.02524 =
         0.03926    0.01178    0.00380    0.00727
AFIX  23
H15A  2    0.649266    0.879944    0.453882    11.00000   -1.20000
H15B  2    0.685583    0.967890    0.554644    11.00000   -1.20000
AFIX   0

C61   1    0.928482    0.002666    0.740513    11.00000    0.06450    0.06219 =
         0.03924    0.01635   -0.00199    0.01820
AFIX  23
H61A  2    0.970485    0.065144    0.754981    11.00000   -1.20000
H61B  2    0.933123   -0.005288    0.793985    11.00000   -1.20000
AFIX   0
C31   1    0.933791   -0.066543    0.582796    11.00000    0.06331    0.05223 =
         0.06785    0.02266    0.03038    0.02027
AFIX  23
H31A  2    0.944070   -0.119954    0.531071    11.00000   -1.20000
H31B  2    0.974772   -0.006299    0.590623    11.00000   -1.20000
AFIX   0
C63   1    0.844802   -0.070836    0.562768    11.00000    0.07973    0.04493 =
         0.04465    0.00871    0.00761    0.02604
AFIX  23
H63A  2    0.837714   -0.065954    0.507810    11.00000   -1.20000
H63B  2    0.803623   -0.132403    0.551744    11.00000   -1.20000
AFIX   0
HKLF 4

REM  zzy-7-2-2_a.res in P-1
REM R1 =  0.0547 for   12699 Fo > 4sig(Fo)  and  0.0630 for all   15324 data
REM    776 parameters refined using      1 restraints

END

WGHT      0.0849      7.1646

REM Highest difference peak  0.978,  deepest hole -0.605,  1-sigma level  0.106
Q1    1  -0.0309  0.9398  0.0705  11.00000  0.05    0.98
Q2    1   0.3145  0.6834  0.4583  11.00000  0.05    0.76
Q3    1   0.2216  0.7860  1.0035  11.00000  0.05    0.71
Q4    1   0.1762  1.2283  0.0259  11.00000  0.05    0.67
Q5    1   0.0601  0.7301  0.0228  11.00000  0.05    0.65
Q6    1   0.1524  0.5798 -0.0833  11.00000  0.05    0.63
Q7    1   0.7648  0.6552  0.4943  11.00000  0.05    0.56
Q8    1   0.8142  0.6919  0.4531  11.00000  0.05    0.55
Q9    1   0.3358  0.6806  0.5134  11.00000  0.05    0.53
Q10   1   0.9667  0.7842 -0.0174  11.00000  0.05    0.50
Q11   1   0.4157  0.6853  0.4854  11.00000  0.05    0.49
Q12   1   0.9685  0.3870  0.8112  11.00000  0.05    0.48
Q13   1   0.5299  0.6608  0.3795  11.00000  0.05    0.46
Q14   1   0.2574  0.6952  0.2913  11.00000  0.05    0.45
Q15   1   0.7741  0.6802  0.3938  11.00000  0.05    0.45
Q16   1   0.1994  0.6822  0.4444  11.00000  0.05    0.45
Q17   1   0.9569  0.5888  0.8128  11.00000  0.05    0.45
Q18   1   0.9635  0.2986  0.6876  11.00000  0.05    0.44
Q19   1   0.5555  0.6101  0.4133  11.00000  0.05    0.44
Q20   1   0.7016  0.6464  0.5386  11.00000  0.05    0.43
Q21   1   0.1025  0.6247  0.0254  11.00000  0.05    0.43
Q22   1   0.7165  0.7051  0.3573  11.00000  0.05    0.43
Q23   1   0.4005  0.6773  0.5619  11.00000  0.05    0.43
Q24   1   0.6415  0.6510  0.4406  11.00000  0.05    0.42
Q25   1   0.1982  0.7776  0.0558  11.00000  0.05    0.42
Q26   1   0.5284  0.6341  0.4896  11.00000  0.05    0.41
Q27   1   0.8584  0.5849  0.7226  11.00000  0.05    0.41
Q28   1   0.8966  0.5759  0.8972  11.00000  0.05    0.41
Q29   1   0.6446  0.6236  0.4702  11.00000  0.05    0.41
Q30   1   0.0641  0.6347  0.8777  11.00000  0.05    0.40
Q31   1   0.4453  0.6941  0.3051  11.00000  0.05    0.39
Q32   1   1.1414  0.9487  0.8185  11.00000  0.05    0.39
Q33   1   0.7180  0.9228  0.6672  11.00000  0.05    0.39
Q34   1   0.4355  0.6336  0.3724  11.00000  0.05    0.39
Q35   1   0.5823  0.6919  0.7072  11.00000  0.05    0.39
Q36   1   0.3437  0.6889  0.4030  11.00000  0.05    0.38
Q37   1   1.0263  0.6812  0.0399  11.00000  0.05    0.38
Q38   1   0.5580  0.7652  0.5000  11.00000  0.05    0.38
Q39   1   0.6029  0.6603  0.7660  11.00000  0.05    0.37
Q40   1   0.1613  1.1549  0.0286  11.00000  0.05    0.37
Q41   1   0.6808  0.9176  0.6402  11.00000  0.05    0.37
Q42   1   1.0309  0.6504  0.3666  11.00000  0.05    0.36
Q43   1   0.4182  0.9903  0.8370  11.00000  0.05    0.36
Q44   1   0.4379  0.6445  0.5931  11.00000  0.05    0.36
Q45   1   0.2983  0.9366  0.7006  11.00000  0.05    0.36
Q46   1   0.0707  0.6936  0.0585  11.00000  0.05    0.36
Q47   1   0.0924  0.8759  0.0407  11.00000  0.05    0.36
Q48   1   0.7439 -0.0388  0.6221  11.00000  0.05    0.36
Q49   1   0.3456  0.6942  0.3052  11.00000  0.05    0.35
Q50   1   0.3196  0.7300  0.6886  11.00000  0.05    0.35
Q51   1   0.6630  0.6898  0.3016  11.00000  0.05    0.35
Q52   1   0.8784  0.6926  0.2875  11.00000  0.05    0.35
Q53   1   0.9412  0.6170 -0.0020  11.00000  0.05    0.35
Q54   1   0.7342  0.6468  0.6030  11.00000  0.05    0.35
Q55   1   0.0728  0.5782  0.8563  11.00000  0.05    0.35
Q56   1   0.5895  0.6945  0.3181  11.00000  0.05    0.35
Q57   1   0.8986  0.2353  0.6704  11.00000  0.05    0.35
Q58   1   0.5997  0.6372  0.6302  11.00000  0.05    0.34
Q59   1   0.3732  0.6574  0.6093  11.00000  0.05    0.34
Q60   1   1.0142  0.4948  0.8556  11.00000  0.05    0.34
Q61   1   0.8840 -0.0644  0.6431  11.00000  0.05    0.33
Q62   1   0.7172  0.6693  0.7591  11.00000  0.05    0.33
Q63   1   0.4940  0.6621  0.6531  11.00000  0.05    0.33
Q64   1   0.4013  0.6923  0.3606  11.00000  0.05    0.33
Q65   1   0.9198  0.5327  0.8155  11.00000  0.05    0.33
Q66   1   0.6725  1.0206  0.3444  11.00000  0.05    0.32
Q67   1   0.7538  0.6154  0.6602  11.00000  0.05    0.32
Q68   1   0.6622  0.7587  0.0386  11.00000  0.05    0.32
Q69   1   0.4199  0.6133  0.1856  11.00000  0.05    0.32
Q70   1   0.5589  0.7061  0.5217  11.00000  0.05    0.32
Q71   1   0.5168  0.6573  0.5843  11.00000  0.05    0.32
Q72   1   0.2727  0.7232  0.1395  11.00000  0.05    0.32
Q73   1   0.6174  0.5986  0.7362  11.00000  0.05    0.32
Q74   1   0.6167  0.7105  0.2559  11.00000  0.05    0.32
Q75   1   0.1148  0.8553 -0.0185  11.00000  0.05    0.32
Q76   1   0.4812  0.9930  0.6280  11.00000  0.05    0.31
Q77   1   0.9566  0.8139  0.0282  11.00000  0.05    0.31
Q78   1   0.0736  0.6720  0.8430  11.00000  0.05    0.31
Q79   1   0.5779  1.0803  0.4784  11.00000  0.05    0.31
Q80   1   0.2003  0.6953  0.0940  11.00000  0.05    0.31
Q81   1   0.3782  0.6976  0.2679  11.00000  0.05    0.30
Q82   1   0.6807  0.5289  0.6705  11.00000  0.05    0.30
Q83   1   0.2652  1.0236  0.1697  11.00000  0.05    0.30
Q84   1   0.8245  0.6354  0.7469  11.00000  0.05    0.30
Q85   1   0.6034  0.7817  0.2554  11.00000  0.05    0.30
Q86   1   0.5419  0.6112  0.6708  11.00000  0.05    0.30
Q87   1   0.9214  0.7009  0.1010  11.00000  0.05    0.30
Q88   1   0.9203  0.7636  0.9042  11.00000  0.05    0.30
Q89   1   0.1380  0.6107  0.8437  11.00000  0.05    0.30
Q90   1   0.0376  0.9819 -0.0623  11.00000  0.05    0.30
Q91   1   0.9036  0.0713  0.6739  11.00000  0.05    0.30
Q92   1   0.8208  0.6156  0.3595  11.00000  0.05    0.29
Q93   1   0.7787  0.6645  0.2162  11.00000  0.05    0.29
Q94   1   0.4994  0.7095  0.2638  11.00000  0.05    0.29
Q95   1   0.2046  0.6013 -0.0077  11.00000  0.05    0.29
Q96   1   0.1295  0.6829  0.3077  11.00000  0.05    0.29
Q97   1   0.6350  0.6809  0.5585  11.00000  0.05    0.29
Q98   1   0.9803  0.7412  0.9059  11.00000  0.05    0.29
Q99   1   0.0412  0.4636  0.5388  11.00000  0.05    0.29
;
_shelx_res_checksum              82792
_shelx_fab_file
;
-20 1 2 -0.9226 -0.1915
-20 2 1 2.5257 0.0989
-20 2 2 -0.0545 -0.0072
-20 2 3 -1.7860 0.1754
-20 2 4 2.6517 -0.0542
-20 3 1 0.7134 0.6216
-20 3 2 -0.4420 -0.0036
-20 3 3 -1.1396 -0.1017
-20 3 4 0.3794 -0.2236
-20 4 1 -1.5599 0.0416
-20 4 2 -0.9561 0.3582
-20 4 3 0.9587 0.0691
-20 4 4 -0.8068 0.3526
-20 5 1 -0.6810 0.0464
-20 5 2 -2.3578 -0.2464
-20 5 3 -2.5581 -0.1872
-20 5 4 -0.4056 -0.2592
-20 6 1 -2.8714 -0.7712
-20 6 2 0.3257 -0.2728
-20 6 3 -0.7717 0.2373
-20 6 4 1.4049 0.0160
-20 7 1 1.3353 0.2788
-20 7 2 3.8040 0.2072
-20 7 3 -0.9334 -0.1497
-20 8 1 1.4786 0.0843
-20 8 2 0.0961 0.1419
-20 8 3 0.9399 0.0495
-20 9 1 1.9367 0.8297
-20 9 2 -0.7046 0.1951
-20 10 1 0.1951 -0.5067
-19 -1 1 -1.4553 -0.0758
-19 -1 2 -0.4889 0.4408
-19 -1 3 -0.1050 0.1361
-19 -1 4 -0.2067 0.2802
-19 -1 5 -1.5695 0.0940
-19 -1 6 1.2075 0.6628
-19 -1 7 1.9387 0.2917
-19 0 1 -1.0210 0.3831
-19 0 2 0.2278 0.2131
-19 0 3 -1.0635 -0.1651
-19 0 4 -3.4604 -0.1684
-19 0 5 1.7806 -0.1515
-19 0 6 -0.9906 -0.1729
-19 0 7 1.8662 0.1333
-19 1 1 2.6256 -0.4326
-19 1 2 1.7639 0.2009
-19 1 3 2.7365 0.0564
-19 1 4 -2.0888 -0.0509
-19 1 5 -0.1758 0.0061
-19 1 6 2.5325 -0.0605
-19 1 7 -3.3726 0.1621
-19 1 8 0.4474 -0.0320
-19 2 1 2.0774 -0.2678
-19 2 2 2.6164 -0.0983
-19 2 3 -1.5282 -0.0003
-19 2 4 0.1773 -0.0510
-19 2 5 -1.1185 -0.0380
-19 2 6 -0.0144 -0.1275
-19 2 7 2.0034 -0.6266
-19 3 1 0.3924 -0.2395
-19 3 2 0.7959 -0.3301
-19 3 3 -0.9799 0.1498
-19 3 4 0.2210 -0.0357
-19 3 5 1.5946 0.0256
-19 3 6 0.9692 0.0999
-19 3 7 2.5547 0.2706
-19 4 1 -3.3313 0.6170
-19 4 2 -4.8656 0.4180
-19 4 3 -2.8143 -0.2699
-19 4 4 -4.2811 0.0174
-19 4 5 0.9977 0.2218
-19 4 6 -0.5097 0.1108
-19 5 1 2.7047 0.7374
-19 5 2 -0.6368 -0.0446
-19 5 3 2.5926 -0.0346
-19 5 4 -1.7913 -0.1403
-19 5 5 -0.9331 -0.1980
-19 5 6 2.2027 0.0908
-19 5 7 0.3228 -0.1193
-19 6 1 3.4771 -1.2849
-19 6 2 5.2671 -0.1995
-19 6 3 0.9889 0.2612
-19 6 4 -1.4480 -0.0258
-19 6 5 4.5444 -0.0407
-19 6 6 2.4558 0.0421
-19 7 1 -4.8694 -0.0708
-19 7 2 0.2213 -0.0552
-19 7 3 0.3050 0.0403
-19 7 4 0.3546 0.0490
-19 7 5 -1.4084 -0.1352
-19 7 6 1.8076 -0.5764
-19 8 1 -3.1573 0.2414
-19 8 2 -0.7300 0.3351
-19 8 3 -1.1907 0.0469
-19 8 4 -5.1252 0.1624
-19 8 5 -1.2552 0.2042
-19 9 1 -2.5113 0.3781
-19 9 2 -2.3040 -0.3074
-19 9 3 -2.2294 0.0296
-19 9 4 -0.9971 0.3444
-19 10 1 4.2251 -0.0807
-19 10 2 2.6224 -0.2094
-19 10 3 1.2814 -0.1311
-19 11 1 -0.2933 -0.5732
-19 11 2 1.6750 -0.3535
-19 12 1 0.2537 -0.0069
-18 -4 3 1.3604 -0.0028
-18 -4 4 2.6938 -0.1733
-18 -4 5 0.4045 0.1184
-18 -4 6 0.6979 0.0167
-18 -4 7 -0.6613 0.3744
-18 -3 1 -0.1530 -0.4055
-18 -3 2 1.4710 0.0041
-18 -3 3 0.5421 0.1797
-18 -3 4 0.9714 0.0874
-18 -3 5 0.2358 -0.2200
-18 -3 6 -0.5732 -0.2248
-18 -3 7 -2.5743 -0.2920
-18 -3 8 0.8128 -0.1701
-18 -3 9 -1.3402 -0.5645
-18 -2 1 -1.7928 -0.4448
-18 -2 2 -0.3111 -0.3761
-18 -2 3 1.3646 -0.0348
-18 -2 4 -0.9449 0.0340
-18 -2 5 -0.2336 0.0263
-18 -2 6 -1.6013 -0.0388
-18 -2 7 -0.3506 -0.0620
-18 -2 8 -0.7696 0.1276
-18 -2 9 1.6655 0.1544
-18 -1 1 -1.5655 -0.2266
-18 -1 2 -1.1286 0.1889
-18 -1 3 0.0046 0.0091
-18 -1 4 0.6861 -0.1268
-18 -1 5 -6.3968 -0.3741
-18 -1 6 -1.0949 0.1764
-18 -1 7 -1.5489 0.2133
-18 -1 8 -1.2988 -0.0495
-18 -1 9 -0.7744 0.0373
-18 -1 10 0.1049 -0.0717
-18 0 1 0.3709 1.2037
-18 0 2 2.6409 0.0998
-18 0 3 3.4912 -0.2951
-18 0 4 1.3032 -0.0928
-18 0 5 2.2557 -0.0099
-18 0 6 -5.0007 0.0796
-18 0 7 1.4631 0.2694
-18 0 8 -0.1399 0.1335
-18 0 9 0.2596 -0.0521
-18 0 10 1.4162 0.2112
-18 1 1 2.1437 -0.5466
-18 1 2 -1.5548 -0.0831
-18 1 3 4.1401 -0.0109
-18 1 4 -0.0600 0.0398
-18 1 5 0.2602 0.0530
-18 1 6 3.8054 -0.0710
-18 1 7 -2.7935 0.2095
-18 1 8 6.7698 -0.0080
-18 1 9 -0.3645 -0.0999
-18 1 10 2.6688 0.0299
-18 2 1 -2.0106 -0.7333
-18 2 2 1.1631 -0.1434
-18 2 3 0.0558 0.1056
-18 2 4 0.8763 0.2434
-18 2 5 -4.8787 0.1251
-18 2 6 0.1575 0.0367
-18 2 7 -0.7295 -0.3680
-18 2 8 -3.1178 -0.2775
-18 2 9 -1.3864 0.0669
-18 2 10 -4.1555 -0.2959
-18 3 1 -1.9544 0.1837
-18 3 2 -0.9667 0.1841
-18 3 3 -4.4649 0.3211
-18 3 4 -2.4856 0.0692
-18 3 5 -4.4597 -0.0457
-18 3 6 -3.7447 -0.0343
-18 3 7 -1.0838 -0.0090
-18 3 8 1.4894 0.2187
-18 3 9 -1.9144 0.0018
-18 4 1 3.6636 0.1823
-18 4 2 2.8443 0.1182
-18 4 3 3.9987 -0.3221
-18 4 4 -0.5905 -0.2238
-18 4 5 2.2247 -0.0819
-18 4 6 -1.9014 -0.0785
-18 4 7 5.6182 0.2394
-18 4 8 1.7234 0.0869
-18 4 9 1.8671 -0.1219
-18 5 1 7.1013 0.8596
-18 5 2 -2.1413 -0.2071
-18 5 3 4.7233 -0.3806
-18 5 4 4.7504 -0.1164
-18 5 5 -0.0467 0.0253
-18 5 6 5.5141 0.1455
-18 5 7 0.9898 0.0608
-18 5 8 2.3438 0.0467
-18 5 9 -1.1537 0.4050
-18 6 1 -1.8639 -0.7069
-18 6 2 0.2849 0.2624
-18 6 3 1.2879 0.4144
-18 6 4 1.9868 0.0448
-18 6 5 -0.0351 -0.1795
-18 6 6 -3.4743 0.0425
-18 6 7 0.6488 -0.0515
-18 6 8 0.3237 -0.0775
-18 7 1 -2.3335 -0.2832
-18 7 2 -3.9877 -0.2710
-18 7 3 -1.4905 0.0079
-18 7 4 -0.6680 0.2723
-18 7 5 -5.1496 0.2733
-18 7 6 -0.4548 -0.1922
-18 7 7 -2.4277 -0.2953
-18 7 8 0.9233 -0.2189
-18 8 1 -2.1097 -0.6334
-18 8 2 -4.0204 0.0051
-18 8 3 4.1457 0.1228
-18 8 4 0.4629 0.0133
-18 8 5 -0.3217 -0.1272
-18 8 6 2.2674 0.0035
-18 8 7 1.1929 0.0474
-18 9 1 2.1785 1.1306
-18 9 2 3.6839 0.3030
-18 9 3 3.6914 -0.3341
-18 9 4 4.0179 -0.1042
-18 9 5 0.9469 0.0091
-18 9 6 0.9175 0.0664
-18 10 1 1.8354 0.3767
-18 10 2 0.6088 0.0095
-18 10 3 0.2733 -0.1168
-18 10 4 1.3275 -0.0278
-18 10 5 -1.5513 -0.0722
-18 11 1 -3.9114 -1.1946
-18 11 2 0.5925 -0.3605
-18 11 3 -1.2130 -0.1778
-18 11 4 -2.7719 0.1504
-18 12 1 -1.5315 0.2437
-18 12 2 -1.4911 -0.0784
-18 13 1 1.6457 0.2561
-17 -6 5 0.2702 -0.2066
-17 -6 6 -1.9535 -0.0425
-17 -6 7 -0.2172 0.0921
-17 -5 1 1.8799 1.0628
-17 -5 2 2.0941 0.3109
-17 -5 3 4.7262 0.2815
-17 -5 4 1.1732 0.0325
-17 -5 5 3.4854 0.0105
-17 -5 6 0.4167 0.0869
-17 -5 7 -0.7199 0.1389
-17 -5 8 0.6451 0.1418
-17 -5 9 -2.1922 -0.0359
-17 -4 1 1.6928 0.6057
-17 -4 2 -1.6319 0.0349
-17 -4 3 -0.8694 -0.1192
-17 -4 4 0.8080 -0.1297
-17 -4 5 -2.7765 0.1411
-17 -4 6 2.0211 0.0930
-17 -4 7 -0.4270 0.2198
-17 -4 8 2.1270 0.1024
-17 -4 9 2.8486 -0.0669
-17 -4 10 0.6533 0.0159
-17 -3 1 -4.3353 -0.8648
-17 -3 2 -1.8968 -0.2290
-17 -3 3 -3.0633 0.1309
-17 -3 4 -0.2984 0.0495
-17 -3 5 -0.4618 0.0410
-17 -3 6 0.2561 -0.0234
-17 -3 7 -3.7594 0.0421
-17 -3 8 -0.0144 0.2851
-17 -3 9 -3.4556 -0.0294
-17 -3 10 -2.5587 -0.1225
-17 -3 11 -1.2893 -0.1090
-17 -2 1 -0.4746 0.0422
-17 -2 2 -3.2219 0.0664
-17 -2 3 -3.1133 0.2651
-17 -2 4 -4.2832 0.3581
-17 -2 5 -1.2105 0.2381
-17 -2 6 -3.8278 -0.0513
-17 -2 7 -1.3847 -0.1892
-17 -2 8 -2.6577 0.0965
-17 -2 9 -0.8360 0.0890
-17 -2 10 -2.4104 0.0924
-17 -2 11 0.0856 0.0328
-17 -1 1 -0.2398 -0.3449
-17 -1 2 0.2139 0.3170
-17 -1 3 1.4018 0.1574
-17 -1 4 6.3710 -0.1527
-17 -1 5 2.8670 -0.1420
-17 -1 6 8.3230 0.0823
-17 -1 7 2.7926 -0.0463
-17 -1 8 2.9312 -0.1547
-17 -1 9 0.1944 0.0025
-17 -1 10 0.5409 -0.1037
-17 -1 11 -0.2321 -0.1020
-17 -1 12 2.0667 -0.0221
-17 0 1 1.8432 0.8642
-17 0 2 2.4100 -0.1914
-17 0 3 1.0936 -0.3966
-17 0 4 3.4754 -0.1305
-17 0 5 6.7028 0.0008
-17 0 6 -3.5657 0.0728
-17 0 7 4.6243 0.0192
-17 0 8 -0.8682 0.0311
-17 0 9 0.8355 -0.1529
-17 0 10 -1.5764 0.0703
-17 0 11 1.3810 0.0809
-17 0 12 -0.9375 0.2370
-17 1 1 3.4717 0.1484
-17 1 2 -3.3704 0.2653
-17 1 3 -0.4776 0.0999
-17 1 4 -3.5247 -0.2318
-17 1 5 -0.2082 -0.1887
-17 1 6 -0.2446 -0.0633
-17 1 7 -7.5893 0.0543
-17 1 8 1.0763 -0.0413
-17 1 9 -6.8327 -0.2122
-17 1 10 -2.0156 -0.0800
-17 1 11 -4.5163 -0.0363
-17 1 12 -1.4279 -0.0780
-17 2 1 -3.7949 -0.2533
-17 2 2 -3.3267 -0.0769
-17 2 3 -4.1292 0.0845
-17 2 4 1.0870 0.2159
-17 2 5 -5.5215 0.0646
-17 2 6 1.2689 0.0412
-17 2 7 -2.4845 -0.0107
-17 2 8 -4.1585 0.0584
-17 2 9 -1.4492 0.2695
-17 2 10 -3.4495 -0.1133
-17 2 11 0.3136 -0.0753
-17 3 1 -2.9749 -0.6896
-17 3 2 5.3370 -0.3742
-17 3 3 -1.9875 0.0029
-17 3 4 4.5226 0.2271
-17 3 5 -0.7508 0.0909
-17 3 6 4.2931 0.0227
-17 3 7 -0.6294 -0.1346
-17 3 8 3.7091 -0.0414
-17 3 9 1.5026 0.0257
-17 3 10 0.2187 0.1791
-17 3 11 2.0004 -0.0167
-17 4 1 1.6439 -0.1313
-17 4 2 4.3563 0.2461
-17 4 3 2.9358 0.0965
-17 4 4 1.7747 -0.1267
-17 4 5 10.1369 -0.1903
-17 4 6 -1.4487 -0.1745
-17 4 7 5.6499 -0.0414
-17 4 8 -2.0754 0.0346
-17 4 9 -0.1873 -0.0544
-17 4 10 -3.3363 0.1426
-17 4 11 -0.0491 0.0744
-17 5 1 6.6159 1.7394
-17 5 2 -2.1185 0.2476
-17 5 3 -3.1231 -0.2783
-17 5 4 -1.3093 -0.1858
-17 5 5 -3.2573 0.0096
-17 5 6 3.0650 0.1243
-17 5 7 -3.7249 0.0912
-17 5 8 0.7203 -0.1036
-17 5 9 -0.3179 -0.1084
-17 5 10 2.9663 0.1722
-17 6 1 -6.4014 -0.8173
-17 6 2 -4.9640 -0.0398
-17 6 3 -13.9998 0.0134
-17 6 4 -3.6640 -0.0703
-17 6 5 0.0761 -0.0973
-17 6 6 -4.9635 0.0782
-17 6 7 0.6225 0.0363
-17 6 8 -1.5518 -0.2407
-17 6 9 -1.5425 -0.1199
-17 6 10 -1.7362 0.0124
-17 7 1 -0.2978 -0.4943
-17 7 2 1.3642 -0.2925
-17 7 3 -5.0539 0.0717
-17 7 4 1.7712 0.3832
-17 7 5 -0.0624 0.1565
-17 7 6 -0.2950 -0.1569
-17 7 7 -2.9295 -0.1265
-17 7 8 0.3554 -0.0894
-17 7 9 -1.1364 0.0820
-17 8 1 2.9712 -0.4116
-17 8 2 -2.3352 0.1076
-17 8 3 2.3212 0.2810
-17 8 4 1.0298 0.0866
-17 8 5 2.4635 -0.0446
-17 8 6 2.9226 -0.0768
-17 8 7 0.4088 0.0033
-17 8 8 1.5087 -0.0849
-17 9 1 -0.8120 0.5180
-17 9 2 0.7443 -0.0844
-17 9 3 1.3229 -0.4028
-17 9 4 4.5796 -0.2003
-17 9 5 0.5217 0.0452
-17 9 6 2.2322 0.1184
-17 9 7 0.9149 -0.0093
-17 9 8 2.7486 0.0891
-17 10 1 -2.0376 0.5765
-17 10 2 -2.6039 -0.1028
-17 10 3 -3.7369 -0.2170
-17 10 4 0.8406 -0.1665
-17 10 5 -3.4221 0.2489
-17 10 6 -2.0490 0.1708
-17 10 7 0.6619 0.3232
-17 11 1 -5.4458 -0.5350
-17 11 2 -1.0232 0.4509
-17 11 3 -1.9933 0.2110
-17 11 4 -0.7932 -0.0907
-17 11 5 -0.4101 -0.0199
-17 11 6 -2.9026 0.0242
-17 12 1 -1.6157 -0.1620
-17 12 2 0.9287 -0.3517
-17 12 3 1.0497 -0.4624
-17 12 4 -0.9487 -0.0493
-17 13 1 2.0487 -0.7261
-17 13 2 -0.9905 -0.0085
-17 13 3 1.5400 -0.2133
-16 -7 3 0.6842 0.0675
-16 -7 4 5.3869 -0.0120
-16 -7 5 1.1299 -0.0863
-16 -7 6 3.1902 -0.4423
-16 -7 7 0.7759 -0.3343
-16 -7 8 0.4854 -0.3694
-16 -7 9 -0.2398 0.0087
-16 -7 10 1.1911 -0.2901
-16 -6 1 1.6018 -0.4751
-16 -6 2 0.4633 -0.0500
-16 -6 3 3.1755 0.0783
-16 -6 4 3.2494 0.0527
-16 -6 5 4.2442 -0.2004
-16 -6 6 2.6402 -0.2099
-16 -6 7 2.9485 0.0068
-16 -6 8 0.1791 0.0175
-16 -6 9 2.2873 -0.1002
-16 -6 10 2.0564 0.1235
-16 -6 11 3.6119 -0.0399
-16 -5 1 -1.2555 0.0488
-16 -5 2 -4.1125 -0.2466
-16 -5 3 -0.1634 -0.1929
-16 -5 4 -4.0984 -0.0367
-16 -5 5 1.2597 0.0944
-16 -5 6 -2.0780 0.0608
-16 -5 7 2.1078 0.0912
-16 -5 8 1.1577 0.0651
-16 -5 9 -1.1190 -0.0348
-16 -5 10 0.3997 0.0355
-16 -5 11 -3.2286 0.0780
-16 -4 1 2.7700 0.7804
-16 -4 2 -1.9634 -0.0662
-16 -4 3 1.0286 -0.2459
-16 -4 4 2.3658 -0.2328
-16 -4 5 -2.6219 -0.1370
-16 -4 6 -0.9222 -0.0453
-16 -4 7 -7.4612 -0.0709
-16 -4 8 -4.4121 -0.0935
-16 -4 9 -4.3869 -0.1804
-16 -4 10 -6.0045 -0.0531
-16 -4 11 -1.6914 -0.0349
-16 -4 12 0.2754 0.0025
-16 -3 1 0.1635 -0.0846
-16 -3 2 3.1145 0.2737
-16 -3 3 -0.5412 0.1309
-16 -3 4 -0.8686 -0.1877
-16 -3 5 -4.3008 -0.1258
-16 -3 6 -0.0039 0.0097
-16 -3 7 -4.6854 0.1036
-16 -3 8 3.3424 0.1526
-16 -3 9 5.0042 -0.0159
-16 -3 10 1.6367 0.0003
-16 -3 11 0.6496 0.0434
-16 -3 12 -1.8010 0.1549
-16 -3 13 1.3520 -0.1477
-16 -2 1 3.1875 -0.2657
-16 -2 2 5.0023 -0.4639
-16 -2 3 5.2291 -0.0694
-16 -2 4 5.4010 0.3014
-16 -2 5 5.4635 0.1179
-16 -2 6 5.6539 -0.0340
-16 -2 7 4.1707 -0.1190
-16 -2 8 2.7146 0.0983
-16 -2 9 6.2131 0.1095
-16 -2 10 0.3839 0.0281
-16 -2 11 2.0330 -0.0361
-16 -2 12 1.5497 -0.0779
-16 -2 13 2.3128 0.0294
-16 -1 1 2.1825 -1.2753
-16 -1 2 4.6038 -0.0745
-16 -1 3 1.3460 0.2144
-16 -1 4 -0.6711 0.0034
-16 -1 5 -7.7288 -0.0916
-16 -1 6 0.1914 -0.0410
-16 -1 7 -3.7914 0.0341
-16 -1 8 1.7282 -0.0357
-16 -1 9 2.4660 0.1428
-16 -1 10 2.3547 0.2195
-16 -1 11 0.4016 0.1045
-16 -1 12 1.2427 -0.1660
-16 -1 13 -1.8596 -0.1897
-16 0 1 -7.0915 1.3114
-16 0 2 -1.2762 0.2796
-16 0 3 -5.1730 -0.1678
-16 0 4 -5.9592 -0.0834
-16 0 5 -1.6121 0.0168
-16 0 6 -6.5822 0.0140
-16 0 7 2.0901 0.0115
-16 0 8 -3.1047 0.0655
-16 0 9 2.1757 -0.0651
-16 0 10 -6.1843 -0.2045
-16 0 11 -1.8916 -0.2609
-16 0 12 -3.5546 0.0315
-16 0 13 -1.2982 0.1379
-16 1 1 0.9073 0.4486
-16 1 2 -3.7486 0.1253
-16 1 3 2.3317 -0.0617
-16 1 4 -4.2710 -0.2468
-16 1 5 0.5053 -0.0257
-16 1 6 -3.7593 0.2895
-16 1 7 -4.2420 0.1488
-16 1 8 2.9721 -0.0919
-16 1 9 -3.3758 -0.3433
-16 1 10 -0.7555 -0.1204
-16 1 11 -0.9632 0.0409
-16 1 12 -2.5458 -0.0274
-16 1 13 -2.5081 0.0304
-16 2 1 4.8203 -0.5532
-16 2 2 4.3814 -0.2346
-16 2 3 3.3615 0.0152
-16 2 4 2.3871 0.0574
-16 2 5 -1.6547 0.0614
-16 2 6 3.8119 -0.0182
-16 2 7 5.9958 -0.0753
-16 2 8 4.3157 0.0437
-16 2 9 7.0651 0.2177
-16 2 10 1.6089 0.0863
-16 2 11 -0.3013 0.0025
-16 2 12 -0.5643 0.0269
-16 3 1 -1.7721 -0.2007
-16 3 2 9.8025 0.0049
-16 3 3 2.3791 0.2072
-16 3 4 9.5683 0.3590
-16 3 5 -2.9520 -0.0820
-16 3 6 6.7337 -0.2621
-16 3 7 1.8771 -0.0936
-16 3 8 5.2703 -0.0036
-16 3 9 -0.2489 0.0690
-16 3 10 -0.8353 0.0858
-16 3 11 0.3809 0.0092
-16 3 12 1.3647 -0.0353
-16 4 1 -3.5648 -0.4162
-16 4 2 5.4499 0.1745
-16 4 3 0.5950 0.1328
-16 4 4 -10.9813 -0.0602
-16 4 5 -0.0900 -0.0058
-16 4 6 -8.3277 0.0759
-16 4 7 4.2656 -0.0121
-16 4 8 -3.0319 0.0242
-16 4 9 4.8744 0.0029
-16 4 10 1.0571 0.0604
-16 4 11 1.3267 0.0923
-16 4 12 -1.8235 -0.0113
-16 5 1 0.1151 1.0244
-16 5 2 -1.8710 -0.3020
-16 5 3 1.8990 -0.3470
-16 5 4 -5.8420 -0.0982
-16 5 5 -7.7867 0.0063
-16 5 6 -0.6862 0.0262
-16 5 7 -5.8833 0.0663
-16 5 8 -2.7774 0.0310
-16 5 9 -5.0656 -0.1372
-16 5 10 -1.6202 0.0013
-16 5 11 -5.5237 0.1276
-16 6 1 4.4501 0.0358
-16 6 2 12.7518 0.4267
-16 6 3 3.9175 0.1197
-16 6 4 -1.4901 -0.2130
-16 6 5 0.3783 -0.1120
-16 6 6 -3.0324 0.0520
-16 6 7 1.3092 0.0316
-16 6 8 -3.7623 -0.0751
-16 6 9 1.4158 -0.1098
-16 6 10 -0.3314 -0.0811
-16 6 11 -0.1175 0.0816
-16 7 1 -3.0536 0.0699
-16 7 2 6.3955 -0.0947
-16 7 3 -1.2814 -0.0292
-16 7 4 2.5810 0.2384
-16 7 5 3.5814 0.1327
-16 7 6 4.7779 -0.0298
-16 7 7 3.6188 -0.0124
-16 7 8 4.3180 0.0281
-16 7 9 3.1489 -0.0343
-16 7 10 2.0458 0.0806
-16 8 1 3.4984 -1.2059
-16 8 2 1.3569 -0.3694
-16 8 3 4.5167 0.1270
-16 8 4 -1.9782 0.2153
-16 8 5 3.8655 0.0618
-16 8 6 2.2997 -0.0762
-16 8 7 -0.1847 -0.0627
-16 8 8 0.8403 -0.0583
-16 8 9 2.9608 0.0448
-16 9 1 0.1290 0.2625
-16 9 2 -3.0404 0.2141
-16 9 3 -4.7409 -0.0243
-16 9 4 -5.3493 -0.0761
-16 9 5 -5.4547 -0.1343
-16 9 6 -0.3280 -0.0565
-16 9 7 -5.2974 -0.1048
-16 9 8 -0.2010 -0.0081
-16 10 1 -1.8378 1.4276
-16 10 2 -1.3990 0.0810
-16 10 3 -2.3056 -0.2084
-16 10 4 0.7226 -0.1941
-16 10 5 -2.5378 0.0116
-16 10 6 -1.5090 0.0350
-16 10 7 -2.9726 0.2770
-16 10 8 -1.5659 0.4231
-16 11 1 3.1492 -0.5595
-16 11 2 3.0393 -0.0110
-16 11 3 -0.7494 0.0339
-16 11 4 0.0634 -0.2044
-16 11 5 0.1239 0.0662
-16 11 6 0.5738 0.0294
-16 11 7 2.1863 0.1592
-16 12 1 -0.3326 -0.1941
-16 12 2 3.9219 -0.2722
-16 12 3 1.7934 0.1284
-16 12 4 1.0757 0.1459
-16 12 5 2.4076 -0.2571
-16 12 6 -0.1501 -0.6237
-16 13 1 2.5641 -0.5620
-16 13 2 0.7551 0.3851
-16 13 3 -0.5992 0.4119
-16 13 4 -2.0296 -0.1850
-16 14 1 -0.1483 0.5516
-16 14 2 -0.0780 0.1366
-16 14 3 -0.1390 -0.1106
-16 15 1 -0.5237 0.1245
-15 -8 2 -2.8489 0.0256
-15 -8 3 0.5796 0.1500
-15 -8 4 -0.3925 0.0045
-15 -8 5 1.4955 0.2043
-15 -8 6 0.7401 0.2723
-15 -8 7 0.6494 0.2339
-15 -8 8 1.5520 0.0741
-15 -8 9 -1.2376 -0.1241
-15 -8 10 -0.9077 -0.0009
-15 -8 11 -0.0025 -0.1152
-15 -7 1 -0.8547 0.3880
-15 -7 2 0.1109 0.0782
-15 -7 3 -5.6885 0.0433
-15 -7 4 1.3336 0.1059
-15 -7 5 -1.0411 0.2333
-15 -7 6 1.2969 0.1396
-15 -7 7 2.1360 0.0868
-15 -7 8 1.2113 0.0530
-15 -7 9 1.6391 0.1553
-15 -7 10 2.1106 -0.1055
-15 -7 11 1.7487 -0.0166
-15 -7 12 0.8759 0.0953
-15 -6 1 -1.5549 -0.9551
-15 -6 2 -1.3068 -0.2173
-15 -6 3 -2.4056 0.3122
-15 -6 4 -0.3572 0.2893
-15 -6 5 -0.2834 0.0946
-15 -6 6 1.1814 -0.0499
-15 -6 7 -0.1216 0.0083
-15 -6 8 -1.8395 -0.0027
-15 -6 9 -1.2777 0.0126
-15 -6 10 -1.1374 0.1292
-15 -6 11 -1.7439 -0.0385
-15 -6 12 -2.3071 -0.2023
-15 -6 13 0.4871 -0.1086
-15 -5 1 -0.9842 0.0157
-15 -5 2 -2.2846 0.1547
-15 -5 3 0.8582 0.1991
-15 -5 4 -1.8396 0.0983
-15 -5 5 1.7488 0.0120
-15 -5 6 -4.8842 -0.1599
-15 -5 7 0.0333 -0.0432
-15 -5 8 -7.8815 0.0840
-15 -5 9 -4.6943 0.0906
-15 -5 10 -0.5047 -0.0671
-15 -5 11 -1.5359 -0.0950
-15 -5 12 -0.9516 0.0558
-15 -5 13 -1.9269 0.0857
-15 -4 1 2.0851 1.2380
-15 -4 2 -5.9903 0.1688
-15 -4 3 -0.2902 -0.1412
-15 -4 4 0.3162 -0.1728
-15 -4 5 0.3953 -0.0350
-15 -4 6 1.1956 0.0936
-15 -4 7 0.5854 0.1052
-15 -4 8 0.2331 -0.0189
-15 -4 9 0.6569 -0.2489
-15 -4 10 2.6421 -0.1235
-15 -4 11 0.0457 0.0512
-15 -4 12 -0.5993 -0.0381
-15 -4 13 -2.3114 -0.0009
-15 -3 1 -2.1145 -0.3291
-15 -3 2 -1.4310 0.0216
-15 -3 3 3.3590 -0.1185
-15 -3 4 4.8702 -0.2403
-15 -3 5 6.6653 0.0742
-15 -3 6 5.7956 0.1954
-15 -3 7 -0.2293 0.0656
-15 -3 8 -1.4565 -0.0023
-15 -3 9 2.8715 -0.0627
-15 -3 10 1.7913 -0.0551
-15 -3 11 2.5445 -0.0604
-15 -3 12 2.2207 0.1801
-15 -3 13 3.8540 0.1165
-15 -3 14 -0.3367 -0.0107
-15 -2 1 -0.3318 0.0338
-15 -2 2 -4.8251 -0.2732
-15 -2 3 -1.3489 -0.0478
-15 -2 4 2.6059 0.2329
-15 -2 5 -2.7421 -0.0463
-15 -2 6 0.7715 -0.2424
-15 -2 7 -1.4225 -0.2036
-15 -2 8 -5.5891 0.0933
-15 -2 9 3.5521 0.0788
-15 -2 10 3.9133 -0.0147
-15 -2 11 1.0755 0.0085
-15 -2 12 1.1913 0.0460
-15 -2 13 0.6613 0.0051
-15 -2 14 1.3435 -0.0185
-15 -1 1 -5.2480 -0.9064
-15 -1 2 -3.9954 0.2733
-15 -1 3 -2.3072 0.4566
-15 -1 4 4.0277 0.0820
-15 -1 5 -1.2930 -0.0736
-15 -1 6 1.0117 -0.0243
-15 -1 7 -5.5195 -0.0553
-15 -1 8 -5.9472 -0.1257
-15 -1 9 -4.0396 -0.0090
-15 -1 10 -0.9050 0.2167
-15 -1 11 -5.0324 0.1464
-15 -1 12 0.9810 0.0372
-15 -1 13 -0.7552 0.0327
-15 -1 14 -0.5727 -0.0899
-15 0 1 -3.2346 0.4633
-15 0 2 3.9439 -0.2104
-15 0 3 2.6835 -0.3438
-15 0 4 5.2804 0.0538
-15 0 5 2.9284 0.1829
-15 0 6 -3.4395 -0.0388
-15 0 7 -2.0152 -0.0075
-15 0 8 -6.5763 0.0692
-15 0 9 1.5885 0.0686
-15 0 10 -2.4101 -0.0103
-15 0 11 -1.9780 -0.1029
-15 0 12 -0.4246 -0.1230
-15 0 13 -2.2896 -0.1769
-15 0 14 -2.5130 -0.0274
-15 1 1 1.5524 0.4527
-15 1 2 -3.6853 0.1830
-15 1 3 5.1927 -0.0502
-15 1 4 -1.4068 -0.2872
-15 1 5 7.3711 -0.2103
-15 1 6 1.3451 0.2256
-15 1 7 -1.8617 0.2079
-15 1 8 5.0693 0.1061
-15 1 9 3.3721 0.0062
-15 1 10 3.6260 -0.0330
-15 1 11 3.0406 0.0139
-15 1 12 0.9971 -0.0421
-15 1 13 1.2211 0.0206
-15 1 14 2.4579 0.0945
-15 2 1 -3.7589 0.3758
-15 2 2 -8.7101 0.3625
-15 2 3 3.4454 0.1125
-15 2 4 3.2059 -0.0958
-15 2 5 3.1554 -0.0075
-15 2 6 -1.9301 0.0968
-15 2 7 -0.0895 0.0495
-15 2 8 -1.8163 0.0058
-15 2 9 2.2884 -0.1102
-15 2 10 0.9702 -0.0765
-15 2 11 3.7891 0.0352
-15 2 12 4.1684 0.0698
-15 2 13 1.1351 0.0566
-15 3 1 -4.7160 -0.5335
-15 3 2 1.1843 -0.4602
-15 3 3 -1.9126 -0.0345
-15 3 4 8.7359 0.3719
-15 3 5 -6.4506 0.1658
-15 3 6 0.3847 -0.1322
-15 3 7 -5.3216 -0.1142
-15 3 8 2.5124 -0.0620
-15 3 9 -2.1711 0.0462
-15 3 10 0.3167 0.0669
-15 3 11 -1.5897 0.0253
-15 3 12 -1.1852 -0.0676
-15 3 13 -2.7909 -0.1095
-15 4 1 -6.9058 -1.2672
-15 4 2 0.9019 0.0079
-15 4 3 4.8522 0.2951
-15 4 4 1.2985 0.1165
-15 4 5 4.8646 -0.0372
-15 4 6 -8.6388 -0.0852
-15 4 7 0.5986 -0.1406
-15 4 8 -7.7725 -0.0701
-15 4 9 -5.9694 0.0998
-15 4 10 -5.8370 0.1692
-15 4 11 -0.2775 0.0244
-15 4 12 -3.0342 -0.0488
-15 4 13 0.9570 -0.0058
-15 5 1 -5.4249 1.5425
-15 5 2 -5.9935 0.1975
-15 5 3 5.2702 -0.1293
-15 5 4 3.8930 -0.0388
-15 5 5 0.0694 -0.0294
-15 5 6 2.2530 -0.0421
-15 5 7 -0.4837 0.0047
-15 5 8 3.0139 -0.0283
-15 5 9 -2.0746 -0.0869
-15 5 10 3.8707 -0.1529
-15 5 11 1.0420 0.0056
-15 5 12 1.9998 0.1003
-15 6 1 -8.3228 0.1915
-15 6 2 -6.0765 0.1925
-15 6 3 3.5540 -0.0893
-15 6 4 2.4063 -0.2867
-15 6 5 3.1362 -0.0456
-15 6 6 1.7308 0.2817
-15 6 7 8.4236 0.2712
-15 6 8 0.6781 -0.1214
-15 6 9 2.6218 -0.1871
-15 6 10 2.4327 -0.1007
-15 6 11 4.5906 0.0797
-15 7 1 -1.3625 -0.0838
-15 7 2 3.6528 -0.3387
-15 7 3 1.5062 -0.2302
-15 7 4 4.8254 0.0942
-15 7 5 -1.5110 0.1314
-15 7 6 0.2677 -0.1434
-15 7 7 1.9847 -0.0843
-15 7 8 0.0907 0.0944
-15 7 9 -1.4718 0.0789
-15 7 10 1.2881 -0.1658
-15 7 11 1.0665 0.2693
-15 8 1 1.7825 -0.5878
-15 8 2 -2.0388 0.0815
-15 8 3 3.0521 0.4126
-15 8 4 -3.7022 0.2209
-15 8 5 -2.2337 -0.0743
-15 8 6 -3.4749 -0.1510
-15 8 7 -0.6377 -0.0346
-15 8 8 -5.2439 -0.0741
-15 8 9 -3.1283 -0.1420
-15 8 10 0.2783 0.0431
-15 9 1 -1.2876 -0.2600
-15 9 2 -1.2542 0.0700
-15 9 3 2.8363 -0.0352
-15 9 4 2.3284 0.0080
-15 9 5 -1.1530 0.2294
-15 9 6 1.8262 0.1071
-15 9 7 -3.4534 -0.0784
-15 9 8 0.4860 -0.0122
-15 9 9 -3.3091 -0.0476
-15 10 1 -4.0426 0.8166
-15 10 2 0.2725 -0.1918
-15 10 3 1.9180 -0.3672
-15 10 4 3.2987 -0.1783
-15 10 5 -0.5628 -0.0380
-15 10 6 3.4750 0.0084
-15 10 7 1.1850 -0.1036
-15 10 8 0.4763 0.0623
-15 11 1 -0.3602 0.2330
-15 11 2 -0.8004 0.5357
-15 11 3 2.1124 0.0449
-15 11 4 3.3286 -0.3818
-15 11 5 1.4609 -0.2102
-15 11 6 1.3622 -0.0271
-15 11 7 0.2282 0.0563
-15 12 1 -1.8436 0.3845
-15 12 2 0.2307 -0.1634
-15 12 3 -0.2672 0.0053
-15 12 4 -2.1036 0.2755
-15 12 5 0.5686 0.1089
-15 12 6 -2.6296 -0.0214
-15 13 1 -0.4132 -1.3801
-15 13 2 1.5534 -0.2399
-15 13 3 0.0239 0.3669
-15 13 4 1.4408 0.1618
-15 13 5 0.7404 -0.2296
-15 14 1 1.0567 0.4180
-15 14 2 1.8070 0.0523
-15 14 3 -0.3914 0.2290
-15 14 4 -0.1771 -0.0371
-15 15 1 -4.5705 0.8451
-15 15 2 0.2870 0.1751
-14 -9 2 1.3873 0.2545
-14 -9 3 -1.1785 0.0747
-14 -9 4 -2.3898 -0.1685
-14 -9 5 1.0508 -0.1272
-14 -9 6 -0.5191 -0.0655
-14 -9 7 1.0421 0.0393
-14 -9 8 -0.9928 0.2826
-14 -9 9 2.5079 0.1474
-14 -9 10 -1.2137 0.3226
-14 -9 11 0.7021 0.2636
-14 -9 12 -0.1340 0.4367
-14 -8 1 2.1150 0.2397
-14 -8 2 -2.7965 0.0157
-14 -8 3 1.7982 -0.1072
-14 -8 4 -2.2327 -0.3244
-14 -8 5 1.4033 -0.1042
-14 -8 6 2.8973 0.0319
-14 -8 7 0.5852 0.1175
-14 -8 8 5.2530 0.0092
-14 -8 9 1.1985 -0.1468
-14 -8 10 2.1086 -0.0223
-14 -8 11 3.2723 0.0419
-14 -8 12 2.7467 0.0270
-14 -8 13 1.7975 -0.0233
-14 -7 1 -0.4700 0.1295
-14 -7 2 2.5001 -0.2220
-14 -7 3 -2.6298 -0.3057
-14 -7 4 2.0647 -0.0915
-14 -7 5 -1.1680 0.0916
-14 -7 6 -1.5081 0.0633
-14 -7 7 1.4351 -0.0266
-14 -7 8 -0.9277 0.0492
-14 -7 9 0.0608 0.0476
-14 -7 10 -1.5846 0.0202
-14 -7 11 1.1887 -0.0168
-14 -7 12 -1.0069 -0.0314
-14 -7 13 -0.2248 0.0210
-14 -7 14 -1.0818 -0.1092
-14 -6 1 1.4390 -0.4877
-14 -6 2 1.7852 -0.0723
-14 -6 3 -6.2519 0.2671
-14 -6 4 -2.9656 0.1672
-14 -6 5 -3.6491 -0.0647
-14 -6 6 -1.7808 -0.1036
-14 -6 7 -2.4064 -0.0065
-14 -6 8 1.3702 0.0512
-14 -6 9 -4.5133 0.0019
-14 -6 10 -4.1539 0.0908
-14 -6 11 -4.6819 0.0666
-14 -6 12 -4.6499 -0.0665
-14 -6 13 -3.2140 -0.0638
-14 -6 14 -2.0509 -0.1416
-14 -5 1 0.7911 -0.4761
-14 -5 2 3.8521 -0.0322
-14 -5 3 -0.1848 0.1033
-14 -5 4 1.4039 0.0805
-14 -5 5 1.9183 0.0332
-14 -5 6 0.1286 -0.0676
-14 -5 7 6.7113 -0.1792
-14 -5 8 -0.7913 -0.0861
-14 -5 9 -0.1429 0.0192
-14 -5 10 0.0809 0.0351
-14 -5 11 1.3822 -0.0192
-14 -5 12 0.4835 -0.1458
-14 -5 13 0.6278 -0.2887
-14 -5 14 1.0050 -0.0080
-14 -4 1 5.7957 0.5198
-14 -4 2 -0.4488 -0.3488
-14 -4 3 -2.8626 -0.2163
-14 -4 4 0.5432 -0.0014
-14 -4 5 2.1994 0.0103
-14 -4 6 1.2323 0.0450
-14 -4 7 5.7977 0.1424
-14 -4 8 6.6470 0.1942
-14 -4 9 -1.6864 0.0846
-14 -4 10 5.0273 -0.0204
-14 -4 11 4.8656 -0.0087
-14 -4 12 3.1186 -0.0710
-14 -4 13 0.6482 -0.0385
-14 -4 14 3.9556 0.0102
-14 -3 1 0.9734 0.3960
-14 -3 2 -1.4565 0.6113
-14 -3 3 -0.4185 0.0910
-14 -3 4 -7.1212 -0.3275
-14 -3 5 3.7912 -0.1519
-14 -3 6 -1.0893 0.1828
-14 -3 7 1.8566 0.1760
-14 -3 8 -1.6869 0.0106
-14 -3 9 -1.5667 -0.0983
-14 -3 10 -1.8961 -0.1224
-14 -3 11 2.4601 -0.0566
-14 -3 12 -0.6724 0.0573
-14 -3 13 3.1654 0.0997
-14 -3 14 0.9410 0.0479
-14 -3 15 4.5020 -0.0209
-14 -2 1 9.4360 0.5981
-14 -2 2 -1.4764 -0.1473
-14 -2 3 -1.9699 -0.1736
-14 -2 4 -0.0784 0.1594
-14 -2 5 -3.8872 0.1295
-14 -2 6 3.5766 -0.0213
-14 -2 7 0.1432 -0.0555
-14 -2 8 -8.3503 -0.0177
-14 -2 9 -6.0886 -0.0115
-14 -2 10 -2.9015 -0.1118
-14 -2 11 -5.6043 -0.0081
-14 -2 12 -3.8342 0.1033
-14 -2 13 -1.6583 0.0699
-14 -2 14 0.8706 0.0452
-14 -2 15 -1.0973 -0.0081
-14 -1 1 7.9596 -1.7177
-14 -1 2 1.4408 -0.2695
-14 -1 3 -1.6087 0.2933
-14 -1 4 2.7993 0.1127
-14 -1 5 0.3327 -0.0444
-14 -1 6 3.4077 -0.0118
-14 -1 7 5.6079 -0.0851
-14 -1 8 -2.6444 -0.0831
-14 -1 9 -4.2109 -0.0114
-14 -1 10 2.4954 0.1319
-14 -1 11 -3.8155 -0.0269
-14 -1 12 -2.0086 -0.1637
-14 -1 13 -0.2708 -0.0499
-14 -1 14 -1.2252 0.0756
-14 -1 15 -1.6730 0.1092
-14 0 1 -4.8196 0.2259
-14 0 2 -1.5294 0.0945
-14 0 3 -12.5069 0.0310
-14 0 4 -4.2057 0.0820
-14 0 5 -2.1802 0.0123
-14 0 6 -1.2405 -0.2308
-14 0 7 3.4403 -0.1463
-14 0 8 -0.0342 0.0592
-14 0 9 2.3746 0.0915
-14 0 10 5.2468 0.0425
-14 0 11 0.8533 0.0268
-14 0 12 4.5621 0.0655
-14 0 13 2.1841 0.0091
-14 0 14 2.1162 -0.1476
-14 1 1 -1.2978 0.8422
-14 1 2 -6.6285 0.1889
-14 1 3 -0.7902 -0.1285
-14 1 4 -5.5744 -0.1798
-14 1 5 3.6205 -0.0711
-14 1 6 4.7063 0.2124
-14 1 7 -1.4062 0.1737
-14 1 8 2.7766 -0.0230
-14 1 9 1.0969 -0.0219
-14 1 10 3.8185 0.0000
-14 1 11 2.1157 0.0675
-14 1 12 -0.1826 0.0224
-14 1 13 2.8375 -0.0005
-14 1 14 2.4528 0.0169
-14 2 1 11.8062 -0.1648
-14 2 2 1.2747 -0.0365
-14 2 3 8.7651 -0.2498
-14 2 4 0.7147 -0.1977
-14 2 5 6.6722 -0.0142
-14 2 6 0.8612 0.1540
-14 2 7 1.2667 0.1274
-14 2 8 0.0426 0.0647
-14 2 9 3.0041 -0.0320
-14 2 10 -3.3811 -0.0961
-14 2 11 -1.7773 -0.0403
-14 2 12 -1.6468 0.0325
-14 2 13 -2.5828 -0.0732
-14 2 14 -1.4471 0.0017
-14 3 1 5.8454 -0.0195
-14 3 2 -3.9497 -0.2280
-14 3 3 -7.1061 0.0354
-14 3 4 1.0608 0.1969
-14 3 5 -5.3566 -0.0351
-14 3 6 2.0593 -0.2434
-14 3 7 -6.1915 -0.0771
-14 3 8 -0.3985 0.0717
-14 3 9 -4.7202 0.0533
-14 3 10 -3.2209 0.0232
-14 3 11 -4.7385 0.0508
-14 3 12 1.4942 0.0526
-14 3 13 0.2046 0.0751
-14 3 14 0.5990 -0.0767
-14 4 1 -10.0611 -1.1372
-14 4 2 -6.2861 0.2331
-14 4 3 -7.5316 0.4361
-14 4 4 -5.7716 0.1149
-14 4 5 3.8477 0.0023
-14 4 6 -3.3620 -0.0244
-14 4 7 1.3151 -0.1293
-14 4 8 4.1581 -0.1709
-14 4 9 3.5465 -0.0505
-14 4 10 0.1467 0.1273
-14 4 11 0.4549 0.0627
-14 4 12 -0.1294 -0.0481
-14 4 13 1.1265 -0.1050
-14 5 1 0.3826 0.4523
-14 5 2 -1.0129 -0.3991
-14 5 3 -3.9398 -0.3036
-14 5 4 1.5354 0.1449
-14 5 5 2.1579 0.1999
-14 5 6 3.0478 -0.0301
-14 5 7 -0.4908 -0.0786
-14 5 8 7.8764 0.0183
-14 5 9 0.0248 0.0403
-14 5 10 -1.2509 -0.0036
-14 5 11 0.0278 -0.0977
-14 5 12 2.0284 -0.0880
-14 5 13 1.4290 0.0790
-14 6 1 2.9975 0.1171
-14 6 2 -1.4649 0.3154
-14 6 3 0.1277 0.0296
-14 6 4 -0.1120 -0.3109
-14 6 5 2.9578 -0.2268
-14 6 6 -3.8475 0.1272
-14 6 7 0.2277 0.2574
-14 6 8 2.5281 0.0322
-14 6 9 2.3946 -0.0888
-14 6 10 -4.8549 0.0295
-14 6 11 0.2230 -0.0922
-14 6 12 -1.3748 0.0111
-14 7 1 3.3782 0.9486
-14 7 2 -0.3972 0.2958
-14 7 3 -4.9785 -0.1457
-14 7 4 0.8405 -0.0511
-14 7 5 -2.8481 0.1095
-14 7 6 -2.5414 -0.0093
-14 7 7 0.4605 -0.0070
-14 7 8 0.9430 0.0332
-14 7 9 -2.1918 -0.0853
-14 7 10 -4.1117 -0.3531
-14 7 11 -1.7067 -0.1583
-14 8 1 0.7820 -0.8539
-14 8 2 -6.9082 -0.4615
-14 8 3 -3.6402 0.0995
-14 8 4 -1.4536 0.2516
-14 8 5 2.7529 0.0430
-14 8 6 -2.8071 -0.0530
-14 8 7 3.5133 -0.0226
-14 8 8 0.8466 0.0308
-14 8 9 0.0889 -0.0209
-14 8 10 -2.3911 -0.1458
-14 9 1 1.4336 -1.0500
-14 9 2 -5.4238 -0.0550
-14 9 3 -4.9077 0.2283
-14 9 4 -2.6992 0.0351
-14 9 5 -1.5085 0.0335
-14 9 6 -0.3729 -0.0518
-14 9 7 0.8639 -0.0711
-14 9 8 4.2949 0.0615
-14 9 9 -3.2373 0.3806
-14 9 10 0.5243 -0.3513
-14 10 1 -3.4409 1.3321
-14 10 2 -0.5900 0.1967
-14 10 3 -5.6770 -0.0185
-14 10 4 -0.0925 0.0287
-14 10 5 -1.7441 -0.0566
-14 10 6 1.5646 -0.0925
-14 10 7 0.9123 -0.0354
-14 10 8 2.5865 0.4102
-14 10 9 -0.7690 0.0250
-14 11 1 4.6453 -0.0290
-14 11 2 2.7095 0.2457
-14 11 3 2.8312 -0.0740
-14 11 4 1.0850 -0.3846
-14 11 5 -2.6245 -0.0997
-14 11 6 3.9725 0.2712
-14 11 7 1.0704 -0.0067
-14 11 8 0.4422 0.2945
-14 12 1 3.1775 0.3115
-14 12 2 0.7168 -0.2402
-14 12 3 4.0569 -0.2034
-14 12 4 -0.6992 0.2211
-14 12 5 0.5248 0.0518
-14 12 6 -0.5443 -0.4480
-14 12 7 2.5837 -0.0627
-14 13 1 -1.7743 -0.9335
-14 13 2 -1.6025 0.2597
-14 13 3 -2.2799 0.3956
-14 13 4 -4.0857 0.1675
-14 13 5 -1.4161 -0.1677
-14 13 6 0.1976 -0.2256
-14 14 1 -3.8803 -0.1630
-14 14 2 -0.0866 -0.1539
-14 14 3 -1.4307 -0.1022
-14 14 4 -0.3981 0.1501
-14 14 5 -1.1150 -0.0837
-14 15 1 -1.1392 0.3889
-14 15 2 4.2675 -0.0852
-14 15 3 1.2536 -0.2514
-14 16 1 2.1173 0.4167
-14 16 2 -0.9556 0.3580
-13 -10 3 -1.3367 0.0517
-13 -10 4 0.9342 0.2508
-13 -10 5 -3.5319 0.0064
-13 -10 6 -0.5881 -0.1802
-13 -10 7 0.8593 -0.0136
-13 -10 8 -0.5244 -0.0624
-13 -10 9 -1.1146 0.2568
-13 -10 10 -0.0723 -0.1708
-13 -10 11 -0.0329 -0.1738
-13 -10 12 -0.0477 -0.1977
-13 -10 13 0.5235 -0.1527
-13 -9 1 -3.1528 -0.0571
-13 -9 2 0.8495 -0.1423
-13 -9 3 -1.7432 -0.0396
-13 -9 4 -1.2784 0.1631
-13 -9 5 1.3461 0.2305
-13 -9 6 -2.2204 0.0280
-13 -9 7 0.2939 -0.0203
-13 -9 8 -1.0720 0.0034
-13 -9 9 4.5189 -0.0226
-13 -9 10 -0.3426 -0.1415
-13 -9 11 1.7687 -0.3392
-13 -9 12 2.9730 -0.0406
-13 -9 13 2.2824 0.1373
-13 -9 14 2.7301 0.1016
-13 -8 1 1.1570 0.0253
-13 -8 2 -4.2110 0.1507
-13 -8 3 4.7483 0.1584
-13 -8 4 -3.1695 -0.1778
-13 -8 5 -1.5745 -0.1369
-13 -8 6 0.7950 -0.0007
-13 -8 7 -6.3536 0.1366
-13 -8 8 0.8671 -0.0219
-13 -8 9 -0.5965 -0.0336
-13 -8 10 0.7641 -0.0502
-13 -8 11 -0.3732 -0.0407
-13 -8 12 -1.0726 0.0411
-13 -8 13 -1.7731 0.2177
-13 -8 14 -1.4072 0.0283
-13 -8 15 -0.2464 -0.0266
-13 -7 1 2.3807 1.0603
-13 -7 2 0.6691 0.2836
-13 -7 3 0.7193 -0.2457
-13 -7 4 1.0963 -0.1951
-13 -7 5 -0.2670 0.0746
-13 -7 6 -1.8999 0.0330
-13 -7 7 -1.2724 0.0123
-13 -7 8 -4.4128 -0.0313
-13 -7 9 1.4881 -0.1109
-13 -7 10 -5.6869 -0.1125
-13 -7 11 -1.4265 0.0328
-13 -7 12 -4.8663 0.1833
-13 -7 13 -0.8500 0.2123
-13 -7 14 -1.8161 -0.0970
-13 -7 15 0.7490 -0.0233
-13 -6 1 0.6581 -0.5884
-13 -6 2 4.8883 -0.3304
-13 -6 3 3.1349 0.0970
-13 -6 4 3.1654 0.1376
-13 -6 5 4.2193 0.0559
-13 -6 6 1.5981 -0.0013
-13 -6 7 -3.9037 0.0507
-13 -6 8 1.0053 -0.0378
-13 -6 9 0.7344 -0.0572
-13 -6 10 4.0605 0.0861
-13 -6 11 3.8923 0.0910
-13 -6 12 3.9187 -0.1290
-13 -6 13 0.3832 0.0508
-13 -6 14 -0.3806 0.1783
-13 -6 15 -1.2135 -0.0785
-13 -5 1 -7.9313 -0.9726
-13 -5 2 0.3510 -0.0806
-13 -5 3 -3.8205 0.1553
-13 -5 4 -2.2948 0.0772
-13 -5 5 -3.1497 0.0063
-13 -5 6 -2.8116 -0.1522
-13 -5 7 0.7401 -0.2225
-13 -5 8 -0.4796 0.0159
-13 -5 9 6.6177 0.1278
-13 -5 10 0.2730 0.0611
-13 -5 11 2.8055 0.0022
-13 -5 12 2.7342 -0.0187
-13 -5 13 1.4248 -0.0631
-13 -5 14 0.7803 -0.1253
-13 -5 15 1.5540 -0.0805
-13 -4 1 -2.9117 0.7728
-13 -4 2 4.0898 0.0518
-13 -4 3 -1.3351 0.0744
-13 -4 4 3.0824 0.0671
-13 -4 5 -2.2615 -0.0394
-13 -4 6 -1.4138 -0.0787
-13 -4 7 -1.4711 0.0186
-13 -4 8 3.9511 0.0820
-13 -4 9 -7.1264 -0.0097
-13 -4 10 0.4750 0.0276
-13 -4 11 2.1612 0.0984
-13 -4 12 0.4844 0.0340
-13 -4 13 -0.9440 -0.0578
-13 -4 14 2.3806 0.0147
-13 -4 15 -0.5301 0.1062
-13 -3 1 0.7738 0.0599
-13 -3 2 5.2301 0.1807
-13 -3 3 6.1578 -0.1802
-13 -3 4 -3.9924 -0.2891
-13 -3 5 9.6937 0.0056
-13 -3 6 -4.2417 0.2864
-13 -3 7 2.5245 0.1104
-13 -3 8 4.5114 -0.0296
-13 -3 9 -1.9897 -0.0683
-13 -3 10 -9.9621 -0.0768
-13 -3 11 3.4504 -0.0481
-13 -3 12 -5.5047 0.0091
-13 -3 13 -4.0447 0.0814
-13 -3 14 -3.0024 -0.0074
-13 -3 15 2.2859 -0.0397
-13 -2 1 2.8058 0.7221
-13 -2 2 1.0522 -0.2099
-13 -2 3 5.6099 -0.2864
-13 -2 4 0.9600 0.0164
-13 -2 5 -3.5701 0.0186
-13 -2 6 4.1031 -0.0863
-13 -2 7 -2.0599 0.0683
-13 -2 8 -1.3324 0.1235
-13 -2 9 1.0763 0.0539
-13 -2 10 -0.3099 -0.0703
-13 -2 11 0.6249 0.0007
-13 -2 12 -0.8323 0.0650
-13 -2 13 -2.8356 0.0470
-13 -2 14 -0.9589 0.0592
-13 -2 15 -1.2378 0.0262
-13 -1 1 -1.2658 -0.9144
-13 -1 2 -6.5033 0.2282
-13 -1 3 -5.1418 0.4500
-13 -1 4 -3.9856 0.0664
-13 -1 5 -8.6212 -0.1541
-13 -1 6 -6.5793 -0.0252
-13 -1 7 3.9867 -0.0131
-13 -1 8 -1.4907 -0.1010
-13 -1 9 -0.8032 -0.0458
-13 -1 10 1.9259 0.0740
-13 -1 11 3.1684 0.0293
-13 -1 12 0.2045 -0.0760
-13 -1 13 1.1607 -0.1532
-13 -1 14 0.4256 0.0041
-13 -1 15 1.0668 0.0891
-13 0 1 1.1237 -0.3847
-13 0 2 10.1082 -0.2487
-13 0 3 -3.2483 -0.0037
-13 0 4 6.5830 0.2169
-13 0 5 5.3327 0.1894
-13 0 6 -0.6663 -0.0486
-13 0 7 2.9870 -0.1818
-13 0 8 -0.9068 0.0031
-13 0 9 -2.8513 0.0569
-13 0 10 3.8141 0.0240
-13 0 11 0.7113 0.0213
-13 0 12 3.8086 -0.0127
-13 0 13 0.2088 0.0035
-13 0 14 2.5157 0.0520
-13 0 15 0.3798 0.0580
-13 1 1 6.4078 0.1418
-13 1 2 10.6730 -0.2061
-13 1 3 8.7930 -0.0677
-13 1 4 3.9283 -0.0646
-13 1 5 1.3416 -0.0976
-13 1 6 2.2468 0.0126
-13 1 7 -5.0265 0.0658
-13 1 8 -1.2466 -0.0106
-13 1 9 -4.4887 0.0356
-13 1 10 0.5908 0.0634
-13 1 11 0.9692 0.0124
-13 1 12 -3.4483 -0.0499
-13 1 13 -1.3537 -0.0121
-13 1 14 -0.5619 0.0466
-13 1 15 -0.7931 -0.0417
-13 2 1 -2.7451 0.7992
-13 2 2 -4.0309 0.6003
-13 2 3 3.2124 -0.1585
-13 2 4 -5.8242 -0.2856
-13 2 5 0.7311 -0.1273
-13 2 6 -1.0670 0.0621
-13 2 7 -1.5297 0.0853
-13 2 8 -5.2382 0.0183
-13 2 9 0.7269 -0.0495
-13 2 10 -3.6101 -0.1156
-13 2 11 -0.0556 -0.0233
-13 2 12 -3.8200 0.1573
-13 2 13 -2.7089 0.0552
-13 2 14 -1.2582 -0.0204
-13 2 15 0.0983 -0.0706
-13 3 1 1.8857 0.6031
-13 3 2 -7.3415 -0.2354
-13 3 3 1.9325 -0.1611
-13 3 4 2.4676 0.1200
-13 3 5 -4.2163 0.1121
-13 3 6 0.7229 -0.0040
-13 3 7 -1.8916 0.0136
-13 3 8 -1.5764 0.0056
-13 3 9 3.2811 -0.0998
-13 3 10 3.3514 -0.0264
-13 3 11 -1.3889 0.0191
-13 3 12 -1.0389 0.0157
-13 3 13 -1.4197 0.0729
-13 3 14 -0.0341 0.1058
-13 4 1 1.6673 -1.9797
-13 4 2 0.3270 -0.2556
-13 4 3 4.2496 0.2882
-13 4 4 -5.7938 0.0878
-13 4 5 1.3867 0.0068
-13 4 6 -0.8381 0.0033
-13 4 7 -2.6642 -0.0866
-13 4 8 -2.2150 -0.0899
-13 4 9 0.8045 0.0583
-13 4 10 6.1538 0.0977
-13 4 11 -1.8210 0.0430
-13 4 12 1.5084 -0.0402
-13 4 13 -1.4011 -0.1026
-13 4 14 1.6504 -0.1678
-13 5 1 -0.6455 0.5717
-13 5 2 4.1270 -0.0157
-13 5 3 -1.3696 0.0129
-13 5 4 1.0554 0.2283
-13 5 5 -1.0753 0.0578
-13 5 6 1.1715 -0.1925
-13 5 7 -7.4171 -0.1360
-13 5 8 1.0753 0.0365
-13 5 9 4.9461 0.0569
-13 5 10 4.5217 0.0337
-13 5 11 2.3274 0.1219
-13 5 12 -1.4775 0.0117
-13 5 13 -1.2760 -0.1716
-13 6 1 2.9579 0.3303
-13 6 2 7.8834 0.3212
-13 6 3 6.3075 0.0415
-13 6 4 1.6242 -0.2194
-13 6 5 5.1574 -0.0721
-13 6 6 3.1796 0.2194
-13 6 7 -4.2703 0.1707
-13 6 8 0.7736 -0.0773
-13 6 9 4.7201 -0.1059
-13 6 10 -1.8400 0.0076
-13 6 11 1.0882 0.0096
-13 6 12 -2.2754 0.0710
-13 6 13 0.1363 -0.1004
-13 7 1 -0.8489 0.5072
-13 7 2 4.5434 -0.0798
-13 7 3 0.5874 -0.3745
-13 7 4 0.8758 -0.1049
-13 7 5 -3.0564 0.1089
-13 7 6 -0.8122 0.0892
-13 7 7 -5.7604 0.0991
-13 7 8 -2.6366 0.1452
-13 7 9 4.7778 -0.0391
-13 7 10 0.7859 -0.1077
-13 7 11 -1.4535 0.0240
-13 7 12 1.2780 0.0693
-13 8 1 -0.7394 -0.1348
-13 8 2 -1.3782 -0.0404
-13 8 3 -0.2671 0.0697
-13 8 4 -6.3322 0.0556
-13 8 5 -4.6946 -0.0792
-13 8 6 -5.6660 -0.0448
-13 8 7 -3.3767 -0.0288
-13 8 8 -3.9095 0.0548
-13 8 9 4.1386 0.0797
-13 8 10 -1.4893 0.1042
-13 8 11 -0.1732 -0.0636
-13 9 1 6.3411 -0.9803
-13 9 2 -1.2315 0.1667
-13 9 3 3.1103 0.2818
-13 9 4 0.3520 0.1248
-13 9 5 2.3325 0.0426
-13 9 6 -3.0175 -0.0256
-13 9 7 0.6585 -0.1120
-13 9 8 3.7934 -0.1103
-13 9 9 1.8390 0.3428
-13 9 10 2.9107 0.1395
-13 10 1 2.6418 0.3299
-13 10 2 10.9122 -0.3571
-13 10 3 4.0057 -0.2331
-13 10 4 6.2625 0.1773
-13 10 5 4.9511 0.1815
-13 10 6 -1.9158 -0.0596
-13 10 7 -0.6978 -0.0756
-13 10 8 5.0001 0.0529
-13 10 9 2.8463 0.3496
-13 11 1 -2.7264 0.0525
-13 11 2 0.6061 0.4254
-13 11 3 0.9612 0.1465
-13 11 4 1.5853 -0.2923
-13 11 5 -4.0369 -0.2475
-13 11 6 -0.7017 0.1965
-13 11 7 -3.9231 0.0272
-13 11 8 2.7391 -0.1228
-13 12 1 -4.4090 1.2537
-13 12 2 -7.6379 0.1147
-13 12 3 0.4472 -0.2189
-13 12 4 -1.6167 -0.0009
-13 12 5 -5.8967 0.1479
-13 12 6 -5.3374 -0.1120
-13 12 7 -1.1580 -0.2116
-13 13 1 4.1605 -1.0659
-13 13 2 -2.2461 -0.2010
-13 13 3 2.0093 0.1891
-13 13 4 1.2375 0.0005
-13 13 5 -0.7613 0.0189
-13 13 6 -1.5999 0.0447
-13 14 1 1.2001 -0.7212
-13 14 2 4.2027 -0.0476
-13 14 3 3.1797 0.1565
-13 14 4 3.5635 0.1394
-13 14 5 -0.4448 0.0291
-13 15 1 -2.6644 0.6474
-13 15 2 3.8292 0.2919
-13 15 3 0.9288 0.0622
-13 15 4 0.1928 -0.4426
-13 16 1 -2.2847 0.1253
-13 16 2 -2.2112 0.3098
-13 17 1 1.3638 0.3599
-12 -12 7 0.3042 0.1779
-12 -11 4 -1.6198 -0.0532
-12 -11 5 -2.8351 0.0548
-12 -11 6 1.4533 0.1202
-12 -11 7 -2.2004 0.1540
-12 -11 8 -2.1391 -0.0496
-12 -11 9 -0.7861 -0.1913
-12 -11 10 -0.6683 -0.0247
-12 -11 11 -0.9018 0.0160
-12 -11 12 0.4113 -0.0204
-12 -11 13 -1.1678 -0.0503
-12 -10 1 1.2805 -0.9501
-12 -10 2 -1.5409 -0.2489
-12 -10 3 -2.0689 0.0136
-12 -10 4 2.9743 0.1050
-12 -10 5 -3.2733 0.0739
-12 -10 6 -0.9988 -0.0495
-12 -10 7 1.4543 -0.0773
-12 -10 8 -1.6647 0.0433
-12 -10 9 -1.1662 0.1623
-12 -10 10 2.3992 0.2220
-12 -10 11 1.4567 0.2476
-12 -10 12 1.8279 0.0689
-12 -10 13 0.8042 -0.1787
-12 -10 14 1.5846 -0.1769
-12 -10 15 2.6776 0.0175
-12 -9 1 0.7931 0.3106
-12 -9 2 4.7119 0.0476
-12 -9 3 -3.0288 0.0427
-12 -9 4 1.3368 0.1141
-12 -9 5 3.7233 0.0143
-12 -9 6 -0.9809 -0.1975
-12 -9 7 3.5543 -0.1483
-12 -9 8 -1.1429 0.0490
-12 -9 9 1.0124 0.0689
-12 -9 10 -0.1213 0.1064
-12 -9 11 -0.4249 -0.0524
-12 -9 12 2.0841 -0.1435
-12 -9 13 -1.4536 -0.1651
-12 -9 14 1.9795 -0.1469
-12 -9 15 -1.3499 0.0963
-12 -8 1 5.1834 -0.1195
-12 -8 2 -1.1128 0.2529
-12 -8 3 3.1208 0.1603
-12 -8 4 -0.6101 -0.1200
-12 -8 5 1.2104 -0.0684
-12 -8 6 6.7447 0.1378
-12 -8 7 -0.8654 0.0846
-12 -8 8 2.6894 0.0013
-12 -8 9 -4.4503 -0.0582
-12 -8 10 -0.9511 -0.0627
-12 -8 11 -3.7610 -0.0355
-12 -8 12 1.0440 -0.0159
-12 -8 13 -0.8421 0.0567
-12 -8 14 0.3671 0.0312
-12 -8 15 -0.6306 0.1608
-12 -8 16 0.4086 0.2182
-12 -7 1 0.1560 0.6259
-12 -7 2 -5.1798 -0.1217
-12 -7 3 -0.3010 -0.3859
-12 -7 4 1.4058 -0.1273
-12 -7 5 -0.6763 0.0901
-12 -7 6 3.5758 0.0904
-12 -7 7 2.9440 0.1035
-12 -7 8 -5.0207 0.1272
-12 -7 9 0.8280 0.0240
-12 -7 10 -1.5367 -0.1329
-12 -7 11 4.8281 -0.1120
-12 -7 12 -0.8270 0.0225
-12 -7 13 2.4177 0.1425
-12 -7 14 -1.8471 -0.0028
-12 -7 15 -1.1849 -0.0016
-12 -7 16 -3.6855 0.0064
-12 -6 1 -0.3574 0.2327
-12 -6 2 -5.9444 0.0932
-12 -6 3 -5.4750 0.1011
-12 -6 4 -4.4096 -0.0093
-12 -6 5 -3.2219 -0.1263
-12 -6 6 -1.4928 -0.0750
-12 -6 7 -1.8084 0.0357
-12 -6 8 0.2585 -0.0258
-12 -6 9 -1.0739 -0.0746
-12 -6 10 -0.2028 -0.0501
-12 -6 11 -1.4989 0.0752
-12 -6 12 4.5271 -0.0140
-12 -6 13 2.2947 -0.0241
-12 -6 14 2.8071 0.1119
-12 -6 15 0.1527 0.0117
-12 -6 16 1.5285 -0.1292
-12 -5 1 -2.7514 -0.8062
-12 -5 2 0.2945 0.0346
-12 -5 3 1.2492 0.2494
-12 -5 4 1.2889 0.1408
-12 -5 5 2.8010 0.0979
-12 -5 6 3.1271 0.0466
-12 -5 7 3.8005 -0.0778
-12 -5 8 -6.0906 -0.1077
-12 -5 9 6.5637 0.0965
-12 -5 10 -3.5378 0.1270
-12 -5 11 -4.1599 0.0535
-12 -5 12 4.1783 -0.0646
-12 -5 13 2.2390 0.0159
-12 -5 14 -0.1391 0.0496
-12 -5 15 1.0211 -0.0115
-12 -5 16 2.0645 -0.0340
-12 -4 1 0.5725 -0.2229
-12 -4 2 4.1629 -0.4392
-12 -4 3 -1.2739 -0.0630
-12 -4 4 9.3884 0.1788
-12 -4 5 -0.5191 0.0999
-12 -4 6 7.0445 -0.1325
-12 -4 7 1.3391 -0.0735
-12 -4 8 4.4594 0.0442
-12 -4 9 -6.4574 0.0464
-12 -4 10 -0.5215 0.0041
-12 -4 11 -8.5366 0.0300
-12 -4 12 -0.3294 0.0189
-12 -4 13 -1.1225 -0.1577
-12 -4 14 -0.3310 -0.1210
-12 -4 15 -4.9722 0.0972
-12 -4 16 -0.0829 0.1430
-12 -3 1 -6.6085 -0.0547
-12 -3 2 0.5102 0.3974
-12 -3 3 -0.2322 0.1149
-12 -3 4 -6.8596 -0.3259
-12 -3 5 7.3689 -0.2710
-12 -3 6 -7.9774 0.0864
-12 -3 7 -3.4130 0.0984
-12 -3 8 2.2143 -0.0165
-12 -3 9 -0.4718 -0.0003
-12 -3 10 -8.2713 0.0074
-12 -3 11 5.8393 -0.0375
-12 -3 12 -2.2714 -0.0153
-12 -3 13 -3.1092 0.1132
-12 -3 14 -2.2710 0.0699
-12 -3 15 0.1325 -0.1314
-12 -3 16 -2.5880 -0.0476
-12 -2 1 -6.0079 1.7276
-12 -2 2 -7.3368 0.0988
-12 -2 3 -1.3872 -0.3587
-12 -2 4 -8.6020 -0.0941
-12 -2 5 -5.2946 0.1182
-12 -2 6 5.8316 -0.0002
-12 -2 7 -2.8244 0.0604
-12 -2 8 1.8566 0.0961
-12 -2 9 3.3910 -0.1091
-12 -2 10 -6.0588 -0.2022
-12 -2 11 -1.4060 -0.0924
-12 -2 12 5.0145 0.1019
-12 -2 13 1.1580 0.1269
-12 -2 14 2.2601 -0.0046
-12 -2 15 3.1847 0.0193
-12 -2 16 -1.5400 -0.0133
-12 -1 1 3.3912 -1.1448
-12 -1 2 -5.0215 -0.2203
-12 -1 3 5.6298 0.1617
-12 -1 4 1.8185 0.0187
-12 -1 5 -2.0319 -0.0314
-12 -1 6 1.5403 0.0564
-12 -1 7 4.0130 0.0813
-12 -1 8 -6.7397 -0.0833
-12 -1 9 1.6142 -0.0423
-12 -1 10 -4.1428 0.1005
-12 -1 11 1.0764 0.0067
-12 -1 12 2.6083 -0.0657
-12 -1 13 3.7542 -0.0980
-12 -1 14 -1.4891 -0.0022
-12 -1 15 2.3991 -0.0060
-12 -1 16 0.3965 -0.1216
-12 0 1 5.0268 -0.6755
-12 0 2 5.1568 -0.1540
-12 0 3 -2.8866 0.1120
-12 0 4 7.2095 0.2384
-12 0 5 4.5840 0.0701
-12 0 6 -2.6719 -0.1819
-12 0 7 6.5222 -0.2384
-12 0 8 3.8325 0.0765
-12 0 9 -2.6105 0.1515
-12 0 10 0.4640 0.0978
-12 0 11 -2.7596 0.0621
-12 0 12 3.8872 -0.0263
-12 0 13 -0.7721 -0.1234
-12 0 14 1.5730 -0.1089
-12 0 15 -0.1489 0.0182
-12 1 1 -2.4420 0.4227
-12 1 2 5.0976 0.1570
-12 1 3 -3.1109 0.1872
-12 1 4 4.4232 -0.0028
-12 1 5 4.2206 -0.0946
-12 1 6 11.2543 -0.0300
-12 1 7 3.3133 -0.0231
-12 1 8 6.6869 -0.0692
-12 1 9 0.1923 -0.0371
-12 1 10 2.3586 0.0543
-12 1 11 3.3682 0.0518
-12 1 12 0.0467 -0.0025
-12 1 13 -1.0018 -0.0635
-12 1 14 -2.0833 -0.0474
-12 1 15 -1.2289 0.0143
-12 2 1 -6.6251 0.2649
-12 2 2 -3.1363 0.1226
-12 2 3 -3.0422 -0.2985
-12 2 4 -2.9344 -0.2343
-12 2 5 -2.3004 0.0042
-12 2 6 -4.0450 0.1396
-12 2 7 -5.1501 0.1063
-12 2 8 -5.9120 0.0196
-12 2 9 -4.1381 -0.0820
-12 2 10 -4.2144 -0.1221
-12 2 11 5.6701 -0.0295
-12 2 12 3.0986 0.0680
-12 2 13 0.7790 0.0616
-12 2 14 0.3384 0.0545
-12 2 15 0.0992 0.0399
-12 3 1 -0.3621 0.9001
-12 3 2 -12.8204 -0.2052
-12 3 3 -8.2512 -0.2639
-12 3 4 -3.0589 -0.0272
-12 3 5 -6.8756 0.0109
-12 3 6 -1.3518 -0.0463
-12 3 7 1.6971 -0.0013
-12 3 8 -7.4819 0.1314
-12 3 9 -0.2500 -0.0174
-12 3 10 -1.9555 -0.0861
-12 3 11 5.2329 -0.1008
-12 3 12 2.2811 0.0418
-12 3 13 2.6150 0.0981
-12 3 14 -1.7104 -0.0607
-12 3 15 -0.8940 -0.1631
-12 4 1 6.9276 -1.1107
-12 4 2 -4.6370 0.3019
-12 4 3 8.3508 0.5172
-12 4 4 1.7563 0.0335
-12 4 5 8.5273 -0.1340
-12 4 6 5.3899 0.0422
-12 4 7 8.9470 -0.0165
-12 4 8 -1.2994 -0.1377
-12 4 9 -6.3358 -0.0581
-12 4 10 6.9270 0.1175
-12 4 11 -3.6311 0.0634
-12 4 12 6.3566 -0.1025
-12 4 13 -3.0320 0.0159
-12 4 14 0.8914 0.0993
-12 5 1 8.7084 -0.1037
-12 5 2 8.3400 -0.4200
-12 5 3 5.4368 -0.1700
-12 5 4 7.7505 0.3645
-12 5 5 6.1505 0.2997
-12 5 6 7.4334 -0.1195
-12 5 7 5.3898 -0.2236
-12 5 8 -3.5067 0.0448
-12 5 9 -2.5710 0.1217
-12 5 10 0.7373 -0.0378
-12 5 11 1.5658 -0.0411
-12 5 12 1.1322 0.1053
-12 5 13 -0.2620 0.1097
-12 5 14 -1.5195 -0.2989
-12 6 1 -5.6452 -0.4571
-12 6 2 -8.6043 0.0055
-12 6 3 -6.4201 0.0842
-12 6 4 -5.2836 -0.1481
-12 6 5 -3.9359 -0.1716
-12 6 6 -1.9631 0.0828
-12 6 7 -3.3087 0.1306
-12 6 8 -2.3508 -0.1078
-12 6 9 -4.6955 -0.0411
-12 6 10 -0.6557 0.0113
-12 6 11 3.7709 0.0147
-12 6 12 -1.5188 -0.0400
-12 6 13 2.4494 0.0302
-12 7 1 -11.0759 1.2147
-12 7 2 -5.6875 0.4164
-12 7 3 -7.8533 -0.2151
-12 7 4 0.2838 -0.1899
-12 7 5 -3.7972 -0.0374
-12 7 6 0.8359 -0.0143
-12 7 7 -3.8798 0.0609
-12 7 8 -6.2268 0.1891
-12 7 9 -2.5854 0.0304
-12 7 10 -1.0960 -0.2561
-12 7 11 -0.3461 -0.1248
-12 7 12 4.7423 0.2493
-12 8 1 -1.4102 0.2989
-12 8 2 -0.2006 -0.1650
-12 8 3 5.0368 -0.0387
-12 8 4 3.9131 -0.0215
-12 8 5 -0.1407 -0.0499
-12 8 6 6.7868 0.1116
-12 8 7 2.8896 0.1431
-12 8 8 -4.0199 -0.0463
-12 8 9 3.8460 -0.0234
-12 8 10 1.6015 0.0697
-12 8 11 4.0339 -0.1128
-12 9 1 12.8962 -1.7222
-12 9 2 -3.2951 -0.1926
-12 9 3 5.7514 0.1931
-12 9 4 5.6892 0.1211
-12 9 5 4.5786 -0.0123
-12 9 6 2.3190 -0.1129
-12 9 7 2.4025 -0.1792
-12 9 8 -4.9142 0.0319
-12 9 9 -1.5268 0.0702
-12 9 10 1.6256 -0.0576
-12 10 1 -0.6570 0.3632
-12 10 2 0.0748 -0.1231
-12 10 3 -5.3653 -0.0134
-12 10 4 -0.7128 0.1899
-12 10 5 4.9750 0.0317
-12 10 6 -4.4980 -0.2525
-12 10 7 -3.0002 -0.1390
-12 10 8 -3.6644 -0.0443
-12 10 9 -2.5984 0.0773
-12 11 1 -7.6810 -0.0435
-12 11 2 -0.8470 0.3726
-12 11 3 -3.5428 0.0529
-12 11 4 -2.8096 -0.1617
-12 11 5 1.2091 -0.1031
-12 11 6 0.4823 0.0948
-12 11 7 -9.1106 0.1207
-12 11 8 0.5194 -0.1771
-12 11 9 -4.3735 -0.1920
-12 12 1 -2.3081 0.8432
-12 12 2 -5.0802 -0.1885
-12 12 3 2.6821 -0.4426
-12 12 4 1.8514 -0.1055
-12 12 5 1.0263 0.0535
-12 12 6 2.2753 -0.0096
-12 12 7 0.1185 0.0040
-12 12 8 -0.4456 0.0374
-12 13 1 7.1337 -0.3124
-12 13 2 -3.3312 0.1488
-12 13 3 2.6446 0.2262
-12 13 4 4.9202 -0.0859
-12 13 5 2.5238 -0.1770
-12 13 6 0.9753 -0.1611
-12 13 7 -0.7527 0.3791
-12 14 1 2.1838 -0.6487
-12 14 2 -0.6149 0.0035
-12 14 3 -1.5699 0.2695
-12 14 4 2.2533 0.1138
-12 14 5 -0.4700 -0.1896
-12 14 6 0.3455 -0.2899
-12 15 1 -4.2404 -0.1591
-12 15 2 -0.4126 -0.2618
-12 15 3 -2.8674 0.0843
-12 15 4 0.2968 -0.1051
-12 16 1 -1.3903 0.0836
-12 16 2 -0.5185 0.3386
-12 16 3 -0.4959 0.3520
-12 17 1 1.4939 1.1700
-11 -13 6 -0.8417 0.2055
-11 -13 8 2.2325 0.1924
-11 -13 9 0.0203 0.1463
-11 -12 4 -3.2306 -0.0616
-11 -12 5 1.5209 0.0162
-11 -12 6 -3.3084 -0.0365
-11 -12 7 -1.9619 -0.0526
-11 -12 8 1.4315 0.1042
-11 -12 9 -0.1147 -0.0278
-11 -12 10 -2.4982 -0.0122
-11 -12 11 0.6990 0.1663
-11 -12 12 -0.2481 0.1453
-11 -12 13 0.9576 0.3599
-11 -11 1 -2.1666 0.5018
-11 -11 2 0.3160 -0.0301
-11 -11 3 1.9318 -0.2257
-11 -11 4 -2.5807 -0.1385
-11 -11 5 -0.9402 -0.0881
-11 -11 6 0.6705 0.0746
-11 -11 7 -2.4267 0.1311
-11 -11 8 -1.2493 0.0838
-11 -11 9 2.7627 0.1052
-11 -11 10 0.4856 -0.0861
-11 -11 11 -0.0570 -0.0125
-11 -11 12 2.0436 -0.0587
-11 -11 13 1.1698 -0.0315
-11 -11 14 0.4835 -0.0222
-11 -11 15 0.8990 -0.4600
-11 -10 1 2.3548 -0.4389
-11 -10 2 1.9088 0.1478
-11 -10 3 1.5598 0.2114
-11 -10 4 2.9751 0.0716
-11 -10 5 -1.9826 -0.0368
-11 -10 6 1.5226 0.0349
-11 -10 7 5.5906 0.0499
-11 -10 8 1.2768 0.0666
-11 -10 9 3.7480 -0.0135
-11 -10 10 2.9675 -0.0726
-11 -10 11 1.1455 0.0308
-11 -10 12 0.5632 0.1110
-11 -10 13 0.9151 0.0265
-11 -10 14 -0.1483 0.0256
-11 -10 15 1.7680 -0.1245
-11 -10 16 -0.4899 -0.0380
-11 -9 1 -1.2566 -0.1886
-11 -9 2 6.4604 -0.3747
-11 -9 3 -1.8174 -0.0722
-11 -9 4 0.8839 0.2505
-11 -9 5 4.0540 0.2472
-11 -9 6 -3.8129 -0.0257
-11 -9 7 4.4598 -0.1443
-11 -9 8 1.4067 -0.0483
-11 -9 9 -0.1806 0.1175
-11 -9 10 -1.6138 0.0703
-11 -9 11 -4.5700 0.0326
-11 -9 12 -0.4806 -0.0265
-11 -9 13 -3.3946 -0.0665
-11 -9 14 0.3922 -0.0822
-11 -9 15 -0.4913 -0.1139
-11 -9 16 1.0267 -0.0270
-11 -8 1 -1.8278 -0.7797
-11 -8 2 1.8501 -0.0100
-11 -8 3 -0.1985 0.1297
-11 -8 4 -3.1758 -0.0553
-11 -8 5 -1.8538 -0.1292
-11 -8 6 -3.6560 0.0279
-11 -8 7 -7.1657 0.0505
-11 -8 8 0.2531 -0.0177
-11 -8 9 -5.8966 0.0202
-11 -8 10 2.1942 0.0494
-11 -8 11 -4.4745 0.0283
-11 -8 12 0.6589 -0.0794
-11 -8 13 -2.5599 -0.0869
-11 -8 14 0.4074 0.0046
-11 -8 15 -3.3680 0.0171
-11 -8 16 -3.2119 0.1468
-11 -8 17 -2.9617 0.2450
-11 -7 1 -0.1333 1.0539
-11 -7 2 -2.2330 0.4302
-11 -7 3 -2.3730 -0.1423
-11 -7 4 -4.5979 -0.1495
-11 -7 5 -6.9960 0.0347
-11 -7 6 -4.8569 0.0298
-11 -7 7 -0.8312 0.0175
-11 -7 8 -1.6509 0.0569
-11 -7 9 -2.2508 0.0187
-11 -7 10 -1.0804 -0.1485
-11 -7 11 2.8290 -0.1026
-11 -7 12 -5.0123 0.0867
-11 -7 13 2.7396 0.1306
-11 -7 14 2.6106 -0.0015
-11 -7 15 4.7446 -0.1142
-11 -7 16 -0.5346 0.0696
-11 -7 17 4.7848 0.0827
-11 -6 1 6.0339 0.4327
-11 -6 2 1.6275 -0.1756
-11 -6 3 -0.8138 -0.1745
-11 -6 4 4.3782 -0.0557
-11 -6 5 2.2344 -0.0309
-11 -6 6 3.9298 0.0823
-11 -6 7 0.9808 0.1188
-11 -6 8 4.4544 -0.0484
-11 -6 9 -0.8600 -0.1800
-11 -6 10 2.4998 -0.1229
-11 -6 11 0.5770 -0.0186
-11 -6 12 -1.5190 0.0351
-11 -6 13 -0.6699 -0.0018
-11 -6 14 5.2619 0.1404
-11 -6 15 4.7618 0.0692
-11 -6 16 -0.0039 0.0394
-11 -6 17 0.0759 -0.0222
-11 -5 1 5.5855 -1.1551
-11 -5 2 4.5818 -0.1753
-11 -5 3 5.1763 0.1042
-11 -5 4 0.3784 0.0405
-11 -5 5 5.4987 0.0254
-11 -5 6 1.7691 -0.0032
-11 -5 7 10.4836 -0.0395
-11 -5 8 -2.5177 -0.0178
-11 -5 9 11.9593 0.1333
-11 -5 10 -0.5493 0.1471
-11 -5 11 -4.2153 0.0318
-11 -5 12 0.9099 -0.0533
-11 -5 13 0.1112 -0.0518
-11 -5 14 -4.4594 0.0364
-11 -5 15 -1.1392 0.0969
-11 -5 16 -2.7418 0.1223
-11 -4 1 -2.3672 0.0809
-11 -4 2 -0.8127 -0.0727
-11 -4 3 -4.0763 0.1682
-11 -4 4 5.6867 0.2850
-11 -4 5 -10.9795 0.0306
-11 -4 6 0.2580 -0.2293
-11 -4 7 -2.3006 -0.1150
-11 -4 8 0.3277 0.0147
-11 -4 9 -1.5736 0.0427
-11 -4 10 13.4527 0.0465
-11 -4 11 -10.1455 0.0308
-11 -4 12 -1.2508 0.0688
-11 -4 13 -0.7482 -0.0237
-11 -4 14 -2.1950 -0.0883
-11 -4 15 -2.9509 -0.0597
-11 -4 16 3.8837 -0.0696
-11 -3 1 -3.6751 -0.3639
-11 -3 2 1.2519 0.2785
-11 -3 3 -7.2304 0.1090
-11 -3 4 -5.5395 -0.1614
-11 -3 5 -1.2291 -0.0750
-11 -3 6 -11.2730 0.1096
-11 -3 7 -1.8042 0.0968
-11 -3 8 5.1887 -0.0748
-11 -3 9 -1.7999 -0.0635
-11 -3 10 -0.7640 0.0238
-11 -3 11 2.0403 0.0572
-11 -3 12 -5.4866 -0.0168
-11 -3 13 1.4411 -0.0666
-11 -3 14 2.6293 0.0528
-11 -3 15 -0.4080 0.0175
-11 -3 16 -0.8925 -0.0335
-11 -2 1 -4.7499 1.1758
-11 -2 2 2.0634 -0.2650
-11 -2 3 1.0976 -0.4586
-11 -2 4 -4.2931 -0.1295
-11 -2 5 -2.4582 0.0972
-11 -2 6 0.1662 0.0283
-11 -2 7 -8.8662 0.0342
-11 -2 8 -2.3618 0.1243
-11 -2 9 3.6086 0.0044
-11 -2 10 0.1224 -0.1445
-11 -2 11 -2.1769 -0.1750
-11 -2 12 0.8016 -0.0119
-11 -2 13 -3.8953 0.0697
-11 -2 14 0.2663 -0.0192
-11 -2 15 3.3092 -0.0722
-11 -2 16 2.5783 -0.0709
-11 -1 1 3.8972 -0.1228
-11 -1 2 -1.1546 0.2478
-11 -1 3 14.4896 0.2418
-11 -1 4 5.6701 -0.1455
-11 -1 5 2.2932 -0.1725
-11 -1 6 6.4185 0.0138
-11 -1 7 10.5413 0.1269
-11 -1 8 -1.6384 -0.0264
-11 -1 9 14.1830 -0.1099
-11 -1 10 2.1873 0.0187
-11 -1 11 1.6403 0.0524
-11 -1 12 1.6267 -0.0127
-11 -1 13 7.2648 0.0292
-11 -1 14 1.1640 0.1453
-11 -1 15 6.1376 0.0840
-11 -1 16 1.2525 -0.1808
-11 0 1 8.5195 -0.3972
-11 0 2 2.5407 -0.0615
-11 0 3 3.3043 0.1230
-11 0 4 8.0925 0.2261
-11 0 5 7.7842 0.1654
-11 0 6 -2.3387 -0.0314
-11 0 7 8.7343 -0.1862
-11 0 8 4.5689 -0.0448
-11 0 9 0.4553 0.0733
-11 0 10 3.9372 0.0575
-11 0 11 -6.7740 0.0288
-11 0 12 1.8500 0.0278
-11 0 13 -1.9743 -0.0314
-11 0 14 -3.2124 -0.0901
-11 0 15 -2.0675 0.0657
-11 0 16 -1.5027 0.1274
-11 1 1 -3.5563 -0.6615
-11 1 2 4.9474 -0.4046
-11 1 3 -9.5462 0.0712
-11 1 4 -4.6377 0.2094
-11 1 5 -11.6393 0.0304
-11 1 6 -9.8866 -0.0571
-11 1 7 -14.3197 -0.0562
-11 1 8 -8.2549 -0.0498
-11 1 9 -11.6129 -0.0051
-11 1 10 -9.6559 0.1177
-11 1 11 -5.8969 0.1056
-11 1 12 -5.1803 -0.0570
-11 1 13 2.0769 -0.1271
-11 1 14 0.4310 -0.0120
-11 1 15 3.3612 -0.0058
-11 1 16 -2.3240 -0.0420
-11 2 1 -17.1372 0.2930
-11 2 2 -0.1082 0.4081
-11 2 3 -8.5814 0.0083
-11 2 4 -8.6509 -0.2303
-11 2 5 -4.0744 -0.1176
-11 2 6 -2.3188 -0.0109
-11 2 7 -2.7912 0.0288
-11 2 8 7.4146 0.0750
-11 2 9 0.3704 0.0201
-11 2 10 -4.9012 -0.0923
-11 2 11 -4.0669 0.0171
-11 2 12 -1.5382 0.1381
-11 2 13 -0.8175 0.0428
-11 2 14 0.1858 -0.1453
-11 2 15 0.2341 -0.0025
-11 3 1 1.3114 1.8728
-11 3 2 8.4140 0.0423
-11 3 3 8.7343 -0.3354
-11 3 4 14.1911 -0.0652
-11 3 5 3.5249 0.0725
-11 3 6 4.1936 0.0404
-11 3 7 6.8460 0.0606
-11 3 8 3.0624 0.0511
-11 3 9 6.1535 -0.0667
-11 3 10 -8.8661 -0.1222
-11 3 11 5.4567 -0.0726
-11 3 12 -3.3533 0.0319
-11 3 13 8.3140 0.1263
-11 3 14 1.7874 0.1167
-11 3 15 0.8577 -0.1034
-11 4 1 14.8660 -1.3141
-11 4 2 5.6628 -0.0597
-11 4 3 8.0591 0.2251
-11 4 4 -2.0064 -0.0748
-11 4 5 0.1361 -0.0453
-11 4 6 -4.9419 0.1720
-11 4 7 2.9310 0.0700
-11 4 8 8.2964 -0.0781
-11 4 9 1.3089 -0.0477
-11 4 10 8.9980 0.0420
-11 4 11 -3.2199 0.0659
-11 4 12 8.5473 -0.0648
-11 4 13 -1.1807 -0.1966
-11 4 14 3.2373 -0.0544
-11 4 15 1.5510 0.1450
-11 5 1 -3.7700 -0.2641
-11 5 2 -2.1134 -0.2905
-11 5 3 -5.9714 0.0020
-11 5 4 -6.3515 0.3090
-11 5 5 -3.1850 0.1506
-11 5 6 -5.5872 -0.1683
-11 5 7 3.3034 -0.1867
-11 5 8 -2.9559 0.0130
-11 5 9 -0.8145 0.1395
-11 5 10 -4.8783 0.1130
-11 5 11 -5.6425 -0.0868
-11 5 12 -1.8631 -0.0280
-11 5 13 0.7877 0.1425
-11 5 14 1.9021 -0.1427
-11 6 1 4.3482 -0.2267
-11 6 2 -0.3091 0.2894
-11 6 3 -0.2528 0.2822
-11 6 4 -1.4816 -0.0094
-11 6 5 0.4258 -0.0670
-11 6 6 -7.5404 0.0402
-11 6 7 -6.1156 0.0454
-11 6 8 -0.4337 -0.0803
-11 6 9 -9.3723 -0.1209
-11 6 10 -3.5558 -0.0047
-11 6 11 -0.5763 0.0844
-11 6 12 -3.0710 -0.0749
-11 6 13 2.3939 -0.1183
-11 7 1 2.6386 0.5844
-11 7 2 8.6851 -0.0820
-11 7 3 -5.4136 -0.3828
-11 7 4 1.9879 -0.1709
-11 7 5 1.3294 0.0625
-11 7 6 -2.0447 0.0619
-11 7 7 2.5027 0.0132
-11 7 8 7.8779 0.0713
-11 7 9 0.5743 0.0652
-11 7 10 -1.4644 -0.0275
-11 7 11 -2.0846 -0.1681
-11 7 12 1.2938 -0.0168
-11 7 13 -1.8406 0.4820
-11 8 1 -1.4193 0.7077
-11 8 2 6.9609 -0.1000
-11 8 3 2.3413 -0.1314
-11 8 4 1.5009 -0.0911
-11 8 5 0.9123 -0.1051
-11 8 6 6.9990 -0.0154
-11 8 7 1.7875 0.1365
-11 8 8 1.3257 0.0107
-11 8 9 0.4939 0.0618
-11 8 10 -4.3434 0.0654
-11 8 11 0.5549 0.0534
-11 8 12 -0.8898 0.0280
-11 9 1 8.3632 -0.7057
-11 9 2 -5.7317 0.3259
-11 9 3 1.8304 0.3114
-11 9 4 2.5808 -0.0016
-11 9 5 -5.8014 -0.0453
-11 9 6 1.7404 0.0375
-11 9 7 7.8181 -0.1166
-11 9 8 -1.7306 -0.0559
-11 9 9 0.8177 0.0634
-11 9 10 -0.2354 0.0440
-11 9 11 -2.4176 -0.2747
-11 10 1 7.2396 -0.0827
-11 10 2 2.1998 -0.5010
-11 10 3 -7.8426 -0.1205
-11 10 4 0.8913 0.2976
-11 10 5 2.6041 0.2145
-11 10 6 -4.3890 -0.1168
-11 10 7 5.2856 -0.2112
-11 10 8 -4.4328 0.0194
-11 10 9 -0.2470 -0.0232
-11 10 10 -3.3910 0.0711
-11 11 1 -3.5776 -0.7643
-11 11 2 4.1883 0.1078
-11 11 3 -5.0360 0.1822
-11 11 4 -5.5339 -0.1432
-11 11 5 0.7644 -0.1511
-11 11 6 1.7033 0.0300
-11 11 7 -2.3032 -0.0061
-11 11 8 3.2827 0.0495
-11 11 9 -3.8605 0.1562
-11 12 1 -4.1266 1.5767
-11 12 2 -1.5242 0.2926
-11 12 3 3.1250 -0.2818
-11 12 4 -0.9257 -0.0861
-11 12 5 2.1346 0.0230
-11 12 6 3.8422 -0.0085
-11 12 7 0.3421 -0.0675
-11 12 8 -1.4551 0.2955
-11 13 1 8.2491 -0.0061
-11 13 2 -1.2804 0.0789
-11 13 3 1.3961 0.0670
-11 13 4 1.6296 -0.1089
-11 13 5 -0.6040 -0.0687
-11 13 6 2.7103 0.1574
-11 13 7 1.1896 0.0142
-11 14 1 3.2819 -0.9048
-11 14 2 0.9219 -0.2150
-11 14 3 -1.1897 0.0220
-11 14 4 0.8045 0.2565
-11 14 5 -0.5540 0.0868
-11 14 6 0.5588 -0.2295
-11 15 1 -0.5368 -0.0197
-11 15 2 1.9497 0.2577
-11 15 3 -2.1719 0.2776
-11 15 4 -1.5948 -0.1211
-11 15 5 -1.7633 -0.1603
-11 16 1 -1.4935 -0.0232
-11 16 2 1.3284 0.1710
-11 16 3 -1.6472 0.0470
-11 17 1 2.4283 0.8064
-11 17 2 1.1048 0.2367
-10 -14 7 0.7076 -0.5144
-10 -14 8 -2.4185 -0.3506
-10 -14 9 0.0711 -0.3493
-10 -13 4 0.8207 0.0527
-10 -13 5 -0.8578 -0.1831
-10 -13 6 -0.8422 -0.0017
-10 -13 7 -2.7653 -0.1222
-10 -13 8 -2.3360 -0.0545
-10 -13 9 -4.7039 -0.1056
-10 -13 10 -0.5548 0.0871
-10 -13 11 -2.2248 -0.0204
-10 -13 12 -0.6691 -0.2382
-10 -13 13 -0.2925 -0.1889
-10 -13 14 0.8759 -0.1358
-10 -12 2 0.3426 0.0554
-10 -12 3 -1.0591 -0.1722
-10 -12 4 1.6465 -0.1501
-10 -12 5 2.9419 -0.1043
-10 -12 6 -0.3668 -0.0295
-10 -12 7 -3.6741 -0.0685
-10 -12 8 1.9859 0.0322
-10 -12 9 -1.8048 -0.0276
-10 -12 10 0.0443 -0.0209
-10 -12 11 3.9056 -0.0443
-10 -12 12 -0.6928 -0.1472
-10 -12 13 2.7040 0.1007
-10 -12 14 0.6257 0.2328
-10 -12 15 0.1640 0.0506
-10 -11 1 0.6545 1.3256
-10 -11 2 0.6346 0.1484
-10 -11 3 3.1343 -0.3427
-10 -11 4 -0.6495 -0.1458
-10 -11 5 3.4286 -0.0782
-10 -11 6 4.0306 0.0075
-10 -11 7 -1.3008 0.0579
-10 -11 8 -0.3336 0.0060
-10 -11 9 2.4748 -0.0472
-10 -11 10 1.3077 -0.0970
-10 -11 11 1.3104 0.1663
-10 -11 12 0.4019 0.1342
-10 -11 13 0.5921 0.1054
-10 -11 14 -0.0615 0.2633
-10 -11 15 -1.0831 -0.0562
-10 -11 16 1.5633 -0.1847
-10 -10 1 -0.6691 -0.8194
-10 -10 2 -2.7324 0.0167
-10 -10 3 2.0632 0.0633
-10 -10 4 3.0574 -0.0890
-10 -10 5 -1.8567 -0.0541
-10 -10 6 2.4287 0.0741
-10 -10 7 1.7285 0.0015
-10 -10 8 -5.2299 -0.0190
-10 -10 9 0.6051 -0.0273
-10 -10 10 -3.8759 -0.0401
-10 -10 11 1.3600 -0.0634
-10 -10 12 -1.5647 0.0258
-10 -10 13 -0.6527 0.0010
-10 -10 14 -2.5365 0.0942
-10 -10 15 -0.2234 0.0461
-10 -10 16 -2.4521 -0.0299
-10 -10 17 -0.0009 -0.1769
-10 -9 1 -3.4357 -0.0278
-10 -9 2 0.4974 -0.2927
-10 -9 3 -0.4593 -0.0451
-10 -9 4 -2.0187 0.2356
-10 -9 5 0.2907 0.0555
-10 -9 6 -5.7090 -0.1938
-10 -9 7 -2.4002 -0.1556
-10 -9 8 -4.8654 0.0404
-10 -9 9 -1.0507 0.1539
-10 -9 10 -1.5361 0.0940
-10 -9 11 -0.0936 0.0702
-10 -9 12 3.2372 0.0492
-10 -9 13 -2.7132 -0.0514
-10 -9 14 -3.9360 -0.0199
-10 -9 15 -1.3247 0.0498
-10 -9 16 -1.7062 -0.1069
-10 -9 17 -1.6214 -0.1891
-10 -8 1 -5.1868 -0.5713
-10 -8 2 -0.6012 0.2229
-10 -8 3 -0.8913 0.2832
-10 -8 4 -2.9506 -0.0197
-10 -8 5 -0.0017 -0.0989
-10 -8 6 -1.2170 0.0281
-10 -8 7 -1.5639 0.0405
-10 -8 8 2.8390 -0.0802
-10 -8 9 -2.3131 0.0200
-10 -8 10 0.0931 0.1038
-10 -8 11 -4.5874 0.1294
-10 -8 12 5.0108 0.0160
-10 -8 13 0.0048 -0.1267
-10 -8 14 1.7828 -0.0794
-10 -8 15 3.2500 0.0474
-10 -8 16 6.4951 -0.0960
-10 -8 17 0.3177 0.0184
-10 -7 1 -4.2109 0.3589
-10 -7 2 -0.6382 -0.1040
-10 -7 3 5.5495 -0.2951
-10 -7 4 1.3720 -0.0517
-10 -7 5 6.4073 0.1171
-10 -7 6 1.9571 0.0512
-10 -7 7 4.5664 0.0826
-10 -7 8 2.9581 0.0534
-10 -7 9 -1.2734 0.0173
-10 -7 10 4.0420 -0.1199
-10 -7 11 4.8964 -0.1228
-10 -7 12 -1.0444 -0.0237
-10 -7 13 2.9030 0.0427
-10 -7 14 0.2944 -0.0265
-10 -7 15 2.2108 -0.0833
-10 -7 16 -0.1693 0.0242
-10 -7 17 3.0552 0.1845
-10 -6 1 4.7130 0.7694
-10 -6 2 3.4089 0.0151
-10 -6 3 -1.6129 -0.1357
-10 -6 4 7.0966 -0.1680
-10 -6 5 1.6432 -0.1135
-10 -6 6 6.1747 0.0196
-10 -6 7 -0.7143 0.1547
-10 -6 8 9.8860 0.1134
-10 -6 9 -2.9420 0.0023
-10 -6 10 1.8473 -0.0917
-10 -6 11 6.9612 -0.0493
-10 -6 12 -2.7733 0.0249
-10 -6 13 -5.0684 0.0008
-10 -6 14 -1.8784 0.0106
-10 -6 15 -1.1801 0.0094
-10 -6 16 -4.2663 -0.1306
-10 -6 17 1.2290 -0.0381
-10 -5 1 -1.4451 -0.2991
-10 -5 2 -0.3782 0.2632
-10 -5 3 1.6511 0.2227
-10 -5 4 -7.3214 -0.0575
-10 -5 5 6.4585 -0.0351
-10 -5 6 -8.5695 0.0391
-10 -5 7 -1.4968 -0.0166
-10 -5 8 -12.9096 -0.1379
-10 -5 9 2.9516 -0.0803
-10 -5 10 -7.3094 0.0287
-10 -5 11 4.3996 -0.0165
-10 -5 12 -0.1139 0.0094
-10 -5 13 -1.0041 0.0796
-10 -5 14 -3.8664 -0.0094
-10 -5 15 3.4257 -0.0510
-10 -5 16 -1.8839 0.0489
-10 -5 17 -0.8732 -0.0456
-10 -4 1 2.1030 -0.3306
-10 -4 2 -4.5859 -0.4941
-10 -4 3 -2.9482 -0.0724
-10 -4 4 1.0166 0.3069
-10 -4 5 -8.3892 0.2164
-10 -4 6 -1.0289 -0.1056
-10 -4 7 -1.9528 -0.2004
-10 -4 8 -5.8392 -0.0040
-10 -4 9 -10.0588 0.0755
-10 -4 10 4.7119 0.0414
-10 -4 11 -6.0434 -0.0028
-10 -4 12 3.7861 -0.0590
-10 -4 13 4.3294 -0.0593
-10 -4 14 -1.5104 -0.0495
-10 -4 15 -2.5910 0.1304
-10 -4 16 2.1489 0.1887
-10 -4 17 -1.2117 -0.1841
-10 -3 1 -3.4916 -1.1051
-10 -3 2 -0.8275 0.1290
-10 -3 3 -8.4257 0.2946
-10 -3 4 2.7787 -0.0672
-10 -3 5 4.7324 -0.1777
-10 -3 6 -3.8132 -0.0512
-10 -3 7 -4.7032 0.0400
-10 -3 8 2.0685 -0.0296
-10 -3 9 -15.1141 0.0086
-10 -3 10 1.4341 0.1235
-10 -3 11 6.9181 0.0335
-10 -3 12 -3.8624 -0.1006
-10 -3 13 2.9963 -0.0461
-10 -3 14 1.5765 0.0079
-10 -3 15 0.1506 -0.0477
-10 -3 16 4.6743 -0.0188
-10 -3 17 4.0946 0.2104
-10 -2 1 -5.0870 1.7811
-10 -2 2 11.1440 0.2368
-10 -2 3 0.4144 -0.3180
-10 -2 4 5.2749 -0.1238
-10 -2 5 9.9057 0.0066
-10 -2 6 11.3104 -0.0256
-10 -2 7 3.4678 0.0434
-10 -2 8 7.4310 0.1342
-10 -2 9 1.1286 -0.0113
-10 -2 10 4.6587 -0.1549
-10 -2 11 7.0862 -0.0324
-10 -2 12 5.5939 0.1584
-10 -2 13 -1.2942 0.0694
-10 -2 14 4.9807 -0.0712
-10 -2 15 -0.4377 -0.1427
-10 -2 16 1.5402 -0.0869
-10 -2 17 1.7281 0.0371
-10 -1 1 -5.0019 0.1148
-10 -1 2 -4.5789 0.0294
-10 -1 3 11.1346 -0.0233
-10 -1 4 -0.4223 -0.1788
-10 -1 5 5.3383 -0.0562
-10 -1 6 7.0998 0.2097
-10 -1 7 4.8195 0.1738
-10 -1 8 -10.8958 -0.0329
-10 -1 9 6.3419 -0.1235
-10 -1 10 -3.9631 -0.0187
-10 -1 11 1.6935 0.0468
-10 -1 12 -2.8828 -0.0324
-10 -1 13 -2.6983 0.0039
-10 -1 14 -8.4716 0.0746
-10 -1 15 -4.0545 0.0517
-10 -1 16 -0.6467 -0.0077
-10 -1 17 -2.1756 0.0452
-10 0 1 5.3787 -0.7132
-10 0 2 -17.4408 -0.2433
-10 0 3 -1.8267 0.0100
-10 0 4 -5.0179 0.1802
-10 0 5 -3.4394 0.0981
-10 0 6 -12.6961 -0.1199
-10 0 7 -4.4225 -0.1186
-10 0 8 -12.2326 0.0446
-10 0 9 -9.9951 0.1635
-10 0 10 4.8372 0.0366
-10 0 11 -8.2307 -0.0673
-10 0 12 1.9739 -0.0645
-10 0 13 -3.6268 -0.0442
-10 0 14 -0.2425 0.0120
-10 0 15 -0.9530 0.0512
-10 0 16 2.0076 -0.0906
-10 0 17 -0.0394 -0.1954
-10 1 1 -3.8571 -0.2127
-10 1 2 -7.7467 0.1145
-10 1 3 -10.6344 0.2463
-10 1 4 3.7225 0.2315
-10 1 5 2.0000 -0.0103
-10 1 6 2.9240 -0.1142
-10 1 7 -2.1770 -0.1113
-10 1 8 -1.4717 -0.0908
-10 1 9 3.3918 -0.0141
-10 1 10 3.1800 0.0746
-10 1 11 3.7871 0.0971
-10 1 12 -3.0039 -0.0014
-10 1 13 2.1155 -0.1405
-10 1 14 -2.1425 -0.0164
-10 1 15 3.6188 0.1113
-10 1 16 -0.1455 0.0792
-10 2 1 -6.5493 -0.3714
-10 2 2 7.6636 0.2144
-10 2 3 6.4275 0.0999
-10 2 4 5.9934 -0.0672
-10 2 5 14.3039 0.0518
-10 2 6 8.3408 0.0701
-10 2 7 -4.7006 -0.0002
-10 2 8 0.9101 -0.0508
-10 2 9 0.2683 -0.1046
-10 2 10 10.0534 -0.0589
-10 2 11 1.5248 0.0046
-10 2 12 5.7866 0.0849
-10 2 13 0.4124 0.0535
-10 2 14 3.2856 -0.1342
-10 2 15 1.2745 -0.1935
-10 2 16 3.3946 0.0964
-10 3 1 -9.5998 1.3476
-10 3 2 -2.5566 -0.2921
-10 3 3 -0.4534 -0.4704
-10 3 4 5.1544 -0.1047
-10 3 5 5.5542 0.0880
-10 3 6 4.7484 0.0064
-10 3 7 1.3674 0.0365
-10 3 8 -0.1209 0.1117
-10 3 9 13.1019 0.0488
-10 3 10 -1.3120 -0.1285
-10 3 11 10.4246 -0.1072
-10 3 12 -9.9346 0.0438
-10 3 13 1.8167 0.1240
-10 3 14 -2.2801 0.0117
-10 3 15 -0.8577 -0.1880
-10 4 1 -4.8378 -0.3848
-10 4 2 -6.8727 0.4214
-10 4 3 2.6807 0.3069
-10 4 4 2.4002 -0.2302
-10 4 5 6.8399 -0.2568
-10 4 6 2.9054 0.0457
-10 4 7 -6.3645 0.1234
-10 4 8 -2.3549 -0.0163
-10 4 9 -8.1380 -0.0309
-10 4 10 -2.2372 -0.0101
-10 4 11 -9.7361 0.0013
-10 4 12 -0.9356 0.0315
-10 4 13 -7.4721 0.0249
-10 4 14 -0.1706 0.1441
-10 4 15 -0.0358 -0.0567
-10 5 1 -8.5344 -0.0304
-10 5 2 2.4630 -0.2787
-10 5 3 1.1108 -0.0573
-10 5 4 -7.5246 0.2691
-10 5 5 -1.4449 0.2524
-10 5 6 -5.8125 -0.0772
-10 5 7 -6.0123 -0.1430
-10 5 8 -14.1567 -0.0634
-10 5 9 5.6117 0.0965
-10 5 10 -2.1260 0.0269
-10 5 11 -0.4760 -0.1083
-10 5 12 0.1231 -0.0310
-10 5 13 -0.1079 0.0205
-10 5 14 -1.6640 -0.0291
-10 6 1 -3.9903 -1.2384
-10 6 2 -8.8776 -0.3137
-10 6 3 4.8703 0.2120
-10 6 4 -0.4236 0.1045
-10 6 5 3.9072 -0.0132
-10 6 6 3.6198 0.0106
-10 6 7 1.9432 0.0133
-10 6 8 5.8087 -0.0089
-10 6 9 3.0927 0.0171
-10 6 10 7.1747 0.1339
-10 6 11 -0.7098 0.0494
-10 6 12 -1.6477 -0.0491
-10 6 13 2.4555 -0.0963
-10 6 14 -0.4479 -0.2407
-10 7 1 -5.5093 0.5623
-10 7 2 6.1948 0.2163
-10 7 3 -3.0509 -0.0638
-10 7 4 5.7735 -0.1326
-10 7 5 9.7574 -0.0716
-10 7 6 -2.2586 -0.0925
-10 7 7 -1.5582 -0.0170
-10 7 8 5.6423 0.1159
-10 7 9 0.3594 -0.0036
-10 7 10 2.3699 0.0063
-10 7 11 0.8789 -0.0491
-10 7 12 2.8651 -0.0848
-10 7 13 -1.8306 0.1156
-10 8 1 -11.6687 1.4266
-10 8 2 8.0294 0.0971
-10 8 3 4.6157 -0.1949
-10 8 4 -1.3908 -0.1653
-10 8 5 4.5338 -0.0384
-10 8 6 3.4814 0.1397
-10 8 7 -7.9061 0.1244
-10 8 8 6.6227 -0.0424
-10 8 9 2.0568 -0.0898
-10 8 10 -0.3007 -0.0895
-10 8 11 1.2367 -0.0464
-10 8 12 0.1780 -0.0680
-10 9 1 1.5731 -1.0500
-10 9 2 -3.5142 -0.0472
-10 9 3 7.3511 0.0792
-10 9 4 0.9456 -0.0461
-10 9 5 -7.4834 -0.0390
-10 9 6 -1.9101 0.0328
-10 9 7 -2.8461 0.0754
-10 9 8 -3.3317 0.0057
-10 9 9 -2.1380 -0.0740
-10 9 10 -0.1296 0.0740
-10 9 11 -2.1653 0.1700
-10 10 1 1.6976 -0.0577
-10 10 2 -3.5324 -0.2296
-10 10 3 -10.8827 0.0615
-10 10 4 -0.8160 0.3017
-10 10 5 -2.8704 0.0733
-10 10 6 -9.1781 -0.1487
-10 10 7 4.9587 -0.2840
-10 10 8 -3.6587 -0.0708
-10 10 9 2.3700 0.1259
-10 10 10 -3.1218 0.0805
-10 11 1 -7.0336 -0.5341
-10 11 2 7.8976 0.2645
-10 11 3 -1.1536 0.3371
-10 11 4 1.2243 0.0092
-10 11 5 5.9651 -0.1773
-10 11 6 1.2513 -0.0385
-10 11 7 0.6804 0.1093
-10 11 8 4.7677 -0.0173
-10 11 9 0.1977 -0.2574
-10 11 10 1.4601 -0.0409
-10 12 1 -1.0369 0.8762
-10 12 2 3.1096 -0.1150
-10 12 3 6.0919 -0.3729
-10 12 4 -2.9056 -0.0319
-10 12 5 2.6120 0.1496
-10 12 6 1.8497 0.0694
-10 12 7 1.9067 -0.0784
-10 12 8 1.1778 0.0784
-10 13 1 2.4915 0.3343
-10 13 2 -3.4404 0.1744
-10 13 3 0.7603 0.0625
-10 13 4 0.9341 -0.1728
-10 13 5 -1.7441 -0.3371
-10 13 6 1.5323 0.1227
-10 13 7 -1.2245 0.2946
-10 14 1 -1.2617 -0.2613
-10 14 2 -2.6319 0.2502
-10 14 3 -2.1980 0.2116
-10 14 4 -0.8761 0.1215
-10 14 5 -1.4879 -0.0422
-10 14 6 -1.6046 -0.2014
-10 15 1 -1.9276 -0.5396
-10 15 2 0.2745 -0.2837
-10 15 3 1.0580 0.1262
-10 15 4 1.2461 0.2348
-10 15 5 -0.3178 -0.4123
-10 16 1 -1.1741 -0.7127
-10 16 2 2.7156 0.1679
-10 16 3 0.9083 0.4966
-10 17 1 -0.2771 1.2624
-10 17 2 0.1278 0.1303
-9 -15 8 2.7142 0.0874
-9 -15 9 1.7783 -0.0068
-9 -14 4 -2.0405 -0.0693
-9 -14 5 -1.7866 0.1083
-9 -14 6 -1.5569 0.1674
-9 -14 7 1.1435 0.0317
-9 -14 8 -4.7104 0.2432
-9 -14 9 -1.2864 0.1532
-9 -14 10 -2.5910 -0.1519
-9 -14 11 -1.9175 -0.0096
-9 -14 12 -1.2966 -0.0788
-9 -14 13 -0.6399 -0.0311
-9 -14 14 -0.0384 -0.0551
-9 -13 2 -3.0203 -0.0105
-9 -13 3 -2.0060 0.3712
-9 -13 4 -2.1536 0.3561
-9 -13 5 -1.2884 0.0499
-9 -13 6 -0.3023 -0.0118
-9 -13 7 3.9475 -0.1414
-9 -13 8 1.9016 -0.0766
-9 -13 9 -1.0593 0.0239
-9 -13 10 1.5965 0.0082
-9 -13 11 -1.5110 0.0045
-9 -13 12 2.5541 -0.0359
-9 -13 13 -2.4536 0.0025
-9 -13 14 0.7445 -0.1728
-9 -13 15 -0.7599 -0.1128
-9 -12 1 1.6707 -0.4321
-9 -12 2 1.7313 0.2761
-9 -12 3 -1.5878 0.1741
-9 -12 4 1.1620 0.0551
-9 -12 5 1.6105 0.0260
-9 -12 6 2.3400 0.0424
-9 -12 7 -0.9043 -0.0185
-9 -12 8 6.1690 -0.0506
-9 -12 9 -1.9038 -0.0372
-9 -12 10 0.9186 -0.0577
-9 -12 11 0.0863 0.0385
-9 -12 12 -1.8087 -0.0638
-9 -12 13 1.5565 -0.1493
-9 -12 14 1.0656 -0.1322
-9 -12 15 2.7821 0.1822
-9 -12 16 0.8949 0.2035
-9 -11 1 2.0991 0.9369
-9 -11 2 0.0886 -0.2079
-9 -11 3 -0.8146 -0.3193
-9 -11 4 -1.1457 -0.0353
-9 -11 5 2.4082 0.0316
-9 -11 6 2.5495 0.0515
-9 -11 7 2.0922 0.0275
-9 -11 8 7.1224 0.0319
-9 -11 9 0.2290 0.0639
-9 -11 10 2.6190 -0.0937
-9 -11 11 -0.3961 -0.0711
-9 -11 12 2.7843 -0.0136
-9 -11 13 3.8457 0.0703
-9 -11 14 1.8976 0.1785
-9 -11 15 -1.7685 0.1078
-9 -11 16 0.1034 -0.0830
-9 -11 17 -1.1406 -0.0721
-9 -10 1 1.3895 0.0366
-9 -10 2 -1.3022 0.4199
-9 -10 3 0.1384 0.0973
-9 -10 4 2.9031 -0.3064
-9 -10 5 -0.2214 -0.2295
-9 -10 6 1.9186 0.0449
-9 -10 7 -2.8783 0.1402
-9 -10 8 -6.2718 0.0288
-9 -10 9 0.6274 -0.0833
-9 -10 10 -4.3546 -0.0885
-9 -10 11 -0.6894 -0.0379
-9 -10 12 -5.3759 0.0579
-9 -10 13 1.1156 0.1105
-9 -10 14 -0.1594 0.0315
-9 -10 15 -1.0187 -0.0549
-9 -10 16 0.4399 -0.1068
-9 -10 17 1.0256 -0.0287
-9 -10 18 -1.9973 -0.0205
-9 -9 1 2.0026 0.0695
-9 -9 2 -3.6143 -0.2666
-9 -9 3 -1.2890 -0.0891
-9 -9 4 -1.5484 0.2044
-9 -9 5 -1.2849 0.1410
-9 -9 6 -3.2068 -0.0413
-9 -9 7 -3.5623 -0.1898
-9 -9 8 -3.8725 -0.0736
-9 -9 9 -2.4927 0.0133
-9 -9 10 -6.9780 -0.0053
-9 -9 11 -4.8284 -0.0388
-9 -9 12 -0.5076 0.0663
-9 -9 13 1.2772 0.0814
-9 -9 14 1.5693 -0.0419
-9 -9 15 1.3479 0.0791
-9 -9 16 -1.9991 0.2095
-9 -9 17 -0.7545 -0.1404
-9 -9 18 -0.1732 -0.3674
-9 -8 1 -3.1687 -1.2687
-9 -8 2 -2.7804 -0.2495
-9 -8 3 -2.5873 0.1597
-9 -8 4 -0.0748 0.1246
-9 -8 5 2.6735 0.0293
-9 -8 6 6.2883 -0.0035
-9 -8 7 -0.3182 -0.0590
-9 -8 8 0.6415 -0.0789
-9 -8 9 4.3436 0.0185
-9 -8 10 0.8303 0.1635
-9 -8 11 -3.0626 0.1255
-9 -8 12 4.3098 -0.1236
-9 -8 13 0.0205 -0.1752
-9 -8 14 -2.3025 -0.0063
-9 -8 15 -2.4409 0.1358
-9 -8 16 4.8065 -0.0024
-9 -8 17 -2.1949 -0.1975
-9 -8 18 4.1533 -0.1262
-9 -7 1 1.5043 0.2870
-9 -7 2 0.0428 0.2191
-9 -7 3 7.3094 -0.0251
-9 -7 4 -1.9629 -0.0754
-9 -7 5 5.6598 -0.1322
-9 -7 6 -0.2021 -0.1222
-9 -7 7 7.5231 -0.0261
-9 -7 8 4.4058 0.0887
-9 -7 9 0.5301 0.0526
-9 -7 10 4.9041 -0.0555
-9 -7 11 -2.2238 -0.0452
-9 -7 12 1.8580 0.0546
-9 -7 13 3.6519 0.0856
-9 -7 14 3.0988 -0.0375
-9 -7 15 -0.2929 -0.1816
-9 -7 16 2.6928 0.0408
-9 -7 17 -1.8954 0.1871
-9 -7 18 -3.0870 0.1149
-9 -6 1 1.4281 1.3086
-9 -6 2 5.4789 0.0728
-9 -6 3 -5.0004 -0.2507
-9 -6 4 4.8875 -0.1249
-9 -6 5 -5.7394 0.0041
-9 -6 6 8.0015 0.1438
-9 -6 7 -5.0344 0.1919
-9 -6 8 9.5828 0.0717
-9 -6 9 -3.9171 -0.0763
-9 -6 10 -0.6280 -0.1101
-9 -6 11 1.2364 0.0477
-9 -6 12 0.8116 0.0736
-9 -6 13 2.2888 0.0325
-9 -6 14 4.8569 0.0256
-9 -6 15 -1.1419 -0.0049
-9 -6 16 -2.7900 -0.1064
-9 -6 17 0.8704 -0.2001
-9 -6 18 -0.7574 0.0536
-9 -5 1 -4.3673 -0.7541
-9 -5 2 2.9205 -0.0608
-9 -5 3 3.7829 -0.0021
-9 -5 4 -11.5555 -0.1197
-9 -5 5 3.5282 -0.0382
-9 -5 6 -7.8476 0.1298
-9 -5 7 0.9444 0.1237
-9 -5 8 -5.8190 -0.0327
-9 -5 9 4.0601 -0.0411
-9 -5 10 -16.4434 -0.0124
-9 -5 11 -3.9174 -0.0600
-9 -5 12 -4.2144 -0.0590
-9 -5 13 -4.7403 -0.0137
-9 -5 14 -2.6194 0.0719
-9 -5 15 4.0920 0.0588
-9 -5 16 -3.1536 -0.0396
-9 -5 17 1.2307 -0.0247
-9 -5 18 1.2511 -0.0095
-9 -4 1 -3.2654 0.0329
-9 -4 2 -10.2995 -0.2146
-9 -4 3 0.9603 0.0168
-9 -4 4 -8.4887 0.2955
-9 -4 5 -12.2528 0.0722
-9 -4 6 -7.9196 -0.2068
-9 -4 7 -1.6883 -0.2344
-9 -4 8 -4.4242 0.0226
-9 -4 9 3.6049 0.1819
-9 -4 10 -4.9992 0.0105
-9 -4 11 -11.8529 -0.0208
-9 -4 12 -0.1540 0.0037
-9 -4 13 0.8422 0.0053
-9 -4 14 -3.3867 -0.0654
-9 -4 15 -1.4502 0.0039
-9 -4 16 0.1151 0.2290
-9 -4 17 -0.2065 0.1651
-9 -4 18 3.6453 -0.0761
-9 -3 1 7.3377 -0.9091
-9 -3 2 0.7676 0.2702
-9 -3 3 1.5866 0.4161
-9 -3 4 7.9950 0.0422
-9 -3 5 4.9322 -0.0627
-9 -3 6 7.5994 0.0371
-9 -3 7 9.7974 0.0352
-9 -3 8 26.3094 -0.1635
-9 -3 9 1.2665 -0.1292
-9 -3 10 7.7405 0.1176
-9 -3 11 3.5350 0.1149
-9 -3 12 0.0482 -0.1114
-9 -3 13 10.2980 -0.0892
-9 -3 14 1.4355 0.0733
-9 -3 15 1.1133 0.1036
-9 -3 16 0.5215 -0.1197
-9 -3 17 2.0613 -0.0910
-9 -3 18 1.4046 -0.1506
-9 -2 1 1.8958 0.7206
-9 -2 2 20.5417 -0.2357
-9 -2 3 -6.2192 -0.4071
-9 -2 4 7.9366 0.0390
-9 -2 5 2.8763 0.1748
-9 -2 6 6.0089 -0.0148
-9 -2 7 2.4477 -0.0146
-9 -2 8 11.8838 0.0690
-9 -2 9 -3.1636 0.0701
-9 -2 10 -1.3859 -0.0759
-9 -2 11 2.6829 -0.0724
-9 -2 12 3.2387 0.1095
-9 -2 13 1.2167 0.0909
-9 -2 14 4.4246 -0.0655
-9 -2 15 -4.7313 -0.0838
-9 -2 16 -5.6178 0.0247
-9 -2 17 -1.9188 0.1067
-9 -2 18 -2.0709 0.0154
-9 -1 1 -8.5034 0.4432
-9 -1 2 3.6250 0.2692
-9 -1 3 0.8646 0.0195
-9 -1 4 -13.8811 -0.2969
-9 -1 5 -6.2468 -0.2527
-9 -1 6 -1.1476 0.0949
-9 -1 7 3.0720 0.2254
-9 -1 8 -7.0213 0.1050
-9 -1 9 0.3803 -0.1014
-9 -1 10 -15.2203 -0.0334
-9 -1 11 -2.5121 0.0668
-9 -1 12 -4.1014 -0.0321
-9 -1 13 2.4430 0.0033
-9 -1 14 -1.6841 0.0587
-9 -1 15 -0.9469 -0.0706
-9 -1 16 0.9783 -0.2179
-9 -1 17 -0.1371 -0.0094
-9 0 1 11.1389 0.1302
-9 0 2 -13.6424 0.2378
-9 0 3 4.8095 0.0203
-9 0 4 -6.9417 -0.0056
-9 0 5 -3.3443 0.0604
-9 0 6 -3.5140 -0.0334
-9 0 7 7.7305 -0.0779
-9 0 8 -5.4538 -0.0274
-9 0 9 -17.6459 0.0505
-9 0 10 -1.9330 -0.0536
-9 0 11 -10.7574 -0.0387
-9 0 12 5.4911 0.0764
-9 0 13 -1.1105 0.0520
-9 0 14 4.1067 -0.0879
-9 0 15 -1.6647 0.0058
-9 0 16 0.2505 0.1858
-9 0 17 1.7631 -0.1348
-9 1 1 3.2063 -0.8337
-9 1 2 -10.1251 -0.5102
-9 1 3 -12.4609 0.0002
-9 1 4 1.7808 0.3047
-9 1 5 -7.4010 0.1882
-9 1 6 5.8267 -0.0351
-9 1 7 9.2666 -0.1480
-9 1 8 2.5156 -0.1107
-9 1 9 -1.4675 0.0354
-9 1 10 -3.4084 0.1072
-9 1 11 7.2120 0.0877
-9 1 12 -2.1190 -0.1007
-9 1 13 2.9112 -0.1952
-9 1 14 -5.0310 0.0550
-9 1 15 2.4202 0.1492
-9 1 16 -2.8939 -0.0967
-9 1 17 3.0712 0.0765
-9 2 1 3.8916 -1.1514
-9 2 2 3.0384 0.0792
-9 2 3 -4.2434 0.2651
-9 2 4 -4.2086 -0.0068
-9 2 5 2.0942 -0.0900
-9 2 6 12.7682 -0.0657
-9 2 7 7.6320 -0.0165
-9 2 8 7.9915 0.0265
-9 2 9 -5.9192 0.0142
-9 2 10 8.0328 0.0304
-9 2 11 -2.3827 0.0124
-9 2 12 7.9304 0.0451
-9 2 13 -1.3561 -0.0347
-9 2 14 1.5203 -0.1319
-9 2 15 -0.1482 -0.0728
-9 2 16 1.2251 0.2163
-9 3 1 5.7997 1.9486
-9 3 2 4.5992 0.1764
-9 3 3 4.6637 -0.2184
-9 3 4 -1.3020 -0.0935
-9 3 5 -1.8996 0.0158
-9 3 6 2.2715 0.0495
-9 3 7 3.5666 0.0445
-9 3 8 -8.2230 0.0416
-9 3 9 -3.4635 -0.0305
-9 3 10 -5.4702 -0.1031
-9 3 11 9.1328 -0.0622
-9 3 12 -4.3516 0.0771
-9 3 13 4.4939 0.1498
-9 3 14 0.1863 0.0140
-9 3 15 -3.5956 -0.2411
-9 3 16 0.7225 0.0559
-9 4 1 9.8983 -0.2038
-9 4 2 -8.4955 0.0824
-9 4 3 -6.0497 -0.0458
-9 4 4 -6.3052 -0.2092
-9 4 5 -7.1069 -0.0459
-9 4 6 -1.0692 0.2153
-9 4 7 -5.9631 0.2195
-9 4 8 1.5341 -0.0012
-9 4 9 -11.3092 -0.1701
-9 4 10 2.1311 -0.0571
-9 4 11 -1.0752 0.0240
-9 4 12 2.7792 0.0018
-9 4 13 -7.2088 -0.0356
-9 4 14 2.4713 0.2194
-9 4 15 -0.2497 0.3074
-9 5 1 -12.8959 -0.2190
-9 5 2 -4.4401 -0.3049
-9 5 3 -1.4734 -0.1410
-9 5 4 -8.0387 0.1463
-9 5 5 2.7867 0.1504
-9 5 6 4.3579 -0.1275
-9 5 7 5.7638 -0.1971
-9 5 8 -11.6392 -0.0074
-9 5 9 9.3425 0.2309
-9 5 10 -5.7225 0.0769
-9 5 11 2.4266 -0.1389
-9 5 12 -0.1384 -0.0828
-9 5 13 1.2937 0.0459
-9 5 14 -3.1842 -0.0546
-9 5 15 0.5158 -0.5642
-9 6 1 3.7391 -0.6643
-9 6 2 -17.3854 0.1035
-9 6 3 5.3931 0.3918
-9 6 4 -6.2197 0.1278
-9 6 5 -3.8733 -0.1170
-9 6 6 7.4072 -0.1140
-9 6 7 4.0964 -0.0460
-9 6 8 -6.0356 -0.0536
-9 6 9 -1.6986 -0.0542
-9 6 10 5.9644 0.1420
-9 6 11 -1.6649 0.1935
-9 6 12 -0.1396 0.0340
-9 6 13 3.5677 -0.1043
-9 6 14 -0.6305 -0.0171
-9 7 1 12.5467 0.0219
-9 7 2 5.7520 -0.0153
-9 7 3 -1.7404 -0.0946
-9 7 4 8.7458 0.0013
-9 7 5 12.0750 0.1282
-9 7 6 1.8699 0.0622
-9 7 7 6.1723 -0.0391
-9 7 8 -0.7748 -0.0023
-9 7 9 0.2134 0.0991
-9 7 10 2.3678 0.0074
-9 7 11 1.1846 -0.1864
-9 7 12 1.9202 0.0180
-9 7 13 1.3051 0.4489
-9 8 1 -4.2244 0.9975
-9 8 2 6.3177 -0.2122
-9 8 3 -0.9199 -0.2937
-9 8 4 -8.6451 -0.1463
-9 8 5 1.6740 -0.0996
-9 8 6 4.2880 0.0683
-9 8 7 -10.2389 0.0869
-9 8 8 4.7087 0.0138
-9 8 9 -2.5914 -0.0904
-9 8 10 -2.2122 0.0402
-9 8 11 -1.4392 0.0293
-9 8 12 -1.7791 -0.2509
-9 9 1 -8.7271 -0.0398
-9 9 2 -15.0912 0.4818
-9 9 3 1.5852 0.1264
-9 9 4 -6.3010 -0.1897
-9 9 5 -6.1278 -0.1054
-9 9 6 6.4135 -0.0131
-9 9 7 -4.6330 0.0397
-9 9 8 -0.7233 0.0615
-9 9 9 -2.2680 -0.0257
-9 9 10 0.3280 -0.1029
-9 9 11 -3.9900 -0.1897
-9 10 1 8.2563 0.0982
-9 10 2 -3.0244 -0.2292
-9 10 3 0.2212 -0.0730
-9 10 4 8.1183 0.2393
-9 10 5 -0.3547 0.1094
-9 10 6 -2.5552 -0.0048
-9 10 7 4.0549 -0.1039
-9 10 8 -2.1927 -0.0245
-9 10 9 3.6674 0.0447
-9 10 10 1.5937 0.0740
-9 11 1 2.1111 -1.5501
-9 11 2 7.8005 -0.1977
-9 11 3 -4.3925 0.2307
-9 11 4 -0.0756 0.1425
-9 11 5 1.9531 -0.0110
-9 11 6 0.5398 -0.0828
-9 11 7 1.5452 -0.0884
-9 11 8 3.4478 0.1241
-9 11 9 -0.8538 0.0344
-9 11 10 -0.4901 -0.3457
-9 12 1 0.2115 0.8432
-9 12 2 2.0412 0.1809
-9 12 3 6.1752 -0.0996
-9 12 4 -2.3653 -0.0034
-9 12 5 3.1378 0.0067
-9 12 6 0.0063 -0.1144
-9 12 7 -0.5226 -0.0554
-9 12 8 -3.2370 0.0417
-9 12 9 0.5633 0.1030
-9 13 1 2.4897 0.7557
-9 13 2 -3.4987 0.2177
-9 13 3 -0.8419 -0.0673
-9 13 4 -1.6910 -0.1402
-9 13 5 -4.7643 -0.0024
-9 13 6 0.3605 0.0472
-9 13 7 -1.7008 -0.0312
-9 14 1 -0.5761 -0.4582
-9 14 2 -1.4244 -0.0923
-9 14 3 -1.5309 -0.1028
-9 14 4 -0.0418 -0.0645
-9 14 5 -1.1255 0.1148
-9 14 6 -1.2334 -0.1804
-9 15 1 1.8125 -0.2723
-9 15 2 -1.0382 -0.0830
-9 15 3 -0.3554 0.1401
-9 15 4 0.1473 0.1941
-9 15 5 -0.3022 -0.1950
-9 16 1 -0.9134 -0.6027
-9 16 2 0.9329 0.1553
-9 16 3 -0.6771 0.3036
-9 17 1 1.1225 0.8324
-9 17 2 -0.3960 0.2514
-8 -15 5 -2.5188 0.1885
-8 -15 6 -1.9995 0.1515
-8 -15 7 -6.7478 0.2071
-8 -15 8 -2.5724 -0.0264
-8 -15 9 -1.5198 0.0110
-8 -15 10 -2.3757 -0.0535
-8 -15 11 -0.1219 0.0626
-8 -15 12 -0.2979 0.0377
-8 -15 13 -0.7596 -0.1896
-8 -15 14 0.8887 0.2093
-8 -14 2 -0.8830 0.0153
-8 -14 3 -0.1789 0.0351
-8 -14 4 -1.0003 -0.0377
-8 -14 5 -0.1704 0.0843
-8 -14 6 -0.3927 0.0964
-8 -14 7 2.7925 0.0649
-8 -14 8 -1.9400 0.1110
-8 -14 9 5.0479 0.1461
-8 -14 10 0.1112 0.0311
-8 -14 11 1.6858 0.0001
-8 -14 12 -2.0624 0.0413
-8 -14 13 -1.7373 -0.0341
-8 -14 14 -3.2706 0.0899
-8 -14 15 -1.0145 -0.2264
-8 -13 1 -0.0053 -0.3688
-8 -13 2 2.7540 -0.2959
-8 -13 3 4.8055 -0.0595
-8 -13 4 1.2839 0.0777
-8 -13 5 2.3367 0.1250
-8 -13 6 -0.3596 0.0268
-8 -13 7 2.4000 -0.0458
-8 -13 8 -2.0035 -0.0120
-8 -13 9 4.5211 0.0779
-8 -13 10 3.0758 0.1068
-8 -13 11 0.7592 0.0081
-8 -13 12 2.6249 -0.0858
-8 -13 13 -1.1263 -0.1371
-8 -13 14 3.2514 0.0296
-8 -13 15 2.1788 -0.0436
-8 -13 16 2.8142 -0.0368
-8 -12 1 1.3100 -1.0245
-8 -12 2 -0.1909 0.0274
-8 -12 3 0.2571 0.2837
-8 -12 4 -0.8855 0.1052
-8 -12 5 -0.0236 -0.0620
-8 -12 6 3.4414 -0.0816
-8 -12 7 0.1810 -0.0138
-8 -12 8 3.9410 0.0056
-8 -12 9 0.9933 0.0996
-8 -12 10 2.2744 0.0784
-8 -12 11 4.2477 -0.0057
-8 -12 12 1.6507 -0.0100
-8 -12 13 1.4969 -0.0783
-8 -12 14 0.8543 -0.1003
-8 -12 15 1.4329 -0.0636
-8 -12 16 -1.9985 -0.1225
-8 -12 17 -0.1913 0.0543
-8 -11 1 1.6139 1.3051
-8 -11 2 2.6315 0.1426
-8 -11 3 -0.0196 -0.1524
-8 -11 4 0.2152 0.0228
-8 -11 5 1.8321 0.0873
-8 -11 6 0.6460 0.0343
-8 -11 7 -5.7750 0.0131
-8 -11 8 -3.8150 0.0235
-8 -11 9 -9.3043 -0.1007
-8 -11 10 0.6899 -0.1262
-8 -11 11 -6.5210 -0.0624
-8 -11 12 -4.7517 0.0570
-8 -11 13 -5.7833 -0.0313
-8 -11 14 -2.1712 -0.0229
-8 -11 15 -1.6155 0.0449
-8 -11 16 0.1876 -0.0387
-8 -11 17 -1.0411 0.0711
-8 -11 18 -2.6854 0.2500
-8 -10 1 0.1144 0.0493
-8 -10 2 -0.9956 0.1569
-8 -10 3 -7.0068 -0.0076
-8 -10 4 -4.7088 -0.2288
-8 -10 5 -5.7973 -0.0865
-8 -10 6 -1.1624 0.1830
-8 -10 7 -0.9933 0.1935
-8 -10 8 -1.2684 -0.0505
-8 -10 9 -1.3387 -0.1662
-8 -10 10 -4.5383 -0.0539
-8 -10 11 0.5324 0.0006
-8 -10 12 -6.2135 0.0083
-8 -10 13 -0.5820 0.0541
-8 -10 14 -0.6387 0.0444
-8 -10 15 -3.4203 0.0728
-8 -10 16 -2.5836 -0.0562
-8 -10 17 0.5495 -0.0248
-8 -10 18 -0.5602 -0.0399
-8 -9 1 -2.0791 0.0588
-8 -9 2 -3.2487 -0.2056
-8 -9 3 -4.1860 -0.1184
-8 -9 4 -3.7640 0.1113
-8 -9 5 2.6935 0.0290
-8 -9 6 8.3067 -0.1526
-8 -9 7 5.5392 -0.1336
-8 -9 8 4.3563 0.1051
-8 -9 9 5.4954 0.1445
-8 -9 10 4.3867 -0.0321
-8 -9 11 3.8554 -0.1056
-8 -9 12 -1.3364 -0.0060
-8 -9 13 -2.2199 0.1091
-8 -9 14 0.6054 0.0205
-8 -9 15 3.6933 -0.0077
-8 -9 16 1.8168 0.0228
-8 -9 17 10.1985 0.1229
-8 -9 18 2.3357 -0.1033
-8 -8 1 6.1322 -0.6429
-8 -8 2 4.1181 0.1573
-8 -8 3 3.0470 0.3621
-8 -8 4 4.6475 0.0929
-8 -8 5 -1.8387 -0.0719
-8 -8 6 6.2231 -0.0534
-8 -8 7 2.6352 -0.0768
-8 -8 8 4.7409 -0.1237
-8 -8 9 11.2759 -0.0536
-8 -8 10 1.3254 0.0498
-8 -8 11 3.2995 0.1276
-8 -8 12 2.6813 -0.0210
-8 -8 13 3.5564 -0.1217
-8 -8 14 3.6664 -0.0439
-8 -8 15 6.0223 0.1237
-8 -8 16 2.2603 0.0823
-8 -8 17 -3.2158 0.0084
-8 -8 18 3.0094 -0.1405
-8 -8 19 -3.2647 0.0703
-8 -7 1 1.7855 -0.3012
-8 -7 2 -4.3757 -0.1029
-8 -7 3 6.6753 -0.0797
-8 -7 4 -3.6506 0.0585
-8 -7 5 6.4227 0.0812
-8 -7 6 -1.1521 0.0087
-8 -7 7 6.2883 -0.0984
-8 -7 8 -2.0606 -0.0522
-8 -7 9 -1.2802 0.0541
-8 -7 10 7.5931 0.0647
-8 -7 11 -5.9283 0.0221
-8 -7 12 -1.8556 -0.0121
-8 -7 13 -2.7875 0.0078
-8 -7 14 -2.2119 0.0270
-8 -7 15 -5.9218 -0.0658
-8 -7 16 3.9628 -0.0071
-8 -7 17 -1.3962 0.1452
-8 -7 18 1.1630 0.0062
-8 -6 1 -5.5218 0.8884
-8 -6 2 -1.2239 -0.2529
-8 -6 3 -8.5907 -0.2745
-8 -6 4 10.9028 -0.0828
-8 -6 5 -13.2627 -0.0737
-8 -6 6 -3.4168 -0.0118
-8 -6 7 -19.6698 0.0692
-8 -6 8 -6.7612 0.1018
-8 -6 9 -15.1294 0.0435
-8 -6 10 -0.2075 -0.0681
-8 -6 11 -6.9704 -0.0336
-8 -6 12 -13.9452 0.0508
-8 -6 13 -8.7977 0.0675
-8 -6 14 -2.3325 0.0173
-8 -6 15 -3.6381 0.0065
-8 -6 16 2.5474 -0.0369
-8 -6 17 -1.0336 -0.1366
-8 -6 18 -2.1004 0.2910
-8 -5 1 -12.2844 0.2320
-8 -5 2 -3.9927 0.6505
-8 -5 3 -6.2541 0.1347
-8 -5 4 -11.1704 -0.2942
-8 -5 5 2.6037 -0.2382
-8 -5 6 -9.2185 0.1076
-8 -5 7 -6.0685 0.2419
-8 -5 8 -5.7363 0.0306
-8 -5 9 4.9482 -0.1289
-8 -5 10 5.9793 -0.0334
-8 -5 11 4.9233 0.0181
-8 -5 12 -0.8694 0.0417
-8 -5 13 -1.9930 0.0398
-8 -5 14 4.3031 -0.0131
-8 -5 15 2.9379 -0.0553
-8 -5 16 -3.6280 -0.0481
-8 -5 17 0.2728 -0.0199
-8 -5 18 0.6812 0.0315
-8 -5 19 1.6582 -0.2563
-8 -4 1 -1.5127 0.2454
-8 -4 2 -4.4026 -0.3196
-8 -4 3 18.8883 -0.2363
-8 -4 4 12.1212 0.2477
-8 -4 5 17.5796 0.2431
-8 -4 6 11.1145 -0.0486
-8 -4 7 15.4189 -0.1731
-8 -4 8 1.7800 0.0039
-8 -4 9 22.0713 0.1121
-8 -4 10 11.7683 -0.0409
-8 -4 11 10.5383 -0.0685
-8 -4 12 9.8701 0.0337
-8 -4 13 5.6141 -0.0023
-8 -4 14 5.5959 -0.0500
-8 -4 15 6.9410 0.0194
-8 -4 16 5.6669 0.1171
-8 -4 17 -0.7423 -0.0871
-8 -4 18 -0.3296 -0.3317
-8 -4 19 -1.6478 0.1853
-8 -3 1 15.3254 -1.8027
-8 -3 2 -7.8295 -0.2236
-8 -3 3 8.3281 0.2907
-8 -3 4 6.6753 0.1243
-8 -3 5 2.8670 -0.0437
-8 -3 6 -4.4080 -0.0525
-8 -3 7 -15.8494 -0.0265
-8 -3 8 5.2637 -0.0603
-8 -3 9 -5.9053 0.0209
-8 -3 10 9.2791 0.1725
-8 -3 11 -2.1886 0.0616
-8 -3 12 -6.5081 -0.1935
-8 -3 13 4.6063 -0.1861
-8 -3 14 -1.1117 0.0130
-8 -3 15 0.2750 0.1026
-8 -3 16 -4.5362 0.0347
-8 -3 17 -5.0711 0.0351
-8 -3 18 -2.2538 -0.0353
-8 -2 1 -13.8075 0.7076
-8 -2 2 8.0776 0.2018
-8 -2 3 -15.9818 -0.0300
-8 -2 4 5.5789 0.0560
-8 -2 5 -8.8809 0.0202
-8 -2 6 -9.6755 -0.1418
-8 -2 7 -15.1007 -0.0986
-8 -2 8 5.5868 0.0378
-8 -2 9 -4.8246 0.1005
-8 -2 10 -5.6376 -0.0407
-8 -2 11 -7.0926 -0.0653
-8 -2 12 -11.5512 0.1092
-8 -2 13 -5.9078 0.0988
-8 -2 14 0.5690 -0.1042
-8 -2 15 -0.0324 -0.1284
-8 -2 16 1.8452 0.0079
-8 -2 17 3.1877 0.2184
-8 -2 18 1.1907 0.0668
-8 -1 1 -23.1475 0.8776
-8 -1 2 11.0972 0.2569
-8 -1 3 -1.2794 -0.0987
-8 -1 4 -3.6119 -0.2480
-8 -1 5 1.0885 -0.1010
-8 -1 6 -5.8617 0.1918
-8 -1 7 -11.2721 0.2433
-8 -1 8 -4.0506 -0.0178
-8 -1 9 6.4620 -0.2405
-8 -1 10 -12.8065 -0.0775
-8 -1 11 -0.1871 0.1102
-8 -1 12 -7.0600 0.0489
-8 -1 13 2.2377 0.0092
-8 -1 14 0.0836 0.0806
-8 -1 15 0.1374 0.0176
-8 -1 16 -0.3148 -0.2251
-8 -1 17 -4.5738 -0.2033
-8 -1 18 1.8246 0.0827
-8 0 1 -16.3845 -0.3958
-8 0 2 -21.0007 -0.1314
-8 0 3 3.6334 -0.2001
-8 0 4 -9.2317 -0.0770
-8 0 5 -0.8883 0.0624
-8 0 6 -7.3551 0.0732
-8 0 7 5.6296 0.0042
-8 0 8 10.5924 0.0191
-8 0 9 8.0382 0.0698
-8 0 10 10.7947 -0.0535
-8 0 11 -7.2262 -0.1356
-8 0 12 4.9217 0.0101
-8 0 13 -3.5561 0.1279
-8 0 14 2.9031 0.0026
-8 0 15 -4.2430 -0.0630
-8 0 16 1.1341 0.0563
-8 0 17 1.9896 -0.1741
-8 1 1 12.4837 -0.1086
-8 1 2 2.3510 -0.1342
-8 1 3 2.9054 0.1080
-8 1 4 18.8381 0.2172
-8 1 5 -2.7274 0.0290
-8 1 6 0.3850 -0.2075
-8 1 7 9.8973 -0.1649
-8 1 8 10.9981 0.0339
-8 1 9 8.6552 0.1071
-8 1 10 -5.5117 0.0776
-8 1 11 11.2177 0.0818
-8 1 12 2.0346 -0.0465
-8 1 13 10.6523 -0.1421
-8 1 14 1.0482 -0.0191
-8 1 15 8.1095 0.0842
-8 1 16 -3.1721 -0.0477
-8 1 17 2.4864 -0.3182
-8 2 1 21.9529 -1.0641
-8 2 2 19.1919 0.2343
-8 2 3 2.1003 0.3498
-8 2 4 10.1387 0.0906
-8 2 5 -0.8395 0.0310
-8 2 6 2.5830 0.0254
-8 2 7 -3.4520 -0.0403
-8 2 8 5.8614 -0.1073
-8 2 9 -2.3179 -0.0177
-8 2 10 0.0573 0.0600
-8 2 11 -7.8313 0.0387
-8 2 12 4.4954 0.0169
-8 2 13 -1.4728 0.0146
-8 2 14 -5.1707 -0.0826
-8 2 15 -0.3504 -0.1551
-8 2 16 -1.0216 0.1806
-8 2 17 -0.9466 0.2346
-8 3 1 -6.2586 0.7256
-8 3 2 2.7605 -0.4259
-8 3 3 -1.1831 -0.3417
-8 3 4 2.2513 0.0457
-8 3 5 -8.6821 0.1291
-8 3 6 -8.5478 0.0426
-8 3 7 3.0469 0.0022
-8 3 8 -4.7155 0.0502
-8 3 9 -4.5381 0.0433
-8 3 10 -10.7386 -0.0716
-8 3 11 -2.1155 -0.0843
-8 3 12 -10.0939 -0.0061
-8 3 13 -0.4597 0.0297
-8 3 14 -3.7016 0.1140
-8 3 15 -4.9657 -0.0985
-8 3 16 -1.1660 -0.0398
-8 4 1 -1.7187 0.2101
-8 4 2 -7.6885 0.4128
-8 4 3 -11.0862 0.0941
-8 4 4 1.7769 -0.3138
-8 4 5 -7.8921 -0.2462
-8 4 6 -4.5676 0.0623
-8 4 7 -7.8503 0.2436
-8 4 8 10.0911 0.0676
-8 4 9 -14.5103 -0.1165
-8 4 10 3.0697 -0.0689
-8 4 11 -1.3511 -0.0114
-8 4 12 7.0206 0.0555
-8 4 13 -4.2017 -0.0242
-8 4 14 5.0374 -0.0956
-8 4 15 -0.1456 -0.1462
-8 5 1 -6.3750 0.7188
-8 5 2 9.5165 0.1449
-8 5 3 -4.4330 -0.1173
-8 5 4 -0.7560 0.0421
-8 5 5 1.9529 0.1421
-8 5 6 1.3429 -0.0029
-8 5 7 9.8451 -0.1224
-8 5 8 -0.4499 -0.0144
-8 5 9 11.6686 0.0634
-8 5 10 -5.9863 0.0170
-8 5 11 8.4871 -0.0930
-8 5 12 2.2588 -0.0655
-8 5 13 2.6845 0.0729
-8 5 14 0.7354 0.3079
-8 5 15 4.2266 -0.1805
-8 6 1 21.0083 -1.2233
-8 6 2 1.0608 -0.4574
-8 6 3 23.2012 0.1237
-8 6 4 7.6102 0.1468
-8 6 5 0.9016 0.0418
-8 6 6 11.5332 -0.0560
-8 6 7 9.5133 -0.0813
-8 6 8 -0.2290 0.0055
-8 6 9 2.4064 -0.0355
-8 6 10 6.7353 0.0454
-8 6 11 -1.5199 0.1054
-8 6 12 2.5474 -0.0290
-8 6 13 3.4315 -0.2565
-8 6 14 -1.3989 -0.2109
-8 7 1 5.7900 -0.7091
-8 7 2 -0.6547 -0.0159
-8 7 3 -9.2285 0.1564
-8 7 4 -3.2811 0.1102
-8 7 5 -7.2212 -0.0385
-8 7 6 -16.1971 -0.0494
-8 7 7 8.9500 -0.0750
-8 7 8 -8.3071 -0.0635
-8 7 9 -3.4815 0.1463
-8 7 10 -1.7760 0.1232
-8 7 11 -1.6824 -0.0423
-8 7 12 -5.3954 -0.1133
-8 7 13 -2.4553 0.1583
-8 8 1 -10.0104 1.5527
-8 8 2 -0.2481 0.2959
-8 8 3 -7.7559 -0.0877
-8 8 4 -9.6787 -0.1112
-8 8 5 0.7868 -0.0936
-8 8 6 -3.1950 0.0585
-8 8 7 -8.9978 0.0770
-8 8 8 1.8795 0.0082
-8 8 9 -6.3529 -0.1263
-8 8 10 -2.3212 -0.0713
-8 8 11 1.0159 0.1141
-8 8 12 -0.3908 -0.1041
-8 8 13 -0.8380 0.0471
-8 9 1 -6.6175 -0.0845
-8 9 2 -0.4523 0.1635
-8 9 3 9.1412 -0.0725
-8 9 4 -2.8628 -0.2078
-8 9 5 -4.3765 -0.0669
-8 9 6 4.0065 0.1469
-8 9 7 -4.0440 0.1283
-8 9 8 1.8151 -0.0819
-8 9 9 0.6592 -0.0882
-8 9 10 4.1001 -0.0124
-8 9 11 0.4629 -0.1664
-8 9 12 1.0897 -0.1318
-8 10 1 10.2091 0.0649
-8 10 2 -5.9751 -0.2976
-8 10 3 -0.9530 -0.1347
-8 10 4 6.7612 0.1406
-8 10 5 -0.0295 0.0165
-8 10 6 3.0882 -0.1191
-8 10 7 6.3533 -0.0100
-8 10 8 1.0520 0.0752
-8 10 9 1.8972 0.0140
-8 10 10 0.9947 0.0070
-8 10 11 0.7657 0.0985
-8 11 1 3.1155 -1.0602
-8 11 2 10.0107 0.2018
-8 11 3 -2.3936 0.4378
-8 11 4 5.6745 0.1856
-8 11 5 3.4369 -0.1053
-8 11 6 -0.9160 -0.0718
-8 11 7 -0.4178 -0.0827
-8 11 8 0.5716 -0.0469
-8 11 9 -1.4965 0.1467
-8 11 10 0.3843 0.1114
-8 12 1 -4.9940 0.1911
-8 12 2 -2.3293 -0.1578
-8 12 3 -1.2128 -0.1297
-8 12 4 -7.1687 0.1176
-8 12 5 -0.4610 0.0457
-8 12 6 -3.5197 -0.0099
-8 12 7 -0.4961 0.0100
-8 12 8 -1.5029 0.0073
-8 12 9 0.2759 0.1148
-8 13 1 -4.4813 0.4339
-8 13 2 -4.4122 0.0249
-8 13 3 -0.9823 -0.0734
-8 13 4 -0.4020 -0.1704
-8 13 5 0.1454 -0.1403
-8 13 6 1.1535 0.0119
-8 13 7 -2.2092 0.0421
-8 13 8 -0.6863 0.2638
-8 14 1 1.0558 0.2834
-8 14 2 1.4134 0.4032
-8 14 3 -0.2491 0.0192
-8 14 4 1.6645 -0.1856
-8 14 5 2.2450 0.0705
-8 14 6 2.0090 -0.1960
-8 15 1 3.7999 -0.1527
-8 15 2 1.9522 -0.1977
-8 15 3 3.6829 0.1987
-8 15 4 1.4671 0.0486
-8 15 5 1.1325 -0.2917
-8 16 1 -0.3521 -1.4521
-8 16 2 1.1955 -0.1239
-8 16 3 -2.3332 0.2733
-8 17 1 -0.8172 0.7012
-8 17 2 -0.9373 -0.0159
-7 -16 6 -1.4212 -0.2578
-7 -16 7 -1.0175 -0.0990
-7 -16 8 -1.1280 -0.0444
-7 -16 9 -2.8064 0.1392
-7 -16 10 1.5886 0.1949
-7 -16 11 -0.5612 0.1437
-7 -16 12 0.7907 0.5605
-7 -16 13 1.0413 0.0799
-7 -15 3 -1.5565 -0.1805
-7 -15 4 0.7051 -0.2273
-7 -15 5 -1.7695 -0.1384
-7 -15 6 3.7253 -0.0713
-7 -15 7 -2.2464 0.0986
-7 -15 8 3.4617 -0.0563
-7 -15 9 -1.7182 -0.1157
-7 -15 10 0.8953 0.0266
-7 -15 11 0.7924 0.1387
-7 -15 12 -0.5354 0.2697
-7 -15 13 -1.9869 -0.0622
-7 -15 14 -0.8356 0.0195
-7 -15 15 -3.1188 0.2877
-7 -14 1 1.2812 0.0373
-7 -14 2 0.1006 0.0041
-7 -14 3 -0.7000 -0.2250
-7 -14 4 1.1684 -0.2265
-7 -14 5 -1.0937 0.0434
-7 -14 6 -0.5018 0.1053
-7 -14 7 2.3818 0.0261
-7 -14 8 -2.4201 0.0506
-7 -14 9 1.5451 0.0128
-7 -14 10 0.4545 -0.0334
-7 -14 11 4.4060 -0.1142
-7 -14 13 4.3149 0.1096
-7 -14 14 2.2636 0.0499
-7 -14 15 3.3309 0.2032
-7 -14 16 0.2109 -0.2440
-7 -13 1 -2.9412 -0.0651
-7 -13 2 0.3441 -0.1849
-7 -13 3 -1.5723 0.0091
-7 -13 4 -0.9094 0.0616
-7 -13 5 0.9949 -0.0319
-7 -13 6 0.6972 -0.1243
-7 -13 7 6.6001 -0.0054
-7 -13 8 -1.3731 0.1204
-7 -13 9 3.0352 0.0694
-7 -13 10 -1.2599 0.1014
-7 -13 11 2.2912 -0.0022
-7 -13 12 4.9950 -0.0270
-7 -13 13 1.7687 0.0295
-7 -13 14 2.2423 0.0349
-7 -13 15 0.5588 0.0815
-7 -13 16 -1.3401 -0.0912
-7 -13 17 -0.0268 -0.2942
-7 -12 1 -0.0901 -1.1336
-7 -12 2 -0.6500 0.0622
-7 -12 3 5.1172 0.2840
-7 -12 4 -1.6308 0.0624
-7 -12 5 -0.5403 0.0343
-7 -12 6 2.1261 0.0299
-7 -12 7 0.5889 -0.1002
-7 -12 8 -4.1552 -0.0695
-7 -12 9 0.1416 0.0846
-7 -12 10 -5.8062 0.1367
-7 -12 11 -1.1060 0.0885
-7 -12 12 -2.7033 0.0251
-7 -12 13 -3.3562 -0.0105
-7 -12 14 -3.8401 -0.0776
-7 -12 15 -0.8149 -0.0321
-7 -12 16 -4.1515 0.0734
-7 -12 17 -2.5028 0.0325
-7 -12 18 0.8333 -0.2005
-7 -11 1 0.5823 0.3245
-7 -11 2 -2.0347 -0.4299
-7 -11 3 -2.4354 -0.2515
-7 -11 4 -3.8034 0.0973
-7 -11 5 -7.8815 0.1437
-7 -11 6 -2.9765 0.0112
-7 -11 7 0.2048 -0.0599
-7 -11 8 -0.4196 0.0946
-7 -11 9 -4.9270 0.0638
-7 -11 10 0.5790 0.0191
-7 -11 11 -6.4923 -0.0571
-7 -11 12 2.4913 -0.0346
-7 -11 13 -3.1239 -0.0512
-7 -11 14 -1.2638 -0.1109
-7 -11 15 -0.9970 -0.0128
-7 -11 16 -1.6512 0.1141
-7 -11 17 -1.6977 -0.0123
-7 -11 18 1.5874 0.0635
-7 -11 19 3.0932 0.4834
-7 -10 1 -3.1766 0.3869
-7 -10 2 2.3833 0.4058
-7 -10 3 -2.2525 0.0555
-7 -10 4 0.4422 -0.3222
-7 -10 5 -3.2248 -0.2343
-7 -10 6 0.2269 0.1678
-7 -10 7 1.4660 0.1892
-7 -10 8 1.5160 0.0303
-7 -10 9 1.8586 -0.1315
-7 -10 10 3.7044 -0.0581
-7 -10 11 5.8009 -0.0103
-7 -10 12 -0.1703 0.0086
-7 -10 13 2.4889 0.0846
-7 -10 14 0.2730 0.1018
-7 -10 15 0.1409 -0.0027
-7 -10 16 3.4323 -0.0392
-7 -10 17 0.8051 0.0088
-7 -10 18 1.1887 0.2765
-7 -10 19 2.9705 -0.0209
-7 -9 1 2.3333 0.8124
-7 -9 2 6.2238 0.1484
-7 -9 3 1.8544 -0.0893
-7 -9 4 1.6079 0.0462
-7 -9 5 0.4370 0.0654
-7 -9 6 -0.3172 0.0635
-7 -9 7 3.0969 0.0616
-7 -9 8 5.8251 0.0802
-7 -9 9 2.9736 0.0003
-7 -9 10 3.4590 -0.1438
-7 -9 11 6.6179 -0.0915
-7 -9 12 4.5492 0.0761
-7 -9 13 2.8402 0.1055
-7 -9 14 4.3621 -0.0302
-7 -9 15 2.3690 -0.0557
-7 -9 16 -4.4179 0.0433
-7 -9 17 3.5997 0.1066
-7 -9 18 -1.9255 0.1197
-7 -9 19 1.2349 -0.1156
-7 -8 1 1.8660 -1.0610
-7 -8 2 2.5069 -0.3481
-7 -8 3 -2.8187 0.0685
-7 -8 4 0.1795 0.1982
-7 -8 5 -1.9760 0.1124
-7 -8 6 5.5085 -0.0123
-7 -8 7 -1.0606 -0.0780
-7 -8 8 -4.7798 -0.0892
-7 -8 9 3.2535 -0.0113
-7 -8 10 -8.4395 0.0758
-7 -8 11 6.8415 0.0668
-7 -8 12 -0.8834 -0.0860
-7 -8 13 -2.5425 -0.1481
-7 -8 14 -6.5210 0.0523
-7 -8 15 1.0806 0.1509
-7 -8 16 -4.4705 0.0878
-7 -8 17 0.4006 -0.0127
-7 -8 18 3.8741 -0.0064
-7 -8 19 -2.6049 -0.1207
-7 -7 1 5.9694 -0.8264
-7 -7 2 -5.6289 0.0455
-7 -7 3 3.3175 0.2240
-7 -7 4 -11.5411 0.1615
-7 -7 5 0.9730 -0.0213
-7 -7 6 -10.2425 -0.1316
-7 -7 7 -1.7047 -0.0946
-7 -7 8 -6.4441 -0.0138
-7 -7 9 -8.7107 0.1052
-7 -7 10 -6.0558 0.0800
-7 -7 11 -5.0387 -0.0108
-7 -7 12 0.0896 -0.0273
-7 -7 13 -8.7075 -0.0102
-7 -7 14 -4.8404 0.0422
-7 -7 15 -3.7803 0.0299
-7 -7 16 1.8790 -0.0383
-7 -7 17 -3.8639 -0.1118
-7 -7 18 -0.5145 -0.1921
-7 -7 19 -0.2923 -0.1549
-7 -6 1 0.8958 1.4190
-7 -6 2 1.8668 0.1245
-7 -6 3 -16.2348 -0.1271
-7 -6 4 3.5628 -0.0407
-7 -6 5 -10.1377 -0.0203
-7 -6 6 13.1319 -0.0637
-7 -6 7 -0.4792 0.0106
-7 -6 8 5.4100 0.0012
-7 -6 9 -4.1461 -0.0585
-7 -6 10 -0.3597 -0.0777
-7 -6 11 8.3408 -0.0095
-7 -6 12 0.9339 0.0673
-7 -6 13 5.0297 0.0370
-7 -6 14 1.6380 -0.0141
-7 -6 15 -4.0052 -0.0204
-7 -6 16 3.8136 -0.0137
-7 -6 17 -0.4033 -0.0939
-7 -6 18 0.5696 0.0529
-7 -6 19 0.6252 0.2201
-7 -5 1 -4.0535 -0.1547
-7 -5 2 10.1743 0.1992
-7 -5 3 -3.2844 -0.0652
-7 -5 4 -0.3785 -0.3403
-7 -5 5 11.1536 -0.1167
-7 -5 6 9.1826 0.2377
-7 -5 7 7.9760 0.2112
-7 -5 8 7.9487 -0.0788
-7 -5 9 -3.2782 -0.1781
-7 -5 10 4.4925 -0.0274
-7 -5 11 9.8511 0.0682
-7 -5 12 8.4207 -0.0075
-7 -5 13 -1.5797 0.0176
-7 -5 14 5.1079 -0.0133
-7 -5 15 2.3796 -0.0474
-7 -5 16 1.7459 -0.0176
-7 -5 17 3.3654 0.0513
-7 -5 18 -0.8690 0.1991
-7 -5 19 -0.7841 -0.1284
-7 -4 1 -2.7243 0.3137
-7 -4 2 -5.7844 -0.2993
-7 -4 3 0.0738 -0.2106
-7 -4 4 -12.9114 0.0965
-7 -4 5 1.0626 0.0938
-7 -4 6 -2.4986 -0.1613
-7 -4 7 2.2623 -0.0919
-7 -4 8 -20.2592 0.1770
-7 -4 9 3.1912 0.1253
-7 -4 10 -10.8258 -0.0928
-7 -4 11 2.7371 -0.1201
-7 -4 12 1.2685 0.0165
-7 -4 13 -4.4141 0.0376
-7 -4 14 2.5619 -0.0482
-7 -4 15 2.4489 -0.0388
-7 -4 16 0.7416 0.0461
-7 -4 17 -0.6272 0.0559
-7 -4 18 0.5980 -0.2764
-7 -4 19 0.9155 -0.2519
-7 -3 1 18.0676 -0.9274
-7 -3 2 -18.2314 0.2166
-7 -3 3 11.0725 0.4431
-7 -3 4 -2.1217 0.0765
-7 -3 5 4.0096 -0.1103
-7 -3 6 7.3138 -0.0233
-7 -3 7 -2.9560 -0.0395
-7 -3 8 1.8316 -0.0962
-7 -3 9 -7.7050 -0.0123
-7 -3 10 4.7884 0.1509
-7 -3 11 -3.3562 0.1248
-7 -3 12 -3.3826 -0.0811
-7 -3 13 -2.5572 -0.1137
-7 -3 14 -4.3150 0.0722
-7 -3 15 1.8361 0.1085
-7 -3 16 1.1062 -0.0058
-7 -3 17 1.8434 -0.0726
-7 -3 18 -0.3982 -0.1070
-7 -3 19 -0.4247 -0.1136
-7 -2 1 15.7898 -0.1442
-7 -2 2 4.6180 -0.3373
-7 -2 3 -12.1924 -0.1213
-7 -2 4 10.4839 0.2112
-7 -2 5 5.1007 0.2341
-7 -2 6 7.8610 -0.0150
-7 -2 7 -4.7520 -0.1780
-7 -2 8 -5.0054 0.0125
-7 -2 9 -9.1246 0.1323
-7 -2 10 -2.8290 -0.0010
-7 -2 11 -1.3432 -0.0687
-7 -2 12 -9.6699 0.0245
-7 -2 13 -5.2888 0.0584
-7 -2 14 -1.1617 -0.0712
-7 -2 15 -2.7017 -0.0248
-7 -2 16 -5.2005 0.1048
-7 -2 17 -3.7952 0.0598
-7 -2 18 -2.6260 -0.3027
-7 -1 1 -30.2611 0.3373
-7 -1 2 -4.2099 -0.0236
-7 -1 3 -23.9175 -0.0998
-7 -1 4 -11.5693 -0.1981
-7 -1 5 -4.0839 -0.1678
-7 -1 6 -0.1108 0.0672
-7 -1 7 -14.5922 0.1775
-7 -1 8 -3.9300 -0.0041
-7 -1 9 8.2322 -0.0882
-7 -1 10 -3.0038 0.0029
-7 -1 11 6.9718 0.0884
-7 -1 12 -4.4981 0.0182
-7 -1 13 3.3252 -0.0248
-7 -1 14 0.7828 0.0275
-7 -1 15 1.4403 -0.0361
-7 -1 16 3.3308 -0.1731
-7 -1 17 -1.8164 0.0906
-7 -1 18 4.1070 0.4362
-7 0 1 -2.4703 0.6773
-7 0 2 -2.2062 0.6129
-7 0 3 9.4075 -0.0037
-7 0 4 -8.0807 -0.2171
-7 0 5 11.3882 -0.1594
-7 0 6 5.4510 0.0702
-7 0 7 5.7270 0.1151
-7 0 8 3.8224 0.0058
-7 0 9 7.7626 -0.0713
-7 0 10 14.6989 -0.0944
-7 0 11 -2.3293 -0.0488
-7 0 12 9.0612 0.1270
-7 0 13 2.3696 0.1155
-7 0 14 14.1066 -0.0385
-7 0 15 -1.4672 -0.1059
-7 0 16 3.3518 -0.0898
-7 0 17 -0.5960 -0.1869
-7 0 18 0.7250 -0.1886
-7 1 1 9.3350 0.1143
-7 1 2 5.4530 -0.3446
-7 1 3 8.8287 -0.1630
-7 1 4 16.2244 0.1709
-7 1 5 9.3061 0.2307
-7 1 6 3.5667 -0.0010
-7 1 7 0.5308 -0.1091
-7 1 8 -4.4785 -0.0245
-7 1 9 2.8469 -0.0220
-7 1 10 -5.5114 0.0094
-7 1 11 3.1861 0.0172
-7 1 12 -7.4326 -0.0188
-7 1 13 0.4955 -0.0663
-7 1 14 -2.8195 0.0001
-7 1 15 1.1419 0.1097
-7 1 16 -5.2002 0.1289
-7 1 17 1.0398 -0.0675
-7 2 1 -5.5577 -1.9416
-7 2 2 1.6288 -0.3119
-7 2 3 -5.0228 0.2508
-7 2 4 -1.3121 0.1811
-7 2 5 -2.3126 -0.0104
-7 2 6 -5.3750 -0.0857
-7 2 7 -12.3180 -0.0722
-7 2 8 -4.5384 -0.0050
-7 2 9 -2.9343 0.0847
-7 2 10 -5.4624 0.1439
-7 2 11 -10.6308 0.0025
-7 2 12 -1.0851 -0.1369
-7 2 13 -1.2480 -0.0532
-7 2 14 -4.7376 0.0038
-7 2 15 0.9730 0.0103
-7 2 16 -4.7621 0.1316
-7 2 17 -2.7445 -0.1409
-7 3 1 -23.4563 0.8029
-7 3 2 -2.9205 0.1013
-7 3 3 -11.1308 -0.0530
-7 3 4 -8.4919 0.0403
-7 3 5 -1.3482 0.0232
-7 3 6 -4.1661 -0.0819
-7 3 7 1.4515 -0.1280
-7 3 8 -13.8770 0.0366
-7 3 9 0.8613 0.0771
-7 3 10 -6.5826 -0.0235
-7 3 11 1.2286 0.0000
-7 3 12 -2.3804 0.0832
-7 3 13 9.4913 0.0514
-7 3 14 0.6837 0.1115
-7 3 15 0.3462 -0.0985
-7 3 16 4.7060 0.0487
-7 4 1 -1.4377 0.4128
-7 4 2 -2.4788 0.2921
-7 4 3 -4.6046 -0.0036
-7 4 4 3.3685 -0.2695
-7 4 5 5.3040 -0.1400
-7 4 6 3.7075 0.1946
-7 4 7 0.3853 0.2739
-7 4 8 21.4223 -0.0745
-7 4 9 -6.0853 -0.1894
-7 4 10 12.4050 -0.0477
-7 4 11 -0.3810 0.0706
-7 4 12 6.9956 0.0332
-7 4 13 -1.8532 -0.0149
-7 4 14 5.4497 0.0277
-7 4 15 -0.2972 0.2591
-7 4 16 0.0184 0.0892
-7 5 1 -10.7203 0.3914
-7 5 2 25.3765 -0.1990
-7 5 3 -6.0501 -0.3842
-7 5 4 5.1302 -0.0849
-7 5 5 9.9652 0.1521
-7 5 6 4.7630 0.0698
-7 5 7 1.7772 -0.0688
-7 5 8 2.8589 0.0625
-7 5 9 7.8498 0.1198
-7 5 10 -11.6694 0.0273
-7 5 11 4.1664 -0.0768
-7 5 12 0.3479 -0.0167
-7 5 13 1.1461 0.0877
-7 5 14 -1.3635 0.2245
-7 5 15 1.5143 -0.0181
-7 6 1 6.1159 -0.4359
-7 6 2 -7.9365 -0.0432
-7 6 3 9.6509 0.2947
-7 6 4 -4.6749 0.1467
-7 6 5 -12.3091 -0.0898
-7 6 6 1.1076 -0.1581
-7 6 7 -9.1825 -0.0268
-7 6 8 -4.8163 0.0651
-7 6 9 -4.0009 -0.0159
-7 6 10 -2.7418 0.0215
-7 6 11 -7.2393 0.0555
-7 6 12 -0.1102 0.0705
-7 6 13 -0.4747 0.0712
-7 6 14 -4.8372 -0.0016
-7 7 1 -1.8615 -0.6751
-7 7 2 -0.8151 0.0743
-7 7 3 -5.8486 0.1711
-7 7 4 5.7695 0.1672
-7 7 5 2.6789 0.0582
-7 7 6 -9.5124 -0.0262
-7 7 7 10.4109 -0.1346
-7 7 8 -7.8301 -0.0888
-7 7 9 2.1073 0.0712
-7 7 10 -2.7280 0.0347
-7 7 11 -0.2896 -0.0232
-7 7 12 -1.5212 -0.0067
-7 7 13 1.5161 0.1702
-7 7 14 -0.0254 -0.0125
-7 8 1 0.8354 0.3143
-7 8 2 0.8123 -0.2582
-7 8 3 1.8748 -0.1864
-7 8 4 -3.2340 0.0346
-7 8 5 7.4230 0.0609
-7 8 6 -1.8782 0.0367
-7 8 7 -2.0648 0.0281
-7 8 8 7.0872 0.0119
-7 8 9 -3.1081 0.0443
-7 8 10 0.3922 0.0446
-7 8 11 3.0148 0.0194
-7 8 12 0.5265 -0.1041
-7 8 13 -0.8324 0.1357
-7 9 1 -12.2096 0.2854
-7 9 2 2.8596 0.4421
-7 9 3 3.6885 -0.0097
-7 9 4 -5.6232 -0.2718
-7 9 5 0.9034 -0.2190
-7 9 6 6.1381 0.0506
-7 9 7 -1.8854 0.1019
-7 9 8 5.4617 0.0418
-7 9 9 1.7786 0.0291
-7 9 10 2.1103 -0.0881
-7 9 11 0.6545 -0.0565
-7 9 12 0.7598 0.1025
-7 10 1 11.4708 1.0448
-7 10 2 -2.5270 0.0507
-7 10 3 7.3107 -0.1194
-7 10 4 4.7816 0.0307
-7 10 5 -3.8558 0.0935
-7 10 6 2.1620 -0.0130
-7 10 7 0.2159 0.0300
-7 10 8 -0.9223 -0.0493
-7 10 9 -1.5590 -0.0762
-7 10 10 -0.7172 -0.0744
-7 10 11 -1.5112 -0.1015
-7 11 1 0.2754 -1.4968
-7 11 2 5.7781 -0.3056
-7 11 3 -5.0112 0.1382
-7 11 4 -0.1824 0.2047
-7 11 5 -4.3434 0.0891
-7 11 6 -3.1519 -0.1188
-7 11 7 -1.1314 0.0182
-7 11 8 -1.1121 0.0812
-7 11 9 -2.4972 0.0050
-7 11 10 -2.2820 -0.3843
-7 12 1 -2.8677 -0.2499
-7 12 2 -1.3509 -0.0357
-7 12 3 0.4399 0.0734
-7 12 4 -4.8171 0.1181
-7 12 5 -1.5133 0.0258
-7 12 6 -0.6250 -0.1378
-7 12 7 1.1792 -0.1615
-7 12 8 -2.2787 -0.0765
-7 12 9 0.6367 0.2965
-7 13 1 0.0029 0.7851
-7 13 2 0.0831 0.2126
-7 13 3 2.1027 0.0095
-7 13 4 -1.1974 -0.0296
-7 13 5 0.4942 -0.0558
-7 13 6 1.2797 -0.1738
-7 13 7 2.2483 0.0699
-7 13 8 1.1798 0.4913
-7 14 1 1.6900 0.1516
-7 14 2 2.5522 0.0808
-7 14 3 -1.0486 -0.2476
-7 14 4 -0.8491 -0.2541
-7 14 5 0.9567 0.1164
-7 14 6 2.3979 0.1056
-7 15 1 0.6274 0.1032
-7 15 2 -0.0265 -0.2546
-7 15 3 1.9095 0.1037
-7 15 4 -2.5930 0.0748
-7 15 5 -0.9359 -0.0836
-7 16 1 -2.6060 -0.9224
-7 16 2 -0.4535 0.1513
-7 16 3 0.6033 0.3385
-7 17 1 1.8725 0.3705
-7 17 2 0.3803 0.1402
-6 -16 4 -1.0087 0.3194
-6 -16 5 1.7634 0.0313
-6 -16 6 -1.4047 -0.0607
-6 -16 7 -1.3146 -0.1434
-6 -16 8 -2.8702 -0.0853
-6 -16 9 -2.0287 -0.1855
-6 -16 10 -0.9063 -0.0809
-6 -16 11 -2.6377 -0.2675
-6 -16 12 0.5640 -0.0832
-6 -16 13 -0.8593 0.1680
-6 -16 14 -2.5946 -0.0134
-6 -16 15 -0.0744 0.2440
-6 -15 1 0.0103 0.0618
-6 -15 2 -0.2912 0.0676
-6 -15 3 0.0541 -0.0219
-6 -15 4 0.5882 -0.0927
-6 -15 5 -2.5361 -0.0607
-6 -15 6 2.5648 0.0240
-6 -15 7 -4.0764 -0.0373
-6 -15 8 4.0957 0.0558
-6 -15 9 -1.3095 0.0089
-6 -15 10 2.2679 0.0013
-6 -15 11 0.5471 -0.0871
-6 -15 12 3.1613 -0.0819
-6 -15 13 1.9183 0.0827
-6 -15 14 3.0905 -0.0105
-6 -15 15 2.2456 0.0554
-6 -15 16 3.5319 0.4439
-6 -14 1 1.9956 0.7154
-6 -14 2 -0.2286 0.3256
-6 -14 3 -1.1280 -0.1364
-6 -14 4 3.6573 -0.2717
-6 -14 5 0.9047 -0.1723
-6 -14 6 1.4597 0.0700
-6 -14 7 4.1491 0.0254
-6 -14 8 2.5669 -0.0256
-6 -14 9 1.1527 -0.1655
-6 -14 10 1.6862 -0.0727
-6 -14 11 -1.3667 0.0370
-6 -14 12 -0.0919 0.0814
-6 -14 13 1.3897 0.0889
-6 -14 14 1.8008 -0.0447
-6 -14 15 1.9952 0.0130
-6 -14 16 1.7626 0.2502
-6 -14 17 -1.1811 -0.1552
-6 -13 1 -0.6989 0.3149
-6 -13 2 7.1106 -0.1692
-6 -13 3 -2.5114 -0.1534
-6 -13 4 2.1054 0.0775
-6 -13 5 -0.2243 0.1063
-6 -13 6 -5.1180 0.0265
-6 -13 7 0.9018 -0.0841
-6 -13 8 -2.9435 -0.0411
-6 -13 9 -2.9748 -0.0548
-6 -13 10 -2.3068 -0.0154
-6 -13 11 -4.1871 0.0555
-6 -13 12 -4.2611 -0.0040
-6 -13 13 -3.3626 0.0671
-6 -13 14 -3.0466 0.1026
-6 -13 15 -1.9723 0.0873
-6 -13 16 -1.3990 0.0238
-6 -13 17 -1.4171 -0.2375
-6 -13 18 -2.4280 -0.1772
-6 -12 1 -3.4208 -1.4515
-6 -12 2 -3.0807 -0.1993
-6 -12 3 2.4892 0.2557
-6 -12 4 -6.2360 0.1494
-6 -12 5 -0.4760 -0.1416
-6 -12 6 -6.1820 -0.0798
-6 -12 7 -2.1159 -0.0377
-6 -12 8 -4.9610 0.0040
-6 -12 9 0.9291 0.1031
-6 -12 10 -6.5237 0.0605
-6 -12 11 -0.9389 0.0518
-6 -12 12 -4.0346 -0.0647
-6 -12 13 -0.9653 -0.0492
-6 -12 14 -1.5931 0.0695
-6 -12 15 2.4042 -0.0058
-6 -12 16 -0.9131 0.0142
-6 -12 17 -1.4751 0.0644
-6 -12 18 -1.4349 -0.1849
-6 -12 19 -3.3317 -0.5319
-6 -11 1 0.2529 0.4761
-6 -11 2 -3.2343 -0.0299
-6 -11 3 4.1128 -0.0563
-6 -11 4 0.5459 0.1445
-6 -11 5 -1.4571 0.0468
-6 -11 6 0.0814 -0.1720
-6 -11 7 4.5814 -0.1603
-6 -11 8 0.1302 0.0387
-6 -11 9 2.0461 0.1423
-6 -11 10 7.6955 -0.0119
-6 -11 11 -2.4188 0.0063
-6 -11 12 6.9745 0.0983
-6 -11 13 -1.3880 0.0520
-6 -11 14 1.3356 -0.0761
-6 -11 15 1.9053 -0.1001
-6 -11 16 0.2190 -0.0224
-6 -11 17 -2.2910 0.0324
-6 -11 18 -2.9441 -0.1571
-6 -11 19 1.4294 0.2949
-6 -10 1 -0.7422 0.2815
-6 -10 2 -0.4115 0.2024
-6 -10 3 0.8010 -0.0683
-6 -10 4 4.7432 -0.2177
-6 -10 5 0.1873 -0.1200
-6 -10 6 1.3553 0.2277
-6 -10 7 2.9966 0.2154
-6 -10 8 5.6468 -0.0980
-6 -10 9 -0.0128 -0.1554
-6 -10 10 4.2317 -0.0029
-6 -10 11 1.3195 0.0530
-6 -10 12 3.6007 -0.0236
-6 -10 13 5.7838 -0.0513
-6 -10 14 1.9727 0.0369
-6 -10 15 2.0465 0.0343
-6 -10 16 6.0887 -0.0655
-6 -10 17 -0.3463 -0.0039
-6 -10 18 -0.1446 0.1759
-6 -10 19 2.1117 0.4036
-6 -9 1 -3.3883 0.4606
-6 -9 2 3.0021 -0.0462
-6 -9 3 0.7797 -0.2717
-6 -9 4 2.5506 -0.1093
-6 -9 5 0.1410 0.0593
-6 -9 6 -1.2116 0.0113
-6 -9 7 -3.0379 0.0311
-6 -9 8 0.7874 0.0740
-6 -9 9 -3.4181 0.0835
-6 -9 10 1.8968 -0.1247
-6 -9 11 -2.8352 -0.1438
-6 -9 12 0.3317 0.0075
-6 -9 13 -2.6031 0.0454
-6 -9 14 -1.7631 -0.0748
-6 -9 15 -3.5653 -0.1131
-6 -9 16 -2.2952 -0.0229
-6 -9 17 3.5311 0.1638
-6 -9 18 -5.0251 0.0056
-6 -9 19 1.8064 -0.0605
-6 -8 1 1.0874 -0.1999
-6 -8 2 5.8034 0.0436
-6 -8 3 4.5196 0.1711
-6 -8 4 4.1225 0.0634
-6 -8 5 -4.6979 -0.0935
-6 -8 6 -0.0239 -0.1150
-6 -8 7 -0.6710 0.0038
-6 -8 8 -3.5885 -0.0010
-6 -8 9 6.0393 -0.0318
-6 -8 10 -11.7119 0.0344
-6 -8 11 -3.6778 0.0457
-6 -8 12 -4.9276 -0.0227
-6 -8 13 -2.9402 -0.0714
-6 -8 14 -8.8736 0.0434
-6 -8 15 0.2301 0.0721
-6 -8 16 -7.7265 0.0349
-6 -8 17 0.0814 -0.0654
-6 -8 18 0.1482 -0.0642
-6 -8 19 -3.7106 -0.0754
-6 -7 1 2.9872 -0.9374
-6 -7 2 -7.8991 0.0182
-6 -7 3 10.5800 0.2178
-6 -7 4 -10.1437 0.1414
-6 -7 5 2.4783 0.1142
-6 -7 6 -6.0209 -0.0074
-6 -7 7 -0.9619 -0.1018
-6 -7 8 -2.9563 -0.0726
-6 -7 9 0.7738 -0.0014
-6 -7 10 0.1228 0.0359
-6 -7 11 -7.9351 0.0030
-6 -7 12 8.2177 -0.0144
-6 -7 13 -1.2843 -0.0201
-6 -7 14 -0.1628 0.0025
-6 -7 15 0.9919 -0.0018
-6 -7 16 0.0208 0.0761
-6 -7 17 -1.5991 0.0644
-6 -7 18 -0.6750 0.0235
-6 -7 19 -1.6125 -0.2988
-6 -6 1 -4.7012 0.3096
-6 -6 2 -1.6491 -0.4715
-6 -6 3 -5.6325 -0.2114
-6 -6 4 6.2149 0.1733
-6 -6 5 -17.7918 0.1616
-6 -6 6 5.1624 -0.0703
-6 -6 7 -2.1890 -0.0703
-6 -6 8 2.7077 0.0396
-6 -6 9 9.8924 0.0658
-6 -6 10 -2.9149 0.0289
-6 -6 11 4.9717 -0.0562
-6 -6 12 1.4455 -0.0133
-6 -6 13 9.6370 -0.0591
-6 -6 14 1.9412 -0.0112
-6 -6 15 0.9300 0.0389
-6 -6 16 7.6933 0.0343
-6 -6 17 1.0899 -0.1320
-6 -6 18 1.6501 -0.0675
-6 -6 19 0.2546 0.2275
-6 -5 1 -8.7021 0.2701
-6 -5 2 9.3943 0.5882
-6 -5 3 -4.8581 0.1477
-6 -5 4 4.4205 -0.3903
-6 -5 5 -1.6625 -0.3328
-6 -5 6 1.6507 0.0993
-6 -5 7 0.8440 0.1745
-6 -5 8 6.5932 -0.0028
-6 -5 9 -3.9664 -0.0741
-6 -5 10 4.4938 -0.0514
-6 -5 11 -0.8207 0.0406
-6 -5 12 6.8618 0.0535
-6 -5 13 0.8782 0.0631
-6 -5 14 6.5503 0.0770
-6 -5 15 1.5600 -0.0414
-6 -5 16 4.8247 -0.0579
-6 -5 17 2.7480 -0.0399
-6 -5 18 0.9896 0.0949
-6 -5 19 0.0819 0.0642
-6 -4 1 -1.9072 1.3611
-6 -4 2 21.2861 0.1142
-6 -4 3 14.7095 -0.2154
-6 -4 4 4.1311 -0.0233
-6 -4 5 8.2800 0.1358
-6 -4 6 1.7013 0.0056
-6 -4 7 12.5440 0.0112
-6 -4 8 -4.9642 0.0498
-6 -4 9 8.4372 -0.0264
-6 -4 10 -10.9679 -0.1280
-6 -4 11 0.2792 -0.0739
-6 -4 12 -0.5136 0.1433
-6 -4 13 -11.5351 0.1158
-6 -4 14 -5.9718 -0.0627
-6 -4 15 -5.1190 -0.0987
-6 -4 16 -3.0486 -0.0304
-6 -4 17 -3.5820 0.1830
-6 -4 18 -2.9557 0.0916
-6 -4 19 -2.8386 0.2275
-6 -3 1 14.3784 -1.3824
-6 -3 2 -12.2283 -0.3299
-6 -3 3 12.4182 0.1757
-6 -3 4 -8.8955 0.1752
-6 -3 5 -3.1392 0.0279
-6 -3 6 1.5142 0.0110
-6 -3 7 -2.8037 0.0372
-6 -3 8 -6.9085 -0.0835
-6 -3 9 -15.5263 -0.0122
-6 -3 10 -4.8541 0.1820
-6 -3 11 -10.7938 0.1157
-6 -3 12 -2.5242 -0.1012
-6 -3 13 -9.5764 -0.2143
-6 -3 14 -8.1663 0.0311
-6 -3 15 -0.7639 0.2154
-6 -3 16 -3.7343 0.0363
-6 -3 17 -2.2773 -0.0363
-6 -3 18 -3.3316 -0.0732
-6 -3 19 -1.4614 -0.2604
-6 -2 1 -4.9477 -0.4496
-6 -2 2 -19.7398 -0.1248
-6 -2 3 -22.0203 0.1261
-6 -2 4 -13.5773 0.1970
-6 -2 5 -12.4267 0.0704
-6 -2 6 -12.6658 -0.2261
-6 -2 7 1.5983 -0.2617
-6 -2 8 -5.4160 0.1031
-6 -2 9 -0.6132 0.2500
-6 -2 10 6.3293 0.0893
-6 -2 11 11.5061 -0.1095
-6 -2 12 5.5229 -0.0172
-6 -2 13 1.7042 0.0722
-6 -2 14 2.7174 -0.0948
-6 -2 15 7.9674 -0.0675
-6 -2 16 4.8881 0.1148
-6 -2 17 3.7403 0.1233
-6 -2 18 -0.5117 -0.2604
-6 -2 19 -0.6248 -0.3973
-6 -1 1 5.6767 0.7976
-6 -1 2 16.1278 0.2438
-6 -1 3 -4.4492 0.0166
-6 -1 4 7.5233 -0.0890
-6 -1 5 7.3196 -0.0649
-6 -1 6 18.8976 0.0537
-6 -1 7 10.1779 0.1171
-6 -1 8 15.3941 -0.0739
-6 -1 9 12.4094 -0.1894
-6 -1 10 2.5733 -0.0677
-6 -1 11 13.5721 0.0796
-6 -1 12 0.7296 0.0397
-6 -1 13 4.6110 0.0325
-6 -1 14 0.2829 0.0685
-6 -1 15 7.6835 0.0942
-6 -1 16 3.8070 -0.1220
-6 -1 17 -3.1276 -0.2375
-6 -1 18 0.5161 0.2223
-6 0 1 12.8268 0.0932
-6 0 2 10.6503 0.0793
-6 0 3 14.8908 -0.2495
-6 0 4 4.5479 -0.3199
-6 0 5 13.2267 -0.0228
-6 0 6 6.8057 0.2364
-6 0 7 -1.4247 0.1207
-6 0 8 -10.4080 -0.0168
-6 0 9 -7.1482 -0.0536
-6 0 10 0.2615 -0.1038
-6 0 11 -6.8537 -0.0951
-6 0 12 -0.9081 0.0647
-6 0 13 -10.1632 0.1474
-6 0 14 3.2537 -0.0143
-6 0 15 -7.2650 -0.1436
-6 0 16 4.1565 -0.0252
-6 0 17 -2.8941 0.1361
-6 0 18 -2.3661 -0.1154
-6 1 1 1.7495 0.4918
-6 1 2 -6.9791 -0.2150
-6 1 3 0.7836 -0.1581
-6 1 4 4.3418 0.0495
-6 1 5 -9.7760 0.0148
-6 1 6 -0.3651 -0.1274
-6 1 7 1.9333 -0.0556
-6 1 8 -2.3454 0.0876
-6 1 9 -3.3658 0.0472
-6 1 10 -7.2812 0.0183
-6 1 11 -1.4513 0.0305
-6 1 12 -11.3690 -0.0207
-6 1 13 -6.8937 -0.0305
-6 1 14 -0.6384 0.0247
-6 1 15 -0.0447 0.0634
-6 1 16 -2.4144 -0.0650
-6 1 17 -1.8478 -0.4129
-6 2 1 -10.1617 -0.9345
-6 2 2 -16.1651 0.1688
-6 2 3 -1.2658 0.4726
-6 2 4 -3.8625 0.1719
-6 2 5 -0.5807 -0.0807
-6 2 6 7.2902 -0.0700
-6 2 7 0.0741 -0.0935
-6 2 8 -0.5353 -0.0636
-6 2 9 -2.2983 0.0216
-6 2 10 -1.5392 0.1006
-6 2 11 -3.8293 0.0167
-6 2 12 2.3289 -0.0477
-6 2 13 0.3978 0.0359
-6 2 14 0.1941 -0.0229
-6 2 15 5.0635 -0.0654
-6 2 16 -1.5555 0.2640
-6 2 17 2.7894 0.1615
-6 3 1 -15.5182 -0.0634
-6 3 2 -13.8657 -0.4284
-6 3 3 -0.1741 -0.2284
-6 3 4 -1.7199 0.2282
-6 3 5 -8.5927 0.2878
-6 3 6 -4.5488 0.0101
-6 3 7 14.9731 -0.1332
-6 3 8 -3.4343 0.0120
-6 3 9 19.6093 0.0527
-6 3 10 4.5865 0.0245
-6 3 11 6.7214 -0.0223
-6 3 12 -2.9699 -0.0674
-6 3 13 6.5466 -0.1115
-6 3 14 0.3437 0.0534
-6 3 15 1.0680 -0.1155
-6 3 16 2.9867 -0.1611
-6 4 1 6.9359 -0.2585
-6 4 2 -7.8841 0.1510
-6 4 3 13.9839 0.0576
-6 4 4 0.5874 -0.2152
-6 4 5 6.8600 -0.2427
-6 4 6 -0.4289 0.0473
-6 4 7 1.5751 0.1762
-6 4 8 7.6117 0.0274
-6 4 9 -13.2341 -0.0633
-6 4 10 7.2334 -0.0308
-6 4 11 -10.3170 0.0709
-6 4 12 -0.5452 0.0324
-6 4 13 -0.9586 -0.0705
-6 4 14 4.1542 -0.0511
-6 4 15 -0.9833 -0.0228
-6 4 16 0.7071 0.5038
-6 5 1 -1.7406 1.3860
-6 5 2 27.7425 0.4931
-6 5 3 0.9411 -0.1928
-6 5 4 9.0084 -0.2977
-6 5 5 3.6121 -0.0619
-6 5 6 -4.2893 0.0997
-6 5 7 -7.7171 0.0061
-6 5 8 -1.7726 -0.0085
-6 5 9 3.1706 -0.0222
-6 5 10 -5.3713 -0.0681
-6 5 11 2.4573 -0.0454
-6 5 12 -4.3165 -0.0185
-6 5 13 -2.9696 0.0444
-6 5 14 -0.8410 0.1985
-6 5 15 -2.1130 -0.1903
-6 6 1 -3.1019 -0.2212
-6 6 2 -12.2607 -0.2926
-6 6 3 6.7229 0.0072
-6 6 4 -1.9662 0.1980
-6 6 5 -7.6396 0.0780
-6 6 6 11.9988 0.0053
-6 6 7 -7.3994 0.0460
-6 6 8 2.6839 0.0163
-6 6 9 2.8446 -0.0615
-6 6 10 1.7530 -0.0671
-6 6 11 -5.8498 0.0774
-6 6 12 0.4960 0.0204
-6 6 13 1.9205 -0.1534
-6 6 14 -2.5974 -0.2846
-6 7 1 -16.1364 -1.4838
-6 7 2 -4.5838 -0.3078
-6 7 3 -13.2688 0.2017
-6 7 4 5.7466 0.1768
-6 7 5 -5.1271 -0.0127
-6 7 6 -6.9464 -0.0975
-6 7 7 6.7532 -0.1686
-6 7 8 -13.1066 -0.0658
-6 7 9 5.5621 0.1678
-6 7 10 -1.4012 0.1213
-6 7 11 1.9534 -0.1112
-6 7 12 0.1384 -0.2611
-6 7 13 3.6561 0.0736
-6 7 14 -0.8950 0.0373
-6 8 1 7.0621 0.5598
-6 8 2 -10.3428 0.2050
-6 8 3 0.0319 0.0730
-6 8 4 -5.0278 0.0907
-6 8 5 5.0392 -0.0234
-6 8 6 -4.1792 -0.1850
-6 8 7 0.4578 -0.0039
-6 8 8 3.4834 0.0166
-6 8 9 0.7528 -0.0540
-6 8 10 1.9382 -0.0064
-6 8 11 3.1039 0.0892
-6 8 12 1.2332 -0.0551
-6 8 13 0.7523 -0.2471
-6 9 1 -3.4405 0.1152
-6 9 2 12.8575 0.3355
-6 9 3 8.7221 -0.0498
-6 9 4 6.2169 -0.2557
-6 9 5 7.1638 -0.0481
-6 9 6 3.7831 0.2807
-6 9 7 -2.5027 0.1232
-6 9 8 0.8327 -0.1023
-6 9 9 -1.5037 0.0112
-6 9 10 -1.7869 -0.0043
-6 9 11 -1.0520 -0.1787
-6 9 12 -0.5622 0.0189
-6 10 1 6.2832 0.7737
-6 10 2 -5.8682 -0.2824
-6 10 3 6.0722 -0.3361
-6 10 4 5.1301 -0.0363
-6 10 5 -3.3580 0.0177
-6 10 6 -0.7462 0.0060
-6 10 7 -4.7931 0.1075
-6 10 8 0.2716 0.0441
-6 10 9 -1.0443 -0.0398
-6 10 10 0.7052 0.0684
-6 10 11 -0.2986 0.3182
-6 11 1 -10.1436 -0.7020
-6 11 2 -4.0257 0.1768
-6 11 3 -7.6819 0.3928
-6 11 4 3.4802 0.0757
-6 11 5 -1.8356 -0.1681
-6 11 6 -1.9049 -0.1675
-6 11 7 -1.0923 -0.0356
-6 11 8 2.2853 0.0314
-6 11 9 1.6282 0.2752
-6 11 10 0.7467 -0.1220
-6 12 1 -1.0119 -0.3460
-6 12 2 -0.4132 -0.0654
-6 12 3 3.0981 0.1534
-6 12 4 4.0535 0.1444
-6 12 5 -1.4709 0.1048
-6 12 6 1.0783 -0.0092
-6 12 7 1.0557 -0.0143
-6 12 8 0.2313 -0.1352
-6 12 9 2.3249 -0.2367
-6 13 1 0.1667 -0.1320
-6 13 2 0.4862 -0.2801
-6 13 3 3.2057 -0.0466
-6 13 4 2.4014 0.0237
-6 13 5 0.1713 0.0908
-6 13 6 -2.1057 -0.1914
-6 13 7 1.7827 -0.0504
-6 13 8 -0.7666 0.2192
-6 14 1 2.2398 0.4526
-6 14 2 3.2171 0.3860
-6 14 3 1.9674 0.0054
-6 14 4 3.1747 -0.2705
-6 14 5 -0.1951 -0.1112
-6 14 6 -0.9261 0.0243
-6 14 7 -0.0132 0.1845
-6 15 1 -1.0992 0.8941
-6 15 2 0.2124 -0.0146
-6 15 3 0.2782 -0.0376
-6 15 4 -0.5349 -0.0492
-6 15 5 -2.3961 -0.2276
-6 16 1 -4.3508 -1.2967
-6 16 2 -1.2588 -0.1998
-6 16 3 1.4947 0.2719
-6 17 1 1.5430 -0.0447
-6 17 2 -2.4095 -0.1489
-5 -17 6 1.2737 0.0041
-5 -17 7 2.7468 0.0635
-5 -17 8 -5.3465 0.0994
-5 -17 9 -0.5950 0.0698
-5 -17 10 -3.8952 0.2662
-5 -17 11 -2.6211 0.0909
-5 -17 12 -1.5729 -0.5909
-5 -17 13 -1.3858 -0.1574
-5 -17 14 -0.8679 -0.3142
-5 -16 2 0.3410 -0.1575
-5 -16 3 -0.2832 0.2692
-5 -16 4 -3.4806 0.1666
-5 -16 5 -0.0514 -0.0789
-5 -16 6 -2.4503 -0.1540
-5 -16 7 3.3427 -0.0358
-5 -16 8 -1.0970 0.1457
-5 -16 9 1.3656 0.1945
-5 -16 10 1.2948 0.0311
-5 -16 11 -0.6775 -0.1541
-5 -16 12 2.8878 -0.3470
-5 -16 13 3.0166 -0.0711
-5 -16 14 0.3801 -0.0767
-5 -16 15 2.2496 -0.1361
-5 -16 16 0.9279 0.0619
-5 -15 1 -0.9160 0.2524
-5 -15 2 -1.4614 0.0825
-5 -15 3 0.8034 0.1689
-5 -15 4 -1.2221 0.1694
-5 -15 5 0.6404 0.0840
-5 -15 6 5.5714 0.0337
-5 -15 7 -0.1183 0.0141
-5 -15 8 3.4884 -0.0080
-5 -15 9 -0.3811 -0.0732
-5 -15 10 2.8992 -0.0813
-5 -15 11 0.6646 0.0843
-5 -15 12 1.5871 -0.0539
-5 -15 13 1.3291 -0.0885
-5 -15 14 -0.2223 -0.0552
-5 -15 15 1.3729 -0.1705
-5 -15 16 1.0641 0.1342
-5 -15 17 -0.2947 0.5927
-5 -14 1 6.0861 0.2787
-5 -14 2 -0.5150 0.0542
-5 -14 3 2.4726 -0.2406
-5 -14 4 2.8702 -0.2768
-5 -14 5 -2.2705 0.0518
-5 -14 6 -0.8493 0.2554
-5 -14 7 -0.2514 0.0937
-5 -14 8 -1.1607 -0.0759
-5 -14 9 -4.2154 -0.0733
-5 -14 10 1.5111 -0.1623
-5 -14 11 -1.2212 -0.0554
-5 -14 12 0.2938 0.0371
-5 -14 13 -3.2504 0.0424
-5 -14 14 -2.6334 0.0021
-5 -14 15 -3.7060 -0.0963
-5 -14 16 1.7844 0.1586
-5 -14 17 -0.7263 0.2887
-5 -14 18 1.7939 -0.1304
-5 -13 1 -1.2690 0.8402
-5 -13 2 5.0162 -0.0351
-5 -13 3 -7.9914 -0.2189
-5 -13 4 4.4134 -0.0927
-5 -13 5 1.5184 -0.0740
-5 -13 6 -2.2328 -0.1005
-5 -13 7 0.6792 0.0259
-5 -13 8 1.8360 0.0557
-5 -13 9 -3.2977 0.0140
-5 -13 10 2.7407 -0.0869
-5 -13 11 -0.0883 -0.0128
-5 -13 12 -1.9593 0.0202
-5 -13 13 -0.2538 0.0007
-5 -13 14 -1.5938 0.0986
-5 -13 15 -2.4145 0.1361
-5 -13 16 0.6235 0.0049
-5 -13 17 0.3212 -0.0322
-5 -13 18 -2.6053 0.0233
-5 -13 19 -2.2579 0.0144
-5 -12 1 -2.7648 -0.8658
-5 -12 2 1.4617 0.1993
-5 -12 3 2.0322 0.3895
-5 -12 4 -5.2598 0.0332
-5 -12 5 6.3368 -0.1162
-5 -12 6 -1.8254 -0.0313
-5 -12 7 0.9505 -0.0669
-5 -12 8 0.8327 -0.1096
-5 -12 9 2.2032 0.0171
-5 -12 10 -4.7254 0.0239
-5 -12 11 7.1853 -0.0541
-5 -12 12 -1.5425 -0.0077
-5 -12 13 2.0563 0.0260
-5 -12 14 -2.4339 0.0802
-5 -12 15 0.3340 0.0866
-5 -12 16 -1.5569 -0.0179
-5 -12 17 2.0034 0.0085
-5 -12 18 2.7335 0.2346
-5 -12 19 -1.1622 -0.2629
-5 -11 1 1.4909 -0.2939
-5 -11 2 -7.8337 -0.5028
-5 -11 3 -0.4632 -0.1327
-5 -11 4 -7.3778 0.3065
-5 -11 5 -1.1028 0.2254
-5 -11 6 -3.1661 -0.1595
-5 -11 7 1.6498 -0.1875
-5 -11 8 -5.5023 -0.0100
-5 -11 9 3.5403 0.0770
-5 -11 10 2.1756 0.0405
-5 -11 11 -2.0680 -0.0201
-5 -11 12 7.3854 0.0210
-5 -11 13 2.1803 0.0212
-5 -11 14 3.6878 -0.0411
-5 -11 15 4.0779 0.0631
-5 -11 16 4.2835 0.1207
-5 -11 17 6.4898 -0.0075
-5 -11 18 4.0605 -0.0564
-5 -11 19 1.2705 -0.1689
-5 -10 1 3.5012 -0.2379
-5 -10 2 -2.1665 0.0988
-5 -10 3 1.2549 0.0522
-5 -10 4 3.9874 -0.1808
-5 -10 5 2.2126 -0.1617
-5 -10 6 1.5179 0.0704
-5 -10 7 4.1433 0.1295
-5 -10 8 1.7313 -0.0124
-5 -10 9 -3.7560 -0.0087
-5 -10 10 6.2491 0.1122
-5 -10 11 -0.9448 0.0748
-5 -10 12 -0.7020 -0.0252
-5 -10 13 2.3154 -0.0599
-5 -10 14 -2.2763 -0.0733
-5 -10 15 -1.5994 0.0196
-5 -10 16 0.8008 -0.0542
-5 -10 17 -3.3342 -0.2289
-5 -10 18 0.4801 0.0174
-5 -10 19 -1.7287 0.3457
-5 -10 20 1.5776 0.3133
-5 -9 1 6.3751 1.2122
-5 -9 2 7.7737 0.4105
-5 -9 3 1.2647 -0.1943
-5 -9 4 7.8757 -0.2887
-5 -9 5 5.6807 -0.0331
-5 -9 6 1.8628 0.0583
-5 -9 7 0.1205 0.1045
-5 -9 8 5.7457 0.0337
-5 -9 9 -7.9637 -0.0730
-5 -9 10 2.9394 -0.1710
-5 -9 11 -5.8039 -0.0660
-5 -9 12 -3.7663 0.0775
-5 -9 13 -0.7018 0.1370
-5 -9 14 0.2677 0.0203
-5 -9 15 -8.0790 -0.1156
-5 -9 16 -4.7533 -0.0926
-5 -9 17 0.2150 0.0212
-5 -9 18 -4.9981 0.0068
-5 -9 19 -0.4484 -0.0175
-5 -9 20 -1.4876 0.0777
-5 -8 1 -6.1574 -0.0089
-5 -8 2 -4.4558 -0.2796
-5 -8 3 -8.9926 -0.0909
-5 -8 4 1.3154 0.0532
-5 -8 5 -4.3728 0.0632
-5 -8 6 -3.9269 0.0658
-5 -8 7 -0.6935 0.1294
-5 -8 8 -9.3925 0.0223
-5 -8 9 -1.9233 -0.0805
-5 -8 10 -2.6450 -0.0875
-5 -8 11 4.9311 0.0176
-5 -8 12 -2.7491 0.0037
-5 -8 13 5.2367 -0.0667
-5 -8 14 -1.4441 -0.0557
-5 -8 15 4.3298 -0.0001
-5 -8 16 -3.8585 0.1275
-5 -8 17 2.4913 0.1166
-5 -8 18 2.3836 -0.0637
-5 -8 19 -1.5199 -0.1009
-5 -8 20 0.1654 -0.1143
-5 -7 1 0.5765 -1.3504
-5 -7 2 -18.6083 -0.2098
-5 -7 3 -0.4980 0.2479
-5 -7 4 -13.2191 0.1275
-5 -7 5 2.4600 0.0020
-5 -7 6 -10.8404 -0.1108
-5 -7 7 -0.2067 -0.1190
-5 -7 8 2.4722 -0.0279
-5 -7 9 -3.4251 0.1328
-5 -7 10 11.3166 0.1376
-5 -7 11 -3.1600 0.0122
-5 -7 12 10.1197 -0.1474
-5 -7 13 4.6545 -0.0906
-5 -7 14 6.2179 0.0663
-5 -7 15 7.1471 0.0306
-5 -7 16 2.0121 0.0164
-5 -7 17 6.8936 0.0649
-5 -7 18 6.2785 0.1935
-5 -7 19 3.5295 0.0002
-5 -6 1 7.3298 0.5196
-5 -6 2 -6.4744 0.0161
-5 -6 3 -1.4863 0.1206
-5 -6 4 11.8549 0.3059
-5 -6 5 -3.1174 0.1011
-5 -6 6 11.2340 -0.2308
-5 -6 7 2.0264 -0.1511
-5 -6 8 -1.2926 0.0427
-5 -6 9 11.1831 0.0654
-5 -6 10 -1.5854 -0.0090
-5 -6 11 9.0074 -0.0428
-5 -6 12 -2.2488 0.0260
-5 -6 13 10.5986 0.0258
-5 -6 14 0.3677 0.0231
-5 -6 15 0.2513 0.0728
-5 -6 16 3.1085 0.0779
-5 -6 17 1.3464 -0.0502
-5 -6 18 1.3594 -0.0894
-5 -6 19 0.1669 0.2637
-5 -6 20 -0.3632 0.1953
-5 -5 1 12.1877 -0.0735
-5 -5 2 13.0725 0.2890
-5 -5 3 5.8116 0.0000
-5 -5 4 24.6523 -0.3158
-5 -5 5 5.8189 -0.0706
-5 -5 6 6.4342 0.3016
-5 -5 7 3.4874 0.1878
-5 -5 8 4.4948 -0.1047
-5 -5 9 -7.6216 -0.1476
-5 -5 10 -4.8029 -0.0395
-5 -5 11 -12.9013 0.0349
-5 -5 12 -4.5758 0.0115
-5 -5 13 -5.6208 -0.0193
-5 -5 14 -3.8600 0.0673
-5 -5 15 -11.1744 0.0167
-5 -5 16 -2.9927 -0.0257
-5 -5 17 -3.5070 0.0251
-5 -5 18 -2.6868 0.0402
-5 -5 19 -2.3473 0.1769
-5 -5 20 -1.4828 -0.2796
-5 -4 1 -14.1818 0.9007
-5 -4 2 10.0402 -0.2360
-5 -4 3 -8.4341 -0.4741
-5 -4 4 -4.6258 -0.1787
-5 -4 5 -0.1506 0.0942
-5 -4 6 -7.0814 0.0082
-5 -4 7 -3.0434 0.0081
-5 -4 8 -4.7877 0.0959
-5 -4 9 2.4721 0.0524
-5 -4 10 -12.3531 -0.0730
-5 -4 11 -3.2623 -0.0532
-5 -4 12 2.9748 0.1007
-5 -4 13 -0.1490 0.0900
-5 -4 14 1.6100 -0.0871
-5 -4 15 -5.7763 -0.0959
-5 -4 16 2.6928 0.0337
-5 -4 17 0.7787 0.1014
-5 -4 18 0.4246 -0.1476
-5 -4 19 -0.2226 0.1143
-5 -3 1 -19.8142 -0.4588
-5 -3 2 -29.2472 0.2601
-5 -3 3 -4.2107 0.4264
-5 -3 4 -20.3452 -0.0039
-5 -3 5 -16.0371 -0.2589
-5 -3 6 1.5460 -0.0957
-5 -3 7 -4.1955 0.0859
-5 -3 8 9.1435 -0.0412
-5 -3 9 -0.3288 -0.0769
-5 -3 10 10.0519 0.0641
-5 -3 11 1.0205 0.0752
-5 -3 12 14.6340 -0.0043
-5 -3 13 4.5364 -0.0555
-5 -3 14 3.6304 0.0379
-5 -3 15 4.1687 0.0947
-5 -3 16 3.9044 -0.0958
-5 -3 17 6.0723 0.0235
-5 -3 18 1.5826 0.0258
-5 -3 19 0.1600 -0.0277
-5 -2 1 14.4243 -0.5768
-5 -2 2 4.3812 -0.2225
-5 -2 3 2.3971 0.0977
-5 -2 4 -3.4240 0.2439
-5 -2 5 3.7724 0.2179
-5 -2 6 -4.9686 -0.1042
-5 -2 7 13.3179 -0.2147
-5 -2 8 -1.7364 -0.0165
-5 -2 9 2.2133 0.0732
-5 -2 10 -0.4487 0.0285
-5 -2 11 -2.9500 -0.0707
-5 -2 12 6.2872 -0.0207
-5 -2 13 0.4278 0.0526
-5 -2 14 -3.2043 -0.0396
-5 -2 15 0.1388 -0.0186
-5 -2 16 0.6134 0.1062
-5 -2 17 3.5031 0.2216
-5 -2 18 0.9208 -0.0679
-5 -2 19 -0.3285 -0.1407
-5 -1 1 17.1682 -0.3445
-5 -1 2 9.3406 -0.4654
-5 -1 3 0.8290 -0.0974
-5 -1 4 2.5227 0.1372
-5 -1 5 1.5604 0.0516
-5 -1 6 1.3674 -0.0485
-5 -1 7 -5.3424 -0.0254
-5 -1 8 -3.3720 -0.0098
-5 -1 9 -8.4653 -0.0009
-5 -1 10 -5.4274 0.0656
-5 -1 11 2.4169 0.0385
-5 -1 12 0.6580 -0.0629
-5 -1 13 1.5497 -0.0858
-5 -1 14 -10.9423 -0.0375
-5 -1 15 1.9292 0.1103
-5 -1 16 -2.6236 -0.0036
-5 -1 17 1.0921 -0.1311
-5 -1 18 0.9605 0.3927
-5 0 1 20.6559 0.5774
-5 0 2 13.8554 0.5607
-5 0 3 -5.7151 0.0345
-5 0 4 3.7041 -0.3854
-5 0 5 15.9871 -0.1604
-5 0 6 4.7780 0.1061
-5 0 7 15.4711 0.0502
-5 0 8 9.5593 -0.0197
-5 0 9 7.2073 -0.0400
-5 0 10 2.5616 -0.0414
-5 0 11 -4.5314 -0.0103
-5 0 12 3.3861 0.0719
-5 0 13 -4.4250 0.1635
-5 0 14 1.1585 0.0629
-5 0 15 -6.0334 -0.0899
-5 0 16 2.7409 -0.0566
-5 0 17 -1.4270 0.0401
-5 0 18 -2.1646 0.0321
-5 1 1 1.2656 1.4323
-5 1 2 -11.3784 0.0924
-5 1 3 -36.2435 -0.3026
-5 1 4 0.1177 -0.0763
-5 1 5 -5.3401 0.1060
-5 1 6 -1.7960 0.1115
-5 1 7 -1.4014 0.1000
-5 1 8 -2.0336 0.0241
-5 1 9 -6.8373 -0.1137
-5 1 10 -2.8474 -0.1381
-5 1 11 6.7006 0.0300
-5 1 12 0.5565 0.0614
-5 1 13 -1.2502 0.0206
-5 1 14 2.6562 0.0006
-5 1 15 -1.7040 0.0856
-5 1 16 1.5242 0.1719
-5 1 17 0.0006 -0.0375
-5 2 1 -23.7477 -1.4660
-5 2 2 -11.7043 -0.3737
-5 2 3 -26.2978 0.2213
-5 2 4 -20.1229 0.0932
-5 2 5 -13.1964 -0.0574
-5 2 6 -11.1224 0.0505
-5 2 7 -10.6860 -0.0049
-5 2 8 6.8266 -0.0807
-5 2 9 -0.0913 0.0532
-5 2 10 3.6761 0.1132
-5 2 11 2.1598 0.0287
-5 2 12 4.8886 -0.0997
-5 2 13 -2.0199 -0.0199
-5 2 14 1.1959 0.0783
-5 2 15 5.5610 -0.0902
-5 2 16 0.9111 0.0340
-5 2 17 4.6215 0.0401
-5 3 1 13.0572 -0.0808
-5 3 2 1.4261 -0.1817
-5 3 3 -6.0737 0.0634
-5 3 4 12.7683 0.2912
-5 3 5 7.4260 0.1123
-5 3 6 4.4551 -0.3090
-5 3 7 14.0924 -0.2416
-5 3 8 -12.4339 0.0543
-5 3 9 5.7290 0.1894
-5 3 10 -8.7661 0.0591
-5 3 11 3.6640 -0.0273
-5 3 12 -4.8034 -0.0334
-5 3 13 0.1679 -0.0742
-5 3 14 -0.4573 0.0331
-5 3 15 -0.1188 0.0953
-5 3 16 0.3932 -0.1620
-5 4 1 33.5719 0.0290
-5 4 2 1.7705 0.3536
-5 4 3 21.4199 0.2457
-5 4 4 3.2209 -0.0890
-5 4 5 20.2228 -0.1372
-5 4 6 -5.1773 0.0658
-5 4 7 9.0904 0.1230
-5 4 8 4.9380 -0.0581
-5 4 9 -7.2410 -0.1431
-5 4 10 11.9910 -0.0254
-5 4 11 -0.2148 0.0436
-5 4 12 1.6517 0.0423
-5 4 13 -2.4950 -0.0111
-5 4 14 -2.3116 0.0540
-5 4 15 -0.9945 -0.1559
-5 4 16 -1.5279 0.1835
-5 5 1 -10.1959 0.6879
-5 5 2 5.4772 -0.1489
-5 5 3 -18.9201 -0.5081
-5 5 4 -7.9315 -0.3289
-5 5 5 6.8792 0.1661
-5 5 6 -0.7122 0.1995
-5 5 7 2.7252 0.0290
-5 5 8 2.7269 -0.0014
-5 5 9 -3.5737 -0.0215
-5 5 10 -2.1080 -0.0528
-5 5 11 2.0593 -0.0517
-5 5 12 -2.8575 -0.0112
-5 5 13 -2.6358 -0.0543
-5 5 14 3.5517 0.1486
-5 5 15 -0.7896 0.1331
-5 6 1 -5.9119 0.3299
-5 6 2 -20.4345 -0.0574
-5 6 3 -3.5516 -0.0128
-5 6 4 -12.1340 0.0238
-5 6 5 -10.2251 -0.1766
-5 6 6 5.7003 -0.0937
-5 6 7 -11.8038 0.0867
-5 6 8 1.4962 0.0624
-5 6 9 -7.5788 -0.0008
-5 6 10 1.3267 -0.0702
-5 6 11 -2.1329 0.0075
-5 6 12 2.7110 0.1112
-5 6 13 2.4632 0.0678
-5 6 14 -0.1938 -0.0928
-5 7 1 -11.0213 -0.6166
-5 7 2 11.1337 0.2018
-5 7 3 -14.8844 0.4008
-5 7 4 7.5472 0.1930
-5 7 5 -4.2038 0.0039
-5 7 6 2.2409 -0.0672
-5 7 7 8.7200 -0.1222
-5 7 8 -6.3033 -0.0654
-5 7 9 6.6470 0.0707
-5 7 10 -1.3910 0.0252
-5 7 11 0.6501 -0.0210
-5 7 12 -1.0758 -0.0461
-5 7 13 3.4290 0.1724
-5 7 14 0.2102 0.0819
-5 8 1 25.8440 -0.2643
-5 8 2 1.0403 -0.4668
-5 8 3 12.4802 -0.1353
-5 8 4 1.7834 0.2043
-5 8 5 12.8873 0.1450
-5 8 6 3.9528 -0.1181
-5 8 7 6.9353 -0.0519
-5 8 8 -1.0539 -0.0014
-5 8 9 -1.6011 0.0152
-5 8 10 -0.6845 -0.0172
-5 8 11 -0.3250 0.0209
-5 8 12 -2.6483 0.0248
-5 8 13 -1.4825 -0.0964
-5 9 1 -3.8999 -0.4271
-5 9 2 5.5615 0.1947
-5 9 3 -6.2114 0.0769
-5 9 4 -4.5129 -0.1901
-5 9 5 2.8887 -0.0666
-5 9 6 -0.3551 0.0069
-5 9 7 0.6434 0.0289
-5 9 8 -2.1148 -0.0086
-5 9 9 0.4827 0.0965
-5 9 10 -0.0888 0.0940
-5 9 11 -0.2574 -0.1615
-5 9 12 -0.9690 -0.0876
-5 10 1 -1.7584 1.7195
-5 10 2 -12.5875 0.2777
-5 10 3 -6.0656 -0.2855
-5 10 4 -6.0507 -0.1323
-5 10 5 -0.3751 0.0430
-5 10 6 2.8866 0.0074
-5 10 7 -1.1336 0.0945
-5 10 8 -2.2517 0.0670
-5 10 9 -2.6911 -0.1004
-5 10 10 1.2396 -0.1792
-5 10 11 0.5645 -0.0140
-5 11 1 -5.6234 -0.4942
-5 11 2 -0.2333 -0.1180
-5 11 3 -6.4855 0.0779
-5 11 4 0.1055 0.0448
-5 11 5 2.3073 -0.0273
-5 11 6 -1.0729 0.0503
-5 11 7 -2.1009 0.0716
-5 11 8 -1.1018 -0.0747
-5 11 9 -1.7520 0.0357
-5 11 10 -0.9635 -0.1914
-5 12 1 2.8116 -0.8705
-5 12 2 -0.9639 -0.2618
-5 12 3 -2.1413 0.0908
-5 12 4 0.7800 0.1414
-5 12 5 -1.9540 0.0168
-5 12 6 3.7816 -0.1411
-5 12 7 -0.9217 -0.1060
-5 12 8 -0.1193 0.1043
-5 12 9 -0.3595 0.1730
-5 13 1 1.1917 0.2145
-5 13 2 0.1074 0.0601
-5 13 3 0.5427 0.1999
-5 13 4 4.2560 0.1599
-5 13 5 3.4026 -0.0573
-5 13 6 -1.0737 -0.3458
-5 13 7 1.0489 -0.0829
-5 13 8 -0.6154 0.4003
-5 14 1 0.4597 0.2306
-5 14 2 -3.3680 0.2100
-5 14 3 -4.2853 -0.0398
-5 14 4 0.5404 -0.2503
-5 14 5 1.8765 0.1132
-5 14 6 -1.6187 0.2078
-5 15 1 -3.4808 0.7830
-5 15 2 -1.0367 -0.2530
-5 15 3 -4.7504 -0.2712
-5 15 4 0.7197 0.0084
-5 15 5 1.8810 -0.1044
-5 16 1 -2.8129 -0.6992
-5 16 2 1.9823 0.2067
-5 16 3 -1.5488 0.2502
-5 17 1 1.3536 0.0822
-4 -17 4 -1.8913 -0.1683
-4 -17 5 -4.1096 0.0962
-4 -17 6 -4.0428 0.1281
-4 -17 7 2.5637 0.2038
-4 -17 8 0.1328 -0.0298
-4 -17 9 2.8937 0.1717
-4 -17 10 -0.6717 0.0711
-4 -17 11 1.6678 0.1182
-4 -17 12 -1.2182 0.0303
-4 -17 13 0.8774 0.0868
-4 -17 14 2.0897 0.0339
-4 -17 15 -0.9591 -0.1013
-4 -16 1 -1.9298 -0.2351
-4 -16 2 -1.3900 -0.1841
-4 -16 3 -0.2763 0.0965
-4 -16 4 -1.4545 0.1800
-4 -16 5 3.3745 0.1667
-4 -16 6 -1.3236 -0.0411
-4 -16 7 4.4852 0.0586
-4 -16 8 1.9016 -0.0301
-4 -16 9 0.8691 0.0992
-4 -16 10 0.2619 0.0628
-4 -16 11 -0.8842 0.0841
-4 -16 12 -1.0557 0.0281
-4 -16 13 0.9788 -0.0567
-4 -16 14 1.0109 -0.0751
-4 -16 15 0.5927 -0.1070
-4 -16 16 0.4642 -0.3538
-4 -15 1 0.7666 -0.5799
-4 -15 2 3.7455 -0.1842
-4 -15 3 5.1551 0.1752
-4 -15 4 -1.5632 0.1331
-4 -15 5 1.8912 0.0167
-4 -15 6 1.2717 -0.1245
-4 -15 7 -1.6978 -0.0224
-4 -15 8 3.2271 0.0306
-4 -15 9 -1.9578 0.1341
-4 -15 10 -3.5027 0.0793
-4 -15 11 -1.0090 -0.0921
-4 -15 12 -2.0354 -0.0652
-4 -15 13 0.2523 -0.0497
-4 -15 14 -3.6024 -0.0445
-4 -15 15 1.3142 -0.0588
-4 -15 16 -2.0294 -0.2752
-4 -15 17 0.8760 0.1128
-4 -15 18 1.7748 0.5502
-4 -14 1 4.5043 0.4687
-4 -14 2 -4.6550 0.3790
-4 -14 3 4.4129 0.0671
-4 -14 4 -0.7118 -0.1397
-4 -14 5 -2.1610 -0.0140
-4 -14 6 3.6403 0.0160
-4 -14 7 0.0747 0.0906
-4 -14 8 1.1537 -0.0008
-4 -14 9 -3.6874 -0.0267
-4 -14 10 -0.7833 0.0207
-4 -14 11 -3.7587 -0.0014
-4 -14 12 2.1162 -0.0034
-4 -14 13 0.2551 0.0189
-4 -14 14 1.0370 -0.0610
-4 -14 15 -2.1759 -0.0688
-4 -14 16 0.2679 -0.0389
-4 -14 17 -5.4938 0.1258
-4 -14 18 -0.9396 0.1490
-4 -14 19 -3.2065 0.0062
-4 -13 1 -0.9974 1.2740
-4 -13 2 4.6194 -0.0006
-4 -13 3 -7.7582 -0.3275
-4 -13 4 3.8691 -0.1528
-4 -13 5 -5.4718 0.0866
-4 -13 6 -3.0523 0.1290
-4 -13 7 -1.1988 0.1597
-4 -13 8 1.9012 0.0159
-4 -13 9 -8.3766 -0.1107
-4 -13 10 2.1098 -0.1457
-4 -13 11 -2.0281 -0.0364
-4 -13 12 -1.0593 0.0530
-4 -13 13 3.0174 0.0450
-4 -13 14 0.9062 -0.0540
-4 -13 15 -2.3956 0.0477
-4 -13 16 0.6605 0.0915
-4 -13 17 0.7099 -0.0536
-4 -13 18 4.8872 -0.0557
-4 -13 19 2.9933 0.3696
-4 -12 1 -7.5667 -0.9828
-4 -12 2 2.5633 -0.1404
-4 -12 3 -4.5103 0.1924
-4 -12 4 -10.5568 -0.0121
-4 -12 5 -1.6557 -0.0393
-4 -12 6 -4.5247 0.0246
-4 -12 7 -5.2650 0.0395
-4 -12 8 5.9249 -0.0415
-4 -12 9 0.2201 -0.0291
-4 -12 10 -5.7381 0.0612
-4 -12 11 7.0971 -0.0043
-4 -12 12 -3.8610 -0.1498
-4 -12 13 6.2233 -0.0687
-4 -12 14 3.4691 0.0388
-4 -12 15 4.8885 0.1010
-4 -12 16 2.9663 0.0884
-4 -12 17 3.3915 0.0772
-4 -12 18 2.7321 0.0245
-4 -12 19 -0.0494 -0.2793
-4 -12 20 -1.6356 -0.4246
-4 -11 1 2.7017 -0.0439
-4 -11 2 1.9897 -0.1276
-4 -11 3 12.4861 0.1638
-4 -11 4 0.4735 0.3177
-4 -11 5 7.7817 0.0889
-4 -11 6 8.0531 -0.2689
-4 -11 7 6.6517 -0.2579
-4 -11 8 -1.9749 0.0564
-4 -11 9 9.2229 0.1161
-4 -11 10 -4.4151 -0.0007
-4 -11 11 2.0075 -0.0358
-4 -11 12 1.6829 0.0192
-4 -11 13 -3.5975 0.0711
-4 -11 14 -1.2450 -0.0223
-4 -11 15 -1.8044 -0.0524
-4 -11 16 -4.7293 0.1052
-4 -11 17 -5.9642 0.0290
-4 -11 18 -2.6850 -0.1458
-4 -11 19 -1.5039 -0.1078
-4 -11 20 -4.0009 0.1840
-4 -10 1 8.9763 -0.1675
-4 -10 2 4.8895 0.1480
-4 -10 3 8.8071 0.2590
-4 -10 4 4.5113 0.0421
-4 -10 5 1.8851 -0.0493
-4 -10 6 0.2029 0.0582
-4 -10 7 4.7467 0.0590
-4 -10 8 0.8695 -0.0716
-4 -10 9 1.5474 -0.1045
-4 -10 10 -0.4623 -0.0151
-4 -10 11 -4.0118 0.0673
-4 -10 12 -3.4530 -0.0038
-4 -10 13 -1.5109 0.0078
-4 -10 14 -4.3305 0.0564
-4 -10 15 -2.9974 0.0009
-4 -10 16 -0.8549 -0.1065
-4 -10 17 -5.2684 -0.0991
-4 -10 18 1.0195 -0.0327
-4 -10 19 -2.2207 -0.0168
-4 -10 20 0.4178 -0.1340
-4 -9 1 -5.1398 0.6325
-4 -9 2 -2.0820 -0.0085
-4 -9 3 -10.2371 -0.4059
-4 -9 4 -7.1119 -0.2972
-4 -9 5 -1.3333 0.1025
-4 -9 6 -5.1336 0.1741
-4 -9 7 -7.5338 0.0271
-4 -9 8 4.5647 0.0563
-4 -9 9 -8.4578 0.0527
-4 -9 10 -0.2733 -0.0475
-4 -9 11 2.5826 -0.0369
-4 -9 12 4.8178 0.0546
-4 -9 13 -1.5988 0.0024
-4 -9 14 8.7414 -0.0276
-4 -9 15 0.3980 -0.0645
-4 -9 16 5.7358 0.0173
-4 -9 17 3.2539 0.0109
-4 -9 18 -0.0490 -0.0307
-4 -9 19 2.8944 0.0099
-4 -9 20 -1.3138 0.3497
-4 -8 1 -10.2498 0.7072
-4 -8 2 2.5464 0.0924
-4 -8 3 -14.0816 -0.0456
-4 -8 4 -7.9884 -0.0593
-4 -8 5 -7.6384 -0.1431
-4 -8 6 -7.5813 -0.0528
-4 -8 7 -3.4725 0.0833
-4 -8 8 -2.7514 0.0564
-4 -8 9 5.6362 -0.0178
-4 -8 10 -5.7387 -0.0043
-4 -8 11 3.9203 0.0502
-4 -8 12 -2.4210 0.0711
-4 -8 13 1.8478 -0.0256
-4 -8 14 2.4916 -0.0267
-4 -8 15 6.7820 -0.0845
-4 -8 16 0.7304 -0.1049
-4 -8 17 2.4579 -0.0543
-4 -8 18 4.0858 0.0325
-4 -8 19 1.9153 0.0888
-4 -8 20 1.3531 0.2425
-4 -7 1 6.5485 -0.6365
-4 -7 2 0.5091 0.1812
-4 -7 3 7.1864 0.3037
-4 -7 4 -7.4532 0.0556
-4 -7 5 16.1300 0.0211
-4 -7 6 -1.3695 0.0579
-4 -7 7 4.0530 -0.0063
-4 -7 8 7.4134 -0.0683
-4 -7 9 -9.3931 -0.0034
-4 -7 10 6.6489 -0.0028
-4 -7 11 -12.5639 -0.0553
-4 -7 12 3.1880 0.0055
-4 -7 13 -7.6249 -0.0109
-4 -7 14 -0.5268 0.0200
-4 -7 15 3.4480 0.0089
-4 -7 16 -5.3572 0.0421
-4 -7 17 -1.4719 0.0156
-4 -7 18 -1.4842 0.0703
-4 -7 19 -2.2154 -0.2030
-4 -7 20 -2.8792 -0.5377
-4 -6 1 17.0920 -0.4544
-4 -6 2 9.2902 -0.5989
-4 -6 3 11.4075 -0.1120
-4 -6 4 12.7313 0.3153
-4 -6 5 12.9402 0.1309
-4 -6 6 14.2803 -0.1489
-4 -6 7 1.9034 -0.0708
-4 -6 8 -7.7631 0.0696
-4 -6 9 3.5602 0.0849
-4 -6 10 -9.9748 0.0263
-4 -6 11 -1.3673 -0.0547
-4 -6 12 -17.8383 -0.0996
-4 -6 13 -3.6687 -0.0806
-4 -6 14 -5.2104 -0.0313
-4 -6 15 1.3032 0.1001
-4 -6 16 -6.7337 0.1613
-4 -6 17 -1.2952 0.0460
-4 -6 18 -0.0611 -0.0566
-4 -6 19 -1.2876 -0.1332
-4 -6 20 -0.5834 0.1435
-4 -5 1 8.8808 -0.6012
-4 -5 2 -5.9292 0.2551
-4 -5 3 -14.2220 0.2806
-4 -5 4 5.6232 -0.1300
-4 -5 5 -6.6433 -0.1343
-4 -5 6 -6.2145 -0.0016
-4 -5 7 0.4959 0.0047
-4 -5 8 -7.0665 -0.0479
-4 -5 9 5.2406 0.0000
-4 -5 10 7.2097 0.0878
-4 -5 11 -3.6388 0.0261
-4 -5 12 1.8089 -0.0330
-4 -5 13 1.0724 -0.0714
-4 -5 14 3.0994 -0.0033
-4 -5 15 2.6768 0.0229
-4 -5 16 -0.1579 -0.1320
-4 -5 17 1.0575 -0.0532
-4 -5 18 1.8054 0.0575
-4 -5 19 -0.8793 0.2604
-4 -5 20 -0.4372 0.1820
-4 -4 1 -29.4229 1.9258
-4 -4 2 -2.0863 0.2711
-4 -4 3 -28.5998 -0.3245
-4 -4 4 -8.6012 -0.0914
-4 -4 5 -0.6342 0.1240
-4 -4 6 -13.5129 0.0283
-4 -4 7 -1.0115 -0.0090
-4 -4 8 -9.4279 0.0356
-4 -4 9 2.8846 -0.0502
-4 -4 10 -2.0123 -0.1455
-4 -4 11 -0.0452 -0.0491
-4 -4 12 -2.7536 0.1470
-4 -4 13 3.1712 0.2077
-4 -4 14 4.9860 -0.0201
-4 -4 15 -3.8543 -0.1466
-4 -4 16 2.4050 -0.0626
-4 -4 17 -0.7301 0.0360
-4 -4 18 2.1252 -0.0122
-4 -4 19 0.6602 0.1255
-4 -3 1 1.0600 -0.2681
-4 -3 2 6.0089 -0.1064
-4 -3 3 19.1586 0.0055
-4 -3 4 -2.9131 -0.1843
-4 -3 5 -4.5364 -0.0944
-4 -3 6 6.5450 0.2064
-4 -3 7 -15.3327 0.1836
-4 -3 8 3.2892 -0.0627
-4 -3 9 -14.9227 -0.1430
-4 -3 10 -1.1275 -0.0068
-4 -3 11 -11.5292 0.0792
-4 -3 12 -4.0801 -0.0365
-4 -3 13 -1.0604 -0.0844
-4 -3 14 2.8574 -0.0244
-4 -3 15 -2.5865 0.1274
-4 -3 16 0.2706 -0.0052
-4 -3 17 2.0553 -0.0395
-4 -3 18 2.4284 0.0601
-4 -3 19 0.9438 0.3240
-4 -2 1 -5.1335 -0.8667
-4 -2 2 20.1299 -0.2833
-4 -2 4 6.2480 0.2088
-4 -2 5 13.9597 0.0542
-4 -2 6 7.1900 -0.2115
-4 -2 7 12.6202 -0.2052
-4 -2 8 0.9329 0.0324
-4 -2 9 3.2065 0.2101
-4 -2 10 2.6410 0.0679
-4 -2 11 1.4889 -0.0603
-4 -2 12 6.3771 -0.1030
-4 -2 13 3.0032 0.0229
-4 -2 14 2.5035 -0.0371
-4 -2 15 -0.0816 -0.0625
-4 -2 16 -0.3563 0.1051
-4 -2 17 -3.2578 0.2140
-4 -2 18 -0.4645 -0.2335
-4 -2 19 -2.6829 -0.4752
-4 -1 1 12.3521 0.1731
-4 -1 2 14.0100 0.1555
-4 -1 3 38.5908 0.3020
-4 -1 4 -7.4167 0.2693
-4 -1 5 8.8197 -0.0952
-4 -1 6 22.1321 -0.1674
-4 -1 7 7.8869 -0.0541
-4 -1 8 20.7023 -0.0261
-4 -1 9 7.7030 -0.0010
-4 -1 10 4.8478 0.0194
-4 -1 11 -4.3588 0.0391
-4 -1 12 -3.4634 -0.0368
-4 -1 13 5.0930 -0.0776
-4 -1 14 -8.8098 0.0254
-4 -1 15 4.1009 0.1508
-4 -1 16 -3.5325 -0.0395
-4 -1 17 -0.2764 -0.2246
-4 -1 18 -0.8475 0.1537
-4 0 1 -9.0218 0.0081
-4 0 2 -10.0781 0.1709
-4 0 3 -5.4089 -0.0985
-4 0 4 -28.6366 -0.2045
-4 0 5 -10.7494 0.1194
-4 0 6 -20.1054 0.2241
-4 0 7 -11.4805 0.0609
-4 0 8 -12.7630 -0.0593
-4 0 9 -8.0761 -0.0509
-4 0 10 -5.5223 -0.0874
-4 0 11 -7.2298 -0.0770
-4 0 12 0.5430 0.0116
-4 0 13 1.1931 0.1126
-4 0 14 -0.0965 0.0007
-4 0 15 0.2199 -0.0922
-4 0 16 1.0977 0.0257
-4 0 17 2.2243 0.0166
-4 0 18 -0.8701 -0.1453
-4 1 1 16.2628 1.1347
-4 1 2 9.9001 -0.1821
-4 1 3 -18.1392 -0.4913
-4 1 4 -16.5949 -0.1208
-4 1 5 -23.5730 0.0781
-4 1 6 -14.2802 0.0224
-4 1 7 -14.4637 0.0818
-4 1 8 4.1961 0.0710
-4 1 9 3.3335 -0.0617
-4 1 10 -0.2530 -0.0635
-4 1 11 1.7715 0.0192
-4 1 12 0.7595 0.0347
-4 1 13 0.8837 0.0178
-4 1 14 1.4062 -0.0255
-4 1 15 0.8957 -0.0378
-4 1 16 4.4792 -0.0343
-4 1 17 -0.5983 -0.1684
-4 2 1 -27.7829 -0.5254
-4 2 2 31.2149 0.4027
-4 2 3 11.6699 0.4189
-4 2 4 1.6431 -0.0803
-4 2 5 12.5830 -0.1856
-4 2 6 20.3929 0.0270
-4 2 7 -6.6283 0.0255
-4 2 8 14.6444 -0.0891
-4 2 9 -1.9842 -0.0308
-4 2 10 0.2216 0.0307
-4 2 11 -3.4184 0.0301
-4 2 12 2.7153 0.0081
-4 2 13 -1.8895 -0.0329
-4 2 14 -2.8405 0.0110
-4 2 15 -0.2869 -0.1593
-4 2 16 -3.1552 0.1133
-4 2 17 -0.7086 -0.0651
-4 3 1 -8.9207 -0.1095
-4 3 2 21.2191 -0.3066
-4 3 3 21.4098 -0.0368
-4 3 4 20.8087 0.3082
-4 3 5 -2.9746 0.2130
-4 3 6 6.1014 -0.1520
-4 3 7 4.3425 -0.1564
-4 3 8 -2.0402 -0.0160
-4 3 9 14.9361 0.1225
-4 3 10 -5.6969 0.0412
-4 3 11 6.2170 -0.0273
-4 3 12 2.9877 -0.0545
-4 3 13 0.1047 -0.0501
-4 3 14 -1.6377 0.0618
-4 3 15 -5.1602 0.0519
-4 3 16 0.6254 -0.4820
-4 4 1 8.1309 -1.0765
-4 4 2 -14.2951 -0.2470
-4 4 3 8.2645 0.1922
-4 4 4 -19.2451 -0.0028
-4 4 5 3.8045 -0.1382
-4 4 6 -15.0746 0.0002
-4 4 7 4.7151 0.0836
-4 4 8 -1.9633 0.0330
-4 4 9 -3.9934 -0.0065
-4 4 10 0.7159 0.0399
-4 4 11 -4.6058 0.0322
-4 4 12 -2.5714 -0.0488
-4 4 13 -1.2483 -0.1203
-4 4 14 -2.4246 -0.0063
-4 4 15 1.8736 -0.0611
-4 4 16 -1.4953 0.3951
-4 5 1 -21.3914 1.1788
-4 5 2 -0.2134 0.3787
-4 5 3 -7.0468 -0.1264
-4 5 4 -18.3216 -0.2144
-4 5 5 -3.8744 0.0796
-4 5 6 -19.3236 0.0405
-4 5 7 -7.0522 -0.0412
-4 5 8 -2.0313 0.0027
-4 5 9 -4.1877 0.0156
-4 5 10 -3.6291 0.0205
-4 5 11 1.2351 0.0237
-4 5 12 1.8341 0.0058
-4 5 13 -0.5807 -0.0468
-4 5 14 4.1160 -0.0523
-4 5 15 -0.5407 -0.1246
-4 6 1 11.3069 1.1002
-4 6 2 -6.8123 0.0843
-4 6 3 18.1478 -0.1214
-4 6 4 -5.5294 -0.0667
-4 6 5 -2.1211 -0.0377
-4 6 6 6.3809 0.0775
-4 6 7 -3.8688 0.1543
-4 6 8 11.8742 -0.0049
-4 6 9 -2.9442 -0.1618
-4 6 10 3.9912 -0.1098
-4 6 11 -1.6331 0.0566
-4 6 12 0.3233 0.0473
-4 6 13 -1.4265 -0.0654
-4 6 14 -1.0135 -0.2447
-4 7 1 -7.6320 -1.3334
-4 7 2 26.2263 -0.1824
-4 7 3 0.4283 0.1148
-4 7 4 17.7637 0.0383
-4 7 5 -0.9119 0.0453
-4 7 6 4.5024 0.0076
-4 7 7 4.9207 -0.0229
-4 7 8 1.5438 0.0142
-4 7 9 4.5526 0.1331
-4 7 10 -2.5642 0.0835
-4 7 11 0.5923 -0.1023
-4 7 12 -1.3429 -0.1651
-4 7 13 -0.0469 0.1251
-4 7 14 -1.1817 -0.0875
-4 8 1 8.4694 -0.1104
-4 8 2 -4.8876 -0.1990
-4 8 3 9.3869 0.1191
-4 8 4 -8.7436 0.2582
-4 8 5 -3.3213 -0.0504
-4 8 6 -3.1713 -0.2103
-4 8 7 2.0274 -0.0776
-4 8 8 2.0229 0.0780
-4 8 9 -0.9841 0.0776
-4 8 10 -1.0739 -0.0014
-4 8 11 0.8847 0.0506
-4 8 12 -0.3802 -0.0235
-4 8 13 -0.1811 -0.3889
-4 9 1 -7.0411 -0.3925
-4 9 2 0.5381 0.2960
-4 9 3 -3.8090 0.2758
-4 9 4 -4.3609 -0.1207
-4 9 5 -4.0315 -0.0406
-4 9 6 -3.0942 0.0954
-4 9 7 3.4989 0.0109
-4 9 8 -2.2991 -0.1664
-4 9 9 -1.8253 0.0206
-4 9 10 -0.7332 0.1354
-4 9 11 0.3369 -0.1219
-4 9 12 -0.7575 0.1280
-4 10 1 5.2490 1.2091
-4 10 2 -1.7798 -0.1501
-4 10 3 2.1407 -0.4239
-4 10 4 -3.4048 -0.0527
-4 10 5 -4.3701 0.1547
-4 10 6 -4.3257 -0.0148
-4 10 7 0.1679 0.0494
-4 10 8 0.5204 0.0831
-4 10 9 -1.1542 -0.0649
-4 10 10 1.6554 -0.0896
-4 10 11 -0.2292 0.3395
-4 11 1 0.9774 -0.0038
-4 11 2 7.4249 0.1237
-4 11 3 1.6291 0.1508
-4 11 4 -1.2340 -0.1751
-4 11 5 4.2251 -0.1413
-4 11 6 -0.7438 0.0535
-4 11 7 3.6292 0.0552
-4 11 8 2.1868 -0.0527
-4 11 9 0.6489 0.1329
-4 11 10 0.9989 -0.2313
-4 12 1 6.7205 -0.3473
-4 12 2 5.2697 0.1585
-4 12 3 5.1010 0.2148
-4 12 4 2.6383 0.0769
-4 12 5 1.0275 0.0104
-4 12 6 5.0462 -0.1002
-4 12 7 -2.0095 -0.0122
-4 12 8 1.6732 -0.0746
-4 12 9 0.1434 -0.2658
-4 13 1 -0.8186 -0.4855
-4 13 2 1.1367 -0.4245
-4 13 3 -1.5362 0.0444
-4 13 4 -3.2658 0.2496
-4 13 5 -2.1902 0.1080
-4 13 6 -1.0428 -0.1363
-4 13 7 -0.9992 -0.1746
-4 13 8 0.8777 0.2837
-4 14 1 0.9070 -0.2234
-4 14 2 -2.3249 0.1532
-4 14 3 -1.9890 0.1472
-4 14 4 -4.1244 -0.1813
-4 14 5 0.4110 -0.1442
-4 14 6 -0.1580 0.0691
-4 15 1 1.0361 1.5614
-4 15 2 2.6395 0.1481
-4 15 3 1.1513 -0.1441
-4 15 4 -1.3548 -0.0014
-4 16 1 -0.4599 -0.6123
-4 16 2 2.9572 0.0092
-4 17 1 -5.4028 -0.3471
-3 -18 7 -4.2734 -0.0260
-3 -18 8 3.3077 -0.0001
-3 -18 9 -0.9219 -0.0673
-3 -18 10 1.3273 -0.1381
-3 -18 11 -0.4007 0.0335
-3 -18 12 -0.9066 0.4805
-3 -18 13 -1.0168 0.0083
-3 -18 14 -2.9672 0.1619
-3 -17 3 -1.5226 -0.3187
-3 -17 4 0.6786 -0.0943
-3 -17 5 -0.9805 0.0735
-3 -17 6 0.6161 0.1794
-3 -17 7 -0.0326 0.0103
-3 -17 8 -2.5381 -0.2235
-3 -17 9 3.7373 -0.1427
-3 -17 10 -0.4139 0.0314
-3 -17 11 2.4322 0.0724
-3 -17 12 -1.3705 0.2000
-3 -17 13 -0.4163 0.0146
-3 -17 14 1.7916 -0.0337
-3 -17 15 -0.9809 0.0667
-3 -17 16 1.1892 -0.0284
-3 -16 1 1.7457 -0.4306
-3 -16 2 2.1004 -0.0317
-3 -16 3 4.1255 0.1212
-3 -16 4 1.9580 0.0400
-3 -16 5 1.4286 -0.1055
-3 -16 6 -2.0301 -0.1052
-3 -16 7 3.6564 -0.0011
-3 -16 8 3.6604 0.0322
-3 -16 9 5.1285 0.1371
-3 -16 10 2.6893 0.0994
-3 -16 11 1.9853 -0.0584
-3 -16 12 1.7245 0.0047
-3 -16 13 0.0968 0.0465
-3 -16 14 1.0592 0.0357
-3 -16 15 -3.2610 0.0778
-3 -16 16 -0.1745 -0.0000
-3 -16 17 2.1233 -0.5886
-3 -16 18 -0.5620 -0.2530
-3 -15 1 -2.5196 -0.3759
-3 -15 2 1.8218 -0.0566
-3 -15 3 1.8264 0.1362
-3 -15 4 -2.7032 0.1099
-3 -15 5 3.8062 -0.0946
-3 -15 6 0.8558 -0.1893
-3 -15 7 -1.1375 -0.0713
-3 -15 8 2.2307 0.0762
-3 -15 9 4.3875 0.0993
-3 -15 10 -2.7181 0.0929
-3 -15 11 3.2080 -0.0563
-3 -15 12 -2.1804 -0.0635
-3 -15 13 1.5168 -0.0167
-3 -15 14 -0.8962 0.0539
-3 -15 15 2.8124 0.0186
-3 -15 16 -4.6110 -0.0917
-3 -15 17 -2.1892 -0.3568
-3 -15 18 -2.4672 0.1615
-3 -14 1 1.1493 -0.3750
-3 -14 2 -10.2002 0.0389
-3 -14 3 6.6427 -0.0335
-3 -14 4 -4.0062 -0.0946
-3 -14 5 -7.0732 0.0558
-3 -14 6 -1.0670 0.1211
-3 -14 7 -5.0206 0.0405
-3 -14 8 0.3231 -0.0152
-3 -14 9 2.5171 -0.0421
-3 -14 10 -2.2909 0.0555
-3 -14 11 -5.4219 -0.0027
-3 -14 12 -1.0163 -0.0274
-3 -14 13 -7.0985 0.0462
-3 -14 14 -2.3638 -0.0260
-3 -14 15 -2.8033 -0.1344
-3 -14 16 2.7120 0.0705
-3 -14 17 -1.3370 0.0394
-3 -14 18 4.2599 0.2087
-3 -14 19 2.5446 0.0963
-3 -13 1 0.5362 1.1808
-3 -13 2 -2.4459 -0.0909
-3 -13 3 -7.9466 -0.3678
-3 -13 4 4.5697 -0.0331
-3 -13 5 -9.5765 0.0570
-3 -13 6 -4.0740 0.0554
-3 -13 7 0.9444 0.0681
-3 -13 8 0.8503 0.0896
-3 -13 9 -5.1511 -0.0554
-3 -13 10 4.1305 -0.1034
-3 -13 11 -7.6199 0.0320
-3 -13 12 -3.2114 0.0652
-3 -13 13 1.2247 -0.0550
-3 -13 14 2.3269 -0.1182
-3 -13 15 0.2748 -0.1056
-3 -13 16 4.3673 0.1547
-3 -13 17 -1.8489 0.0258
-3 -13 18 0.0424 -0.0230
-3 -13 19 -2.5228 0.2326
-3 -12 1 -1.7583 -0.1472
-3 -12 2 6.5488 0.4476
-3 -12 3 2.2062 0.2144
-3 -12 4 6.8553 -0.1396
-3 -12 5 10.0461 -0.1078
-3 -12 6 6.0918 0.1028
-3 -12 7 -1.4557 0.0425
-3 -12 8 13.7351 -0.0811
-3 -12 9 -1.9097 -0.0661
-3 -12 10 2.6715 0.0212
-3 -12 11 9.2816 0.0063
-3 -12 12 -1.9040 -0.0163
-3 -12 13 2.9497 0.0278
-3 -12 14 -0.6677 0.0991
-3 -12 15 -3.2413 -0.0154
-3 -12 16 -3.3911 -0.0664
-3 -12 17 -0.9384 -0.0490
-3 -12 18 -0.4408 0.0653
-3 -12 19 2.6044 0.0577
-3 -12 20 -2.2601 -0.3806
-3 -11 1 -0.8615 -0.2572
-3 -11 2 0.0381 -0.2799
-3 -11 3 10.3000 -0.0669
-3 -11 4 -2.8826 0.3141
-3 -11 5 -0.8046 0.1690
-3 -11 6 7.5063 -0.0942
-3 -11 7 -0.4665 -0.0972
-3 -11 8 0.0741 0.0969
-3 -11 9 14.5156 0.0812
-3 -11 10 -5.8367 -0.0530
-3 -11 11 2.1342 -0.0987
-3 -11 12 1.4262 -0.0231
-3 -11 13 3.3723 -0.0367
-3 -11 14 1.2265 -0.0084
-3 -11 15 2.7455 -0.0051
-3 -11 16 3.7317 0.0940
-3 -11 17 4.8140 0.1302
-3 -11 18 2.1816 -0.0946
-3 -11 19 2.8398 -0.2522
-3 -11 20 -3.8528 -0.2416
-3 -10 1 0.0769 -1.2181
-3 -10 2 -11.2410 -0.1851
-3 -10 3 -1.1396 0.2237
-3 -10 4 -2.8206 0.0524
-3 -10 5 -11.1851 -0.1312
-3 -10 6 -1.3165 -0.0671
-3 -10 7 0.7019 0.0200
-3 -10 8 -15.0508 -0.0491
-3 -10 9 -0.0708 0.0367
-3 -10 10 -2.8827 0.0494
-3 -10 11 -2.0461 -0.0041
-3 -10 12 2.4494 -0.0813
-3 -10 13 8.4852 -0.1346
-3 -10 14 -3.1685 -0.0142
-3 -10 15 3.1407 0.0996
-3 -10 16 1.9574 -0.0100
-3 -10 17 -2.1937 0.0054
-3 -10 18 0.5115 -0.0357
-3 -10 19 -1.5415 0.1220
-3 -10 20 -0.6329 0.0345
-3 -9 1 -0.8990 0.7772
-3 -9 2 -5.2028 0.3497
-3 -9 3 -4.6950 -0.1002
-3 -9 4 -6.8645 -0.1285
-3 -9 5 -7.8197 0.0260
-3 -9 6 -8.8580 -0.0019
-3 -9 7 -10.1204 -0.0418
-3 -9 8 -3.6644 -0.0086
-3 -9 9 -5.2767 -0.0013
-3 -9 10 -4.1076 -0.0252
-3 -9 11 -12.1905 -0.0231
-3 -9 12 -6.4282 0.0640
-3 -9 13 -9.8773 0.0685
-3 -9 14 -1.7844 0.0650
-3 -9 15 -10.2781 -0.0109
-3 -9 16 0.4940 -0.1331
-3 -9 17 -0.0877 -0.0815
-3 -9 18 -1.8092 -0.0349
-3 -9 19 3.7712 0.0872
-3 -9 20 2.1727 0.3014
-3 -8 1 -4.8262 1.0091
-3 -8 2 10.0120 -0.0100
-3 -8 3 -0.8127 -0.2469
-3 -8 4 1.7347 -0.1325
-3 -8 5 -1.7064 0.0208
-3 -8 6 8.2900 0.1430
-3 -8 7 2.5136 0.1590
-3 -8 8 -6.3759 0.0172
-3 -8 9 1.7678 -0.1682
-3 -8 10 -9.9388 -0.1017
-3 -8 11 1.1900 0.0165
-3 -8 12 2.4575 0.1125
-3 -8 13 1.8047 0.0412
-3 -8 14 -4.2809 -0.0427
-3 -8 15 1.6972 0.0188
-3 -8 16 0.9114 0.0847
-3 -8 17 -1.2922 0.0175
-3 -8 18 -0.4417 -0.1144
-3 -8 19 0.6346 -0.0789
-3 -8 20 -0.6053 0.1850
-3 -7 1 -2.7118 -0.8822
-3 -7 2 5.9347 -0.1127
-3 -7 3 15.9719 0.0104
-3 -7 4 -2.5910 -0.0477
-3 -7 5 16.4790 0.0017
-3 -7 6 13.9942 0.0556
-3 -7 7 12.8800 0.0092
-3 -7 8 15.9799 0.0037
-3 -7 9 -3.7785 0.0348
-3 -7 10 25.6917 0.1043
-3 -7 11 -2.0773 -0.0242
-3 -7 12 14.5103 -0.0562
-3 -7 13 -2.2459 -0.0536
-3 -7 14 -3.5718 -0.0365
-3 -7 15 1.4254 -0.0492
-3 -7 16 2.4375 -0.0027
-3 -7 17 0.8586 0.1101
-3 -7 18 1.2877 0.2042
-3 -7 19 2.9731 0.0840
-3 -7 20 1.0857 -0.4613
-3 -6 1 3.0422 -0.1341
-3 -6 2 -0.2031 -0.1653
-3 -6 3 4.1574 0.1411
-3 -6 4 -15.1816 0.2869
-3 -6 5 -0.9768 -0.0582
-3 -6 6 11.2957 -0.2360
-3 -6 7 3.7816 -0.1701
-3 -6 8 8.8865 0.0912
-3 -6 9 -1.6560 0.1372
-3 -6 10 -0.8696 0.0371
-3 -6 11 14.8199 -0.0038
-3 -6 12 -3.4159 -0.0016
-3 -6 13 5.3291 0.0093
-3 -6 14 -2.2084 -0.0535
-3 -6 15 5.3778 -0.0504
-3 -6 16 -2.5208 0.0623
-3 -6 17 0.2067 -0.0337
-3 -6 18 -0.0450 -0.0927
-3 -6 19 -1.0908 -0.0108
-3 -6 20 -1.3772 0.1847
-3 -5 1 5.9516 -0.9577
-3 -5 2 -19.6739 0.2114
-3 -5 3 -13.9015 0.3445
-3 -5 4 -12.3400 -0.0085
-3 -5 5 -15.9852 -0.0621
-3 -5 6 -0.8267 0.0814
-3 -5 8 -10.7841 -0.0605
-3 -5 9 -8.6573 -0.0783
-3 -5 10 -5.5561 0.0322
-3 -5 11 -6.3582 -0.0062
-3 -5 12 1.1494 -0.0813
-3 -5 13 -8.4321 -0.0357
-3 -5 14 -7.6141 0.0785
-3 -5 15 4.3257 0.0976
-3 -5 16 -5.2173 -0.0464
-3 -5 17 -1.3230 0.0473
-3 -5 18 1.1261 -0.0912
-3 -5 19 1.2448 -0.1730
-3 -5 20 1.0682 -0.2620
-3 -4 1 -5.2404 1.2328
-3 -4 2 12.2728 -0.1797
-3 -4 3 -19.9422 -0.5556
-3 -4 4 0.4762 -0.0103
-3 -4 5 2.3808 0.2142
-3 -4 6 -9.8616 0.0638
-3 -4 7 16.2096 -0.0102
-3 -4 8 -6.3357 0.0742
-3 -4 9 1.5945 0.0284
-3 -4 10 -11.1539 -0.0696
-3 -4 11 -8.2262 -0.0860
-3 -4 12 -8.6431 0.0144
-3 -4 13 1.8544 0.0275
-3 -4 14 -1.3163 -0.0427
-3 -4 15 0.4093 -0.0442
-3 -4 16 4.7361 -0.0377
-3 -4 17 1.6606 0.0245
-3 -4 18 3.4363 0.0463
-3 -4 19 2.7869 0.2003
-3 -3 1 -13.9544 0.3070
-3 -3 2 -24.5366 0.2858
-3 -3 3 14.1611 0.0943
-3 -3 4 7.3666 -0.2493
-3 -3 5 6.2320 -0.1897
-3 -3 6 16.6606 0.0879
-3 -3 7 8.0679 0.1133
-3 -3 8 23.7272 -0.0490
-3 -3 9 -1.9073 -0.1593
-3 -3 10 17.0865 0.0012
-3 -3 11 12.5040 0.0993
-3 -3 12 5.9742 0.0534
-3 -3 13 5.5334 0.0147
-3 -3 14 8.7228 -0.0511
-3 -3 15 -4.6735 -0.0162
-3 -3 16 -0.8150 -0.0982
-3 -3 17 -2.5086 -0.1037
-3 -3 18 -1.3981 0.0222
-3 -3 19 -0.8214 0.1766
-3 -2 1 -13.7053 -0.2962
-3 -2 2 22.7865 0.2280
-3 -2 3 3.0099 0.1134
-3 -2 4 19.7622 0.1131
-3 -2 5 3.2150 0.0978
-3 -2 6 8.6569 -0.0527
-3 -2 7 19.3200 -0.1262
-3 -2 8 14.6630 -0.0530
-3 -2 9 15.9162 0.0089
-3 -2 10 1.0820 -0.0409
-3 -2 11 3.0558 -0.0355
-3 -2 12 -0.7038 -0.0098
-3 -2 13 -6.4470 0.0759
-3 -2 14 1.6912 -0.0347
-3 -2 15 -4.5645 -0.0712
-3 -2 16 3.4668 0.0509
-3 -2 17 -0.3004 0.1442
-3 -2 18 4.4401 0.0590
-3 -2 19 0.4032 -0.2355
-3 -1 1 -10.3236 -0.9942
-3 -1 2 -48.9884 -0.5579
-3 -1 3 10.7633 0.0772
-3 -1 4 -24.9642 0.2625
-3 -1 5 -24.4241 -0.0077
-3 -1 6 1.0571 -0.0730
-3 -1 7 -24.6041 -0.0318
-3 -1 8 -17.0751 -0.0112
-3 -1 9 -17.6642 0.0449
-3 -1 10 -6.5490 0.0664
-3 -1 11 -4.4448 0.0242
-3 -1 12 -1.1837 -0.0937
-3 -1 13 4.9212 -0.1326
-3 -1 14 -2.0140 0.0054
-3 -1 15 1.3709 0.1214
-3 -1 16 2.2638 0.0823
-3 -1 17 0.5179 -0.0495
-3 -1 18 2.0907 0.1272
-3 0 1 -9.1357 -0.6496
-3 0 2 -43.4218 0.1938
-3 0 3 3.6900 0.1095
-3 0 4 -20.3220 -0.1119
-3 0 5 -21.9763 -0.0723
-3 0 6 -16.1215 -0.0016
-3 0 7 0.7230 -0.0234
-3 0 8 -15.1476 0.0121
-3 0 9 0.7729 0.1099
-3 0 10 2.5617 0.0154
-3 0 11 -1.4102 -0.0344
-3 0 12 -4.1358 -0.0586
-3 0 13 1.4612 0.0315
-3 0 14 -4.3557 0.0435
-3 0 15 -4.4507 -0.0448
-3 0 16 -2.4608 0.0071
-3 0 17 3.8026 0.0696
-3 0 18 -1.9888 0.2588
-3 1 1 73.9430 2.2725
-3 1 2 -28.8801 0.2106
-3 1 3 -3.0577 -0.3382
-3 1 4 28.2050 -0.0625
-3 1 5 14.1260 0.0789
-3 1 6 18.9353 0.0616
-3 1 7 13.0054 0.0604
-3 1 8 -1.9690 -0.0022
-3 1 9 -4.5248 -0.1217
-3 1 10 -3.0344 -0.0970
-3 1 11 -0.4267 0.0375
-3 1 12 -2.5885 0.0992
-3 1 13 0.0925 0.0606
-3 1 14 1.8076 -0.0084
-3 1 15 -1.7881 0.0280
-3 1 16 -0.7744 0.1118
-3 1 17 -2.7580 -0.0214
-3 2 1 -3.5044 -0.7033
-3 2 2 31.2199 0.0189
-3 2 3 5.9162 0.0441
-3 2 4 12.5311 -0.1531
-3 2 5 7.3600 0.0217
-3 2 6 23.2815 0.2010
-3 2 7 -8.6734 0.1234
-3 2 8 10.5895 -0.0658
-3 2 9 1.2269 -0.0944
-3 2 10 9.4819 -0.0123
-3 2 11 4.3862 -0.0107
-3 2 12 7.2880 -0.0087
-3 2 13 6.9750 -0.0161
-3 2 14 -1.7591 0.0802
-3 2 15 1.6029 -0.0955
-3 2 16 -1.4741 0.1233
-3 2 17 -0.5094 0.1618
-3 3 1 3.4279 -0.3749
-3 3 2 -18.5357 -0.2313
-3 3 3 -16.6213 -0.0335
-3 3 4 11.9420 0.2010
-3 3 5 -16.3351 0.0722
-3 3 6 17.2567 -0.1923
-3 3 7 -2.2332 -0.1502
-3 3 8 -9.1890 0.0608
-3 3 9 3.8535 0.1384
-3 3 10 -7.3041 0.0376
-3 3 11 -1.6582 -0.0447
-3 3 12 -1.7938 0.0030
-3 3 13 -1.1840 -0.0465
-3 3 14 4.3211 0.0938
-3 3 15 -2.2487 0.1300
-3 3 16 3.6282 -0.2519
-3 4 1 -6.7443 -0.8446
-3 4 2 -36.8604 0.1145
-3 4 3 -7.4200 0.4709
-3 4 4 -6.2039 0.0951
-3 4 5 -0.1932 -0.2149
-3 4 6 -11.7130 -0.1162
-3 4 7 -4.9482 -0.0141
-3 4 8 -14.7985 -0.0138
-3 4 9 -5.6700 -0.0109
-3 4 10 -2.6693 0.0692
-3 4 11 -1.8044 0.0353
-3 4 12 1.8556 -0.0005
-3 4 13 5.6903 -0.0113
-3 4 14 -0.6455 0.1121
-3 4 15 1.4204 -0.1679
-3 4 16 -1.7013 0.2157
-3 5 1 -8.3397 0.4443
-3 5 2 -2.6482 0.0217
-3 5 3 1.0401 -0.2860
-3 5 4 -2.1683 -0.0240
-3 5 5 18.8526 0.1830
-3 5 6 2.8425 0.1197
-3 5 7 5.1990 -0.0666
-3 5 8 -0.5643 -0.0295
-3 5 9 3.1827 0.0258
-3 5 10 0.4691 -0.0340
-3 5 11 0.0747 -0.0295
-3 5 12 -0.8433 0.0202
-3 5 13 -4.4150 -0.0643
-3 5 14 0.8351 0.1094
-3 5 15 -1.6976 0.2201
-3 6 1 11.9951 1.1509
-3 6 2 -21.0652 -0.2367
-3 6 3 19.0063 -0.2757
-3 6 4 3.1101 -0.0860
-3 6 5 8.9936 -0.0808
-3 6 6 7.1393 0.0399
-3 6 7 -4.6313 0.1364
-3 6 8 4.9282 0.0339
-3 6 9 -1.0829 -0.0781
-3 6 10 4.8593 -0.0905
-3 6 11 -0.8139 0.0285
-3 6 12 3.4406 0.0831
-3 6 13 1.6639 0.0653
-3 6 14 0.0633 -0.2088
-3 7 1 -12.2162 -0.5322
-3 7 2 7.1797 0.4263
-3 7 3 -10.8529 0.1342
-3 7 4 10.8248 -0.1712
-3 7 5 -0.4727 -0.0592
-3 7 6 -1.6948 -0.0342
-3 7 7 -1.2539 -0.0127
-3 7 8 1.7470 -0.0433
-3 7 9 4.8551 -0.0157
-3 7 10 -0.7633 0.0002
-3 7 11 1.3739 -0.0023
-3 7 12 1.1823 -0.0160
-3 7 13 0.1755 0.1123
-3 8 1 -3.0652 -0.0924
-3 8 2 -11.4915 -0.2942
-3 8 3 3.4532 0.0432
-3 8 4 -3.8138 0.3355
-3 8 5 3.7329 0.1227
-3 8 6 -0.1125 -0.1359
-3 8 7 -7.3582 -0.0868
-3 8 8 0.5505 0.0754
-3 8 9 -1.4342 0.0629
-3 8 10 -2.6541 -0.0388
-3 8 11 0.6519 -0.0151
-3 8 12 1.0615 0.0755
-3 9 1 -7.9945 -1.4217
-3 9 2 -5.3441 -0.0959
-3 9 3 -1.2392 0.2051
-3 9 4 -0.0091 -0.0223
-3 9 5 -4.2722 -0.0857
-3 9 6 -4.5662 -0.0030
-3 9 7 -2.8638 0.0162
-3 9 8 -3.1390 -0.0460
-3 9 9 -0.1085 0.1111
-3 9 10 -1.9288 0.1940
-3 9 11 0.8197 -0.1401
-3 10 1 4.3238 1.4622
-3 10 2 -4.3284 0.1811
-3 10 3 0.3499 -0.2748
-3 10 4 6.5632 0.0104
-3 10 5 5.2162 0.0135
-3 10 6 4.4492 -0.1225
-3 10 7 4.3389 0.0093
-3 10 8 1.8834 0.1320
-3 10 9 -1.7570 0.0453
-3 10 10 1.0101 -0.1449
-3 10 11 1.6138 0.2497
-3 11 1 -3.4405 0.5797
-3 11 2 4.8366 0.0871
-3 11 3 2.1795 -0.0380
-3 11 4 1.2094 -0.1290
-3 11 5 7.4775 0.0051
-3 11 6 -1.9433 0.1575
-3 11 7 1.7174 0.0895
-3 11 8 -1.1065 0.0085
-3 11 9 -0.4250 0.1459
-3 11 10 -1.2441 -0.2115
-3 12 1 -1.8239 -0.7298
-3 12 2 -4.2330 -0.0815
-3 12 3 -0.0834 0.0251
-3 12 4 -3.9777 -0.0095
-3 12 5 -4.1831 0.0765
-3 12 6 2.2711 0.0064
-3 12 7 -2.2052 0.0348
-3 12 8 -0.9052 -0.1590
-3 12 9 -1.7391 -0.1489
-3 13 1 -4.0680 -0.2667
-3 13 2 -1.9840 -0.1608
-3 13 3 1.3186 0.2439
-3 13 4 1.8978 0.2836
-3 13 5 -1.1751 0.0085
-3 13 6 1.2372 -0.2867
-3 13 7 -1.4978 -0.0044
-3 14 1 2.4831 -0.4167
-3 14 2 -1.3490 0.2925
-3 14 3 2.2925 0.2349
-3 14 4 2.4764 -0.1266
-3 14 5 -0.0484 -0.0072
-3 14 6 2.4921 0.3136
-3 15 1 0.9850 1.1963
-3 15 2 -2.0027 -0.2837
-3 15 3 0.3587 -0.3089
-3 15 4 0.9839 0.0656
-3 16 1 -0.4094 -0.2156
-3 16 2 -3.1429 0.1759
-3 17 1 -1.0900 0.3330
-2 -18 4 -0.6995 0.0865
-2 -18 5 0.9303 0.0467
-2 -18 6 1.0165 0.0503
-2 -18 7 -3.8434 -0.0937
-2 -18 8 1.3360 0.0190
-2 -18 9 -1.7804 -0.1930
-2 -18 10 3.6654 -0.0846
-2 -18 11 -0.0084 -0.0367
-2 -18 12 2.5155 0.0011
-2 -18 13 2.6560 0.0764
-2 -18 14 -0.9000 0.0315
-2 -18 15 3.0887 0.0344
-2 -17 2 2.3849 0.0647
-2 -17 3 0.4425 -0.0754
-2 -17 4 3.5355 -0.0952
-2 -17 5 -1.2557 -0.1316
-2 -17 6 2.9385 0.0338
-2 -17 7 1.1408 -0.0247
-2 -17 8 0.1754 0.0002
-2 -17 9 3.9621 -0.0991
-2 -17 10 2.4041 -0.0189
-2 -17 11 4.9222 -0.0304
-2 -17 12 3.0399 0.0085
-2 -17 13 3.1358 0.0996
-2 -17 14 -0.1436 0.0105
-2 -17 15 0.1828 -0.0120
-2 -17 16 2.4860 0.1697
-2 -16 1 0.7854 0.2330
-2 -16 2 -1.4390 0.1175
-2 -16 3 -0.7841 -0.1119
-2 -16 4 2.3760 -0.0432
-2 -16 5 0.8037 -0.0208
-2 -16 6 -1.4990 0.0695
-2 -16 7 0.4114 -0.0306
-2 -16 8 -4.3064 -0.0240
-2 -16 9 -2.1721 -0.0650
-2 -16 10 2.1787 0.0068
-2 -16 11 -3.2129 0.0402
-2 -16 12 -1.3982 0.0268
-2 -16 13 -0.8429 0.0183
-2 -16 14 2.0100 0.0248
-2 -16 15 -3.5868 0.0717
-2 -16 16 -0.1894 0.2800
-2 -16 17 -2.0028 -0.0929
-2 -16 18 -4.3569 -0.8309
-2 -15 1 -3.1176 -0.7934
-2 -15 2 3.2825 -0.3391
-2 -15 3 -2.8556 0.1187
-2 -15 4 -2.8908 0.2454
-2 -15 5 1.0445 -0.0001
-2 -15 6 -8.7500 -0.0699
-2 -15 7 -5.7429 -0.0957
-2 -15 8 -5.1887 0.0342
-2 -15 9 -0.5194 0.1190
-2 -15 10 -7.4990 0.0575
-2 -15 11 2.3767 -0.0146
-2 -15 12 -6.7274 -0.0440
-2 -15 13 -3.2311 -0.0209
-2 -15 14 -5.0377 0.1100
-2 -15 15 0.7125 0.0144
-2 -15 16 -3.1848 0.0146
-2 -15 17 3.1122 0.0031
-2 -15 18 0.0459 0.0404
-2 -15 19 2.0515 0.0348
-2 -14 1 4.1226 -0.6949
-2 -14 2 -6.1329 0.1314
-2 -14 3 4.8505 0.0989
-2 -14 4 -6.9964 -0.0069
-2 -14 5 -2.8679 -0.1280
-2 -14 6 1.9714 -0.0721
-2 -14 7 -5.6389 -0.0196
-2 -14 8 -5.1208 0.0164
-2 -14 9 6.8991 0.0841
-2 -14 10 -2.0459 0.1071
-2 -14 11 0.6968 0.0364
-2 -14 12 6.0731 -0.0311
-2 -14 13 -3.2909 -0.0178
-2 -14 14 4.6834 0.0474
-2 -14 15 1.6954 -0.0844
-2 -14 16 3.5291 -0.0811
-2 -14 17 -2.0200 0.0352
-2 -14 18 -1.8271 0.0802
-2 -14 19 1.4764 -0.0165
-2 -13 1 4.5070 1.4878
-2 -13 2 -0.5439 0.1319
-2 -13 3 -1.2161 -0.2190
-2 -13 4 15.3237 -0.0118
-2 -13 5 0.0757 0.0128
-2 -13 6 1.5099 0.0580
-2 -13 7 12.3935 0.0748
-2 -13 8 -1.4788 0.0036
-2 -13 9 6.4993 -0.0838
-2 -13 10 13.5751 -0.1347
-2 -13 11 1.1692 0.0038
-2 -13 12 6.9217 0.1522
-2 -13 13 2.8279 0.0429
-2 -13 14 2.7057 -0.0684
-2 -13 15 -0.9368 -0.0754
-2 -13 16 1.9710 0.0355
-2 -13 17 -0.9114 0.0342
-2 -13 18 4.6188 -0.0521
-2 -13 19 1.2386 -0.1493
-2 -13 20 3.7976 0.3968
-2 -12 1 3.2300 -0.2687
-2 -12 2 6.6817 0.0068
-2 -12 3 -4.5759 -0.1395
-2 -12 4 3.3280 -0.1392
-2 -12 5 4.1583 0.0215
-2 -12 6 -6.0149 0.1895
-2 -12 7 -1.0925 0.1389
-2 -12 8 13.9039 -0.0259
-2 -12 9 -7.7001 -0.0891
-2 -12 10 8.3902 0.0022
-2 -12 11 0.4705 -0.0322
-2 -12 12 -4.3153 -0.0383
-2 -12 13 0.0629 -0.0036
-2 -12 14 8.3500 0.0435
-2 -12 15 -0.2218 0.0083
-2 -12 16 1.0598 -0.0325
-2 -12 17 1.2182 -0.0429
-2 -12 18 -0.9561 0.1331
-2 -12 19 1.3391 0.0483
-2 -12 20 -1.6761 -0.2376
-2 -11 1 -2.8965 -0.0255
-2 -11 2 0.4343 -0.1078
-2 -11 3 2.0652 -0.0946
-2 -11 4 -4.7130 0.1352
-2 -11 5 -1.1623 0.0779
-2 -11 6 1.3680 -0.0998
-2 -11 7 -8.9434 -0.1147
-2 -11 8 -3.2216 0.0921
-2 -11 9 -1.7873 0.1197
-2 -11 10 -10.0281 0.0684
-2 -11 11 -0.6983 -0.0483
-2 -11 12 -8.2756 -0.0045
-2 -11 13 -4.0374 -0.0175
-2 -11 14 -0.6408 -0.1140
-2 -11 15 -4.1829 -0.0665
-2 -11 16 -7.5420 0.0543
-2 -11 17 -3.9531 0.0569
-2 -11 18 -3.2378 0.0379
-2 -11 19 1.2661 -0.0417
-2 -11 20 -0.0068 -0.0207
-2 -10 1 3.8692 -1.0875
-2 -10 2 -6.1091 0.0771
-2 -10 3 2.3693 0.4420
-2 -10 4 4.8261 0.1457
-2 -10 5 -13.7223 -0.1191
-2 -10 6 -7.6161 -0.1107
-2 -10 7 1.3256 -0.0261
-2 -10 8 -13.6830 -0.0052
-2 -10 9 0.7840 -0.0395
-2 -10 10 -4.5808 0.0112
-2 -10 11 -8.0674 0.0083
-2 -10 12 -16.6182 0.0076
-2 -10 13 1.9353 0.0133
-2 -10 14 -8.6388 0.0552
-2 -10 15 1.5078 0.0533
-2 -10 16 0.4012 0.0233
-2 -10 17 0.6193 -0.0412
-2 -10 18 4.0656 -0.0671
-2 -10 19 1.0252 -0.0935
-2 -10 20 3.4076 -0.2706
-2 -9 1 5.9677 -0.0503
-2 -9 2 -6.2270 -0.0339
-2 -9 3 -2.1037 -0.1759
-2 -9 4 4.8277 -0.0152
-2 -9 5 2.3383 0.1375
-2 -9 6 -5.2636 0.0797
-2 -9 7 11.0622 -0.0652
-2 -9 8 4.7661 -0.0279
-2 -9 9 2.0874 0.0149
-2 -9 10 5.4813 -0.0124
-2 -9 11 7.6172 -0.0490
-2 -9 12 3.1604 -0.0156
-2 -9 13 7.8709 0.0278
-2 -9 14 14.0411 0.0727
-2 -9 15 -2.2241 0.0603
-2 -9 16 5.1089 0.0160
-2 -9 17 1.9694 -0.0543
-2 -9 18 0.3688 -0.0822
-2 -9 19 -0.1653 -0.0725
-2 -9 20 0.2617 0.1001
-2 -8 1 1.0628 1.0016
-2 -8 2 7.0399 -0.1092
-2 -8 3 4.3090 -0.2249
-2 -8 4 16.1128 -0.1514
-2 -8 5 3.7169 -0.0798
-2 -8 6 8.9941 0.0422
-2 -8 7 17.9300 0.1266
-2 -8 8 13.5712 0.1028
-2 -8 9 27.0353 -0.0350
-2 -8 10 2.7047 -0.0197
-2 -8 11 11.0582 0.0737
-2 -8 12 2.3118 0.0570
-2 -8 13 6.4419 -0.0310
-2 -8 14 -0.1372 -0.0362
-2 -8 15 -0.3713 -0.0309
-2 -8 16 0.3189 0.0375
-2 -8 17 0.1660 -0.0200
-2 -8 18 -0.1781 -0.0080
-2 -8 19 0.0577 0.1162
-2 -8 20 -0.2307 0.6611
-2 -7 1 3.7853 0.1620
-2 -7 2 9.9313 0.4846
-2 -7 3 11.7886 0.0427
-2 -7 4 -2.0521 -0.1708
-2 -7 5 -11.7033 -0.0771
-2 -7 6 -7.5610 0.0468
-2 -7 7 1.7506 0.0126
-2 -7 8 2.6787 -0.0235
-2 -7 9 -14.9397 -0.0219
-2 -7 10 0.8876 0.0271
-2 -7 11 -23.0700 0.0174
-2 -7 12 3.6890 0.0571
-2 -7 13 2.7674 0.0592
-2 -7 14 0.1432 0.0213
-2 -7 15 -3.7209 -0.0395
-2 -7 16 3.5395 -0.1080
-2 -7 17 -2.7584 -0.0296
-2 -7 18 -2.2659 0.1626
-2 -7 19 -0.7340 0.0635
-2 -7 20 -1.2437 -0.4840
-2 -6 1 -4.5466 -0.0989
-2 -6 2 -6.5765 -0.3752
-2 -6 3 6.8206 -0.0111
-2 -6 4 -13.9762 0.2914
-2 -6 5 -20.1370 0.1468
-2 -6 6 -16.3599 -0.0102
-2 -6 7 -21.3985 -0.0786
-2 -6 8 2.9934 0.0249
-2 -6 9 -12.0272 0.0386
-2 -6 10 -12.1178 -0.0418
-2 -6 11 2.5036 -0.0414
-2 -6 12 -19.3646 -0.0010
-2 -6 13 0.3574 -0.0354
-2 -6 14 -3.8029 -0.0622
-2 -6 15 -5.9286 -0.0253
-2 -6 16 0.0874 0.1432
-2 -6 17 0.1675 0.1381
-2 -6 18 -0.4880 -0.0659
-2 -6 19 0.2040 -0.2154
-2 -6 20 1.0861 -0.1750
-2 -5 1 20.2331 -2.1047
-2 -5 2 -13.5587 -0.1577
-2 -5 3 2.4321 0.3571
-2 -5 4 -6.1202 0.0534
-2 -5 5 -18.9967 -0.1478
-2 -5 6 1.0452 -0.0519
-2 -5 7 -7.4409 -0.0022
-2 -5 8 8.0611 0.0186
-2 -5 9 6.2431 0.1034
-2 -5 10 -7.7209 0.1189
-2 -5 11 -8.6349 0.0193
-2 -5 12 3.9703 -0.1251
-2 -5 13 -6.3679 -0.0936
-2 -5 14 0.0378 0.0194
-2 -5 15 9.1241 0.0791
-2 -5 16 -2.3264 -0.0454
-2 -5 17 0.8163 -0.0825
-2 -5 18 0.7561 -0.0262
-2 -5 19 1.1385 0.2062
-2 -4 1 -1.0141 1.4183
-2 -4 2 17.0384 0.1643
-2 -4 3 -11.9661 -0.2411
-2 -4 4 25.5794 0.0465
-2 -4 5 10.2252 0.0206
-2 -4 6 -1.9579 -0.1021
-2 -4 7 16.6305 -0.0975
-2 -4 8 -3.0782 -0.0006
-2 -4 9 29.6389 0.0343
-2 -4 10 11.2559 -0.0366
-2 -4 11 10.2716 -0.0446
-2 -4 12 10.1479 0.0611
-2 -4 13 14.8360 0.1020
-2 -4 14 -2.9146 0.0229
-2 -4 15 6.4555 -0.0737
-2 -4 16 0.8772 -0.0690
-2 -4 17 -2.6049 0.0683
-2 -4 18 -3.2029 -0.1109
-2 -4 19 0.3273 -0.1069
-2 -3 1 54.1536 0.7502
-2 -3 2 11.8733 0.0930
-2 -3 3 20.9520 -0.1480
-2 -3 4 1.8228 -0.1949
-2 -3 5 1.3007 0.0014
-2 -3 6 -7.8522 0.2323
-2 -3 7 5.9006 0.1767
-2 -3 8 24.4592 -0.0788
-2 -3 9 -0.8149 -0.2029
-2 -3 10 8.5775 -0.0731
-2 -3 11 -5.0426 0.0814
-2 -3 12 -8.1944 0.0264
-2 -3 13 0.0966 -0.0262
-2 -3 14 6.1953 0.0186
-2 -3 15 -1.6968 0.0747
-2 -3 16 2.8292 -0.0560
-2 -3 17 1.5259 -0.1273
-2 -3 18 0.7090 0.0141
-2 -3 19 0.7252 0.4378
-2 -2 1 -27.7768 -0.4005
-2 -2 2 21.0585 -0.0634
-2 -2 3 -68.0389 -0.2073
-2 -2 4 -3.8910 -0.0078
-2 -2 5 -24.3450 0.0958
-2 -2 6 -38.0273 0.0248
-2 -2 7 -18.6656 -0.0391
-2 -2 8 -16.1473 0.0545
-2 -2 9 -16.4660 0.1089
-2 -2 10 -22.7559 0.0159
-2 -2 11 -5.5767 -0.0736
-2 -2 12 -1.8016 -0.0126
-2 -2 13 -8.1668 0.0428
-2 -2 14 4.2567 -0.0783
-2 -2 15 -1.8990 -0.0995
-2 -2 16 -3.2070 0.0427
-2 -2 17 -4.0774 0.1420
-2 -2 18 0.3665 -0.0682
-2 -1 1 -7.1429 -0.4255
-2 -1 2 30.5379 -0.0008
-2 -1 3 17.9526 0.3880
-2 -1 4 -7.1433 0.2017
-2 -1 5 -16.5219 -0.1222
-2 -1 6 -8.1582 -0.1637
-2 -1 7 -15.4684 -0.0297
-2 -1 8 14.6224 0.0567
-2 -1 9 2.1825 0.0413
-2 -1 10 -1.5194 0.0810
-2 -1 11 -8.4886 0.0614
-2 -1 12 -0.6199 -0.0197
-2 -1 13 -5.9136 -0.1006
-2 -1 14 -3.2425 -0.0062
-2 -1 15 -4.4118 0.0919
-2 -1 16 -0.1775 0.0371
-2 -1 17 -4.7638 -0.0841
-2 -1 18 0.1547 0.1158
-2 0 1 15.6982 -1.0562
-2 0 2 42.3786 0.3540
-2 0 3 35.7156 0.2518
-2 0 4 13.8729 0.0592
-2 0 5 11.9285 0.0738
-2 0 6 6.2122 0.0855
-2 0 7 31.7491 -0.0269
-2 0 8 4.5436 -0.0482
-2 0 9 5.1140 0.0305
-2 0 10 1.1064 0.0312
-2 0 11 -0.2308 -0.0574
-2 0 12 -0.5156 -0.0409
-2 0 13 8.3020 0.0375
-2 0 14 5.2035 0.0659
-2 0 15 3.1094 -0.0004
-2 0 16 -0.2624 -0.0148
-2 0 17 4.2285 -0.1352
-2 0 18 -4.6599 -0.0694
-2 1 1 77.0754 1.1445
-2 1 2 -17.7478 -0.5519
-2 1 3 -2.6568 -0.4934
-2 1 4 6.4026 0.1034
-2 1 5 -8.0248 0.1549
-2 1 6 -20.5844 0.0803
-2 1 7 20.3796 0.0627
-2 1 8 13.0093 0.0370
-2 1 9 6.0609 -0.0426
-2 1 10 8.8428 -0.0639
-2 1 11 8.2357 -0.0163
-2 1 12 6.1956 0.0390
-2 1 13 1.1195 0.0020
-2 1 14 7.6547 -0.0150
-2 1 15 0.1550 -0.0550
-2 1 16 0.0126 -0.0198
-2 1 17 0.6052 -0.1342
-2 2 1 1.3466 0.1768
-2 2 2 50.3650 0.4702
-2 2 3 -25.7504 0.0576
-2 2 4 -15.4406 -0.3173
-2 2 5 -5.9243 -0.1880
-2 2 6 6.1405 0.0811
-2 2 7 -1.9897 0.1309
-2 2 8 11.3097 -0.0284
-2 2 9 -9.9333 -0.0618
-2 2 10 -6.9401 0.0220
-2 2 11 -9.9771 0.0558
-2 2 12 -8.1263 0.0781
-2 2 13 -0.3304 -0.0120
-2 2 14 -4.1355 -0.0713
-2 2 15 5.0610 -0.0841
-2 2 16 -1.5299 -0.0124
-2 2 17 -0.3034 0.0188
-2 3 1 12.6623 0.5550
-2 3 2 15.9954 0.1044
-2 3 3 -11.9036 -0.0729
-2 3 4 2.7056 0.1148
-2 3 5 -34.3814 0.1257
-2 3 6 4.3093 -0.0563
-2 3 7 -6.4894 -0.1247
-2 3 8 -6.5202 0.0010
-2 3 9 -4.9508 0.0170
-2 3 10 -8.4446 0.0096
-2 3 11 -3.4135 -0.0502
-2 3 12 -1.2754 -0.0032
-2 3 13 -2.1504 -0.0170
-2 3 14 2.5551 0.0363
-2 3 15 -5.4481 -0.0128
-2 3 16 1.6963 -0.2816
-2 4 1 35.0869 -1.7719
-2 4 2 3.0391 -0.4065
-2 4 3 -10.6687 0.3920
-2 4 4 0.7542 0.1486
-2 4 5 -7.8668 -0.0522
-2 4 6 5.7785 -0.0712
-2 4 7 16.3798 -0.0046
-2 4 8 3.3419 0.0550
-2 4 9 3.4586 0.0017
-2 4 10 2.3007 0.0723
-2 4 11 -2.1486 0.0206
-2 4 12 -5.5478 -0.0865
-2 4 13 1.8621 -0.0939
-2 4 14 -1.8581 0.0207
-2 4 15 1.6791 -0.0828
-2 4 16 -1.8385 -0.0019
-2 5 1 1.1744 -0.2345
-2 5 2 6.6737 0.1933
-2 5 3 -8.1208 -0.0788
-2 5 4 -12.0903 -0.0098
-2 5 5 5.3951 -0.0010
-2 5 6 3.8917 -0.0276
-2 5 7 9.4525 -0.1004
-2 5 8 0.1006 0.0300
-2 5 9 2.6393 0.0990
-2 5 10 1.1251 0.0680
-2 5 11 2.9920 -0.0402
-2 5 12 2.9853 -0.0545
-2 5 13 2.5537 -0.0329
-2 5 14 4.7225 -0.0514
-2 5 15 1.4692 -0.0420
-2 6 1 31.8145 1.9414
-2 6 2 -5.5699 0.0650
-2 6 3 12.5841 -0.1879
-2 6 4 -6.5644 -0.0073
-2 6 5 -4.1738 -0.0067
-2 6 6 9.6891 0.0694
-2 6 7 1.9355 0.0826
-2 6 8 0.3232 -0.0167
-2 6 9 -0.4976 -0.1258
-2 6 10 4.0226 -0.0409
-2 6 11 -2.5250 0.1494
-2 6 12 -1.3781 0.0482
-2 6 13 0.8674 -0.0555
-2 6 14 0.0220 -0.0486
-2 7 1 12.4993 -0.6347
-2 7 2 8.1493 0.1365
-2 7 3 -15.2243 -0.0583
-2 7 4 0.6665 -0.1997
-2 7 5 -4.0939 -0.0127
-2 7 6 -5.0474 0.1569
-2 7 7 -0.1171 0.0670
-2 7 8 -7.1136 -0.0531
-2 7 9 -4.1968 -0.0036
-2 7 10 -4.6328 -0.0324
-2 7 11 -3.7744 -0.1119
-2 7 12 -2.4009 -0.0145
-2 7 13 0.3629 0.3188
-2 8 1 -3.6090 -0.0999
-2 8 2 -1.0663 -0.2927
-2 8 3 -3.3161 0.0270
-2 8 4 -12.0721 0.1748
-2 8 5 0.1338 0.0040
-2 8 6 1.4398 -0.2068
-2 8 7 -7.1421 -0.0526
-2 8 8 3.3490 0.1459
-2 8 9 -0.5602 0.0379
-2 8 10 -1.8958 -0.0607
-2 8 11 -1.9145 0.1393
-2 8 12 -0.3304 0.1732
-2 9 1 -1.9315 -0.8447
-2 9 2 -1.3893 0.4261
-2 9 3 3.4040 0.4907
-2 9 4 -1.3108 0.0089
-2 9 5 1.3160 -0.0889
-2 9 6 9.8148 0.0060
-2 9 7 5.6815 -0.0769
-2 9 8 2.9305 -0.1616
-2 9 9 5.6786 0.0996
-2 9 10 0.3642 0.1538
-2 9 11 -1.0627 -0.2364
-2 10 1 12.4655 0.4392
-2 10 2 1.1931 -0.2233
-2 10 3 -1.6254 -0.2671
-2 10 4 1.8797 0.1431
-2 10 5 -6.4728 0.1505
-2 10 6 -2.2387 -0.0639
-2 10 7 -0.3090 -0.0109
-2 10 8 1.1487 0.0464
-2 10 9 -0.1334 -0.0190
-2 10 10 0.9455 -0.1880
-2 11 1 0.6457 0.3307
-2 11 2 4.9216 -0.0899
-2 11 3 -5.4743 -0.1342
-2 11 4 -5.8793 -0.1558
-2 11 5 1.4674 -0.0748
-2 11 6 -4.8938 0.0631
-2 11 7 3.0196 -0.0196
-2 11 8 -0.7426 -0.0882
-2 11 9 1.3333 0.2691
-2 12 1 -0.5761 0.2293
-2 12 2 1.6405 0.4155
-2 12 3 3.2582 -0.0177
-2 12 4 -0.7455 -0.1591
-2 12 5 -0.2550 -0.0701
-2 12 6 0.8084 0.0226
-2 12 7 0.2287 0.1537
-2 12 8 -0.3981 -0.0327
-2 13 1 0.4417 -0.1861
-2 13 2 -2.0137 -0.2830
-2 13 3 -0.9670 0.1498
-2 13 4 -1.1890 0.2398
-2 13 5 -1.8017 0.0270
-2 13 6 -0.0064 -0.2489
-2 13 7 1.7952 -0.0725
-2 14 1 -0.3500 -1.3609
-2 14 2 -2.1518 0.0325
-2 14 3 -3.8946 0.1791
-2 14 4 0.7223 -0.0050
-2 14 5 -1.2589 -0.0165
-2 15 1 3.7353 1.0131
-2 15 2 2.5469 -0.0042
-2 15 3 -1.8023 -0.1476
-2 16 1 2.2815 0.2277
-2 16 2 0.1675 0.1866
-1 -19 9 -2.8775 0.0677
-1 -19 10 -3.3205 -0.1252
-1 -19 11 -0.0413 -0.1379
-1 -19 12 -1.6373 -0.3165
-1 -19 13 0.9174 -0.0297
-1 -19 14 1.9382 0.1730
-1 -18 3 0.6138 0.2235
-1 -18 4 -1.0377 0.1023
-1 -18 5 -0.3077 -0.0224
-1 -18 6 -0.3696 -0.1309
-1 -18 7 0.0678 0.0117
-1 -18 8 1.0152 -0.0175
-1 -18 9 -1.8109 0.0047
-1 -18 10 1.8444 -0.1464
-1 -18 11 2.5480 -0.0370
-1 -18 12 4.9986 -0.0823
-1 -18 13 3.1745 0.0191
-1 -18 14 0.4594 0.1052
-1 -18 15 3.5317 0.0306
-1 -18 16 0.8048 0.0551
-1 -17 1 -0.3885 0.7289
-1 -17 2 1.7995 0.0443
-1 -17 3 -0.9217 -0.1634
-1 -17 4 1.7480 -0.1238
-1 -17 5 -0.3963 0.0822
-1 -17 6 7.1669 0.0883
-1 -17 7 1.0264 0.0909
-1 -17 8 1.1543 -0.0960
-1 -17 9 1.1987 -0.0579
-1 -17 10 -1.5330 -0.0456
-1 -17 11 -0.3326 0.0516
-1 -17 12 -1.7626 0.0049
-1 -17 13 1.9095 0.0410
-1 -17 14 -1.0975 0.0661
-1 -17 15 -0.7085 -0.0789
-1 -17 16 0.2752 -0.0399
-1 -16 1 1.7290 -0.1283
-1 -16 2 -0.0938 -0.1140
-1 -16 3 1.1547 -0.1865
-1 -16 4 3.8409 -0.1712
-1 -16 5 -3.1937 0.0368
-1 -16 6 -1.6490 0.0853
-1 -16 7 -1.1617 0.0521
-1 -16 8 -5.2079 -0.0321
-1 -16 9 -9.9922 -0.0255
-1 -16 10 1.4991 -0.0029
-1 -16 11 -4.9917 0.0256
-1 -16 12 0.1948 0.0417
-1 -16 13 -1.1017 -0.0443
-1 -16 14 -1.7149 -0.0530
-1 -16 15 -6.3654 0.0342
-1 -16 16 2.0813 0.1384
-1 -16 17 2.3007 0.3269
-1 -16 18 -0.5740 -0.3887
-1 -15 1 -4.9827 0.0504
-1 -15 2 3.8673 0.0575
-1 -15 3 -6.5728 0.2215
-1 -15 4 -3.6350 0.1188
-1 -15 5 3.5801 -0.0478
-1 -15 6 -5.2916 -0.1845
-1 -15 7 0.0278 -0.0710
-1 -15 8 3.0217 0.0921
-1 -15 9 -0.8701 0.1247
-1 -15 10 -1.0100 0.0363
-1 -15 11 8.2893 -0.0218
-1 -15 12 -4.9734 0.0025
-1 -15 13 3.1300 0.0153
-1 -15 14 -2.0833 0.0479
-1 -15 15 1.4335 0.0860
-1 -15 16 -4.2497 0.0328
-1 -15 17 3.1959 0.0326
-1 -15 18 -2.1268 -0.2395
-1 -15 19 -0.6846 -0.0119
-1 -14 1 -4.1137 -0.8773
-1 -14 2 -3.7640 0.2082
-1 -14 3 8.9152 0.2239
-1 -14 4 -4.3069 0.0477
-1 -14 5 6.9258 0.0169
-1 -14 6 9.5364 0.0135
-1 -14 7 -3.1086 -0.0388
-1 -14 8 0.9605 -0.0679
-1 -14 9 6.5919 0.0181
-1 -14 10 -5.4649 0.0702
-1 -14 11 5.2164 -0.0241
-1 -14 12 8.2602 -0.0745
-1 -14 13 -3.4960 0.0192
-1 -14 14 2.2794 0.0928
-1 -14 15 1.5428 0.0216
-1 -14 16 2.3868 -0.1774
-1 -14 17 0.8073 -0.0774
-1 -14 18 -2.0276 0.0418
-1 -14 19 3.1470 0.1067
-1 -13 1 1.5992 0.3218
-1 -13 2 -1.5369 -0.4733
-1 -13 3 -5.0413 -0.2564
-1 -13 4 5.1097 0.0759
-1 -13 5 -5.1257 0.0850
-1 -13 6 -2.0766 -0.0228
-1 -13 7 7.8988 0.0424
-1 -13 8 -12.3381 0.0587
-1 -13 9 9.0335 -0.0180
-1 -13 10 5.1927 -0.0920
-1 -13 11 -0.8324 -0.0166
-1 -13 12 5.8447 0.1009
-1 -13 13 -0.2902 0.0356
-1 -13 14 -1.3853 -0.1456
-1 -13 15 4.7730 -0.0307
-1 -13 16 1.5799 0.0590
-1 -13 17 -1.7764 0.0490
-1 -13 18 0.6881 -0.1625
-1 -13 19 -3.3682 0.0262
-1 -13 20 2.7361 0.8725
-1 -12 1 3.0856 0.3188
-1 -12 2 2.7320 0.3467
-1 -12 3 -6.3066 -0.0494
-1 -12 4 5.1418 -0.2699
-1 -12 5 12.8426 -0.1025
-1 -12 6 -4.7905 0.0949
-1 -12 7 1.0712 0.0989
-1 -12 8 6.4371 -0.0346
-1 -12 9 -15.6312 -0.0571
-1 -12 10 5.5296 0.0527
-1 -12 11 -5.8725 0.0494
-1 -12 12 -2.5551 -0.0554
-1 -12 13 -11.3996 -0.0291
-1 -12 14 0.9078 -0.0086
-1 -12 15 -5.0789 -0.0271
-1 -12 16 -0.1628 -0.1322
-1 -12 17 -1.6387 -0.0079
-1 -12 18 -1.5370 0.1517
-1 -12 19 1.3824 0.1725
-1 -12 20 -0.2534 0.0215
-1 -11 1 -1.5278 0.8166
-1 -11 2 9.9537 -0.0285
-1 -11 3 -1.6891 -0.1918
-1 -11 4 -9.3298 0.0075
-1 -11 5 2.2725 0.1023
-1 -11 6 -2.9359 -0.0019
-1 -11 7 -21.1836 -0.0310
-1 -11 8 -1.0112 -0.0032
-1 -11 9 -9.1097 0.0056
-1 -11 10 -7.4270 -0.0636
-1 -11 11 1.9323 -0.0398
-1 -11 12 -3.1619 0.0087
-1 -11 13 -12.1055 0.0487
-1 -11 14 1.0838 -0.0625
-1 -11 15 1.3789 0.0317
-1 -11 16 -1.0399 0.0489
-1 -11 17 2.7215 0.1341
-1 -11 18 -0.9375 -0.0321
-1 -11 19 2.1022 -0.1991
-1 -11 20 -1.0963 -0.1771
-1 -10 1 -11.9032 -1.4831
-1 -10 2 -12.4563 -0.3091
-1 -10 3 -9.5848 0.2941
-1 -10 4 -2.2554 0.1098
-1 -10 5 -3.9953 -0.0344
-1 -10 6 5.0838 -0.0233
-1 -10 7 2.4519 0.0378
-1 -10 8 -0.7544 0.0852
-1 -10 9 7.8438 0.0181
-1 -10 10 5.6283 -0.0036
-1 -10 11 7.5797 -0.0008
-1 -10 12 -0.3817 -0.0448
-1 -10 13 5.2396 -0.0307
-1 -10 14 -4.5108 -0.0042
-1 -10 15 4.6581 0.0741
-1 -10 16 -1.9820 0.0963
-1 -10 17 -3.1649 0.1270
-1 -10 18 -0.6785 0.0401
-1 -10 19 -0.4170 -0.1415
-1 -10 20 0.3423 -0.2668
-1 -9 1 0.7036 -0.3785
-1 -9 2 -2.2842 0.1090
-1 -9 3 0.6531 0.0852
-1 -9 4 11.6153 0.0535
-1 -9 5 17.7981 -0.0364
-1 -9 6 -5.4987 -0.0851
-1 -9 7 9.1168 -0.0915
-1 -9 8 4.4533 0.0343
-1 -9 9 5.8749 0.1233
-1 -9 10 6.8254 0.0752
-1 -9 11 11.8194 -0.0347
-1 -9 12 -1.0407 -0.0561
-1 -9 13 -0.6693 0.0328
-1 -9 14 10.8441 0.0540
-1 -9 15 -2.6578 0.0167
-1 -9 16 4.2583 -0.0868
-1 -9 17 0.4250 -0.0916
-1 -9 18 -0.4187 0.1035
-1 -9 19 -0.8405 0.1363
-1 -9 20 -1.5274 0.0698
-1 -8 1 13.8058 1.3550
-1 -8 2 4.8244 0.0798
-1 -8 3 -7.2354 -0.0430
-1 -8 4 6.8590 0.0298
-1 -8 5 12.6545 -0.0019
-1 -8 6 -9.0180 0.0155
-1 -8 7 -3.4943 0.0309
-1 -8 8 -13.2245 -0.0030
-1 -8 9 7.0410 -0.0921
-1 -8 10 -13.8373 -0.0860
-1 -8 11 4.7417 0.0360
-1 -8 12 -2.9172 0.0877
-1 -8 13 -3.9002 0.0277
-1 -8 14 4.9714 -0.0079
-1 -8 15 4.2621 0.0048
-1 -8 16 -1.9273 0.0862
-1 -8 17 1.5050 -0.1224
-1 -8 18 1.6539 -0.1883
-1 -8 19 2.6564 -0.0331
-1 -8 20 0.1888 0.4883
-1 -7 1 -12.3547 -0.2684
-1 -7 2 5.1485 -0.0327
-1 -7 3 -0.8873 -0.3276
-1 -7 4 8.5972 -0.2197
-1 -7 5 3.8219 0.0565
-1 -7 6 -13.6764 0.2514
-1 -7 7 -2.3312 0.0904
-1 -7 8 -14.1721 -0.1071
-1 -7 9 -1.6891 -0.0927
-1 -7 10 12.7261 0.0143
-1 -7 11 -18.8580 0.0133
-1 -7 12 -2.2473 -0.0397
-1 -7 13 -9.9162 0.0001
-1 -7 14 -9.7046 0.0021
-1 -7 15 -7.7616 -0.0392
-1 -7 16 -0.0384 -0.0129
-1 -7 17 -1.7722 -0.0258
-1 -7 18 -0.8672 0.1675
-1 -7 19 0.0038 0.0742
-1 -7 20 -1.0635 -0.2897
-1 -6 1 -17.0694 0.3466
-1 -6 2 -8.1351 -0.2970
-1 -6 3 -7.2751 -0.1063
-1 -6 4 -12.7140 0.0984
-1 -6 5 4.4348 -0.0071
-1 -6 6 -7.6247 -0.1761
-1 -6 7 5.4535 -0.0895
-1 -6 8 8.5214 0.0983
-1 -6 9 -8.6716 0.0846
-1 -6 10 3.6059 -0.0091
-1 -6 11 10.8433 -0.0183
-1 -6 12 -17.4589 0.0509
-1 -6 13 1.8833 -0.0369
-1 -6 14 4.0410 -0.1054
-1 -6 15 -8.5546 -0.0878
-1 -6 16 4.4951 0.0372
-1 -6 17 1.1461 0.1046
-1 -6 18 -0.5588 -0.0398
-1 -6 19 -1.3163 -0.0126
-1 -6 20 1.9768 0.1926
-1 -5 1 -13.1438 -1.1319
-1 -5 2 -21.1997 0.6245
-1 -5 3 15.9378 0.6464
-1 -5 4 6.2802 0.0008
-1 -5 5 19.6692 -0.2051
-1 -5 6 17.7237 -0.0626
-1 -5 7 -11.5936 -0.0087
-1 -5 8 8.8976 -0.0306
-1 -5 9 8.7022 0.0045
-1 -5 10 13.4926 0.0796
-1 -5 11 13.0560 0.0203
-1 -5 12 14.3866 -0.0589
-1 -5 13 -5.1327 0.0025
-1 -5 14 8.7833 0.0426
-1 -5 15 5.0197 0.0136
-1 -5 16 1.2926 0.0307
-1 -5 17 5.6392 0.0195
-1 -5 18 1.8867 0.0146
-1 -5 19 0.8112 -0.0882
-1 -5 20 -1.2569 -0.5713
-1 -4 1 -9.2585 0.0392
-1 -4 2 22.3312 -0.5129
-1 -4 3 -6.5102 -0.2702
-1 -4 4 1.3595 0.1495
-1 -4 5 -9.4935 0.1819
-1 -4 6 -4.5245 -0.0254
-1 -4 7 2.1139 -0.0388
-1 -4 8 -20.1705 0.0764
-1 -4 9 18.7734 0.0478
-1 -4 10 -1.2940 -0.0467
-1 -4 11 -4.0896 -0.0756
-1 -4 12 -2.0437 -0.0096
-1 -4 13 3.5480 0.0380
-1 -4 14 -12.4003 0.0324
-1 -4 15 6.5873 0.0212
-1 -4 16 1.3116 -0.0046
-1 -4 17 0.9485 0.0325
-1 -4 18 -2.0990 -0.0741
-1 -4 19 3.2600 -0.0590
-1 -3 1 -10.4553 0.1739
-1 -3 2 -63.3648 -0.1146
-1 -3 3 24.1889 -0.1139
-1 -3 4 -14.0287 -0.1451
-1 -3 5 18.0207 -0.0346
-1 -3 6 -5.9790 0.1364
-1 -3 7 -18.2810 0.1169
-1 -3 8 -20.2109 -0.0689
-1 -3 9 -17.2788 -0.0634
-1 -3 10 5.5791 0.0414
-1 -3 11 -7.5947 0.0961
-1 -3 12 -13.9707 -0.0335
-1 -3 13 0.2552 -0.0115
-1 -3 14 -3.8407 0.0605
-1 -3 15 -8.6521 0.0053
-1 -3 16 2.0453 -0.0741
-1 -3 17 -1.2232 -0.0963
-1 -3 18 -1.6663 -0.0511
-1 -3 19 0.9583 0.2220
-1 -2 1 -21.3768 1.0414
-1 -2 2 60.1459 0.4093
-1 -2 3 23.2256 -0.1797
-1 -2 4 62.8288 -0.0195
-1 -2 5 34.0370 0.0878
-1 -2 6 -1.8648 0.0762
-1 -2 7 -2.0102 -0.0035
-1 -2 8 4.1607 -0.0518
-1 -2 9 10.0407 -0.0194
-1 -2 10 -1.8228 -0.0538
-1 -2 11 6.8934 0.0054
-1 -2 12 -3.3241 0.1041
-1 -2 13 -7.1478 0.0589
-1 -2 14 2.1403 -0.0203
-1 -2 15 0.5969 -0.0900
-1 -2 16 -1.7877 -0.0678
-1 -2 17 1.3808 0.1063
-1 -2 18 1.2222 0.2045
-1 -1 1 -71.9571 -0.1679
-1 -1 2 -15.4123 -0.1907
-1 -1 3 -11.3393 0.1579
-1 -1 4 -15.2832 0.1209
-1 -1 5 15.0140 0.0102
-1 -1 6 16.3019 -0.0069
-1 -1 7 -29.1786 0.0237
-1 -1 8 9.0723 -0.0006
-1 -1 9 6.6124 -0.0000
-1 -1 10 2.7556 -0.0022
-1 -1 11 -1.7943 0.0418
-1 -1 12 10.4444 -0.0092
-1 -1 13 0.4563 -0.0805
-1 -1 14 4.1059 -0.0558
-1 -1 15 1.7670 0.0615
-1 -1 16 5.9868 0.0921
-1 -1 17 -3.0884 -0.0217
-1 -1 18 4.1135 -0.0670
-1 0 1 -171.1794 -1.6767
-1 0 2 -31.8560 0.2277
-1 0 3 0.3094 0.2579
-1 0 4 -11.3167 -0.0524
-1 0 5 -1.8995 -0.0884
-1 0 6 -11.0093 -0.0886
-1 0 7 -9.1726 -0.0618
-1 0 8 -9.4086 0.0259
-1 0 9 14.0843 0.0870
-1 0 10 7.4287 0.1070
-1 0 11 4.2767 -0.0543
-1 0 12 -1.1687 -0.1058
-1 0 13 6.3445 -0.0268
-1 0 14 -1.3711 0.0344
-1 0 15 0.8436 0.0152
-1 0 16 -0.7040 0.0188
-1 0 17 4.7049 0.1052
-1 1 1 71.1592 0.7534
-1 1 2 -5.0367 -0.2166
-1 1 3 50.1648 -0.1079
-1 1 4 28.5431 0.1084
-1 1 5 20.8661 -0.0090
-1 1 6 -13.9681 -0.1328
-1 1 7 12.5252 -0.0316
-1 1 8 0.5403 0.0762
-1 1 9 -3.9142 0.0015
-1 1 10 -1.5795 -0.0668
-1 1 11 -6.6080 -0.0325
-1 1 12 -3.1157 0.0240
-1 1 13 -8.2702 -0.0574
-1 1 14 3.2345 0.0207
-1 1 15 -3.2988 0.0526
-1 1 16 -1.5640 0.0852
-1 1 17 1.8676 -0.1984
-1 2 1 -40.8275 0.0151
-1 2 2 49.3953 0.0443
-1 2 3 1.8690 -0.2100
-1 2 4 1.5935 -0.2498
-1 2 5 6.3842 0.0371
-1 2 6 -19.0576 0.2503
-1 2 7 -19.1133 0.1250
-1 2 8 5.3608 -0.1332
-1 2 9 -4.4037 -0.1240
-1 2 10 0.1753 -0.0010
-1 2 11 0.7140 -0.0339
-1 2 12 -2.4449 0.0282
-1 2 13 0.1498 0.0838
-1 2 14 -6.4942 0.0371
-1 2 15 4.5828 -0.0129
-1 2 16 -3.8245 0.0368
-1 3 1 -60.9679 0.2271
-1 3 2 8.9868 -0.4330
-1 3 3 -1.1851 -0.3805
-1 3 4 5.4254 0.0696
-1 3 5 -19.0012 0.1267
-1 3 6 4.8113 -0.0070
-1 3 7 -2.5891 -0.0420
-1 3 8 10.3890 0.0580
-1 3 9 6.0324 -0.0092
-1 3 10 0.8987 -0.0577
-1 3 11 0.9140 0.0013
-1 3 12 0.9864 0.0917
-1 3 13 -3.1625 -0.0397
-1 3 14 4.0838 0.0124
-1 3 15 -2.5163 0.0667
-1 3 16 2.8479 -0.1167
-1 4 1 -32.1411 -0.4080
-1 4 2 -13.4181 0.3534
-1 4 3 -13.6577 0.6205
-1 4 4 17.4085 0.0897
-1 4 5 -10.8816 -0.1881
-1 4 6 -8.0940 -0.0951
-1 4 7 4.2973 -0.0449
-1 4 8 3.0335 -0.0291
-1 4 9 -0.3822 0.0116
-1 4 10 3.6789 0.0783
-1 4 11 4.7182 -0.0128
-1 4 12 0.2708 -0.0539
-1 4 13 4.0411 0.0469
-1 4 14 0.7544 0.0651
-1 4 15 1.3889 -0.1574
-1 5 1 -3.2533 -0.2070
-1 5 2 36.6335 0.2625
-1 5 3 14.0382 0.0668
-1 5 4 4.9805 0.0982
-1 5 5 5.9036 0.0700
-1 5 6 -8.5024 -0.0830
-1 5 7 -0.0414 -0.1196
-1 5 8 0.6161 0.0428
-1 5 9 -0.1282 0.0608
-1 5 10 -0.7112 -0.0286
-1 5 11 2.8251 -0.0223
-1 5 12 -0.9728 -0.0573
-1 5 13 -4.8695 -0.0279
-1 5 14 -0.6178 0.0838
-1 5 15 -0.4818 0.4838
-1 6 1 8.6811 0.3134
-1 6 2 -2.0364 -0.5105
-1 6 3 13.5122 -0.2888
-1 6 4 1.1407 -0.0135
-1 6 5 -11.5111 0.0095
-1 6 6 2.2710 0.0178
-1 6 7 -3.2906 0.0885
-1 6 8 -5.0633 0.0480
-1 6 9 -3.2241 -0.0466
-1 6 10 -3.2385 -0.0495
-1 6 11 -2.1817 0.0441
-1 6 12 -3.8335 -0.0417
-1 6 13 -1.8184 -0.0270
-1 6 14 -2.7910 -0.1525
-1 7 1 -11.0118 0.2051
-1 7 2 -1.1481 0.3570
-1 7 3 -4.3775 -0.0792
-1 7 4 10.2100 -0.2002
-1 7 5 -0.9563 -0.0017
-1 7 6 -5.7923 0.1355
-1 7 7 10.8139 0.0032
-1 7 8 -3.2303 -0.0664
-1 7 9 1.9434 -0.0076
-1 7 10 2.4436 0.0146
-1 7 11 3.9553 0.0402
-1 7 12 -0.2341 -0.0690
-1 7 13 -0.3833 0.0559
-1 8 1 -10.6613 0.1952
-1 8 2 4.7502 -0.2033
-1 8 3 0.4840 0.0275
-1 8 4 -2.8490 0.1961
-1 8 5 4.3198 0.0325
-1 8 6 -0.2849 -0.1350
-1 8 7 -3.6452 -0.0143
-1 8 8 5.5569 0.0891
-1 8 9 -0.6264 0.0005
-1 8 10 1.9443 -0.1857
-1 8 11 3.1422 -0.0977
-1 8 12 1.9762 0.3660
-1 9 1 -9.9577 -0.7063
-1 9 2 -1.9301 0.1670
-1 9 3 10.9314 0.2141
-1 9 4 -3.8049 -0.0142
-1 9 5 -5.5136 -0.0703
-1 9 6 0.6545 0.0030
-1 9 7 -5.5401 -0.0320
-1 9 8 -5.1175 -0.0544
-1 9 9 0.0591 0.1225
-1 9 10 0.0438 0.2311
-1 9 11 0.1325 -0.0772
-1 10 1 8.7484 0.0669
-1 10 2 -0.8464 -0.0581
-1 10 3 3.7500 0.0171
-1 10 4 10.4112 0.0947
-1 10 5 -3.8688 -0.0155
-1 10 6 3.1258 -0.1183
-1 10 7 -0.0561 -0.0424
-1 10 8 0.3237 0.0388
-1 10 9 -2.8846 0.0660
-1 10 10 2.4513 -0.2532
-1 11 1 -2.4214 0.3036
-1 11 2 5.1937 -0.0478
-1 11 3 1.1474 -0.0137
-1 11 4 4.0964 -0.0151
-1 11 5 5.4518 -0.0063
-1 11 6 -3.5610 0.0028
-1 11 7 -0.1395 0.0437
-1 11 8 -1.8296 -0.1598
-1 11 9 -0.5651 -0.0161
-1 12 1 -9.0908 0.1323
-1 12 2 0.2179 0.0460
-1 12 3 -0.3110 -0.2397
-1 12 4 -2.6873 -0.1468
-1 12 5 -0.1612 0.0797
-1 12 6 -1.0367 0.1309
-1 12 7 -0.8837 0.0791
-1 12 8 -0.5833 -0.3319
-1 13 1 -5.0484 -0.0767
-1 13 2 -3.8807 -0.2850
-1 13 3 2.5025 0.1187
-1 13 4 -2.2505 0.2140
-1 13 5 0.2599 -0.0304
-1 13 6 -1.3080 -0.2663
-1 14 1 4.6536 -0.4319
-1 14 2 2.9326 0.3380
-1 14 3 2.2954 0.1925
-1 14 4 2.7611 -0.0295
-1 14 5 0.3201 0.0162
-1 15 1 -0.4087 0.2232
-1 15 2 3.5956 -0.0788
-1 15 3 1.0104 -0.1168
-1 16 1 -1.7305 -0.0943
-1 16 2 -2.2000 0.0744
0 -19 5 -0.6295 0.0482
0 -19 6 -2.8773 0.0381
0 -19 7 2.7105 -0.0146
0 -19 8 4.1183 0.0293
0 -19 9 1.2401 0.0383
0 -19 10 0.8436 -0.0145
0 -19 11 4.3297 -0.1451
0 -19 12 0.6633 -0.1138
0 -19 13 1.3948 -0.1500
0 -19 14 3.0193 0.0640
0 -19 15 0.5720 0.0669
0 -18 2 0.9284 0.1599
0 -18 3 1.1924 0.1016
0 -18 4 -0.4753 0.0597
0 -18 5 3.6006 -0.0825
0 -18 6 0.0473 -0.0794
0 -18 7 7.4813 0.0781
0 -18 8 3.1105 0.1044
0 -18 9 2.3060 0.0498
0 -18 10 -2.3079 -0.0015
0 -18 11 -2.8316 -0.0925
0 -18 12 -1.2857 -0.0815
0 -18 13 -1.8052 -0.1170
0 -18 14 -0.2400 -0.0281
0 -18 15 1.4768 0.1531
0 -18 16 -3.8626 -0.0647
0 -17 1 -0.4308 0.1431
0 -17 2 0.9312 -0.1362
0 -17 3 2.5509 -0.0856
0 -17 4 1.7093 -0.0132
0 -17 5 -2.4316 0.0595
0 -17 6 -1.5932 0.0308
0 -17 7 -3.9043 0.0677
0 -17 8 -4.7456 -0.0154
0 -17 9 -3.2511 0.0283
0 -17 10 -8.8478 0.0382
0 -17 11 -2.8444 -0.0248
0 -17 12 -2.6561 -0.0278
0 -17 13 -2.6335 -0.0158
0 -17 14 -4.5063 0.0072
0 -17 15 -0.9950 -0.0535
0 -17 16 -2.5323 -0.1987
0 -17 17 -1.2640 0.4317
0 -16 1 1.7069 0.2897
0 -16 2 -1.0507 0.0618
0 -16 3 -3.5659 -0.0990
0 -16 4 0.1088 -0.0791
0 -16 5 -7.3434 0.0779
0 -16 6 -0.1655 0.0736
0 -16 7 2.9265 0.0692
0 -16 8 1.9400 -0.0582
0 -16 9 -1.6218 -0.0905
0 -16 10 4.9729 -0.0366
0 -16 11 -8.9087 -0.0033
0 -16 12 1.8822 0.0825
0 -16 13 1.2699 0.0130
0 -16 14 1.9654 -0.0838
0 -16 15 -3.5323 -0.0093
0 -16 16 0.1986 0.0345
0 -16 17 0.0188 0.1578
0 -16 18 -1.0313 -0.3945
0 -15 1 -4.8662 -0.0630
0 -15 2 1.6690 -0.2410
0 -15 3 -5.5856 -0.0019
0 -15 4 2.4450 0.0048
0 -15 5 4.7154 0.0519
0 -15 6 -2.8121 -0.0325
0 -15 7 2.1884 -0.0026
0 -15 8 5.5233 0.0046
0 -15 9 -8.1423 -0.0347
0 -15 10 -0.2492 -0.0199
0 -15 11 8.5067 -0.0047
0 -15 12 -1.8609 -0.0084
0 -15 13 11.2437 0.0094
0 -15 14 2.4304 0.0097
0 -15 15 4.7213 0.0436
0 -15 16 -1.0496 0.0014
0 -15 17 5.4298 0.0159
0 -15 18 1.5637 -0.1639
0 -15 19 0.1513 0.0233
0 -14 1 1.2482 -0.3780
0 -14 2 0.2085 0.2002
0 -14 3 5.9497 0.1842
0 -14 4 -12.4609 0.0289
0 -14 5 0.4816 -0.0293
0 -14 6 6.7477 -0.0884
0 -14 7 -8.2015 -0.1165
0 -14 8 8.6124 -0.0515
0 -14 9 6.2890 0.0803
0 -14 10 -3.2370 0.0866
0 -14 11 7.4122 -0.0453
0 -14 12 6.0681 -0.1494
0 -14 13 0.1896 -0.0085
0 -14 14 3.3141 0.0559
0 -14 15 0.7855 0.0233
0 -14 16 1.8832 0.0033
0 -14 17 2.4797 0.0064
0 -14 18 -1.0920 -0.0587
0 -14 19 1.8394 -0.0208
0 -13 1 2.3500 0.2112
0 -13 2 4.7702 -0.0687
0 -13 3 8.9990 0.1311
0 -13 4 7.2963 0.0738
0 -13 5 -2.6383 -0.0979
0 -13 6 10.6698 -0.1396
0 -13 7 12.2395 -0.0110
0 -13 8 -15.1355 0.0970
0 -13 9 7.5521 -0.0015
0 -13 10 -10.6307 -0.0645
0 -13 11 -8.4781 0.0152
0 -13 12 -0.8246 0.1021
0 -13 13 -1.5023 0.0713
0 -13 14 -13.1237 -0.0827
0 -13 15 -0.6860 -0.0743
0 -13 16 -4.3808 0.0234
0 -13 17 -3.4444 0.0040
0 -13 18 -1.6955 -0.1714
0 -13 19 -3.9643 -0.1890
0 -13 20 3.1065 0.5892
0 -12 1 10.6030 0.0744
0 -12 2 1.4745 0.0202
0 -12 3 -2.8452 -0.2146
0 -12 4 -6.5260 -0.2121
0 -12 5 -5.3102 0.0183
0 -12 6 -14.5773 0.2040
0 -12 7 -2.0326 0.1146
0 -12 8 -7.4800 -0.0245
0 -12 9 -15.0466 -0.0934
0 -12 10 4.0783 -0.0076
0 -12 11 -8.7335 0.0238
0 -12 12 1.7223 0.0148
0 -12 13 -5.6699 0.0669
0 -12 14 -2.9443 0.0350
0 -12 15 -6.8399 -0.0646
0 -12 16 0.6024 -0.1272
0 -12 17 -2.7992 -0.0571
0 -12 18 -0.4345 0.0566
0 -12 19 -0.5878 0.0170
0 -12 20 -0.9372 0.0013
0 -11 1 -17.3103 0.3653
0 -11 2 -4.2260 -0.3915
0 -11 3 -11.2856 -0.3868
0 -11 4 -18.2955 -0.0231
0 -11 5 -1.8961 0.1290
0 -11 6 10.2561 0.0437
0 -11 7 -2.3588 -0.0030
0 -11 8 17.3889 -0.0247
0 -11 9 1.9505 0.0295
0 -11 10 2.8194 -0.0464
0 -11 11 4.8648 -0.0180
0 -11 12 9.0128 -0.0026
0 -11 13 -0.7437 -0.0298
0 -11 14 4.9927 -0.0659
0 -11 15 3.3667 0.0216
0 -11 16 -0.6780 0.0205
0 -11 17 3.8154 0.0722
0 -11 18 -1.9190 0.0299
0 -11 19 1.2438 -0.0436
0 -11 20 0.5306 0.1657
0 -10 1 0.6265 -0.3173
0 -10 2 8.2083 0.2534
0 -10 3 9.0491 0.4227
0 -10 4 1.5043 0.0688
0 -10 5 -5.2864 -0.1310
0 -10 6 17.6028 -0.1248
0 -10 7 -0.1291 -0.0319
0 -10 8 2.7179 0.0121
0 -10 9 1.7940 0.0449
0 -10 10 4.1140 0.0271
0 -10 11 4.5194 0.0242
0 -10 12 10.9797 -0.0154
0 -10 13 11.3453 -0.0258
0 -10 14 -0.1547 -0.0313
0 -10 15 12.8724 -0.0078
0 -10 16 6.9917 -0.0325
0 -10 17 5.3606 0.0373
0 -10 18 2.1050 0.0985
0 -10 19 0.8077 -0.0224
0 -10 20 0.8209 -0.3015
0 -9 1 9.2872 -0.3189
0 -9 2 8.2011 0.1855
0 -9 3 -0.3097 0.1189
0 -9 4 -3.5807 0.0850
0 -9 5 2.9090 0.0773
0 -9 6 5.4553 -0.0673
0 -9 7 6.7299 -0.0471
0 -9 8 4.5209 0.0430
0 -9 9 -3.6495 0.0672
0 -9 10 -2.9267 -0.0066
0 -9 11 1.2220 -0.0822
0 -9 12 -7.3391 -0.0724
0 -9 13 -3.5445 -0.0073
0 -9 14 -0.9460 0.0483
0 -9 15 -6.2670 0.0954
0 -9 16 1.1559 0.0624
0 -9 17 -0.5455 0.0029
0 -9 18 -1.0070 0.0004
0 -9 19 2.5629 -0.1840
0 -9 20 2.8380 -0.3894
0 -8 1 16.1719 0.0631
0 -8 2 5.3004 -0.3699
0 -8 3 4.8247 -0.1383
0 -8 4 -4.1921 -0.0627
0 -8 5 7.8768 -0.0383
0 -8 6 -1.7821 -0.0105
0 -8 7 -3.5827 0.0668
0 -8 8 -2.8570 0.0125
0 -8 9 3.6864 -0.0546
0 -8 10 -21.7722 -0.0369
0 -8 11 -1.7051 -0.0072
0 -8 12 -6.2126 -0.0001
0 -8 13 -18.5414 -0.0412
0 -8 14 -8.6555 -0.0264
0 -8 15 -5.9956 0.0462
0 -8 16 -10.8621 0.0699
0 -8 17 -2.3252 -0.0551
0 -8 18 -3.3721 -0.1228
0 -8 19 -1.4847 0.1043
0 -8 20 -3.3811 0.6735
0 -7 1 -6.3717 0.3342
0 -7 2 -0.3058 0.2858
0 -7 3 -23.0360 -0.1119
0 -7 4 -24.8385 -0.1838
0 -7 5 -15.3805 -0.0150
0 -7 6 -2.8666 0.0694
0 -7 7 8.7650 -0.0343
0 -7 8 -9.3756 -0.1054
0 -7 9 1.5764 -0.0465
0 -7 10 3.6525 0.0117
0 -7 11 -10.3350 0.0480
0 -7 12 13.8970 0.0133
0 -7 13 4.4153 0.0496
0 -7 14 -3.2346 0.0326
0 -7 15 8.9043 -0.0645
0 -7 16 -0.0146 -0.0920
0 -7 17 -1.0438 -0.1622
0 -7 18 0.0167 0.0877
0 -7 19 2.7988 0.2154
0 -7 20 0.7088 0.0105
0 -6 1 -26.5689 0.4428
0 -6 2 -14.1313 -0.3289
0 -6 3 -2.5570 -0.1012
0 -6 4 -6.3701 0.0854
0 -6 5 6.2742 0.0745
0 -6 6 -14.1703 -0.0255
0 -6 7 8.3489 -0.0056
0 -6 8 5.4644 0.0130
0 -6 9 -10.3097 -0.0088
0 -6 10 10.0148 -0.0598
0 -6 11 17.1749 0.0090
0 -6 12 0.3942 0.0949
0 -6 13 13.8265 0.0591
0 -6 14 9.1062 -0.0388
0 -6 15 -5.2798 -0.0788
0 -6 16 6.7893 -0.0280
0 -6 17 2.5811 0.1714
0 -6 18 3.7113 -0.0557
0 -6 19 -0.0183 -0.2338
0 -6 20 3.2138 -0.0868
0 -5 1 37.5726 -0.8404
0 -5 2 -0.1155 0.0451
0 -5 3 9.0195 0.1309
0 -5 4 -24.0456 -0.0533
0 -5 5 -3.4218 -0.0798
0 -5 6 0.9105 0.0068
0 -5 7 -7.8561 0.0223
0 -5 8 19.7179 0.0078
0 -5 9 -14.5146 0.0333
0 -5 10 -6.9380 0.0782
0 -5 11 4.8980 0.0336
0 -5 12 6.8998 -0.0665
0 -5 13 -14.4863 -0.0964
0 -5 14 8.9026 -0.0079
0 -5 15 -4.1914 0.0622
0 -5 16 -4.5939 0.0485
0 -5 17 3.0741 0.0050
0 -5 18 -0.1466 0.0837
0 -5 19 -1.6899 0.1466
0 -5 20 1.2030 -0.3088
0 -4 1 17.5937 -0.0621
0 -4 2 15.6860 -0.0189
0 -4 3 -8.2751 0.2240
0 -4 4 19.4331 0.1664
0 -4 5 16.2119 0.0322
0 -4 6 33.3936 -0.1739
0 -4 7 14.1695 -0.1460
0 -4 8 -13.8847 0.0796
0 -4 9 3.0900 0.1479
0 -4 10 -9.4378 0.0371
0 -4 11 -7.4362 -0.0613
0 -4 12 2.7599 -0.0355
0 -4 13 -1.6562 0.0158
0 -4 14 -11.0429 -0.0333
0 -4 15 4.7548 0.0166
0 -4 16 -6.0082 0.0469
0 -4 17 0.3820 0.0470
0 -4 18 -3.0855 -0.1290
0 -4 19 2.3599 -0.1409
0 -3 1 83.4110 0.3045
0 -3 2 -50.4481 0.1290
0 -3 3 46.0980 0.1137
0 -3 4 -15.1665 -0.0712
0 -3 5 4.9406 -0.0387
0 -3 6 10.5198 0.1002
0 -3 7 20.2378 0.1174
0 -3 8 -3.6398 -0.0269
0 -3 9 -9.1834 -0.1329
0 -3 10 9.3938 -0.0311
0 -3 11 -1.4280 0.0446
0 -3 12 -7.5760 -0.0450
0 -3 13 4.2010 0.0134
0 -3 14 -4.6301 0.0812
0 -3 15 -5.3192 0.0575
0 -3 16 1.5876 -0.0511
0 -3 17 -1.3899 -0.1391
0 -3 18 -3.1220 0.0258
0 -3 19 2.1748 0.8224
0 -2 1 -14.4826 0.4086
0 -2 2 -99.5534 -0.1407
0 -2 3 -107.6685 -0.4685
0 -2 4 -42.8926 -0.2387
0 -2 5 -36.6033 0.0895
0 -2 6 -12.5851 0.1680
0 -2 7 8.2155 0.0448
0 -2 8 -13.8005 -0.0492
0 -2 9 -6.8406 -0.0354
0 -2 10 -3.9089 -0.0343
0 -2 11 8.6585 -0.0223
0 -2 12 -2.3172 0.0738
0 -2 13 0.7171 0.0575
0 -2 14 7.5141 -0.0139
0 -2 15 2.7774 -0.0931
0 -2 16 -2.8337 0.0224
0 -2 17 2.9757 0.1444
0 -2 18 -0.5513 0.0428
0 -1 1 13.5164 0.0874
0 -1 2 -20.1544 -0.3658
0 -1 3 3.7227 0.0216
0 -1 4 6.6828 0.1476
0 -1 5 13.1155 -0.0459
0 -1 6 21.6992 -0.0964
0 -1 7 -12.4007 -0.0207
0 -1 8 8.4723 -0.0157
0 -1 9 -0.0069 -0.0049
0 -1 10 0.0635 -0.0037
0 -1 11 0.0179 0.0896
0 -1 12 10.4608 0.0311
0 -1 13 -3.3763 -0.0510
0 -1 14 5.7095 -0.0272
0 -1 15 2.4398 0.0088
0 -1 16 5.1895 0.0241
0 -1 17 -5.7036 0.0374
0 0 2 63.2625 0.3542
0 0 3 41.9091 0.2881
0 0 4 13.9656 -0.0046
0 0 5 20.5631 -0.0614
0 0 6 34.8352 -0.0595
0 0 7 10.4669 -0.0664
0 0 8 -9.1539 -0.0050
0 0 9 11.6872 0.0839
0 0 10 -2.8132 0.0734
0 0 11 -5.7493 -0.0519
0 0 12 -7.3637 -0.0589
0 0 13 4.3886 0.0050
0 0 14 -2.2533 0.0273
0 0 15 -0.8058 0.0388
0 0 16 -1.5485 -0.0320
0 0 17 -0.3312 -0.1230
0 1 0 -1.2236 0.4647
0 1 1 17.5541 0.2236
0 1 2 -111.8740 -0.3501
0 1 3 3.9364 -0.1001
0 1 4 -3.4280 0.0766
0 1 5 -2.8822 0.0055
0 1 6 -21.3665 -0.0898
0 1 7 5.4092 0.0190
0 1 8 -12.5797 0.0930
0 1 9 -5.2727 0.0552
0 1 10 1.5338 -0.0197
0 1 11 -4.6423 -0.0279
0 1 12 -0.5963 -0.0025
0 1 13 -7.2419 -0.0400
0 1 14 4.4651 0.0646
0 1 15 -4.3307 0.0313
0 1 16 -1.6144 -0.0562
0 1 17 -0.7653 -0.1057
0 2 0 -6.5209 0.8709
0 2 1 -45.4935 0.1737
0 2 2 -17.3921 0.1071
0 2 3 -24.2727 -0.1049
0 2 4 -19.9515 -0.2116
0 2 5 17.1527 0.0080
0 2 6 -8.8071 0.1577
0 2 7 -3.7816 0.0707
0 2 8 4.8934 -0.0790
0 2 9 2.5488 -0.0901
0 2 10 -1.3334 0.0132
0 2 11 -2.7446 0.0258
0 2 12 -1.2719 0.0588
0 2 13 5.2480 -0.0379
0 2 14 -2.7623 -0.1023
0 2 15 7.6731 0.0325
0 2 16 -3.0215 0.0104
0 3 0 39.2597 -0.6180
0 3 1 -36.2782 0.6217
0 3 2 -19.6155 0.0831
0 3 3 -5.6045 -0.1172
0 3 4 -7.9782 -0.0072
0 3 5 -4.6744 0.1022
0 3 6 3.8444 0.0326
0 3 7 -11.0065 -0.0351
0 3 8 1.2539 -0.0202
0 3 9 1.7659 -0.0162
0 3 10 -0.8490 0.0539
0 3 11 0.7221 0.0360
0 3 12 5.5380 0.0437
0 3 13 0.3958 0.0008
0 3 14 4.7661 -0.0289
0 3 15 -0.0456 -0.1391
0 3 16 2.9078 -0.3672
0 4 0 51.3258 0.0792
0 4 1 28.6008 -0.4274
0 4 2 19.5622 -0.1649
0 4 3 5.8978 0.1429
0 4 4 24.7153 0.1564
0 4 5 2.5838 -0.0884
0 4 6 1.6075 -0.0530
0 4 7 1.6125 0.0532
0 4 8 3.9232 0.1012
0 4 9 0.1976 -0.0175
0 4 10 0.0983 -0.0385
0 4 11 -2.8547 -0.0341
0 4 12 -1.1500 0.0225
0 4 13 2.7892 0.0085
0 4 14 -0.3321 0.0576
0 4 15 -1.0079 -0.1481
0 5 0 33.8924 -0.6945
0 5 1 -7.4348 -0.6364
0 5 2 10.9380 0.1967
0 5 3 -7.0525 0.1168
0 5 4 -2.8032 -0.0411
0 5 5 15.3107 -0.0285
0 5 6 -0.1607 -0.0243
0 5 7 2.7054 -0.0796
0 5 8 7.5555 -0.0308
0 5 9 -3.6289 0.1209
0 5 10 -5.2591 0.0911
0 5 11 -4.2735 -0.0667
0 5 12 0.8225 -0.0497
0 5 13 -2.5513 0.0630
0 5 14 2.3672 -0.1112
0 6 0 -0.7270 0.4397
0 6 1 -20.4036 0.3688
0 6 2 -14.7534 -0.2324
0 6 3 -2.6151 -0.0752
0 6 4 -2.1936 0.1897
0 6 5 -5.3414 0.0722
0 6 6 10.7514 -0.1463
0 6 7 -2.7100 -0.0273
0 6 8 2.9353 0.0464
0 6 9 4.5114 -0.0600
0 6 10 -2.8493 -0.0153
0 6 11 0.7789 0.1278
0 6 12 3.5401 -0.0059
0 6 13 3.4103 -0.1982
0 6 14 -0.3174 0.0398
0 7 0 -0.5062 -0.1977
0 7 1 0.4000 -0.0211
0 7 2 -14.1542 0.2536
0 7 3 -14.8105 -0.0196
0 7 4 0.9618 -0.3010
0 7 5 -6.7944 0.0378
0 7 6 -11.6045 0.2563
0 7 7 9.5517 0.0394
0 7 8 -7.4110 -0.0870
0 7 9 0.8353 0.0215
0 7 10 -3.1122 0.0469
0 7 11 -0.6427 -0.0894
0 7 12 -0.0458 -0.0335
0 7 13 2.0887 0.5641
0 8 0 -2.1192 0.7560
0 8 1 -1.3019 0.4985
0 8 2 5.0461 -0.0521
0 8 3 -6.4926 -0.0390
0 8 4 0.1804 0.0586
0 8 5 9.3045 -0.0032
0 8 6 -4.3728 -0.1060
0 8 7 2.0208 0.0664
0 8 8 6.5915 0.1132
0 8 9 -2.7397 -0.0749
0 8 10 -3.6205 -0.1202
0 8 11 0.7643 0.0290
0 8 12 1.1222 0.1307
0 9 0 23.1885 -0.5997
0 9 1 6.2264 -0.6751
0 9 2 4.1791 0.0283
0 9 3 12.2759 0.1524
0 9 4 -3.8099 0.0555
0 9 5 6.6129 0.0195
0 9 6 7.6152 0.0286
0 9 7 2.6061 -0.0852
0 9 8 1.3878 -0.0714
0 9 9 2.5389 0.1244
0 9 10 -2.1886 0.1561
0 9 11 -1.8149 -0.5506
0 10 0 4.3457 -0.7555
0 10 1 3.0690 -0.2137
0 10 2 -9.9946 -0.0173
0 10 3 -1.8081 0.0805
0 10 4 7.9929 0.0981
0 10 5 -6.7032 -0.0321
0 10 6 4.0916 -0.1049
0 10 7 0.6959 -0.0617
0 10 8 0.3672 0.1016
0 10 9 -4.3129 -0.0001
0 11 0 -10.0097 1.0334
0 11 1 -2.9888 0.2184
0 11 2 -6.6047 -0.1323
0 11 3 -10.2891 -0.0314
0 11 4 -2.5264 0.0187
0 11 5 -1.2245 -0.0319
0 11 6 -2.7165 -0.0056
0 11 7 -0.6043 0.0117
0 11 8 -0.6568 0.0580
0 12 0 1.8136 -0.2538
0 12 1 -3.7395 0.3083
0 12 2 0.0333 0.2828
0 12 3 -4.0474 -0.0912
0 12 4 -1.2981 -0.1623
0 12 5 -0.6983 -0.0016
0 12 6 1.8148 0.1007
0 12 7 0.6343 0.1512
0 13 0 8.7133 -0.0102
0 13 1 2.8511 0.2137
0 13 2 0.1513 -0.1908
0 13 3 5.2624 -0.0173
0 13 4 1.5305 0.1650
0 13 5 3.4720 0.0637
0 13 6 1.3891 -0.0393
0 14 0 2.9096 -0.4888
0 14 1 2.5719 -0.7050
0 14 2 -1.4788 0.0539
0 14 3 0.8120 0.1291
0 14 4 1.4495 0.0276
0 14 5 -0.1245 -0.0215
0 15 0 -0.7574 0.0742
0 15 1 -3.3933 0.1702
0 15 2 -2.2949 0.0393
0 15 3 -3.0812 -0.0734
0 16 0 -1.2314 0.0075
0 16 1 -0.6544 -0.0513
0 16 2 -1.2557 0.1737
0 17 0 1.8573 0.2127
1 -20 11 -0.1941 0.0559
1 -20 12 0.8366 0.0084
1 -19 4 -0.9781 -0.0498
1 -19 5 2.0682 0.0218
1 -19 6 0.0470 0.0080
1 -19 7 -4.5345 -0.0445
1 -19 8 6.1034 0.0858
1 -19 9 1.6255 0.0508
1 -19 10 1.9664 0.1039
1 -19 11 1.3367 0.0097
1 -19 12 -0.3413 -0.1505
1 -19 13 0.3396 -0.1353
1 -19 14 1.8607 -0.0690
1 -19 15 -1.2933 0.0523
1 -18 2 0.4839 -0.0272
1 -18 3 4.0970 0.1250
1 -18 4 0.1904 0.0350
1 -18 5 3.4043 -0.0679
1 -18 6 -3.6975 -0.0523
1 -18 7 -0.6529 -0.0390
1 -18 8 -0.3332 0.1525
1 -18 9 2.4284 0.1056
1 -18 10 -0.8736 0.0746
1 -18 11 -0.9254 -0.0026
1 -18 12 -1.9510 -0.0975
1 -18 13 -3.3760 -0.0795
1 -18 14 -2.6786 -0.0768
1 -18 15 0.7238 0.0806
1 -18 16 -2.3221 -0.0371
1 -17 0 0.5118 -0.0559
1 -17 1 -0.9538 0.0226
1 -17 2 -1.9432 -0.1531
1 -17 3 3.5618 -0.0560
1 -17 4 -5.2896 0.0561
1 -17 5 -0.3870 0.0269
1 -17 6 -2.3706 0.0628
1 -17 7 -1.1160 0.0227
1 -17 8 0.1248 0.0929
1 -17 9 6.5384 0.0093
1 -17 10 -4.5836 -0.0192
1 -17 11 0.0055 -0.0681
1 -17 12 -0.3825 -0.0491
1 -17 13 0.5186 0.0717
1 -17 14 -1.5114 -0.0245
1 -17 15 2.0952 -0.1354
1 -17 16 -0.5108 -0.0804
1 -17 17 -0.9099 0.2163
1 -16 0 -3.5140 0.1773
1 -16 1 -4.9104 0.3040
1 -16 2 -6.7516 0.2075
1 -16 3 -1.6105 -0.1052
1 -16 4 1.2510 -0.1909
1 -16 5 -4.9721 0.0032
1 -16 6 -1.3820 0.2106
1 -16 7 -0.3336 0.0310
1 -16 8 -3.7857 -0.0737
1 -16 9 3.2702 -0.0864
1 -16 10 8.2629 -0.0013
1 -16 11 -6.8901 0.0770
1 -16 12 6.8844 0.0401
1 -16 13 2.0228 -0.0375
1 -16 14 2.6271 -0.0520
1 -16 15 0.1721 -0.0513
1 -16 16 4.4224 0.0280
1 -16 17 1.7983 0.2219
1 -16 18 2.5383 -0.0309
1 -15 0 0.1298 0.4864
1 -15 1 2.2468 0.2500
1 -15 2 5.9175 -0.1533
1 -15 3 -2.9881 -0.0642
1 -15 4 6.0015 0.1431
1 -15 5 1.9886 0.0153
1 -15 6 -5.3795 -0.0843
1 -15 7 5.8212 -0.0745
1 -15 8 10.2900 0.0086
1 -15 9 -2.8353 -0.0176
1 -15 10 5.1681 -0.0380
1 -15 11 1.8722 -0.0033
1 -15 12 -8.3402 0.0119
1 -15 13 7.4801 -0.0187
1 -15 14 0.5364 -0.0493
1 -15 15 2.5562 -0.0210
1 -15 16 -1.5015 0.0940
1 -15 17 1.9762 0.1252
1 -15 18 0.1723 -0.1530
1 -15 19 -3.3937 -0.1888
1 -14 0 2.8704 -1.1718
1 -14 1 2.9208 -0.5063
1 -14 2 4.9037 0.1629
1 -14 3 11.1312 0.1052
1 -14 4 3.9174 -0.0193
1 -14 5 7.9463 -0.0598
1 -14 6 7.0415 -0.0215
1 -14 7 -8.0462 -0.0161
1 -14 8 11.0067 -0.0401
1 -14 9 -5.3227 0.0772
1 -14 10 -7.1730 0.0296
1 -14 11 1.0899 -0.0442
1 -14 12 -5.4304 -0.1273
1 -14 13 -5.5909 -0.0072
1 -14 14 -1.2536 0.1628
1 -14 15 -7.6306 0.0994
1 -14 16 -4.5472 -0.0800
1 -14 17 -3.2732 0.0154
1 -14 18 -3.7162 0.1439
1 -14 19 1.1565 -0.1082
1 -14 20 -1.7854 -0.6174
1 -13 0 0.7505 0.3118
1 -13 1 -4.7720 0.0554
1 -13 2 -2.8744 -0.1819
1 -13 3 1.0955 -0.0390
1 -13 4 0.5832 0.0998
1 -13 5 -14.7736 -0.0415
1 -13 6 -5.3191 -0.1126
1 -13 7 -1.2993 0.0298
1 -13 8 -13.9077 0.0960
1 -13 9 10.3279 0.0399
1 -13 10 -7.8642 -0.0770
1 -13 11 -1.3188 -0.0358
1 -13 12 -2.5312 0.0823
1 -13 13 1.3171 0.0579
1 -13 14 -7.3729 -0.0750
1 -13 15 3.1531 -0.0411
1 -13 16 -1.4367 0.0793
1 -13 17 3.8217 0.0145
1 -13 18 1.9616 -0.1350
1 -13 19 -2.8656 -0.1762
1 -13 20 1.0514 0.4648
1 -12 0 -8.5239 0.3630
1 -12 1 -1.7193 -0.1636
1 -12 2 -15.8109 0.0329
1 -12 3 -3.4151 -0.0618
1 -12 4 -0.5809 -0.1046
1 -12 5 -2.6123 0.0362
1 -12 6 -11.7005 0.0993
1 -12 7 11.7131 0.0337
1 -12 8 -1.7652 -0.0360
1 -12 9 -0.8169 -0.0285
1 -12 10 10.3640 0.0643
1 -12 11 -3.6979 0.0556
1 -12 12 5.0474 -0.0276
1 -12 13 5.9693 -0.0073
1 -12 14 5.5097 0.0260
1 -12 15 -0.6595 0.0126
1 -12 16 6.1342 -0.1057
1 -12 17 -0.0370 -0.0813
1 -12 18 2.5680 0.0697
1 -12 19 1.0300 0.1851
1 -12 20 -0.2928 0.2838
1 -11 0 -1.3083 -0.0408
1 -11 1 2.5611 0.7554
1 -11 2 7.9388 0.0839
1 -11 3 7.6791 -0.1470
1 -11 4 3.3998 -0.0459
1 -11 5 1.2267 0.0796
1 -11 6 -5.1301 0.0603
1 -11 7 -7.8444 0.0074
1 -11 8 4.3385 -0.0381
1 -11 9 -4.4680 -0.0032
1 -11 10 3.1734 -0.0059
1 -11 11 3.4904 -0.0097
1 -11 12 2.7945 0.0304
1 -11 13 -0.9089 0.0528
1 -11 14 4.5562 -0.0184
1 -11 15 2.6430 -0.0440
1 -11 16 -0.2608 -0.0080
1 -11 17 6.8497 -0.0262
1 -11 18 2.8357 -0.0495
1 -11 19 1.3503 -0.0521
1 -11 20 0.2200 0.1517
1 -10 0 1.4950 0.2907
1 -10 1 4.0518 -0.1731
1 -10 2 3.7864 -0.0886
1 -10 3 11.6567 0.0717
1 -10 4 6.7637 0.0165
1 -10 5 -6.3354 -0.0978
1 -10 6 11.2327 -0.0383
1 -10 7 0.8000 0.0710
1 -10 8 6.8729 0.0622
1 -10 9 4.3295 -0.0308
1 -10 10 5.1218 -0.0671
1 -10 11 -10.1582 0.0273
1 -10 12 -1.8931 0.0341
1 -10 13 -2.4442 -0.0376
1 -10 14 -9.2495 -0.0991
1 -10 15 -1.7140 -0.0521
1 -10 16 -4.1742 0.0980
1 -10 17 -3.9599 0.1341
1 -10 18 -2.7199 0.0318
1 -10 19 -1.9570 -0.1818
1 -10 20 0.6970 -0.2711
1 -9 0 8.0633 -0.5251
1 -9 1 -6.2915 -0.4854
1 -9 2 10.0626 0.1003
1 -9 3 14.6573 0.0912
1 -9 4 20.8274 -0.0190
1 -9 5 -2.4149 -0.0019
1 -9 6 0.8279 -0.0357
1 -9 7 -1.6429 -0.0656
1 -9 8 3.0552 -0.0076
1 -9 9 -4.5713 0.1025
1 -9 10 4.6304 0.0971
1 -9 11 -0.1717 -0.0267
1 -9 12 -11.0623 -0.0971
1 -9 13 0.4063 -0.0493
1 -9 14 -6.9008 0.0349
1 -9 15 -8.6393 -0.0336
1 -9 16 -0.5347 -0.0072
1 -9 17 -0.7333 0.0208
1 -9 18 -3.5667 0.2033
1 -9 19 -3.1692 0.0614
1 -9 20 -0.5897 -0.3156
1 -8 0 -13.6552 0.1361
1 -8 1 3.7601 -0.0069
1 -8 2 -21.5793 -0.2756
1 -8 3 -7.2560 0.0261
1 -8 4 -11.7914 0.2423
1 -8 5 -15.0847 0.0408
1 -8 6 -12.0036 -0.1452
1 -8 7 -16.9407 -0.0237
1 -8 8 -0.5105 0.1055
1 -8 9 8.6027 0.0188
1 -8 10 -7.0276 -0.0750
1 -8 11 6.0431 -0.0713
1 -8 12 5.0443 0.0281
1 -8 13 -1.9896 0.0122
1 -8 14 9.2831 0.0226
1 -8 15 4.8597 0.0571
1 -8 16 1.1692 0.0448
1 -8 17 5.4692 -0.1000
1 -8 18 -1.0184 -0.1938
1 -8 19 0.6923 -0.0825
1 -8 20 0.6071 0.4970
1 -7 0 -30.3008 -0.1951
1 -7 1 -21.1351 -0.0066
1 -7 2 -8.1593 0.2394
1 -7 3 -6.7031 -0.0127
1 -7 4 8.7577 -0.2686
1 -7 5 -15.8014 0.0049
1 -7 6 -7.1224 0.2275
1 -7 7 -7.2169 0.0876
1 -7 8 -18.0296 -0.0869
1 -7 9 15.9495 -0.0480
1 -7 10 2.5859 0.0334
1 -7 11 -7.2562 -0.0229
1 -7 12 7.9081 -0.0456
1 -7 13 6.9676 0.0058
1 -7 14 -10.4742 0.0728
1 -7 15 11.1927 0.0123
1 -7 16 -4.3325 -0.0196
1 -7 17 0.4756 -0.0770
1 -7 18 0.6277 0.0931
1 -7 19 2.2036 0.0942
1 -7 20 -1.6324 -0.1516
1 -6 0 10.4288 1.2566
1 -6 1 23.4567 1.0450
1 -6 2 29.1137 -0.0487
1 -6 3 20.9165 -0.1793
1 -6 4 17.5764 0.0116
1 -6 5 3.1149 0.1006
1 -6 6 -9.0118 -0.0050
1 -6 7 18.7406 -0.0167
1 -6 8 5.2653 -0.0071
1 -6 9 0.0799 -0.0331
1 -6 10 5.0383 -0.0082
1 -6 11 -4.3784 0.0988
1 -6 12 -10.0981 0.1147
1 -6 13 9.0573 0.0106
1 -6 14 -2.2636 -0.0975
1 -6 15 -4.3910 -0.0569
1 -6 16 8.0622 0.0004
1 -6 17 -3.2786 0.0378
1 -6 18 0.0827 -0.0334
1 -6 19 -2.3138 0.1403
1 -6 20 1.1435 0.5104
1 -5 0 -2.8917 -0.8285
1 -5 1 19.5580 -0.5941
1 -5 2 21.6239 0.0517
1 -5 3 25.5793 0.1804
1 -5 4 18.6966 0.0170
1 -5 5 29.3103 -0.0350
1 -5 6 10.2597 0.0043
1 -5 7 0.3592 -0.0141
1 -5 8 30.0481 -0.0991
1 -5 9 0.4345 -0.0204
1 -5 10 -1.5498 0.0778
1 -5 11 5.7497 0.0182
1 -5 12 2.4612 -0.0318
1 -5 13 -7.1031 -0.0004
1 -5 14 10.5270 0.0444
1 -5 15 -8.6990 -0.0238
1 -5 16 -3.3439 -0.0190
1 -5 17 0.6495 0.0912
1 -5 18 -0.6167 0.0486
1 -5 19 -5.3857 -0.1820
1 -5 20 0.2390 -0.3908
1 -4 0 -38.7246 -0.9171
1 -4 1 -21.8836 -0.1780
1 -4 2 47.8226 -0.0108
1 -4 3 -28.4839 0.1143
1 -4 4 -12.8492 0.0772
1 -4 5 -26.1812 -0.0697
1 -4 6 -8.1579 -0.1688
1 -4 7 -11.8312 0.0249
1 -4 8 4.2507 0.1482
1 -4 9 8.1632 0.0977
1 -4 10 -5.8920 -0.0890
1 -4 11 -7.5336 -0.0646
1 -4 12 6.8562 -0.0010
1 -4 13 -7.5891 0.0052
1 -4 14 -10.1827 -0.0394
1 -4 15 1.7710 0.0200
1 -4 16 -4.0634 0.0656
1 -4 17 1.0048 0.0737
1 -4 18 -0.8581 0.0265
1 -4 19 -0.5207 -0.0537
1 -3 0 -61.7519 0.9814
1 -3 1 10.3893 -0.2193
1 -3 2 -59.9411 -0.1509
1 -3 3 -15.6110 0.0066
1 -3 4 -58.8170 -0.0300
1 -3 5 -26.0291 -0.0465
1 -3 6 -21.2597 0.0163
1 -3 7 -7.8595 0.0250
1 -3 8 -9.7940 -0.0447
1 -3 9 -11.6255 -0.0097
1 -3 10 0.7120 0.0399
1 -3 11 -5.6812 0.0146
1 -3 12 -1.1202 -0.0635
1 -3 13 13.2751 -0.0206
1 -3 14 -0.4957 0.0469
1 -3 15 4.7314 0.0451
1 -3 16 5.9327 -0.0513
1 -3 17 3.2913 -0.1206
1 -3 18 -0.9277 -0.1531
1 -3 19 1.0611 0.3561
1 -2 0 -24.2615 -0.0949
1 -2 1 111.9489 0.3023
1 -2 2 55.3974 -0.0276
1 -2 3 18.9430 -0.1343
1 -2 4 54.7624 -0.0844
1 -2 5 8.3377 0.1693
1 -2 6 -4.5241 0.1207
1 -2 7 23.2640 -0.0357
1 -2 8 3.5686 -0.1133
1 -2 9 -1.2103 -0.0517
1 -2 10 2.5938 0.0199
1 -2 11 12.3678 0.0077
1 -2 12 -2.7459 0.0266
1 -2 13 -0.0800 0.0538
1 -2 14 -0.4065 0.0351
1 -2 15 2.9853 -0.0461
1 -2 16 -0.9805 -0.0656
1 -2 17 7.4207 0.0384
1 -2 18 -1.8947 0.0779
1 -1 0 -37.9332 0.3647
1 -1 1 113.5473 0.4059
1 -1 3 -20.7785 -0.0704
1 -1 4 4.5333 0.0342
1 -1 5 12.4648 0.0106
1 -1 6 12.4396 -0.0114
1 -1 7 2.3656 0.0680
1 -1 8 22.3754 0.0678
1 -1 9 1.0619 -0.0627
1 -1 10 2.1645 -0.0663
1 -1 11 -2.4622 0.0300
1 -1 12 0.9082 0.0433
1 -1 13 -10.3925 -0.0481
1 -1 14 -2.1017 -0.0592
1 -1 15 -0.0727 -0.0208
1 -1 16 1.9250 0.0064
1 -1 17 -5.3699 -0.0480
1 0 0 25.1053 -0.8436
1 0 1 -91.2140 -0.0939
1 0 2 2.8415 0.3653
1 0 3 -31.8023 0.1041
1 0 4 -11.8631 -0.1591
1 0 5 -5.5964 -0.0725
1 0 6 7.6362 0.0274
1 0 7 -11.1299 -0.0188
1 0 8 -10.1270 -0.0518
1 0 9 5.0636 0.0184
1 0 10 1.8962 0.0990
1 0 11 2.4908 -0.0034
1 0 12 -5.0179 -0.0652
1 0 13 -1.2606 -0.0149
1 0 14 -6.3862 -0.0262
1 0 15 -0.5207 -0.0878
1 0 16 1.7416 -0.0004
1 0 17 -1.1623 0.0697
1 1 0 2.8107 -0.1130
1 1 1 94.0729 -0.0269
1 1 2 -41.4497 -0.1546
1 1 3 9.5659 0.1163
1 1 4 -1.1066 0.2711
1 1 5 -9.4002 0.0224
1 1 6 -7.0282 -0.1985
1 1 7 7.5977 -0.0551
1 1 8 -8.8712 0.1114
1 1 9 -3.0264 0.0527
1 1 10 7.6856 -0.0316
1 1 11 -2.7254 -0.0336
1 1 12 -1.8819 -0.0149
1 1 13 -6.9014 -0.1055
1 1 14 8.4363 0.0110
1 1 15 -0.7653 0.1713
1 1 16 4.4782 0.0677
1 1 17 1.6539 -0.2942
1 2 0 7.6767 0.0504
1 2 1 14.1649 -0.3181
1 2 2 -18.6929 -0.0628
1 2 3 -18.7011 0.0320
1 2 4 -14.3400 -0.0981
1 2 5 11.5829 -0.0342
1 2 6 -20.4495 0.1160
1 2 7 -4.7700 0.0250
1 2 8 -7.0057 -0.0409
1 2 9 0.0950 0.0010
1 2 10 5.8766 0.0153
1 2 11 4.2478 -0.1003
1 2 12 -1.8426 -0.0247
1 2 13 1.3980 0.0454
1 2 14 -3.5513 0.0096
1 2 15 7.2144 -0.1245
1 2 16 0.5723 -0.0188
1 3 0 -4.6072 0.7698
1 3 1 23.6486 0.7635
1 3 2 20.1030 0.0412
1 3 3 35.1117 -0.1643
1 3 4 2.2039 -0.1402
1 3 5 13.5519 0.0740
1 3 6 12.0577 0.0802
1 3 7 -0.3506 0.0177
1 3 8 3.3861 0.0086
1 3 9 7.9019 -0.1138
1 3 10 5.3791 -0.0893
1 3 11 -1.7710 0.0551
1 3 12 -2.9113 0.0706
1 3 13 -5.6519 -0.0712
1 3 14 0.4046 0.0310
1 3 15 0.5663 0.2429
1 3 16 1.8606 -0.2710
1 4 0 4.3281 0.4647
1 4 1 17.3514 -0.1750
1 4 2 -5.4508 -0.1836
1 4 3 5.7130 -0.0133
1 4 4 16.1196 0.1140
1 4 5 -0.9500 0.0159
1 4 6 2.0871 0.0366
1 4 7 2.4405 -0.0423
1 4 8 -0.4073 -0.0249
1 4 9 1.1817 -0.0157
1 4 10 5.4634 0.0189
1 4 11 -3.1959 -0.0049
1 4 12 -5.9583 0.0182
1 4 13 0.7634 0.0615
1 4 14 -0.9764 0.0097
1 4 15 0.5699 -0.4832
1 5 0 -22.4683 -1.6510
1 5 1 -10.8686 -0.4226
1 5 2 4.6371 0.0964
1 5 3 -6.1710 0.1181
1 5 4 -13.3597 0.0478
1 5 5 2.1608 -0.0117
1 5 6 -13.1555 -0.0581
1 5 7 -9.5787 -0.0659
1 5 8 4.1586 0.0405
1 5 9 -1.4305 0.1176
1 5 10 7.2559 0.0210
1 5 11 -1.0942 -0.0713
1 5 12 0.1909 -0.0803
1 5 13 -3.4361 -0.0126
1 5 14 1.9906 0.0786
1 6 0 6.4535 0.3933
1 6 1 -13.8739 0.1197
1 6 2 -3.9305 0.0651
1 6 3 -1.5909 0.0861
1 6 4 -8.3201 0.0722
1 6 5 -14.1570 -0.1639
1 6 6 4.7352 -0.1622
1 6 7 -18.1753 0.0472
1 6 8 0.2537 0.1363
1 6 9 3.2685 0.0385
1 6 10 -1.4556 -0.0276
1 6 11 -4.1936 -0.0179
1 6 12 -2.3803 0.0635
1 6 13 -0.0598 -0.0682
1 7 0 -0.6107 0.3758
1 7 1 10.2117 0.3655
1 7 2 2.6997 0.0527
1 7 3 3.8846 -0.1141
1 7 4 11.2403 -0.1309
1 7 5 -2.0667 0.1222
1 7 6 -1.9613 0.1731
1 7 7 8.2693 -0.0471
1 7 8 -3.6546 -0.1411
1 7 9 8.2288 -0.0555
1 7 10 3.4739 0.1241
1 7 11 -0.7555 -0.0114
1 7 12 -0.9766 -0.1445
1 7 13 1.3193 0.1335
1 8 0 2.3751 0.3942
1 8 1 10.7058 -0.3091
1 8 2 18.6049 -0.3232
1 8 3 -1.3636 -0.0032
1 8 4 5.0576 0.1596
1 8 5 9.9801 0.0680
1 8 6 -7.1066 -0.0162
1 8 7 1.2607 0.0443
1 8 8 4.6099 0.0774
1 8 9 0.6051 -0.0716
1 8 10 -1.0270 -0.1015
1 8 11 -0.0199 0.0477
1 8 12 -2.0807 0.2160
1 9 0 -4.0244 -0.2364
1 9 1 -8.8570 0.0144
1 9 2 -2.2887 0.1072
1 9 3 8.6193 -0.0107
1 9 4 -13.2310 -0.0904
1 9 5 4.9162 -0.0646
1 9 6 -4.7503 -0.0035
1 9 7 -4.4690 -0.0040
1 9 8 -0.5413 -0.0581
1 9 9 2.2760 -0.0275
1 9 10 -2.2441 0.0711
1 10 0 -6.0245 -0.6965
1 10 1 -3.2061 0.2065
1 10 2 -7.1005 0.2568
1 10 3 -4.4062 0.0927
1 10 4 -1.6387 0.0048
1 10 5 -10.2754 -0.0427
1 10 6 -0.4305 -0.1073
1 10 7 -1.5785 -0.1124
1 10 8 1.0941 0.0346
1 10 9 0.2959 -0.1303
1 11 0 1.2614 0.2372
1 11 1 7.2186 -0.4360
1 11 2 -0.3005 -0.2925
1 11 3 -1.4903 0.0521
1 11 4 4.8333 0.1601
1 11 5 1.6937 0.0009
1 11 6 -0.4730 -0.0581
1 11 7 2.0239 -0.0881
1 11 8 2.8359 -0.0127
1 12 0 -2.1511 -0.0160
1 12 1 5.4278 0.1995
1 12 2 8.9922 0.0630
1 12 3 -1.0134 -0.1293
1 12 4 3.9652 -0.1754
1 12 5 0.9779 0.0041
1 12 6 1.1953 0.1339
1 12 7 0.6413 0.0199
1 13 0 1.0770 0.7669
1 13 1 1.0263 0.1957
1 13 2 0.7271 -0.0830
1 13 3 1.3135 -0.0464
1 13 4 -1.3246 0.0558
1 13 5 -0.3530 -0.1787
1 13 6 0.1099 -0.2401
1 14 0 -3.4312 -0.5683
1 14 1 1.6438 -0.2682
1 14 2 -2.4360 0.0191
1 14 3 -2.6056 0.0165
1 14 4 -0.4647 0.0925
1 15 0 0.0019 -0.4150
1 15 1 -2.2716 -0.1251
1 15 2 0.9995 0.0118
1 15 3 -1.1836 -0.0382
1 16 0 1.4127 0.3297
1 16 1 1.8114 0.0455
2 -20 11 1.5153 0.1250
2 -20 12 2.3763 0.0534
2 -20 13 1.1789 -0.1143
2 -19 4 2.6589 -0.0087
2 -19 5 1.2095 0.0552
2 -19 6 4.7819 -0.0326
2 -19 7 -5.2353 -0.0059
2 -19 8 2.0689 0.0240
2 -19 9 -2.4516 0.1062
2 -19 10 0.4649 0.0795
2 -19 11 -2.4078 0.0536
2 -19 12 -1.6692 -0.0143
2 -19 13 -1.4172 -0.0390
2 -19 14 1.2204 -0.0331
2 -19 15 -3.9646 -0.1019
2 -18 1 -0.3054 -0.0759
2 -18 2 -0.7414 0.1088
2 -18 3 -2.0479 0.0847
2 -18 4 -1.3893 -0.0705
2 -18 5 -2.3260 -0.1136
2 -18 6 1.1973 -0.0885
2 -18 7 -5.0404 0.1414
2 -18 8 -4.9358 0.1395
2 -18 9 -3.8148 0.0910
2 -18 10 -0.4457 0.0132
2 -18 11 0.0444 0.0438
2 -18 12 -2.7953 -0.0230
2 -18 13 -1.0752 -0.0988
2 -18 14 0.2103 -0.0349
2 -18 15 -0.7312 0.0149
2 -18 16 -3.1740 -0.0511
2 -17 0 0.9595 0.3124
2 -17 1 -0.8614 0.1543
2 -17 2 -7.6712 0.0190
2 -17 3 2.3114 0.0373
2 -17 4 -3.8167 -0.0061
2 -17 5 -1.2632 -0.0125
2 -17 6 -2.5997 -0.0750
2 -17 7 -2.8276 -0.0238
2 -17 8 -3.4475 0.0092
2 -17 9 4.3561 0.0875
2 -17 10 -1.6470 0.0704
2 -17 11 6.0255 -0.0038
2 -17 12 -0.4059 -0.0222
2 -17 13 0.4183 -0.0019
2 -17 14 1.8603 0.0064
2 -17 15 2.6753 -0.0920
2 -17 16 0.8259 -0.2206
2 -17 17 0.1431 0.2505
2 -16 0 2.1114 -0.0073
2 -16 1 5.5092 -0.0362
2 -16 2 -0.6852 -0.0872
2 -16 3 5.3847 -0.0378
2 -16 4 2.3508 -0.0302
2 -16 5 0.3421 0.1170
2 -16 6 6.0256 0.0967
2 -16 7 5.5365 -0.0196
2 -16 8 -3.5117 -0.0781
2 -16 9 5.5733 -0.0240
2 -16 10 5.1339 -0.0095
2 -16 11 -6.7036 0.0260
2 -16 12 6.9301 0.0636
2 -16 13 -1.0958 0.0700
2 -16 14 3.9721 0.0166
2 -16 15 -0.6816 -0.1064
2 -16 16 2.2255 -0.1020
2 -16 17 -0.7442 0.1896
2 -16 18 -0.0605 0.1857
2 -15 0 0.9000 0.7922
2 -15 1 3.5910 -0.1045
2 -15 2 1.9817 -0.1749
2 -15 3 -2.4170 -0.0552
2 -15 4 7.7567 0.0194
2 -15 5 7.4366 -0.0249
2 -15 6 -2.6109 0.0182
2 -15 7 2.9351 0.0718
2 -15 8 0.4002 0.0549
2 -15 9 -5.0073 -0.0641
2 -15 10 6.0365 -0.0801
2 -15 11 0.2471 -0.0040
2 -15 12 -4.9872 0.0340
2 -15 13 1.9782 -0.0034
2 -15 14 -4.9099 -0.0410
2 -15 15 -3.7639 -0.0007
2 -15 16 -5.3456 0.0467
2 -15 17 -2.0389 0.0149
2 -15 18 2.2150 0.0220
2 -15 19 0.9947 0.3202
2 -14 0 -4.6312 -0.4597
2 -14 1 -1.9610 0.3574
2 -14 2 0.1331 0.2384
2 -14 3 -5.5596 -0.0720
2 -14 4 -6.3352 -0.1254
2 -14 5 0.0029 0.0134
2 -14 6 -1.2593 0.0509
2 -14 7 -12.5818 -0.0268
2 -14 8 11.2813 -0.0671
2 -14 9 -7.9973 0.0521
2 -14 10 -2.7798 0.1088
2 -14 11 3.7603 0.0098
2 -14 12 -3.7302 -0.0747
2 -14 13 -2.3010 0.0020
2 -14 14 3.4362 0.0556
2 -14 15 -1.4139 0.0371
2 -14 16 1.9346 -0.0030
2 -14 17 0.0669 0.0106
2 -14 18 0.5134 0.0593
2 -14 19 1.0909 -0.1056
2 -14 20 -2.6036 -0.3488
2 -13 0 2.1639 -0.3721
2 -13 1 -6.5139 -0.3208
2 -13 2 -1.8528 -0.0481
2 -13 3 -8.0783 0.1592
2 -13 4 -1.8064 0.1998
2 -13 5 -3.8815 -0.0330
2 -13 6 3.0463 -0.1543
2 -13 7 -4.6541 -0.0170
2 -13 8 -7.5053 0.1041
2 -13 9 4.6241 0.0481
2 -13 10 -10.7609 -0.0481
2 -13 11 4.1922 -0.0389
2 -13 12 2.3226 0.0229
2 -13 13 5.5608 0.0138
2 -13 14 -0.8557 -0.0542
2 -13 15 4.0831 0.0172
2 -13 16 -4.9399 0.1154
2 -13 17 -1.4469 -0.0047
2 -13 18 0.3104 -0.1955
2 -13 19 -0.5050 -0.2452
2 -13 20 2.7656 0.2627
2 -12 0 -1.8237 -0.0315
2 -12 1 5.1284 -0.1694
2 -12 2 -4.5299 0.0121
2 -12 3 0.2570 0.0135
2 -12 4 1.2322 -0.0875
2 -12 5 3.6551 -0.0439
2 -12 6 -8.6456 0.0184
2 -12 7 6.5814 0.0402
2 -12 8 -4.4190 -0.0049
2 -12 9 -2.2057 -0.0014
2 -12 10 5.1836 -0.0420
2 -12 11 -0.1538 -0.0638
2 -12 12 2.8066 -0.0569
2 -12 13 2.0248 0.0552
2 -12 14 1.5290 0.0753
2 -12 15 -1.4308 0.0600
2 -12 16 5.4746 -0.0834
2 -12 17 0.9600 -0.0302
2 -12 18 4.7047 -0.0360
2 -12 19 1.9642 -0.0760
2 -12 20 -1.4713 -0.0155
2 -11 0 3.5488 0.6474
2 -11 1 6.3061 0.5226
2 -11 2 5.4947 0.1037
2 -11 3 -0.4881 -0.1266
2 -11 4 3.3892 -0.1564
2 -11 5 16.2485 0.0592
2 -11 6 7.8890 0.0903
2 -11 7 10.2346 0.0191
2 -11 8 13.3900 -0.0204
2 -11 9 0.7025 -0.0430
2 -11 10 1.9315 -0.0086
2 -11 11 7.6133 0.0635
2 -11 12 0.4528 0.0731
2 -11 13 0.8199 0.0431
2 -11 14 1.0828 -0.0525
2 -11 15 0.6074 -0.0385
2 -11 16 -4.7588 -0.0305
2 -11 17 -0.4483 0.0373
2 -11 18 -1.5342 0.0088
2 -11 19 0.3741 0.0589
2 -11 20 -1.4254 0.3800
2 -10 0 -3.6174 0.6219
2 -10 1 9.5265 -0.1621
2 -10 2 1.4923 -0.3098
2 -10 3 7.4257 -0.0243
2 -10 4 5.1552 0.1307
2 -10 5 9.1541 0.0658
2 -10 6 5.7298 0.0019
2 -10 7 -1.2277 -0.0156
2 -10 8 0.0191 -0.0343
2 -10 9 -3.7948 -0.0143
2 -10 10 4.7345 0.0399
2 -10 11 -2.0479 0.0905
2 -10 12 3.8443 0.0232
2 -10 13 -7.1044 -0.0224
2 -10 14 -6.8401 -0.0628
2 -10 15 -5.7368 -0.0143
2 -10 16 -4.2669 -0.0099
2 -10 17 -3.0040 0.0498
2 -10 18 1.9777 0.1132
2 -10 19 -0.2605 0.0328
2 -10 20 -0.2802 -0.0044
2 -9 0 8.7281 -1.2806
2 -9 1 -15.6913 -0.2762
2 -9 2 -7.2598 0.1009
2 -9 3 -29.6616 0.0520
2 -9 4 -15.2183 -0.0338
2 -9 5 -14.2911 -0.0029
2 -9 6 -11.9597 -0.0380
2 -9 7 -11.9457 -0.0514
2 -9 8 -3.8004 0.0367
2 -9 9 -20.5102 0.0984
2 -9 10 -0.2236 0.0089
2 -9 11 -2.0216 -0.0567
2 -9 12 -7.6854 -0.0790
2 -9 13 6.2484 0.0112
2 -9 14 -1.4229 0.0661
2 -9 15 -1.9894 0.0246
2 -9 16 3.2459 0.0267
2 -9 17 1.3006 0.0083
2 -9 18 -0.7854 0.0657
2 -9 19 -1.3119 -0.0922
2 -9 20 1.3288 -0.7265
2 -8 0 -9.6210 0.2271
2 -8 1 -1.3049 0.1842
2 -8 2 -26.4583 0.1121
2 -8 3 -12.2394 0.0682
2 -8 4 -4.4249 0.0747
2 -8 5 7.1943 -0.1974
2 -8 6 3.7680 -0.1390
2 -8 7 -17.9237 0.0717
2 -8 8 2.7604 0.1399
2 -8 9 -11.3811 0.0493
2 -8 10 -3.2810 -0.0440
2 -8 11 7.6873 -0.0084
2 -8 12 5.6618 -0.0245
2 -8 13 -6.8813 -0.0594
2 -8 14 11.3613 -0.0517
2 -8 15 -2.6422 0.0181
2 -8 16 -2.7035 0.1250
2 -8 17 6.6170 0.0132
2 -8 18 1.2042 -0.1284
2 -8 19 0.1096 -0.1857
2 -8 20 2.2691 0.3992
2 -7 0 13.9755 0.0246
2 -7 1 18.2883 0.2839
2 -7 2 15.4728 0.1190
2 -7 3 -1.8162 -0.0946
2 -7 4 20.7531 -0.0850
2 -7 5 13.8143 0.1244
2 -7 6 25.3189 0.1549
2 -7 7 13.1634 -0.0580
2 -7 8 -3.8802 -0.1505
2 -7 9 19.3115 0.0033
2 -7 10 0.3012 0.0730
2 -7 11 1.9976 0.0245
2 -7 12 3.3603 -0.0105
2 -7 13 7.4830 0.0145
2 -7 14 -6.8541 0.0867
2 -7 15 16.6031 0.0197
2 -7 16 -5.4131 -0.1497
2 -7 17 7.4155 -0.1710
2 -7 18 4.0918 -0.0097
2 -7 19 2.4165 0.2650
2 -7 20 -0.8940 0.2882
2 -6 0 -1.0773 0.5700
2 -6 1 -1.5459 -0.4869
2 -6 2 -9.1179 -0.4056
2 -6 3 0.1160 -0.0411
2 -6 4 21.2142 0.1683
2 -6 5 17.3981 0.0845
2 -6 6 7.6326 0.0291
2 -6 7 25.4596 0.0267
2 -6 8 -2.3331 0.0366
2 -6 9 2.5357 -0.0746
2 -6 10 15.0251 -0.1320
2 -6 11 2.1003 -0.0202
2 -6 12 -5.9667 0.0862
2 -6 13 10.6554 0.0781
2 -6 14 -5.4030 -0.0158
2 -6 15 -2.9266 -0.0362
2 -6 16 0.5303 0.0314
2 -6 17 -4.8403 0.0591
2 -6 18 1.5569 -0.0340
2 -6 19 0.2736 -0.1264
2 -6 20 -0.9481 0.0620
2 -5 0 -4.2809 0.0441
2 -5 1 -12.2331 0.2538
2 -5 2 -11.5368 0.1838
2 -5 3 -8.4249 -0.0254
2 -5 4 -16.0297 -0.2122
2 -5 5 -10.2876 -0.0690
2 -5 6 -22.0628 0.0614
2 -5 7 -17.2166 0.0267
2 -5 8 0.0197 -0.0588
2 -5 9 -10.8741 -0.0397
2 -5 10 -10.9797 0.0904
2 -5 11 -0.8318 0.0759
2 -5 12 -14.9115 -0.0358
2 -5 13 -7.2224 -0.0818
2 -5 14 5.3289 -0.0393
2 -5 15 -10.5982 0.0060
2 -5 16 -2.3977 -0.0385
2 -5 17 2.1162 0.0253
2 -5 18 3.2936 0.1068
2 -5 19 -0.1974 0.1813
2 -4 0 0.9210 -0.7697
2 -4 1 -65.5455 0.1965
2 -4 2 22.5298 0.2569
2 -4 3 -30.9723 0.1543
2 -4 4 -18.2594 0.0832
2 -4 5 -18.1158 -0.0330
2 -4 6 -4.0564 -0.1689
2 -4 7 -21.9866 -0.1002
2 -4 8 -6.0902 0.0347
2 -4 9 -5.3485 0.0713
2 -4 10 -10.3049 0.0000
2 -4 11 -10.2053 0.0149
2 -4 12 8.3735 0.0212
2 -4 13 1.3700 0.0228
2 -4 14 9.8499 -0.0620
2 -4 15 3.1421 -0.0526
2 -4 16 0.3740 0.0827
2 -4 17 0.9779 0.1022
2 -4 18 4.3136 -0.0478
2 -4 19 1.3809 -0.5378
2 -3 0 -2.0622 -0.0306
2 -3 1 -15.5168 -0.6474
2 -3 2 19.3446 -0.2762
2 -3 3 59.5981 0.0576
2 -3 4 -17.4972 0.1700
2 -3 5 9.1104 -0.0617
2 -3 6 16.2906 -0.0956
2 -3 7 1.8777 0.0370
2 -3 8 8.0204 0.0431
2 -3 9 8.1660 0.0514
2 -3 10 7.5870 0.0119
2 -3 11 -0.6783 -0.0413
2 -3 12 2.1722 -0.0897
2 -3 13 6.5351 -0.0656
2 -3 14 -6.4138 0.0908
2 -3 15 -3.6945 0.1355
2 -3 16 0.3265 -0.0217
2 -3 17 -0.2394 -0.1934
2 -3 18 0.3413 0.0967
2 -2 0 -43.9009 0.0643
2 -2 1 5.0902 0.4018
2 -2 2 4.2236 0.1110
2 -2 3 -9.7841 -0.1959
2 -2 4 2.2334 -0.2587
2 -2 5 -3.2720 0.0255
2 -2 6 8.9984 0.1636
2 -2 7 23.7476 0.0737
2 -2 8 5.6814 -0.0397
2 -2 9 5.1261 0.0099
2 -2 10 -3.5804 -0.0278
2 -2 11 3.2477 -0.0356
2 -2 12 -4.5724 0.0285
2 -2 13 3.7638 0.0930
2 -2 14 0.7475 -0.0231
2 -2 15 -0.9805 -0.0819
2 -2 16 -6.3784 0.0167
2 -2 17 4.8251 -0.0914
2 -2 18 -4.9488 -0.1751
2 -1 0 -139.4130 1.6340
2 -1 1 32.7999 0.1768
2 -1 2 22.5974 -0.2839
2 -1 3 -3.2592 -0.1151
2 -1 4 7.4489 0.0860
2 -1 5 12.2500 0.0752
2 -1 6 1.8753 0.0126
2 -1 7 -3.2946 0.0397
2 -1 8 8.5704 -0.0339
2 -1 9 -8.9485 -0.1400
2 -1 10 -5.3256 -0.0310
2 -1 11 4.9447 0.0936
2 -1 12 8.8864 0.0846
2 -1 13 -1.8951 -0.0101
2 -1 14 -5.1239 -0.0189
2 -1 15 -2.1043 -0.0289
2 -1 16 -1.4296 -0.0242
2 -1 17 -3.8492 0.0195
2 0 0 57.3802 -1.3267
2 0 1 -39.4934 -0.1444
2 0 2 66.7058 0.1769
2 0 3 -28.5307 0.0772
2 0 4 -37.3656 -0.0461
2 0 5 -10.5049 0.0924
2 0 6 5.7988 0.0571
2 0 7 -14.1305 -0.0872
2 0 8 -5.7186 -0.0832
2 0 9 -6.0274 0.0486
2 0 10 -12.3830 0.0643
2 0 11 -1.9936 -0.0077
2 0 12 -2.6207 -0.0664
2 0 13 3.7787 -0.0326
2 0 14 -5.0201 0.0144
2 0 15 0.7356 -0.0490
2 0 16 1.8675 0.1457
2 0 17 -0.1260 0.0781
2 1 0 -40.7743 -0.7565
2 1 1 -9.8344 -0.2344
2 1 2 -44.5478 0.0991
2 1 3 -18.0726 0.1910
2 1 4 -7.7969 0.0841
2 1 5 -19.9257 -0.1847
2 1 6 6.3149 -0.2501
2 1 7 -1.3239 0.0084
2 1 8 -7.1229 0.1696
2 1 9 -11.7283 0.0693
2 1 10 1.2258 -0.0119
2 1 11 6.8276 -0.0283
2 1 12 8.6724 -0.0060
2 1 13 -2.3541 -0.0179
2 1 14 2.9789 0.0703
2 1 15 -6.1030 0.0310
2 1 16 2.3794 -0.2861
2 2 0 3.3088 0.3842
2 2 1 25.8326 0.3707
2 2 2 31.2463 0.1515
2 2 3 4.9434 -0.0700
2 2 4 12.4536 -0.1138
2 2 5 27.2749 -0.0327
2 2 6 7.5094 0.0457
2 2 7 17.1477 -0.0119
2 2 8 5.9051 -0.0388
2 2 9 0.6827 0.0195
2 2 10 0.2017 0.0728
2 2 11 5.8372 0.0221
2 2 12 -0.3813 0.0481
2 2 13 -0.5668 -0.0160
2 2 14 -5.6254 0.0364
2 2 15 0.8420 0.0122
2 2 16 -0.9997 0.5702
2 3 0 12.7670 0.2176
2 3 1 2.1595 -0.1589
2 3 2 -3.5056 -0.2977
2 3 3 9.1857 -0.1245
2 3 4 -8.1158 0.0305
2 3 5 13.1503 0.1544
2 3 6 11.1388 0.1540
2 3 7 1.7465 0.0123
2 3 8 -3.7881 -0.0510
2 3 9 -4.5812 -0.0682
2 3 10 -1.9241 -0.0186
2 3 11 5.2947 0.0031
2 3 12 5.1913 0.0845
2 3 13 -2.1751 -0.0485
2 3 14 -0.5740 0.0274
2 3 15 -1.3059 0.1304
2 4 0 -13.9151 0.7648
2 4 1 0.4974 -0.2916
2 4 2 -23.7042 -0.2863
2 4 3 -10.8531 -0.0968
2 4 4 -4.8656 0.0480
2 4 5 -8.5637 -0.0196
2 4 6 -2.8706 -0.0243
2 4 7 1.2821 0.0387
2 4 8 -8.6523 0.0346
2 4 9 -5.7715 -0.0325
2 4 10 2.1378 -0.0123
2 4 11 3.5116 0.0351
2 4 12 -1.8483 0.1053
2 4 13 0.5854 0.0504
2 4 14 -3.6416 0.0644
2 4 15 -0.5943 0.0079
2 5 0 -16.3954 -1.0079
2 5 1 -9.6339 0.4271
2 5 2 -13.2363 0.4627
2 5 3 -7.3979 0.0658
2 5 4 -10.9036 -0.1514
2 5 5 9.5049 -0.0433
2 5 6 -5.4599 0.0038
2 5 7 -0.8392 -0.0615
2 5 8 -3.1322 -0.0442
2 5 9 -13.9410 0.0830
2 5 10 1.2645 0.0503
2 5 11 -0.8372 -0.0813
2 5 12 -0.5331 0.0132
2 5 13 -2.0392 0.1569
2 5 14 1.4571 0.0732
2 6 0 8.0350 -0.0941
2 6 1 -5.6925 -0.4380
2 6 2 1.4242 -0.0959
2 6 3 6.8428 0.2556
2 6 4 2.4950 0.2384
2 6 5 1.3365 -0.0418
2 6 6 18.8551 -0.1727
2 6 7 -9.3571 -0.0094
2 6 8 6.5078 0.1045
2 6 9 0.9567 0.0369
2 6 10 3.3289 -0.0057
2 6 11 5.2847 -0.0041
2 6 12 2.5944 -0.0283
2 6 13 -0.6588 -0.2554
2 7 0 11.8907 -0.6271
2 7 1 7.7956 0.0783
2 7 2 -3.3060 0.0522
2 7 3 3.9345 -0.1153
2 7 4 12.6486 -0.1700
2 7 5 -1.8690 0.0485
2 7 6 11.0378 0.0881
2 7 7 4.3184 -0.0398
2 7 8 -8.1229 -0.0658
2 7 9 2.2807 0.0824
2 7 10 2.6919 0.1859
2 7 11 -2.1276 -0.1847
2 7 12 -0.2447 -0.1402
2 8 0 -4.2102 1.2757
2 8 1 -5.7530 0.0576
2 8 2 1.4952 -0.2509
2 8 3 -13.2733 -0.1679
2 8 4 6.7783 -0.0025
2 8 5 1.5078 -0.0300
2 8 6 -6.2119 -0.0097
2 8 7 -0.3210 0.0992
2 8 8 -2.2335 0.1204
2 8 9 -2.0925 -0.1451
2 8 10 0.7550 -0.0652
2 8 11 4.2407 0.0821
2 9 0 -3.2638 0.1954
2 9 1 -6.3301 0.0004
2 9 2 -6.0448 -0.0248
2 9 3 3.4117 -0.0528
2 9 4 -16.6259 -0.0010
2 9 5 8.8733 0.0909
2 9 6 -1.6738 0.0821
2 9 7 -2.7950 -0.0804
2 9 8 -1.0280 -0.0757
2 9 9 2.0626 0.0975
2 9 10 -1.4573 0.0763
2 10 0 2.8497 -1.5161
2 10 1 -3.3309 -0.2382
2 10 2 -0.5120 0.2077
2 10 3 6.2391 0.1719
2 10 4 3.8094 0.0532
2 10 5 0.1846 -0.0506
2 10 6 4.8050 -0.1064
2 10 7 -1.6072 0.0331
2 10 8 -2.8862 0.1155
2 10 9 -2.4291 -0.1381
2 11 0 1.8419 0.3610
2 11 1 4.5388 0.0145
2 11 2 0.3007 0.0877
2 11 3 -0.3961 0.1044
2 11 4 -0.1331 0.0537
2 11 5 1.0250 -0.0317
2 11 6 -0.2330 -0.1222
2 11 7 -2.1285 -0.1306
2 11 8 1.2926 0.2340
2 12 0 -4.0708 0.0854
2 12 1 -3.1319 0.3177
2 12 2 1.5731 0.0577
2 12 3 -2.7059 -0.0804
2 12 4 2.3669 -0.1445
2 12 5 0.3133 0.1037
2 12 6 2.1047 0.2432
2 13 0 -2.5875 0.7261
2 13 1 -1.2852 -0.3376
2 13 2 0.2488 -0.3893
2 13 3 -0.6942 0.0126
2 13 4 -0.6304 0.1337
2 13 5 -0.0783 0.0034
2 14 0 -2.6728 -0.4229
2 14 1 -1.7482 0.1883
2 14 2 -2.2117 0.1707
2 14 3 -1.8504 -0.0574
2 14 4 -1.1498 -0.0895
2 15 0 2.3937 -0.1826
2 15 1 0.3126 -0.0308
2 15 2 1.0150 -0.0095
2 16 0 -0.2023 -0.3736
2 16 1 0.2422 -0.1416
3 -20 11 -0.4594 0.0605
3 -20 12 0.6311 0.0605
3 -20 13 0.6895 0.0207
3 -19 3 -2.9695 -0.2190
3 -19 4 2.2939 -0.0775
3 -19 5 1.0386 0.0363
3 -19 6 -0.5906 0.1169
3 -19 7 -2.3161 -0.0268
3 -19 8 0.8148 0.0144
3 -19 9 -1.9951 0.0392
3 -19 10 0.5026 0.1056
3 -19 11 -2.3894 0.0982
3 -19 12 -0.8514 0.0844
3 -19 13 -3.5253 0.0786
3 -19 14 1.3276 -0.1623
3 -19 15 -1.9654 -0.0900
3 -18 1 -0.3513 -0.1618
3 -18 2 5.0926 0.0761
3 -18 3 -2.3166 0.1505
3 -18 4 2.4667 0.1063
3 -18 5 -3.0801 -0.0505
3 -18 6 -1.4025 -0.0701
3 -18 7 -5.6548 -0.0280
3 -18 8 2.0168 0.0319
3 -18 9 -1.9978 0.0318
3 -18 10 1.5391 0.0838
3 -18 11 2.1800 0.1029
3 -18 12 -0.5537 0.0101
3 -18 13 0.0225 -0.0693
3 -18 14 1.2910 -0.0560
3 -18 15 2.6921 0.1520
3 -18 16 -0.2897 -0.0971
3 -18 17 -0.8074 -0.6364
3 -17 0 1.6228 -0.4354
3 -17 1 -0.0817 -0.1341
3 -17 2 0.4836 0.1248
3 -17 3 0.8673 0.0909
3 -17 4 0.2737 0.0522
3 -17 5 1.6084 -0.0594
3 -17 6 0.9583 -0.1262
3 -17 7 1.3984 -0.0484
3 -17 8 2.5072 0.0667
3 -17 9 3.5011 0.1062
3 -17 10 -3.0503 0.0555
3 -17 11 7.3464 -0.0901
3 -17 12 -0.5528 -0.0583
3 -17 13 0.1550 0.0554
3 -17 14 1.8733 0.0599
3 -17 15 3.3374 0.0055
3 -17 16 1.0309 -0.1466
3 -17 17 -0.1336 -0.0253
3 -17 18 -0.0041 0.0484
3 -16 0 -0.6534 -0.0605
3 -16 1 0.0854 0.2567
3 -16 2 -3.2487 0.0894
3 -16 3 6.1558 -0.1516
3 -16 4 3.8866 -0.2299
3 -16 5 0.3520 -0.0116
3 -16 6 2.6697 0.0663
3 -16 7 2.0936 0.0380
3 -16 8 -3.5832 -0.0182
3 -16 9 6.6768 -0.0226
3 -16 10 1.5325 -0.0132
3 -16 11 -3.1360 -0.0029
3 -16 12 7.0414 0.0231
3 -16 13 -4.1812 0.0159
3 -16 14 2.0660 -0.0625
3 -16 15 -2.4701 -0.1390
3 -16 16 -0.6919 -0.0622
3 -16 17 -1.2374 0.1695
3 -16 18 -1.8082 0.1526
3 -16 19 0.1800 0.0263
3 -15 0 -2.3214 1.5273
3 -15 1 2.7872 -0.0279
3 -15 2 0.8888 -0.3287
3 -15 3 0.4155 -0.1534
3 -15 4 -1.5072 0.0888
3 -15 5 -2.1776 0.1114
3 -15 6 -5.3325 0.0263
3 -15 7 2.9642 0.0381
3 -15 8 -1.8384 -0.0500
3 -15 9 -0.5663 -0.1113
3 -15 10 3.8987 -0.0667
3 -15 11 -6.6588 0.0762
3 -15 12 -2.0072 0.0576
3 -15 13 -0.2507 -0.0106
3 -15 14 -1.0434 -0.0772
3 -15 15 1.5420 -0.0715
3 -15 16 -0.0461 0.0661
3 -15 17 -1.4607 0.1038
3 -15 18 -3.9453 -0.1027
3 -15 19 -2.6625 0.1654
3 -14 0 -1.5893 -0.8319
3 -14 1 -1.6845 -0.0306
3 -14 2 -0.5454 0.0634
3 -14 3 -1.2523 -0.0112
3 -14 4 -3.5227 -0.0629
3 -14 5 -2.8061 0.0877
3 -14 6 -0.8380 0.0723
3 -14 7 -11.4858 -0.0591
3 -14 8 4.3703 -0.0605
3 -14 9 -9.7015 0.0381
3 -14 10 -2.9107 0.0811
3 -14 11 -3.4194 -0.0362
3 -14 12 -4.3641 -0.1086
3 -14 13 -0.9946 -0.0020
3 -14 14 2.2980 0.0916
3 -14 15 -2.7386 0.0027
3 -14 16 -0.4734 -0.0705
3 -14 17 -3.7988 0.0008
3 -14 18 -1.2743 0.0692
3 -14 19 2.5292 -0.1675
3 -14 20 0.1767 -0.4561
3 -13 0 -0.5768 -0.3555
3 -13 1 -6.3152 -0.1381
3 -13 2 4.7983 0.1165
3 -13 3 1.1244 0.1806
3 -13 4 0.2504 0.0474
3 -13 5 -8.5608 -0.1796
3 -13 6 2.7274 -0.2016
3 -13 7 -6.5908 0.0274
3 -13 8 1.2585 0.2184
3 -13 9 9.9612 0.0655
3 -13 10 -4.8273 -0.0476
3 -13 11 2.8163 -0.0409
3 -13 12 -0.1261 -0.0062
3 -13 13 0.8995 -0.0026
3 -13 14 -0.4391 -0.0401
3 -13 15 4.9932 -0.0176
3 -13 16 4.0049 0.1011
3 -13 17 5.5100 0.1436
3 -13 18 4.1636 -0.0382
3 -13 19 -0.1921 -0.2758
3 -13 20 5.0356 -0.1503
3 -12 0 -1.1370 0.0486
3 -12 1 2.8173 0.3220
3 -12 2 1.3191 0.1894
3 -12 3 7.4119 0.0470
3 -12 4 4.8683 -0.0559
3 -12 5 5.4914 -0.0550
3 -12 6 7.4638 0.0159
3 -12 7 11.2266 -0.0422
3 -12 8 7.6371 -0.0825
3 -12 9 9.5166 0.0045
3 -12 10 4.3952 -0.0073
3 -12 11 -0.4341 -0.0097
3 -12 12 4.1945 -0.0220
3 -12 13 2.7057 0.0086
3 -12 14 3.2544 0.0368
3 -12 15 -3.0889 0.0503
3 -12 16 0.0637 -0.0424
3 -12 17 -7.3638 -0.0718
3 -12 18 -1.3340 -0.0318
3 -12 19 -1.5595 0.0654
3 -12 20 0.0411 0.1964
3 -11 0 1.9820 0.1721
3 -11 1 -0.3395 -0.1366
3 -11 2 8.8696 -0.2643
3 -11 3 7.3822 -0.1558
3 -11 4 3.0836 0.0262
3 -11 5 -1.0191 0.1210
3 -11 6 -3.6415 0.1103
3 -11 7 -5.3014 -0.0261
3 -11 8 1.4821 -0.0518
3 -11 9 2.2848 -0.0298
3 -11 10 -7.7284 -0.0053
3 -11 11 2.9961 0.0223
3 -11 12 -6.9498 0.0251
3 -11 13 0.3848 0.0470
3 -11 14 -6.7215 0.0307
3 -11 15 -2.8487 -0.0079
3 -11 16 -6.0360 -0.0862
3 -11 17 -3.3124 -0.0812
3 -11 18 -2.3685 -0.0573
3 -11 19 -0.3864 0.0784
3 -11 20 -1.3694 0.2971
3 -10 0 -12.7538 1.0262
3 -10 1 6.1476 -0.1344
3 -10 2 -6.1767 -0.2887
3 -10 3 -1.8620 -0.1139
3 -10 4 -21.6569 0.0131
3 -10 5 -15.1508 -0.0439
3 -10 6 -10.8496 0.0046
3 -10 7 -8.1205 0.0982
3 -10 8 -9.1794 0.0887
3 -10 9 -1.5283 -0.0056
3 -10 10 -12.6709 -0.0466
3 -10 11 -10.6734 -0.0009
3 -10 12 2.7825 0.0854
3 -10 13 -0.0748 0.0215
3 -10 14 4.4131 -0.0903
3 -10 15 2.3370 -0.0397
3 -10 16 5.7550 0.0615
3 -10 17 -3.2437 0.0519
3 -10 18 2.6321 -0.0308
3 -10 19 0.0577 -0.1052
3 -10 20 -1.2378 0.0312
3 -9 0 1.3345 -0.5668
3 -9 1 -14.2865 0.3675
3 -9 2 16.6408 0.3289
3 -9 3 -2.9789 -0.0336
3 -9 4 -2.8866 -0.1591
3 -9 5 -4.0101 -0.0061
3 -9 6 -3.9683 0.0576
3 -9 7 -1.5172 -0.0456
3 -9 8 1.4561 -0.0779
3 -9 9 -5.1971 0.0027
3 -9 10 3.6625 0.1039
3 -9 11 1.8440 0.0289
3 -9 12 -2.6837 -0.0410
3 -9 13 8.3556 -0.0614
3 -9 14 -1.1581 -0.0539
3 -9 15 0.1880 -0.0407
3 -9 16 7.6260 -0.0407
3 -9 17 -1.4507 0.0946
3 -9 18 3.9278 0.1886
3 -9 19 3.9752 0.0705
3 -9 20 2.5796 -0.4810
3 -8 0 1.0140 -0.3257
3 -8 1 18.3636 -0.4218
3 -8 2 13.2085 -0.0104
3 -8 3 13.4199 0.2378
3 -8 4 -10.8976 0.2562
3 -8 5 1.6442 -0.0472
3 -8 6 16.7082 -0.1934
3 -8 7 -3.7230 -0.0715
3 -8 8 32.3379 0.0814
3 -8 9 2.7073 0.0461
3 -8 10 4.6386 -0.0180
3 -8 11 0.8608 -0.0208
3 -8 12 8.7799 -0.0161
3 -8 13 -8.2005 -0.0112
3 -8 14 11.4106 -0.0468
3 -8 15 -4.8919 0.0030
3 -8 16 3.3417 0.1016
3 -8 17 1.9987 -0.0346
3 -8 18 -0.4906 -0.0839
3 -8 19 -0.2924 -0.1055
3 -8 20 0.4259 0.2382
3 -7 0 8.0063 -1.0116
3 -7 1 4.1246 0.1389
3 -7 2 17.2628 0.2110
3 -7 3 -1.7607 -0.0444
3 -7 4 3.7358 -0.1806
3 -7 5 -2.4902 -0.0568
3 -7 6 22.7333 0.0726
3 -7 7 5.4088 0.0446
3 -7 8 1.5566 -0.0017
3 -7 9 16.6175 0.0628
3 -7 10 -6.9737 0.0432
3 -7 11 3.9963 -0.0869
3 -7 12 0.3969 -0.1338
3 -7 13 -3.2189 0.0232
3 -7 14 -11.7853 0.1333
3 -7 15 7.9297 0.0891
3 -7 16 -14.4013 -0.0715
3 -7 17 -4.2313 0.0355
3 -7 18 -3.0728 -0.0821
3 -7 19 -1.8470 -0.2543
3 -7 20 1.0941 -0.1579
3 -6 0 -5.8738 1.6457
3 -6 1 26.4418 0.0543
3 -6 2 8.0733 -0.3036
3 -6 3 -3.0353 -0.2616
3 -6 4 -10.0341 -0.0027
3 -6 5 -21.3706 -0.0098
3 -6 6 -22.1085 0.0012
3 -6 7 -2.8529 0.0354
3 -6 8 -14.0436 0.0220
3 -6 9 -3.6235 -0.0844
3 -6 10 1.6172 -0.1001
3 -6 11 -9.8638 0.0398
3 -6 12 -9.3896 0.1064
3 -6 13 1.0858 0.0233
3 -6 14 -10.6021 -0.0502
3 -6 15 2.6421 -0.0124
3 -6 16 0.5855 -0.0225
3 -6 17 -4.6629 -0.1278
3 -6 18 -0.3362 0.0174
3 -6 19 1.0622 0.2214
3 -6 20 0.7282 0.4586
3 -5 1 3.9164 -0.0506
3 -5 2 -25.2179 -0.1562
3 -5 3 -18.0428 -0.0302
3 -5 4 -4.0450 0.0424
3 -5 5 -12.8736 0.1643
3 -5 6 -21.3630 0.1812
3 -5 7 -4.2862 -0.0218
3 -5 8 0.2837 -0.1850
3 -5 9 -0.8679 -0.0921
3 -5 10 -5.8022 0.0306
3 -5 11 10.9648 0.0704
3 -5 12 -12.2253 0.0083
3 -5 13 2.2687 0.0464
3 -5 14 7.6595 0.0086
3 -5 15 2.4065 -0.0128
3 -5 16 -1.9478 -0.0923
3 -5 17 -0.4321 -0.0179
3 -5 18 -1.6803 -0.0041
3 -5 19 -1.8394 -0.1601
3 -4 0 5.8925 -1.4372
3 -4 1 -29.5548 -0.2717
3 -4 2 22.5076 0.1442
3 -4 3 0.5074 0.1528
3 -4 4 24.2129 0.0371
3 -4 5 0.4078 -0.0697
3 -4 6 -3.2284 -0.0732
3 -4 7 -2.6323 -0.0137
3 -4 8 8.2936 0.0878
3 -4 9 10.6785 0.0352
3 -4 10 7.0235 -0.0444
3 -4 11 -1.8362 0.0031
3 -4 12 2.3190 -0.0175
3 -4 13 -5.4271 -0.0312
3 -4 14 3.9903 -0.1152
3 -4 15 -1.1444 -0.0578
3 -4 16 0.1845 0.0964
3 -4 17 -2.2794 0.1600
3 -4 18 1.2116 0.0397
3 -4 19 -1.2852 -0.2422
3 -3 0 58.7058 0.2902
3 -3 1 -21.7448 0.1286
3 -3 2 -1.1996 0.2434
3 -3 3 46.6067 0.1991
3 -3 4 0.2156 0.0508
3 -3 5 -0.7917 -0.2004
3 -3 6 16.6307 -0.1864
3 -3 7 3.3863 -0.0190
3 -3 8 13.3546 0.0478
3 -3 9 10.6039 0.0690
3 -3 10 7.6574 0.0516
3 -3 11 -5.2480 0.0189
3 -3 12 -2.3734 -0.0488
3 -3 13 4.5254 -0.0471
3 -3 14 3.9022 0.0610
3 -3 15 3.3656 0.0515
3 -3 16 2.9113 -0.0182
3 -3 17 -3.2576 -0.0961
3 -3 18 -0.2361 -0.0614
3 -2 0 29.4453 -0.2821
3 -2 1 -9.8949 0.3270
3 -2 2 -7.6532 0.1172
3 -2 3 33.3862 -0.1747
3 -2 4 15.4332 -0.0717
3 -2 5 -19.9503 0.1045
3 -2 6 -0.9704 0.1381
3 -2 7 8.9522 -0.0208
3 -2 8 -2.8024 -0.0775
3 -2 9 11.6947 0.0057
3 -2 10 1.6745 -0.0292
3 -2 11 -1.3943 -0.0564
3 -2 12 -4.2979 -0.0617
3 -2 13 0.8106 0.0434
3 -2 14 1.2111 0.0808
3 -2 15 -2.1274 0.0322
3 -2 16 -6.1303 0.0155
3 -2 17 4.8948 -0.0834
3 -1 0 -57.9022 1.2555
3 -1 1 32.8361 -0.4052
3 -1 2 -18.5175 -0.5015
3 -1 3 -13.5729 -0.2060
3 -1 4 -15.8075 0.1023
3 -1 5 -33.4988 0.0462
3 -1 6 -26.6116 -0.0129
3 -1 7 -7.1129 0.0902
3 -1 8 -0.3746 0.0530
3 -1 9 -3.3267 -0.0827
3 -1 10 -9.8371 -0.0539
3 -1 11 -11.7414 0.0420
3 -1 12 -5.1514 0.0873
3 -1 13 -2.9262 0.0034
3 -1 14 1.6558 -0.0876
3 -1 15 4.3838 -0.0285
3 -1 16 0.0818 0.0578
3 -1 17 0.7534 -0.0049
3 0 0 4.0021 -0.2976
3 0 1 -65.8929 0.2803
3 0 2 25.7255 0.2405
3 0 3 9.0676 -0.0991
3 0 4 -17.8096 -0.1813
3 0 5 1.4908 0.0138
3 0 6 -2.1710 0.1099
3 0 7 -4.0594 -0.0001
3 0 8 5.3435 -0.1085
3 0 9 7.7995 0.0045
3 0 10 -2.3725 0.0757
3 0 11 -0.0534 0.0503
3 0 12 1.2686 0.0204
3 0 13 8.9696 0.0055
3 0 14 -1.8014 0.0068
3 0 15 1.9277 -0.1223
3 0 16 0.2889 0.0656
3 0 17 -0.5558 0.0506
3 1 0 15.0498 -0.2395
3 1 1 26.9910 -0.2211
3 1 2 16.2787 0.0983
3 1 3 31.3710 0.2341
3 1 4 16.4336 0.1708
3 1 5 -16.1112 -0.0129
3 1 6 20.7979 -0.1419
3 1 7 8.3142 -0.0619
3 1 8 17.3504 0.0407
3 1 9 8.2491 0.0226
3 1 10 1.8166 -0.0112
3 1 11 -2.8415 -0.0089
3 1 12 -0.7390 0.0038
3 1 13 -1.2174 -0.0725
3 1 14 4.7868 -0.0034
3 1 15 -2.5552 0.2197
3 1 16 0.4986 -0.2108
3 2 0 18.6438 -0.7715
3 2 1 -3.7226 -0.2260
3 2 2 4.6431 0.1167
3 2 3 -7.2735 0.1873
3 2 4 1.6859 0.0355
3 2 5 -4.0517 -0.0236
3 2 6 -3.0454 -0.0403
3 2 7 6.8639 0.0161
3 2 8 5.4251 0.0952
3 2 9 2.3560 0.1060
3 2 10 -6.6605 0.0302
3 2 11 1.2068 -0.1142
3 2 12 1.9347 -0.1184
3 2 13 5.8075 0.0350
3 2 14 0.1013 0.0534
3 2 15 0.8299 -0.1982
3 2 16 0.1701 0.3488
3 3 0 5.5455 0.4257
3 3 1 -6.3262 0.2819
3 3 2 2.5714 -0.0113
3 3 3 -1.6991 -0.2074
3 3 4 -14.3102 -0.1604
3 3 5 -11.8263 -0.0464
3 3 6 -6.4312 0.0934
3 3 7 -4.8964 0.0519
3 3 8 1.1553 0.0585
3 3 9 1.2137 -0.0185
3 3 10 -9.2734 -0.0293
3 3 11 -3.3027 0.0200
3 3 12 -0.6185 0.0513
3 3 13 -4.3785 -0.1036
3 3 14 0.4367 0.0318
3 3 15 -1.1818 0.2517
3 4 0 6.6763 1.9285
3 4 1 10.1224 0.0549
3 4 2 -4.5460 -0.3245
3 4 3 -0.1948 -0.1164
3 4 4 -2.5175 0.1040
3 4 5 -12.1674 0.1181
3 4 6 -5.0422 0.0341
3 4 7 4.4825 -0.0291
3 4 8 -3.1725 -0.1049
3 4 9 -0.6114 -0.1005
3 4 10 -7.0108 -0.0293
3 4 11 -3.3684 0.0141
3 4 12 -1.1742 0.0535
3 4 13 2.8464 0.0904
3 4 14 -1.0502 -0.0510
3 5 0 -9.7861 -1.2646
3 5 1 10.9608 -0.0212
3 5 2 4.0265 0.1242
3 5 3 5.9395 -0.0682
3 5 4 -4.9143 -0.0078
3 5 5 7.8816 0.0705
3 5 6 -8.9203 0.0309
3 5 7 13.3304 -0.0617
3 5 8 9.0665 -0.0343
3 5 9 -0.0361 0.0235
3 5 10 3.9457 0.0362
3 5 11 2.9363 -0.0259
3 5 12 2.1580 -0.0449
3 5 13 0.9013 0.0845
3 5 14 0.5660 0.2180
3 6 0 5.2054 -0.2503
3 6 1 4.1314 -0.3866
3 6 2 5.1397 0.0374
3 6 3 6.0298 0.3763
3 6 4 -5.8251 0.0626
3 6 5 0.1351 -0.2058
3 6 6 11.0135 -0.1690
3 6 7 -5.0299 0.0220
3 6 8 9.9751 0.1321
3 6 9 -2.1368 0.0193
3 6 10 -4.8551 -0.0652
3 6 11 0.5733 0.0607
3 6 12 -0.4924 0.0947
3 6 13 -0.2395 -0.0404
3 7 0 4.0725 -0.4093
3 7 1 5.9317 0.3071
3 7 2 -6.3528 0.2622
3 7 3 -0.8704 0.0007
3 7 4 0.0584 -0.0976
3 7 5 -13.8524 0.0314
3 7 6 3.7854 0.0387
3 7 7 -1.5492 -0.0521
3 7 8 -4.1452 -0.0891
3 7 9 -0.3635 0.0741
3 7 10 0.0211 0.1876
3 7 11 -3.4197 -0.0676
3 7 12 2.9523 -0.1208
3 8 0 3.8854 0.9365
3 8 1 1.5803 -0.0848
3 8 2 8.1521 -0.3764
3 8 3 -15.6184 -0.1606
3 8 4 6.6705 0.0846
3 8 5 -7.0259 0.0691
3 8 6 -1.2747 -0.0070
3 8 7 4.9361 0.0368
3 8 8 -1.2048 0.0525
3 8 9 -2.5349 -0.1371
3 8 10 -2.1457 -0.0150
3 8 11 -0.6552 0.2918
3 9 0 -3.2277 0.5850
3 9 1 0.8434 0.0105
3 9 2 -1.5035 -0.1217
3 9 3 5.7944 -0.1110
3 9 4 -7.5193 -0.0459
3 9 5 7.4741 0.0487
3 9 6 -3.2142 0.0801
3 9 7 1.5071 -0.0180
3 9 8 -0.3720 0.0287
3 9 9 -0.8619 0.1019
3 10 0 1.1699 -0.6064
3 10 1 -1.4946 0.1725
3 10 2 -0.8375 0.2615
3 10 3 1.8457 0.0852
3 10 4 -4.3201 -0.0489
3 10 5 -3.8680 -0.0515
3 10 6 3.3277 0.0272
3 10 7 3.6825 0.0940
3 10 8 0.2036 -0.0595
3 11 0 3.2889 -0.1665
3 11 1 -0.3954 -0.3274
3 11 2 -2.8553 0.0031
3 11 3 2.7744 0.2373
3 11 4 0.7735 0.2599
3 11 5 1.3414 0.0499
3 11 6 1.8230 -0.1794
3 11 7 1.4552 -0.0666
3 12 0 4.1652 -0.6431
3 12 1 4.3605 0.1536
3 12 2 2.3016 0.1862
3 12 3 -1.1755 -0.0676
3 12 4 -0.8856 -0.1945
3 12 5 -1.9677 0.0085
3 12 6 0.7534 0.1277
3 13 0 -2.9086 1.5580
3 13 1 0.2485 0.1123
3 13 2 -2.1384 -0.2251
3 13 3 -1.2238 0.0124
3 13 4 -1.0900 0.0852
3 13 5 -2.6748 -0.1116
3 14 0 -1.8757 -0.0932
3 14 1 1.4963 0.0646
3 14 2 2.1317 0.0177
3 14 3 -0.4144 -0.0767
3 15 0 2.0292 -0.5912
3 15 1 0.7201 -0.1029
3 15 2 1.1383 -0.0947
3 16 0 0.4160 -0.0668
4 -20 10 -0.6170 0.0416
4 -20 11 -1.0097 0.1462
4 -20 12 -1.4942 0.0871
4 -19 3 -0.6525 -0.1297
4 -19 4 1.8072 0.0257
4 -19 5 2.4545 0.0848
4 -19 6 -3.0900 0.0660
4 -19 7 -1.9301 -0.0729
4 -19 8 -5.9852 -0.0952
4 -19 9 -1.9359 -0.0026
4 -19 10 0.8406 0.0742
4 -19 11 -1.6425 0.1166
4 -19 12 3.0666 0.0984
4 -19 13 -1.6841 0.0927
4 -19 14 1.2232 -0.0596
4 -19 15 -2.3216 -0.0791
4 -18 1 -3.0244 0.0200
4 -18 2 -0.5514 0.0280
4 -18 3 -6.6946 0.0705
4 -18 4 -2.4457 0.0075
4 -18 5 3.5621 -0.1139
4 -18 6 6.1002 -0.0861
4 -18 7 -4.4312 -0.0094
4 -18 8 -0.8494 0.0451
4 -18 9 -2.2893 0.0161
4 -18 10 3.6717 0.0255
4 -18 11 0.4528 0.0702
4 -18 12 1.1020 0.0039
4 -18 13 3.0393 0.0189
4 -18 14 1.8398 0.0579
4 -18 15 3.6396 0.0295
4 -18 16 2.0958 -0.0903
4 -18 17 0.3924 -0.1531
4 -17 0 1.4412 -0.0081
4 -17 1 -3.5517 -0.0850
4 -17 2 1.0229 0.1585
4 -17 3 -0.6708 0.1996
4 -17 4 2.1767 0.0063
4 -17 5 6.6970 -0.1825
4 -17 6 5.6792 -0.1051
4 -17 7 0.6563 -0.0608
4 -17 8 -0.1753 0.0356
4 -17 9 0.2867 0.0526
4 -17 10 -1.0035 0.0188
4 -17 11 6.7099 -0.0137
4 -17 12 -0.5400 0.0018
4 -17 13 1.5637 0.0508
4 -17 14 -0.7222 0.0891
4 -17 15 -0.3222 -0.0591
4 -17 16 -1.3644 -0.1926
4 -17 17 -1.5645 -0.0296
4 -17 18 -0.3560 0.1656
4 -16 0 5.2205 -0.6676
4 -16 1 2.8512 0.1347
4 -16 2 -1.2539 0.1740
4 -16 3 2.0375 -0.1020
4 -16 4 0.7289 -0.0888
4 -16 5 0.7427 0.0232
4 -16 6 2.3066 0.0746
4 -16 7 -1.6397 -0.0665
4 -16 8 -7.4802 -0.0309
4 -16 9 2.2804 -0.0172
4 -16 10 -3.4618 -0.0005
4 -16 11 -1.9819 -0.0465
4 -16 12 -0.5665 -0.0314
4 -16 13 -6.0898 0.0251
4 -16 14 -0.5365 0.0533
4 -16 15 -2.1562 -0.1149
4 -16 16 -0.3089 -0.1370
4 -16 17 -0.3623 0.1144
4 -16 18 -2.6214 0.2082
4 -16 19 -2.6568 -0.2284
4 -15 0 -1.1341 1.1260
4 -15 1 1.5021 -0.2104
4 -15 2 -6.1782 -0.3941
4 -15 3 -1.8168 -0.1272
4 -15 4 -0.4337 0.0928
4 -15 5 0.6086 0.0080
4 -15 6 -6.2611 -0.0111
4 -15 7 -1.1410 0.0837
4 -15 8 -10.3347 0.0455
4 -15 9 -5.2610 -0.0299
4 -15 10 0.1236 -0.0936
4 -15 11 -4.3590 0.0253
4 -15 12 2.3670 0.0686
4 -15 13 -1.3865 0.0005
4 -15 14 -1.1724 -0.0260
4 -15 15 -0.6521 0.0030
4 -15 16 -3.0316 0.0312
4 -15 17 2.2232 -0.0648
4 -15 18 1.7514 0.0575
4 -15 19 3.3556 0.7631
4 -14 0 -3.5890 0.0414
4 -14 1 -1.4675 0.3631
4 -14 2 -5.1939 0.1531
4 -14 3 -1.7411 -0.1897
4 -14 4 0.6646 -0.1586
4 -14 5 0.6430 0.0379
4 -14 6 -0.5877 0.1305
4 -14 7 -4.3634 -0.0176
4 -14 8 2.3509 -0.1083
4 -14 9 -2.8233 -0.0058
4 -14 10 7.6153 0.0796
4 -14 11 2.6072 0.0157
4 -14 12 0.9028 -0.0113
4 -14 13 1.7803 -0.0210
4 -14 14 1.8114 0.0070
4 -14 15 3.2001 -0.0503
4 -14 16 6.0864 -0.0330
4 -14 17 4.8515 0.0805
4 -14 18 0.0146 0.2109
4 -14 19 3.4705 -0.0185
4 -14 20 -0.7768 -0.3525
4 -13 0 2.0665 -0.0842
4 -13 1 -3.6111 -0.2166
4 -13 2 -2.5123 0.0511
4 -13 3 -1.9102 0.2161
4 -13 4 10.3715 0.1393
4 -13 5 3.2278 -0.0151
4 -13 6 11.1279 -0.1233
4 -13 7 4.5261 -0.0444
4 -13 8 3.4225 0.0790
4 -13 9 7.5647 0.0181
4 -13 10 4.9281 -0.0303
4 -13 11 5.3142 -0.0299
4 -13 12 3.6604 0.0280
4 -13 13 4.0850 -0.0214
4 -13 14 3.1136 -0.0617
4 -13 15 0.3989 0.0621
4 -13 16 -5.2130 0.1718
4 -13 17 -3.2390 0.1466
4 -13 18 -5.4571 -0.1183
4 -13 19 -5.6070 -0.0891
4 -13 20 -0.3808 0.1066
4 -12 0 2.4899 -0.9101
4 -12 1 4.4246 -0.2001
4 -12 2 -0.9927 0.1193
4 -12 3 3.9699 0.1846
4 -12 4 8.7516 0.0527
4 -12 5 0.9232 -0.0492
4 -12 6 -1.7291 -0.0458
4 -12 7 -4.4494 0.0132
4 -12 8 -6.2830 0.0440
4 -12 9 -2.4043 0.0808
4 -12 10 3.5451 0.0451
4 -12 11 -4.7588 -0.0571
4 -12 12 0.2700 -0.0867
4 -12 13 -6.6844 0.0025
4 -12 14 1.4226 0.1086
4 -12 15 -4.5809 0.1020
4 -12 16 2.3919 -0.0139
4 -12 17 1.2478 0.0273
4 -12 18 1.5137 -0.0295
4 -12 19 -2.0333 -0.1303
4 -12 20 -0.2855 -0.2012
4 -11 0 8.6542 0.0657
4 -11 1 -6.1242 0.3316
4 -11 2 -2.8568 0.1020
4 -11 3 -5.7767 -0.1936
4 -11 4 4.5031 -0.2060
4 -11 5 -7.9099 -0.0427
4 -11 6 -3.1928 0.0567
4 -11 7 -8.2579 0.0209
4 -11 8 -7.8370 0.0031
4 -11 9 -4.1351 -0.0017
4 -11 10 -6.4259 -0.0252
4 -11 11 1.7309 -0.0130
4 -11 12 -7.5448 0.0110
4 -11 13 3.3913 0.0518
4 -11 14 -2.5412 0.0212
4 -11 15 1.8897 -0.0033
4 -11 16 -2.1134 0.0036
4 -11 17 4.2499 0.0151
4 -11 18 0.1597 -0.0913
4 -11 19 0.5451 -0.0461
4 -11 20 -0.7264 0.2303
4 -10 0 -12.6722 1.7660
4 -10 1 2.8476 0.0422
4 -10 2 -14.1616 -0.3816
4 -10 3 8.6178 -0.1501
4 -10 4 6.2704 0.1391
4 -10 5 1.5499 0.0853
4 -10 6 -2.8340 -0.0235
4 -10 7 1.6618 -0.0076
4 -10 8 -11.0596 -0.0427
4 -10 9 10.9379 -0.0985
4 -10 10 0.9450 -0.0275
4 -10 11 -0.6193 0.0781
4 -10 12 -0.2039 0.0824
4 -10 13 -3.6530 0.0169
4 -10 14 -0.5373 0.0110
4 -10 15 -6.5795 -0.0399
4 -10 16 2.8018 -0.0585
4 -10 17 0.7876 -0.0503
4 -10 18 3.1333 0.0343
4 -10 19 1.3045 0.1742
4 -10 20 1.6398 0.3875
4 -9 0 -0.7085 -0.8889
4 -9 1 -17.8428 -0.0142
4 -9 2 6.8712 0.1102
4 -9 3 -3.2166 -0.1317
4 -9 4 10.3567 -0.0386
4 -9 5 3.5595 0.0909
4 -9 6 -4.8231 0.1145
4 -9 7 17.6293 -0.0663
4 -9 8 0.9697 -0.0805
4 -9 9 9.3586 0.0061
4 -9 10 7.1916 0.0664
4 -9 11 3.7727 -0.0123
4 -9 12 -4.2975 0.0061
4 -9 13 11.9931 -0.0129
4 -9 14 3.0659 -0.0255
4 -9 15 -3.5207 -0.0548
4 -9 16 5.4860 -0.0664
4 -9 17 -3.2818 0.0415
4 -9 18 -0.1346 0.1268
4 -9 19 -2.2619 -0.1078
4 -9 20 -1.7125 -0.4170
4 -8 0 -9.2067 0.0057
4 -8 1 -5.5695 -0.3124
4 -8 2 -2.6763 0.0585
4 -8 3 18.0549 0.3153
4 -8 4 5.8924 0.0778
4 -8 5 11.4610 -0.2322
4 -8 6 7.7989 -0.1881
4 -8 7 -6.3896 0.0493
4 -8 8 16.4803 0.1764
4 -8 9 -5.3405 0.0322
4 -8 10 10.9796 -0.0173
4 -8 11 -0.8017 0.0167
4 -8 12 6.6898 0.0203
4 -8 13 -10.7364 -0.0579
4 -8 14 5.8866 -0.0531
4 -8 15 -16.8549 0.0702
4 -8 16 1.9677 0.1484
4 -8 17 -1.9449 0.0101
4 -8 18 -2.0009 -0.0346
4 -8 19 1.8467 -0.1026
4 -8 20 -0.1698 -0.0553
4 -7 0 17.8509 -0.8323
4 -7 1 -11.3249 0.2879
4 -7 2 17.5610 0.3862
4 -7 3 5.4742 0.0494
4 -7 4 1.3669 -0.1399
4 -7 5 -18.7848 -0.0081
4 -7 6 -0.5320 0.0984
4 -7 7 -18.9601 -0.0891
4 -7 8 -12.9624 -0.0584
4 -7 9 5.1473 0.0562
4 -7 10 -7.5201 0.1075
4 -7 11 0.8114 -0.0268
4 -7 12 2.3928 -0.1038
4 -7 13 -1.7268 -0.0013
4 -7 14 -3.4008 0.0763
4 -7 15 5.5762 0.0784
4 -7 16 -0.8415 -0.0244
4 -7 17 6.2413 0.0191
4 -7 18 3.5309 -0.0022
4 -7 19 -1.8765 0.0229
4 -7 20 -1.5368 0.0399
4 -6 0 -18.2485 0.7588
4 -6 1 -6.3362 -0.1420
4 -6 2 -9.5504 -0.4007
4 -6 3 -4.6235 -0.0942
4 -6 4 -6.9186 0.1840
4 -6 5 -4.8072 0.0766
4 -6 6 -6.3279 -0.0496
4 -6 7 -5.4637 0.0030
4 -6 8 -19.5249 0.0954
4 -6 9 -7.5170 -0.0501
4 -6 10 4.9511 -0.0940
4 -6 11 -5.7455 -0.0297
4 -6 12 2.3128 0.0630
4 -6 13 1.3239 0.0536
4 -6 14 -3.5855 0.0030
4 -6 15 2.1339 -0.0322
4 -6 16 3.2987 0.0030
4 -6 17 -3.3183 -0.0221
4 -6 18 -0.3809 -0.0342
4 -6 19 2.1821 0.0527
4 -5 0 -21.2121 0.8759
4 -5 1 5.0939 0.1437
4 -5 2 0.6537 -0.1487
4 -5 3 -0.5963 -0.2164
4 -5 4 16.1569 -0.0880
4 -5 5 13.5386 0.0501
4 -5 6 -1.9654 0.1335
4 -5 7 -1.4437 0.0518
4 -5 8 -7.6966 -0.0718
4 -5 9 1.8435 -0.0297
4 -5 10 -6.6837 0.0359
4 -5 11 14.1908 0.0686
4 -5 12 -7.4233 -0.0085
4 -5 13 2.7608 -0.0102
4 -5 14 2.3496 -0.0046
4 -5 15 2.5339 0.0171
4 -5 16 1.8144 -0.0618
4 -5 17 8.2089 -0.0848
4 -5 18 4.2181 0.2486
4 -5 19 0.6394 0.2842
4 -4 0 0.6278 -0.3254
4 -4 1 6.3655 0.2606
4 -4 2 5.3398 0.2333
4 -4 3 -23.4984 -0.0355
4 -4 4 17.1091 -0.0476
4 -4 5 23.0345 -0.0269
4 -4 6 -4.9813 0.0176
4 -4 7 7.0737 -0.0180
4 -4 8 -0.2665 -0.0524
4 -4 9 6.6930 -0.0529
4 -4 10 9.9324 -0.0320
4 -4 11 7.1851 0.0473
4 -4 12 3.7864 0.0813
4 -4 13 -4.4111 0.0354
4 -4 14 3.9482 -0.0960
4 -4 15 3.5563 -0.0757
4 -4 16 3.7576 0.1284
4 -4 17 -0.6336 0.1126
4 -4 18 1.6514 -0.3216
4 -3 0 24.2688 -0.4500
4 -3 1 -21.4042 -0.5493
4 -3 2 -4.4473 -0.0561
4 -3 3 0.3943 0.3472
4 -3 4 10.7496 0.2422
4 -3 5 8.1861 -0.0447
4 -3 6 2.6123 -0.1341
4 -3 7 -9.6988 -0.0064
4 -3 8 1.8715 0.0431
4 -3 9 -0.1800 0.0490
4 -3 10 7.5078 0.0259
4 -3 11 1.0625 -0.0319
4 -3 12 -5.3197 -0.1039
4 -3 13 -3.5720 -0.0506
4 -3 14 -5.7401 0.1225
4 -3 15 -4.7263 0.1393
4 -3 16 1.8428 -0.0348
4 -3 17 -4.2954 -0.1288
4 -3 18 1.9242 0.2670
4 -2 0 42.9632 -1.2050
4 -2 1 1.8258 0.0788
4 -2 2 -14.9736 0.3215
4 -2 3 2.6743 -0.0365
4 -2 4 11.2304 -0.1898
4 -2 5 -13.2153 -0.0681
4 -2 6 -12.2845 0.0346
4 -2 7 -9.7027 -0.0174
4 -2 8 -21.6616 0.0338
4 -2 9 -5.9717 0.0876
4 -2 10 -4.0591 0.0212
4 -2 11 -1.7839 -0.0359
4 -2 12 -6.7345 -0.0267
4 -2 13 -6.2113 -0.0076
4 -2 14 1.2729 -0.0225
4 -2 15 1.8031 -0.0609
4 -2 16 -0.1018 0.0175
4 -2 17 4.3105 0.0416
4 -1 0 -49.6300 2.0075
4 -1 1 17.6490 0.3255
4 -1 2 -20.6150 -0.2202
4 -1 3 -12.4330 -0.0978
4 -1 4 31.8250 0.0476
4 -1 5 -0.3963 0.0178
4 -1 6 -6.1072 -0.0436
4 -1 7 1.0560 0.0205
4 -1 8 -6.9351 0.0250
4 -1 9 2.9061 -0.0940
4 -1 10 6.4518 -0.0716
4 -1 11 3.5539 0.0562
4 -1 12 3.2885 0.0601
4 -1 13 -2.6547 0.0340
4 -1 14 -0.5583 0.0184
4 -1 15 1.8161 0.0098
4 -1 16 -0.9743 -0.1529
4 -1 17 -0.2050 -0.1801
4 0 0 -8.0200 0.0663
4 0 1 -16.0990 0.0997
4 0 2 8.2153 -0.0662
4 0 3 2.9538 -0.2513
4 0 4 -3.0480 -0.0403
4 0 5 22.1162 0.1792
4 0 6 -10.6419 0.1821
4 0 7 4.7931 -0.0318
4 0 8 2.8731 -0.1280
4 0 9 7.3709 -0.0514
4 0 10 7.3864 0.0378
4 0 11 2.3516 0.0254
4 0 12 -2.1549 0.0476
4 0 13 0.9661 0.0143
4 0 14 -2.9934 -0.0662
4 0 15 3.0568 -0.0837
4 0 16 1.2950 0.2428
4 1 0 -8.5567 -0.4984
4 1 1 5.1161 -0.3267
4 1 2 -12.5126 -0.0752
4 1 3 4.6322 0.1349
4 1 4 11.0274 0.0980
4 1 5 -8.4983 -0.0903
4 1 6 10.0769 -0.0813
4 1 7 -8.2796 0.0066
4 1 8 -0.1101 0.0473
4 1 9 -0.4919 0.0322
4 1 10 3.5635 0.0211
4 1 11 0.9639 -0.0077
4 1 12 0.8694 0.0177
4 1 13 -0.6610 -0.0347
4 1 14 1.2222 0.0040
4 1 15 -1.4231 0.0585
4 1 16 -0.1897 -0.6847
4 2 0 4.0756 -0.5357
4 2 1 12.1427 0.0302
4 2 2 1.1082 0.3189
4 2 3 -0.8941 0.2227
4 2 4 9.7065 -0.0381
4 2 5 -4.0231 -0.1308
4 2 6 -8.4508 -0.1021
4 2 7 -7.5300 -0.0465
4 2 8 -5.1583 0.0276
4 2 9 -0.1099 0.0379
4 2 10 -2.5991 0.0346
4 2 11 -2.1201 -0.0545
4 2 12 -6.5627 -0.0427
4 2 13 -2.9683 0.0369
4 2 14 -4.0936 -0.0550
4 2 15 -1.3659 -0.0847
4 3 0 11.3103 -0.2501
4 3 1 -3.8552 0.1306
4 3 2 2.6726 0.0649
4 3 3 -5.3940 -0.0940
4 3 4 5.9363 -0.0121
4 3 5 -0.6243 -0.0265
4 3 6 1.2568 0.0340
4 3 7 -7.7850 -0.0183
4 3 8 -1.3519 -0.0044
4 3 9 5.2047 -0.0161
4 3 10 -1.2334 0.0018
4 3 11 -0.3630 -0.0109
4 3 12 0.7621 -0.0348
4 3 13 -2.2740 -0.0503
4 3 14 2.6561 0.0762
4 3 15 -1.0747 -0.0048
4 4 0 -11.0492 1.2921
4 4 1 -8.6133 -0.2461
4 4 2 -9.9752 -0.4428
4 4 3 -2.5668 -0.1560
4 4 4 11.0382 0.0504
4 4 5 -0.9942 0.0706
4 4 6 3.4219 0.0195
4 4 7 2.4838 0.0238
4 4 8 -1.6397 0.0119
4 4 9 8.8617 0.0001
4 4 10 3.8765 -0.0429
4 4 11 1.2663 -0.0354
4 4 12 1.5499 -0.0506
4 4 13 1.0507 -0.0529
4 4 14 -0.0507 -0.2597
4 5 0 -8.6991 -0.2749
4 5 1 0.4724 0.3780
4 5 2 -2.2766 0.2045
4 5 3 1.1175 -0.2548
4 5 4 0.6553 -0.1214
4 5 5 9.8247 0.0747
4 5 6 -11.1374 0.0960
4 5 7 7.0157 -0.0446
4 5 8 -3.4483 -0.0961
4 5 9 1.1453 -0.0207
4 5 10 3.5936 0.0261
4 5 11 -1.6353 -0.0267
4 5 12 -0.9575 -0.0299
4 5 13 0.9671 0.1608
4 6 0 0.8722 0.0677
4 6 1 0.2900 -0.2740
4 6 2 1.5047 -0.0508
4 6 3 8.4705 0.3259
4 6 4 -3.7358 0.1445
4 6 5 2.5448 -0.1095
4 6 6 -1.3866 -0.1366
4 6 7 -7.8172 -0.0071
4 6 8 5.0020 0.1183
4 6 9 0.3900 -0.0390
4 6 10 -2.3427 -0.1117
4 6 11 3.5263 0.0836
4 6 12 -1.9978 0.0256
4 7 0 -0.0905 -1.2673
4 7 1 5.8209 -0.3020
4 7 2 -2.7555 0.2357
4 7 3 8.8879 0.1031
4 7 4 1.5080 -0.0468
4 7 5 -5.2770 -0.0426
4 7 6 6.0142 0.0133
4 7 7 -3.7849 -0.0992
4 7 8 0.1667 -0.0364
4 7 9 2.0825 0.2106
4 7 10 1.5115 0.0951
4 7 11 -4.3050 -0.2611
4 8 0 -3.3402 0.6247
4 8 1 -10.0799 0.2461
4 8 2 3.1197 -0.0354
4 8 3 -11.0458 -0.0658
4 8 4 11.8713 0.0006
4 8 5 -7.1497 -0.0993
4 8 6 -1.0219 -0.0918
4 8 7 -0.2957 0.0416
4 8 8 -1.2237 0.0285
4 8 9 -0.8759 -0.1095
4 8 10 0.9461 -0.0413
4 9 0 -5.7220 1.1802
4 9 1 -0.3261 0.1928
4 9 2 -0.5261 -0.1651
4 9 3 1.6348 -0.2209
4 9 4 -2.5068 -0.0070
4 9 5 5.2379 0.1574
4 9 6 -4.3169 0.0974
4 9 7 1.2324 -0.1731
4 9 8 4.1306 -0.1169
4 9 9 1.6542 0.2482
4 10 0 1.9982 -0.7500
4 10 1 1.1089 -0.1130
4 10 2 1.9198 0.0134
4 10 3 2.9563 -0.0384
4 10 4 2.2986 -0.0183
4 10 5 1.7497 -0.0368
4 10 6 0.5099 0.0568
4 10 7 1.5894 0.2048
4 10 8 -3.2408 -0.0311
4 11 0 2.4408 -0.3352
4 11 1 0.0845 -0.3263
4 11 2 1.8352 0.0027
4 11 3 2.3147 0.2344
4 11 4 -0.1969 0.1340
4 11 5 -0.4617 -0.0693
4 11 6 -3.0448 -0.2062
4 11 7 0.6026 0.0782
4 12 0 -2.0987 -0.7640
4 12 1 -3.4561 0.2783
4 12 2 -1.5271 0.3242
4 12 3 -1.3081 -0.1260
4 12 4 -0.4242 -0.1126
4 12 5 0.5044 0.2033
4 12 6 0.4619 0.0507
4 13 0 -6.0559 1.0380
4 13 1 1.0205 -0.2185
4 13 2 -1.5696 -0.2284
4 13 3 1.4658 0.0604
4 13 4 0.5166 0.0090
4 14 0 -2.4844 0.1609
4 14 1 0.1735 0.0493
4 14 2 1.4151 0.0718
4 14 3 -0.4796 -0.2631
4 15 0 1.2618 0.0565
4 15 1 0.2370 0.0701
5 -20 9 -4.2673 -0.0146
5 -20 10 -2.8520 0.0283
5 -20 11 -0.0313 0.0558
5 -20 12 -0.0356 0.0441
5 -20 13 1.7629 0.0311
5 -19 4 -1.9895 -0.1121
5 -19 5 -4.0521 0.1567
5 -19 6 -3.4388 0.0666
5 -19 7 8.7907 -0.0906
5 -19 8 -1.3380 -0.1138
5 -19 9 -1.1958 -0.0394
5 -19 10 -0.3047 0.0241
5 -19 11 -2.5624 0.0420
5 -19 12 2.4969 0.1236
5 -19 13 0.1306 0.0721
5 -19 14 2.1457 -0.0335
5 -19 15 0.2473 -0.1177
5 -19 16 2.4670 -0.0637
5 -18 1 0.4110 0.1770
5 -18 2 3.1057 -0.0734
5 -18 3 -0.3044 -0.0543
5 -18 4 0.1478 -0.0185
5 -18 5 1.1323 0.0562
5 -18 6 5.9522 -0.0440
5 -18 7 7.9868 -0.0268
5 -18 8 6.8307 -0.1002
5 -18 9 -2.5631 -0.1039
5 -18 10 3.7175 0.0167
5 -18 11 1.1297 0.0898
5 -18 12 1.1117 0.1122
5 -18 13 1.3053 -0.0232
5 -18 14 -0.6639 -0.0075
5 -18 15 1.7199 0.2205
5 -18 16 -0.2063 -0.0563
5 -18 17 0.3920 -0.5457
5 -17 0 2.9309 -0.2689
5 -17 1 1.7669 -0.3643
5 -17 2 7.5635 -0.0593
5 -17 3 1.6993 0.2401
5 -17 4 -1.0438 0.0163
5 -17 5 1.0374 -0.0671
5 -17 6 1.5453 -0.1118
5 -17 7 2.4444 -0.0364
5 -17 8 2.2140 0.0128
5 -17 9 -2.4504 0.0721
5 -17 10 -1.3516 0.0312
5 -17 11 -0.7914 -0.0658
5 -17 12 -2.4328 -0.0619
5 -17 13 -0.2689 -0.0037
5 -17 14 -0.7133 0.1185
5 -17 15 0.8230 0.0663
5 -17 16 0.9076 -0.1051
5 -17 17 -1.1685 -0.1421
5 -17 18 -2.4190 0.0681
5 -16 0 2.4173 -1.0475
5 -16 1 -0.2216 0.0841
5 -16 2 1.3064 0.3187
5 -16 3 -1.6539 0.0724
5 -16 4 -4.9556 -0.1364
5 -16 5 -4.9982 -0.0817
5 -16 6 1.0595 -0.0222
5 -16 7 1.5687 -0.0134
5 -16 8 -3.1660 0.0573
5 -16 9 -1.6881 0.0709
5 -16 10 -7.2167 0.0369
5 -16 11 -0.3160 -0.0637
5 -16 12 -1.6569 -0.0352
5 -16 13 -0.9894 0.0279
5 -16 14 0.6494 0.0111
5 -16 15 -2.1777 -0.1074
5 -16 16 -1.5877 -0.0508
5 -16 17 0.1602 0.0613
5 -16 18 2.4545 0.0483
5 -16 19 1.4278 -0.0426
5 -15 0 -4.5731 1.2778
5 -15 1 0.0205 0.2873
5 -15 2 -3.4377 -0.2395
5 -15 3 -3.3601 -0.0353
5 -15 4 -4.1979 0.0617
5 -15 5 2.4265 0.0218
5 -15 6 -1.0669 -0.0477
5 -15 7 3.3789 0.0580
5 -15 8 -1.8341 0.0443
5 -15 9 -0.1676 -0.0793
5 -15 10 -2.8233 -0.0566
5 -15 11 -4.3568 0.0958
5 -15 12 2.0291 0.1199
5 -15 13 -3.0176 0.0413
5 -15 14 0.8777 -0.0517
5 -15 15 3.8996 -0.1324
5 -15 16 1.9595 0.0005
5 -15 17 2.0951 -0.0512
5 -15 18 -0.3410 -0.1297
5 -15 19 -1.2939 0.2877
5 -14 0 -1.8311 0.1207
5 -14 1 2.9840 0.1673
5 -14 2 -0.1876 -0.1059
5 -14 3 -0.5485 -0.2633
5 -14 4 -3.7652 -0.0301
5 -14 5 5.2633 0.2034
5 -14 6 3.2495 0.1990
5 -14 7 4.8199 -0.0338
5 -14 8 7.4304 -0.1247
5 -14 9 0.7818 -0.0045
5 -14 10 2.8987 0.0717
5 -14 11 3.3805 -0.0164
5 -14 12 2.5450 -0.0577
5 -14 13 4.7573 -0.0019
5 -14 14 0.2285 0.0346
5 -14 15 1.1906 -0.0762
5 -14 16 -2.6411 -0.0140
5 -14 17 -3.0782 0.0192
5 -14 18 -3.7991 0.1051
5 -14 19 1.2818 0.0820
5 -13 0 5.7198 -0.1916
5 -13 1 6.2633 -0.1581
5 -13 2 4.5789 -0.0799
5 -13 3 -2.1521 0.1146
5 -13 4 3.4807 0.0899
5 -13 5 2.0536 -0.0708
5 -13 6 2.4444 -0.1147
5 -13 7 0.0575 0.0001
5 -13 8 -1.7489 0.0887
5 -13 9 -0.8119 0.0027
5 -13 10 -1.6476 -0.1035
5 -13 11 -1.5527 -0.0542
5 -13 12 -2.1140 0.0048
5 -13 13 -0.5235 -0.0209
5 -13 14 -1.5634 -0.0358
5 -13 15 2.8199 -0.0538
5 -13 16 1.1479 0.0252
5 -13 17 4.4477 0.1666
5 -13 18 1.2832 0.0018
5 -13 19 1.9634 -0.2442
5 -13 20 1.3936 -0.2830
5 -12 0 -0.3905 -0.3777
5 -12 1 8.6201 -0.0017
5 -12 2 0.2980 0.2626
5 -12 3 -4.5895 0.2098
5 -12 4 -0.7467 -0.0495
5 -12 5 4.4798 -0.1249
5 -12 6 -0.9362 -0.0437
5 -12 7 0.3022 -0.0148
5 -12 8 1.0778 0.0238
5 -12 9 -7.4625 0.0746
5 -12 10 -0.2310 0.0802
5 -12 11 -2.5905 -0.0086
5 -12 12 2.8675 -0.0235
5 -12 13 -5.6081 -0.0245
5 -12 14 6.8311 -0.0030
5 -12 15 -3.0071 0.0352
5 -12 16 -5.6567 0.0113
5 -12 17 -2.6555 0.0468
5 -12 18 1.1887 -0.0510
5 -12 19 -1.4485 -0.0240
5 -11 0 5.4540 -0.6469
5 -11 1 -6.3395 0.1246
5 -11 2 2.2214 0.1364
5 -11 3 -11.7558 -0.0176
5 -11 4 1.1231 -0.0864
5 -11 5 -0.4462 -0.0051
5 -11 6 5.6101 0.0349
5 -11 7 -5.0364 0.0149
5 -11 8 4.6626 -0.0084
5 -11 9 -4.6403 0.0016
5 -11 10 -4.2019 0.0146
5 -11 11 1.9329 -0.0140
5 -11 12 -5.0773 -0.0566
5 -11 13 -2.2317 -0.0344
5 -11 14 -3.4034 0.0581
5 -11 15 6.1632 0.1127
5 -11 16 -6.4911 -0.0201
5 -11 17 2.3592 -0.0446
5 -11 18 0.6157 0.0169
5 -11 19 3.6756 -0.0183
5 -10 0 -10.2488 1.1729
5 -10 1 4.9757 -0.2223
5 -10 2 -16.3221 -0.4440
5 -10 3 -4.9168 -0.0908
5 -10 4 -6.8071 0.0384
5 -10 5 -3.3082 0.0509
5 -10 6 -1.4717 -0.0201
5 -10 7 0.0256 0.0205
5 -10 8 -5.4928 0.0363
5 -10 9 4.1708 -0.0332
5 -10 10 -2.8300 -0.0871
5 -10 11 0.6430 -0.0423
5 -10 12 4.7529 0.0624
5 -10 13 3.7629 0.0500
5 -10 14 10.8059 -0.0419
5 -10 15 4.3910 -0.0301
5 -10 16 -4.3619 0.0174
5 -10 17 -1.0300 -0.0243
5 -10 18 0.1198 -0.1003
5 -10 19 -0.6096 0.1596
5 -10 20 0.3837 0.1855
5 -9 0 10.1949 0.0415
5 -9 1 -1.7347 0.5774
5 -9 2 8.6499 0.2189
5 -9 3 -10.4571 -0.2599
5 -9 4 6.3590 -0.1195
5 -9 5 5.7766 0.0729
5 -9 6 -7.8810 0.1022
5 -9 7 12.4582 -0.0451
5 -9 8 -5.1249 -0.1369
5 -9 9 11.1919 -0.0501
5 -9 10 4.9508 0.0620
5 -9 11 9.3994 0.0645
5 -9 12 -4.8221 0.0390
5 -9 13 3.4370 0.0208
5 -9 14 -2.1309 -0.0026
5 -9 15 -2.7759 -0.1080
5 -9 16 -4.6529 -0.0871
5 -9 17 -4.3455 0.0503
5 -9 18 3.5010 0.1525
5 -9 19 1.5820 -0.3308
5 -8 0 4.5596 0.2320
5 -8 1 17.1551 -0.2549
5 -8 2 3.7033 -0.1533
5 -8 3 12.1639 0.2408
5 -8 4 -2.2217 0.2019
5 -8 5 11.7152 -0.0626
5 -8 6 -9.0889 -0.1401
5 -8 7 -4.4150 0.0200
5 -8 8 7.1225 0.0412
5 -8 9 -11.5309 0.0048
5 -8 10 3.3731 -0.0264
5 -8 11 -5.6560 0.0226
5 -8 12 4.5067 0.0698
5 -8 13 -5.3884 -0.0330
5 -8 14 14.8871 -0.0878
5 -8 15 -2.3784 0.0676
5 -8 16 5.5661 0.1210
5 -8 17 -0.1558 -0.0120
5 -8 18 -1.0382 -0.1326
5 -8 19 0.7035 -0.2037
5 -7 0 19.1426 -1.6466
5 -7 1 -15.3119 -0.4019
5 -7 2 2.3774 0.2511
5 -7 3 -2.4903 0.0791
5 -7 4 -2.0055 -0.0915
5 -7 5 -10.7576 -0.0951
5 -7 6 4.0594 0.0237
5 -7 7 -8.9655 -0.0290
5 -7 8 -3.6228 -0.0097
5 -7 9 -5.7071 0.1092
5 -7 10 -11.1332 0.1124
5 -7 11 -6.5627 -0.0841
5 -7 12 0.5243 -0.1805
5 -7 13 -3.6028 -0.0350
5 -7 14 -2.9823 0.1049
5 -7 15 1.4287 0.0442
5 -7 16 -8.6321 -0.0500
5 -7 17 -3.8241 0.0172
5 -7 18 -0.0567 0.1800
5 -7 19 0.8267 -0.0107
5 -6 0 -12.5921 0.4485
5 -6 1 -12.5475 0.3363
5 -6 2 -9.9348 0.0202
5 -6 3 0.8617 0.0417
5 -6 4 -9.7088 -0.0107
5 -6 5 -5.3781 -0.0608
5 -6 6 7.3594 -0.0784
5 -6 7 12.1810 0.0515
5 -6 8 1.4257 0.1276
5 -6 9 -8.6858 -0.0195
5 -6 10 5.0457 -0.0960
5 -6 11 -11.7751 -0.0182
5 -6 12 4.6359 0.0772
5 -6 13 -0.9957 0.0247
5 -6 14 -2.1236 -0.0678
5 -6 15 -2.3577 -0.0107
5 -6 16 3.1965 0.0374
5 -6 17 0.3782 -0.0272
5 -6 18 2.0247 -0.1562
5 -6 19 3.6564 0.2786
5 -5 0 -1.4170 1.3454
5 -5 1 -4.5335 0.2321
5 -5 2 0.3495 -0.2181
5 -5 3 -6.4663 -0.2366
5 -5 4 -4.7731 -0.0300
5 -5 5 -0.7871 0.1831
5 -5 6 12.6258 0.1691
5 -5 7 8.0935 -0.0150
5 -5 8 6.6591 -0.1420
5 -5 9 9.5272 -0.1136
5 -5 10 -0.5764 0.0064
5 -5 11 16.6237 0.0376
5 -5 12 -2.8102 -0.0334
5 -5 13 0.3412 0.0364
5 -5 14 0.2534 0.0843
5 -5 15 -1.2892 -0.0221
5 -5 16 -5.5436 -0.1315
5 -5 17 -0.8913 -0.1129
5 -5 18 -3.0025 0.1378
5 -4 0 3.1863 -0.6978
5 -4 1 26.0529 -0.1610
5 -4 2 19.5246 -0.0340
5 -4 3 8.5804 -0.1037
5 -4 4 -2.8994 0.0310
5 -4 5 21.2391 0.0856
5 -4 6 -1.4228 0.0409
5 -4 7 17.1855 0.0097
5 -4 8 4.3933 0.0027
5 -4 9 4.2867 -0.0392
5 -4 10 -0.6471 -0.0632
5 -4 11 -3.6671 0.0424
5 -4 12 2.7146 0.0833
5 -4 13 -6.6365 -0.0226
5 -4 14 -2.6288 -0.0784
5 -4 15 -5.5386 -0.0366
5 -4 16 -4.8075 0.1205
5 -4 17 -0.4700 0.1580
5 -4 18 0.5051 -0.3706
5 -3 0 22.2130 -0.0426
5 -3 1 3.8314 -0.2202
5 -3 2 19.2461 -0.0028
5 -3 3 -12.2816 0.2721
5 -3 4 -10.1234 0.0598
5 -3 5 1.0675 -0.1634
5 -3 6 -0.5041 -0.1225
5 -3 7 -11.3710 0.0171
5 -3 8 -1.7513 0.0596
5 -3 9 -16.7583 0.0513
5 -3 10 -6.8755 0.0614
5 -3 11 -0.7751 0.0184
5 -3 12 -1.6520 -0.0610
5 -3 13 1.4938 -0.0592
5 -3 14 -1.8343 -0.0467
5 -3 15 -0.9046 -0.0233
5 -3 16 4.2874 0.0533
5 -3 17 -2.1439 0.0312
5 -3 18 2.1763 -0.0379
5 -2 0 3.5584 -0.9394
5 -2 1 -30.4753 0.2061
5 -2 2 -12.6613 0.4290
5 -2 3 -8.8659 0.0834
5 -2 4 -16.5298 -0.0714
5 -2 5 -0.5747 -0.0184
5 -2 6 -2.0033 -0.0070
5 -2 7 3.6169 -0.0670
5 -2 8 0.6776 -0.0243
5 -2 9 3.2059 0.0533
5 -2 10 -2.3916 0.0688
5 -2 11 4.1950 -0.0330
5 -2 12 3.6572 -0.0423
5 -2 13 -1.3279 -0.0185
5 -2 14 0.8258 0.0729
5 -2 15 -4.2817 0.0794
5 -2 16 -1.7453 -0.0228
5 -2 17 2.9636 -0.0508
5 -1 0 -15.6691 0.6685
5 -1 1 -1.4168 -0.2244
5 -1 2 4.7082 -0.4004
5 -1 3 -16.3320 0.0242
5 -1 4 13.1312 0.1247
5 -1 5 -4.8415 0.0451
5 -1 6 6.5285 0.0015
5 -1 7 9.2907 0.0624
5 -1 8 1.9113 0.0840
5 -1 9 5.6674 -0.0162
5 -1 10 0.2123 -0.1306
5 -1 11 0.7860 -0.0713
5 -1 12 5.9262 -0.0193
5 -1 13 -1.1802 -0.0055
5 -1 14 0.2577 0.0373
5 -1 15 1.4377 0.1255
5 -1 16 0.0713 0.0609
5 -1 17 0.5452 0.0234
5 0 0 3.3821 0.3184
5 0 1 -6.7861 0.3001
5 0 2 12.7845 0.0385
5 0 3 -0.8224 -0.3003
5 0 4 -14.4736 -0.1752
5 0 5 22.2661 0.0735
5 0 6 -13.4958 0.1493
5 0 7 10.0725 -0.0013
5 0 8 -0.5048 -0.1036
5 0 9 -2.3556 -0.0749
5 0 10 1.3374 0.0215
5 0 11 -1.2585 0.0348
5 0 12 3.3921 0.0790
5 0 13 2.8130 0.0904
5 0 14 -1.9550 -0.0741
5 0 15 -1.5634 -0.1237
5 0 16 -0.6184 0.0009
5 1 0 -0.1298 0.4294
5 1 1 5.6949 0.2423
5 1 2 10.0825 -0.0468
5 1 3 1.9990 0.0284
5 1 4 -0.7656 0.1070
5 1 5 -0.0586 0.0226
5 1 6 6.3335 -0.0332
5 1 7 -1.9430 -0.0343
5 1 8 1.0764 -0.0282
5 1 9 -4.1649 -0.0096
5 1 10 -2.2198 0.0240
5 1 11 -1.3792 0.0760
5 1 12 -1.3160 0.0847
5 1 13 -1.8660 -0.0226
5 1 14 -1.0031 0.0136
5 1 15 0.5347 0.0933
5 1 16 -1.6623 -0.3308
5 2 0 -8.0258 -0.9102
5 2 1 9.9294 -0.5483
5 2 2 1.8675 0.0391
5 2 3 1.9196 0.1995
5 2 4 -5.9152 0.0445
5 2 5 1.5209 -0.0954
5 2 6 0.1887 -0.0672
5 2 7 3.1170 -0.0311
5 2 8 -0.4734 0.0572
5 2 9 -2.5180 0.0814
5 2 10 -1.8907 0.0776
5 2 11 1.8658 -0.0998
5 2 12 1.0435 -0.0859
5 2 13 4.1328 0.0840
5 2 14 -0.5229 0.0344
5 2 15 1.4926 -0.1165
5 3 0 -11.7321 -0.9243
5 3 1 -15.1218 -0.0018
5 3 2 -0.7302 0.2396
5 3 3 -16.6358 0.0416
5 3 4 -5.0852 -0.0152
5 3 5 -5.0545 -0.1165
5 3 6 3.2054 -0.1332
5 3 7 -0.9914 -0.0068
5 3 8 1.5436 0.1260
5 3 9 0.3620 0.0476
5 3 10 -0.6264 0.0142
5 3 11 2.6898 0.0066
5 3 12 1.4973 -0.0845
5 3 13 -2.2194 -0.1123
5 3 14 2.1200 0.1129
5 4 0 10.7384 1.7773
5 4 1 6.9194 0.2621
5 4 2 2.3690 -0.1656
5 4 3 -7.6346 -0.0765
5 4 4 2.5609 -0.0303
5 4 5 -6.9149 0.0256
5 4 6 6.3011 0.0988
5 4 7 0.1332 0.0371
5 4 8 -2.3776 -0.0554
5 4 9 0.8274 -0.0759
5 4 10 0.6879 0.0018
5 4 11 0.1571 0.0547
5 4 12 1.5919 0.0480
5 4 13 -1.0959 0.0897
5 5 0 10.6666 0.0102
5 5 1 11.4834 0.1470
5 5 2 6.0516 -0.0766
5 5 3 -1.2392 -0.2679
5 5 4 2.0041 0.0076
5 5 5 6.2534 0.3095
5 5 6 -7.2857 0.1830
5 5 7 9.8538 -0.0789
5 5 8 -4.4728 -0.1164
5 5 9 -1.4427 -0.0651
5 5 10 3.1729 -0.0450
5 5 11 -2.4272 -0.0383
5 5 12 0.4431 -0.0769
5 5 13 -0.8384 0.0102
5 6 0 1.2562 -0.0598
5 6 1 4.4299 -0.3176
5 6 2 0.7459 -0.1802
5 6 3 1.6283 0.2505
5 6 4 -5.3000 0.0609
5 6 5 6.1804 -0.1752
5 6 6 -1.8276 -0.0919
5 6 7 -1.7841 0.0814
5 6 8 -0.2578 0.1135
5 6 9 -2.6238 -0.0571
5 6 10 -4.0810 -0.0181
5 6 11 2.7634 -0.0020
5 6 12 -3.7055 -0.2520
5 7 0 -9.6754 -0.7932
5 7 1 -2.1746 0.0723
5 7 2 -14.9576 0.4161
5 7 3 0.9309 0.1322
5 7 4 -5.3148 -0.0944
5 7 5 -3.6219 -0.1255
5 7 6 1.9448 -0.0981
5 7 7 -4.8674 -0.1324
5 7 8 -2.1019 0.0479
5 7 9 -1.4006 0.0779
5 7 10 -0.3553 -0.0331
5 7 11 -2.5706 -0.1738
5 8 0 2.6693 0.0273
5 8 1 -3.9322 -0.0373
5 8 2 3.7997 -0.0843
5 8 3 -8.4213 0.0895
5 8 4 7.4599 0.0977
5 8 5 -4.8202 -0.0450
5 8 6 5.7656 0.0153
5 8 7 1.9754 0.0100
5 8 8 0.9287 -0.1196
5 8 9 1.4343 -0.0819
5 8 10 2.6968 0.5923
5 9 0 6.5939 0.7075
5 9 1 2.4499 -0.1006
5 9 2 -0.3863 -0.2777
5 9 3 -0.7874 -0.2388
5 9 4 -0.2532 0.0159
5 9 5 3.5705 0.1033
5 9 6 0.3981 0.0064
5 9 7 -1.8717 -0.0322
5 9 8 1.6025 0.1421
5 9 9 -2.8466 0.0506
5 10 0 0.1097 0.1534
5 10 1 0.5571 0.3472
5 10 2 1.2524 0.1643
5 10 3 -1.0968 -0.1474
5 10 4 -1.7269 -0.1233
5 10 5 -1.1283 0.0013
5 10 6 0.1122 0.1444
5 10 7 -0.1458 -0.0545
5 10 8 -0.3304 -0.4586
5 11 0 1.0681 0.0739
5 11 1 -4.4351 -0.2607
5 11 2 -0.6366 -0.0998
5 11 3 -1.6525 0.2059
5 11 4 -1.6759 0.1539
5 11 5 1.3138 -0.1219
5 11 6 0.2130 -0.2254
5 12 0 4.5287 -1.4564
5 12 1 -5.2120 -0.1617
5 12 2 -0.4014 0.2467
5 12 3 -0.6687 0.0146
5 12 4 -1.3013 -0.0712
5 12 5 -0.2009 0.1431
5 13 0 -0.8055 0.7272
5 13 1 2.1744 0.0338
5 13 2 -1.5592 -0.1265
5 13 3 0.7845 -0.0190
5 14 0 -0.4695 0.6713
5 14 1 -0.2331 0.1138
5 14 2 1.0339 0.0610
5 15 0 -0.5384 -0.2025
6 -20 9 2.5792 0.0052
6 -20 10 -0.7538 0.0091
6 -20 11 0.4103 0.0942
6 -20 12 -0.8235 -0.0082
6 -20 13 2.6966 0.0190
6 -20 14 -2.2761 -0.0482
6 -19 3 1.9263 -0.0807
6 -19 4 5.0975 -0.0832
6 -19 5 2.0979 0.1274
6 -19 6 -2.4491 0.1856
6 -19 7 4.9487 -0.0751
6 -19 8 1.1711 -0.1542
6 -19 9 2.9528 -0.0685
6 -19 10 1.9883 -0.0163
6 -19 11 1.5332 0.0397
6 -19 12 3.1634 0.0249
6 -19 13 2.6431 0.1176
6 -19 14 2.7277 0.0673
6 -19 15 0.0142 -0.0189
6 -19 16 2.0166 0.4694
6 -18 0 0.0874 -0.0809
6 -18 1 -0.2805 -0.0105
6 -18 2 1.0365 -0.0616
6 -18 3 -0.2272 -0.0838
6 -18 4 3.4076 0.0335
6 -18 5 0.8441 0.0406
6 -18 6 -4.2131 0.0335
6 -18 7 -2.7175 -0.0081
6 -18 8 5.2041 -0.0556
6 -18 9 0.3955 -0.1432
6 -18 10 1.3945 -0.0911
6 -18 11 1.0596 0.0196
6 -18 12 -2.9007 0.0755
6 -18 13 -0.8292 0.0890
6 -18 14 -3.8796 0.0363
6 -18 15 -0.1322 0.0154
6 -18 16 -2.3513 0.0310
6 -18 17 -2.3941 -0.2261
6 -17 0 -0.4677 0.2577
6 -17 1 -3.2213 -0.1776
6 -17 2 -0.0638 -0.0176
6 -17 3 -1.0269 0.2240
6 -17 4 -3.9235 0.0011
6 -17 5 -0.0520 -0.1374
6 -17 6 -3.5885 -0.0857
6 -17 7 -2.7950 -0.0211
6 -17 8 -0.7732 0.0163
6 -17 9 -5.1305 0.0408
6 -17 10 -2.2678 0.0140
6 -17 11 -4.5775 -0.0290
6 -17 12 -2.8328 -0.0648
6 -17 13 -3.4615 -0.0097
6 -17 14 -2.3778 0.1122
6 -17 15 -2.2346 -0.0129
6 -17 16 -0.9312 -0.1320
6 -17 17 -0.7759 -0.1099
6 -17 18 0.7322 0.0347
6 -16 0 -0.5618 -0.9689
6 -16 1 -7.5692 0.0866
6 -16 2 -1.6583 0.4212
6 -16 3 -1.8985 0.1287
6 -16 4 -0.8887 -0.0282
6 -16 5 -4.7410 -0.0253
6 -16 6 -2.4811 -0.0660
6 -16 7 -3.8103 -0.0607
6 -16 8 -2.3754 -0.0086
6 -16 9 2.2040 0.0968
6 -16 10 -0.6216 0.0191
6 -16 11 2.2670 -0.0453
6 -16 12 -2.2411 -0.0477
6 -16 13 0.7285 0.0336
6 -16 14 -1.3664 0.1048
6 -16 15 -0.1861 -0.0283
6 -16 16 1.8307 -0.0660
6 -16 17 1.4668 0.0951
6 -16 18 0.9107 -0.0780
6 -16 19 -2.5759 -0.3641
6 -15 0 -1.1399 0.3283
6 -15 1 -0.2245 -0.2020
6 -15 2 1.8137 -0.3099
6 -15 3 1.3516 0.0880
6 -15 4 -1.9507 0.1029
6 -15 5 -1.7474 0.0002
6 -15 6 0.6931 -0.0635
6 -15 7 4.1786 0.0501
6 -15 8 3.4712 0.0819
6 -15 9 6.4889 -0.0242
6 -15 10 5.6422 -0.0446
6 -15 11 1.2659 0.0062
6 -15 12 6.3791 0.0438
6 -15 13 0.0084 -0.0411
6 -15 14 2.9562 -0.0194
6 -15 15 0.7496 -0.0060
6 -15 16 0.1537 -0.0478
6 -15 17 0.8425 -0.0774
6 -15 18 2.5561 0.0552
6 -15 19 -0.9315 0.4217
6 -14 0 0.6753 0.3387
6 -14 1 1.5729 0.3497
6 -14 2 4.1696 0.0299
6 -14 3 6.7911 -0.3153
6 -14 4 -1.2262 -0.2385
6 -14 5 6.1368 0.1716
6 -14 6 2.0440 0.1943
6 -14 7 -0.3989 0.0016
6 -14 8 3.8106 -0.0947
6 -14 9 3.2886 -0.0232
6 -14 10 0.0512 0.0633
6 -14 11 1.8379 0.0215
6 -14 12 2.0703 -0.0094
6 -14 13 2.5873 -0.0091
6 -14 14 -3.2329 -0.0136
6 -14 15 4.1486 -0.0548
6 -14 16 4.3851 -0.0828
6 -14 17 1.5860 0.0710
6 -14 18 1.3018 0.3026
6 -14 19 1.3120 0.2453
6 -13 0 1.9834 0.4952
6 -13 1 1.5240 0.2517
6 -13 2 4.3047 -0.1388
6 -13 3 2.5503 0.0109
6 -13 4 -0.7661 0.0609
6 -13 5 -1.2792 0.0301
6 -13 6 4.4981 -0.0119
6 -13 7 0.3515 -0.0096
6 -13 8 -3.4645 -0.0368
6 -13 9 3.5407 -0.0390
6 -13 10 0.7847 -0.0923
6 -13 11 -6.9462 0.0289
6 -13 12 -3.2803 0.0899
6 -13 13 -1.1907 0.0292
6 -13 14 -6.5205 -0.0736
6 -13 15 -2.0278 -0.0578
6 -13 16 -1.0639 0.0463
6 -13 17 -2.2104 0.0986
6 -13 18 -4.1568 -0.0306
6 -12 0 -9.0236 -0.7062
6 -12 1 2.7312 -0.4637
6 -12 2 -2.5691 -0.0172
6 -12 3 -3.9210 0.1851
6 -12 4 -8.4875 0.0689
6 -12 5 -1.2393 -0.0694
6 -12 6 -7.0887 -0.0887
6 -12 7 -5.4692 -0.0435
6 -12 8 -5.9676 0.0165
6 -12 9 -5.5782 0.0737
6 -12 10 -2.9464 0.0440
6 -12 11 -5.4143 -0.0335
6 -12 12 -2.4170 -0.1263
6 -12 13 -11.9121 -0.0574
6 -12 14 -1.3865 0.0586
6 -12 15 -0.8259 0.0839
6 -12 16 3.4719 0.0713
6 -12 17 -1.7709 0.0194
6 -12 18 -0.0833 -0.0599
6 -12 19 -1.7220 -0.0504
6 -11 0 -4.8200 -1.1893
6 -11 1 -12.7242 0.0956
6 -11 2 2.6209 0.3126
6 -11 3 -9.1601 0.1045
6 -11 4 -9.1738 -0.0604
6 -11 5 -9.0063 -0.1532
6 -11 6 1.3463 -0.0844
6 -11 7 -10.1377 0.0517
6 -11 8 4.6567 0.0775
6 -11 9 0.8390 0.1059
6 -11 10 3.9469 0.0284
6 -11 11 6.1269 -0.0450
6 -11 12 4.6902 -0.0577
6 -11 13 2.8240 -0.0124
6 -11 14 -0.4167 0.0183
6 -11 15 10.6262 0.0051
6 -11 16 2.1637 0.0455
6 -11 17 0.9264 0.0432
6 -11 18 -1.9013 0.0930
6 -11 19 1.3476 -0.0633
6 -10 0 -1.2232 1.5728
6 -10 1 8.8459 0.2536
6 -10 2 -0.1942 -0.1642
6 -10 3 13.2865 -0.0178
6 -10 4 5.4956 0.0432
6 -10 5 5.4190 -0.0025
6 -10 6 16.3793 -0.0097
6 -10 7 6.8220 0.0309
6 -10 8 7.2717 -0.0101
6 -10 9 12.4282 -0.0986
6 -10 10 10.2098 -0.0499
6 -10 11 7.8236 0.0298
6 -10 12 8.7125 0.0587
6 -10 13 -1.4407 -0.0123
6 -10 14 -3.6101 -0.0114
6 -10 15 3.7208 0.0235
6 -10 16 1.3853 -0.0423
6 -10 17 0.2451 -0.1551
6 -10 18 -2.7032 -0.1496
6 -10 19 0.7150 0.2709
6 -9 0 15.9623 -0.0723
6 -9 1 2.1560 0.1616
6 -9 2 14.8007 -0.0597
6 -9 3 4.6069 -0.3180
6 -9 4 17.6987 -0.0542
6 -9 5 4.4961 0.2861
6 -9 6 1.2300 0.2150
6 -9 7 0.9379 -0.0723
6 -9 8 -11.0467 -0.1539
6 -9 9 5.5228 -0.0437
6 -9 10 -3.8608 0.0151
6 -9 11 2.2649 -0.0164
6 -9 12 -11.2626 -0.0127
6 -9 13 2.3089 0.0696
6 -9 14 -3.6751 0.0773
6 -9 15 3.9315 -0.0381
6 -9 16 0.3756 0.0175
6 -9 17 -1.0187 0.0539
6 -9 18 -0.1760 0.1314
6 -9 19 -3.9896 -0.0672
6 -8 0 -15.1573 0.0971
6 -8 1 3.6998 -0.2128
6 -8 2 -8.5494 -0.2521
6 -8 3 -2.4267 0.1174
6 -8 4 -10.8690 0.1033
6 -8 5 6.6079 -0.1145
6 -8 6 -20.0437 -0.1492
6 -8 7 -10.2062 0.0730
6 -8 8 -8.1208 0.1144
6 -8 9 -8.7343 -0.0385
6 -8 10 -3.6650 -0.0739
6 -8 11 -7.6049 0.0444
6 -8 12 -4.1393 0.0733
6 -8 13 -12.4138 -0.0418
6 -8 14 0.0681 -0.1161
6 -8 15 -7.1606 -0.0562
6 -8 16 -0.1379 0.0010
6 -8 17 -6.0193 0.1870
6 -8 18 -2.6692 0.1352
6 -8 19 1.6454 0.2262
6 -7 0 -2.8536 -0.7209
6 -7 1 -21.5760 0.0776
6 -7 2 -14.2041 0.5271
6 -7 3 -5.8764 0.1282
6 -7 4 -6.4405 -0.1474
6 -7 5 -5.0311 -0.0970
6 -7 6 -4.2035 -0.0509
6 -7 7 -10.2865 -0.1093
6 -7 8 3.4426 -0.0902
6 -7 9 4.0217 0.0661
6 -7 10 1.0990 0.1429
6 -7 11 -1.1958 0.0271
6 -7 12 2.4906 -0.0850
6 -7 13 -0.6160 -0.0816
6 -7 14 -2.3117 0.0440
6 -7 15 5.9676 0.0739
6 -7 16 -0.5517 0.0346
6 -7 17 2.9802 -0.0662
6 -7 18 2.4124 -0.0839
6 -7 19 -2.5695 -0.5110
6 -6 0 -1.2344 -0.3129
6 -6 1 -1.9071 -0.0995
6 -6 2 -0.8948 -0.1178
6 -6 3 11.6565 0.1540
6 -6 4 6.5453 0.1599
6 -6 5 2.3169 -0.0007
6 -6 6 1.3320 -0.1364
6 -6 7 6.3082 0.0136
6 -6 8 12.2365 0.0989
6 -6 9 3.6831 0.0534
6 -6 10 22.2682 -0.0610
6 -6 11 -2.2829 -0.0561
6 -6 12 11.1672 -0.0096
6 -6 13 3.0675 0.0156
6 -6 14 3.2390 -0.0155
6 -6 15 4.4286 0.0761
6 -6 16 4.1922 0.0801
6 -6 17 -3.3955 -0.0122
6 -6 18 -1.4886 -0.2214
6 -5 0 25.3229 0.6674
6 -5 1 5.5587 -0.1342
6 -5 2 19.6600 -0.2560
6 -5 3 12.1605 -0.1404
6 -5 4 16.0811 -0.1230
6 -5 5 -9.3489 0.0362
6 -5 6 4.2444 0.1118
6 -5 7 -4.9670 0.0636
6 -5 8 4.0347 -0.0239
6 -5 9 5.2294 -0.0500
6 -5 10 -6.1874 -0.0432
6 -5 11 7.4304 -0.0478
6 -5 12 -7.8495 -0.0373
6 -5 13 0.9368 0.0517
6 -5 14 1.2226 0.0926
6 -5 15 0.4208 0.0095
6 -5 16 -2.9552 -0.2131
6 -5 17 1.5722 -0.2288
6 -5 18 -0.0512 0.1877
6 -4 0 -6.5386 0.4471
6 -4 1 3.6011 0.5677
6 -4 2 -17.4797 0.0740
6 -4 3 9.4203 -0.2344
6 -4 4 -16.8646 -0.1178
6 -4 5 1.4167 0.1010
6 -4 6 -15.7503 0.1064
6 -4 7 -7.3792 0.0425
6 -4 8 -14.2885 -0.0679
6 -4 9 0.4291 -0.0642
6 -4 10 -1.5838 -0.0460
6 -4 11 -8.2863 0.0810
6 -4 12 3.4883 0.1445
6 -4 13 -5.0795 0.0235
6 -4 14 2.5704 -0.1067
6 -4 15 2.9770 -0.1067
6 -4 16 -1.6421 0.0344
6 -4 17 0.1386 0.2248
6 -4 18 -0.6341 -0.1509
6 -3 0 -3.0214 0.1811
6 -3 1 -9.4381 -0.2124
6 -3 2 -6.3974 -0.1907
6 -3 3 -3.1951 0.1904
6 -3 4 6.3883 0.1744
6 -3 5 -8.0375 0.0111
6 -3 6 3.1290 -0.0508
6 -3 7 -9.3199 -0.0570
6 -3 8 9.3131 -0.0363
6 -3 9 0.1197 -0.0189
6 -3 10 6.3736 0.0302
6 -3 11 1.5347 0.0758
6 -3 12 -3.5493 -0.0262
6 -3 13 4.0120 -0.0809
6 -3 14 -3.2180 -0.0477
6 -3 15 -1.2577 0.0651
6 -3 16 -1.0270 0.0314
6 -3 17 -2.6914 -0.0597
6 -2 0 8.0435 -1.8874
6 -2 1 -7.4030 -0.3369
6 -2 2 -6.6086 0.3113
6 -2 3 4.2723 0.1550
6 -2 4 -7.4925 -0.0299
6 -2 5 5.5438 -0.0394
6 -2 6 -1.9645 -0.0763
6 -2 7 -3.4328 -0.0448
6 -2 8 2.4989 0.0496
6 -2 9 5.7652 0.1267
6 -2 10 -1.6260 0.0712
6 -2 11 1.0416 -0.1069
6 -2 12 -0.4376 -0.1025
6 -2 13 -0.3906 0.0370
6 -2 14 4.7219 0.0034
6 -2 15 0.4952 0.0498
6 -2 16 0.0122 0.1504
6 -2 17 0.8737 0.3234
6 -1 0 17.5113 0.6775
6 -1 1 -13.4804 0.2087
6 -1 2 -0.4860 -0.0596
6 -1 3 -5.9915 0.0481
6 -1 4 10.0753 -0.0134
6 -1 5 -13.9348 -0.1578
6 -1 6 7.6257 -0.1105
6 -1 7 -3.4591 0.0779
6 -1 8 -1.6426 0.1115
6 -1 9 8.9278 0.0004
6 -1 10 -0.0914 -0.0377
6 -1 11 -1.6623 0.0335
6 -1 12 3.9161 0.0085
6 -1 13 1.3413 0.0250
6 -1 14 1.2545 0.0810
6 -1 15 0.8713 -0.0431
6 -1 16 -0.8310 -0.1757
6 0 0 24.6412 0.6633
6 0 1 8.0305 0.2038
6 0 2 7.7184 -0.0173
6 0 3 14.4127 -0.2074
6 0 4 -1.4426 -0.0811
6 0 5 16.9250 0.2004
6 0 6 -8.2853 0.1975
6 0 7 6.0658 -0.0252
6 0 8 -0.1303 -0.1575
6 0 9 0.1191 -0.1029
6 0 10 5.3377 -0.0122
6 0 11 -7.9726 0.0126
6 0 12 -0.5060 0.0436
6 0 13 -1.6105 0.0714
6 0 14 0.3842 -0.0579
6 0 15 -0.7026 0.2762
6 0 16 2.2713 0.4521
6 1 0 10.1253 0.0243
6 1 1 -7.1696 -0.0746
6 1 2 3.7786 -0.3514
6 1 3 1.1583 -0.1152
6 1 4 -2.8892 0.0978
6 1 5 -6.5570 0.1127
6 1 6 -4.0009 0.0332
6 1 7 -5.8910 0.0372
6 1 8 -0.1836 0.0031
6 1 9 -1.9046 -0.0379
6 1 10 -2.2582 -0.0074
6 1 11 -2.6085 0.0210
6 1 12 -1.9057 -0.0753
6 1 13 -0.2526 0.0025
6 1 14 -0.3562 0.1788
6 1 15 1.2841 0.0079
6 2 0 -33.2020 -0.2157
6 2 1 -14.9030 -0.0786
6 2 2 -19.4401 0.2049
6 2 3 4.9058 0.1850
6 2 4 -16.9411 -0.0664
6 2 5 -3.8504 -0.1586
6 2 6 -8.6448 -0.0449
6 2 7 -0.4490 -0.0309
6 2 8 2.3756 0.0511
6 2 9 2.5076 0.0592
6 2 10 -0.5655 -0.0218
6 2 11 -0.7552 0.0114
6 2 12 -1.5985 0.1421
6 2 13 1.2114 0.0142
6 2 14 -4.2521 -0.0833
6 3 0 1.7400 -0.8093
6 3 1 -5.8197 0.1880
6 3 2 12.7587 0.3022
6 3 3 6.1859 0.1395
6 3 4 3.2973 0.0810
6 3 5 0.5740 -0.0211
6 3 6 0.1327 -0.1420
6 3 7 0.4180 -0.0851
6 3 8 3.4265 -0.0148
6 3 9 2.0708 0.0743
6 3 10 -1.2325 0.0570
6 3 11 1.6527 -0.0446
6 3 12 1.6527 -0.0705
6 3 13 0.9228 0.1210
6 3 14 1.0035 0.3374
6 4 0 11.9843 0.4568
6 4 1 2.2469 -0.2801
6 4 2 8.6166 -0.2478
6 4 3 4.2415 0.0365
6 4 4 9.9248 0.0979
6 4 5 -4.0860 -0.0485
6 4 6 7.0913 -0.0288
6 4 7 -1.8517 0.0288
6 4 8 3.0380 0.0636
6 4 9 2.3807 0.0231
6 4 10 0.1693 -0.0272
6 4 11 1.3908 0.0609
6 4 12 1.3262 0.0431
6 4 13 -1.3532 -0.3736
6 5 0 -1.1134 0.2563
6 5 1 0.4106 0.3610
6 5 2 6.9390 0.0068
6 5 3 -2.3605 -0.2857
6 5 4 2.5455 -0.2270
6 5 5 1.7711 0.1181
6 5 6 -6.2419 0.1869
6 5 7 3.9121 -0.0201
6 5 8 -4.7133 -0.0672
6 5 9 -2.2871 0.1453
6 5 10 1.4254 0.0964
6 5 11 -4.1318 -0.1166
6 5 12 1.2234 -0.1442
6 6 0 -8.5059 0.8836
6 6 1 -5.8751 0.1633
6 6 2 -1.9539 -0.1656
6 6 3 -2.9096 0.0377
6 6 4 -8.5985 0.1087
6 6 5 2.3740 -0.0083
6 6 6 -5.4131 -0.0024
6 6 7 -0.0825 0.1032
6 6 8 -0.4130 -0.0072
6 6 9 -0.2129 -0.1837
6 6 10 -2.5061 -0.0582
6 6 11 3.2863 0.2845
6 7 0 -6.7369 -1.2553
6 7 1 6.5321 -0.4004
6 7 2 -4.8423 0.2038
6 7 3 6.4990 0.2054
6 7 4 -3.4104 0.0887
6 7 5 2.3668 0.0453
6 7 6 2.0817 -0.0508
6 7 7 2.7808 -0.1340
6 7 8 2.9396 0.0384
6 7 9 2.3154 0.1581
6 7 10 1.1778 -0.0122
6 8 0 3.7873 -0.6200
6 8 1 -0.0528 0.0051
6 8 2 4.2832 0.1492
6 8 3 -2.2248 0.1476
6 8 4 4.7238 0.0181
6 8 5 -3.4634 -0.1002
6 8 6 1.3901 -0.0777
6 8 7 1.0503 -0.0034
6 8 8 -1.9803 0.0356
6 8 9 -1.2596 -0.1775
6 9 0 2.3255 1.1869
6 9 1 2.3264 0.2162
6 9 2 1.0425 -0.0803
6 9 3 2.4957 0.0021
6 9 4 1.7623 -0.0341
6 9 5 -0.7961 0.0076
6 9 6 0.2376 0.0049
6 9 7 -0.3325 0.0030
6 9 8 3.0535 0.0728
6 10 0 0.1086 0.0892
6 10 1 1.9329 0.2400
6 10 2 -0.3868 -0.0948
6 10 3 -1.1666 -0.2951
6 10 4 1.1875 -0.0495
6 10 5 -0.8176 0.2614
6 10 6 1.9952 0.1659
6 10 7 -0.6955 -0.2678
6 11 0 -1.5004 0.0696
6 11 1 -1.5629 -0.3439
6 11 2 -0.6968 -0.1897
6 11 3 -0.8338 0.2385
6 11 4 -0.7434 -0.0209
6 11 5 -1.4885 -0.3484
6 11 6 -1.8623 -0.0498
6 12 0 5.5526 -1.0072
6 12 1 -2.0758 0.1631
6 12 2 1.4754 0.2608
6 12 3 0.3365 -0.0844
6 12 4 -0.3002 -0.0492
6 13 0 2.4214 0.1246
6 13 1 2.5898 -0.0417
6 13 2 -1.7929 -0.0830
6 14 0 -1.1418 0.0897
6 14 1 0.7342 -0.0067
7 -20 8 0.3110 0.0255
7 -20 9 -0.0354 0.0081
7 -20 10 -0.9903 -0.0374
7 -20 11 1.7151 -0.0124
7 -20 12 1.2274 -0.0440
7 -20 13 3.0594 0.0156
7 -20 14 1.1734 0.2813
7 -19 2 -3.5201 -0.1487
7 -19 3 1.2377 -0.1093
7 -19 4 -1.5635 -0.0980
7 -19 5 -1.2759 0.0436
7 -19 6 2.2217 0.0323
7 -19 7 5.1316 0.0488
7 -19 8 0.5086 -0.0490
7 -19 9 3.4790 -0.0178
7 -19 10 1.5700 -0.0598
7 -19 11 -0.5276 -0.0349
7 -19 12 0.0345 0.0058
7 -19 13 -1.8950 0.0347
7 -19 14 -1.7804 0.1223
7 -19 15 -2.7275 0.0034
7 -19 16 1.1191 0.1409
7 -18 0 2.2579 0.3135
7 -18 1 3.1028 0.1976
7 -18 2 0.4306 -0.0063
7 -18 3 -1.7672 -0.2235
7 -18 4 2.3912 -0.1199
7 -18 5 0.1966 0.0869
7 -18 6 1.1732 0.0989
7 -18 7 -2.3246 -0.0065
7 -18 8 -1.2653 -0.1258
7 -18 9 -5.9098 -0.1366
7 -18 10 -5.8558 -0.0524
7 -18 11 2.1483 0.0663
7 -18 12 -2.5037 0.1060
7 -18 13 3.3385 -0.0825
7 -18 14 -1.0331 -0.0237
7 -18 15 1.2148 0.0481
7 -18 16 -0.5139 0.0163
7 -18 17 -1.1114 -0.2797
7 -17 0 -0.4303 0.5571
7 -17 1 1.6220 -0.1651
7 -17 2 -2.4272 -0.2361
7 -17 3 -0.6809 0.1367
7 -17 4 -6.2718 0.1666
7 -17 5 0.1804 0.0363
7 -17 6 -4.1198 -0.0314
7 -17 7 -3.2465 -0.0730
7 -17 8 0.2816 -0.0611
7 -17 9 0.0017 -0.0472
7 -17 10 0.4560 0.0161
7 -17 11 1.2226 -0.0123
7 -17 12 2.6635 -0.0003
7 -17 13 -3.0565 0.0022
7 -17 14 -0.4524 0.0830
7 -17 15 -2.5264 0.0073
7 -17 16 1.0313 -0.1309
7 -17 17 -1.3009 -0.1568
7 -17 18 -0.7667 0.0714
7 -16 0 1.7796 -1.5299
7 -16 1 -0.9701 -0.1949
7 -16 2 -0.5885 0.3078
7 -16 3 -2.0779 0.1060
7 -16 4 0.7585 -0.0213
7 -16 5 -0.2729 -0.0146
7 -16 6 4.5999 -0.0801
7 -16 7 2.5537 -0.0430
7 -16 8 -0.6163 0.0292
7 -16 9 4.4189 0.1512
7 -16 10 -1.1409 0.0116
7 -16 11 1.4695 -0.0697
7 -16 12 -3.0432 -0.0549
7 -16 13 6.7360 0.0866
7 -16 14 3.4083 0.1132
7 -16 15 1.6214 -0.0556
7 -16 16 1.1019 -0.0066
7 -16 17 0.9088 0.0700
7 -16 18 0.8708 -0.0474
7 -15 0 0.0831 0.4100
7 -15 1 1.4073 0.0595
7 -15 2 1.2562 -0.0796
7 -15 3 2.0342 0.1110
7 -15 4 4.3525 0.0755
7 -15 5 0.7355 -0.2100
7 -15 6 3.3813 -0.1378
7 -15 7 3.4843 0.0787
7 -15 8 -1.4456 0.1436
7 -15 9 1.5454 0.0165
7 -15 10 5.4422 -0.0311
7 -15 11 3.1988 0.0060
7 -15 12 6.2307 0.0737
7 -15 13 1.3382 -0.0353
7 -15 14 4.0310 -0.0975
7 -15 15 -2.4554 -0.0758
7 -15 16 -1.1701 0.0803
7 -15 17 -0.2965 -0.0029
7 -15 18 2.2126 0.0080
7 -15 19 -1.4895 0.2664
7 -14 0 2.7378 0.4341
7 -14 1 -1.0232 0.2091
7 -14 2 0.3937 0.0294
7 -14 3 2.2895 -0.2236
7 -14 4 -3.0554 -0.1525
7 -14 5 1.8443 0.1906
7 -14 6 -0.1624 0.2283
7 -14 7 -1.2192 -0.0341
7 -14 8 -1.2642 -0.1603
7 -14 9 -1.3321 -0.0696
7 -14 10 -4.8298 0.0668
7 -14 11 -1.7651 -0.0247
7 -14 12 -5.8223 -0.0438
7 -14 13 -0.2414 0.0530
7 -14 14 -7.1472 0.1038
7 -14 15 -3.9276 0.0065
7 -14 16 -4.4652 -0.1082
7 -14 17 -2.5289 -0.0109
7 -14 18 1.0849 0.0372
7 -14 19 -0.8097 -0.0797
7 -13 0 3.1162 0.2121
7 -13 1 -2.3457 -0.0275
7 -13 2 -0.8468 -0.3379
7 -13 3 2.3889 -0.1105
7 -13 4 -2.4422 0.0764
7 -13 5 -9.5504 0.0653
7 -13 6 -1.1830 0.0637
7 -13 7 -3.9906 0.0915
7 -13 8 -12.2354 0.0773
7 -13 9 -6.0142 0.0024
7 -13 10 1.3543 -0.0456
7 -13 11 -5.5540 0.0244
7 -13 12 3.1496 0.0956
7 -13 13 4.7102 0.0231
7 -13 14 -4.6927 -0.0777
7 -13 15 -3.1632 -0.0058
7 -13 16 -0.1453 -0.0033
7 -13 17 1.6948 0.1170
7 -13 18 -0.9003 0.1440
7 -13 19 1.5018 0.1132
7 -12 0 -6.4963 0.0408
7 -12 1 0.8662 -0.0597
7 -12 2 -8.5277 0.1159
7 -12 3 -5.2680 0.1267
7 -12 4 -4.7106 -0.0998
7 -12 5 -1.5541 -0.1323
7 -12 6 -2.5848 -0.0782
7 -12 7 9.0238 -0.0192
7 -12 8 0.2489 0.0056
7 -12 9 3.0139 0.0361
7 -12 10 7.6526 0.0437
7 -12 11 2.4339 0.0258
7 -12 12 4.4747 -0.0484
7 -12 13 4.7153 -0.0135
7 -12 14 5.5431 -0.0415
7 -12 15 -1.5894 -0.0570
7 -12 16 4.3350 -0.0028
7 -12 17 4.2865 0.1505
7 -12 18 2.5377 0.1543
7 -11 0 0.9404 -1.1542
7 -11 1 -0.3847 0.1512
7 -11 2 8.9151 0.3324
7 -11 3 5.6012 0.0993
7 -11 4 6.0252 0.0614
7 -11 5 8.2719 0.0399
7 -11 6 9.5667 -0.1073
7 -11 7 2.2196 -0.0755
7 -11 8 1.7514 -0.0304
7 -11 9 -8.2822 0.0369
7 -11 10 -0.1577 0.0210
7 -11 11 3.3553 0.0095
7 -11 12 8.1563 -0.0399
7 -11 13 3.5888 -0.0367
7 -11 14 -1.6303 0.0250
7 -11 15 -1.8714 0.0980
7 -11 16 -2.1162 0.0689
7 -11 17 -1.6848 -0.0832
7 -11 18 -0.9209 -0.2503
7 -11 19 -0.9667 -0.1625
7 -10 0 2.8470 0.3558
7 -10 1 8.6044 -0.4046
7 -10 2 -0.4441 -0.2098
7 -10 3 4.7323 0.1449
7 -10 4 -4.4725 0.1786
7 -10 5 -10.3152 -0.0614
7 -10 6 -1.6832 -0.0914
7 -10 7 -8.6994 0.0460
7 -10 8 -10.8422 0.0817
7 -10 9 -10.7560 0.0180
7 -10 10 -2.5363 -0.0503
7 -10 11 -5.8757 -0.0729
7 -10 12 3.2309 -0.0226
7 -10 13 -0.9369 -0.0245
7 -10 14 -4.4781 0.0056
7 -10 15 -3.7459 0.0505
7 -10 16 -0.3444 0.0332
7 -10 17 2.6146 -0.0697
7 -10 18 -1.5906 -0.0125
7 -10 19 1.6289 0.4757
7 -9 0 10.2043 0.2775
7 -9 1 -4.9448 0.4242
7 -9 2 0.4253 0.1446
7 -9 3 -9.2241 -0.3611
7 -9 4 5.7840 -0.3185
7 -9 5 -6.2792 0.0910
7 -9 6 11.9378 0.2026
7 -9 7 -0.8456 0.0466
7 -9 8 -8.0985 -0.0917
7 -9 9 -6.2676 -0.0101
7 -9 10 -9.2152 0.0404
7 -9 11 3.3785 0.0246
7 -9 12 -8.0521 0.0135
7 -9 13 5.8212 0.0673
7 -9 14 -1.8212 0.0103
7 -9 15 2.6751 -0.0943
7 -9 16 -1.6345 -0.0607
7 -9 17 -0.5987 0.0826
7 -9 18 0.8971 0.2131
7 -9 19 -0.2969 0.1107
7 -8 0 -8.4808 1.0881
7 -8 1 5.1854 0.1308
7 -8 2 -2.2746 -0.2891
7 -8 3 -7.0746 -0.0036
7 -8 4 -1.7903 0.1342
7 -8 5 7.4335 0.0018
7 -8 6 -4.0732 0.0123
7 -8 7 3.7587 0.0115
7 -8 8 -5.1427 -0.0021
7 -8 9 4.6464 -0.1025
7 -8 10 0.5603 -0.1014
7 -8 11 7.8226 0.0643
7 -8 12 1.8106 0.1287
7 -8 13 -0.9333 0.0108
7 -8 14 6.1938 -0.1015
7 -8 15 -1.6553 -0.0297
7 -8 16 4.5903 0.0573
7 -8 17 0.2441 0.1058
7 -8 18 0.3013 -0.2576
7 -7 0 -1.2201 -1.1820
7 -7 1 2.6698 -0.3735
7 -7 2 -4.1512 0.2164
7 -7 3 4.7988 0.1987
7 -7 4 -6.1808 0.0497
7 -7 5 10.5315 0.0603
7 -7 6 11.8971 0.0375
7 -7 7 2.4670 -0.0720
7 -7 8 3.0073 -0.0491
7 -7 9 6.0938 0.0780
7 -7 10 2.1565 0.1136
7 -7 11 5.1656 -0.0377
7 -7 12 5.3080 -0.1577
7 -7 13 -0.3950 -0.0489
7 -7 14 -2.6410 0.1310
7 -7 15 4.5598 0.0333
7 -7 16 0.1489 -0.1357
7 -7 17 -1.3962 0.0612
7 -7 18 -0.0917 0.1352
7 -6 0 4.9211 -0.7932
7 -6 1 6.9208 0.0242
7 -6 2 -1.8191 0.1341
7 -6 3 5.2742 0.1223
7 -6 4 -1.2839 0.0491
7 -6 5 -2.5618 -0.1548
7 -6 6 -9.7527 -0.1875
7 -6 7 -9.2599 0.0338
7 -6 8 -7.3377 0.1694
7 -6 9 -15.7433 0.0931
7 -6 10 11.4132 -0.0734
7 -6 11 -8.9066 0.0081
7 -6 12 5.4840 0.0383
7 -6 13 -3.9417 -0.0639
7 -6 14 -5.6906 -0.1305
7 -6 15 -3.4946 0.0831
7 -6 16 -0.4416 0.1526
7 -6 17 -2.7769 -0.0571
7 -6 18 -0.5228 -0.2581
7 -5 0 10.1003 1.0923
7 -5 1 -2.2446 0.1953
7 -5 2 12.6927 -0.0138
7 -5 3 -12.0159 -0.0273
7 -5 4 12.5299 -0.0481
7 -5 5 -0.5471 -0.0095
7 -5 6 10.5090 0.0600
7 -5 7 4.0120 0.0206
7 -5 8 4.4471 -0.0800
7 -5 9 0.2264 -0.0199
7 -5 10 -3.8937 0.0463
7 -5 11 9.1852 0.0099
7 -5 12 -6.5603 -0.0436
7 -5 13 -1.1567 0.0517
7 -5 14 -3.5811 0.0826
7 -5 15 0.1581 0.0201
7 -5 16 -0.7455 -0.0327
7 -5 17 -0.8068 0.2078
7 -5 18 -0.4297 0.6208
7 -4 0 -3.4539 -0.0126
7 -4 1 14.2869 0.0475
7 -4 2 -5.6424 -0.1867
7 -4 3 19.4527 -0.2736
7 -4 4 -5.9168 -0.0195
7 -4 5 21.1336 0.2038
7 -4 6 -0.1479 0.1241
7 -4 7 9.1308 0.0592
7 -4 8 -12.1428 -0.0381
7 -4 9 1.4860 -0.0649
7 -4 10 5.5316 -0.0664
7 -4 11 -3.5118 0.0149
7 -4 12 7.4646 0.0819
7 -4 13 -5.9225 0.0475
7 -4 14 0.0110 -0.0132
7 -4 15 -0.8541 0.0391
7 -4 16 -2.6197 0.0581
7 -4 17 -0.5313 -0.2228
7 -3 0 -11.2189 0.3693
7 -3 1 4.6693 -0.2425
7 -3 2 -18.3244 -0.2246
7 -3 3 -18.4288 0.0450
7 -3 4 -6.7288 0.0132
7 -3 5 -19.2918 -0.0637
7 -3 6 1.0101 0.0117
7 -3 7 -8.8710 0.0769
7 -3 8 -1.4475 0.0226
7 -3 9 -7.5915 -0.0159
7 -3 10 8.2280 -0.0015
7 -3 11 1.6392 0.0358
7 -3 12 -4.2375 0.0350
7 -3 13 3.8101 0.0266
7 -3 14 -3.7253 -0.0183
7 -3 15 4.4497 -0.0290
7 -3 16 1.8506 0.0912
7 -3 17 0.7806 0.0241
7 -2 0 -13.9152 -1.0331
7 -2 1 10.2736 0.2048
7 -2 2 -3.3865 0.4599
7 -2 3 -5.1399 0.1162
7 -2 4 -3.4007 -0.0992
7 -2 5 6.6038 0.0231
7 -2 6 -2.0714 -0.0535
7 -2 7 6.0220 -0.0889
7 -2 8 4.0004 -0.0299
7 -2 9 0.5384 0.0632
7 -2 10 2.4952 0.0550
7 -2 11 9.1612 0.0297
7 -2 12 0.8847 -0.0546
7 -2 13 1.0788 -0.0432
7 -2 14 2.7794 -0.0897
7 -2 15 -0.1662 -0.0182
7 -2 16 -0.6065 0.0220
7 -1 0 26.2890 -0.1266
7 -1 1 7.5978 -0.2910
7 -1 2 24.1523 -0.1806
7 -1 3 0.0000 0.1957
7 -1 4 12.2780 0.2469
7 -1 5 -6.0092 -0.0279
7 -1 6 9.2075 -0.1441
7 -1 7 -5.0367 -0.0463
7 -1 8 -5.2426 0.0668
7 -1 9 5.5415 0.0795
7 -1 10 -3.2437 0.0004
7 -1 11 1.4166 -0.0400
7 -1 12 -2.1510 -0.0601
7 -1 13 -3.0501 0.0171
7 -1 14 -3.8800 0.1075
7 -1 15 0.6057 -0.1592
7 -1 16 -0.2097 -0.0637
7 0 0 13.1617 0.0164
7 0 1 1.1995 -0.0625
7 0 2 -11.8493 -0.0147
7 0 3 -3.0863 -0.1045
7 0 4 -5.0164 -0.1759
7 0 5 0.4643 -0.0082
7 0 6 -8.4572 0.1040
7 0 7 0.8735 0.1098
7 0 8 -3.8985 0.0274
7 0 9 -4.9896 0.0173
7 0 10 6.4005 -0.0400
7 0 11 -8.0038 -0.0379
7 0 12 0.3050 -0.0262
7 0 13 -2.2940 -0.0688
7 0 14 1.1152 -0.1005
7 0 15 -2.9251 0.2200
7 1 0 4.3063 0.9977
7 1 1 -10.7134 0.5607
7 1 2 -1.0440 -0.1434
7 1 3 -11.3470 -0.2829
7 1 4 7.9192 -0.1026
7 1 5 -3.6712 0.0767
7 1 6 0.3374 0.0654
7 1 7 -2.6555 -0.0080
7 1 8 1.5234 -0.0951
7 1 9 1.4293 -0.1334
7 1 10 4.2869 -0.0282
7 1 11 2.4662 0.0490
7 1 12 0.1153 -0.0002
7 1 13 -0.1998 0.0302
7 1 14 0.2523 0.0685
7 1 15 -0.7253 -0.0040
7 2 0 5.3881 0.0133
7 2 1 16.9278 -0.2839
7 2 2 -10.3113 -0.0590
7 2 3 12.2242 0.1850
7 2 4 -5.2754 0.1482
7 2 5 5.3054 0.0251
7 2 6 -1.9314 0.0105
7 2 7 1.2000 -0.0618
7 2 8 1.3205 -0.0929
7 2 9 1.6765 -0.0593
7 2 10 1.8870 -0.0026
7 2 11 -0.2653 0.0054
7 2 12 0.5999 -0.0025
7 2 13 4.0384 -0.0492
7 2 14 -1.1751 -0.0358
7 3 0 1.1956 -1.7159
7 3 1 -6.0224 -0.2383
7 3 2 -1.4841 0.2256
7 3 3 3.9588 0.1152
7 3 4 0.9448 0.0058
7 3 5 5.0618 -0.0242
7 3 6 -1.7424 -0.1423
7 3 7 0.9651 -0.0434
7 3 8 0.4058 0.1084
7 3 9 1.2773 0.1371
7 3 10 -0.2443 -0.0186
7 3 11 -1.0197 -0.1404
7 3 12 -0.4466 -0.0782
7 3 13 0.3809 0.0804
7 4 0 11.3006 0.6468
7 4 1 0.4251 0.0855
7 4 2 0.7394 -0.0037
7 4 3 0.9903 0.0986
7 4 4 4.0033 0.0155
7 4 5 -6.8967 -0.1791
7 4 6 2.8976 -0.0718
7 4 7 -5.5468 0.0970
7 4 8 -0.7813 0.0036
7 4 9 -3.4436 -0.0891
7 4 10 -3.4623 0.0479
7 4 11 -1.8639 0.0141
7 4 12 -1.2759 -0.1448
7 5 0 3.3082 0.2921
7 5 1 -7.0694 0.2814
7 5 2 -1.3081 -0.0581
7 5 3 -9.6265 -0.2041
7 5 4 2.1979 -0.1090
7 5 5 -1.1563 0.2190
7 5 6 -1.2535 0.1261
7 5 7 3.3742 -0.0954
7 5 8 -0.2177 0.0047
7 5 9 -1.4867 0.0356
7 5 10 2.0562 -0.0543
7 5 11 -2.9632 0.0562
7 5 12 1.4921 0.4115
7 6 0 1.5386 0.5932
7 6 1 -3.4437 -0.2188
7 6 2 4.0706 -0.3716
7 6 3 0.7431 -0.0178
7 6 4 -3.0345 0.0742
7 6 5 3.2138 -0.0282
7 6 6 -0.5321 0.0886
7 6 7 1.3890 0.1230
7 6 8 1.0908 -0.0986
7 6 9 2.6318 -0.0662
7 6 10 -0.9672 0.1976
7 6 11 1.5056 0.0687
7 7 0 -2.8750 -0.4960
7 7 1 2.2599 0.0546
7 7 2 -7.0354 0.3004
7 7 3 3.0692 0.0913
7 7 4 -4.3375 -0.0434
7 7 5 1.1637 -0.0363
7 7 6 -1.3609 -0.1073
7 7 7 0.4672 -0.0303
7 7 8 -0.5880 0.1624
7 7 9 0.0988 0.0868
7 7 10 -2.5051 -0.6552
7 8 0 0.0671 -0.6620
7 8 1 1.8917 0.0168
7 8 2 3.8110 0.2042
7 8 3 0.2932 0.1405
7 8 4 1.9309 0.0346
7 8 5 0.9634 -0.0314
7 8 6 -1.8724 0.0696
7 8 7 1.5431 -0.0479
7 8 8 -0.5308 -0.2737
7 8 9 0.4325 0.1609
7 9 0 2.8131 0.2410
7 9 1 2.2618 -0.3616
7 9 2 -1.8149 -0.1657
7 9 3 -0.9210 0.1583
7 9 4 -1.8958 0.1505
7 9 5 -0.5581 -0.0368
7 9 6 -0.4785 -0.1370
7 9 7 0.2060 0.1112
7 10 0 -3.6740 0.2935
7 10 1 -0.6263 0.4216
7 10 2 -1.5604 -0.0328
7 10 3 -3.3354 -0.2874
7 10 4 0.8358 -0.1051
7 10 5 -1.4951 0.2376
7 10 6 0.9123 0.1689
7 11 0 -2.6485 0.8078
7 11 1 3.0482 0.0636
7 11 2 2.2853 -0.0890
7 11 3 -1.6521 0.1175
7 11 4 -0.2960 -0.0282
7 11 5 -0.0109 -0.0185
7 12 0 2.2412 -1.1056
7 12 1 -3.2698 -0.2112
7 12 2 1.3996 0.1223
7 12 3 -0.9475 0.0878
7 13 0 0.8583 -0.2545
7 13 1 0.9911 0.0124
8 -20 8 4.5756 0.1049
8 -20 9 3.7997 -0.0036
8 -20 10 0.2108 -0.0720
8 -20 11 0.5756 -0.0533
8 -20 12 0.3605 -0.0696
8 -20 13 1.9573 -0.0399
8 -20 14 -0.2795 -0.1602
8 -19 2 0.4438 0.1220
8 -19 3 4.9430 -0.0168
8 -19 4 -1.2811 -0.0786
8 -19 5 -2.8771 0.0140
8 -19 6 -2.9034 -0.0349
8 -19 7 -0.5637 -0.0792
8 -19 8 -4.6220 -0.0371
8 -19 9 -1.4504 0.0132
8 -19 10 -1.1926 -0.0240
8 -19 11 -4.4534 -0.0818
8 -19 12 0.9451 -0.0833
8 -19 13 1.9309 0.0094
8 -19 14 1.3618 -0.0480
8 -19 15 -2.6184 0.0439
8 -18 0 -0.3140 0.1703
8 -18 1 -0.3016 -0.0855
8 -18 2 -0.2060 -0.0801
8 -18 3 -2.9634 -0.1192
8 -18 4 0.4841 -0.0688
8 -18 5 -6.7198 0.1151
8 -18 6 -4.9657 0.1528
8 -18 7 -2.7670 0.0425
8 -18 8 1.8854 -0.0739
8 -18 9 -2.1708 -0.0950
8 -18 10 -3.6519 -0.0503
8 -18 11 0.8790 -0.0250
8 -18 12 -7.4798 0.0356
8 -18 13 -1.0410 0.0114
8 -18 14 -4.7886 0.0316
8 -18 15 0.2383 0.0064
8 -18 16 -1.2704 0.1816
8 -18 17 1.5579 -0.1094
8 -17 0 -4.3571 0.7511
8 -17 1 -0.7724 -0.2443
8 -17 2 -1.2808 -0.2044
8 -17 3 2.3947 0.0527
8 -17 4 -5.3390 0.0253
8 -17 5 3.2084 0.0232
8 -17 6 -1.1766 0.0875
8 -17 7 -0.5184 0.0497
8 -17 8 1.8299 0.0096
8 -17 9 0.7048 -0.0888
8 -17 10 -0.8896 -0.0264
8 -17 11 -0.0384 -0.0371
8 -17 12 4.0009 -0.0106
8 -17 13 -0.7541 0.0253
8 -17 14 7.9024 0.1696
8 -17 15 4.5955 0.0418
8 -17 16 4.7434 -0.2195
8 -17 17 0.9843 0.0245
8 -16 0 0.9655 -0.7964
8 -16 1 2.0469 0.2443
8 -16 2 2.3481 0.3164
8 -16 3 2.1269 0.0474
8 -16 4 2.9528 -0.1273
8 -16 5 -0.3904 0.0726
8 -16 6 2.5841 -0.0004
8 -16 7 3.9431 -0.0940
8 -16 8 -1.2591 -0.0595
8 -16 9 6.0625 0.0758
8 -16 10 2.5164 0.1089
8 -16 11 8.6592 0.0399
8 -16 12 1.6523 0.0009
8 -16 13 3.7932 0.0451
8 -16 14 -0.1210 0.0824
8 -16 15 1.3083 -0.0824
8 -16 16 -0.6083 -0.1840
8 -16 17 -0.5410 -0.0504
8 -16 18 -0.9857 -0.1397
8 -15 0 -0.8619 -0.2183
8 -15 1 5.7412 -0.2819
8 -15 2 3.6209 -0.1454
8 -15 3 1.5714 0.2599
8 -15 4 2.8938 0.2673
8 -15 5 -1.8747 -0.0822
8 -15 6 -0.2330 -0.1924
8 -15 7 2.2051 -0.0139
8 -15 8 -4.4728 0.1142
8 -15 9 -2.0300 0.0447
8 -15 10 -0.4800 -0.0518
8 -15 11 -6.9003 -0.0327
8 -15 12 -4.8601 0.0001
8 -15 13 -5.6912 -0.0692
8 -15 14 3.5879 0.0213
8 -15 15 -3.1612 0.0334
8 -15 16 0.1858 -0.0034
8 -15 17 -1.6486 -0.0050
8 -15 18 0.1254 -0.0116
8 -14 0 1.0358 -0.0798
8 -14 1 2.0998 0.0917
8 -14 2 4.5167 0.0604
8 -14 3 2.4994 -0.1405
8 -14 4 -0.4575 -0.1958
8 -14 5 -0.7487 -0.0201
8 -14 6 -4.9498 0.1065
8 -14 7 0.9280 0.0059
8 -14 8 -0.5009 -0.0496
8 -14 9 -4.2889 0.0114
8 -14 10 -9.7611 0.0101
8 -14 11 4.6999 -0.0463
8 -14 12 -4.9443 -0.0416
8 -14 13 0.6868 -0.0467
8 -14 14 -0.5761 -0.0077
8 -14 15 0.7486 -0.0344
8 -14 16 -2.1348 -0.0961
8 -14 17 -2.6145 -0.0333
8 -14 18 2.1450 0.0826
8 -13 0 -4.1952 0.9467
8 -13 1 -6.6663 0.4626
8 -13 2 -6.3570 -0.1219
8 -13 3 -3.2282 -0.2750
8 -13 4 -3.8317 -0.0615
8 -13 5 -5.1351 -0.0064
8 -13 6 0.2603 0.0676
8 -13 7 1.3164 0.0417
8 -13 8 0.3256 -0.0314
8 -13 9 4.2426 -0.0784
8 -13 10 2.0150 0.0136
8 -13 11 -7.8388 0.0933
8 -13 12 -3.6516 0.1272
8 -13 13 1.7717 -0.0081
8 -13 14 1.2878 -0.1256
8 -13 15 1.6170 -0.0917
8 -13 16 0.1501 -0.0609
8 -13 17 0.2705 0.0879
8 -13 18 -0.3480 -0.0191
8 -12 0 -4.0301 0.3025
8 -12 1 3.6496 -0.2931
8 -12 2 0.2261 -0.1595
8 -12 3 3.9543 0.0710
8 -12 4 8.2846 0.1124
8 -12 5 0.8183 0.0492
8 -12 6 -6.4825 0.0309
8 -12 7 7.7529 0.0027
8 -12 8 -4.1809 -0.0159
8 -12 9 -5.2827 -0.0066
8 -12 10 -1.6564 0.0145
8 -12 11 2.0114 -0.0337
8 -12 12 -1.8741 -0.0673
8 -12 13 6.6627 0.0045
8 -12 14 7.0379 0.0023
8 -12 15 1.3251 0.0807
8 -12 16 -2.6717 0.0506
8 -12 17 0.3340 -0.0149
8 -12 18 0.1013 0.0746
8 -11 0 -0.8989 -1.6482
8 -11 1 6.7411 -0.1324
8 -11 2 4.3024 0.2919
8 -11 3 0.3692 0.0758
8 -11 4 -3.4759 -0.0485
8 -11 5 5.9356 -0.0243
8 -11 6 -4.2324 -0.0729
8 -11 7 4.7905 -0.0472
8 -11 8 9.3551 0.0707
8 -11 9 1.8356 0.0632
8 -11 10 3.7602 0.0137
8 -11 11 -0.6604 -0.1034
8 -11 12 -0.8710 -0.1178
8 -11 13 -2.3836 -0.0127
8 -11 14 2.8339 -0.0351
8 -11 15 2.1091 -0.0368
8 -11 16 2.8820 0.0173
8 -11 17 2.0115 0.1416
8 -11 18 2.5358 -0.1909
8 -10 0 -6.4135 0.5696
8 -10 1 -0.3608 0.0103
8 -10 2 4.2075 0.0057
8 -10 3 12.5745 0.1815
8 -10 4 10.4585 0.1401
8 -10 5 10.9550 -0.1417
8 -10 6 15.0790 -0.1490
8 -10 8 10.4334 0.0750
8 -10 9 -3.7023 -0.0129
8 -10 10 0.0308 -0.0122
8 -10 11 -12.0719 0.0451
8 -10 12 -0.4849 -0.0076
8 -10 13 -5.3758 -0.0473
8 -10 14 -1.0620 0.0188
8 -10 15 1.0546 0.0917
8 -10 16 -1.3006 0.0278
8 -10 17 -1.6291 -0.1198
8 -10 18 -3.7490 0.0758
8 -9 0 5.8342 0.0985
8 -9 1 -7.1831 0.2281
8 -9 2 -0.8484 0.0841
8 -9 3 -1.5872 -0.2212
8 -9 4 -0.3077 -0.1351
8 -9 5 -16.8487 0.1780
8 -9 6 -3.9380 0.1481
8 -9 7 -9.0596 -0.0489
8 -9 8 0.5510 -0.1448
8 -9 9 -5.1040 -0.0291
8 -9 10 -2.4676 0.0533
8 -9 11 -0.4934 0.0087
8 -9 12 -5.1107 -0.0526
8 -9 13 2.9886 0.0396
8 -9 14 -7.1326 0.0265
8 -9 15 -2.3727 -0.0112
8 -9 16 -3.1148 -0.1139
8 -9 17 0.5644 0.0102
8 -9 18 0.9636 0.1874
8 -8 0 -12.6138 0.7790
8 -8 1 -13.5362 -0.2175
8 -8 2 -6.8392 -0.4012
8 -8 3 -20.9585 -0.0976
8 -8 4 -0.3925 0.1182
8 -8 5 -6.6668 -0.0425
8 -8 6 -5.2508 0.0056
8 -8 7 4.6180 0.1027
8 -8 8 -4.0448 0.0752
8 -8 9 3.2732 -0.1041
8 -8 10 -6.5492 -0.1350
8 -8 11 7.6222 0.0610
8 -8 12 -2.7546 0.1384
8 -8 13 -1.1699 0.0204
8 -8 14 2.3494 -0.1026
8 -8 15 1.5937 -0.0446
8 -8 16 3.3505 0.0217
8 -8 17 0.1966 -0.1102
8 -8 18 -2.0875 -0.0518
8 -7 0 -7.2897 -0.2492
8 -7 1 3.6540 0.1424
8 -7 3 13.5907 0.0383
8 -7 4 0.4816 -0.1613
8 -7 5 5.5471 0.0063
8 -7 6 -1.7518 0.0697
8 -7 7 -7.6522 -0.0361
8 -7 8 -4.7169 -0.0512
8 -7 9 6.7041 0.0652
8 -7 10 -4.0942 0.0864
8 -7 11 4.2185 -0.0185
8 -7 12 4.8911 -0.0737
8 -7 13 4.5647 0.0112
8 -7 14 0.1669 0.0099
8 -7 15 0.9925 -0.0383
8 -7 16 2.9231 -0.0410
8 -7 17 -0.2865 0.0918
8 -7 18 -0.3554 -0.0169
8 -6 0 8.1968 -0.8106
8 -6 1 10.2950 -0.0076
8 -6 2 9.4104 0.1437
8 -6 3 18.7741 0.1656
8 -6 4 9.6420 0.1820
8 -6 5 11.4101 -0.0145
8 -6 6 19.1495 -0.1629
8 -6 7 15.8018 -0.0895
8 -6 8 16.1872 0.0140
8 -6 9 -4.0269 0.0349
8 -6 10 9.1365 -0.0260
8 -6 11 -5.6092 -0.0011
8 -6 12 4.4388 -0.0319
8 -6 13 0.2109 -0.0891
8 -6 14 -1.7361 -0.0707
8 -6 15 -0.7476 0.0990
8 -6 16 2.3982 0.2074
8 -6 17 -1.6745 -0.0403
8 -6 18 -2.3473 -0.2765
8 -5 0 0.9377 -0.0505
8 -5 1 -13.2123 -0.4482
8 -5 2 13.1146 -0.0906
8 -5 3 -11.7048 0.1069
8 -5 4 13.7463 0.0708
8 -5 5 -8.1890 -0.0313
8 -5 6 -4.4334 -0.0176
8 -5 7 -12.3066 0.0317
8 -5 8 -1.0259 0.0451
8 -5 9 -10.5767 0.0841
8 -5 10 -10.8085 -0.0276
8 -5 11 9.6845 -0.0457
8 -5 12 -3.2227 -0.0620
8 -5 13 4.6662 0.0188
8 -5 14 -1.1482 0.1183
8 -5 15 -1.5874 0.0106
8 -5 16 0.7899 -0.1507
8 -5 17 -1.8741 0.2295
8 -4 0 -23.0016 0.4069
8 -4 1 -24.0099 0.4670
8 -4 2 -16.8910 0.0332
8 -4 3 -9.7834 -0.2779
8 -4 4 -40.9929 -0.2370
8 -4 5 -6.6644 -0.0191
8 -4 6 -24.4382 0.1064
8 -4 7 -3.7475 0.0697
8 -4 8 -7.6724 -0.0322
8 -4 9 1.6220 -0.0756
8 -4 10 -0.2745 -0.0431
8 -4 11 -2.9669 0.0236
8 -4 12 8.7840 0.0678
8 -4 13 -3.4719 0.0651
8 -4 14 3.4592 -0.0485
8 -4 15 0.4263 -0.1162
8 -4 16 2.3323 0.0109
8 -4 17 0.2608 0.2195
8 -3 0 -4.7219 1.4708
8 -3 1 1.4776 0.0500
8 -3 3 12.3449 -0.0695
8 -3 4 8.0114 0.1016
8 -3 5 -1.1622 0.0556
8 -3 6 13.5330 0.0208
8 -3 7 0.7717 0.0178
8 -3 8 6.1323 -0.0836
8 -3 9 -6.2871 -0.1147
8 -3 10 5.8888 0.0092
8 -3 11 0.9830 0.1114
8 -3 12 3.0208 0.0592
8 -3 13 6.7702 -0.0612
8 -3 14 -3.2412 0.0033
8 -3 15 1.8424 0.0981
8 -3 16 -0.6780 -0.1117
8 -3 17 -2.1465 -0.2875
8 -2 0 -3.6053 -1.5391
8 -2 1 36.7074 -0.3301
8 -2 2 14.0120 0.1617
8 -2 3 15.7965 0.0805
8 -2 4 6.7051 -0.0462
8 -2 5 9.4935 0.0632
8 -2 6 -8.2649 0.0091
8 -2 7 -0.8117 -0.0751
8 -2 8 1.0628 -0.0220
8 -2 9 -6.0913 0.0804
8 -2 10 -2.9451 -0.0021
8 -2 11 3.6641 -0.0705
8 -2 12 -2.3275 -0.0506
8 -2 13 -1.3594 0.0104
8 -2 14 -1.6090 -0.1035
8 -2 15 -1.8700 0.0170
8 -2 16 -1.4723 0.0641
8 -1 1 -8.2866 -0.0893
8 -1 2 13.0943 0.0254
8 -1 3 -3.9892 0.1206
8 -1 4 2.1840 0.1212
8 -1 5 1.7616 -0.1349
8 -1 6 4.6969 -0.1994
8 -1 7 -1.6175 0.0036
8 -1 8 0.6022 0.1198
8 -1 9 6.4145 0.0452
8 -1 10 -9.0129 -0.0040
8 -1 11 4.3486 -0.0551
8 -1 12 -1.7257 -0.1252
8 -1 13 1.8571 0.0030
8 -1 14 -2.2505 0.1027
8 -1 15 2.1560 0.0515
8 0 0 -9.1330 0.4407
8 0 1 1.1055 0.2337
8 0 2 -1.4909 0.1389
8 0 3 5.6691 -0.0118
8 0 4 -4.9709 -0.1505
8 0 5 4.7598 -0.0131
8 0 6 -5.1396 0.0696
8 0 7 -4.5378 0.0041
8 0 8 -3.9867 -0.0553
8 0 9 -3.4595 0.0631
8 0 10 7.1928 0.0155
8 0 11 -2.5846 -0.0192
8 0 12 3.3018 0.0540
8 0 13 -1.0171 -0.0464
8 0 14 0.5189 -0.2274
8 0 15 -3.8911 0.1589
8 1 0 9.8641 0.3622
8 1 1 -7.8666 -0.0023
8 1 2 4.8872 -0.3440
8 1 3 -21.8710 -0.2469
8 1 4 2.5693 0.0743
8 1 5 -9.3818 0.1571
8 1 6 -2.2315 0.0695
8 1 7 -5.0015 0.0160
8 1 8 -0.6455 -0.0414
8 1 9 -2.5602 -0.1129
8 1 10 0.9777 0.0090
8 1 11 0.9978 0.0161
8 1 12 -3.1384 -0.0928
8 1 13 -1.7370 0.0436
8 1 14 2.4149 0.2237
8 2 0 -13.5854 0.4356
8 2 1 9.0183 -0.1616
8 2 2 -4.5553 -0.0689
8 2 3 7.9570 0.0340
8 2 4 1.2828 -0.0592
8 2 5 9.0160 -0.0759
8 2 6 0.6561 0.0453
8 2 7 -0.4845 0.0594
8 2 8 1.0981 0.0096
8 2 9 -0.8002 -0.0578
8 2 10 1.3918 -0.0825
8 2 11 1.3186 0.0516
8 2 12 -0.9617 0.1089
8 2 13 0.5904 -0.0947
8 3 0 3.5705 -0.8439
8 3 1 8.9199 0.2780
8 3 2 7.4300 0.3500
8 3 3 9.5438 0.0854
8 3 4 -2.2222 0.0272
8 3 5 6.2119 0.0036
8 3 6 -2.6715 -0.0908
8 3 7 1.7267 -0.1167
8 3 8 -0.0838 0.0196
8 3 9 2.6376 0.1164
8 3 10 1.4599 0.0036
8 3 11 -0.6414 -0.0920
8 3 12 -0.7185 -0.1539
8 3 13 0.2689 0.1655
8 4 0 2.6771 -0.1313
8 4 1 -0.5980 -0.3823
8 4 2 -9.4533 -0.0820
8 4 3 1.3519 0.2589
8 4 4 1.3245 0.2107
8 4 5 -0.7727 -0.0413
8 4 6 3.6844 -0.0889
8 4 7 0.1865 -0.0400
8 4 8 4.9590 0.0005
8 4 9 0.8823 0.0616
8 4 10 1.8948 0.0146
8 4 11 0.8216 0.0710
8 4 12 -0.7116 0.0942
8 5 0 1.3767 -0.3310
8 5 1 0.4130 0.1366
8 5 2 3.4777 0.0128
8 5 3 -6.7321 -0.1187
8 5 4 1.9139 -0.1122
8 5 5 -4.8704 0.0149
8 5 6 -3.8702 0.0385
8 5 7 -3.4832 -0.0732
8 5 8 0.4295 0.0008
8 5 9 -2.8072 0.0561
8 5 10 3.9520 0.0647
8 5 11 -1.7173 0.0351
8 6 0 0.5703 1.3962
8 6 1 -6.8904 0.3343
8 6 2 -0.5370 -0.2102
8 6 3 -3.2667 -0.2282
8 6 4 -0.7843 -0.0815
8 6 5 0.5337 -0.0072
8 6 6 0.6230 0.1036
8 6 7 -1.3525 0.0240
8 6 8 0.7862 -0.0299
8 6 9 0.4494 -0.0540
8 6 10 0.5243 0.1089
8 7 0 2.8446 -0.2987
8 7 1 5.0248 -0.2307
8 7 2 2.9593 -0.0394
8 7 3 7.6513 0.0701
8 7 4 2.5185 0.0302
8 7 5 1.6473 -0.0278
8 7 6 1.9729 0.0421
8 7 7 -0.1079 0.0931
8 7 8 -0.4414 0.0387
8 7 9 2.4024 -0.2157
8 8 0 2.3183 -1.3745
8 8 1 1.1291 -0.2122
8 8 2 0.6200 0.1431
8 8 3 -0.2323 0.0578
8 8 4 0.0586 0.0489
8 8 5 1.6302 0.0597
8 8 6 -2.1727 -0.0326
8 8 7 2.7132 -0.0976
8 8 8 0.8900 0.1347
8 9 0 -6.0054 0.4618
8 9 1 -3.8871 -0.0940
8 9 2 -2.0739 0.0764
8 9 3 1.9814 0.2473
8 9 4 -1.8338 0.0905
8 9 5 1.8639 -0.1951
8 9 6 -1.9445 0.0130
8 10 0 0.5563 0.1893
8 10 1 0.0537 0.3240
8 10 2 1.1930 -0.0329
8 10 3 1.2013 -0.2961
8 10 4 0.4960 -0.0740
8 10 5 -2.7620 0.1945
8 11 0 -4.2686 0.7129
8 11 1 0.5032 -0.1398
8 11 2 0.2823 -0.2033
8 11 3 -0.9385 -0.0151
8 12 0 2.7406 -0.5741
8 12 1 -1.2885 -0.0820
8 12 2 4.2625 0.3281
8 13 0 3.6947 -0.1121
9 -20 8 -1.1194 -0.0125
9 -20 9 -0.5636 0.0359
9 -20 10 -2.0792 -0.0125
9 -20 11 -1.1066 0.0063
9 -20 12 -1.9205 -0.0490
9 -20 13 -0.9866 -0.0140
9 -19 2 -0.6970 -0.1905
9 -19 3 4.1106 -0.0225
9 -19 4 0.0267 0.1407
9 -19 5 0.8281 -0.0400
9 -19 6 0.3512 -0.1109
9 -19 7 -1.2988 -0.1009
9 -19 8 -4.1735 -0.0342
9 -19 9 0.0536 -0.0050
9 -19 10 1.0814 -0.0191
9 -19 11 -4.6331 -0.1078
9 -19 12 -1.7296 -0.1030
9 -19 13 -3.7765 0.0610
9 -19 14 -0.6768 0.0140
9 -19 15 -2.7830 0.1098
9 -18 1 -0.1903 0.2122
9 -18 2 -0.8592 0.0538
9 -18 3 -0.9464 -0.0305
9 -18 4 3.8607 -0.0708
9 -18 5 -1.5304 0.0282
9 -18 6 0.8405 0.1254
9 -18 7 0.1706 0.0584
9 -18 8 2.4623 -0.0083
9 -18 9 -0.4374 -0.0590
9 -18 10 0.8853 -0.0679
9 -18 11 4.6002 0.0683
9 -18 12 -1.1893 0.0331
9 -18 13 6.0563 -0.0809
9 -18 14 0.0794 -0.0392
9 -18 15 3.7989 -0.0501
9 -18 16 1.2593 0.1337
9 -17 0 0.7694 1.5073
9 -17 1 -1.6689 -0.0031
9 -17 2 -1.2511 -0.3353
9 -17 3 5.1820 -0.1116
9 -17 4 -1.7369 0.1394
9 -17 5 6.6866 0.0270
9 -17 6 1.5571 0.1293
9 -17 7 0.4796 0.0711
9 -17 8 4.5993 -0.0949
9 -17 9 0.0608 -0.0915
9 -17 10 0.6329 -0.0419
9 -17 11 2.9991 0.0449
9 -17 12 6.8254 0.0419
9 -17 13 -3.4736 0.0680
9 -17 14 0.0877 0.1627
9 -17 15 -3.2011 0.0719
9 -17 16 -0.5760 -0.0721
9 -17 17 -1.5286 -0.2029
9 -16 0 2.5945 -1.0600
9 -16 1 1.2061 -0.0960
9 -16 2 1.5307 0.1355
9 -16 3 3.2770 -0.0787
9 -16 4 2.5197 -0.0522
9 -16 5 0.4168 0.0753
9 -16 6 0.3464 0.0659
9 -16 7 0.2750 -0.0524
9 -16 8 -3.0983 0.0427
9 -16 9 2.7829 0.0492
9 -16 10 -4.9454 0.0113
9 -16 11 -1.7840 -0.1203
9 -16 12 -3.3330 -0.0463
9 -16 13 -0.9488 0.0479
9 -16 14 -5.0154 0.1120
9 -16 15 2.1172 -0.0091
9 -16 16 -0.0274 -0.1173
9 -16 17 0.3773 -0.0549
9 -15 0 -2.9146 -0.1968
9 -15 1 1.1734 -0.1398
9 -15 2 -0.9218 0.0301
9 -15 3 -0.3072 0.2333
9 -15 4 1.2285 0.1025
9 -15 5 1.0290 -0.2029
9 -15 6 0.5806 -0.1952
9 -15 7 3.3120 0.0424
9 -15 8 -2.9057 0.1329
9 -15 9 -5.0547 0.0411
9 -15 10 2.7392 -0.0256
9 -15 11 -4.2171 -0.0470
9 -15 12 1.4373 0.0549
9 -15 13 -3.6765 0.0071
9 -15 14 0.7843 -0.0788
9 -15 15 -4.7260 0.0469
9 -15 16 -0.5691 0.0767
9 -15 17 -1.6240 -0.0272
9 -15 18 -2.2575 -0.2734
9 -14 0 -5.1992 -0.0398
9 -14 1 -8.0156 0.2392
9 -14 2 -1.7317 0.1968
9 -14 3 -6.3806 0.0011
9 -14 4 -3.0828 -0.0914
9 -14 5 -0.6487 0.0254
9 -14 6 -6.1706 0.0407
9 -14 7 -5.7775 -0.1243
9 -14 8 0.4549 -0.1094
9 -14 9 0.2955 0.0631
9 -14 10 -3.2956 0.1206
9 -14 11 7.0185 0.0502
9 -14 12 -2.1753 -0.0168
9 -14 13 -1.3145 0.0235
9 -14 14 1.6070 0.0556
9 -14 15 2.2539 -0.0254
9 -14 16 1.2726 -0.1582
9 -14 17 -1.1337 0.0458
9 -14 18 2.9897 -0.0078
9 -13 0 -0.1031 0.3749
9 -13 1 -5.1642 -0.0540
9 -13 2 -0.0650 -0.3094
9 -13 3 2.0463 -0.2146
9 -13 4 -3.6678 -0.0002
9 -13 5 0.3391 0.0399
9 -13 6 4.5936 0.0081
9 -13 7 -0.7970 0.0171
9 -13 8 0.3821 -0.0109
9 -13 9 2.5235 -0.0689
9 -13 10 -0.4024 -0.0834
9 -13 11 0.8725 -0.0062
9 -13 12 7.4662 0.0522
9 -13 13 2.3415 -0.0092
9 -13 14 4.7324 -0.0758
9 -13 15 4.3485 -0.0665
9 -13 16 3.5326 0.0196
9 -13 17 0.9844 0.1802
9 -13 18 2.1320 -0.0427
9 -12 0 6.0217 0.8034
9 -12 1 1.2031 -0.0351
9 -12 2 1.3117 -0.0833
9 -12 3 -1.2070 -0.0621
9 -12 4 6.9636 -0.0644
9 -12 5 4.3620 -0.0295
9 -12 6 2.0617 0.0847
9 -12 7 6.9439 0.1677
9 -12 8 2.0761 0.0033
9 -12 9 9.2580 -0.0656
9 -12 10 2.7118 -0.0024
9 -12 11 6.0189 0.0971
9 -12 12 -5.7048 0.0448
9 -12 13 -0.7048 0.0034
9 -12 14 -2.7638 -0.0032
9 -12 15 1.1213 -0.0470
9 -12 16 -1.6989 -0.1450
9 -12 17 0.5491 -0.1339
9 -12 18 -1.6500 0.0585
9 -11 0 -0.8040 -0.8132
9 -11 1 10.0911 0.2297
9 -11 2 0.2045 0.3879
9 -11 3 4.2197 0.0430
9 -11 4 -2.0370 -0.0207
9 -11 5 14.9389 0.0519
9 -11 6 -4.1710 -0.0303
9 -11 7 4.5293 -0.1077
9 -11 8 6.1723 -0.0279
9 -11 9 0.4779 0.0588
9 -11 10 -4.5541 0.0508
9 -11 11 -0.5274 -0.0559
9 -11 12 -5.8478 -0.0125
9 -11 13 -8.5325 -0.0366
9 -11 14 -1.9066 -0.0556
9 -11 15 -5.3103 0.0226
9 -11 16 -4.0274 0.0865
9 -11 17 -4.9301 0.1288
9 -11 18 -1.0991 -0.0897
9 -10 0 -6.4724 -0.2014
9 -10 1 -2.0650 -0.4826
9 -10 2 -3.5422 -0.1402
9 -10 3 -10.9598 0.2489
9 -10 4 -14.0364 0.2453
9 -10 5 -11.1214 -0.0873
9 -10 6 -17.3680 -0.1619
9 -10 7 -11.6130 -0.0095
9 -10 8 -8.3018 0.1271
9 -10 9 -6.5801 0.1044
9 -10 10 2.0184 0.0097
9 -10 11 -4.3381 -0.0271
9 -10 12 6.7984 -0.0539
9 -10 13 -2.6669 -0.0529
9 -10 14 -1.6777 -0.0023
9 -10 15 -0.7040 0.0799
9 -10 16 0.3022 0.1856
9 -10 17 1.3873 0.0561
9 -10 18 0.4405 -0.0096
9 -9 0 2.4011 -0.5716
9 -9 1 -9.8540 0.1616
9 -9 2 -14.8072 0.1892
9 -9 3 -6.1115 -0.1382
9 -9 4 -12.5714 -0.1854
9 -9 5 -5.6206 0.0317
9 -9 6 0.7143 0.1295
9 -9 7 -1.7547 0.0021
9 -9 8 6.5374 -0.0343
9 -9 9 -3.8639 0.0306
9 -9 10 6.6580 0.0336
9 -9 11 -0.1538 -0.0659
9 -9 12 1.4882 -0.0692
9 -9 13 5.8118 0.0340
9 -9 14 2.2835 0.0872
9 -9 15 4.0744 0.0151
9 -9 16 3.9541 -0.2339
9 -9 17 2.1803 -0.1336
9 -9 18 2.1152 -0.0344
9 -8 0 14.6100 1.6229
9 -8 1 5.4445 0.2811
9 -8 2 14.0212 -0.1994
9 -8 3 -6.1767 -0.1706
9 -8 4 19.4076 0.0367
9 -8 5 9.4153 0.0031
9 -8 6 4.3497 0.0540
9 -8 7 4.8007 0.0923
9 -8 8 1.3457 0.0087
9 -8 9 5.8638 -0.1400
9 -8 10 -1.9475 -0.0870
9 -8 11 8.4952 0.1198
9 -8 12 0.6325 0.1817
9 -8 13 3.8597 0.0084
9 -8 14 0.3614 -0.1319
9 -8 15 -0.2723 -0.0725
9 -8 16 -3.8883 0.0984
9 -8 17 1.8361 0.0617
9 -8 18 -0.8794 0.1997
9 -7 0 9.2546 -0.1070
9 -7 1 21.2052 -0.2008
9 -7 2 -0.6897 -0.0517
9 -7 3 8.9840 -0.0166
9 -7 4 -2.2305 -0.0290
9 -7 5 12.2513 0.0971
9 -7 6 7.1873 0.1026
9 -7 7 5.8327 -0.0415
9 -7 8 -2.7937 -0.0887
9 -7 9 9.3975 0.0098
9 -7 10 -5.3146 0.0784
9 -7 11 -0.0363 0.0030
9 -7 12 -0.6925 -0.0699
9 -7 13 -4.0187 0.0499
9 -7 14 -4.2782 0.0580
9 -7 15 -4.3104 -0.0551
9 -7 16 -0.8868 -0.0936
9 -7 17 0.0176 0.0961
9 -7 18 -0.2963 0.3449
9 -6 0 0.3288 -1.3079
9 -6 1 -3.7254 -0.2473
9 -6 2 -18.6050 0.0951
9 -6 3 -2.0283 0.1247
9 -6 4 -7.6098 0.0512
9 -6 5 -9.6045 -0.0710
9 -6 6 -1.1145 -0.1441
9 -6 7 -8.3959 -0.0138
9 -6 8 -7.9221 0.1115
9 -6 9 -7.5441 0.0541
9 -6 10 -0.0730 -0.0210
9 -6 11 -7.9845 -0.0342
9 -6 12 1.9451 -0.0218
9 -6 13 1.8792 -0.0573
9 -6 14 -0.8399 -0.0674
9 -6 15 -1.7213 0.1332
9 -6 16 -0.0350 0.3336
9 -6 17 1.5157 -0.0791
9 -5 0 1.2455 0.3498
9 -5 1 -14.0741 0.0020
9 -5 2 -7.6455 0.1431
9 -5 3 -22.4724 0.1484
9 -5 4 2.5687 -0.0071
9 -5 5 -22.2750 -0.1338
9 -5 6 -0.4077 -0.0907
9 -5 7 -7.1936 0.0203
9 -5 8 2.6169 0.0241
9 -5 9 -3.3991 0.0584
9 -5 10 -8.7696 0.0416
9 -5 11 5.9928 0.0402
9 -5 12 -4.8955 -0.0425
9 -5 13 4.1587 -0.0431
9 -5 14 1.5265 0.0604
9 -5 15 -1.7980 -0.0554
9 -5 16 2.5208 -0.1742
9 -5 17 1.2797 0.1997
9 -4 0 12.4236 -0.1184
9 -4 1 -5.5300 0.2402
9 -4 2 12.1430 -0.0375
9 -4 3 8.5221 -0.1759
9 -4 4 0.3629 -0.0268
9 -4 5 21.0956 0.1567
9 -4 7 6.0399 -0.0645
9 -4 8 -1.0399 -0.0293
9 -4 9 7.9604 -0.0196
9 -4 10 -4.1950 -0.0615
9 -4 11 -4.2033 -0.0370
9 -4 12 4.8465 0.0356
9 -4 13 -2.7087 0.0342
9 -4 14 4.3846 -0.0257
9 -4 15 -3.2070 -0.0476
9 -4 16 1.0703 0.0497
9 -3 0 25.8678 1.1625
9 -3 1 9.8698 -0.2611
9 -3 2 6.7911 -0.4199
9 -3 3 18.9421 -0.0874
9 -3 4 5.8822 0.0420
9 -3 5 -5.1125 -0.0213
9 -3 6 13.9975 0.0484
9 -3 7 -4.6165 0.1286
9 -3 8 -0.2093 -0.0098
9 -3 9 -1.4333 -0.0964
9 -3 10 4.4332 -0.0607
9 -3 11 -4.2211 -0.0106
9 -3 12 1.9529 0.0205
9 -3 13 2.7611 0.0135
9 -3 14 -0.7481 -0.0430
9 -3 15 -0.1070 -0.1098
9 -3 16 1.2068 -0.0890
9 -2 0 -14.1167 -0.5287
9 -2 1 13.2226 0.2804
9 -2 2 -16.9279 0.3313
9 -2 3 -0.8393 -0.0884
9 -2 4 0.8497 -0.1852
9 -2 5 1.2879 0.0073
9 -2 6 2.1563 0.0647
9 -2 7 4.6014 -0.0618
9 -2 8 2.7197 -0.0539
9 -2 9 -1.7543 0.0256
9 -2 10 1.1469 0.0298
9 -2 11 -0.5135 0.0968
9 -2 12 -0.3948 0.0520
9 -2 13 0.9576 -0.0636
9 -2 14 1.3441 0.0508
9 -2 15 -0.1394 0.2293
9 -1 0 -14.0565 -0.3010
9 -1 1 -13.0037 -0.1922
9 -1 2 5.2025 0.0070
9 -1 3 -6.0846 0.2056
9 -1 4 -2.5509 0.2198
9 -1 5 -2.8088 -0.0380
9 -1 6 -2.1140 -0.1781
9 -1 7 -5.5251 -0.0883
9 -1 8 -7.3559 0.0160
9 -1 9 2.8482 0.0841
9 -1 10 -10.7762 0.0588
9 -1 11 4.7551 -0.0415
9 -1 12 -2.3677 -0.0871
9 -1 13 1.1249 0.0859
9 -1 14 -3.4794 -0.1298
9 -1 15 0.6020 -0.4144
9 0 0 -6.1780 -0.5705
9 0 1 -3.0037 -0.3312
9 0 2 -11.6157 0.0161
9 0 3 2.9625 0.1023
9 0 4 -17.1236 -0.0170
9 0 5 1.1089 -0.0541
9 0 6 -0.4400 -0.0220
9 0 7 -2.4330 0.0336
9 0 8 -2.1371 0.0439
9 0 9 -0.0500 0.0152
9 0 10 1.1996 -0.0146
9 0 11 -4.7797 0.0284
9 0 12 2.6041 -0.0357
9 0 13 0.1217 -0.1022
9 0 14 0.9570 -0.0440
9 1 0 11.3105 0.6671
9 1 1 -7.1092 0.4349
9 1 2 12.5818 0.0050
9 1 3 -3.2914 -0.2297
9 1 4 13.8809 -0.1073
9 1 5 2.2899 0.0728
9 1 6 12.1223 0.1198
9 1 7 2.6265 0.0381
9 1 8 2.4606 0.0394
9 1 9 -0.0719 0.0526
9 1 10 1.6030 0.0146
9 1 11 4.6242 -0.1092
9 1 12 1.8177 -0.0389
9 1 13 -0.3675 0.0561
9 2 0 4.1267 1.3525
9 2 1 11.1868 0.0509
9 2 2 4.7028 -0.2124
9 2 3 2.7923 -0.0732
9 2 4 1.9109 0.0569
9 2 5 4.3033 0.0506
9 2 6 3.4272 0.0712
9 2 7 -0.3091 0.1177
9 2 8 4.3637 -0.0555
9 2 9 0.8029 -0.1864
9 2 10 0.0277 0.0375
9 2 11 2.2922 0.1101
9 2 12 -0.7115 -0.1188
9 2 13 -0.6160 -0.5346
9 3 0 -4.4449 -1.4891
9 3 1 -5.9637 -0.2384
9 3 2 -3.3431 0.1336
9 3 3 -2.1687 0.0208
9 3 4 -9.2785 0.0504
9 3 5 0.7079 0.0910
9 3 6 -2.3391 0.0148
9 3 7 0.8516 -0.0933
9 3 8 -3.3045 0.0429
9 3 9 0.6095 0.0854
9 3 10 -3.0772 -0.0957
9 3 11 0.6957 -0.1905
9 3 12 0.2053 0.1551
9 4 0 -5.1984 -0.0957
9 4 1 2.9839 -0.1603
9 4 2 -10.4014 0.0620
9 4 3 1.2682 0.2872
9 4 4 -7.9767 0.0509
9 4 5 -3.9524 -0.2166
9 4 6 -4.2384 -0.0967
9 4 7 -4.5747 0.1298
9 4 8 -4.6134 0.0461
9 4 9 -2.3835 0.0048
9 4 10 -1.7065 0.1650
9 4 11 0.6676 0.1581
9 5 0 -2.8157 -0.0959
9 5 1 2.0698 0.2539
9 5 2 -0.6958 0.1623
9 5 3 -4.4819 -0.0206
9 5 4 3.4048 -0.0226
9 5 5 0.6171 0.0341
9 5 6 2.5482 -0.0168
9 5 7 2.0811 -0.1074
9 5 8 4.2297 -0.0049
9 5 9 -3.6392 0.0851
9 5 10 2.3001 -0.0995
9 6 0 2.2820 0.7573
9 6 1 4.0075 -0.1072
9 6 2 6.5334 -0.3252
9 6 3 -0.6992 -0.1474
9 6 4 1.5383 0.1086
9 6 5 3.4049 0.0593
9 6 6 3.8289 0.0472
9 6 7 -1.5753 0.0144
9 6 8 2.1014 -0.1053
9 6 9 -1.7320 -0.1678
9 7 0 6.7833 0.2471
9 7 1 -0.0014 -0.0712
9 7 2 -2.3372 -0.0055
9 7 3 -1.7438 -0.0498
9 7 4 -0.6039 -0.0735
9 7 5 -3.3860 -0.0644
9 7 6 3.4233 0.0487
9 7 7 -0.9908 -0.0379
9 7 8 -0.7356 0.0884
9 8 0 -1.7533 -0.6248
9 8 1 -1.4824 0.2498
9 8 2 -3.7768 0.2305
9 8 3 -4.5979 0.0314
9 8 4 -1.7065 -0.0053
9 8 5 -0.0744 0.0216
9 8 6 -1.9012 0.0041
9 8 7 -0.5138 -0.1560
9 9 0 2.2949 -0.2150
9 9 1 0.1606 -0.4718
9 9 2 -1.4182 -0.0628
9 9 3 0.7265 0.1680
9 9 4 -2.7757 0.0926
9 9 5 3.0114 -0.1281
9 10 0 1.6828 -0.3910
9 10 1 -2.0353 0.0928
9 10 2 -2.9499 -0.0649
9 10 3 -0.1997 -0.1341
9 10 4 0.2206 -0.1273
9 11 0 -0.8203 1.1964
9 11 1 2.9336 0.0415
9 11 2 -0.9874 -0.1916
9 12 0 -0.5166 -0.3582
10 -20 9 0.1890 0.0138
10 -20 10 -0.6609 -0.0210
10 -20 11 -0.6795 -0.0455
10 -20 12 0.0372 0.0003
10 -19 2 -0.8790 0.1666
10 -19 3 -1.7114 -0.2183
10 -19 4 -2.0687 0.0156
10 -19 5 -1.8942 0.0986
10 -19 6 1.8778 -0.0148
10 -19 7 0.9478 -0.0896
10 -19 8 -2.0978 0.0447
10 -19 9 0.3053 -0.0033
10 -19 10 1.9982 0.1293
10 -19 11 -3.4071 -0.0686
10 -19 12 2.2437 -0.0191
10 -19 13 0.6771 -0.0426
10 -19 14 4.6746 -0.1571
10 -18 1 -0.4349 0.1983
10 -18 2 -1.8186 -0.1157
10 -18 3 -2.0539 0.0250
10 -18 4 4.7917 -0.0313
10 -18 5 -2.8247 0.1192
10 -18 6 0.5903 0.1020
10 -18 7 2.0487 -0.0092
10 -18 8 1.3607 -0.0140
10 -18 9 -1.4120 -0.0695
10 -18 10 2.3864 0.0249
10 -18 11 2.9729 -0.1165
10 -18 12 -1.9647 -0.1258
10 -18 13 4.9883 -0.0259
10 -18 14 -0.0937 0.0285
10 -18 15 -1.1079 0.2116
10 -17 0 0.9257 0.8774
10 -17 1 1.1741 -0.0112
10 -17 2 2.1946 -0.3060
10 -17 3 4.2771 -0.1612
10 -17 4 -1.4475 -0.0172
10 -17 5 2.9544 0.0652
10 -17 6 1.4926 0.0568
10 -17 7 0.0906 0.1302
10 -17 8 5.1570 0.0269
10 -17 9 -0.3965 -0.0398
10 -17 10 0.0188 -0.0804
10 -17 11 -1.7171 0.0821
10 -17 12 1.2479 0.0043
10 -17 13 -3.4970 0.0634
10 -17 14 4.7647 0.1456
10 -17 15 -0.6108 -0.0715
10 -17 16 2.1600 0.0071
10 -16 0 2.6458 -0.2055
10 -16 1 0.3980 0.3534
10 -16 2 -1.6227 0.2222
10 -16 3 2.6433 -0.1541
10 -16 4 1.3292 -0.1672
10 -16 5 -1.7264 0.0050
10 -16 6 2.2734 0.1418
10 -16 7 2.6702 -0.0593
10 -16 8 -3.6221 -0.0945
10 -16 9 3.1267 -0.0252
10 -16 10 -6.1319 0.0262
10 -16 11 -0.3269 -0.0391
10 -16 12 -0.1749 -0.0243
10 -16 13 1.4625 -0.0081
10 -16 14 -3.4144 0.0819
10 -16 15 0.8712 -0.1469
10 -16 16 -2.8207 0.0129
10 -16 17 -0.7176 -0.0139
10 -15 0 -4.3033 -0.2064
10 -15 1 1.5121 -0.1916
10 -15 2 -5.2533 0.0166
10 -15 3 -0.8886 0.2028
10 -15 4 -5.3301 0.2251
10 -15 5 -5.0776 -0.0554
10 -15 6 -7.2024 -0.1615
10 -15 7 -0.6190 -0.0390
10 -15 8 -5.6384 0.0478
10 -15 9 -4.5619 -0.0475
10 -15 10 3.2568 -0.0453
10 -15 11 -8.1124 0.0200
10 -15 12 -1.1344 0.0169
10 -15 13 -0.3344 -0.0387
10 -15 14 -0.3748 0.1210
10 -15 15 0.6996 0.0998
10 -15 16 3.0205 -0.0436
10 -15 17 2.2268 -0.2021
10 -14 0 -2.1797 -0.7612
10 -14 1 -2.7783 -0.2732
10 -14 2 -0.5830 0.1359
10 -14 3 -4.7709 0.1509
10 -14 4 -1.3859 0.0015
10 -14 5 -2.9044 -0.0974
10 -14 6 0.7666 0.0375
10 -14 7 2.3223 -0.0445
10 -14 8 5.7438 0.0332
10 -14 9 -3.3175 0.1671
10 -14 10 -1.7729 0.1228
10 -14 11 1.0016 -0.0265
10 -14 12 -0.9513 -0.0317
10 -14 13 1.3715 -0.0002
10 -14 14 2.1988 0.0421
10 -14 15 2.1462 0.0163
10 -14 16 2.9283 -0.1135
10 -14 17 1.1954 0.0613
10 -13 0 2.2177 0.6034
10 -13 1 0.6261 0.4507
10 -13 2 5.9248 -0.0170
10 -13 3 10.1577 -0.2092
10 -13 4 2.1167 -0.0807
10 -13 5 3.1443 -0.0115
10 -13 6 10.4593 -0.0292
10 -13 7 0.1415 0.0185
10 -13 8 5.9293 0.0534
10 -13 9 6.5710 -0.0313
10 -13 10 5.0699 -0.0431
10 -13 11 -1.8328 0.0666
10 -13 12 5.8762 0.0690
10 -13 13 -3.2443 -0.0160
10 -13 14 -3.0666 -0.0725
10 -13 15 -2.4421 -0.0228
10 -13 16 -0.5041 0.0620
10 -13 17 -4.0536 0.0544
10 -13 18 -1.3475 -0.0944
10 -12 0 12.7151 1.3387
10 -12 1 -2.3586 0.0548
10 -12 2 6.9299 -0.2220
10 -12 3 3.3348 -0.0840
10 -12 4 6.3720 0.0223
10 -12 5 -6.3211 0.0892
10 -12 6 6.1786 0.1049
10 -12 7 3.7435 0.0463
10 -12 8 -3.2565 -0.1127
10 -12 9 4.9226 -0.1045
10 -12 10 -0.8814 -0.0078
10 -12 11 -0.9635 0.0615
10 -12 12 -5.9021 0.0255
10 -12 13 1.1493 -0.0452
10 -12 14 -5.6472 -0.0469
10 -12 15 -0.1462 0.0027
10 -12 16 -2.6469 -0.1029
10 -12 17 -0.6521 -0.0128
10 -12 18 -3.7666 0.5068
10 -11 0 -9.9140 -1.1295
10 -11 1 2.9122 -0.1083
10 -11 2 -10.0454 0.1406
10 -11 3 0.6802 -0.0283
10 -11 4 -12.1659 0.0076
10 -11 5 1.8583 0.0851
10 -11 6 -13.4418 -0.0005
10 -11 7 -7.2336 -0.0247
10 -11 8 -8.9332 0.0192
10 -11 9 -2.1772 0.0582
10 -11 10 -6.1583 0.0320
10 -11 11 2.4541 -0.0850
10 -11 12 -1.3159 -0.0123
10 -11 13 -1.1591 0.0304
10 -11 14 4.1143 -0.0223
10 -11 15 0.4850 -0.0427
10 -11 16 2.7817 0.0521
10 -11 17 -0.2049 -0.0213
10 -11 18 -1.1522 -0.2909
10 -10 0 -13.5650 0.0100
10 -10 1 -2.6179 -0.2537
10 -10 2 3.4974 0.0533
10 -10 3 -6.2162 0.2503
10 -10 4 -4.5052 0.0335
10 -10 5 -4.8411 -0.2037
10 -10 6 -1.2426 -0.2103
10 -10 7 -0.2801 0.0490
10 -10 8 -2.5255 0.1066
10 -10 9 -0.9089 0.0479
10 -10 10 -0.1117 0.0062
10 -10 11 -2.1313 0.0033
10 -10 12 4.9538 -0.0197
10 -10 13 -2.1251 -0.0309
10 -10 14 1.5581 -0.0258
10 -10 15 3.1076 0.0883
10 -10 16 1.3094 0.0399
10 -10 17 0.2287 -0.2511
10 -10 18 -0.8989 -0.2342
10 -9 0 1.1219 -0.5422
10 -9 1 4.1844 0.2218
10 -9 2 5.9953 0.2050
10 -9 3 19.2872 -0.0385
10 -9 4 0.6481 -0.0486
10 -9 5 8.1460 0.0925
10 -9 6 8.1242 0.0840
10 -9 7 4.2852 -0.1180
10 -9 8 5.5521 -0.1252
10 -9 9 -2.5686 0.0393
10 -9 10 6.4955 0.1293
10 -9 11 -2.5109 -0.0443
10 -9 12 3.8754 -0.0917
10 -9 13 0.9649 0.0348
10 -9 14 -1.3110 0.0582
10 -9 15 -4.3180 -0.0686
10 -9 16 1.8188 -0.0032
10 -9 17 -3.3771 0.2133
10 -9 18 2.9942 0.1968
10 -8 0 7.2262 0.8355
10 -8 1 0.3587 -0.1633
10 -8 2 16.0031 -0.3227
10 -8 3 -6.0118 -0.0478
10 -8 4 9.1936 0.1253
10 -8 5 -2.1625 0.0500
10 -8 6 2.5678 -0.0025
10 -8 7 5.6168 0.1048
10 -8 8 6.7996 0.0748
10 -8 9 1.3647 -0.1278
10 -8 10 -0.9760 -0.1187
10 -8 11 2.8049 0.0488
10 -8 12 -3.5164 0.0870
10 -8 13 1.6521 -0.0770
10 -8 14 0.5207 -0.0634
10 -8 15 3.4732 0.0443
10 -8 16 -2.4182 -0.0323
10 -8 17 1.3805 -0.1205
10 -7 0 -10.8790 0.4933
10 -7 1 7.5106 0.1723
10 -7 2 -4.6964 0.0041
10 -7 3 -2.2613 -0.1764
10 -7 4 -7.0847 -0.1767
10 -7 5 8.2700 0.0001
10 -7 6 -3.1424 0.1246
10 -7 7 1.8272 0.0410
10 -7 8 -2.7033 -0.0436
10 -7 9 3.3999 -0.0195
10 -7 10 -5.2383 -0.0142
10 -7 11 -3.9682 -0.0386
10 -7 12 3.0555 -0.0051
10 -7 13 -0.3726 0.0730
10 -7 14 1.8977 0.0066
10 -7 15 1.6701 -0.1361
10 -7 16 -1.3913 -0.0396
10 -7 17 -1.3382 0.1724
10 -6 0 -8.7863 -0.4562
10 -6 1 6.6145 0.1864
10 -6 2 -3.9346 0.1586
10 -6 3 0.4390 0.0552
10 -6 4 -7.3934 0.0514
10 -6 5 -8.8067 0.0068
10 -6 6 -8.9484 -0.0805
10 -6 7 -3.6564 -0.0632
10 -6 8 -9.7275 0.0186
10 -6 9 -3.0694 0.0299
10 -6 10 3.5390 0.0038
10 -6 11 -5.8323 0.0745
10 -6 12 0.0005 0.0647
10 -6 13 2.2639 -0.0334
10 -6 14 -1.2686 -0.0552
10 -6 15 3.3398 0.0249
10 -6 16 -1.2752 -0.0650
10 -6 17 1.3081 -0.6011
10 -5 0 -1.3812 -0.4210
10 -5 1 11.3821 -0.5844
10 -5 2 -3.7265 -0.0602
10 -5 3 -5.1829 0.2609
10 -5 4 14.1996 0.1625
10 -5 5 -10.1073 -0.0678
10 -5 6 1.5528 -0.1215
10 -5 7 4.4478 -0.0486
10 -5 8 5.3285 0.0131
10 -5 9 0.6892 0.0667
10 -5 10 0.9888 0.0471
10 -5 11 2.5555 -0.0403
10 -5 12 -6.7536 -0.1113
10 -5 13 2.7410 -0.0571
10 -5 14 0.7536 0.0767
10 -5 15 -0.6514 0.0465
10 -5 16 -0.3533 0.0661
10 -4 0 -2.2792 -0.7117
10 -4 1 -1.7730 0.2150
10 -4 2 12.2428 0.1943
10 -4 3 1.5858 -0.1111
10 -4 4 3.9625 -0.1539
10 -4 5 12.3589 0.0098
10 -4 6 -4.4780 0.0726
10 -4 7 6.6093 0.0172
10 -4 8 -1.3136 0.0578
10 -4 9 3.8647 0.0432
10 -4 10 1.0636 -0.0114
10 -4 11 1.9010 -0.0452
10 -4 12 2.8116 -0.0385
10 -4 13 0.7863 -0.0179
10 -4 14 5.5759 -0.0361
10 -4 15 -0.8398 -0.1083
10 -4 16 -0.5908 0.1298
10 -3 0 17.2454 2.0757
10 -3 1 -7.4267 0.2745
10 -3 2 1.7947 -0.2841
10 -3 3 5.3917 -0.1042
10 -3 4 0.2430 -0.0062
10 -3 5 -2.4165 0.0214
10 -3 6 10.2727 0.0544
10 -3 7 -1.4713 0.0805
10 -3 8 1.6146 -0.0495
10 -3 9 1.1855 -0.1378
10 -3 10 4.6293 -0.0916
10 -3 11 -4.8121 0.0327
10 -3 12 -0.6490 0.0623
10 -3 13 -1.7772 0.0170
10 -3 14 0.2235 -0.0644
10 -3 15 -1.0128 -0.0842
10 -2 0 -0.9682 -0.3854
10 -2 1 10.3391 -0.0187
10 -2 2 -12.3428 0.0382
10 -2 3 4.2934 -0.1188
10 -2 4 1.4888 0.0010
10 -2 5 -9.6373 0.1514
10 -2 6 -2.3462 0.1513
10 -2 7 -0.6465 -0.0561
10 -2 8 -3.9592 -0.1199
10 -2 9 -8.2959 -0.0065
10 -2 10 1.6927 0.0336
10 -2 11 -5.8039 0.0224
10 -2 12 -2.4377 0.0150
10 -2 13 -1.5486 -0.0237
10 -2 14 0.1714 0.1715
10 -2 15 -2.1549 -0.1118
10 -1 0 -5.7673 -0.6588
10 -1 1 -2.2900 -0.2287
10 -1 2 3.5362 -0.0057
10 -1 3 -10.1218 0.1628
10 -1 4 2.4342 0.1103
10 -1 5 -6.4427 -0.1237
10 -1 6 -5.7176 -0.2146
10 -1 7 1.8489 0.0338
10 -1 8 -3.8637 0.1495
10 -1 9 3.9725 0.1384
10 -1 10 -5.8447 -0.0139
10 -1 11 3.1105 -0.0268
10 -1 12 -2.8600 0.0486
10 -1 13 1.6803 -0.0416
10 -1 14 -0.6109 -0.0098
10 0 0 -4.9919 -0.0959
10 0 1 4.1886 0.1024
10 0 2 -3.1168 0.2443
10 0 3 13.2542 0.1368
10 0 4 -3.6953 -0.0764
10 0 5 7.8821 -0.1270
10 0 6 3.3254 -0.0556
10 0 7 4.7472 -0.0329
10 0 8 -1.1250 -0.0615
10 0 9 5.3878 0.0179
10 0 10 4.7455 0.1005
10 0 11 -1.6135 0.0150
10 0 12 2.4166 -0.0229
10 0 13 0.4635 0.0176
10 1 0 10.6797 0.0684
10 1 1 0.0763 0.1787
10 1 2 7.8609 -0.0591
10 1 3 2.2858 -0.1098
10 1 4 8.0186 0.0608
10 1 5 -4.9393 0.1530
10 1 6 4.8004 0.0082
10 1 7 1.3618 -0.0829
10 1 8 -0.0641 0.0073
10 1 9 3.4401 0.0417
10 1 10 2.6549 -0.0268
10 1 11 -0.7978 0.0142
10 1 12 1.2500 0.1165
10 1 13 0.6352 0.1837
10 2 0 1.0840 1.0696
10 2 1 0.8277 -0.2534
10 2 2 -1.3920 -0.3233
10 2 3 -6.7649 -0.1013
10 2 4 -1.4427 -0.0226
10 2 5 -7.4675 0.0234
10 2 6 -3.1546 0.1044
10 2 7 -4.4249 0.1237
10 2 8 0.4351 -0.0269
10 2 9 -3.2960 -0.0366
10 2 10 0.0010 0.0672
10 2 11 0.3794 -0.0907
10 2 12 -0.4539 -0.1479
10 3 0 -1.8936 -0.5269
10 3 1 -8.3882 0.3469
10 3 2 6.4828 0.2395
10 3 3 0.6149 -0.1310
10 3 4 -1.9648 -0.0966
10 3 5 -1.9289 0.0039
10 3 6 -4.0465 -0.0066
10 3 7 -3.3881 -0.0147
10 3 8 -2.4841 0.0886
10 3 9 2.5137 -0.0359
10 3 10 -3.9641 -0.0056
10 3 11 -0.1944 0.1930
10 4 0 -0.0791 -0.1331
10 4 1 3.8969 -0.3137
10 4 2 -1.6228 -0.1133
10 4 3 10.3103 0.2922
10 4 4 -1.2071 0.1759
10 4 5 1.7204 -0.0182
10 4 6 -0.2491 -0.0637
10 4 7 4.8769 -0.1143
10 4 8 0.1640 0.0176
10 4 9 4.4615 0.0883
10 4 10 -1.7737 0.1299
10 5 0 -5.1598 -0.9953
10 5 1 2.3615 -0.1933
10 5 2 1.9804 0.0376
10 5 3 1.6428 0.0580
10 5 4 2.0373 -0.0152
10 5 5 0.0002 -0.0434
10 5 6 -0.9336 0.0195
10 5 7 0.5614 0.0383
10 5 8 2.8659 0.0710
10 5 9 -0.2618 -0.1337
10 6 0 -2.4405 0.9504
10 6 1 2.7312 0.3502
10 6 2 4.7172 -0.0941
10 6 3 0.2396 -0.1429
10 6 4 -1.6838 -0.0367
10 6 5 -1.0980 0.0259
10 6 6 -1.0502 -0.0198
10 6 7 -1.6670 -0.1227
10 6 8 3.2518 -0.0088
10 7 0 1.0280 0.7477
10 7 1 -2.1624 0.0595
10 7 2 2.6657 -0.0397
10 7 3 -0.9197 -0.0393
10 7 4 -0.4822 -0.0645
10 7 5 -4.6916 -0.0986
10 7 6 2.7135 0.1483
10 7 7 -2.0711 0.2041
10 8 0 -0.3521 -0.9604
10 8 1 3.7829 -0.1540
10 8 2 1.6995 0.0037
10 8 3 1.4133 0.0448
10 8 4 2.1242 0.0860
10 8 5 -3.1878 0.0001
10 9 0 -0.4698 -0.0778
10 9 1 1.4315 -0.1768
10 9 2 1.3777 -0.0168
10 9 3 -1.3162 0.0424
10 9 4 -2.9584 0.0186
10 10 0 2.2248 -0.3232
10 10 1 0.9348 0.2449
10 10 2 1.7749 0.1850
10 11 0 0.8001 0.8958
10 11 1 3.8002 -0.0222
11 -20 10 -0.9854 -0.3485
11 -19 3 -1.4300 0.1278
11 -19 4 0.0280 0.2779
11 -19 5 0.4221 0.0707
11 -19 6 0.0966 0.1608
11 -19 7 -0.2533 0.1071
11 -19 8 0.8112 0.1439
11 -19 9 1.3831 0.0626
11 -19 10 2.5211 0.0293
11 -19 11 -0.7152 -0.1074
11 -19 12 1.6539 -0.1319
11 -19 13 -1.8111 -0.1278
11 -18 0 -0.8179 -0.2013
11 -18 1 0.5168 0.0884
11 -18 2 0.5959 0.0943
11 -18 3 -1.7125 -0.0846
11 -18 4 4.6735 -0.1190
11 -18 5 1.3640 -0.1073
11 -18 6 1.4056 0.1158
11 -18 7 4.0556 0.0633
11 -18 8 3.8693 0.1274
11 -18 9 -1.3260 -0.0389
11 -18 10 2.8362 0.0050
11 -18 11 2.0529 -0.0663
11 -18 12 -3.6070 -0.0143
11 -18 13 2.1947 0.0509
11 -18 14 0.5331 -0.0313
11 -18 15 3.3432 0.1658
11 -17 0 0.8344 1.2312
11 -17 1 -2.2910 0.1824
11 -17 2 1.7864 -0.2646
11 -17 3 -0.2270 -0.0399
11 -17 4 0.7531 0.0028
11 -17 5 2.1038 0.0160
11 -17 6 -2.6908 0.0124
11 -17 7 -4.4528 0.0664
11 -17 8 4.7429 0.0198
11 -17 9 -5.0152 -0.0531
11 -17 10 -0.1664 0.0196
11 -17 11 -0.3365 0.0975
11 -17 12 0.0371 0.0304
11 -17 13 -5.7810 0.0228
11 -17 14 1.8945 -0.1520
11 -17 15 -3.3294 -0.0825
11 -17 16 -2.2030 0.1056
11 -16 0 0.6326 -0.2829
11 -16 1 -4.6337 0.1589
11 -16 2 -3.2804 -0.0281
11 -16 3 -3.2712 -0.1458
11 -16 4 -1.7872 -0.0063
11 -16 5 -6.5471 0.1894
11 -16 6 -3.5807 0.1201
11 -16 7 -4.1701 -0.0624
11 -16 8 -6.5067 -0.0859
11 -16 9 1.8954 0.0081
11 -16 10 -7.2734 -0.0448
11 -16 11 -0.0049 -0.1454
11 -16 12 -2.8717 -0.0753
11 -16 13 -4.1079 0.0676
11 -16 14 -1.0910 0.1317
11 -16 15 2.1039 0.0675
11 -16 16 -0.6649 0.1123
11 -15 0 -3.1425 -0.3025
11 -15 1 1.9849 -0.1224
11 -15 2 -6.1062 -0.0695
11 -15 3 0.6497 0.1671
11 -15 4 -0.5740 0.0593
11 -15 5 3.6614 -0.1466
11 -15 6 -5.0098 -0.1398
11 -15 7 7.5844 0.0396
11 -15 8 -1.1180 0.0865
11 -15 9 3.1981 -0.0084
11 -15 10 6.8518 -0.0986
11 -15 11 -0.0149 -0.0435
11 -15 12 1.2910 0.0779
11 -15 13 3.9239 0.0447
11 -15 14 -0.7038 -0.0196
11 -15 15 0.3189 -0.0755
11 -15 16 0.4610 -0.0031
11 -15 17 0.3497 -0.1759
11 -14 0 -2.6717 -0.5210
11 -14 1 4.8868 0.0473
11 -14 2 4.0053 0.3082
11 -14 3 1.2850 0.1224
11 -14 4 8.8715 -0.1031
11 -14 5 6.4075 -0.1324
11 -14 6 1.3910 -0.0330
11 -14 7 6.6265 -0.0585
11 -14 8 7.1162 -0.0990
11 -14 9 -0.4508 0.0038
11 -14 10 7.4101 0.0956
11 -14 11 6.4594 0.0405
11 -14 12 0.4832 -0.0401
11 -14 13 1.8939 -0.0500
11 -14 14 1.9910 0.0970
11 -14 15 -2.4423 0.0401
11 -14 16 -0.6433 -0.0587
11 -14 17 -1.0390 -0.0388
11 -13 0 -1.3096 -0.1150
11 -13 1 4.0076 0.0093
11 -13 2 -0.2902 -0.0504
11 -13 3 0.5672 -0.0056
11 -13 4 -1.5313 0.1283
11 -13 5 -1.2531 0.1755
11 -13 6 0.3743 -0.0049
11 -13 7 -4.2263 -0.0496
11 -13 8 4.4357 0.0326
11 -13 9 -4.2400 0.0642
11 -13 10 1.8294 0.0017
11 -13 11 -2.2911 0.0307
11 -13 12 3.0534 0.0433
11 -13 13 -1.8682 0.0633
11 -13 14 0.7758 -0.0014
11 -13 15 -0.7358 -0.0228
11 -13 16 2.2054 0.1811
11 -13 17 -0.0480 -0.1191
11 -12 0 7.6853 0.9316
11 -12 1 -12.6941 -0.0946
11 -12 2 0.3544 -0.2608
11 -12 3 -7.6398 -0.1096
11 -12 4 1.0115 -0.0709
11 -12 5 -15.2286 -0.0557
11 -12 6 -1.6037 0.0279
11 -12 7 -5.4253 0.1059
11 -12 8 -7.2157 0.0121
11 -12 9 -4.9563 -0.1211
11 -12 10 -1.9786 -0.0440
11 -12 11 -1.4004 0.0319
11 -12 12 -3.1559 0.0030
11 -12 13 4.8424 -0.0714
11 -12 14 -2.8115 0.0007
11 -12 15 1.2837 -0.0855
11 -12 16 -0.5645 -0.0640
11 -12 17 2.6115 0.0861
11 -11 0 0.3755 -0.1860
11 -11 1 7.0523 0.4890
11 -11 2 -11.3673 0.2371
11 -11 3 5.5479 -0.2087
11 -11 4 -4.6167 -0.2200
11 -11 5 5.4968 0.0232
11 -11 6 -6.5148 0.1172
11 -11 7 3.3654 -0.0353
11 -11 8 -1.6282 -0.0245
11 -11 9 0.2793 0.0541
11 -11 10 -2.3362 0.0209
11 -11 11 3.9720 0.0411
11 -11 12 -3.1281 0.0808
11 -11 13 -0.7420 -0.0098
11 -11 14 1.2734 -0.0367
11 -11 15 -2.4421 -0.0280
11 -11 16 1.6505 0.1865
11 -11 17 4.4776 0.0551
11 -10 0 -6.6214 0.0126
11 -10 1 0.2896 -0.4118
11 -10 2 5.6793 -0.1841
11 -10 3 -1.4845 0.2568
11 -10 4 8.7358 0.2651
11 -10 5 4.1758 -0.0474
11 -10 6 4.8983 -0.1811
11 -10 7 5.0098 -0.0005
11 -10 8 3.9462 0.0369
11 -10 9 6.0509 -0.0061
11 -10 10 2.0473 -0.0110
11 -10 11 2.4400 0.0142
11 -10 12 3.9473 -0.0212
11 -10 13 -0.4499 -0.0588
11 -10 14 -0.5920 -0.0182
11 -10 15 3.6621 0.0565
11 -10 16 -0.9483 -0.0768
11 -10 17 3.2691 -0.1218
11 -9 0 -4.5130 -1.5114
11 -9 1 -3.5795 -0.2286
11 -9 2 -4.2562 0.2282
11 -9 3 9.7652 0.0549
11 -9 4 -6.5929 -0.0744
11 -9 5 2.2525 -0.0343
11 -9 6 1.3858 0.0214
11 -9 7 5.8128 -0.0821
11 -9 8 4.0445 0.0261
11 -9 9 2.2836 0.1828
11 -9 10 6.4427 0.0768
11 -9 11 -1.0451 -0.0925
11 -9 12 6.3189 -0.0630
11 -9 13 4.6614 0.0558
11 -9 14 2.5015 0.0854
11 -9 15 -2.4882 -0.0043
11 -9 16 4.7661 0.0838
11 -9 17 -4.3274 -0.0354
11 -8 0 6.9817 0.9985
11 -8 1 -9.1176 0.2589
11 -8 2 6.7114 -0.1071
11 -8 3 -3.7577 -0.0492
11 -8 4 3.0530 -0.0644
11 -8 5 -5.3553 -0.0781
11 -8 6 -1.6308 -0.0236
11 -8 7 -5.3937 0.0989
11 -8 8 -1.8513 0.0407
11 -8 9 -6.4949 -0.0943
11 -8 10 -2.8544 -0.0203
11 -8 11 -0.5451 0.0531
11 -8 12 -6.3272 0.0513
11 -8 13 -0.2355 -0.0169
11 -8 14 -3.5429 -0.0722
11 -8 15 -3.6378 -0.0353
11 -8 16 -1.5635 0.0164
11 -8 17 0.3739 0.0634
11 -7 0 -1.2908 0.8640
11 -7 1 -1.3630 0.1537
11 -7 2 -2.0174 -0.1294
11 -7 3 -1.0732 -0.2074
11 -7 4 -10.5102 -0.0554
11 -7 5 0.1902 0.1782
11 -7 6 -8.8010 0.1397
11 -7 7 -11.8659 -0.0271
11 -7 8 -3.0230 -0.1496
11 -7 9 -5.0408 -0.1164
11 -7 10 -3.8239 0.0002
11 -7 11 -3.9400 0.0163
11 -7 12 0.1355 0.0303
11 -7 13 -5.7818 0.0651
11 -7 14 0.5376 0.0353
11 -7 15 0.0816 -0.1139
11 -7 16 1.9504 -0.0436
11 -6 0 -7.0204 -0.8198
11 -6 1 -9.5158 -0.1494
11 -6 2 0.8423 -0.0253
11 -6 3 -5.5454 0.0013
11 -6 4 -5.9151 0.0433
11 -6 5 7.2239 0.0187
11 -6 6 6.1504 -0.0275
11 -6 7 2.4483 0.0141
11 -6 8 -0.0669 0.0539
11 -6 9 1.2763 0.0654
11 -6 10 0.8343 -0.0297
11 -6 11 -1.4067 0.0214
11 -6 12 0.0660 0.0262
11 -6 13 0.8331 -0.0586
11 -6 14 -3.3885 -0.0631
11 -6 15 2.0046 0.0367
11 -6 16 -1.7975 0.0464
11 -5 0 -11.7441 0.0046
11 -5 1 6.6020 -0.2011
11 -5 2 -3.3855 0.0423
11 -5 3 2.7521 0.2491
11 -5 4 13.5980 0.0494
11 -5 5 1.5960 -0.2006
11 -5 6 5.0999 -0.1578
11 -5 7 6.7845 0.0149
11 -5 8 2.2542 0.1115
11 -5 9 -1.7144 0.0388
11 -5 10 3.9502 0.0219
11 -5 11 8.3996 -0.0131
11 -5 12 -0.4019 -0.0582
11 -5 13 4.7473 -0.0695
11 -5 14 2.1978 0.0510
11 -5 15 1.2781 -0.0327
11 -5 16 1.5373 -0.3931
11 -4 0 -0.3974 -0.8738
11 -4 1 10.1668 0.2742
11 -4 2 8.9137 0.3220
11 -4 3 -6.7780 -0.0334
11 -4 4 1.1266 -0.0806
11 -4 5 9.2670 0.0540
11 -4 6 -4.8993 0.0410
11 -4 7 7.5144 -0.0733
11 -4 8 2.7311 -0.0805
11 -4 9 0.4793 0.0350
11 -4 10 -0.7872 0.0383
11 -4 11 1.7922 0.0059
11 -4 12 -4.5753 0.0220
11 -4 13 -3.1480 -0.0367
11 -4 14 1.0503 -0.0868
11 -4 15 0.0852 0.0442
11 -3 0 5.9710 1.1271
11 -3 1 -10.0065 -0.2498
11 -3 2 -0.1736 -0.4693
11 -3 3 -5.3621 -0.0415
11 -3 4 -9.0484 0.1275
11 -3 5 -4.7413 0.0799
11 -3 6 -2.6494 0.0097
11 -3 7 -8.6430 0.0524
11 -3 8 -4.9918 0.0465
11 -3 9 -6.8185 -0.0424
11 -3 10 -3.2071 -0.1018
11 -3 11 -2.0829 -0.0032
11 -3 12 -0.9567 0.0402
11 -3 13 -3.6796 0.1147
11 -3 14 -0.0401 -0.0355
11 -3 15 0.2109 0.0115
11 -2 0 -4.3781 0.1388
11 -2 1 1.9869 0.3186
11 -2 2 -11.6919 0.1646
11 -2 3 3.3919 -0.2372
11 -2 4 -1.1804 -0.2418
11 -2 5 -4.9446 0.0314
11 -2 6 3.3519 0.1719
11 -2 7 -0.9240 0.0002
11 -2 8 1.8715 -0.0802
11 -2 9 -5.5951 -0.0085
11 -2 10 5.5045 0.0038
11 -2 11 -0.9964 0.0154
11 -2 12 2.1871 -0.0871
11 -2 13 -0.2232 0.0011
11 -2 14 0.2563 0.0064
11 -1 0 -5.9516 0.0317
11 -1 1 2.9205 0.1102
11 -1 2 2.3558 -0.0024
11 -1 3 -7.2034 0.0934
11 -1 4 12.4047 0.1135
11 -1 5 2.8695 0.0230
11 -1 6 0.4497 -0.0807
11 -1 7 8.5232 -0.0149
11 -1 8 2.8653 -0.0160
11 -1 9 1.7454 0.0387
11 -1 10 0.5101 -0.0047
11 -1 11 7.7822 0.0067
11 -1 12 0.1662 0.0135
11 -1 13 2.8342 0.0239
11 0 0 -6.1540 -0.8788
11 0 1 4.5144 -0.5369
11 0 2 -1.0181 0.0448
11 0 3 1.7317 0.2629
11 0 4 -3.8080 0.1331
11 0 5 8.7422 -0.0334
11 0 6 -1.8098 -0.0609
11 0 7 4.2091 0.0087
11 0 8 -0.1550 0.0254
11 0 9 1.6084 -0.0023
11 0 10 1.2533 0.0592
11 0 11 2.2172 0.0345
11 0 12 2.1238 -0.0886
11 1 0 3.2893 -0.5410
11 1 1 0.0098 0.2018
11 1 2 -5.8781 0.1245
11 1 3 -3.7773 -0.0703
11 1 4 -1.1406 -0.1342
11 1 5 -2.1994 -0.1033
11 1 6 -0.2584 -0.0590
11 1 7 -0.3239 0.0092
11 1 8 -7.7325 0.0472
11 1 9 -2.5157 0.0602
11 1 10 0.0430 -0.0058
11 1 11 -2.3803 -0.0548
11 1 12 -0.2199 -0.0365
11 2 0 -0.8398 1.8632
11 2 1 3.6420 0.2353
11 2 2 -1.8076 -0.2307
11 2 3 -3.3135 -0.1389
11 2 4 5.5830 0.0005
11 2 5 -0.0180 0.0118
11 2 6 -2.0313 -0.0056
11 2 7 -3.1091 0.0473
11 2 8 -0.6356 -0.0516
11 2 9 -5.7970 -0.0202
11 2 10 0.8234 0.0224
11 2 11 -2.2158 0.1003
11 3 0 5.1875 -0.5970
11 3 1 -9.3849 0.0138
11 3 2 1.8176 0.0024
11 3 3 -5.7386 -0.1402
11 3 4 1.2835 -0.0028
11 3 5 2.6425 0.1178
11 3 6 3.1576 0.1210
11 3 7 -0.9774 0.0843
11 3 8 -0.3309 -0.0819
11 3 9 2.0372 0.0602
11 3 10 0.7242 0.0935
11 4 0 -0.0776 -0.3069
11 4 1 -4.4566 -0.3268
11 4 2 -6.7862 -0.1153
11 4 3 3.0679 0.1306
11 4 4 -0.4540 0.1025
11 4 5 3.5693 -0.1226
11 4 6 -0.8953 -0.2033
11 4 7 1.2108 0.0460
11 4 8 -3.4827 0.1322
11 4 9 4.2710 -0.0101
11 5 0 4.5712 -0.5359
11 5 1 3.5400 0.1149
11 5 2 -2.1539 0.3288
11 5 3 2.2259 0.0964
11 5 4 0.8852 -0.0876
11 5 5 0.9374 -0.0554
11 5 6 0.0031 0.0335
11 5 7 0.9740 -0.0480
11 5 8 -2.1560 -0.2218
11 6 0 -4.3035 0.2915
11 6 1 1.0986 -0.0682
11 6 2 -1.2520 -0.2146
11 6 3 0.8464 -0.0446
11 6 4 1.0947 0.1674
11 6 5 3.1422 0.1560
11 6 6 -1.7440 -0.1100
11 6 7 -2.2564 -0.0949
11 7 0 0.4171 0.6502
11 7 1 -6.2895 -0.1026
11 7 2 0.9139 -0.1317
11 7 3 -1.1571 0.0279
11 7 4 0.2741 -0.1010
11 7 5 -1.1808 0.0485
11 7 6 1.2881 0.1821
11 8 0 -4.0977 -0.1963
11 8 1 -2.4185 0.2846
11 8 2 -3.9008 0.0607
11 8 3 -0.4585 -0.0790
11 8 4 2.9974 -0.0753
11 9 0 -1.0616 0.0947
11 9 1 -0.1694 -0.0845
11 9 2 2.9471 -0.2219
11 10 0 0.1725 -1.2397
11 10 1 -1.3371 0.0358
12 -19 6 2.8345 -0.0315
12 -19 7 0.2123 0.1196
12 -19 8 1.1814 0.0420
12 -19 9 3.6012 0.1228
12 -19 10 1.3040 -0.1013
12 -19 11 0.4560 -0.0994
12 -18 1 2.8116 -0.1442
12 -18 2 0.8800 0.2871
12 -18 3 1.3325 0.0340
12 -18 4 0.4148 0.0154
12 -18 5 0.1881 -0.1560
12 -18 6 -1.3698 0.0269
12 -18 7 -1.5704 0.0635
12 -18 8 -2.0565 -0.0701
12 -18 9 -2.3888 0.1267
12 -18 10 -0.1105 0.1599
12 -18 11 0.0177 0.1786
12 -18 12 -3.4799 0.0439
12 -18 13 -0.3343 -0.0754
12 -18 14 -5.7606 -0.0155
12 -17 0 0.9030 0.4375
12 -17 1 -1.6128 -0.1486
12 -17 2 0.2850 -0.2028
12 -17 3 -3.3217 -0.1865
12 -17 4 -4.0360 0.0386
12 -17 5 -0.3478 0.0418
12 -17 6 -1.6049 0.0095
12 -17 7 -6.5406 0.0311
12 -17 8 3.2922 0.0746
12 -17 9 -6.9285 -0.0197
12 -17 10 -1.5465 0.0076
12 -17 11 -1.8177 -0.1320
12 -17 12 -0.5457 -0.2077
12 -17 13 -2.9408 -0.1965
12 -17 14 0.7028 -0.0320
12 -17 15 0.3307 0.0606
12 -16 0 4.0141 0.2527
12 -16 1 -4.2241 0.1917
12 -16 2 1.7929 0.1096
12 -16 3 0.0618 -0.1898
12 -16 4 0.9593 -0.1696
12 -16 5 -1.6125 0.0807
12 -16 6 6.9578 0.1839
12 -16 7 -0.7175 0.1053
12 -16 8 2.8501 -0.0451
12 -16 9 5.0471 -0.0306
12 -16 10 -4.5392 -0.0326
12 -16 11 4.5481 -0.0622
12 -16 12 3.7132 0.0530
12 -16 13 -2.8660 0.1976
12 -16 14 1.4378 0.0435
12 -16 15 2.6694 -0.1083
12 -16 16 1.0456 -0.0368
12 -15 0 0.9393 0.2419
12 -15 1 0.1342 0.1421
12 -15 2 0.0496 -0.1631
12 -15 3 4.9740 -0.0109
12 -15 4 -1.4345 0.1719
12 -15 5 4.0467 0.0389
12 -15 6 -2.2891 -0.0495
12 -15 7 5.5709 -0.0534
12 -15 8 -2.3264 0.0115
12 -15 9 4.2940 -0.0674
12 -15 10 0.4639 0.0035
12 -15 11 1.8239 0.0949
12 -15 12 2.8984 0.0950
12 -15 13 3.7407 0.0389
12 -15 14 -0.8168 -0.0395
12 -15 15 3.7706 0.0330
12 -15 16 0.6805 0.0393
12 -14 0 -1.1883 -1.0157
12 -14 1 3.1753 -0.4501
12 -14 2 2.6447 0.1287
12 -14 3 -0.9782 0.2669
12 -14 4 -0.6550 -0.0256
12 -14 5 1.0425 -0.1285
12 -14 6 -6.7038 -0.0831
12 -14 7 1.0467 -0.0662
12 -14 8 0.7233 -0.0533
12 -14 9 -0.5206 0.0476
12 -14 10 -0.1347 0.0495
12 -14 11 -0.8971 -0.0714
12 -14 12 -3.2795 -0.1717
12 -14 13 -3.1515 -0.0651
12 -14 14 0.9594 0.1492
12 -14 15 -1.5666 0.1564
12 -14 16 0.5429 -0.0672
12 -13 0 -8.1641 -0.4401
12 -13 1 4.4729 0.1379
12 -13 2 1.2873 0.1120
12 -13 3 2.6099 0.0667
12 -13 4 -2.6366 0.0324
12 -13 5 1.6244 -0.0006
12 -13 6 -4.1551 -0.1400
12 -13 7 -8.0653 0.0071
12 -13 8 1.2909 0.1089
12 -13 9 -8.0799 0.0666
12 -13 10 -5.2133 -0.0265
12 -13 11 -6.5916 0.0224
12 -13 12 -0.4898 -0.0056
12 -13 13 -5.7000 0.0232
12 -13 14 -0.4259 -0.0952
12 -13 15 -1.5565 -0.0818
12 -13 16 -0.3355 -0.0444
12 -13 17 -2.2721 0.0970
12 -12 0 6.6605 1.4855
12 -12 1 -9.0688 0.2221
12 -12 2 9.0395 -0.1363
12 -12 3 -3.6414 -0.0601
12 -12 4 5.8685 -0.0601
12 -12 5 -4.1146 0.0647
12 -12 6 5.4665 0.0429
12 -12 7 -3.1781 -0.0105
12 -12 8 2.3084 -0.1287
12 -12 9 -0.4006 -0.1301
12 -12 10 0.0849 0.0510
12 -12 11 -2.8574 0.0948
12 -12 12 -2.2683 0.0810
12 -12 13 0.5713 -0.0658
12 -12 14 -2.1494 -0.0631
12 -12 15 1.6865 0.0038
12 -12 16 1.1558 0.0227
12 -12 17 1.3366 0.1893
12 -11 0 -1.7675 -0.3779
12 -11 1 2.3712 0.0810
12 -11 2 -12.6384 -0.0980
12 -11 3 5.2377 -0.2286
12 -11 4 -5.2069 -0.1034
12 -11 5 3.3295 0.1218
12 -11 6 -1.9380 0.1152
12 -11 7 0.9186 -0.0247
12 -11 8 1.9822 -0.0634
12 -11 9 1.0801 0.0021
12 -11 10 -0.2227 0.0024
12 -11 11 4.3087 -0.0294
12 -11 12 -0.8670 -0.0120
12 -11 13 3.1200 0.0887
12 -11 14 6.0700 0.0576
12 -11 15 -1.5517 -0.0718
12 -11 16 0.1081 -0.0109
12 -11 17 1.1285 -0.0679
12 -10 0 -2.2325 0.0842
12 -10 1 1.8567 -0.2340
12 -10 2 0.7362 -0.1018
12 -10 3 -5.3821 0.1485
12 -10 4 6.5778 0.0770
12 -10 5 0.4108 -0.1028
12 -10 6 3.6150 -0.1154
12 -10 7 1.1338 0.1032
12 -10 8 2.4405 0.1463
12 -10 9 5.4153 -0.0101
12 -10 10 0.2563 -0.0530
12 -10 11 4.8345 -0.0116
12 -10 12 2.2861 0.0121
12 -10 13 0.1495 -0.1097
12 -10 14 -0.1393 -0.0427
12 -10 15 3.6550 0.1575
12 -10 16 -5.8147 0.0190
12 -9 0 1.2145 -0.8500
12 -9 1 7.9419 0.1461
12 -9 2 0.2014 0.4480
12 -9 3 7.6737 0.1657
12 -9 4 -3.3097 -0.0137
12 -9 5 1.1377 -0.0720
12 -9 6 -4.6329 -0.0317
12 -9 7 0.3550 -0.0684
12 -9 8 -6.8879 -0.0333
12 -9 9 -2.1650 0.1040
12 -9 10 -6.0000 0.0867
12 -9 11 -9.8369 -0.0375
12 -9 12 -5.9629 -0.0510
12 -9 13 -4.3669 0.0126
12 -9 14 -3.0278 0.0059
12 -9 15 -2.2308 -0.0854
12 -9 16 1.5048 -0.0583
12 -8 0 5.6561 0.1328
12 -8 1 -3.7354 -0.1960
12 -8 2 -1.1788 -0.2269
12 -8 3 -0.6769 0.0421
12 -8 4 1.5846 0.1385
12 -8 5 -6.7165 0.0636
12 -8 6 -4.0972 -0.0325
12 -8 7 1.3021 -0.0177
12 -8 8 -2.1445 0.0597
12 -8 9 -1.8433 -0.0006
12 -8 10 -2.6609 -0.0532
12 -8 11 -0.4439 0.0003
12 -8 12 -5.4427 0.0390
12 -8 13 3.1091 -0.0233
12 -8 14 1.5356 -0.0045
12 -8 15 -0.1777 0.1086
12 -8 16 -0.3733 0.0700
12 -7 0 -3.2269 0.6566
12 -7 1 -1.7094 -0.0034
12 -7 2 -10.1274 -0.1655
12 -7 3 4.1065 -0.1490
12 -7 4 -6.2279 -0.1301
12 -7 5 1.9078 0.0266
12 -7 6 1.9762 0.1133
12 -7 7 -0.8087 0.0601
12 -7 8 8.2532 -0.0859
12 -7 9 1.4036 -0.0336
12 -7 10 3.9895 0.0467
12 -7 11 0.1521 -0.0161
12 -7 12 5.3316 0.0151
12 -7 13 -1.4306 0.1367
12 -7 14 4.5861 0.0288
12 -7 15 -0.5587 -0.1313
12 -7 16 -1.2623 0.0560
12 -6 0 4.5640 0.2024
12 -6 1 -6.5705 0.5103
12 -6 2 7.8855 0.1249
12 -6 3 5.2180 -0.2243
12 -6 4 -0.3947 -0.1168
12 -6 5 2.1760 0.0730
12 -6 6 6.6221 0.0452
12 -6 7 -0.5364 -0.0064
12 -6 8 8.3772 -0.0263
12 -6 9 7.4297 -0.0324
12 -6 10 1.5247 -0.0600
12 -6 11 2.9059 0.0997
12 -6 12 6.2895 0.0871
12 -6 13 2.4598 -0.0051
12 -6 14 -1.3264 0.0177
12 -6 15 4.4990 0.0664
12 -5 0 5.4933 0.0857
12 -5 1 10.2679 -0.4084
12 -5 2 1.8567 -0.1730
12 -5 3 4.9179 0.3300
12 -5 4 0.1444 0.2194
12 -5 5 -6.5865 -0.0390
12 -5 6 1.8740 -0.0599
12 -5 7 3.3881 -0.0141
12 -5 8 2.2637 0.0675
12 -5 9 0.5009 0.0290
12 -5 10 -3.0282 0.0467
12 -5 11 -2.6644 -0.0286
12 -5 12 -3.9657 -0.0662
12 -5 13 -0.5337 -0.0163
12 -5 14 -1.6502 0.0072
12 -5 15 -1.3930 -0.0513
12 -4 0 -6.5399 -1.7854
12 -4 1 1.1109 -0.1054
12 -4 2 2.3567 0.3034
12 -4 3 -6.2003 0.0535
12 -4 4 -0.6124 -0.0681
12 -4 5 -4.2860 -0.0325
12 -4 6 -15.1284 -0.0393
12 -4 7 -2.6613 -0.0064
12 -4 8 -3.4789 0.0118
12 -4 9 -5.7361 0.0864
12 -4 10 -6.3058 0.0891
12 -4 11 -1.0895 -0.0383
12 -4 12 -3.4448 -0.1170
12 -4 13 -1.4547 -0.0810
12 -4 14 -0.7844 0.0907
12 -3 0 -4.6581 1.2367
12 -3 1 -6.2157 0.1962
12 -3 2 10.9988 -0.1236
12 -3 3 1.2430 -0.0101
12 -3 4 -1.9792 0.0081
12 -3 5 5.4348 -0.0798
12 -3 6 1.4850 -0.0447
12 -3 7 2.4800 0.0690
12 -3 8 5.4111 0.1172
12 -3 9 4.3204 0.0246
12 -3 10 -0.9115 -0.0786
12 -3 11 0.5015 0.0950
12 -3 12 1.5492 0.2711
12 -3 13 -1.3454 0.0387
12 -3 14 1.8877 -0.2334
12 -2 0 4.6161 0.5235
12 -2 1 -2.1280 0.2768
12 -2 2 -1.4958 -0.0589
12 -2 3 7.4676 -0.2682
12 -2 4 -2.5821 -0.0904
12 -2 5 -3.3905 0.1714
12 -2 6 5.2995 0.1865
12 -2 7 -1.3861 -0.0255
12 -2 8 5.8569 -0.1916
12 -2 9 -1.2249 -0.0450
12 -2 10 3.0891 0.0710
12 -2 11 -3.1176 0.0531
12 -2 12 4.6456 -0.1340
12 -2 13 1.4789 0.1223
12 -1 0 -4.7046 -0.3241
12 -1 1 1.9690 -0.2085
12 -1 2 3.9634 -0.2146
12 -1 3 -6.9122 0.0139
12 -1 4 0.2500 0.1053
12 -1 5 -6.8045 0.0585
12 -1 6 -4.0824 -0.0532
12 -1 7 1.0054 -0.0435
12 -1 8 3.4067 0.0527
12 -1 9 -0.3234 0.0696
12 -1 10 -1.8877 -0.1993
12 -1 11 0.8511 -0.1089
12 -1 12 -1.2104 0.0566
12 0 0 -2.0325 -0.2643
12 0 1 4.5160 -0.0690
12 0 2 11.3475 0.2693
12 0 3 1.7481 0.2865
12 0 4 -5.2099 0.0108
12 0 5 3.9266 -0.1475
12 0 6 -3.6755 -0.0647
12 0 7 -1.4545 0.0312
12 0 8 0.5830 -0.0254
12 0 9 -2.1345 0.0393
12 0 10 -5.4427 0.1413
12 0 11 -0.9522 0.0663
12 0 12 -3.9250 -0.2031
12 1 0 -2.0789 -0.7010
12 1 1 7.1619 0.1901
12 1 2 6.5157 0.2099
12 1 3 4.7359 -0.0269
12 1 4 -7.4693 0.0163
12 1 5 -2.3222 0.0449
12 1 6 -2.3125 -0.0628
12 1 7 -0.9190 -0.1150
12 1 8 -3.6816 -0.0019
12 1 9 0.5025 -0.0213
12 1 10 -2.3781 -0.1142
12 1 11 -1.0123 -0.0143
12 2 0 -7.5065 0.8940
12 2 1 4.8044 -0.3151
12 2 2 -4.2082 -0.4079
12 2 3 -3.9458 -0.0774
12 2 4 -3.2919 0.1082
12 2 5 -1.7647 0.0016
12 2 6 1.5063 -0.0198
12 2 7 3.5758 0.0026
12 2 8 3.7087 -0.0088
12 2 9 -2.4571 0.0359
12 2 10 3.9402 0.1218
12 3 0 3.0151 0.0562
12 3 1 -0.8139 0.3845
12 3 2 7.8818 0.1150
12 3 3 -1.4401 -0.2361
12 3 4 1.3312 -0.1954
12 3 5 -0.3691 0.0386
12 3 6 1.4065 0.0942
12 3 7 -0.2764 0.0359
12 3 8 2.5427 -0.0036
12 3 9 -0.8577 0.0094
12 4 0 7.9584 0.4663
12 4 1 6.1145 0.0237
12 4 2 4.4821 -0.1339
12 4 3 0.8466 0.0933
12 4 4 -3.3019 0.1140
12 4 5 0.2465 -0.0746
12 4 6 0.7677 -0.1393
12 4 7 2.9255 0.0526
12 4 8 -1.6239 0.0080
12 5 0 2.8373 -1.1115
12 5 1 4.0895 -0.3373
12 5 2 -0.5590 0.2137
12 5 3 1.3515 0.0986
12 5 4 -0.5794 -0.0276
12 5 5 -1.2379 -0.0319
12 5 6 -1.4853 -0.1150
12 5 7 2.3519 -0.0318
12 6 0 -6.0815 -0.0418
12 6 1 3.5017 0.0451
12 6 2 -4.0518 0.0132
12 6 3 -3.1296 0.0135
12 6 4 -4.2682 0.0540
12 6 5 0.3106 -0.0783
12 6 6 -0.6822 -0.1318
12 7 0 0.9434 1.1399
12 7 1 -3.7267 0.1426
12 7 2 1.0993 -0.0758
12 7 3 -1.0226 -0.0443
12 7 4 -0.7234 -0.0918
12 7 5 2.0586 0.1289
12 8 0 4.0563 -0.2518
12 8 1 3.8810 -0.0711
12 8 2 -0.6830 -0.0338
12 8 3 1.4343 -0.1237
12 8 4 0.8258 -0.0873
12 9 0 2.5416 -0.0013
12 9 1 -0.7004 -0.1501
12 9 2 -1.3213 -0.3169
12 10 0 -0.3761 -0.5396
13 -19 6 0.9632 -0.3943
13 -19 7 -0.8067 -0.0871
13 -19 8 -2.2096 0.0329
13 -19 9 -0.7574 -0.0056
13 -19 10 -1.8188 0.0777
13 -18 3 -1.0015 0.1519
13 -18 4 -1.3807 -0.0662
13 -18 5 -1.5186 -0.1203
13 -18 6 -1.3519 -0.1551
13 -18 7 2.3826 0.1478
13 -18 8 -1.4412 0.0345
13 -18 9 -0.0023 0.1870
13 -18 10 -0.5270 0.0177
13 -18 11 -2.0277 0.1205
13 -18 12 -0.9612 -0.0400
13 -18 13 4.6610 -0.1584
13 -17 0 -2.0241 0.6092
13 -17 1 0.3011 0.1554
13 -17 2 -1.5001 -0.0111
13 -17 3 -1.5631 0.1144
13 -17 4 0.8967 -0.0268
13 -17 5 1.3713 -0.1324
13 -17 6 0.5484 -0.0829
13 -17 7 0.9223 0.0399
13 -17 8 4.2143 -0.0062
13 -17 9 -3.2952 -0.0653
13 -17 10 2.4593 -0.0958
13 -17 11 -0.2662 -0.2313
13 -17 12 0.3852 0.0838
13 -17 13 0.9848 -0.0729
13 -17 14 -0.9942 0.1295
13 -16 0 0.1909 0.4621
13 -16 1 -3.5653 0.0283
13 -16 2 -0.5737 -0.1916
13 -16 3 -0.7092 -0.1744
13 -16 4 1.7278 -0.0497
13 -16 5 -4.3158 0.1823
13 -16 6 3.0849 0.1065
13 -16 7 -5.4805 -0.0121
13 -16 8 1.9431 -0.1431
13 -16 9 3.3055 -0.0068
13 -16 10 -0.4862 0.0399
13 -16 11 2.4765 -0.0749
13 -16 12 3.6090 0.1049
13 -16 13 -1.1664 0.0385
13 -16 14 0.4712 -0.0504
13 -16 15 -0.7247 -0.1556
13 -15 0 5.5735 0.2052
13 -15 1 -1.2706 -0.0457
13 -15 2 -1.4820 -0.2705
13 -15 3 3.4349 -0.1393
13 -15 4 2.0043 0.0680
13 -15 5 1.6208 0.0036
13 -15 6 1.6599 0.0195
13 -15 7 3.5884 0.0302
13 -15 8 -1.7015 0.1335
13 -15 9 3.8215 0.0278
13 -15 10 -1.7586 -0.0173
13 -15 11 -1.0150 -0.0817
13 -15 12 -1.8799 0.0869
13 -15 13 -0.9082 -0.0141
13 -15 14 -6.7466 -0.1078
13 -15 15 2.1343 0.0677
13 -14 0 2.4060 -0.3615
13 -14 1 0.5153 0.0530
13 -14 2 1.1325 0.2997
13 -14 3 3.3573 0.1617
13 -14 4 4.2587 -0.0627
13 -14 5 4.2681 -0.0782
13 -14 6 -1.4758 0.0580
13 -14 7 0.3659 0.0722
13 -14 8 -7.3789 0.0114
13 -14 9 -0.6794 -0.0264
13 -14 10 -0.5522 0.0833
13 -14 11 -0.5512 0.0031
13 -14 12 -0.6338 -0.0896
13 -14 13 0.3348 0.0657
13 -14 14 -1.0897 0.1636
13 -14 15 -2.6537 -0.0849
13 -14 16 1.2589 -0.2814
13 -13 0 -6.3729 -0.8230
13 -13 1 2.5823 0.0116
13 -13 2 -5.8897 0.1903
13 -13 3 -0.9771 0.0600
13 -13 4 -5.5844 0.0645
13 -13 5 2.0184 0.0336
13 -13 6 -0.9442 -0.0982
13 -13 7 1.8312 -0.1182
13 -13 8 3.8604 -0.0059
13 -13 9 2.7196 -0.0627
13 -13 10 5.2900 -0.0843
13 -13 11 1.3117 -0.0212
13 -13 12 1.2045 -0.0436
13 -13 13 -2.9513 -0.1199
13 -13 14 -1.9977 -0.1849
13 -13 15 -0.7270 0.0194
13 -13 16 1.2029 0.0731
13 -12 0 -1.4945 0.5826
13 -12 1 -13.2316 -0.2816
13 -12 2 4.0091 -0.2063
13 -12 3 -8.6528 0.1000
13 -12 4 -0.4097 0.1152
13 -12 5 -3.3049 -0.0415
13 -12 6 2.5726 -0.0484
13 -12 7 -2.1046 0.0466
13 -12 8 0.6070 0.0383
13 -12 9 -0.2018 -0.0377
13 -12 10 3.6860 0.0733
13 -12 11 -0.9751 0.0614
13 -12 12 4.0771 -0.0650
13 -12 13 2.2770 -0.0228
13 -12 14 -2.1793 0.0829
13 -12 15 -1.0523 0.0554
13 -12 16 0.1270 -0.0851
13 -11 0 1.6535 0.2059
13 -11 1 6.4690 0.4427
13 -11 2 -4.1664 0.1275
13 -11 3 7.6680 -0.3141
13 -11 4 -2.7331 -0.2830
13 -11 5 2.5704 0.0587
13 -11 6 2.3459 0.1004
13 -11 7 0.3054 -0.0726
13 -11 8 6.2529 -0.0649
13 -11 9 2.1865 -0.0159
13 -11 10 6.6391 -0.0570
13 -11 11 4.3907 0.0430
13 -11 12 -0.9887 0.0985
13 -11 13 -1.9108 0.1008
13 -11 14 2.5663 -0.1836
13 -11 15 -3.6105 -0.1665
13 -11 16 2.5058 0.0460
13 -10 0 5.5900 0.8438
13 -10 1 5.6860 0.0078
13 -10 2 4.3535 -0.2494
13 -10 3 -4.0596 0.0682
13 -10 4 6.1095 0.1075
13 -10 5 -3.0236 -0.0378
13 -10 6 4.2887 -0.0449
13 -10 7 -5.5061 0.0111
13 -10 8 -2.3365 0.0082
13 -10 9 -1.7154 -0.0773
13 -10 10 -4.8837 0.0204
13 -10 11 -2.1864 0.1365
13 -10 12 -2.3803 0.0292
13 -10 13 -4.8147 -0.0212
13 -10 14 -1.9898 0.0742
13 -10 15 1.9432 0.0661
13 -10 16 -2.8717 -0.1779
13 -9 0 -6.9906 -1.3513
13 -9 1 3.8608 -0.3601
13 -9 2 -0.9813 0.2375
13 -9 3 -1.1019 0.1402
13 -9 4 0.1684 -0.0032
13 -9 5 2.7436 0.0161
13 -9 6 -2.0959 -0.0450
13 -9 7 -0.7699 -0.1178
13 -9 8 -6.6839 0.0378
13 -9 9 2.5372 0.1343
13 -9 10 1.3036 0.0151
13 -9 11 2.1175 -0.1472
13 -9 12 2.2235 -0.1406
13 -9 13 -2.5760 -0.0576
13 -9 14 -3.2142 -0.0360
13 -9 15 0.5194 0.0596
13 -8 0 -5.5817 -0.2313
13 -8 1 -6.6452 0.0012
13 -8 2 -1.9354 0.0340
13 -8 3 -9.1514 0.1449
13 -8 4 3.0606 0.0155
13 -8 5 1.7673 -0.1781
13 -8 6 -1.3553 -0.1244
13 -8 7 5.6728 0.0475
13 -8 8 -3.5456 0.1194
13 -8 9 6.4960 -0.0144
13 -8 10 1.9812 -0.0674
13 -8 11 3.4665 -0.0154
13 -8 12 -2.1971 0.0450
13 -8 13 3.7928 -0.0053
13 -8 14 -0.1209 -0.0036
13 -8 15 0.9344 -0.0148
13 -7 0 -3.2494 1.0971
13 -7 1 3.1444 0.2630
13 -7 2 -9.1403 -0.0623
13 -7 3 3.8174 -0.1473
13 -7 4 0.6447 -0.0760
13 -7 5 6.1614 0.0807
13 -7 6 -3.2522 0.1287
13 -7 7 0.1932 -0.0161
13 -7 8 -1.3381 -0.1406
13 -7 9 -1.3329 0.0036
13 -7 10 5.7434 0.0444
13 -7 11 0.4541 0.0213
13 -7 12 2.5087 0.0654
13 -7 13 -2.5137 0.0411
13 -7 14 2.4167 -0.0642
13 -7 15 0.4369 -0.0720
13 -6 0 8.2325 -0.2288
13 -6 1 -1.4659 0.0518
13 -6 2 0.4681 -0.1496
13 -6 3 -2.9487 -0.2883
13 -6 4 -2.8005 -0.0364
13 -6 5 -0.2895 0.1165
13 -6 6 -0.8444 0.1136
13 -6 7 -11.7384 0.0044
13 -6 8 -1.8260 -0.0939
13 -6 9 0.6164 -0.0771
13 -6 10 -1.7238 -0.0327
13 -6 11 -4.1524 0.0127
13 -6 12 -1.1507 0.0469
13 -6 13 -1.1588 -0.0147
13 -6 14 -4.1636 -0.0525
13 -5 0 0.8526 0.3194
13 -5 1 2.3746 -0.2768
13 -5 2 -6.9242 -0.1415
13 -5 3 6.1701 0.1944
13 -5 4 4.1876 0.0912
13 -5 5 -1.0491 -0.1441
13 -5 6 1.0720 -0.1336
13 -5 7 -6.2596 0.0394
13 -5 8 -4.7836 0.1215
13 -5 9 -0.7053 -0.0086
13 -5 10 0.4821 -0.0377
13 -5 11 -1.4095 -0.0035
13 -5 12 -2.4019 -0.0372
13 -5 13 0.5814 0.0331
13 -5 14 -2.6603 0.1240
13 -4 0 -1.6910 -1.1309
13 -4 1 2.5111 0.2318
13 -4 2 -1.7377 0.4458
13 -4 3 -0.9407 0.0941
13 -4 4 7.7159 -0.1318
13 -4 5 5.6694 -0.0095
13 -4 6 -0.3610 0.0182
13 -4 7 0.9026 -0.0968
13 -4 8 2.6558 -0.1106
13 -4 9 4.1749 0.0654
13 -4 10 4.9819 0.1041
13 -4 11 4.1450 -0.0569
13 -4 12 -2.9902 -0.1007
13 -4 13 2.5557 0.1426
13 -3 0 -8.7671 0.1768
13 -3 1 -8.6747 -0.3480
13 -3 2 -5.0542 -0.2437
13 -3 3 -3.5524 0.0717
13 -3 4 -2.9544 0.1899
13 -3 5 3.6168 -0.0473
13 -3 6 -4.8518 -0.1173
13 -3 7 -4.0522 0.0261
13 -3 8 -2.9482 0.1175
13 -3 9 0.9427 -0.0488
13 -3 10 -0.6967 -0.0972
13 -3 11 2.9079 0.1554
13 -3 12 -0.9277 0.1047
13 -2 0 1.9734 0.1574
13 -2 1 -8.7689 0.1049
13 -2 2 -6.1186 -0.0543
13 -2 3 5.0940 -0.3034
13 -2 4 -1.7749 -0.2057
13 -2 5 -3.8555 0.1153
13 -2 6 2.7561 0.1805
13 -2 7 -7.4319 0.0414
13 -2 8 0.5514 -0.0567
13 -2 9 0.4972 0.1179
13 -2 10 3.7175 0.1179
13 -2 11 -2.8262 -0.0963
13 -2 12 1.6841 -0.1021
13 -1 0 5.3931 0.6510
13 -1 1 1.2552 0.3770
13 -1 2 3.3641 -0.0873
13 -1 3 10.0400 -0.1216
13 -1 4 14.6425 -0.0041
13 -1 5 0.9031 -0.0152
13 -1 6 4.0731 -0.0455
13 -1 7 1.4062 0.0439
13 -1 8 0.8123 0.0568
13 -1 9 -0.5215 -0.0988
13 -1 10 0.4332 -0.0850
13 -1 11 -2.2180 0.1080
13 0 0 -1.8874 -0.2622
13 0 1 -8.8930 -0.3956
13 0 2 3.7751 -0.0248
13 0 3 3.7221 0.2194
13 0 4 3.3077 0.0864
13 0 5 0.1062 0.0307
13 0 6 -3.4920 -0.0286
13 0 7 -4.0833 -0.0845
13 0 8 0.2964 -0.0749
13 0 9 0.2329 0.1009
13 0 10 -1.2323 0.0827
13 0 11 1.8636 -0.0733
13 1 0 -12.3308 -1.5454
13 1 1 -13.1750 -0.1295
13 1 2 -6.1035 0.2976
13 1 3 1.6954 0.1247
13 1 4 -3.3897 0.0000
13 1 5 0.8312 -0.0863
13 1 6 1.4675 -0.0541
13 1 7 -0.0982 0.0949
13 1 8 -1.3553 0.0340
13 1 9 4.2359 -0.0261
13 1 10 -0.9697 0.0943
13 2 0 -8.8367 1.1359
13 2 1 2.8944 0.1354
13 2 2 -2.0076 -0.0886
13 2 3 7.7584 -0.0045
13 2 4 4.3995 0.0978
13 2 5 -0.4352 -0.0288
13 2 6 -1.7157 -0.0515
13 2 7 -1.6957 0.0052
13 2 8 0.2091 0.0869
13 2 9 -2.0162 0.1300
13 3 0 2.0473 0.2524
13 3 1 0.1493 0.2580
13 3 2 4.6117 -0.0293
13 3 3 1.1631 -0.2304
13 3 4 2.6106 -0.0694
13 3 5 -1.3455 0.0364
13 3 6 0.5334 0.1188
13 3 7 -2.1764 -0.0072
13 3 8 2.2265 -0.1874
13 4 0 -4.5381 0.2315
13 4 1 -4.3906 -0.2045
13 4 2 3.5653 -0.3082
13 4 3 2.6875 0.0391
13 4 4 1.4409 0.2282
13 4 5 0.5464 -0.0032
13 4 6 -0.6254 -0.0964
13 4 7 -1.8716 -0.0622
13 5 0 -2.8770 -0.5487
13 5 1 -4.8907 0.0165
13 5 2 -0.0756 0.2646
13 5 3 0.0382 0.0140
13 5 4 0.0583 -0.0100
13 5 5 -1.4211 0.0410
13 5 6 -0.9602 0.1329
13 6 0 -5.3387 -0.3762
13 6 1 2.5360 0.0650
13 6 2 -0.7414 0.1103
13 6 3 0.6886 -0.0008
13 6 4 -0.2913 0.1413
13 6 5 -0.4779 0.1054
13 7 0 2.8821 0.4515
13 7 1 0.5163 -0.1880
13 7 2 3.4090 -0.1739
13 7 3 -0.8767 -0.1298
13 7 4 -1.2684 -0.1339
13 8 0 -0.7421 0.0163
13 8 1 1.0303 0.2372
13 8 2 -1.3428 0.4637
13 9 0 0.8523 0.6354
14 -19 7 -0.4834 -0.1453
14 -19 8 1.9608 0.2642
14 -18 4 -1.6621 -0.0649
14 -18 5 -0.3465 -0.0056
14 -18 6 -2.0078 -0.1062
14 -18 7 -0.2355 -0.0784
14 -18 8 -1.6772 0.0124
14 -18 9 -0.3878 -0.0154
14 -18 10 -0.2827 -0.1624
14 -17 1 0.1715 0.1240
14 -17 2 0.8369 -0.1108
14 -17 3 -2.2548 0.0325
14 -17 4 -0.2949 0.2046
14 -17 5 -0.0719 0.0504
14 -17 6 -3.5365 0.0082
14 -17 7 -0.6302 0.0353
14 -17 8 2.2884 -0.0216
14 -17 9 -0.3591 0.0299
14 -17 10 2.9920 0.1397
14 -17 11 -0.3415 0.0665
14 -17 12 -0.6831 0.0744
14 -17 13 2.8170 0.0128
14 -16 0 1.3555 0.0330
14 -16 1 1.9981 0.1713
14 -16 2 3.6156 -0.0823
14 -16 3 0.6699 -0.1645
14 -16 4 1.3107 -0.1754
14 -16 5 1.0169 -0.1257
14 -16 6 4.8245 -0.0021
14 -16 7 0.4928 -0.0987
14 -16 8 4.5198 -0.1252
14 -16 9 -0.2361 0.0541
14 -16 10 0.6416 0.2121
14 -16 11 1.2257 -0.0743
14 -16 12 1.3559 -0.1013
14 -16 13 -0.3209 0.0001
14 -16 14 2.6970 -0.0146
14 -15 0 5.2252 0.9754
14 -15 1 0.3815 0.3317
14 -15 2 1.9123 -0.2138
14 -15 3 0.7713 -0.1654
14 -15 4 2.9231 0.0184
14 -15 5 -0.1477 -0.0116
14 -15 6 1.2329 -0.0452
14 -15 7 -0.5702 0.0108
14 -15 8 0.2703 0.0084
14 -15 9 -0.9665 -0.1166
14 -15 10 -2.4860 -0.1424
14 -15 11 0.6177 -0.0075
14 -15 12 1.1456 0.1203
14 -15 13 2.1837 -0.0184
14 -15 14 -4.3146 -0.0748
14 -14 0 -1.5902 -0.2289
14 -14 1 -4.2520 -0.2811
14 -14 2 -3.4181 0.0122
14 -14 3 -4.7694 0.1532
14 -14 4 -3.1971 0.0848
14 -14 5 -5.2614 0.1540
14 -14 6 -2.7292 0.1634
14 -14 7 0.7212 0.0831
14 -14 8 -2.1532 -0.0186
14 -14 9 -1.0259 -0.0376
14 -14 10 -2.3873 0.0589
14 -14 11 -0.5033 0.0463
14 -14 12 -2.5244 -0.0432
14 -14 13 -0.6270 0.0799
14 -14 14 -0.1715 0.0192
14 -14 15 -2.8135 -0.2304
14 -13 0 -5.8710 -1.3229
14 -13 1 -0.2786 -0.1179
14 -13 2 -5.7559 0.2192
14 -13 3 0.6474 0.1504
14 -13 4 -3.8779 0.0132
14 -13 5 -0.4522 -0.0629
14 -13 6 -4.0569 -0.2077
14 -13 7 0.1086 -0.1255
14 -13 8 -3.4889 0.0778
14 -13 9 -2.0306 0.0460
14 -13 10 -1.3651 -0.0043
14 -13 11 3.1140 -0.0607
14 -13 12 1.7988 -0.0121
14 -13 13 5.0849 -0.1835
14 -13 14 2.6786 0.1128
14 -13 15 0.9193 0.0953
14 -12 0 5.1557 0.7867
14 -12 1 -3.2148 0.0477
14 -12 2 9.6093 0.0026
14 -12 3 0.6583 0.1245
14 -12 4 0.9989 0.0278
14 -12 5 -0.0123 -0.1370
14 -12 6 -1.0114 -0.0397
14 -12 7 3.5865 0.0487
14 -12 8 0.0257 0.0680
14 -12 9 1.0558 0.0055
14 -12 10 3.3088 0.0337
14 -12 11 0.4008 0.0154
14 -12 12 3.2234 0.0244
14 -12 13 2.3803 -0.0130
14 -12 14 0.7283 0.0559
14 -12 15 2.4622 -0.0656
14 -11 0 2.6063 0.1806
14 -11 1 5.8930 0.2516
14 -11 2 1.3461 0.0234
14 -11 3 9.0216 -0.2606
14 -11 4 -2.9732 -0.0137
14 -11 5 4.1634 0.2525
14 -11 6 1.6220 0.1876
14 -11 7 -0.2365 0.0098
14 -11 8 2.8394 -0.0802
14 -11 9 -6.6472 -0.0254
14 -11 10 -0.4039 0.0287
14 -11 11 -1.3954 -0.0320
14 -11 12 -1.0228 0.0239
14 -11 13 -0.1290 -0.0616
14 -11 14 0.7749 -0.0675
14 -11 15 -4.8229 0.0568
14 -10 0 4.3048 0.5778
14 -10 1 -0.2054 -0.1406
14 -10 2 3.4936 -0.2670
14 -10 3 -0.7911 -0.0147
14 -10 4 1.3872 0.1152
14 -10 5 -6.3280 -0.0483
14 -10 6 6.5015 0.0054
14 -10 7 -2.9654 0.0525
14 -10 8 1.0588 0.0415
14 -10 9 -2.7580 0.0181
14 -10 10 -0.5620 0.0095
14 -10 11 -0.3290 0.0634
14 -10 12 0.0766 0.0797
14 -10 13 -1.9669 -0.0250
14 -10 14 -0.9874 -0.0429
14 -10 15 -0.7146 -0.0758
14 -9 0 -6.0698 -0.4457
14 -9 1 1.2366 0.0618
14 -9 2 -4.5850 0.3338
14 -9 3 -5.5520 0.0549
14 -9 4 -7.5461 -0.1399
14 -9 5 -3.9202 -0.0622
14 -9 6 2.0729 0.0347
14 -9 7 2.6736 -0.0004
14 -9 8 0.4289 -0.0013
14 -9 9 -0.3423 0.0086
14 -9 10 -0.4394 0.0581
14 -9 11 0.3648 -0.0589
14 -9 12 4.5022 -0.0270
14 -9 13 3.0195 0.0773
14 -9 14 0.8592 0.1233
14 -8 0 -1.2851 -0.5848
14 -8 1 -2.8136 -0.1382
14 -8 2 6.1929 0.0445
14 -8 3 -9.0948 0.2158
14 -8 4 -3.2050 0.1755
14 -8 5 -5.0803 -0.0091
14 -8 6 -1.4324 -0.1941
14 -8 7 1.5107 -0.0893
14 -8 8 -5.2721 0.0509
14 -8 9 -0.0724 -0.0371
14 -8 10 -1.1936 -0.0441
14 -8 11 3.5813 -0.0073
14 -8 12 -0.9178 0.0298
14 -8 13 3.3928 0.0171
14 -8 14 -0.6106 -0.0049
14 -7 0 4.1940 0.2470
14 -7 1 8.9111 -0.3071
14 -7 2 4.1767 -0.1514
14 -7 3 1.0515 0.0231
14 -7 4 -4.0029 0.0159
14 -7 5 4.9086 0.0058
14 -7 6 -1.8561 0.0490
14 -7 7 7.5134 0.0015
14 -7 8 -2.3331 0.0319
14 -7 9 -2.5312 0.1162
14 -7 10 0.1007 0.0064
14 -7 11 -1.3992 -0.0361
14 -7 12 -0.7118 -0.0524
14 -7 13 -2.9586 -0.0188
14 -7 14 2.1085 -0.0062
14 -6 0 8.1520 0.4038
14 -6 1 6.1181 0.6043
14 -6 2 11.6151 0.0983
14 -6 3 3.3509 -0.3310
14 -6 4 1.3163 -0.2167
14 -6 5 8.8723 0.0630
14 -6 6 10.0036 0.1990
14 -6 7 5.0411 -0.0034
14 -6 8 1.4738 -0.0256
14 -6 9 -2.0013 -0.0358
14 -6 10 0.0952 0.0249
14 -6 11 2.0058 -0.0195
14 -6 12 2.7705 0.0337
14 -6 13 -1.1287 -0.1223
14 -5 0 2.1549 1.1108
14 -5 1 5.6714 -0.0702
14 -5 2 -2.2232 -0.2592
14 -5 3 -2.1753 0.0162
14 -5 4 -4.9190 0.1488
14 -5 5 -3.1376 -0.0395
14 -5 6 3.8094 -0.0561
14 -5 7 0.2262 0.0419
14 -5 8 -1.9812 -0.0361
14 -5 9 -1.8628 -0.1188
14 -5 10 -0.1466 -0.0165
14 -5 11 0.1098 0.0274
14 -5 12 2.2547 0.1000
14 -5 13 0.8645 0.0955
14 -4 0 -5.4106 -1.6286
14 -4 1 -3.0224 -0.3266
14 -4 2 -3.2922 0.2480
14 -4 3 -10.1131 0.1443
14 -4 4 -4.8839 -0.0311
14 -4 5 -5.0332 -0.0131
14 -4 6 0.7896 0.0232
14 -4 7 1.5674 -0.0689
14 -4 8 -3.5231 -0.0686
14 -4 9 -5.1124 0.1112
14 -4 10 -2.7267 0.1286
14 -4 11 0.8773 -0.0622
14 -4 12 -2.9833 -0.0511
14 -3 0 1.8712 0.0357
14 -3 1 9.6306 -0.0450
14 -3 2 2.4220 0.0243
14 -3 3 -1.5006 0.1216
14 -3 4 -1.7855 0.0738
14 -3 5 7.1091 -0.2254
14 -3 6 -0.2930 -0.1968
14 -3 7 5.2384 -0.0074
14 -3 8 -0.3296 0.0624
14 -3 9 2.5582 -0.0264
14 -3 10 -1.0481 -0.1522
14 -3 11 4.5611 0.0410
14 -3 12 -1.0762 -0.0448
14 -2 0 9.4138 0.6214
14 -2 1 9.1419 0.2753
14 -2 2 2.5643 0.0577
14 -2 3 3.8812 -0.1597
14 -2 4 3.2000 -0.0699
14 -2 5 4.3041 0.1210
14 -2 6 8.9696 0.0879
14 -2 7 1.4319 -0.0140
14 -2 8 2.1024 -0.1149
14 -2 9 0.2667 -0.0145
14 -2 10 1.0136 -0.0592
14 -2 11 -0.3737 -0.0341
14 -1 0 0.7281 0.3338
14 -1 1 -0.1333 0.0325
14 -1 2 -9.6821 -0.2639
14 -1 3 -9.4415 -0.2212
14 -1 4 1.3527 0.0924
14 -1 5 -4.8240 0.1994
14 -1 6 -0.8250 0.0446
14 -1 7 -2.0703 -0.0402
14 -1 8 -2.3913 0.0396
14 -1 9 -1.6966 0.0064
14 -1 10 0.3700 -0.0182
14 -1 11 -1.9292 -0.0188
14 0 0 2.6902 0.2655
14 0 1 -7.5030 -0.2468
14 0 2 -6.4477 -0.0945
14 0 3 -9.0768 0.0275
14 0 4 -0.3645 -0.0550
14 0 5 -1.7120 -0.1070
14 0 6 -0.8729 -0.1171
14 0 7 0.4019 -0.1023
14 0 8 -0.9725 0.0726
14 0 9 -1.6737 0.0360
14 0 10 -0.4278 -0.0665
14 1 0 6.3384 -1.0623
14 1 1 0.7956 0.1459
14 1 2 3.3028 0.4060
14 1 3 0.2788 0.0592
14 1 4 0.7033 -0.0968
14 1 5 3.5828 0.0185
14 1 6 1.1739 0.0405
14 1 7 0.5224 -0.0340
14 1 8 -2.0201 -0.0568
14 1 9 2.5078 0.1129
14 2 0 0.0854 0.1858
14 2 1 4.7793 -0.3230
14 2 2 -3.5183 -0.1524
14 2 3 2.0666 0.1888
14 2 4 1.1720 0.2080
14 2 5 2.3434 -0.0410
14 2 6 2.2763 -0.0853
14 2 7 3.4413 0.0947
14 2 8 0.1989 0.1226
14 3 0 -0.3046 0.0026
14 3 1 -1.8257 0.2130
14 3 2 -3.0892 0.0692
14 3 3 -0.8919 -0.2055
14 3 4 3.1976 -0.1399
14 3 5 0.4409 0.0218
14 3 6 0.9033 -0.0999
14 3 7 -0.7011 -0.0413
14 4 0 -0.7126 1.1008
14 4 1 -2.8128 0.2638
14 4 2 -2.0126 -0.1671
14 4 3 -0.7318 -0.0561
14 4 4 -1.5770 0.0673
14 4 5 -0.7060 -0.1154
14 4 6 1.0455 -0.3038
14 5 0 5.0617 -0.4529
14 5 1 -3.3341 -0.2584
14 5 2 0.0694 0.1328
14 5 3 -1.1612 0.0637
14 5 4 0.1842 0.0915
14 5 5 -1.7487 0.0638
14 6 0 0.5678 -0.8751
14 6 1 2.3425 -0.1104
14 6 2 0.8083 0.0395
14 6 3 1.1232 0.1084
14 7 0 0.7430 0.6994
14 7 1 -1.3450 -0.0665
14 7 2 2.8339 -0.0241
14 8 0 0.0308 -0.1690
15 -18 5 0.9240 0.1212
15 -18 6 0.0667 0.0533
15 -18 7 0.1008 -0.1187
15 -18 8 0.6632 -0.0090
15 -18 9 1.2987 -0.2273
15 -17 3 1.4732 -0.0601
15 -17 4 2.4481 -0.0339
15 -17 5 1.5169 -0.0401
15 -17 6 1.2570 -0.0138
15 -17 7 0.9391 0.1593
15 -17 8 0.8453 0.1537
15 -17 9 1.0851 0.2498
15 -17 10 2.4867 0.0703
15 -17 11 1.4961 0.1877
15 -16 0 0.5086 0.1704
15 -16 1 -0.8146 0.3445
15 -16 2 -0.5898 0.1706
15 -16 3 2.1672 -0.1180
15 -16 4 0.3238 0.0114
15 -16 5 3.0792 -0.1285
15 -16 6 1.5421 0.1865
15 -16 7 -1.4357 -0.0396
15 -16 8 0.0080 0.0301
15 -16 9 -0.0987 -0.0390
15 -16 10 -0.8469 0.1431
15 -16 11 -1.9989 0.0186
15 -16 12 -2.0081 -0.0049
15 -15 0 0.4018 0.3606
15 -15 1 -3.5383 -0.1022
15 -15 2 -1.1526 -0.2399
15 -15 3 -2.4687 -0.1966
15 -15 4 -0.4915 0.0903
15 -15 5 -4.5567 0.0798
15 -15 6 -2.0940 0.0974
15 -15 7 -4.5827 0.0501
15 -15 8 0.3054 0.0928
15 -15 9 -0.5448 0.0107
15 -15 10 -0.5795 -0.2284
15 -15 11 -0.2366 0.0140
15 -15 12 0.2237 0.1460
15 -15 13 0.3438 0.0120
15 -14 0 0.9116 0.4969
15 -14 1 -0.8958 -0.1038
15 -14 2 -1.7243 -0.0040
15 -14 3 -5.2019 -0.0374
15 -14 4 1.0884 -0.0461
15 -14 5 -2.5504 -0.0721
15 -14 6 1.6457 0.0258
15 -14 7 -2.0909 0.0475
15 -14 8 4.5910 -0.0303
15 -14 9 3.3689 -0.0567
15 -14 10 1.1828 -0.0190
15 -14 11 1.5028 0.0649
15 -14 12 3.0675 -0.2310
15 -14 13 0.9476 -0.0795
15 -13 0 0.1166 -0.8937
15 -13 1 0.8442 0.2860
15 -13 2 0.1023 0.3742
15 -13 3 4.3542 0.1246
15 -13 4 5.7544 0.0132
15 -13 5 1.4347 0.0643
15 -13 6 0.6910 -0.0774
15 -13 7 0.0090 -0.0843
15 -13 8 -0.6560 -0.0211
15 -13 9 0.7011 0.0654
15 -13 10 -2.3375 0.0134
15 -13 11 2.4525 0.0210
15 -13 12 -3.0647 0.2367
15 -13 13 -0.2895 0.1206
15 -13 14 -1.0137 0.1103
15 -12 0 3.3317 -0.1355
15 -12 1 -1.8887 -0.5287
15 -12 2 2.9628 -0.2526
15 -12 3 2.1158 0.1912
15 -12 4 3.8548 0.0880
15 -12 5 2.1680 -0.1570
15 -12 6 -2.1279 -0.1325
15 -12 7 3.5984 -0.0188
15 -12 8 -1.0331 0.0147
15 -12 9 3.4500 -0.0320
15 -12 10 0.4701 0.0403
15 -12 11 -1.1654 0.0890
15 -12 12 0.0970 -0.1099
15 -12 13 -1.7221 -0.0127
15 -12 14 -2.1409 0.0032
15 -11 0 -4.3827 -0.2930
15 -11 1 -1.5679 0.2315
15 -11 2 -3.1269 0.1398
15 -11 3 5.5859 -0.1266
15 -11 4 -0.8075 -0.1249
15 -11 5 2.3413 0.1508
15 -11 6 -4.1641 0.0425
15 -11 7 -0.0672 -0.0206
15 -11 8 2.6913 0.0206
15 -11 9 -3.7511 0.0337
15 -11 10 0.5214 0.0714
15 -11 11 -1.1115 -0.0145
15 -11 12 -1.8734 0.0599
15 -11 13 -0.8964 0.0391
15 -11 14 1.0964 -0.0398
15 -10 0 1.0994 1.4946
15 -10 1 -6.2242 0.3753
15 -10 2 -0.4789 -0.1523
15 -10 3 -1.0456 -0.0892
15 -10 4 0.1719 0.0609
15 -10 5 -7.6363 -0.0052
15 -10 6 -0.3970 0.0053
15 -10 7 -5.1453 0.0351
15 -10 8 0.9238 0.0312
15 -10 9 -0.6912 -0.1232
15 -10 10 0.5193 -0.0807
15 -10 11 0.8856 0.0278
15 -10 12 0.7626 -0.0667
15 -10 13 -0.4119 -0.1540
15 -9 0 -6.1279 -0.4320
15 -9 1 -1.5220 -0.2588
15 -9 2 -5.6436 0.0312
15 -9 3 2.0568 0.0280
15 -9 4 -1.8186 -0.0462
15 -9 5 -4.3480 0.0733
15 -9 6 -1.1293 0.1345
15 -9 7 0.3311 -0.0808
15 -9 8 0.2512 -0.0540
15 -9 9 -0.8405 0.0121
15 -9 10 0.2664 0.0667
15 -9 11 -1.6117 -0.0504
15 -9 12 -0.8426 0.1155
15 -9 13 -0.9527 0.0615
15 -8 0 1.0822 -1.1336
15 -8 1 2.2376 -0.1675
15 -8 2 10.2534 0.1125
15 -8 3 5.6042 0.1402
15 -8 4 9.8053 0.0324
15 -8 5 0.4460 -0.1459
15 -8 6 2.9879 -0.1940
15 -8 7 0.9026 0.0415
15 -8 8 3.8379 0.0889
15 -8 9 -0.0093 0.0119
15 -8 10 -2.2616 0.0061
15 -8 11 1.0170 -0.0111
15 -8 12 -1.3345 0.0239
15 -8 13 1.2453 -0.0204
15 -7 0 0.3547 0.5865
15 -7 1 -0.6137 0.0384
15 -7 2 5.7781 0.0873
15 -7 3 4.4712 0.0856
15 -7 4 -1.9215 -0.0307
15 -7 5 0.2892 -0.1308
15 -7 6 -2.9656 -0.0501
15 -7 7 4.5105 -0.0245
15 -7 8 1.1114 -0.0005
15 -7 9 3.8953 0.0742
15 -7 10 0.1090 -0.0429
15 -7 11 1.4333 0.0047
15 -7 12 -0.1052 0.0369
15 -7 13 -0.1250 0.0024
15 -6 0 -6.0743 0.0182
15 -6 1 -9.1288 0.2739
15 -6 2 -1.2483 -0.0551
15 -6 3 1.7761 -0.1661
15 -6 4 -5.5067 0.0016
15 -6 5 -4.4152 0.2486
15 -6 6 -8.2959 0.2637
15 -6 7 -3.0198 -0.0629
15 -6 8 0.0735 -0.0813
15 -6 9 -2.9667 -0.0597
15 -6 10 -5.1840 0.0071
15 -6 11 -2.5607 -0.0453
15 -6 12 0.5045 -0.0148
15 -5 0 -7.7724 0.8840
15 -5 1 -3.0610 -0.2003
15 -5 2 -0.9390 -0.3492
15 -5 3 4.3787 -0.0377
15 -5 4 -3.7034 0.1098
15 -5 5 -6.1536 -0.0497
15 -5 6 -2.3076 -0.0481
15 -5 7 -0.7166 0.1246
15 -5 8 3.1472 0.0647
15 -5 9 0.9086 -0.0919
15 -5 10 1.2842 -0.0270
15 -5 11 -2.1186 0.0036
15 -5 12 2.3246 -0.0006
15 -4 0 4.0737 -0.5915
15 -4 1 -2.3970 0.2253
15 -4 2 7.4514 0.4379
15 -4 3 4.6496 -0.0343
15 -4 4 7.0024 -0.1623
15 -4 5 -1.2049 -0.0223
15 -4 6 0.6434 0.0334
15 -4 7 1.6017 -0.0755
15 -4 8 5.7823 -0.0470
15 -4 9 2.1152 0.1592
15 -4 10 2.6867 0.2405
15 -4 11 0.9246 -0.0684
15 -3 0 -2.8006 -0.2811
15 -3 1 -1.3325 -0.2006
15 -3 2 4.6915 -0.0354
15 -3 3 5.1784 0.1874
15 -3 4 -4.7993 0.1867
15 -3 5 2.1846 -0.0918
15 -3 6 -6.1457 -0.1301
15 -3 7 3.5912 0.0402
15 -3 8 -3.2471 0.0901
15 -3 9 0.3683 -0.0293
15 -3 10 -0.2654 -0.0869
15 -3 11 1.5719 0.1012
15 -2 0 -7.7659 -0.3419
15 -2 1 -1.7682 -0.1812
15 -2 2 -2.4241 0.0341
15 -2 3 -2.1966 -0.0107
15 -2 4 -5.7183 -0.0890
15 -2 5 -1.0530 0.0001
15 -2 6 -1.7898 0.0365
15 -2 7 -1.7911 -0.0081
15 -2 8 1.0152 -0.1530
15 -2 9 -1.0050 -0.0147
15 -2 10 -0.8450 0.0895
15 -1 0 -1.2326 0.8649
15 -1 1 4.7440 0.5148
15 -1 2 5.3740 -0.0097
15 -1 3 0.7929 -0.1473
15 -1 4 -0.5527 -0.0265
15 -1 5 -1.4930 0.0925
15 -1 6 0.9271 -0.0325
15 -1 7 -1.1855 0.0527
15 -1 8 0.0216 0.0530
15 -1 9 -1.1453 -0.0471
15 -1 10 0.3103 -0.0630
15 0 0 7.1787 0.8978
15 0 1 1.3079 -0.1141
15 0 2 3.0547 -0.1520
15 0 3 -0.4861 0.0203
15 0 4 0.9766 0.1161
15 0 5 -1.2782 0.0073
15 0 6 -1.5688 -0.0363
15 0 7 0.7449 -0.0447
15 0 8 1.9690 0.0415
15 0 9 0.0566 -0.0235
15 1 0 -1.1489 -1.5295
15 1 1 -5.4468 -0.2622
15 1 2 2.9903 0.1398
15 1 3 0.5634 -0.0970
15 1 4 -0.7083 -0.0037
15 1 5 2.6598 0.1388
15 1 6 1.2466 0.0439
15 1 7 0.5539 -0.0961
15 1 8 -0.2143 -0.0909
15 2 0 -2.0181 0.1481
15 2 1 1.9333 -0.1345
15 2 2 -1.2294 0.0099
15 2 3 0.8096 0.1967
15 2 4 -1.3615 0.0668
15 2 5 0.8965 -0.3067
15 2 6 -2.3539 -0.1244
15 2 7 0.3238 -0.3082
15 3 0 0.0133 0.1032
15 3 1 0.6173 0.2847
15 3 2 -2.3772 0.0973
15 3 3 -1.3669 -0.1484
15 3 4 0.3769 0.0036
15 3 5 -0.1205 0.2916
15 4 0 -3.0126 0.6167
15 4 1 3.1271 -0.1357
15 4 2 -1.6516 -0.3840
15 4 3 1.3034 -0.1607
15 4 4 -1.0749 0.0994
15 5 0 1.8399 0.0247
15 5 1 -0.8152 -0.0433
15 5 2 -0.2237 0.0445
15 5 3 0.5676 -0.3570
15 6 0 -1.3662 -0.4617
15 6 1 1.7224 0.2649
15 6 2 0.3705 0.0317
15 7 0 1.1619 -0.0527
16 -17 4 0.9635 -0.3279
16 -17 5 -0.4177 -0.2384
16 -17 6 0.8693 -0.6280
16 -17 7 0.7789 -0.2899
16 -17 8 0.4935 -0.4942
16 -17 9 -1.1324 -0.1319
16 -16 2 -2.3586 -0.1170
16 -16 3 0.5573 0.1080
16 -16 4 -5.6891 0.1997
16 -16 5 -1.0123 0.0547
16 -16 6 -2.6160 0.2000
16 -16 7 0.2331 0.0184
16 -16 8 -3.0637 0.0761
16 -16 9 0.0012 0.0538
16 -16 10 0.6783 0.0475
16 -15 0 3.0677 0.6103
16 -15 1 -1.0170 0.2983
16 -15 2 -2.6432 -0.0204
16 -15 3 -2.5337 -0.0244
16 -15 4 -2.2888 0.0116
16 -15 5 -1.2967 0.1223
16 -15 6 1.2543 0.1790
16 -15 7 1.4229 0.0532
16 -15 8 -1.7023 0.0907
16 -15 9 -1.2246 0.0186
16 -15 10 -0.3398 -0.0091
16 -15 11 -1.4076 0.1853
16 -14 0 -2.4087 1.0849
16 -14 1 1.7824 -0.1454
16 -14 2 2.0002 -0.2123
16 -14 3 -0.0358 -0.0086
16 -14 4 3.6312 0.0491
16 -14 5 0.1207 -0.0050
16 -14 6 1.9219 -0.0611
16 -14 7 -4.3353 -0.1597
16 -14 8 -1.8891 -0.1397
16 -14 9 -3.5095 -0.1563
16 -14 10 -1.3605 -0.1233
16 -14 11 -1.7079 -0.0439
16 -14 12 2.7615 0.0474
16 -13 0 2.7725 -1.2072
16 -13 1 -0.5108 -0.0249
16 -13 2 1.4365 0.1320
16 -13 3 -6.4079 -0.0783
16 -13 4 0.5681 -0.0259
16 -13 5 -1.1055 0.0343
16 -13 6 4.1818 0.0693
16 -13 7 1.0858 0.1091
16 -13 8 2.7052 0.1454
16 -13 9 3.2721 0.1004
16 -13 10 0.3756 0.0707
16 -13 11 3.4395 0.0364
16 -13 12 -0.3356 0.0290
16 -12 0 4.2185 0.0273
16 -12 1 -0.8354 -0.1736
16 -12 2 -0.9901 0.0616
16 -12 3 -0.6878 0.2148
16 -12 4 1.8563 0.0784
16 -12 5 3.6077 -0.2177
16 -12 6 1.1777 -0.1023
16 -12 7 2.9058 0.0307
16 -12 8 -2.8402 0.0792
16 -12 9 0.8610 0.1235
16 -12 10 -2.1035 0.0361
16 -12 11 -0.1276 0.0219
16 -12 12 1.7190 -0.0515
16 -11 0 1.9405 -0.4396
16 -11 1 3.4302 0.1970
16 -11 2 -3.1058 0.1419
16 -11 3 -4.4346 -0.0529
16 -11 4 -4.3175 -0.0381
16 -11 5 -0.2908 0.1111
16 -11 6 -5.5089 0.0021
16 -11 7 -2.0691 -0.1033
16 -11 8 0.0843 -0.0935
16 -11 9 -4.1050 0.1238
16 -11 10 0.9378 0.1327
16 -11 11 0.2252 0.1055
16 -11 12 0.7220 -0.0501
16 -10 0 1.1452 0.7392
16 -10 1 -6.3924 -0.1861
16 -10 2 -3.2196 -0.4169
16 -10 3 -5.1897 -0.1292
16 -10 4 -1.8265 0.1043
16 -10 5 -2.1643 0.0679
16 -10 6 1.2331 0.0521
16 -10 7 -2.2864 0.0587
16 -10 8 1.8709 0.0131
16 -10 9 -0.6740 -0.1523
16 -10 10 -0.9294 -0.1686
16 -10 11 0.4954 -0.0081
16 -10 12 2.8825 0.0017
16 -9 0 4.4022 0.3010
16 -9 1 6.8263 0.1038
16 -9 2 2.8165 -0.0113
16 -9 3 6.4440 -0.0425
16 -9 4 4.5186 -0.1590
16 -9 5 1.5717 -0.0135
16 -9 6 1.3212 0.0683
16 -9 7 1.6529 -0.0821
16 -9 8 -0.5132 -0.0562
16 -9 9 0.7584 -0.0358
16 -9 10 2.4885 0.0141
16 -9 11 1.2806 -0.0534
16 -9 12 2.6036 -0.0549
16 -8 0 0.5430 -0.6627
16 -8 1 0.4371 0.1964
16 -8 2 -3.3341 0.2324
16 -8 3 -6.1641 0.0960
16 -8 4 2.1610 0.0271
16 -8 5 -2.5495 -0.0661
16 -8 6 1.6217 -0.0669
16 -8 7 0.2493 0.0198
16 -8 8 5.8231 0.0513
16 -8 9 0.9218 0.1713
16 -8 10 1.9039 0.0559
16 -8 11 -1.8536 -0.0137
16 -8 12 -0.5270 0.0539
16 -7 0 1.3846 -0.4542
16 -7 1 -4.6200 -0.5433
16 -7 2 0.2878 -0.0790
16 -7 3 -1.6787 0.1289
16 -7 4 4.3777 0.1474
16 -7 5 4.0498 -0.1083
16 -7 6 0.6269 -0.0935
16 -7 7 -1.8124 0.0439
16 -7 8 -4.1161 0.0474
16 -7 9 0.7968 -0.0358
16 -7 10 -4.4077 -0.0337
16 -7 11 -0.3605 -0.0561
16 -7 12 -2.0331 -0.0431
16 -6 0 4.4312 -0.2593
16 -6 1 -0.9055 0.2883
16 -6 2 -2.7060 0.1217
16 -6 3 0.6706 -0.1655
16 -6 4 -2.8818 -0.1739
16 -6 5 1.0915 0.0401
16 -6 6 -1.8842 0.0735
16 -6 7 -1.1654 -0.0739
16 -6 8 -2.0847 -0.0257
16 -6 9 3.5264 0.0265
16 -6 10 1.4282 0.0426
16 -6 11 1.7448 0.0425
16 -5 0 -5.8972 1.7250
16 -5 1 0.1391 0.2828
16 -5 2 -9.4128 -0.2599
16 -5 3 2.3003 -0.0002
16 -5 4 4.8025 0.0942
16 -5 5 3.6195 -0.0040
16 -5 6 1.8570 -0.0004
16 -5 7 -0.0477 0.0606
16 -5 8 0.9341 -0.1230
16 -5 9 -1.0057 -0.1865
16 -5 10 -1.7652 -0.0253
16 -5 11 -0.6497 0.1013
16 -4 0 2.0845 -0.6808
16 -4 1 -3.2751 -0.2135
16 -4 2 -0.5359 0.0718
16 -4 3 -2.8574 -0.1608
16 -4 4 3.9111 -0.0616
16 -4 5 -3.5319 0.1544
16 -4 6 3.8532 0.1206
16 -4 7 -5.7265 -0.1273
16 -4 8 1.1663 -0.1204
16 -4 9 -1.6753 0.1480
16 -4 10 0.7831 -0.1834
16 -3 0 6.1872 -0.6668
16 -3 1 -1.7877 -0.1979
16 -3 2 -4.7228 0.0304
16 -3 3 3.2514 0.1807
16 -3 4 0.5518 0.1264
16 -3 5 2.7744 -0.1102
16 -3 6 -2.4215 -0.0927
16 -3 7 4.2612 0.1381
16 -3 8 0.0838 0.1659
16 -3 9 0.6943 0.1586
16 -3 10 -0.8551 -0.0299
16 -2 0 0.7360 0.0682
16 -2 1 4.4681 0.1882
16 -2 2 1.3296 0.2322
16 -2 3 4.8345 0.0818
16 -2 4 -0.4000 -0.0559
16 -2 5 0.5777 0.0062
16 -2 6 -0.8474 0.0006
16 -2 7 -2.9448 -0.0884
16 -2 8 -2.8318 -0.0590
16 -2 9 -2.3675 0.1718
16 -1 0 -6.1498 0.1883
16 -1 1 -0.6768 0.0696
16 -1 2 -4.7343 -0.1936
16 -1 3 -1.8286 -0.0924
16 -1 4 -1.7805 0.0093
16 -1 5 -0.8054 0.0916
16 -1 6 0.0412 -0.1249
16 -1 7 -3.0517 -0.0415
16 -1 8 1.2007 -0.0036
16 0 0 -1.4537 0.8337
16 0 1 -4.0076 -0.1863
16 0 2 -0.7914 -0.2282
16 0 3 1.3463 -0.0366
16 0 4 2.9194 0.0658
16 0 5 2.2458 0.1724
16 0 6 4.5855 0.0806
16 0 7 1.7740 0.1496
16 0 8 0.9185 0.3159
16 1 0 5.8927 -0.5390
16 1 1 -0.6709 0.4163
16 1 2 0.3655 0.4368
16 1 3 0.3810 -0.0818
16 1 4 -0.9831 -0.1123
16 1 5 0.0769 0.1241
16 1 6 1.9086 -0.2259
16 2 0 -0.3663 -0.1949
16 2 1 -1.5443 -0.3061
16 2 2 -1.0668 0.0156
16 2 3 -0.8298 0.2266
16 2 4 -1.4124 0.1310
16 2 5 0.4291 -0.1120
16 3 0 2.6579 -0.6028
16 3 1 0.8373 -0.0990
16 3 2 0.1329 0.0385
16 3 3 -1.4552 0.0350
16 3 4 0.0582 -0.0970
16 4 0 -4.3874 0.9274
16 4 1 0.9187 0.2035
16 4 2 -1.9201 0.0886
16 4 3 0.8280 0.1310
16 5 0 -1.0310 0.7111
16 5 1 1.1774 0.0497
16 6 0 -2.0179 -0.7010
17 -16 4 -1.8540 -0.2404
17 -16 5 0.9407 -0.2294
17 -16 6 -3.3425 -0.1017
17 -16 7 0.1146 0.0473
17 -16 8 -0.4049 -0.0811
17 -16 9 -0.0463 0.1672
17 -15 2 -0.1977 -0.0936
17 -15 3 3.6060 -0.0267
17 -15 4 -0.4790 -0.0286
17 -15 5 -1.2126 0.0322
17 -15 6 -3.6241 0.0026
17 -15 7 1.2931 -0.0877
17 -15 10 1.7691 -0.2121
17 -14 0 -1.2019 0.6803
17 -14 1 4.2268 -0.0791
17 -14 2 -1.0377 -0.2549
17 -14 3 1.7838 0.0916
17 -14 4 -1.2041 -0.1547
17 -14 5 -0.3341 -0.0048
17 -14 6 1.1779 -0.1193
17 -14 7 3.0014 0.0283
17 -14 8 4.9959 -0.0312
17 -14 9 2.0520 -0.0453
17 -14 10 2.8537 0.0817
17 -13 0 1.2990 -0.2500
17 -13 1 0.1662 0.3826
17 -13 2 7.4193 -0.0501
17 -13 3 0.6355 -0.1990
17 -13 4 4.1392 -0.2441
17 -13 5 -1.3581 -0.0574
17 -13 6 0.6853 -0.0048
17 -13 7 -1.2898 -0.0725
17 -13 8 1.0736 0.0960
17 -13 9 -0.4928 -0.1238
17 -13 10 -2.1110 -0.0596
17 -13 11 -0.1303 -0.0187
17 -12 0 2.6668 -0.3017
17 -12 1 0.4540 -0.3245
17 -12 2 0.9035 -0.0315
17 -12 3 1.6751 0.4232
17 -12 4 -6.2400 0.3859
17 -12 5 -3.2795 0.1783
17 -12 6 -4.0302 0.0045
17 -12 7 -2.0807 0.0445
17 -12 8 -5.0060 0.0455
17 -12 9 0.6086 -0.1575
17 -12 10 -3.8862 0.0416
17 -12 11 -1.7438 0.0178
17 -11 0 -3.4008 -1.0320
17 -11 1 -0.0587 0.0303
17 -11 2 -0.0031 0.2361
17 -11 3 -0.9370 -0.0042
17 -11 4 -0.6954 -0.1073
17 -11 5 -0.3669 -0.0535
17 -11 6 -3.4309 -0.0154
17 -11 7 -0.9171 -0.1369
17 -11 8 0.9351 -0.0083
17 -11 9 -1.4162 0.1567
17 -11 10 0.1106 -0.0202
17 -11 11 -0.8952 -0.1796
17 -10 0 -0.7884 1.0249
17 -10 1 1.9162 0.2620
17 -10 2 5.7914 -0.0733
17 -10 3 5.2628 -0.0964
17 -10 4 -1.2320 -0.0371
17 -10 5 2.6733 -0.1462
17 -10 6 1.7863 -0.0760
17 -10 7 0.1626 0.0409
17 -10 8 3.1303 0.0386
17 -10 9 1.8993 -0.1353
17 -10 10 0.6744 0.1702
17 -10 11 0.3905 0.1764
17 -9 0 0.5307 0.7270
17 -9 1 0.6320 0.0271
17 -9 2 1.2675 -0.2024
17 -9 3 2.7850 -0.0824
17 -9 4 -1.6953 -0.0463
17 -9 5 -0.9686 0.1218
17 -9 6 2.1213 -0.0075
17 -9 7 1.3869 -0.0879
17 -9 8 0.5672 -0.1374
17 -9 9 1.5182 -0.1841
17 -9 10 -0.1297 0.0110
17 -9 11 -0.6982 0.0254
17 -8 0 -0.7025 -0.9655
17 -8 1 7.2065 -0.1500
17 -8 2 2.1693 -0.0232
17 -8 3 1.0018 0.0018
17 -8 4 3.2399 0.0009
17 -8 5 -2.6677 0.0223
17 -8 6 -2.7407 0.0971
17 -8 7 -3.3144 0.0773
17 -8 8 0.0414 0.1024
17 -8 9 -5.1508 0.2459
17 -8 10 2.8198 -0.2125
17 -8 11 -1.5054 -0.0917
17 -7 0 1.1862 -0.1472
17 -7 1 -1.3432 -0.0248
17 -7 2 4.8799 0.2114
17 -7 3 -7.2294 0.2648
17 -7 4 -3.1588 0.0909
17 -7 5 -4.2812 -0.0964
17 -7 6 -3.6609 0.0545
17 -7 7 -4.8254 0.0356
17 -7 8 -0.7991 0.0613
17 -7 9 1.9614 -0.0348
17 -7 10 -1.5790 0.0013
17 -7 11 0.1634 -0.0627
17 -6 0 -2.6778 -0.4665
17 -6 1 -3.4858 0.1767
17 -6 2 0.4133 0.1814
17 -6 3 -0.1648 -0.0625
17 -6 4 -2.3040 0.0111
17 -6 5 1.4024 0.0526
17 -6 6 0.6452 -0.1214
17 -6 7 3.2938 -0.1393
17 -6 8 -0.5400 -0.0314
17 -6 9 2.2104 -0.0147
17 -6 10 0.2110 0.1897
17 -5 0 -3.2405 1.0185
17 -5 1 6.5504 -0.2170
17 -5 2 -0.0967 -0.4508
17 -5 3 0.5744 -0.0481
17 -5 4 -0.4849 0.0497
17 -5 5 1.4018 -0.0545
17 -5 6 -2.4971 0.0085
17 -5 7 3.2947 0.1551
17 -5 8 0.6523 0.0276
17 -5 9 3.3071 0.0360
17 -5 10 0.8560 0.4676
17 -4 0 1.5748 0.0451
17 -4 1 1.0352 0.2640
17 -4 2 5.1718 0.1997
17 -4 3 -3.7660 -0.2130
17 -4 4 4.1065 -0.2468
17 -4 5 -3.0806 -0.0681
17 -4 6 2.4554 0.0721
17 -4 7 -3.5127 -0.0106
17 -4 8 2.8014 -0.2296
17 -4 9 -0.4739 0.0524
17 -3 0 1.1595 -0.1788
17 -3 1 -0.4253 0.1024
17 -3 2 1.4753 0.0679
17 -3 3 0.8422 0.0812
17 -3 4 0.5938 0.1515
17 -3 5 0.0098 0.1187
17 -3 6 -1.6354 -0.0793
17 -3 7 1.1128 -0.0266
17 -3 8 -2.4587 -0.2847
17 -3 9 -0.0810 -0.0564
17 -2 0 -3.2762 -0.8131
17 -2 1 -1.8063 -0.3876
17 -2 2 -1.6545 0.0849
17 -2 3 -1.1527 0.2884
17 -2 4 0.5640 0.1619
17 -2 5 -1.3620 0.1176
17 -2 6 -0.4988 -0.0730
17 -2 7 2.6892 0.0316
17 -2 8 1.1940 -0.1057
17 -1 0 -5.7661 -0.0347
17 -1 1 3.5827 0.0905
17 -1 2 -0.6532 -0.0690
17 -1 3 -0.2808 -0.2021
17 -1 4 -1.8338 -0.2406
17 -1 5 0.3291 -0.1162
17 -1 6 2.8815 -0.0961
17 -1 7 0.9465 -0.0483
17 0 0 3.6250 1.4703
17 0 1 1.9704 0.0210
17 0 2 0.9243 -0.3388
17 0 3 -1.0924 -0.0873
17 0 4 0.0630 0.0231
17 0 5 -2.8073 0.0523
17 0 6 -0.7135 -0.1124
17 1 0 2.1953 -0.7257
17 1 1 0.3481 -0.0531
17 1 2 0.2405 0.0834
17 1 3 2.0079 -0.0645
17 1 4 -1.3326 0.0394
17 2 0 1.4540 -0.2638
17 2 1 -0.2965 -0.0966
17 2 2 -0.3626 -0.1739
17 2 3 -1.1730 -0.0694
17 3 0 0.0625 -0.4124
17 3 1 -3.3335 0.2819
17 3 2 0.1189 0.0036
17 4 0 0.3942 0.4043
18 -15 5 2.9230 -0.2334
18 -15 6 1.6038 -0.1198
18 -15 7 -0.4010 -0.3763
18 -15 8 0.0611 -0.1421
18 -14 1 3.8491 0.1269
18 -14 2 -3.4854 0.0107
18 -14 3 3.1144 -0.0058
18 -14 4 1.7720 -0.0279
18 -14 5 1.5469 0.1987
18 -14 6 -1.2455 0.1055
18 -13 0 -1.8083 -0.4801
18 -13 1 -1.0918 -0.1071
18 -13 2 2.1829 -0.1931
18 -13 3 -2.0666 -0.1924
18 -13 4 2.6891 -0.0194
18 -13 5 -3.3681 0.0013
18 -13 6 0.4669 0.0090
18 -13 7 -3.0700 -0.2597
18 -13 8 -0.6823 -0.2197
18 -13 9 -1.7303 -0.0686
18 -12 0 -0.7523 -0.2016
18 -12 1 -1.0337 -0.1374
18 -12 2 -4.3248 -0.1310
18 -12 3 3.0601 0.2497
18 -12 4 -0.3410 -0.0518
18 -12 5 0.0352 -0.0745
18 -12 6 -0.5459 -0.3219
18 -12 7 -0.1327 0.0505
18 -12 8 -1.2439 0.2268
18 -12 9 3.0263 0.0897
18 -12 10 -0.7986 -0.0095
18 -11 0 -2.3312 -0.5520
18 -11 1 -2.4117 0.3687
18 -11 2 -0.1569 0.3127
18 -11 3 -0.4622 0.0458
18 -11 4 4.5048 -0.1301
18 -11 5 -1.2259 -0.0377
18 -11 6 1.5075 0.0725
18 -11 7 1.7072 -0.2780
18 -11 8 0.9371 -0.1628
18 -11 9 1.1973 0.0415
18 -11 10 2.2265 -0.2456
18 -10 0 -1.0386 -0.0080
18 -10 1 1.8688 -0.2933
18 -10 2 0.1600 -0.3716
18 -10 3 6.5081 0.0143
18 -10 4 1.0109 0.1244
18 -10 5 4.3583 0.0172
18 -10 6 -2.7652 0.1207
18 -10 7 -0.0994 -0.0698
18 -10 8 -1.0393 0.0703
18 -10 9 -0.4805 -0.0610
18 -10 10 -0.5854 0.1231
18 -9 0 2.1560 0.6769
18 -9 1 -3.1354 0.0187
18 -9 2 1.6563 -0.1631
18 -9 3 6.2006 -0.1253
18 -9 4 -1.9715 -0.0799
18 -9 5 -0.9568 -0.0799
18 -9 6 0.8680 -0.1184
18 -9 7 -2.1048 0.2695
18 -9 8 -2.6639 0.2657
18 -9 9 0.6415 0.0908
18 -9 10 -1.7326 0.4509
18 -8 0 -4.0262 0.1087
18 -8 1 1.0787 0.3743
18 -8 2 -5.3767 0.1448
18 -8 3 1.9301 -0.1711
18 -8 4 2.7011 -0.0892
18 -8 5 0.6878 -0.0120
18 -8 6 -0.2774 0.0300
18 -8 7 0.3848 -0.1214
18 -8 8 -0.3649 -0.3054
18 -8 9 -3.5571 -0.0144
18 -8 10 1.0617 -0.2817
18 -7 0 -1.3975 -0.3845
18 -7 1 -3.8912 -0.2336
18 -7 2 1.8725 0.0069
18 -7 3 -2.3831 0.3517
18 -7 4 1.0082 0.1909
18 -7 5 3.3592 0.0524
18 -7 6 2.6340 0.1675
18 -7 7 -3.6602 -0.0972
18 -7 8 1.1500 -0.0745
18 -7 9 2.7080 -0.0291
18 -6 0 -0.3758 -1.2325
18 -6 1 -4.3770 -0.0058
18 -6 2 -0.9299 0.2104
18 -6 3 3.4345 -0.0162
18 -6 4 -1.2889 -0.0665
18 -6 5 2.0423 -0.0360
18 -6 6 2.5182 -0.1392
18 -6 7 -2.1455 0.0734
18 -6 8 -1.2414 0.1049
18 -6 9 0.3888 -0.4061
18 -5 0 -0.5700 1.3390
18 -5 1 2.5425 0.0241
18 -5 2 -2.1056 -0.2554
18 -5 3 4.1867 -0.1580
18 -5 4 -0.6134 -0.0159
18 -5 5 2.8199 0.0119
18 -5 6 -2.8205 -0.0517
18 -5 7 0.0949 0.0824
18 -5 8 -3.6638 0.1206
18 -4 0 1.6448 0.2384
18 -4 1 -3.5371 0.0534
18 -4 2 1.5321 -0.0323
18 -4 3 -0.6474 -0.0155
18 -4 4 1.9852 0.0396
18 -4 5 0.5646 0.0922
18 -4 6 1.4220 0.2564
18 -4 7 -2.7536 0.0177
18 -4 8 0.8823 0.0511
18 -3 0 -0.0258 -0.4783
18 -3 1 -3.8015 -0.0918
18 -3 2 -1.4573 -0.1009
18 -3 3 0.3176 -0.0615
18 -3 4 0.3348 0.0241
18 -3 5 -1.0916 0.0889
18 -3 6 -2.6376 -0.1968
18 -3 7 -0.7232 -0.2143
18 -2 0 0.3012 -0.2452
18 -2 1 -6.3938 0.1735
18 -2 2 -1.3177 0.2515
18 -2 3 -2.4489 0.2791
18 -2 4 0.8212 -0.2735
18 -2 5 -1.4470 0.0401
18 -2 6 -2.4519 -0.0942
18 -1 0 -1.7365 -0.2619
18 -1 1 2.2804 0.1034
18 -1 2 0.2909 0.0419
18 -1 3 3.1846 0.0265
18 -1 4 2.7440 0.2466
18 0 0 0.7711 0.5518
18 0 1 2.2387 -0.3569
18 0 2 3.1092 -0.1327
18 0 3 -0.4996 0.2243
18 1 0 0.1440 -0.0108
18 1 1 -0.4579 0.2856
18 2 0 -1.0834 0.1231
19 -13 0 -2.0855 0.1988
19 -13 1 -1.5848 0.1158
19 -13 2 0.2110 0.6513
19 -13 3 -4.6711 0.1872
19 -13 4 2.8634 0.6172
19 -13 5 -0.8514 0.3806
19 -12 0 -4.3103 0.5007
19 -12 1 -1.3448 0.0995
19 -12 2 -1.8185 0.0011
19 -12 3 1.0714 -0.0012
19 -12 4 -0.0747 -0.0949
19 -12 5 0.4451 -0.1171
19 -12 6 0.9128 -0.5769
19 -12 7 0.1307 0.0044
19 -12 8 -0.7688 -0.3545
19 -11 0 3.0540 -0.9829
19 -11 1 1.4766 -0.3803
19 -11 2 2.7832 0.1591
19 -11 3 -3.5064 0.0429
19 -11 4 9.3451 0.1009
19 -11 5 -0.6543 0.2136
19 -11 6 2.4863 0.0668
19 -11 7 -1.1226 -0.0573
19 -11 8 0.5764 -0.0739
19 -10 0 -2.0803 -0.1233
19 -10 1 3.3908 0.2423
19 -10 2 -0.5451 0.0806
19 -10 3 0.1798 0.3032
19 -10 4 0.1489 -0.0366
19 -10 5 2.7127 -0.2099
19 -10 6 -1.3123 -0.1767
19 -10 7 2.2708 -0.3779
19 -10 8 -0.1790 -0.0949
19 -9 0 -0.6350 1.0017
19 -9 1 -5.0837 0.2159
19 -9 2 -2.2112 -0.0372
19 -9 3 0.5844 0.0411
19 -9 4 -1.6578 0.1492
19 -9 5 -0.0209 0.1815
19 -9 6 1.6543 0.0591
19 -9 7 -1.1187 0.4320
19 -9 8 -0.8187 0.0575
19 -8 0 -3.0713 -0.1133
19 -8 1 0.2720 -0.1582
19 -8 2 -5.6461 -0.1339
19 -8 3 -1.1603 -0.3434
19 -8 4 -1.3979 0.1307
19 -8 5 -5.2305 0.2030
19 -8 6 -2.0231 0.0404
19 -8 7 1.7118 0.1056
19 -8 8 -1.5274 0.0931
19 -7 0 -0.1382 -0.0143
19 -7 1 0.0876 -0.1897
19 -7 2 0.5718 -0.0056
19 -7 3 -2.5069 0.1862
19 -7 4 0.6762 -0.3131
19 -7 5 0.3196 -0.4930
19 -7 6 1.9835 -0.1075
19 -7 7 1.7034 -0.1692
19 -6 0 6.6601 -0.7869
19 -6 1 6.2613 0.4654
19 -6 2 1.5804 0.2769
19 -6 3 3.2654 0.0085
19 -6 4 -0.3544 -0.0346
19 -6 5 0.4618 0.1618
19 -6 6 4.3108 -0.0329
19 -6 7 -1.1800 -0.0237
19 -5 0 -0.5876 0.2993
19 -5 1 4.0042 -0.5660
19 -5 2 -4.9623 -0.1749
19 -5 3 1.8904 0.0675
19 -5 4 -0.1713 0.1721
19 -5 5 -0.8905 0.0224
19 -5 6 -0.3933 -0.2449
19 -4 0 0.0589 0.2676
19 -4 1 0.2282 0.1873
19 -4 2 -3.1463 -0.0175
19 -4 3 -2.2271 -0.0942
19 -4 4 -0.8664 0.1126
19 -4 5 0.8610 0.2364
19 -3 0 -1.5829 0.4804
19 -3 1 1.0188 0.3341
19 -3 2 -4.1459 0.0681
19 -3 3 -1.2746 0.0785
19 -3 4 1.1291 0.2143
19 -2 0 3.4908 -0.4268
19 -2 1 0.8216 -0.3736
19 -2 2 2.8513 -0.6218
19 -2 3 0.2397 -0.3341
19 -1 0 0.7944 -0.5706
19 -1 1 1.3394 -0.2185
19 -1 2 -0.5245 -0.1694
19 0 0 -2.7425 0.9303
19 0 1 -1.5523 0.2801
19 1 0 -1.2942 0.0782
20 -11 0 2.1318 -0.3354
20 -11 1 -1.7506 -0.4815
20 -11 2 3.3434 0.0269
20 -11 3 -3.3262 -0.3011
20 -10 0 -4.1660 -0.1944
20 -10 1 -0.6344 0.0750
20 -10 2 -2.9186 -0.0083
20 -10 3 -3.8497 0.2190
20 -9 0 -1.8260 0.1802
20 -9 1 -3.3847 -0.0306
20 -9 2 1.5675 -0.3525
20 -9 3 -0.1473 -0.1423
20 -9 4 -2.8021 -0.0944
20 -8 0 -0.2537 0.3633
20 -8 1 1.6847 0.3959
20 -8 2 0.2750 0.6327
20 -8 3 1.1306 0.2915
20 -8 4 5.8119 0.4271
20 -7 0 1.5320 0.4611
20 -7 1 1.0866 -0.0201
20 -7 2 4.8357 -0.1784
20 -7 3 -1.4657 -0.1345
20 -6 0 -4.1113 -1.2847
20 -6 1 -1.5574 -0.5159
20 -6 2 0.2687 -0.4617
20 -6 3 -1.2726 -0.0353
20 -5 0 -3.4041 0.4979
20 -5 1 0.8658 0.2226
20 -5 2 -0.4956 0.3249
20 -5 3 -2.1762 -0.0233
20 -4 0 0.3775 0.3844
20 -4 1 -1.3390 0.1249
20 -4 2 -0.0997 0.0505
20 -3 0 -0.5288 0.0189
20 -3 1 3.3545 0.3359
20 -2 0 0.0122 -0.0556
0 0 0 0.0 0.0
;
_shelx_fab_checksum              16525
_olex2_date_sample_data_collection 2021-06-27
_olex2_submission_special_instructions 'No special instructions were received'
_oxdiff_exptl_absorpt_empirical_details
;
Empirical correction (ABSPACK) includes:
- Absorption correction using spherical harmonics
- Frame scaling
;
_oxdiff_exptl_absorpt_empirical_full_max 1.244
_oxdiff_exptl_absorpt_empirical_full_min 0.735
loop_
_space_group_symop_operation_xyz
'x, y, z'
'-x, -y, -z'
loop_
_atom_site_label
_atom_site_type_symbol
_atom_site_fract_x
_atom_site_fract_y
_atom_site_fract_z
_atom_site_U_iso_or_equiv
_atom_site_adp_type
_atom_site_occupancy
_atom_site_site_symmetry_order
_atom_site_calc_flag
_atom_site_refinement_flags_posn
_atom_site_refinement_flags_adp
_atom_site_refinement_flags_occupancy
_atom_site_disorder_assembly
_atom_site_disorder_group
Zn1 Zn 1.02208(2) 0.57422(3) 0.90414(3) 0.01254(10) Uani 1 1 d . . . . .
Zn3 Zn 0.08656(2) 0.78736(3) -0.00611(3) 0.01289(10) Uani 1 1 d . . . . .
Zn2 Zn 0.55537(2) 0.68507(3) 0.45468(3) 0.01507(11) Uani 1 1 d . . . . .
O1 O 0.96436(14) 0.61799(16) 0.02176(15) 0.0181(4) Uani 1 1 d . . . . .
O3 O 1.00190(14) 0.74189(16) 0.87946(15) 0.0192(5) Uani 1 1 d . . . . .
O4 O 0.98060(14) 0.43305(16) 0.86054(16) 0.0196(5) Uani 1 1 d D . . . .
H4A H 1.0073 0.4223 0.8962 0.029 Uiso 1 1 d R U . . .
H4B H 0.9279 0.4137 0.8661 0.029 Uiso 1 1 d DR U . . .
O6 O 0.09976(14) 0.58738(16) 0.81527(15) 0.0198(5) Uani 1 1 d . . . . .
O8 O 0.97514(14) 0.76807(16) 0.05445(16) 0.0190(5) Uani 1 1 d . . . . .
O10 O 0.17292(14) 0.74650(16) 0.90948(15) 0.0200(5) Uani 1 1 d . . . . .
O11 O 0.14857(14) 0.76988(16) 0.08729(15) 0.0187(4) Uani 1 1 d . . . . .
O5 O 0.92868(14) 0.58648(16) 0.83843(16) 0.0198(5) Uani 1 1 d . . . . .
O2 O 0.12644(14) 0.61194(16) -0.00574(15) 0.0182(4) Uani 1 1 d . . . . .
N1 N 0.42948(15) 0.67675(19) 0.45125(17) 0.0143(5) Uani 1 1 d . . . . .
O7 O 0.61593(17) 0.84588(18) 0.54973(17) 0.0274(5) Uani 1 1 d . . . . .
N4 N 0.67323(16) 0.66975(19) 0.44385(18) 0.0157(5) Uani 1 1 d . . . . .
N6 N 0.54579(17) 0.64960(19) 0.55720(17) 0.0160(5) Uani 1 1 d . . . . .
N3 N 0.55402(17) 0.6907(2) 0.33467(18) 0.0179(5) Uani 1 1 d . . . . .
N2 N 0.13905(17) 0.93042(19) 0.03806(18) 0.0170(5) Uani 1 1 d . . . . .
N5 N 0.1671(2) 1.0813(2) 0.0661(2) 0.0251(6) Uani 1 1 d . . . . .
H5 H 0.1588 1.1314 0.0702 0.030 Uiso 1 1 calc R U . . .
C1 C 0.4786(2) 0.6434(2) 0.6034(2) 0.0177(6) Uani 1 1 d . . . . .
O13 O 0.8293(3) 0.0072(2) 0.6392(2) 0.0537(9) Uani 1 1 d . . . . .
C4 C 0.4035(2) 0.6595(2) 0.5882(2) 0.0180(6) Uani 1 1 d . . . . .
O9 O 0.5398(2) 0.9880(2) 0.6015(3) 0.0546(9) Uani 1 1 d . . . . .
C6 C 0.7222(2) 0.6642(2) 0.5060(2) 0.0176(6) Uani 1 1 d . . . . .
C8 C 0.6203(2) 0.6940(3) 0.2865(2) 0.0208(6) Uani 1 1 d . . . . .
C10 C 0.6922(2) 0.6491(2) 0.5784(2) 0.0169(6) Uani 1 1 d . . . . .
C12 C 0.3819(2) 0.6886(2) 0.3926(2) 0.0167(6) Uani 1 1 d . . . . .
C14 C 0.8063(2) 0.6712(2) 0.4816(2) 0.0215(7) Uani 1 1 d . . . . .
H14 H 0.8519 0.6704 0.5134 0.026 Uiso 1 1 calc R U . . .
C16 C 0.7622(2) 0.6908(2) 0.2443(2) 0.0183(6) Uani 1 1 d . . . . .
C18 C 0.3804(2) 0.6747(2) 0.5175(2) 0.0175(6) Uani 1 1 d . . . . .
C20 C 0.8060(2) 0.5721(2) 0.7130(2) 0.0194(6) Uani 1 1 d . . . . .
H20 H 0.7984 0.5179 0.7192 0.023 Uiso 1 1 calc R U . . .
C22 C 0.94434(19) 0.6929(2) 0.0629(2) 0.0164(6) Uani 1 1 d . . . . .
C24 C 0.3437(2) 0.6965(2) 0.2533(2) 0.0186(6) Uani 1 1 d . . . . .
C26 C 0.2241(2) 0.6083(2) 0.1268(2) 0.0195(6) Uani 1 1 d . . . . .
H26 H 0.1839 0.5495 0.0822 0.023 Uiso 1 1 calc R U . . .
C28 C 0.6092(2) 0.6379(2) 0.5987(2) 0.0175(6) Uani 1 1 d . . . . .
C30 C 0.8773(2) 0.6568(2) 0.7649(2) 0.0183(6) Uani 1 1 d . . . . .
C32 C 0.8797(2) 0.6921(2) 0.1250(2) 0.0172(6) Uani 1 1 d . . . . .
C34 C 0.3421(2) 0.6609(2) 0.6541(2) 0.0184(6) Uani 1 1 d . . . . .
C36 C 0.2826(2) 0.6101(2) 0.1875(2) 0.0238(7) Uani 1 1 d . . . . .
H36 H 0.2807 0.5521 0.1838 0.029 Uiso 1 1 calc R U . . .
C38 C 0.2258(2) 0.6957(2) 0.1331(2) 0.0165(6) Uani 1 1 d . . . . .
C40 C 0.2853(2) 0.7827(2) 0.2013(2) 0.0200(6) Uani 1 1 d . . . . .
H40 H 0.2855 0.8411 0.2076 0.024 Uiso 1 1 calc R U . . .
C42 C 0.7565(2) 0.6492(2) 0.6414(2) 0.0168(6) Uani 1 1 d . . . . .
C44 C 0.7811(2) 0.6078(3) 0.1883(2) 0.0216(7) Uani 1 1 d . . . . .
H44 H 0.7546 0.5515 0.1912 0.026 Uiso 1 1 calc R U . . .
C46 C 0.3018(2) 0.6878(3) 0.4989(2) 0.0223(7) Uani 1 1 d . . . . .
H46 H 0.2584 0.6910 0.5341 0.027 Uiso 1 1 calc R U . . .
C48 C 0.94037(19) 0.6618(2) 0.8334(2) 0.0164(6) Uani 1 1 d . . . . .
C50 C 0.8388(2) 0.6078(2) 0.1284(2) 0.0198(6) Uani 1 1 d . . . . .
H50 H 0.8500 0.5515 0.0907 0.024 Uiso 1 1 calc R U . . .
C52 C 0.6994(2) 0.6885(2) 0.3077(2) 0.0177(6) Uani 1 1 d . . . . .
C54 C 0.8888(2) 0.7363(2) 0.7534(2) 0.0188(6) Uani 1 1 d . . . . .
H54 H 0.9371 0.7923 0.7865 0.023 Uiso 1 1 calc R U . . .
C56 C 0.4079(2) 0.6946(2) 0.3149(2) 0.0189(6) Uani 1 1 d . . . . .
C58 C 0.3022(2) 0.6944(2) 0.4239(2) 0.0228(7) Uani 1 1 d . . . . .
H58 H 0.2586 0.7016 0.3958 0.027 Uiso 1 1 calc R U . . .
C60 C 0.7460(2) 0.5687(2) 0.6518(2) 0.0207(6) Uani 1 1 d . . . . .
H60 H 0.6986 0.5121 0.6176 0.025 Uiso 1 1 calc R U . . .
C62 C 0.5954(2) 0.7019(3) 0.2077(2) 0.0277(8) Uani 1 1 d . . . . .
H62 H 0.6286 0.7051 0.1639 0.033 Uiso 1 1 calc R U . . .
C64 C 0.8076(2) 0.6789(2) 0.4072(2) 0.0221(7) Uani 1 1 d . . . . .
H64 H 0.8538 0.6838 0.3763 0.027 Uiso 1 1 calc R U . . .
C2 C 0.2260(2) 0.6639(2) 0.7753(2) 0.0179(6) Uani 1 1 d . . . . .
C33 C 0.2278(2) 0.9831(2) 0.0719(2) 0.0220(7) Uani 1 1 d . . . . .
C17 C 0.7235(2) 0.6785(2) 0.3816(2) 0.0183(6) Uani 1 1 d . . . . .
O12 O 0.9466(2) -0.0721(3) 0.6646(3) 0.0643(10) Uani 1 1 d . . . . .
C35 C 0.16161(19) 0.6659(2) 0.8382(2) 0.0162(6) Uani 1 1 d . . . . .
C9 C 0.8291(2) 0.7330(2) 0.6927(2) 0.0198(6) Uani 1 1 d . . . . .
H9 H 0.8373 0.7871 0.6861 0.024 Uiso 1 1 calc R U . . .
C37 C 0.1062(2) 0.9929(2) 0.0353(2) 0.0216(7) Uani 1 1 d . . . . .
C19 C 0.1625(2) 0.6928(2) 0.0666(2) 0.0157(6) Uani 1 1 d . . . . .
C39 C 0.8613(2) 0.7757(3) 0.1805(2) 0.0226(7) Uani 1 1 d . . . . .
H39 H 0.8880 0.8321 0.1779 0.027 Uiso 1 1 calc R U . . .
C5 C 0.4981(2) 0.6225(3) 0.6742(2) 0.0236(7) Uani 1 1 d . . . . .
H5A H 0.4621 0.6126 0.7137 0.028 Uiso 1 1 calc R U . . .
C41 C 0.4888(2) 0.6965(2) 0.2896(2) 0.0203(6) Uani 1 1 d . . . . .
C21 C 0.8030(2) 0.7747(3) 0.2396(2) 0.0239(7) Uani 1 1 d . . . . .
H21 H 0.7912 0.8306 0.2766 0.029 Uiso 1 1 calc R U . . .
C43 C 0.5142(2) 0.7036(3) 0.2106(2) 0.0294(8) Uani 1 1 d . . . . .
H43 H 0.4813 0.7085 0.1692 0.035 Uiso 1 1 calc R U . . .
C11 C 0.3450(2) 0.7832(3) 0.2606(2) 0.0241(7) Uani 1 1 d . . . . .
H11 H 0.3857 0.8417 0.3051 0.029 Uiso 1 1 calc R U . . .
C45 C 0.0149(2) 0.9678(3) 0.0033(3) 0.0307(8) Uani 1 1 d . . . . .
H45 H -0.0237 0.9063 -0.0128 0.037 Uiso 1 1 calc R U . . .
C23 C 0.2445(2) 1.0778(3) 0.0898(3) 0.0264(7) Uani 1 1 d . . . . .
C47 C 0.5787(2) 0.6200(3) 0.6721(2) 0.0223(7) Uani 1 1 d . . . . .
H47 H 0.6090 0.6089 0.7105 0.027 Uiso 1 1 calc R U . . .
C3 C 0.2939(2) 0.9533(3) 0.0851(3) 0.0291(8) Uani 1 1 d . . . . .
H3 H 0.2832 0.8901 0.0727 0.035 Uiso 1 1 calc R U . . .
C49 C 0.2204(3) 0.5781(3) 0.6985(3) 0.0344(9) Uani 1 1 d . . . . .
H49 H 0.1780 0.5203 0.6871 0.041 Uiso 1 1 calc R U . . .
C25 C 0.2776(3) 0.5770(3) 0.6377(3) 0.0388(10) Uani 1 1 d . . . . .
H25 H 0.2720 0.5186 0.5852 0.047 Uiso 1 1 calc R U . . .
C51 C 0.3274(3) 1.1477(3) 0.1238(3) 0.0407(10) Uani 1 1 d . . . . .
H51 H 0.3385 1.2109 0.1360 0.049 Uiso 1 1 calc R U . . .
C13 C 0.3502(3) 0.7463(3) 0.7333(3) 0.0382(10) Uani 1 1 d . . . . .
H13 H 0.3947 0.8033 0.7463 0.046 Uiso 1 1 calc R U . . .
C53 C 0.3760(3) 1.0225(3) 0.1177(3) 0.0400(10) Uani 1 1 d . . . . .
H53 H 0.4221 1.0052 0.1262 0.048 Uiso 1 1 calc R U . . .
C27 C 0.2925(3) 0.7484(3) 0.7941(3) 0.0411(11) Uani 1 1 d . . . . .
H27 H 0.2987 0.8065 0.8472 0.049 Uiso 1 1 calc R U . . .
C55 C 0.3914(3) 1.1182(3) 0.1382(4) 0.0450(11) Uani 1 1 d . . . . .
H55 H 0.4472 1.1632 0.1624 0.054 Uiso 1 1 calc R U . . .
C7 C 0.5215(3) 0.9241(3) 0.6375(4) 0.0493(12) Uani 1 1 d . . . . .
H7A H 0.4709 0.8675 0.5992 0.059 Uiso 1 1 calc R U . . .
H7B H 0.5091 0.9564 0.6991 0.059 Uiso 1 1 calc R U . . .
C57 C 0.8408(4) 0.0008(4) 0.7200(3) 0.0506(12) Uani 1 1 d . . . . .
H57A H 0.7986 -0.0590 0.7118 0.061 Uiso 1 1 calc R U . . .
H57B H 0.8312 0.0546 0.7718 0.061 Uiso 1 1 calc R U . . .
C29 C 0.5969(3) 0.8922(3) 0.6409(3) 0.0417(10) Uani 1 1 d . . . . .
H29A H 0.6468 0.9482 0.6819 0.050 Uiso 1 1 calc R U . . .
H29B H 0.5827 0.8473 0.6644 0.050 Uiso 1 1 calc R U . . .
C59 C 0.5604(4) 0.9417(4) 0.5107(4) 0.0547(13) Uani 1 1 d . . . . .
H59A H 0.5744 0.9864 0.4870 0.066 Uiso 1 1 calc R U . . .
H59B H 0.5110 0.8852 0.4692 0.066 Uiso 1 1 calc R U . . .
C15 C 0.6356(3) 0.9111(3) 0.5150(3) 0.0415(10) Uani 1 1 d . . . . .
H15A H 0.6493 0.8799 0.4539 0.050 Uiso 1 1 calc R U . . .
H15B H 0.6856 0.9679 0.5546 0.050 Uiso 1 1 calc R U . . .
C61 C 0.9285(4) 0.0027(4) 0.7405(4) 0.0604(14) Uani 1 1 d . . . . .
H61A H 0.9705 0.0651 0.7550 0.072 Uiso 1 1 calc R U . . .
H61B H 0.9331 -0.0053 0.7940 0.072 Uiso 1 1 calc R U . . .
C31 C 0.9338(4) -0.0665(4) 0.5828(4) 0.0643(16) Uani 1 1 d . . . . .
H31A H 0.9441 -0.1200 0.5311 0.077 Uiso 1 1 calc R U . . .
H31B H 0.9748 -0.0063 0.5906 0.077 Uiso 1 1 calc R U . . .
C63 C 0.8448(4) -0.0708(4) 0.5628(4) 0.0613(15) Uani 1 1 d . . . . .
H63A H 0.8377 -0.0660 0.5078 0.074 Uiso 1 1 calc R U . . .
H63B H 0.8036 -0.1324 0.5517 0.074 Uiso 1 1 calc R U . . .
loop_
_atom_site_aniso_label
_atom_site_aniso_U_11
_atom_site_aniso_U_22
_atom_site_aniso_U_33
_atom_site_aniso_U_23
_atom_site_aniso_U_13
_atom_site_aniso_U_12
Zn1 0.0129(2) 0.0161(2) 0.01191(19) 0.00852(16) 0.00203(15) 0.00661(15)
Zn3 0.0132(2) 0.0153(2) 0.01226(19) 0.00767(16) 0.00186(15) 0.00622(15)
Zn2 0.0127(2) 0.0234(2) 0.0125(2) 0.01036(17) 0.00248(15) 0.00821(16)
O1 0.0198(11) 0.0239(11) 0.0194(11) 0.0142(9) 0.0103(9) 0.0128(9)
O3 0.0170(11) 0.0219(11) 0.0190(11) 0.0111(9) -0.0027(9) 0.0058(9)
O4 0.0183(11) 0.0199(11) 0.0230(12) 0.0131(9) 0.0022(9) 0.0060(9)
O6 0.0199(11) 0.0211(11) 0.0163(11) 0.0097(9) 0.0058(9) 0.0041(9)
O8 0.0197(11) 0.0232(11) 0.0237(11) 0.0159(10) 0.0092(9) 0.0124(9)
O10 0.0186(11) 0.0217(11) 0.0181(11) 0.0087(9) 0.0059(9) 0.0072(9)
O11 0.0220(11) 0.0209(11) 0.0150(10) 0.0091(9) 0.0000(9) 0.0096(9)
O5 0.0171(11) 0.0208(11) 0.0257(12) 0.0151(10) -0.0017(9) 0.0059(9)
O2 0.0182(11) 0.0198(11) 0.0163(10) 0.0081(9) -0.0012(8) 0.0077(9)
N1 0.0085(11) 0.0202(13) 0.0139(12) 0.0086(10) -0.0005(9) 0.0046(10)
O7 0.0299(13) 0.0218(12) 0.0248(12) 0.0085(10) 0.0030(10) 0.0073(10)
N4 0.0114(12) 0.0225(13) 0.0169(12) 0.0111(11) 0.0020(10) 0.0083(10)
N6 0.0163(12) 0.0219(13) 0.0141(12) 0.0111(11) 0.0043(10) 0.0087(10)
N3 0.0149(12) 0.0299(14) 0.0126(12) 0.0115(11) 0.0018(10) 0.0109(11)
N2 0.0166(13) 0.0172(13) 0.0187(13) 0.0087(11) 0.0017(10) 0.0080(10)
N5 0.0298(16) 0.0148(13) 0.0320(16) 0.0120(12) -0.0005(12) 0.0087(12)
C1 0.0182(15) 0.0217(15) 0.0125(14) 0.0082(12) 0.0035(11) 0.0065(12)
O13 0.079(3) 0.0453(19) 0.0396(18) 0.0179(15) 0.0069(17) 0.0302(18)
C4 0.0175(15) 0.0192(15) 0.0143(14) 0.0073(12) 0.0018(12) 0.0047(12)
O9 0.056(2) 0.0314(16) 0.062(2) 0.0103(15) -0.0024(17) 0.0198(15)
C6 0.0180(15) 0.0224(15) 0.0160(14) 0.0115(13) 0.0005(12) 0.0084(12)
C8 0.0218(16) 0.0293(17) 0.0149(15) 0.0128(13) 0.0040(12) 0.0107(14)
C10 0.0181(15) 0.0216(15) 0.0139(14) 0.0097(12) 0.0033(12) 0.0090(12)
C12 0.0153(14) 0.0195(15) 0.0162(14) 0.0095(12) -0.0003(11) 0.0061(12)
C14 0.0097(14) 0.0262(17) 0.0276(17) 0.0113(14) -0.0016(12) 0.0083(12)
C16 0.0161(14) 0.0261(16) 0.0149(14) 0.0113(13) 0.0032(12) 0.0082(13)
C18 0.0149(14) 0.0195(15) 0.0170(15) 0.0087(12) 0.0041(12) 0.0058(12)
C20 0.0178(15) 0.0201(15) 0.0225(16) 0.0124(13) -0.0008(12) 0.0066(13)
C22 0.0150(14) 0.0244(16) 0.0160(14) 0.0130(13) 0.0041(11) 0.0099(12)
C24 0.0180(15) 0.0270(17) 0.0150(14) 0.0126(13) 0.0004(12) 0.0098(13)
C26 0.0163(15) 0.0206(15) 0.0222(16) 0.0130(13) -0.0060(12) 0.0035(12)
C28 0.0202(15) 0.0194(15) 0.0138(14) 0.0080(12) -0.0001(12) 0.0087(12)
C30 0.0199(15) 0.0203(15) 0.0159(14) 0.0097(12) 0.0012(12) 0.0077(13)
C32 0.0181(15) 0.0232(16) 0.0167(14) 0.0122(13) 0.0064(12) 0.0115(13)
C34 0.0205(15) 0.0230(16) 0.0168(15) 0.0122(13) 0.0035(12) 0.0101(13)
C36 0.0262(17) 0.0221(16) 0.0283(17) 0.0166(14) -0.0026(14) 0.0082(14)
C38 0.0169(14) 0.0209(15) 0.0162(14) 0.0122(12) 0.0024(12) 0.0072(12)
C40 0.0240(16) 0.0192(15) 0.0195(15) 0.0116(13) 0.0002(13) 0.0080(13)
C42 0.0164(14) 0.0215(15) 0.0159(14) 0.0106(12) 0.0033(12) 0.0086(12)
C44 0.0225(16) 0.0260(17) 0.0229(16) 0.0153(14) 0.0091(13) 0.0117(14)
C46 0.0125(14) 0.0296(18) 0.0280(17) 0.0134(15) 0.0018(12) 0.0131(13)
C48 0.0146(14) 0.0236(16) 0.0142(14) 0.0110(12) 0.0034(11) 0.0079(12)
C50 0.0201(15) 0.0247(16) 0.0196(15) 0.0127(13) 0.0062(12) 0.0112(13)
C52 0.0170(15) 0.0241(16) 0.0147(14) 0.0105(12) 0.0063(12) 0.0094(12)
C54 0.0168(15) 0.0195(15) 0.0191(15) 0.0104(13) -0.0004(12) 0.0041(12)
C56 0.0185(15) 0.0218(15) 0.0170(15) 0.0111(13) -0.0003(12) 0.0057(12)
C58 0.0131(15) 0.0270(17) 0.0298(18) 0.0138(15) 0.0043(13) 0.0096(13)
C60 0.0183(15) 0.0227(16) 0.0197(15) 0.0104(13) -0.0016(12) 0.0059(13)
C62 0.0277(18) 0.049(2) 0.0200(16) 0.0235(16) 0.0102(14) 0.0190(17)
C64 0.0127(15) 0.0228(16) 0.0308(18) 0.0129(14) 0.0050(13) 0.0068(12)
C2 0.0156(14) 0.0247(16) 0.0163(14) 0.0122(13) 0.0058(12) 0.0074(12)
C33 0.0207(16) 0.0195(16) 0.0220(16) 0.0097(13) -0.0013(13) 0.0032(13)
C17 0.0198(15) 0.0225(16) 0.0172(15) 0.0111(13) 0.0062(12) 0.0110(13)
O12 0.050(2) 0.068(3) 0.077(3) 0.036(2) 0.014(2) 0.0231(19)
C35 0.0155(14) 0.0221(15) 0.0140(14) 0.0099(12) 0.0035(11) 0.0090(12)
C9 0.0173(15) 0.0197(15) 0.0215(16) 0.0120(13) -0.0043(12) 0.0027(12)
C37 0.0225(17) 0.0179(15) 0.0222(16) 0.0080(13) -0.0006(13) 0.0076(13)
C19 0.0171(14) 0.0195(15) 0.0140(14) 0.0115(12) 0.0033(11) 0.0057(12)
C39 0.0270(17) 0.0233(16) 0.0224(16) 0.0135(14) 0.0099(14) 0.0113(14)
C5 0.0253(17) 0.0320(18) 0.0194(16) 0.0159(14) 0.0061(13) 0.0124(15)
C41 0.0197(16) 0.0256(16) 0.0171(15) 0.0115(13) -0.0006(12) 0.0086(13)
C21 0.0257(17) 0.0287(18) 0.0243(17) 0.0148(14) 0.0119(14) 0.0155(15)
C43 0.0274(18) 0.047(2) 0.0225(17) 0.0217(17) 0.0046(14) 0.0166(17)
C11 0.0245(17) 0.0239(17) 0.0180(16) 0.0082(13) -0.0043(13) 0.0050(14)
C45 0.0220(17) 0.0222(17) 0.046(2) 0.0144(16) -0.0016(16) 0.0099(14)
C23 0.0227(17) 0.0235(17) 0.0313(19) 0.0149(15) -0.0002(14) 0.0041(14)
C47 0.0195(16) 0.0372(19) 0.0194(15) 0.0198(15) 0.0054(13) 0.0121(14)
C3 0.0252(18) 0.0278(18) 0.037(2) 0.0185(16) -0.0002(15) 0.0090(15)
C49 0.034(2) 0.0218(18) 0.035(2) 0.0087(16) 0.0210(17) 0.0029(15)
C25 0.041(2) 0.0240(19) 0.035(2) 0.0064(16) 0.0270(19) 0.0041(17)
C51 0.033(2) 0.0238(19) 0.056(3) 0.0212(19) -0.0134(19) -0.0033(16)
C13 0.035(2) 0.0241(19) 0.034(2) 0.0047(16) 0.0197(17) -0.0006(16)
C53 0.0234(19) 0.041(2) 0.051(3) 0.024(2) -0.0085(18) 0.0037(17)
C27 0.042(2) 0.0261(19) 0.033(2) 0.0026(17) 0.0214(19) 0.0039(17)
C55 0.029(2) 0.036(2) 0.061(3) 0.027(2) -0.012(2) -0.0023(18)
C7 0.049(3) 0.028(2) 0.050(3) 0.006(2) 0.013(2) 0.011(2)
C57 0.066(3) 0.050(3) 0.040(3) 0.023(2) 0.011(2) 0.023(2)
C29 0.056(3) 0.028(2) 0.030(2) 0.0089(17) 0.0097(19) 0.0104(19)
C59 0.070(4) 0.035(2) 0.051(3) 0.018(2) -0.011(3) 0.016(2)
C15 0.049(3) 0.025(2) 0.039(2) 0.0118(18) 0.004(2) 0.0073(18)
C61 0.064(4) 0.062(3) 0.039(3) 0.016(2) -0.002(2) 0.018(3)
C31 0.063(4) 0.052(3) 0.068(4) 0.023(3) 0.030(3) 0.020(3)
C63 0.080(4) 0.045(3) 0.045(3) 0.009(2) 0.008(3) 0.026(3)
loop_
_atom_type_symbol
_atom_type_description
_atom_type_scat_dispersion_real
_atom_type_scat_dispersion_imag
_atom_type_scat_source
C C 0.0181 0.0091 'International Tables Vol C Tables 4.2.6.8 and 6.1.1.4'
H H 0.0000 0.0000 'International Tables Vol C Tables 4.2.6.8 and 6.1.1.4'
N N 0.0311 0.0180 'International Tables Vol C Tables 4.2.6.8 and 6.1.1.4'
O O 0.0492 0.0322 'International Tables Vol C Tables 4.2.6.8 and 6.1.1.4'
Zn Zn -1.5491 0.6778 'International Tables Vol C Tables 4.2.6.8 and 6.1.1.4'
loop_
_geom_angle_atom_site_label_1
_geom_angle_atom_site_label_2
_geom_angle_atom_site_label_3
_geom_angle
_geom_angle_site_symmetry_1
_geom_angle_site_symmetry_3
_geom_angle_publ_flag
O1 Zn1 Zn3 75.71(6) 1_556 1_656 ?
O4 Zn1 Zn3 172.31(7) . 1_656 ?
O4 Zn1 O1 98.34(9) . 1_556 ?
O4 Zn1 O6 103.09(9) . 1_655 ?
O4 Zn1 O5 102.49(9) . . ?
O4 Zn1 O2 96.77(9) . 1_656 ?
O6 Zn1 Zn3 82.57(7) 1_655 1_656 ?
O6 Zn1 O1 158.15(9) 1_655 1_556 ?
O6 Zn1 O2 89.28(9) 1_655 1_656 ?
O5 Zn1 Zn3 82.45(7) . 1_656 ?
O5 Zn1 O1 88.84(9) . 1_556 ?
O5 Zn1 O6 90.66(9) . 1_655 ?
O5 Zn1 O2 160.23(9) . 1_656 ?
O2 Zn1 Zn3 77.94(6) 1_656 1_656 ?
O2 Zn1 O1 83.97(9) 1_656 1_556 ?
O3 Zn3 Zn1 75.45(6) 1_454 1_454 ?
O3 Zn3 O8 84.75(9) 1_454 1_455 ?
O3 Zn3 O10 88.31(9) 1_454 1_554 ?
O3 Zn3 O11 155.15(9) 1_454 . ?
O8 Zn3 Zn1 81.56(6) 1_455 1_454 ?
O10 Zn3 Zn1 75.42(6) 1_554 1_454 ?
O10 Zn3 O8 156.95(9) 1_554 1_455 ?
O11 Zn3 Zn1 79.87(6) . 1_454 ?
O11 Zn3 O8 88.86(9) . 1_455 ?
O11 Zn3 O10 88.27(9) . 1_554 ?
N2 Zn3 Zn1 171.15(8) . 1_454 ?
N2 Zn3 O3 100.85(10) . 1_454 ?
N2 Zn3 O8 106.30(10) . 1_455 ?
N2 Zn3 O10 96.59(10) . 1_554 ?
N2 Zn3 O11 103.99(10) . . ?
N1 Zn2 O7 97.35(10) . . ?
N1 Zn2 N6 89.56(10) . . ?
N1 Zn2 N3 89.09(10) . . ?
N4 Zn2 N1 170.78(10) . . ?
N4 Zn2 O7 91.87(10) . . ?
N4 Zn2 N6 89.69(10) . . ?
N4 Zn2 N3 89.80(10) . . ?
N6 Zn2 O7 95.45(10) . . ?
N3 Zn2 O7 96.15(10) . . ?
N3 Zn2 N6 168.40(11) . . ?
C22 O1 Zn1 128.22(19) . 1_554 ?
C48 O3 Zn3 128.5(2) . 1_656 ?
Zn1 O4 H4A 109.8 . . ?
Zn1 O4 H4B 109.9 . . ?
H4A O4 H4B 104.1 . . ?
C35 O6 Zn1 121.4(2) . 1_455 ?
C22 O8 Zn3 119.78(19) . 1_655 ?
C35 O10 Zn3 128.5(2) . 1_556 ?
C19 O11 Zn3 123.0(2) . . ?
C48 O5 Zn1 121.1(2) . . ?
C19 O2 Zn1 127.1(2) . 1_454 ?
C12 N1 Zn2 127.2(2) . . ?
C12 N1 C18 106.0(2) . . ?
C18 N1 Zn2 126.0(2) . . ?
C29 O7 Zn2 121.6(2) . . ?
C15 O7 Zn2 121.0(2) . . ?
C15 O7 C29 109.8(3) . . ?
C6 N4 Zn2 126.2(2) . . ?
C17 N4 Zn2 126.2(2) . . ?
C17 N4 C6 106.9(3) . . ?
C1 N6 Zn2 126.3(2) . . ?
C1 N6 C28 107.0(3) . . ?
C28 N6 Zn2 126.4(2) . . ?
C8 N3 Zn2 126.2(2) . . ?
C8 N3 C41 106.7(3) . . ?
C41 N3 Zn2 127.1(2) . . ?
C33 N2 Zn3 122.5(2) . . ?
C37 N2 Zn3 131.8(2) . . ?
C37 N2 C33 105.4(3) . . ?
C37 N5 H5 125.8 . . ?
C37 N5 C23 108.3(3) . . ?
C23 N5 H5 125.8 . . ?
N6 C1 C4 125.6(3) . . ?
N6 C1 C5 109.8(3) . . ?
C4 C1 C5 124.5(3) . . ?
C57 O13 C63 109.8(4) . . ?
C1 C4 C34 117.2(3) . . ?
C18 C4 C1 126.1(3) . . ?
C18 C4 C34 116.7(3) . . ?
C7 O9 C59 110.1(3) . . ?
N4 C6 C10 124.6(3) . . ?
N4 C6 C14 108.7(3) . . ?
C10 C6 C14 126.6(3) . . ?
N3 C8 C52 125.8(3) . . ?
N3 C8 C62 109.4(3) . . ?
C52 C8 C62 124.7(3) . . ?
C6 C10 C42 116.7(3) . . ?
C28 C10 C6 126.1(3) . . ?
C28 C10 C42 117.2(3) . . ?
N1 C12 C56 125.1(3) . . ?
N1 C12 C58 109.2(3) . . ?
C56 C12 C58 125.7(3) . . ?
C6 C14 H14 125.8 . . ?
C64 C14 C6 108.3(3) . . ?
C64 C14 H14 125.8 . . ?
C44 C16 C52 120.0(3) . . ?
C44 C16 C21 118.6(3) . . ?
C21 C16 C52 121.4(3) . . ?
N1 C18 C4 124.6(3) . . ?
N1 C18 C46 108.6(3) . . ?
C4 C18 C46 126.8(3) . . ?
C30 C20 H20 120.0 . . ?
C60 C20 H20 120.0 . . ?
C60 C20 C30 120.1(3) . . ?
O1 C22 O8 124.3(3) . . ?
O1 C22 C32 117.3(3) . . ?
O8 C22 C32 118.4(3) . . ?
C36 C24 C56 119.2(3) . . ?
C36 C24 C11 119.5(3) . . ?
C11 C24 C56 121.3(3) . . ?
C36 C26 H26 120.1 . . ?
C36 C26 C38 119.7(3) . . ?
C38 C26 H26 120.1 . . ?
N6 C28 C10 125.3(3) . . ?
N6 C28 C47 109.2(3) . . ?
C10 C28 C47 125.4(3) . . ?
C20 C30 C48 120.1(3) . . ?
C54 C30 C20 119.4(3) . . ?
C54 C30 C48 120.5(3) . . ?
C50 C32 C22 119.5(3) . . ?
C50 C32 C39 119.8(3) . . ?
C39 C32 C22 120.7(3) . . ?
C25 C34 C4 120.7(3) . . ?
C25 C34 C13 118.6(3) . . ?
C13 C34 C4 120.7(3) . . ?
C24 C36 C26 121.0(3) . . ?
C24 C36 H36 119.5 . . ?
C26 C36 H36 119.5 . . ?
C26 C38 C19 119.2(3) . . ?
C40 C38 C26 119.1(3) . . ?
C40 C38 C19 121.7(3) . . ?
C38 C40 H40 119.7 . . ?
C38 C40 C11 120.5(3) . . ?
C11 C40 H40 119.7 . . ?
C60 C42 C10 122.1(3) . . ?
C60 C42 C9 118.5(3) . . ?
C9 C42 C10 119.4(3) . . ?
C16 C44 H44 119.4 . . ?
C50 C44 C16 121.2(3) . . ?
C50 C44 H44 119.4 . . ?
C18 C46 H46 125.9 . . ?
C58 C46 C18 108.2(3) . . ?
C58 C46 H46 125.9 . . ?
O3 C48 C30 116.3(3) . . ?
O5 C48 O3 125.9(3) . . ?
O5 C48 C30 117.8(3) . . ?
C32 C50 C44 119.7(3) . . ?
C32 C50 H50 120.2 . . ?
C44 C50 H50 120.2 . . ?
C8 C52 C16 117.2(3) . . ?
C17 C52 C8 125.5(3) . . ?
C17 C52 C16 117.4(3) . . ?
C30 C54 H54 119.8 . . ?
C30 C54 C9 120.5(3) . . ?
C9 C54 H54 119.8 . . ?
C12 C56 C24 117.5(3) . . ?
C41 C56 C12 124.9(3) . . ?
C41 C56 C24 117.6(3) . . ?
C12 C58 H58 126.0 . . ?
C46 C58 C12 108.0(3) . . ?
C46 C58 H58 126.0 . . ?
C20 C60 H60 119.6 . . ?
C42 C60 C20 120.7(3) . . ?
C42 C60 H60 119.6 . . ?
C8 C62 H62 126.7 . . ?
C43 C62 C8 106.6(3) . . ?
C43 C62 H62 126.7 . . ?
C14 C64 H64 126.3 . . ?
C14 C64 C17 107.5(3) . . ?
C17 C64 H64 126.3 . . ?
C49 C2 C35 120.6(3) . . ?
C49 C2 C27 119.0(3) . . ?
C27 C2 C35 120.4(3) . . ?
C23 C33 N2 108.3(3) . . ?
C3 C33 N2 130.3(3) . . ?
C3 C33 C23 121.3(3) . . ?
N4 C17 C52 125.9(3) . . ?
N4 C17 C64 108.6(3) . . ?
C52 C17 C64 125.5(3) . . ?
C61 O12 C31 110.6(4) . . ?
O6 C35 C2 117.7(3) . . ?
O10 C35 O6 125.2(3) . . ?
O10 C35 C2 117.1(3) . . ?
C42 C9 H9 119.6 . . ?
C54 C9 C42 120.8(3) . . ?
C54 C9 H9 119.6 . . ?
N2 C37 N5 111.7(3) . . ?
N2 C37 C45 123.7(3) . . ?
N5 C37 C45 124.6(3) . . ?
O11 C19 C38 118.3(3) . . ?
O2 C19 O11 125.1(3) . . ?
O2 C19 C38 116.6(3) . . ?
C32 C39 H39 120.0 . . ?
C21 C39 C32 120.1(3) . . ?
C21 C39 H39 120.0 . . ?
C1 C5 H5A 126.5 . . ?
C47 C5 C1 106.9(3) . . ?
C47 C5 H5A 126.5 . . ?
N3 C41 C56 125.9(3) . . ?
N3 C41 C43 110.1(3) . . ?
C56 C41 C43 124.0(3) . . ?
C16 C21 H21 119.6 . . ?
C39 C21 C16 120.7(3) . . ?
C39 C21 H21 119.6 . . ?
C62 C43 C41 107.2(3) . . ?
C62 C43 H43 126.4 . . ?
C41 C43 H43 126.4 . . ?
C24 C11 C40 120.1(3) . . ?
C24 C11 H11 120.0 . . ?
C40 C11 H11 120.0 . . ?
C37 C45 H45 119.2 . . ?
C45 C45 C37 121.7(4) 2_575 . ?
C45 C45 H45 119.2 2_575 . ?
N5 C23 C33 106.3(3) . . ?
N5 C23 C51 132.0(3) . . ?
C33 C23 C51 121.7(3) . . ?
C28 C47 H47 126.5 . . ?
C5 C47 C28 107.1(3) . . ?
C5 C47 H47 126.5 . . ?
C33 C3 H3 121.7 . . ?
C53 C3 C33 116.6(3) . . ?
C53 C3 H3 121.7 . . ?
C2 C49 H49 119.7 . . ?
C2 C49 C25 120.5(3) . . ?
C25 C49 H49 119.7 . . ?
C34 C25 C49 120.9(3) . . ?
C34 C25 H25 119.5 . . ?
C49 C25 H25 119.5 . . ?
C23 C51 H51 121.8 . . ?
C55 C51 C23 116.5(4) . . ?
C55 C51 H51 121.8 . . ?
C34 C13 H13 119.5 . . ?
C34 C13 C27 120.9(4) . . ?
C27 C13 H13 119.5 . . ?
C3 C53 H53 119.3 . . ?
C3 C53 C55 121.4(4) . . ?
C55 C53 H53 119.3 . . ?
C2 C27 C13 120.0(3) . . ?
C2 C27 H27 120.0 . . ?
C13 C27 H27 120.0 . . ?
C51 C55 C53 122.4(4) . . ?
C51 C55 H55 118.8 . . ?
C53 C55 H55 118.8 . . ?
O9 C7 H7A 109.5 . . ?
O9 C7 H7B 109.5 . . ?
O9 C7 C29 110.9(4) . . ?
H7A C7 H7B 108.0 . . ?
C29 C7 H7A 109.5 . . ?
C29 C7 H7B 109.5 . . ?
O13 C57 H57A 109.3 . . ?
O13 C57 H57B 109.3 . . ?
O13 C57 C61 111.6(4) . . ?
H57A C57 H57B 108.0 . . ?
C61 C57 H57A 109.3 . . ?
C61 C57 H57B 109.3 . . ?
O7 C29 C7 109.3(4) . . ?
O7 C29 H29A 109.8 . . ?
O7 C29 H29B 109.8 . . ?
C7 C29 H29A 109.8 . . ?
C7 C29 H29B 109.8 . . ?
H29A C29 H29B 108.3 . . ?
O9 C59 H59A 109.7 . . ?
O9 C59 H59B 109.7 . . ?
O9 C59 C15 109.8(4) . . ?
H59A C59 H59B 108.2 . . ?
C15 C59 H59A 109.7 . . ?
C15 C59 H59B 109.7 . . ?
O7 C15 C59 110.2(4) . . ?
O7 C15 H15A 109.6 . . ?
O7 C15 H15B 109.6 . . ?
C59 C15 H15A 109.6 . . ?
C59 C15 H15B 109.6 . . ?
H15A C15 H15B 108.1 . . ?
O12 C61 C57 111.1(4) . . ?
O12 C61 H61A 109.4 . . ?
O12 C61 H61B 109.4 . . ?
C57 C61 H61A 109.4 . . ?
C57 C61 H61B 109.4 . . ?
H61A C61 H61B 108.0 . . ?
O12 C31 H31A 109.4 . . ?
O12 C31 H31B 109.4 . . ?
O12 C31 C63 111.1(5) . . ?
H31A C31 H31B 108.0 . . ?
C63 C31 H31A 109.4 . . ?
C63 C31 H31B 109.4 . . ?
O13 C63 C31 109.5(5) . . ?
O13 C63 H63A 109.8 . . ?
O13 C63 H63B 109.8 . . ?
C31 C63 H63A 109.8 . . ?
C31 C63 H63B 109.8 . . ?
H63A C63 H63B 108.2 . . ?
loop_
_geom_bond_atom_site_label_1
_geom_bond_atom_site_label_2
_geom_bond_distance
_geom_bond_site_symmetry_2
_geom_bond_publ_flag
Zn1 Zn3 2.9395(6) 1_656 ?
Zn1 O1 2.101(2) 1_556 ?
Zn1 O4 1.981(2) . ?
Zn1 O6 2.016(2) 1_655 ?
Zn1 O5 2.014(2) . ?
Zn1 O2 2.020(2) 1_656 ?
Zn3 Zn1 2.9395(6) 1_454 ?
Zn3 O3 2.040(2) 1_454 ?
Zn3 O8 2.122(2) 1_455 ?
Zn3 O10 2.057(2) 1_554 ?
Zn3 O11 2.047(2) . ?
Zn3 N2 2.011(3) . ?
Zn2 N1 2.051(2) . ?
Zn2 O7 2.243(2) . ?
Zn2 N4 2.050(2) . ?
Zn2 N6 2.053(3) . ?
Zn2 N3 2.053(3) . ?
O1 Zn1 2.101(2) 1_554 ?
O1 C22 1.264(4) . ?
O3 Zn3 2.040(2) 1_656 ?
O3 C48 1.264(4) . ?
O4 H4A 0.8563 . ?
O4 H4B 0.8563 . ?
O6 Zn1 2.016(2) 1_455 ?
O6 C35 1.268(4) . ?
O8 Zn3 2.122(2) 1_655 ?
O8 C22 1.274(4) . ?
O10 Zn3 2.057(2) 1_556 ?
O10 C35 1.263(4) . ?
O11 C19 1.264(4) . ?
O5 C48 1.254(4) . ?
O2 Zn1 2.020(2) 1_454 ?
O2 C19 1.264(4) . ?
N1 C12 1.378(4) . ?
N1 C18 1.385(4) . ?
O7 C29 1.437(5) . ?
O7 C15 1.416(5) . ?
N4 C6 1.372(4) . ?
N4 C17 1.369(4) . ?
N6 C1 1.365(4) . ?
N6 C28 1.371(4) . ?
N3 C8 1.369(4) . ?
N3 C41 1.371(4) . ?
N2 C33 1.409(4) . ?
N2 C37 1.337(4) . ?
N5 H5 0.8600 . ?
N5 C37 1.348(4) . ?
N5 C23 1.370(5) . ?
C1 C4 1.402(4) . ?
C1 C5 1.444(4) . ?
O13 C57 1.422(6) . ?
O13 C63 1.427(6) . ?
C4 C18 1.397(4) . ?
C4 C34 1.500(4) . ?
O9 C7 1.413(6) . ?
O9 C59 1.443(7) . ?
C6 C10 1.411(4) . ?
C6 C14 1.442(4) . ?
C8 C52 1.402(4) . ?
C8 C62 1.454(4) . ?
C10 C28 1.399(4) . ?
C10 C42 1.497(4) . ?
C12 C56 1.410(4) . ?
C12 C58 1.440(4) . ?
C14 H14 0.9300 . ?
C14 C64 1.310(5) . ?
C16 C44 1.394(5) . ?
C16 C52 1.495(4) . ?
C16 C21 1.392(5) . ?
C18 C46 1.445(4) . ?
C20 H20 0.9300 . ?
C20 C30 1.396(5) . ?
C20 C60 1.395(4) . ?
C22 C32 1.497(4) . ?
C24 C36 1.381(5) . ?
C24 C56 1.498(4) . ?
C24 C11 1.386(5) . ?
C26 H26 0.9300 . ?
C26 C36 1.386(4) . ?
C26 C38 1.404(4) . ?
C28 C47 1.452(4) . ?
C30 C48 1.505(4) . ?
C30 C54 1.385(4) . ?
C32 C50 1.388(5) . ?
C32 C39 1.396(4) . ?
C34 C25 1.374(5) . ?
C34 C13 1.379(5) . ?
C36 H36 0.9300 . ?
C38 C40 1.388(5) . ?
C38 C19 1.500(4) . ?
C40 H40 0.9300 . ?
C40 C11 1.395(4) . ?
C42 C60 1.394(4) . ?
C42 C9 1.398(4) . ?
C44 H44 0.9300 . ?
C44 C50 1.390(4) . ?
C46 H46 0.9300 . ?
C46 C58 1.309(5) . ?
C50 H50 0.9300 . ?
C52 C17 1.395(4) . ?
C54 H54 0.9300 . ?
C54 C9 1.387(4) . ?
C56 C41 1.406(5) . ?
C58 H58 0.9300 . ?
C60 H60 0.9300 . ?
C62 H62 0.9300 . ?
C62 C43 1.359(5) . ?
C64 H64 0.9300 . ?
C64 C17 1.457(4) . ?
C2 C35 1.499(4) . ?
C2 C49 1.375(5) . ?
C2 C27 1.385(5) . ?
C33 C23 1.395(5) . ?
C33 C3 1.394(5) . ?
O12 C61 1.415(7) . ?
O12 C31 1.435(8) . ?
C9 H9 0.9300 . ?
C37 C45 1.466(5) . ?
C39 H39 0.9300 . ?
C39 C21 1.387(5) . ?
C5 H5A 0.9300 . ?
C5 C47 1.353(5) . ?
C41 C43 1.433(5) . ?
C21 H21 0.9300 . ?
C43 H43 0.9300 . ?
C11 H11 0.9300 . ?
C45 C45 1.363(7) 2_575 ?
C45 H45 0.9300 . ?
C23 C51 1.397(5) . ?
C47 H47 0.9300 . ?
C3 H3 0.9300 . ?
C3 C53 1.384(5) . ?
C49 H49 0.9300 . ?
C49 C25 1.391(5) . ?
C25 H25 0.9300 . ?
C51 H51 0.9300 . ?
C51 C55 1.365(6) . ?
C13 H13 0.9300 . ?
C13 C27 1.395(5) . ?
C53 H53 0.9300 . ?
C53 C55 1.401(6) . ?
C27 H27 0.9300 . ?
C55 H55 0.9300 . ?
C7 H7A 0.9700 . ?
C7 H7B 0.9700 . ?
C7 C29 1.516(7) . ?
C57 H57A 0.9700 . ?
C57 H57B 0.9700 . ?
C57 C61 1.483(8) . ?
C29 H29A 0.9700 . ?
C29 H29B 0.9700 . ?
C59 H59A 0.9700 . ?
C59 H59B 0.9700 . ?
C59 C15 1.502(7) . ?
C15 H15A 0.9700 . ?
C15 H15B 0.9700 . ?
C61 H61A 0.9700 . ?
C61 H61B 0.9700 . ?
C31 H31A 0.9700 . ?
C31 H31B 0.9700 . ?
C31 C63 1.487(8) . ?
C63 H63A 0.9700 . ?
C63 H63B 0.9700 . ?
loop_
_geom_torsion_atom_site_label_1
_geom_torsion_atom_site_label_2
_geom_torsion_atom_site_label_3
_geom_torsion_atom_site_label_4
_geom_torsion
_geom_torsion_site_symmetry_1
_geom_torsion_site_symmetry_2
_geom_torsion_site_symmetry_3
_geom_torsion_site_symmetry_4
_geom_torsion_publ_flag
Zn1 O1 C22 O8 -18.8(4) 1_554 . . . ?
Zn1 O1 C22 C32 160.8(2) 1_554 . . . ?
Zn1 O6 C35 O10 -12.4(4) 1_455 . . . ?
Zn1 O6 C35 C2 168.5(2) 1_455 . . . ?
Zn1 O5 C48 O3 -12.9(4) . . . . ?
Zn1 O5 C48 C30 165.5(2) . . . . ?
Zn1 O2 C19 O11 -12.8(4) 1_454 . . . ?
Zn1 O2 C19 C38 166.3(2) 1_454 . . . ?
Zn3 O3 C48 O5 -14.4(5) 1_656 . . . ?
Zn3 O3 C48 C30 167.2(2) 1_656 . . . ?
Zn3 O8 C22 O1 -14.8(4) 1_655 . . . ?
Zn3 O8 C22 C32 165.7(2) 1_655 . . . ?
Zn3 O10 C35 O6 -15.6(4) 1_556 . . . ?
Zn3 O10 C35 C2 163.5(2) 1_556 . . . ?
Zn3 O11 C19 O2 -15.2(4) . . . . ?
Zn3 O11 C19 C38 165.8(2) . . . . ?
Zn3 N2 C33 C23 175.4(2) . . . . ?
Zn3 N2 C33 C3 -2.5(5) . . . . ?
Zn3 N2 C37 N5 -174.6(2) . . . . ?
Zn3 N2 C37 C45 6.0(5) . . . . ?
Zn2 N1 C12 C56 9.9(5) . . . . ?
Zn2 N1 C12 C58 -169.7(2) . . . . ?
Zn2 N1 C18 C4 -12.8(4) . . . . ?
Zn2 N1 C18 C46 168.9(2) . . . . ?
Zn2 O7 C29 C7 -91.0(4) . . . . ?
Zn2 O7 C15 C59 90.0(4) . . . . ?
Zn2 N4 C6 C10 13.0(5) . . . . ?
Zn2 N4 C6 C14 -169.9(2) . . . . ?
Zn2 N4 C17 C52 -7.8(5) . . . . ?
Zn2 N4 C17 C64 170.4(2) . . . . ?
Zn2 N6 C1 C4 0.6(5) . . . . ?
Zn2 N6 C1 C5 -176.5(2) . . . . ?
Zn2 N6 C28 C10 0.6(5) . . . . ?
Zn2 N6 C28 C47 175.9(2) . . . . ?
Zn2 N3 C8 C52 3.9(5) . . . . ?
Zn2 N3 C8 C62 -177.5(2) . . . . ?
Zn2 N3 C41 C56 -3.5(5) . . . . ?
Zn2 N3 C41 C43 177.3(2) . . . . ?
O1 C22 C32 C50 -6.0(4) . . . . ?
O1 C22 C32 C39 172.9(3) . . . . ?
O8 C22 C32 C50 173.6(3) . . . . ?
O8 C22 C32 C39 -7.5(5) . . . . ?
N1 C12 C56 C24 173.4(3) . . . . ?
N1 C12 C56 C41 -4.8(5) . . . . ?
N1 C12 C58 C46 0.9(4) . . . . ?
N1 C18 C46 C58 1.8(4) . . . . ?
N4 C6 C10 C28 -0.2(5) . . . . ?
N4 C6 C10 C42 -177.6(3) . . . . ?
N4 C6 C14 C64 -1.1(4) . . . . ?
N6 C1 C4 C18 7.0(5) . . . . ?
N6 C1 C4 C34 -172.7(3) . . . . ?
N6 C1 C5 C47 2.3(4) . . . . ?
N6 C28 C47 C5 -0.7(4) . . . . ?
N3 C8 C52 C16 178.4(3) . . . . ?
N3 C8 C52 C17 0.1(6) . . . . ?
N3 C8 C62 C43 0.3(4) . . . . ?
N3 C41 C43 C62 0.2(4) . . . . ?
N2 C33 C23 N5 -0.6(4) . . . . ?
N2 C33 C23 C51 -179.7(4) . . . . ?
N2 C33 C3 C53 178.3(4) . . . . ?
N2 C37 C45 C45 -176.2(5) . . . 2_575 ?
N5 C37 C45 C45 4.5(8) . . . 2_575 ?
N5 C23 C51 C55 -178.5(4) . . . . ?
C1 N6 C28 C10 -173.1(3) . . . . ?
C1 N6 C28 C47 2.1(4) . . . . ?
C1 C4 C18 N1 -0.4(5) . . . . ?
C1 C4 C18 C46 177.6(3) . . . . ?
C1 C4 C34 C25 -89.7(4) . . . . ?
C1 C4 C34 C13 89.2(4) . . . . ?
C1 C5 C47 C28 -0.9(4) . . . . ?
O13 C57 C61 O12 -56.1(6) . . . . ?
C4 C1 C5 C47 -174.8(3) . . . . ?
C4 C18 C46 C58 -176.4(3) . . . . ?
C4 C34 C25 C49 -179.9(4) . . . . ?
C4 C34 C13 C27 179.0(4) . . . . ?
O9 C7 C29 O7 -58.1(5) . . . . ?
O9 C59 C15 O7 59.2(5) . . . . ?
C6 N4 C17 C52 -178.5(3) . . . . ?
C6 N4 C17 C64 -0.4(4) . . . . ?
C6 C10 C28 N6 -7.1(5) . . . . ?
C6 C10 C28 C47 178.4(3) . . . . ?
C6 C10 C42 C60 -119.5(3) . . . . ?
C6 C10 C42 C9 61.3(4) . . . . ?
C6 C14 C64 C17 0.8(4) . . . . ?
C8 N3 C41 C56 179.3(3) . . . . ?
C8 N3 C41 C43 0.0(4) . . . . ?
C8 C52 C17 N4 2.0(6) . . . . ?
C8 C52 C17 C64 -175.9(3) . . . . ?
C8 C62 C43 C41 -0.3(4) . . . . ?
C10 C6 C14 C64 175.9(3) . . . . ?
C10 C28 C47 C5 174.6(3) . . . . ?
C10 C42 C60 C20 -178.3(3) . . . . ?
C10 C42 C9 C54 178.5(3) . . . . ?
C12 N1 C18 C4 177.1(3) . . . . ?
C12 N1 C18 C46 -1.2(3) . . . . ?
C12 C56 C41 N3 1.4(6) . . . . ?
C12 C56 C41 C43 -179.4(3) . . . . ?
C14 C6 C10 C28 -176.8(3) . . . . ?
C14 C6 C10 C42 5.9(5) . . . . ?
C14 C64 C17 N4 -0.3(4) . . . . ?
C14 C64 C17 C52 177.9(3) . . . . ?
C16 C44 C50 C32 1.1(5) . . . . ?
C16 C52 C17 N4 -176.3(3) . . . . ?
C16 C52 C17 C64 5.8(5) . . . . ?
C18 N1 C12 C56 179.9(3) . . . . ?
C18 N1 C12 C58 0.3(3) . . . . ?
C18 C4 C34 C25 90.6(4) . . . . ?
C18 C4 C34 C13 -90.6(4) . . . . ?
C18 C46 C58 C12 -1.6(4) . . . . ?
C20 C30 C48 O3 -178.1(3) . . . . ?
C20 C30 C48 O5 3.4(5) . . . . ?
C20 C30 C54 C9 1.8(5) . . . . ?
C22 C32 C50 C44 177.7(3) . . . . ?
C22 C32 C39 C21 -178.2(3) . . . . ?
C24 C56 C41 N3 -176.8(3) . . . . ?
C24 C56 C41 C43 2.3(5) . . . . ?
C26 C38 C40 C11 2.5(5) . . . . ?
C26 C38 C19 O11 161.1(3) . . . . ?
C26 C38 C19 O2 -18.0(4) . . . . ?
C28 N6 C1 C4 174.4(3) . . . . ?
C28 N6 C1 C5 -2.7(4) . . . . ?
C28 C10 C42 C60 63.0(4) . . . . ?
C28 C10 C42 C9 -116.2(3) . . . . ?
C30 C20 C60 C42 0.2(5) . . . . ?
C30 C54 C9 C42 -0.7(5) . . . . ?
C32 C39 C21 C16 -0.2(5) . . . . ?
C34 C4 C18 N1 179.3(3) . . . . ?
C34 C4 C18 C46 -2.7(5) . . . . ?
C34 C13 C27 C2 0.1(7) . . . . ?
C36 C24 C56 C12 -82.4(4) . . . . ?
C36 C24 C56 C41 96.0(4) . . . . ?
C36 C24 C11 C40 -0.4(5) . . . . ?
C36 C26 C38 C40 -1.1(5) . . . . ?
C36 C26 C38 C19 179.6(3) . . . . ?
C38 C26 C36 C24 -1.0(5) . . . . ?
C38 C40 C11 C24 -1.8(5) . . . . ?
C40 C38 C19 O11 -18.1(4) . . . . ?
C40 C38 C19 O2 162.8(3) . . . . ?
C42 C10 C28 N6 170.2(3) . . . . ?
C42 C10 C28 C47 -4.3(5) . . . . ?
C44 C16 C52 C8 -110.7(4) . . . . ?
C44 C16 C52 C17 67.7(4) . . . . ?
C44 C16 C21 C39 0.0(5) . . . . ?
C48 C30 C54 C9 -177.6(3) . . . . ?
C50 C32 C39 C21 0.8(5) . . . . ?
C52 C8 C62 C43 178.9(4) . . . . ?
C52 C16 C44 C50 179.6(3) . . . . ?
C52 C16 C21 C39 179.9(3) . . . . ?
C54 C30 C48 O3 1.3(4) . . . . ?
C54 C30 C48 O5 -177.2(3) . . . . ?
C56 C12 C58 C46 -178.8(3) . . . . ?
C56 C24 C36 C26 -177.5(3) . . . . ?
C56 C24 C11 C40 178.9(3) . . . . ?
C56 C41 C43 C62 -179.1(3) . . . . ?
C58 C12 C56 C24 -7.0(5) . . . . ?
C58 C12 C56 C41 174.7(3) . . . . ?
C60 C20 C30 C48 177.9(3) . . . . ?
C60 C20 C30 C54 -1.5(5) . . . . ?
C60 C42 C9 C54 -0.7(5) . . . . ?
C62 C8 C52 C16 -0.1(5) . . . . ?
C62 C8 C52 C17 -178.3(3) . . . . ?
C2 C49 C25 C34 1.7(7) . . . . ?
C33 N2 C37 N5 -1.0(4) . . . . ?
C33 N2 C37 C45 179.6(3) . . . . ?
C33 C23 C51 C55 0.3(7) . . . . ?
C33 C3 C53 C55 1.4(7) . . . . ?
C17 N4 C6 C10 -176.2(3) . . . . ?
C17 N4 C6 C14 0.9(4) . . . . ?
O12 C31 C63 O13 58.6(6) . . . . ?
C35 C2 C49 C25 176.7(4) . . . . ?
C35 C2 C27 C13 -177.6(4) . . . . ?
C9 C42 C60 C20 0.9(5) . . . . ?
C37 N2 C33 C23 1.0(4) . . . . ?
C37 N2 C33 C3 -176.9(4) . . . . ?
C37 N5 C23 C33 0.1(4) . . . . ?
C37 N5 C23 C51 179.0(4) . . . . ?
C19 C38 C40 C11 -178.2(3) . . . . ?
C39 C32 C50 C44 -1.2(5) . . . . ?
C5 C1 C4 C18 -176.3(3) . . . . ?
C5 C1 C4 C34 3.9(5) . . . . ?
C41 N3 C8 C52 -178.8(3) . . . . ?
C41 N3 C8 C62 -0.1(4) . . . . ?
C21 C16 C44 C50 -0.5(5) . . . . ?
C21 C16 C52 C8 69.4(4) . . . . ?
C21 C16 C52 C17 -112.2(4) . . . . ?
C11 C24 C36 C26 1.8(5) . . . . ?
C11 C24 C56 C12 98.3(4) . . . . ?
C11 C24 C56 C41 -83.2(4) . . . . ?
C23 N5 C37 N2 0.6(4) . . . . ?
C23 N5 C37 C45 -180.0(4) . . . . ?
C23 C33 C3 C53 0.7(6) . . . . ?
C23 C51 C55 C53 1.8(8) . . . . ?
C3 C33 C23 N5 177.5(3) . . . . ?
C3 C33 C23 C51 -1.6(6) . . . . ?
C3 C53 C55 C51 -2.7(8) . . . . ?
C49 C2 C35 O6 -3.8(5) . . . . ?
C49 C2 C35 O10 177.0(3) . . . . ?
C49 C2 C27 C13 2.8(7) . . . . ?
C25 C34 C13 C27 -2.1(7) . . . . ?
C13 C34 C25 C49 1.3(7) . . . . ?
C27 C2 C35 O6 176.7(4) . . . . ?
C27 C2 C35 O10 -2.5(5) . . . . ?
C27 C2 C49 C25 -3.7(7) . . . . ?
C7 O9 C59 C15 -57.8(5) . . . . ?
C57 O13 C63 C31 -58.7(6) . . . . ?
C29 O7 C15 C59 -60.1(4) . . . . ?
C59 O9 C7 C29 57.7(5) . . . . ?
C15 O7 C29 C7 58.8(4) . . . . ?
C61 O12 C31 C63 -56.6(6) . . . . ?
C31 O12 C61 C57 54.7(6) . . . . ?
C63 O13 C57 C61 58.0(6) . . . . ?
loop_
_smtbx_masks_void_nr
_smtbx_masks_void_average_x
_smtbx_masks_void_average_y
_smtbx_masks_void_average_z
_smtbx_masks_void_volume
_smtbx_masks_void_count_electrons
_smtbx_masks_void_content
1 -0.522 -0.793 -0.022 1469.8 425.7 ?
