#------------------------------------------------------------------------------
#$Date: 2023-03-16 01:59:31 +0200 (Thu, 16 Mar 2023) $
#$Revision: 281899 $
#$URL: file:///home/coder/svn-repositories/cod/cif/7/71/26/7712634.cif $
#------------------------------------------------------------------------------
#
# This file is available in the Crystallography Open Database (COD),
# http://www.crystallography.net/
#
# All data on this site have been placed in the public domain by the
# contributors.
#
data_7712634
loop_
_publ_author_name
'Volostnykh, Marina V.'
'Kirakosyan, Gayane'
'Sinelshchikova, Anna A.'
'Loboda, Polina'
'Dorovatovskii, Pavel'
'Maxim, Mihailov'
'Tsivadze, Aslan Yu'
'Sokolov, Maksim Nailyevich'
'Gorbunova, Yulia G.'
_publ_section_title
;
 Supramolecular Hybrids Based on Ru(II) Porphyrin and Octahedral Mo(II)
 Iodide Cluster
;
_journal_name_full               'Dalton Transactions'
_journal_paper_doi               10.1039/D3DT00251A
_journal_year                    2023
_chemical_formula_moiety         'C35 H24 N4 O2 Ru, 2(C1 H1 Cl3)'
_chemical_formula_sum            'C37 H26 Cl6 N4 O2 Ru'
_chemical_formula_weight         872.39
_chemical_name_common            RuDTolP(CO)H2O
_chemical_name_systematic
'aqua-[5,15-bis(4-methylphenyl)porphyrinato]-carbonyl-ruthenium chloroform solvate'
_chemical_properties_physical    photo-sensitive
_space_group_crystal_system      monoclinic
_space_group_IT_number           15
_space_group_name_Hall           '-C 2yc'
_space_group_name_H-M_alt        'C 1 2/c 1'
_atom_sites_solution_hydrogens   geom
_audit_creation_date             2022-05-17
_audit_creation_method
;
Olex2 1.3
(compiled 2020.11.12 svn.r5f609507 for OlexSys, GUI svn.r6408)
;
_audit_update_record
;
2023-02-27 deposited with the CCDC.	2023-03-15 downloaded from the CCDC.
;
_cell_angle_alpha                90
_cell_angle_beta                 114.1080(10)
_cell_angle_gamma                90
_cell_formula_units_Z            4
_cell_length_a                   21.6281(11)
_cell_length_b                   9.4437(4)
_cell_length_c                   19.2876(9)
_cell_measurement_reflns_used    4620
_cell_measurement_temperature    140(2)
_cell_measurement_theta_max      23.023
_cell_measurement_theta_min      2.314
_cell_volume                     3595.9(3)
_computing_cell_refinement       'SAINT V8.40B (?, 2016)'
_computing_data_reduction        'SAINT V8.40B (?, 2016)'
_computing_molecular_graphics    'Olex2 1.3 (Dolomanov et al., 2009)'
_computing_publication_material  'Olex2 1.3 (Dolomanov et al., 2009)'
_computing_structure_refinement  'SHELXL 2018/3 (Sheldrick, 2015)'
_computing_structure_solution    'XT  (Sheldrick, 2015)'
_diffrn_ambient_temperature      140(2)
_diffrn_detector_area_resol_mean 8
_diffrn_measured_fraction_theta_full 1.000
_diffrn_measured_fraction_theta_max 0.994
_diffrn_measurement_device_type  'Bruker SMART APEX CCD area detector'
_diffrn_measurement_method       '\w and \f scans'
_diffrn_radiation_probe          x-ray
_diffrn_radiation_type           MoK\a
_diffrn_radiation_wavelength     0.71073
_diffrn_reflns_av_R_equivalents  0.0545
_diffrn_reflns_av_unetI/netI     0.0551
_diffrn_reflns_Laue_measured_fraction_full 1.000
_diffrn_reflns_Laue_measured_fraction_max 0.994
_diffrn_reflns_limit_h_max       28
_diffrn_reflns_limit_h_min       -28
_diffrn_reflns_limit_k_max       12
_diffrn_reflns_limit_k_min       -12
_diffrn_reflns_limit_l_max       25
_diffrn_reflns_limit_l_min       -25
_diffrn_reflns_number            19912
_diffrn_reflns_point_group_measured_fraction_full 1.000
_diffrn_reflns_point_group_measured_fraction_max 0.994
_diffrn_reflns_theta_full        25.242
_diffrn_reflns_theta_max         27.566
_diffrn_reflns_theta_min         2.063
_diffrn_source_current           30.0
_diffrn_source_power             1.5
_diffrn_source_voltage           50.0
_exptl_absorpt_coefficient_mu    0.923
_exptl_absorpt_correction_T_max  0.7456
_exptl_absorpt_correction_T_min  0.6434
_exptl_absorpt_correction_type   multi-scan
_exptl_absorpt_process_details
;
SADABS-2016/2 (Bruker,2016/2) was used for absorption correction.
wR2(int) was 0.0881 before and 0.0486 after correction.
The Ratio of minimum to maximum transmission is 0.8629.
The \l/2 correction factor is Not present.
;
_exptl_crystal_colour            'dark red'
_exptl_crystal_colour_modifier   dark
_exptl_crystal_colour_primary    red
_exptl_crystal_density_diffrn    1.611
_exptl_crystal_description       plate
_exptl_crystal_F_000             1752
_exptl_crystal_recrystallization_method 'heptane, CDCl3 '
_exptl_crystal_size_max          0.2
_exptl_crystal_size_mid          0.2
_exptl_crystal_size_min          0.02
_refine_diff_density_max         0.482
_refine_diff_density_min         -0.757
_refine_diff_density_rms         0.078
_refine_ls_extinction_method     none
_refine_ls_goodness_of_fit_ref   1.033
_refine_ls_hydrogen_treatment    constr
_refine_ls_matrix_type           full
_refine_ls_number_parameters     272
_refine_ls_number_reflns         4143
_refine_ls_number_restraints     0
_refine_ls_restrained_S_all      1.033
_refine_ls_R_factor_all          0.0616
_refine_ls_R_factor_gt           0.0382
_refine_ls_shift/su_max          0.001
_refine_ls_shift/su_mean         0.000
_refine_ls_structure_factor_coef Fsqd
_refine_ls_weighting_details
'w=1/[\s^2^(Fo^2^)+(0.0332P)^2^+5.0775P] where P=(Fo^2^+2Fc^2^)/3'
_refine_ls_weighting_scheme      calc
_refine_ls_wR_factor_gt          0.0831
_refine_ls_wR_factor_ref         0.0902
_reflns_Friedel_coverage         0.000
_reflns_number_gt                3157
_reflns_number_total             4143
_reflns_threshold_expression     'I > 2\s(I)'
_cod_data_source_file            d3dt00251a2.cif
_cod_data_source_block           pl43_monocl
_cod_database_code               7712634
_shelx_shelxl_version_number     2018/3
_shelx_space_group_comment
;
The symmetry employed for this shelxl refinement is uniquely defined
by the following loop, which should always be used as a source of
symmetry information in preference to the above space-group names.
They are only intended as comments.
;
_olex2_refinement_description
;
1. Shared sites
{O2, C18A}
{C18, O2A}
2. Uiso/Uaniso restraints and constraints
Uanis(O2) = Uanis(C18A)
Uanis(C18) = Uanis(O2A)
3. Others
 Sof(Cl1)=Sof(C19A)=Sof(H19A)=Sof(Cl3)=Sof(Cl4)=1-FVAR(1)
 Sof(Cl02)=Sof(Cl03)=Sof(Cl04)=Sof(C19)=Sof(H19)=FVAR(1)
 Sof(O1A)=Sof(C18A)=Sof(O2A)=0.5*(1-FVAR(3))
 Sof(O2)=Sof(C18)=Sof(O1)=0.5*FVAR(3)
4.a Ternary CH refined with riding coordinates:
 C19(H19), C19A(H19A)
4.b Aromatic/amide H refined with riding coordinates:
 C3(H3), C5(H5), C8(H8), C17(H17), C12(H12), C2(H2), C16(H16), C13(H13), C7(H7)
4.c Idealised Me refined as rotating group:
 C15(H15A,H15B,H15C)
;
_shelx_res_file
;
TITL pl43_monocl_a.res in C2/c
    pl43_monocl.res
    created by SHELXL-2018/3 at 10:26:58 on 02-Mar-2022
REM Old TITL pl43_monocl in C2/c
REM SHELXT solution in C2/c: R1 0.158, Rweak 0.007, Alpha 0.028
REM <I/s> 0.449 for 233 systematic absences, Orientation as input
REM Formula found by SHELXT: C38 N4 O2 Cl6 Ru
CELL 0.71073 21.6281 9.4437 19.2876 90 114.108 90
ZERR 4 0.0011 0.0004 0.0009 0 0.001 0
LATT 7
SYMM -X,+Y,0.5-Z
SFAC C H Cl N O Ru
UNIT 148 104 24 16 8 4
EADP O2 C18A
EADP C18 O2A
EXYZ O2 C18A
EXYZ C18 O2A

L.S. 4
PLAN  5
TEMP -133(2)
CONF
list 4
MORE -1
BOND $H
fmap 2
acta
REM <olex2.extras>
REM <HklSrc "%.\\pl43_LT_0m.hkl">
REM </olex2.extras>

WGHT    0.033200    5.077500
FVAR       0.18927   0.78465   0.63692
RU1   6    0.500000    0.371531    0.750000    10.50000    0.02225    0.03226 =
         0.01407    0.00000    0.00359    0.00000
PART 1
CL02  3    0.875638    0.517270    0.563610    21.00000    0.03644    0.04429 =
         0.04261    0.01544    0.01205    0.00165
CL03  3    0.841167    0.223101    0.568761    21.00000    0.06638    0.03353 =
         0.10135   -0.01629    0.01787    0.00327
CL04  3    0.837450    0.421796    0.681682    21.00000    0.05016    0.12482 =
         0.04108    0.00975    0.02847    0.00306

PART 0
N1    4    0.414205    0.370497    0.650570    11.00000    0.02414    0.02251 =
         0.01792   -0.00053    0.00497    0.00013
N2    4    0.560570    0.365682    0.691120    11.00000    0.02528    0.02368 =
         0.01589   -0.00041    0.00390   -0.00070
PART 1
O2    5    0.500000    0.150229    0.750000    30.50000    0.04025    0.04847 =
         0.02884    0.00000    0.00717    0.00000
C18   1    0.500000    0.582023    0.750000    30.50000    0.03442    0.04975 =
         0.02320    0.00000    0.00791    0.00000
PART 0
C11   1    0.748407    0.357619    0.819715    11.00000    0.02848    0.02839 =
         0.02014    0.00222    0.00746   -0.00197
C3    1    0.343821    0.373809    0.523669    11.00000    0.02906    0.02788 =
         0.01654    0.00079    0.00268    0.00388
AFIX  43
H3    2    0.328958    0.376318    0.470031    11.00000   -1.20000
AFIX   0
C10   1    0.673315    0.362339    0.797972    11.00000    0.02440    0.01842 =
         0.02202    0.00170    0.00509    0.00018
C5    1    0.469791    0.370722    0.562329    11.00000    0.03241    0.02511 =
         0.01527    0.00196    0.00713    0.00164
AFIX  43
H5    2    0.461357    0.373132    0.509988    11.00000   -1.20000
AFIX   0
C4    1    0.413274    0.372822    0.579015    11.00000    0.02866    0.02251 =
         0.01539    0.00046    0.00385    0.00024
C6    1    0.537584    0.365483    0.613402    11.00000    0.02826    0.02088 =
         0.01777   -0.00003    0.00528   -0.00177
C8    1    0.650938    0.354728    0.658602    11.00000    0.02620    0.02418 =
         0.02507   -0.00011    0.01083   -0.00060
AFIX  43
H8    2    0.696324    0.350096    0.663175    11.00000   -1.20000
AFIX   0
C1    1    0.348062    0.368116    0.642588    11.00000    0.02414    0.01799 =
         0.02177    0.00166    0.00479    0.00406
C17   1    0.780329    0.235074    0.811130    11.00000    0.03358    0.02316 =
         0.03062   -0.00105    0.01359   -0.00304
AFIX  43
H17   2    0.754082    0.153090    0.789471    11.00000   -1.20000
AFIX   0
C12   1    0.788494    0.476021    0.850191    11.00000    0.03588    0.02392 =
         0.03053   -0.00293    0.01234   -0.00453
AFIX  43
H12   2    0.767917    0.561679    0.855715    11.00000   -1.20000
AFIX   0
C2    1    0.303867    0.370506    0.562259    11.00000    0.02553    0.02467 =
         0.02139   -0.00062    0.00250    0.00311
AFIX  43
H2    2    0.255749    0.369868    0.540758    11.00000   -1.20000
AFIX   0
C16   1    0.849948    0.231121    0.833785    11.00000    0.03367    0.03135 =
         0.03505    0.00436    0.01770    0.00465
AFIX  43
H16   2    0.870663    0.146168    0.827579    11.00000   -1.20000
AFIX   0
C9    1    0.630151    0.359253    0.720068    11.00000    0.02551    0.02048 =
         0.02270   -0.00054    0.00777   -0.00304
C13   1    0.858020    0.470976    0.872635    11.00000    0.03357    0.03833 =
         0.02866   -0.00304    0.00917   -0.01349
AFIX  43
H13   2    0.884373    0.553207    0.893502    11.00000   -1.20000
AFIX   0
PART 1
O1    5    0.500000    0.696064    0.750000    30.50000    0.05801    0.01541 =
         0.04657    0.00000    0.01760    0.00000
PART 0
C7    1    0.594649    0.358194    0.592746    11.00000    0.03498    0.02591 =
         0.01981   -0.00020    0.01254   -0.00129
AFIX  43
H7    2    0.592994    0.356222    0.542772    11.00000   -1.20000
AFIX   0
C14   1    0.889763    0.348307    0.865200    11.00000    0.02766    0.04499 =
         0.02469    0.00574    0.01220   -0.00203
C15   1    0.965888    0.343523    0.890462    11.00000    0.03092    0.06637 =
         0.04630    0.00984    0.01722   -0.00284
AFIX 137
H15A  2    0.980677    0.244784    0.893331    11.00000   -1.50000
H15B  2    0.988020    0.387768    0.940589    11.00000   -1.50000
H15C  2    0.978212    0.394923    0.853808    11.00000   -1.50000
AFIX   0

PART 1
C19   1    0.823714    0.398666    0.585940    21.00000    0.03098    0.04072 =
         0.03446    0.00277    0.00687    0.00106
AFIX  13
H19   2    0.775237    0.420353    0.553088    21.00000   -1.20000
AFIX   0
PART 2
CL1   3    0.867481    0.463239    0.543227   -21.00000    0.04707    0.09976 =
         0.06714    0.03940    0.03329    0.02325
C19A  1    0.870945    0.380912    0.625754   -21.00000    0.02973    0.03134 =
         0.03613   -0.00071    0.01375   -0.00333
AFIX  13
H19A  2    0.918203    0.374818    0.665823   -21.00000   -1.20000
AFIX   0
CL3   3    0.817882    0.473250    0.655932   -21.00000    0.08564    0.08035 =
         0.07048   -0.00685    0.05145    0.00942
CL4   3    0.833337    0.216511    0.600767   -21.00000    0.10504    0.03795 =
         0.16580   -0.02385    0.06414   -0.00656

O1A   5    0.500000    0.040699    0.750000   -30.50000    0.04762    0.01069 =
         0.03625    0.00000    0.01536    0.00000
C18A  1    0.500000    0.150229    0.750000   -30.50000    0.04025    0.04847 =
         0.02884    0.00000    0.00717    0.00000
O2A   5    0.500000    0.582023    0.750000   -30.50000    0.03442    0.04975 =
         0.02320    0.00000    0.00791    0.00000
HKLF 4




REM  pl43_monocl_a.res in C2/c
REM wR2 = 0.0902, GooF = S = 1.033, Restrained GooF = 1.033 for all data
REM R1 = 0.0382 for 3157 Fo > 4sig(Fo) and 0.0616 for all 4143 data
REM 272 parameters refined using 0 restraints

END

WGHT      0.0333      5.0571

REM Highest difference peak  0.482,  deepest hole -0.757,  1-sigma level  0.078
Q1    1   0.8282  0.3157  0.6739  11.00000  0.05    0.48
Q2    1   0.5378  0.0979  0.7908  11.00000  0.05    0.34
Q3    1   0.3827  0.3827  0.5473  11.00000  0.05    0.33
Q4    1   0.7707  0.3986  0.8494  11.00000  0.05    0.32
Q5    1   0.6502  0.3763  0.7004  11.00000  0.05    0.32
;
_shelx_res_checksum              68925
_shelx_hkl_file
;
   2   0   0 199.814 11.6972   4
  -2   0   0 232.369 11.7257   4
   4   0   0 798.519 44.4385   2
   4   0   0 858.568 44.8526   3
  -4   0   0 842.492 44.3424   4
  -4   0   0 832.939 44.4695   2
  -4   0   0 784.488 44.7621   3
   6   0   0 6245.89 340.598   2
  -6   0   0 6278.65 341.075   3
  -6   0   0 6510.15 340.444   4
   6   0   0 6432.70 341.140   3
  -8   0   0 1458.24 81.1658   3
  -8   0   0 1518.54 80.5597   2
  -8   0   0 1485.08 80.2177   4
   8   0   0 1500.14 80.5038   2
   8   0   0 1481.95 81.2195   3
 -10   0   0 6.84944 2.48228   4
 -10   0   0 3.37895 3.31126   2
  10   0   0 12.6387 4.85607   3
  10   0   0 6.00989 2.45684   4
 -12   0   0 994.311 54.4013   2
 -12   0   0 1000.56 53.7456   4
  12   0   0 984.408 55.4905   3
  12   0   0 963.717 53.8977   4
  14   0   0 323.552 23.4984   3
 -14   0   0 344.230 21.2376   2
  14   0   0 355.697 21.0435   4
 -14   0   0 349.396 20.1232   4
 -16   0   0 26.9680 6.58788   2
 -16   0   0 22.7486 4.80444   4
  18   0   0 156.433 16.5994   3
 -18   0   0 202.569 14.7779   2
  20   0   0 168.115 17.4348   3
 -20   0   0 128.651 12.6938   2
  22   0   0 42.9118 13.6149   3
 -22   0   0 48.3817 9.98456   2
 -24   0   0 243.882 20.8639   2
  24   0   0 281.823 25.8288   3
   1  -1   0 816.536 44.7279   4
  -1  -1   0 831.115 44.6034   2
  -1  -1   0 841.999 44.8839   3
  -1   1   0 834.291 44.9305   3
  -1   1   0 840.955 44.7562   2
  -1   1   0 854.112 44.7424   4
   1   1   0 825.823 44.6058   2
   1   1   0 825.674 44.8988   4
  -3  -1   0 2059.34 111.980   4
   3  -1   0 2139.77 112.172   3
  -3  -1   0 2085.67 112.037   3
   3  -1   0 2030.49 111.897   2
   3   1   0 2072.55 111.990   4
   3   1   0 2035.88 112.039   3
  -3   1   0 2073.26 111.923   2
  -3   1   0 2130.26 111.513   4
   3   1   0 2100.37 111.667   2
  -3   1   0 2123.06 111.546   4
  -3   1   0 2103.56 112.147   3
   5  -1   0 241.053 12.5915   4
  -5  -1   0 233.125 12.9722   2
  -5  -1   0 225.649 13.5025   3
  -5  -1   0 236.081 13.3619   4
   5  -1   0 228.476 13.9917   3
   5  -1   0 223.320 13.2170   2
  -5   1   0 202.382 13.8163   3
  -5   1   0 230.461 13.3809   2
   5   1   0 223.221 12.9339   2
  -5   1   0 238.064 12.5062   4
   5   1   0 239.907 13.7593   3
   5   1   0 218.538 13.3695   4
   7  -1   0 13.6124 3.10539   2
  -7  -1   0 8.57443 3.30112   3
   7  -1   0 13.2996 2.00161   4
   7  -1   0 17.2321 4.26099   3
  -7  -1   0 11.4796 2.65510   4
  -7  -1   0 15.2458 2.46067   2
  -7   1   0 14.3508 2.84331   2
   7   1   0 8.80663 2.41780   2
   7   1   0 14.2346 3.55230   3
   7   1   0 10.8140 2.97789   4
  -7   1   0 14.2274 1.58504   4
  -7   1   0 14.7980 4.46757   3
  -9  -1   0 -0.9675 2.59810   4
  -9  -1   0 0.69935 2.61701   2
   9  -1   0 -1.0732 4.17749   3
   9  -1   0 -1.4164 2.17319   4
   9   1   0 1.81057 2.79942   2
  -9   1   0 -0.5220 1.54228   4
  -9   1   0 -0.6129 3.02327   2
   9   1   0 3.76213 3.90765   3
  11  -1   0 515.154 29.2328   4
 -11  -1   0 543.421 29.7840   4
 -11  -1   0 556.566 29.8193   2
  11  -1   0 529.998 31.1709   3
 -11   1   0 532.647 28.9327   4
  11   1   0 506.863 31.2770   3
  11   1   0 530.221 29.9845   4
 -11   1   0 509.949 29.9975   2
  13  -1   0 459.159 27.2225   3
 -13  -1   0 421.508 24.8937   4
  13  -1   0 420.183 24.6228   4
 -13  -1   0 431.992 25.1885   2
  13   1   0 442.317 27.0729   3
 -13   1   0 435.567 24.0100   4
 -13   1   0 443.676 25.4480   2
  13   1   0 422.294 25.5602   4
 -15  -1   0 31.0512 5.37082   4
  15  -1   0 18.1869 8.44695   3
 -15  -1   0 27.3338 5.66213   2
 -15   1   0 30.2269 3.87439   4
 -15   1   0 30.8078 6.69409   2
  15   1   0 8.09438 8.04991   3
  17  -1   0 7.84535 10.0602   3
 -17  -1   0 -5.7001 5.61352   2
 -17  -1   0 -1.9791 4.77384   4
  17   1   0 12.1438 8.61406   3
 -17   1   0 -4.2599 6.23963   2
 -19  -1   0 77.2654 9.53887   2
  19  -1   0 127.329 15.7459   3
  19   1   0 56.5861 12.0671   3
 -19   1   0 83.2893 9.71965   2
 -21  -1   0 215.478 16.5303   2
  21  -1   0 193.697 19.7846   3
 -21   1   0 192.293 16.7757   2
  23  -1   0 13.5836 12.3840   3
 -23  -1   0 2.60434 9.40827   2
 -23   1   0 -2.9675 9.10348   2
  23   1   0 -3.5578 12.4880   3
 -25  -1   0 27.6695 12.0861   2
  25  -1   0 8.85632 14.6670   3
  25   1   0 15.8430 15.2598   3
 -25   1   0 40.2890 11.4133   2
   0  -2   0 27.8094 2.07431   2
   0  -2   0 25.2915 2.74635   3
   0  -2   0 24.3518 2.70691   4
   0   2   0 21.8206 2.52855   4
   0   2   0 25.6340 2.04292   2
   0   2   0 28.8478 3.04616   3
  -2  -2   0 6.09789 2.27304   4
   2  -2   0 6.49806 2.62659   3
   2  -2   0 6.00721 1.56039   4
  -2  -2   0 6.85885 1.77716   3
  -2   2   0 7.43288 1.61774   4
   2   2   0 5.37172 2.26938   4
  -2   2   0 2.20268 1.51173   2
   2   2   0 5.14096 1.76010   3
  -2   2   0 9.70391 2.03658   2
  -2   2   0 3.94197 2.52712   3
   2   2   0 7.93528 1.07143   2
  -4  -2   0 182.951 10.8553   4
  -4  -2   0 165.699 10.4398   3
   4  -2   0 173.029 11.0873   3
   4   2   0 186.654 10.5696   3
   4   2   0 167.574 9.68041   2
  -4   2   0 167.884 10.3234   2
  -4   2   0 186.465 10.3231   2
  -4   2   0 165.163 11.4435   3
   4   2   0 171.165 10.7342   4
  -4   2   0 171.193 9.70005   4
  -6  -2   0 31.0505 2.72755   2
   6  -2   0 26.2975 4.47684   3
  -6  -2   0 37.5260 3.96880   4
  -6  -2   0 26.6822 3.72840   3
  -6   2   0 29.6548 4.95824   3
  -6   2   0 32.9372 2.32652   4
   6   2   0 24.0791 2.60891   2
  -6   2   0 28.7837 1.95557   4
   6   2   0 28.0132 4.15962   4
  -6   2   0 28.3519 3.70728   2
   6   2   0 23.6671 3.68462   3
  -6   2   0 23.1665 3.39195   2
  -8  -2   0 81.8260 6.74761   4
   8  -2   0 96.8992 8.34740   3
  -8  -2   0 85.7438 5.93290   2
   8   2   0 82.5272 7.51672   3
   8   2   0 77.6117 5.86899   2
  -8   2   0 81.6492 6.73748   2
   8   2   0 79.3314 7.22669   4
 -10  -2   0 60.2752 5.05599   2
  10  -2   0 55.7719 7.28543   3
 -10  -2   0 39.6400 5.26171   4
  10   2   0 52.7895 5.06532   2
 -10   2   0 55.5381 5.86382   2
  10   2   0 63.0004 7.12605   3
  12  -2   0 180.569 15.4593   3
 -12  -2   0 227.405 13.3864   2
 -12  -2   0 199.750 13.9161   4
 -12   2   0 209.552 14.2723   2
  12   2   0 216.516 15.3340   3
 -14  -2   0 -0.6454 4.20487   2
 -14  -2   0 2.89342 4.66187   4
  14  -2   0 -1.8477 6.99620   3
 -14   2   0 -1.2526 5.12399   2
  14   2   0 7.81033 7.57150   3
  16  -2   0 111.725 13.6902   3
 -16  -2   0 116.072 10.1122   2
 -16  -2   0 141.106 10.7356   4
 -16   2   0 118.627 11.3047   2
  16   2   0 98.3982 13.2645   3
  18  -2   0 2.72008 8.79291   3
 -18  -2   0 6.56368 5.75094   4
 -18  -2   0 8.87411 6.31002   2
  18   2   0 14.3069 9.68613   3
 -18   2   0 7.04132 6.93901   2
 -20  -2   0 35.7806 8.41777   2
  20  -2   0 36.2426 11.4201   3
 -20  -2   0 35.5791 7.67305   4
  20   2   0 41.0656 12.4216   3
 -20   2   0 53.2537 9.86273   2
  22  -2   0 -17.283 10.6812   3
 -22  -2   0 13.2225 8.66130   2
  22   2   0 5.84716 11.8529   3
 -22   2   0 2.35278 8.14288   2
  24  -2   0 -19.872 12.7598   3
 -24   2   0 12.1908 10.0655   2
   1   3   0 6209.62 335.469   4
  -1   3   0 6232.07 335.298   4
  -1   3   0 6365.37 335.014   2
   1   3   0 6258.22 335.457   3
   1   3   0 6242.38 335.519   3
  -1   3   0 6281.83 335.559   3
   3  -3   0 1228.35 67.2708   4
  -3  -3   0 1256.08 67.8537   4
   3  -3   0 1249.79 67.9129   3
  -3  -3   0 1246.79 67.7454   3
  -3  -3   0 1312.92 66.9203   2
  -3   3   0 1254.69 67.4394   2
  -3   3   0 1270.52 67.3954   2
  -3   3   0 1240.16 67.3073   4
   3   3   0 1251.42 67.7642   3
   3   3   0 1207.63 67.8121   4
  -3   3   0 1184.65 67.9193   3
   3   3   0 1250.87 66.8914   2
   5  -3   0 195.830 11.0726   4
  -5  -3   0 200.319 12.1528   3
  -5  -3   0 189.955 10.7847   2
  -5  -3   0 197.269 12.3953   4
   5  -3   0 210.516 12.6118   3
  -5   3   0 180.460 11.8749   2
  -5   3   0 192.092 12.8772   3
   5   3   0 189.090 10.8605   2
  -5   3   0 196.590 11.9593   2
  -5   3   0 198.540 11.1246   4
   5   3   0 196.532 12.4736   4
   5   3   0 186.893 12.1268   3
  -7  -3   0 705.652 40.5760   4
  -7  -3   0 755.306 39.4539   2
   7  -3   0 712.278 40.9892   3
   7   3   0 761.806 40.8104   3
   7   3   0 703.820 39.4248   2
  -7   3   0 719.382 39.2276   4
  -7   3   0 725.181 40.3514   2
  -7   3   0 740.029 39.3285   4
   9  -3   0 55.3754 7.50787   3
  -9  -3   0 45.3449 5.81696   4
  -9  -3   0 34.8895 3.76174   2
   9   3   0 42.0534 5.57635   3
  -9   3   0 39.3970 5.30983   2
   9   3   0 37.9882 3.86946   2
 -11  -3   0 16.8016 4.73217   4
  11  -3   0 21.5483 6.52180   3
 -11  -3   0 25.1456 3.81897   2
  11   3   0 17.8313 5.99630   3
  11   3   0 16.7989 3.78980   2
 -11   3   0 27.9301 5.13772   2
 -13  -3   0 370.449 21.5924   2
  13  -3   0 382.059 24.3160   3
 -13  -3   0 345.552 22.6598   4
 -13   3   0 380.170 23.0686   2
  13   3   0 363.328 23.7696   3
  15  -3   0 172.161 15.4254   3
 -15  -3   0 179.738 12.5367   2
 -15  -3   0 146.927 13.0853   4
  15   3   0 179.748 15.4646   3
 -15   3   0 180.591 14.0265   2
  17  -3   0 -0.3101 8.33812   3
 -17  -3   0 9.57399 6.24964   4
 -17  -3   0 12.5229 5.78021   2
 -17   3   0 12.6353 7.09940   2
  17   3   0 9.50776 9.82402   3
  19  -3   0 30.6133 10.7824   3
 -19  -3   0 38.1681 7.79985   2
 -19  -3   0 29.4603 7.96546   4
 -19   3   0 19.8376 8.64343   2
  19   3   0 52.7289 12.9465   3
 -21  -3   0 39.3699 9.25173   4
  21  -3   0 28.6001 11.9390   3
  21   3   0 17.1639 12.5284   3
 -21   3   0 43.2473 10.5957   2
  23  -3   0 101.199 15.7914   3
 -23   3   0 41.5734 11.1591   2
  23   3   0 88.7421 15.6585   3
   0  -4   0 4248.25 224.061   2
   0  -4   0 4328.32 224.744   4
   0  -4   0 4159.11 224.761   3
   0   4   0 4116.33 224.065   2
   0   4   0 4138.87 224.894   3
   0   4   0 4122.16 224.695   4
  -2  -4   0 1857.72 98.4924   2
   2  -4   0 1808.66 99.1164   4
  -2  -4   0 1980.97 100.016   4
  -2   4   0 1799.02 99.1613   2
  -2   4   0 1834.89 98.9680   2
   2   4   0 1836.68 98.5136   2
   2   4   0 1823.62 99.5526   4
   2   4   0 1807.67 99.4854   3
   2   4   0 1784.90 100.112   3
  -2   4   0 1831.46 99.7294   3
  -4  -4   0 685.498 36.1443   2
   4  -4   0 666.882 36.7490   4
   4  -4   0 661.348 37.7329   3
  -4  -4   0 694.233 37.6128   4
   4   4   0 672.282 37.5214   3
  -4   4   0 627.606 36.8795   2
   4   4   0 659.630 36.2143   2
  -4   4   0 659.285 36.8332   4
  -4   4   0 705.934 37.1549   2
   6  -4   0 131.781 10.0072   3
   6  -4   0 131.129 7.94920   4
  -6  -4   0 113.644 9.44435   4
  -6  -4   0 125.457 7.32486   2
   6   4   0 125.660 7.50120   2
  -6   4   0 124.219 8.89020   2
   6   4   0 130.089 9.57724   3
  -6   4   0 122.299 8.21787   4
  -8  -4   0 33.0157 5.41352   4
  -8  -4   0 39.7265 3.25833   2
   8  -4   0 47.6367 6.66251   3
   8   4   0 38.2582 3.36964   2
  -8   4   0 35.1397 3.38825   4
   8   4   0 33.3542 5.68694   3
  -8   4   0 35.2882 3.47024   4
  -8   4   0 42.7624 5.27391   2
  10  -4   0 234.784 15.6714   3
 -10  -4   0 209.585 14.3650   4
 -10  -4   0 214.312 12.3621   2
  10   4   0 194.591 12.3878   2
 -10   4   0 208.291 14.0900   2
  10   4   0 201.410 15.1530   3
 -12  -4   0 812.927 44.0890   2
  12  -4   0 816.697 47.1041   3
 -12  -4   0 802.025 45.8673   4
 -12   4   0 837.194 45.6493   2
  12   4   0 746.141 46.2102   3
 -14  -4   0 13.6044 6.61651   4
 -14  -4   0 11.9569 4.50681   2
  14  -4   0 20.4449 8.33590   3
  14   4   0 20.4289 8.00748   3
 -14   4   0 19.2111 6.53183   2
  16  -4   0 48.1049 10.5505   3
 -16  -4   0 56.9536 6.58425   2
 -16  -4   0 41.4937 7.43456   4
 -16   4   0 38.5326 7.72589   2
  16   4   0 36.2585 10.5786   3
  18  -4   0 31.8348 11.0578   3
 -18  -4   0 28.2775 8.10857   4
 -18   4   0 6.46300 7.16007   2
  18   4   0 21.4836 10.9689   3
  20  -4   0 175.871 18.3900   3
 -20  -4   0 188.323 16.2130   4
 -20   4   0 189.834 16.7373   2
  20   4   0 205.269 19.8256   3
 -22  -4   0 67.9318 11.5486   4
  22  -4   0 75.6550 14.7260   3
  22   4   0 53.6504 16.1045   3
 -22   4   0 63.4757 12.8440   2
  24  -4   0 34.7185 16.6277   3
 -24   4   0 39.2573 11.7831   2
  -1  -5   0 783.443 43.0374   4
  -1  -5   0 781.522 41.8161   2
   1  -5   0 803.988 42.7968   4
   1  -5   0 741.283 43.0011   3
   1   5   0 742.551 43.0888   3
  -1   5   0 754.857 42.0787   2
  -1   5   0 786.248 42.2065   2
   1   5   0 755.838 41.8884   2
  -3  -5   0 215.602 13.8506   4
  -3  -5   0 209.946 11.5303   2
   3  -5   0 196.967 13.4732   3
   3  -5   0 203.554 12.7485   4
   3   5   0 191.178 13.1424   3
  -3   5   0 186.724 13.0570   2
   3   5   0 204.361 11.6980   2
  -3   5   0 198.445 13.3475   4
  -3   5   0 202.837 12.5949   2
   5  -5   0 7.41188 4.82079   3
   5  -5   0 -1.7952 2.84511   4
  -5  -5   0 -0.4718 1.45157   2
  -5  -5   0 5.66144 4.04417   4
  -5   5   0 1.25171 3.29918   2
   5   5   0 1.59296 3.92346   3
   5   5   0 -0.0179 1.97911   2
  -5   5   0 0.12511 3.67746   4
   7  -5   0 31.3553 6.64502   3
  -7  -5   0 25.4667 2.48276   2
   7  -5   0 22.6058 3.72296   4
  -7  -5   0 49.8532 6.99131   4
  -7   5   0 21.9179 4.82775   2
   7   5   0 31.9712 5.50994   3
   7   5   0 24.2807 2.75810   2
  -7   5   0 29.6625 4.19804   4
  -9  -5   0 389.641 21.8272   2
   9  -5   0 398.209 25.0091   3
  -9  -5   0 404.274 24.7443   4
   9   5   0 389.062 21.9319   2
  -9   5   0 420.082 22.4108   4
   9   5   0 409.634 24.8045   3
  -9   5   0 377.904 22.3213   4
  -9   5   0 405.099 23.8531   2
 -11  -5   0 13.9495 6.73233   4
  11  -5   0 16.5858 7.74753   3
 -11  -5   0 22.2832 3.21274   2
  11   5   0 19.2611 6.54791   3
 -11   5   0 10.9693 6.58458   2
  13  -5   0 -4.5194 8.43281   3
 -13  -5   0 -7.9440 6.42223   4
 -13  -5   0 3.37865 3.47807   2
  13   5   0 -1.9669 7.15814   3
 -13   5   0 0.00661 5.73149   2
 -15  -5   0 191.078 14.8832   4
  15  -5   0 197.566 17.4804   3
 -15   5   0 175.656 14.8064   2
  15   5   0 167.327 16.0431   3
  17  -5   0 12.2398 10.1468   3
 -17  -5   0 2.41120 7.72751   4
  17   5   0 9.41142 9.62653   3
 -17   5   0 8.13976 8.15739   2
  19  -5   0 4.06131 9.97837   3
 -19  -5   0 -1.0767 8.63376   4
  19   5   0 0.48560 10.6425   3
 -19   5   0 -5.2194 8.43139   2
  21  -5   0 54.8212 14.4294   3
 -21  -5   0 46.3440 10.8323   4
  21   5   0 61.2060 14.6667   3
 -21   5   0 29.0475 10.3471   2
 -23  -5   0 29.1370 12.8590   4
 -23   5   0 38.9755 14.5940   2
  23   5   0 50.4675 16.6673   3
   0  -6   0 277.826 17.2575   3
   0  -6   0 249.767 16.5609   4
   0   6   0 248.075 15.6732   2
   0   6   0 276.882 15.6168   2
   2  -6   0 96.2406 8.10161   4
  -2  -6   0 101.284 8.52286   4
  -2  -6   0 77.6104 6.06157   2
   2  -6   0 78.9517 8.43049   3
   2   6   0 101.682 8.71807   3
  -2   6   0 91.2485 7.25958   2
   2   6   0 82.9142 6.39044   2
   4  -6   0 3.50064 5.41673   3
  -4  -6   0 4.04236 2.14407   2
  -4  -6   0 0.87689 4.77888   4
   4  -6   0 8.30153 4.07297   4
   4   6   0 11.3326 4.83272   3
   4   6   0 1.41163 2.58450   2
  -4   6   0 0.96588 3.91202   2
   6  -6   0 49.2733 7.94894   3
  -6  -6   0 60.9379 7.90454   4
  -6  -6   0 56.3089 3.73793   2
   6   6   0 42.7071 4.01763   2
  -6   6   0 52.9539 6.67601   4
   6   6   0 45.8312 6.66126   3
  -6   6   0 34.9838 5.85188   2
   8  -6   0 98.9258 7.57635   4
  -8  -6   0 93.9708 5.87710   2
   8  -6   0 89.5967 10.5850   3
  -8  -6   0 106.502 10.9277   4
  -8   6   0 106.743 9.75535   2
   8   6   0 82.1876 9.25495   3
 -10  -6   0 28.3399 7.13870   4
  10  -6   0 24.3682 8.55407   3
  10   6   0 30.7497 7.16079   3
 -10   6   0 24.7732 6.40480   2
 -10   6   0 33.1890 5.34594   4
  12  -6   0 35.5130 8.73026   3
 -12  -6   0 37.3120 7.93226   4
  12   6   0 52.7406 9.38518   3
 -12   6   0 56.1748 8.27130   2
  14  -6   0 6.91285 9.23924   3
 -14  -6   0 -1.9061 7.28250   4
  14   6   0 3.91229 8.63783   3
 -14   6   0 -4.9281 6.51687   2
 -16  -6   0 38.7784 8.97204   4
  16  -6   0 37.7409 11.6120   3
  16   6   0 45.0303 11.4199   3
 -16   6   0 36.4630 8.94069   2
  18  -6   0 6.24295 11.2264   3
 -18  -6   0 -12.202 8.59629   4
 -18   6   0 14.3912 8.36566   2
  18   6   0 10.0640 10.8237   3
  20  -6   0 9.23314 11.5627   3
 -20  -6   0 -4.1581 8.90949   4
  20   6   0 -0.2203 13.8076   3
 -20   6   0 3.13273 10.0524   2
 -22  -6   0 9.18736 11.7414   4
  22   6   0 3.51402 14.2560   3
  -1  -7   0 302.643 20.5158   4
   1  -7   0 312.464 20.2978   3
   1  -7   0 311.367 20.0430   4
  -1   7   0 317.028 18.9938   2
   1   7   0 320.143 20.5187   3
   1   7   0 324.324 18.5324   2
   3  -7   0 138.669 11.9413   3
   3  -7   0 129.497 10.5134   4
  -3  -7   0 124.244 11.5697   4
  -3   7   0 117.453 9.82753   2
   3   7   0 118.029 11.4803   3
   3   7   0 133.732 8.82107   2
  -5  -7   0 33.0800 7.83312   4
   5  -7   0 48.4857 7.83508   3
   5  -7   0 39.5698 6.12737   4
   5   7   0 56.7132 7.88239   3
  -5   7   0 40.3797 6.43579   2
   5   7   0 39.3409 4.02717   2
   7  -7   0 -12.602 5.96260   3
   7  -7   0 1.77974 4.50592   4
  -7  -7   0 -1.5339 6.58073   4
  -7   7   0 4.68300 5.90633   2
   7   7   0 -0.6682 5.50410   3
  -9  -7   0 -4.8640 6.44030   4
   9  -7   0 -1.3100 7.73664   3
  -9   7   0 8.32048 6.63508   2
   9   7   0 5.13292 6.99074   3
  11  -7   0 86.3537 11.3551   3
 -11  -7   0 95.3481 11.2207   4
  11   7   0 105.811 11.3471   3
 -13  -7   0 87.1095 10.6658   4
  13  -7   0 79.3293 12.0399   3
  13   7   0 71.9631 11.5714   3
 -13   7   0 63.9635 9.89283   2
 -15  -7   0 4.99640 7.94572   4
  15  -7   0 12.9495 9.54888   3
  15   7   0 12.7012 10.5489   3
 -15   7   0 13.3215 8.47448   2
 -17  -7   0 -1.5251 8.49468   4
  17  -7   0 11.5482 11.3760   3
 -17   7   0 -7.3426 8.11426   2
  17   7   0 -11.076 9.95068   3
 -19  -7   0 12.2191 9.75942   4
  19  -7   0 11.8704 11.9394   3
  19   7   0 -17.684 11.2061   3
 -19   7   0 20.8554 10.0743   2
  21  -7   0 65.7734 17.1581   3
 -21  -7   0 58.3187 14.0725   4
 -21   7   0 54.5672 14.0559   2
  21   7   0 46.4857 28.2660   3
   0  -8   0 1661.79 90.5630   4
   0   8   0 1645.55 91.1018   3
   0   8   0 1616.24 89.1131   2
   2  -8   0 83.8590 9.95901   3
   2  -8   0 112.633 10.3420   4
  -2  -8   0 93.0797 10.6663   4
   2   8   0 111.093 10.9070   3
  -2   8   0 84.1998 8.48824   2
   4  -8   0 -0.8332 6.83551   3
   4  -8   0 -0.1740 5.49363   4
  -4  -8   0 16.5399 6.85916   4
   4   8   0 1.07318 6.01749   3
  -4   8   0 2.03157 5.51896   2
   6  -8   0 93.3547 11.3424   3
   6  -8   0 93.5109 9.33781   4
  -6  -8   0 92.4274 10.7448   4
   6   8   0 111.758 11.5833   3
  -6   8   0 80.9752 9.46523   2
   8  -8   0 53.5824 9.59261   3
   8  -8   0 79.7681 8.05515   4
  -8  -8   0 56.1531 10.0871   4
  -8   8   0 76.0047 9.49426   2
   8   8   0 84.8116 10.8370   3
 -10  -8   0 31.7526 8.64177   4
  10  -8   0 24.1954 8.50126   3
  10   8   0 28.4421 9.47933   3
 -10   8   0 8.96651 7.23456   2
  12  -8   0 46.1742 10.3340   3
 -12  -8   0 41.5704 10.1883   4
 -12   8   0 40.3610 9.68372   2
  12   8   0 24.4119 9.09128   3
  14  -8   0 65.9657 12.1431   3
 -14  -8   0 59.8302 12.0177   4
  14   8   0 51.3629 11.4815   3
 -14   8   0 63.5691 10.8517   2
  16  -8   0 6.57782 10.2336   3
 -16  -8   0 8.78457 9.38338   4
  16   8   0 3.28158 10.5936   3
 -16   8   0 -2.5867 8.78848   2
  18  -8   0 -6.0830 12.2127   3
 -18  -8   0 6.62633 11.5160   4
  18   8   0 18.3003 13.1824   3
 -18   8   0 0.76327 9.92498   2
   1  -9   0 198.729 16.0419   4
  -1   9   0 178.357 14.2518   2
   1   9   0 193.711 17.2627   3
  -1   9   0 247.651 18.1795   3
   3  -9   0 3.35027 6.66646   4
   3  -9   0 -2.9888 7.46677   3
  -3  -9   0 1.85830 7.54445   4
   3   9   0 -3.1112 6.81649   3
  -3   9   0 9.60930 6.33107   2
   5  -9   0 84.1151 10.7261   3
  -5  -9   0 73.4463 10.4983   4
   5  -9   0 78.0374 9.39945   4
   5   9   0 80.2688 10.8285   3
  -5   9   0 81.5066 9.52069   2
   7  -9   0 67.6413 8.53721   4
   7  -9   0 60.6266 10.8407   3
  -7  -9   0 47.8894 9.92757   4
  -7   9   0 47.3761 8.53295   2
   7   9   0 43.4562 9.96939   3
  -9  -9   0 8.52917 8.34520   4
   9  -9   0 -11.970 8.63237   3
  -9   9   0 -8.5323 7.86876   2
   9   9   0 1.67132 8.12541   3
 -11  -9   0 33.4069 10.6472   4
  11  -9   0 16.7700 9.22350   3
  11   9   0 38.5161 10.4833   3
 -11   9   0 41.9321 10.2591   2
 -13  -9   0 118.304 14.2310   4
  13  -9   0 65.9570 13.6625   3
  13   9   0 91.4194 13.7304   3
 -13   9   0 114.264 13.9047   2
 -15  -9   0 3.31205 10.0322   4
  15  -9   0 -2.9504 10.6220   3
 -15   9   0 -6.5913 9.20490   2
  15   9   0 -7.9482 10.8496   3
 -17  -9   0 9.73366 12.4999   4
  17  -9   0 18.4348 12.2905   3
 -17   9   0 7.86730 12.0129   2
  17   9   0 -6.9532 12.6652   3
   0 -10   0 92.4918 11.5485   4
   0  10   0 145.092 14.3341   3
  -2 -10   0 1.96286 8.60426   4
   2 -10   0 8.69310 7.87817   4
   2  10   0 6.69413 8.52582   3
  -2  10   0 3.16861 9.47796   3
  -4 -10   0 -9.3371 8.54826   4
   4 -10   0 5.63831 7.87949   4
   4 -10   0 -1.9797 7.65816   3
   4  10   0 2.99225 8.51374   3
  -4  10   0 -5.6003 7.33545   2
   6 -10   0 -5.1990 8.01044   3
  -6 -10   0 4.97166 8.64496   4
   6 -10   0 -5.7732 7.32624   4
  -6  10   0 -2.1121 8.07660   2
   6  10   0 2.85513 8.70918   3
  -8 -10   0 -0.5926 8.87816   4
   8 -10   0 7.51337 8.91120   3
  -8  10   0 5.05629 8.97204   2
   8  10   0 0.63817 9.27958   3
  10 -10   0 7.13580 9.76597   3
 -10 -10   0 9.41085 10.0223   4
  10  10   0 -5.7891 10.9527   3
 -10  10   0 -5.5058 9.23817   2
  12 -10   0 9.22608 10.3799   3
 -12 -10   0 -3.8396 10.9818   4
  12  10   0 0.11566 12.0036   3
 -12  10   0 1.79134 10.4895   2
  14 -10   0 -1.1078 12.1892   3
 -14 -10   0 2.84631 12.5075   4
  14  10   0 17.2678 12.3533   3
 -14  10   0 10.1673 11.8169   2
   1 -11   0 216.044 19.3447   4
  -1 -11   0 230.837 20.1664   4
   1  11   0 291.153 22.8680   3
  -1  11   0 270.734 22.3707   3
  -3 -11   0 38.7114 11.1416   4
   3 -11   0 25.9435 10.0606   4
   3  11   0 30.5426 12.1615   3
  -3  11   0 49.0386 13.0420   3
  -5 -11   0 45.0307 10.9819   4
   5 -11   0 34.9099 10.3432   3
   5  11   0 23.1189 12.2091   3
   7 -11   0 24.6183 11.6355   3
  -7 -11   0 37.8419 11.8681   4
  -7  11   0 9.17485 11.3925   2
   7  11   0 28.5396 12.9989   3
   9 -11   0 5.84141 11.7465   3
  -9 -11   0 15.9593 10.9292   4
  -9  11   0 -4.4338 10.4599   2
   9  11   0 7.54679 12.8872   3
 -11 -11   0 3.72374 12.5238   4
  11 -11   0 0.90405 12.3576   3
 -11  11   0 14.2376 11.8448   2
  11  11   0 -6.8975 12.0140   3
   0 -12   0 174.659 18.2810   4
   0  12   0 200.249 20.8603   3
   2 -12   0 26.7109 11.6026   4
  -2 -12   0 32.6883 11.3685   4
   2  12   0 11.7135 12.8694   3
  -2  12   0 27.8886 14.3311   3
  -4 -12   0 -6.4948 10.4704   4
   4  12   0 -0.8393 13.4449   3
  -4  12   0 14.1551 13.9875   3
  26   0  -1 -5.8178 16.5377   3
 -26   0   1 -0.4014 11.2713   2
  24   0  -1 5.14933 13.4899   3
 -24   0   1 3.24476 9.55787   2
 -22   0   1 -9.7646 8.00250   2
  22   0  -1 -0.5746 11.2063   3
  20   0  -1 6.71007 11.1776   3
 -20   0   1 -1.8004 7.45337   2
 -18   0   1 -7.6970 5.80853   2
 -18   0   1 3.28579 4.57927   4
 -16   0   1 -2.5654 3.94267   4
 -16   0   1 -2.7007 5.25535   2
  16   0  -1 2.04955 8.22551   3
 -14   0   1 -7.5112 4.34296   2
 -14   0   1 1.67920 3.44798   4
  14   0  -1 2.57441 4.31561   4
  14   0  -1 -4.8582 6.21026   3
  12   0  -1 3.15171 3.47760   4
 -12   0   1 -2.0461 2.82366   4
  12   0  -1 -7.1388 4.93229   3
 -12   0   1 4.61181 3.58827   2
  10   0  -1 1.79741 2.88698   4
  10   0  -1 -0.7983 4.32125   3
 -10   0   1 1.23607 2.42364   4
 -10   0   1 2.63111 3.00588   2
   8   0  -1 -0.1360 2.30142   4
   8   0  -1 0.01760 3.38060   3
  -8   0   1 -1.3595 3.25069   3
  -8   0   1 0.22643 1.95055   4
  -8   0   1 -0.4868 2.01397   2
   6   0  -1 0.19984 2.92006   3
  -6   0   1 2.27543 2.98981   3
   6   0  -1 -1.9837 2.10055   4
  -6   0   1 3.42786 1.74764   2
  -6   0   1 -0.0099 1.95431   4
  -6   0   1 3.56187 1.81203   2
   4   0  -1 4.31148 1.81819   3
  -4   0   1 3.14347 1.79814   3
  -4   0   1 2.46074 1.06869   2
  -4   0   1 0.47164 1.30686   4
   4   0  -1 -0.3081 1.27191   4
  -4   0   1 3.20147 1.19104   2
   2   0  -1 0.70062 0.63194   4
  -2   0   1 0.18106 0.36813   2
  -2   0   1 -0.2258 0.47788   3
   0   0  -1 -0.1835 0.30557   4
   0   0   1 -0.1164 0.24169   2
  -2   0  -1 8.92859 1.48467   3
  -2   0  -1 10.7821 1.05057   4
   2   0   1 7.05805 1.24780   2
  -4   0  -1 -0.8461 1.30647   4
   4   0   1 2.23706 2.65560   3
  -4   0  -1 2.64558 2.36317   3
   4   0   1 5.57983 1.92142   2
   4   0   1 0.91589 0.89293   4
  -4   0  -1 4.14499 2.05960   2
  -6   0  -1 2.67934 2.36866   2
   6   0   1 -1.3799 2.08382   2
  -6   0  -1 0.88899 1.56328   4
   6   0   1 1.96522 1.39023   4
   6   0   1 5.06574 3.64329   3
   8   0   1 2.40101 3.80815   3
   8   0   1 1.92184 1.99411   4
  -8   0  -1 2.38640 2.54296   2
  -8   0  -1 -1.4834 1.82208   4
   8   0   1 3.17679 2.89390   2
  -8   0  -1 -6.3727 3.88532   3
 -10   0  -1 0.41276 2.26786   4
  10   0   1 -3.3321 4.63965   3
 -10   0  -1 2.14356 3.17029   2
  10   0   1 2.87091 2.74339   4
  12   0   1 -0.2314 5.95319   3
 -12   0  -1 2.80286 2.91243   4
 -12   0  -1 0.33463 3.73461   2
  12   0   1 5.20226 3.80912   4
  14   0   1 24.8375 7.09448   3
 -14   0  -1 5.01007 5.18794   2
 -14   0  -1 -2.4733 3.47048   4
 -16   0  -1 -5.9633 5.56394   2
 -16   0  -1 3.69163 4.08460   4
  16   0   1 -4.3395 9.02227   3
  18   0   1 7.89266 10.1826   3
 -18   0  -1 0.66551 5.72223   2
  20   0   1 -2.2707 10.1665   3
 -20   0  -1 -5.9736 7.33793   2
  22   0   1 0.11263 12.2462   3
 -22   0  -1 8.07266 9.12025   2
  24   0   1 -3.1831 15.6104   3
 -24   0  -1 -2.2436 10.5899   2
  25  -1  -1 9.24084 15.2551   3
 -25  -1   1 15.4921 10.9163   2
  25   1  -1 -9.7860 15.0990   3
 -25   1   1 18.7831 10.1415   2
  23  -1  -1 33.1872 12.9836   3
 -23  -1   1 26.2915 9.42688   2
  23   1  -1 14.5785 12.0636   3
 -23   1   1 28.7856 9.21283   2
 -21  -1   1 103.032 11.9739   2
  21  -1  -1 54.7286 13.2367   3
 -21   1   1 92.2753 11.3095   2
  21   1  -1 92.1370 13.5772   3
 -19  -1   1 -6.2025 5.81366   2
 -19  -1   1 -0.4115 5.42198   4
  19  -1  -1 2.73348 9.26793   3
  19   1  -1 0.92817 9.93631   3
 -19   1   1 3.45191 7.36580   2
 -17  -1   1 161.826 12.0238   4
 -17  -1   1 163.188 12.2125   2
  17  -1  -1 149.295 15.4617   3
  17   1  -1 173.492 16.1690   3
 -17   1   1 124.318 12.0288   2
 -15  -1   1 291.496 18.4999   2
 -15  -1   1 287.190 18.3441   4
  15  -1  -1 317.196 21.2726   3
 -15   1   1 320.680 19.2109   2
 -15   1   1 289.687 17.1616   4
  15   1  -1 280.334 20.8061   3
  13  -1  -1 90.9859 9.90471   3
 -13  -1   1 98.2255 7.78402   4
  13  -1  -1 78.3653 7.43936   4
 -13  -1   1 86.8913 7.63621   2
 -13   1   1 103.637 8.62654   2
  13   1  -1 101.908 8.70939   4
  13   1  -1 89.4666 9.56295   3
 -13   1   1 88.0842 6.66959   4
 -11  -1   1 830.913 44.7472   4
  11  -1  -1 808.776 45.8076   3
 -11  -1   1 806.040 44.5455   2
  11  -1  -1 802.870 44.3049   4
  11   1  -1 792.397 45.7287   3
  11   1  -1 821.002 44.5499   2
 -11   1   1 840.277 44.8960   2
 -11   1   1 810.078 43.9853   4
  11   1  -1 773.851 44.8532   4
   9  -1  -1 185.779 11.7306   4
  -9  -1   1 196.990 11.8698   2
  -9  -1   1 204.239 12.2005   4
   9  -1  -1 203.118 13.2975   3
  -9   1   1 207.875 12.2207   2
  -9   1   1 190.713 12.1276   2
  -9   1   1 194.133 11.3725   4
   9   1  -1 204.938 12.1824   2
   9   1  -1 205.580 13.4009   3
   7  -1  -1 6.68483 2.05782   4
  -7  -1   1 2.69746 2.43988   4
  -7  -1   1 4.75278 1.86554   2
   7  -1  -1 6.23259 3.64574   3
  -7  -1   1 -0.5188 2.76694   3
  -7   1   1 -0.5333 1.67611   4
   7   1  -1 4.45350 2.72840   4
  -7   1   1 1.90261 3.56148   3
  -7   1   1 3.52695 2.25729   2
   7   1  -1 7.72005 3.05741   3
  -7   1   1 3.41763 2.58682   2
   7   1  -1 3.82583 1.85768   2
  -5  -1   1 470.872 25.8049   4
   5  -1  -1 456.820 25.3651   4
  -5  -1   1 468.869 25.3511   2
  -5  -1   1 454.930 25.8989   3
   5  -1  -1 468.463 26.1740   3
   5   1  -1 451.675 25.3102   2
   5   1  -1 464.432 25.8181   4
   5   1  -1 476.619 26.0022   3
  -5   1   1 478.048 25.6408   2
  -5   1   1 479.151 25.4365   4
  -5   1   1 473.930 26.1715   3
  -5   1   1 458.080 25.6798   2
  -3  -1   1 1194.43 64.5918   4
   3  -1  -1 1195.92 64.6260   3
  -3  -1   1 1204.81 64.1362   2
  -3  -1   1 1217.30 64.1209   2
   3  -1  -1 1174.79 64.4179   2
  -3  -1   1 1183.33 64.5755   3
   3  -1  -1 1220.65 64.3169   4
  -3   1   1 1195.67 64.4247   2
  -3   1   1 1212.03 64.6198   3
   3   1  -1 1177.23 64.5826   4
  -3   1   1 1227.97 64.3488   4
   3   1  -1 1175.95 64.6143   3
  -1  -1   1 1192.78 63.4154   2
  -1   1   1 1203.11 63.6439   4
   1   1  -1 1211.86 63.4196   2
   1   1  -1 1162.00 63.7096   4
   1   1  -1 1168.96 63.6904   3
  -1   1   1 1196.04 63.6391   3
  -1   1   1 1165.21 63.5695   2
  -1  -1  -1 774.626 43.5740   3
   1  -1   1 818.832 43.5790   2
   1  -1   1 820.480 43.4631   4
  -1   1  -1 822.421 43.4766   4
   1   1   1 793.220 43.6712   4
  -1   1  -1 820.012 43.7847   3
   1   1   1 813.920 43.4785   2
   1   1   1 813.659 43.6210   3
   3  -1   1 1037.86 57.1040   2
  -3  -1  -1 1042.81 57.1878   3
  -3  -1  -1 1057.20 56.9380   2
  -3  -1  -1 1091.44 57.1696   4
   3   1   1 1030.00 57.2225   3
  -3   1  -1 1063.70 57.1474   2
  -3   1  -1 1087.54 57.4554   3
   3   1   1 1042.73 56.9281   2
   3   1   1 1077.10 57.1745   4
  -5  -1  -1 240.415 13.6150   4
   5  -1   1 232.792 12.7176   4
  -5  -1  -1 236.657 13.4342   2
   5  -1   1 226.335 13.6227   2
   5  -1   1 248.821 14.3666   3
  -5  -1  -1 226.598 13.8915   3
  -5   1  -1 238.894 13.6511   2
  -5   1  -1 263.304 14.0863   3
   5   1   1 226.506 13.9762   3
   5   1   1 233.153 13.3737   2
   5   1   1 221.678 13.6203   4
   7  -1   1 188.569 10.5530   4
  -7  -1  -1 191.747 11.3183   2
  -7  -1  -1 189.930 12.2276   3
  -7  -1  -1 189.547 11.4782   4
   7  -1   1 181.206 11.6216   2
   7  -1   1 198.233 12.5909   3
  -7   1  -1 195.794 10.4715   4
  -7   1  -1 177.781 11.5056   2
   7   1   1 202.014 12.5543   3
  -7   1  -1 189.724 12.7220   3
   7   1   1 183.143 11.3413   2
   7   1   1 182.370 11.6276   4
   9  -1   1 149.748 8.66034   4
  -9  -1  -1 146.011 9.48717   4
  -9  -1  -1 145.293 9.54416   2
   9  -1   1 140.768 11.2211   3
  -9   1  -1 139.254 9.79430   2
   9   1   1 127.747 9.71142   2
   9   1   1 151.874 11.5412   3
  -9   1  -1 141.262 8.40411   4
   9   1   1 175.910 11.0175   4
  11  -1   1 27.5249 3.57673   4
  11  -1   1 35.9289 7.13548   3
 -11  -1  -1 36.7408 4.40730   4
 -11  -1  -1 28.6332 4.63944   2
  11   1   1 21.0837 6.32334   3
 -11   1  -1 31.3476 2.97993   4
 -11   1  -1 23.0507 4.60823   2
  11   1   1 32.3383 5.16567   4
  13  -1   1 122.616 11.8231   3
 -13  -1  -1 100.334 7.90936   4
 -13  -1  -1 94.2917 8.31476   2
  13  -1   1 94.5446 7.12314   4
 -13   1  -1 87.8355 8.67395   2
  13   1   1 90.6233 8.52633   4
  13   1   1 94.4601 11.1176   3
 -13   1  -1 82.9444 6.52961   4
 -15  -1  -1 210.356 14.4462   4
 -15  -1  -1 208.077 15.0561   2
  15  -1   1 219.156 18.3532   3
 -15   1  -1 221.658 13.0586   4
 -15   1  -1 235.307 16.0015   2
  15   1   1 207.006 17.8131   3
  17  -1   1 11.7783 10.2928   3
 -17  -1  -1 23.0822 6.24994   2
 -17  -1  -1 20.1129 5.59844   4
  17   1   1 8.78922 10.1787   3
 -17   1  -1 10.4159 6.15970   2
 -19  -1  -1 38.4605 8.42570   2
  19  -1   1 50.6263 11.6185   3
  19   1   1 42.3447 11.7804   3
 -19   1  -1 52.2970 8.47108   2
  21  -1   1 149.931 18.0637   3
 -21  -1  -1 103.897 11.8261   2
 -21   1  -1 91.1064 11.6510   2
  21   1   1 101.535 15.3814   3
 -23  -1  -1 77.2441 12.0844   2
  23  -1   1 67.7581 15.1646   3
 -23   1  -1 46.5258 11.4657   2
  23   1   1 45.4899 14.7183   3
  25  -1   1 55.2865 17.9007   3
 -25  -1  -1 70.1559 13.7750   2
  25   1   1 11.1998 15.9083   3
 -25   1  -1 50.7348 13.1507   2
  24  -2  -1 92.9280 16.1770   3
  24   2  -1 39.9783 14.5274   3
 -24   2   1 30.6715 10.2517   2
  22  -2  -1 18.9868 11.8373   3
  22   2  -1 22.2747 13.0188   3
 -22   2   1 21.2949 9.57723   2
 -20  -2   1 66.2553 8.92632   4
 -20  -2   1 81.6029 9.38559   2
  20  -2  -1 88.2061 14.4653   3
 -20   2   1 62.8391 10.2498   2
  20   2  -1 52.4716 12.2933   3
 -18  -2   1 63.5602 8.31600   4
 -18  -2   1 78.1836 8.22106   2
  18  -2  -1 57.1416 12.0635   3
  18   2  -1 55.0596 11.0663   3
 -16  -2   1 100.897 9.09082   2
 -16  -2   1 110.491 9.75120   4
  16  -2  -1 85.9144 11.9694   3
  16   2  -1 100.849 12.5002   3
 -16   2   1 110.571 10.4221   2
  14  -2  -1 230.701 13.6175   4
  14  -2  -1 234.814 17.6560   3
 -14  -2   1 217.034 14.6724   2
 -14  -2   1 210.879 15.0621   4
 -14   2   1 228.964 12.8892   4
 -14   2   1 247.773 15.9846   2
  14   2  -1 224.979 17.1220   3
  12  -2  -1 481.988 29.8530   3
  12  -2  -1 497.935 26.7810   4
 -12  -2   1 488.715 27.5906   2
 -12  -2   1 506.871 28.3628   4
 -12   2   1 491.209 26.6250   4
  12   2  -1 470.296 27.5213   2
 -12   2   1 469.743 28.2503   2
  12   2  -1 503.117 29.3925   3
 -10  -2   1 74.3174 6.97300   4
 -10  -2   1 90.8451 6.26589   2
  10  -2  -1 88.7184 5.37373   4
  10  -2  -1 95.2573 9.05379   3
  10   2  -1 76.3315 5.97411   2
  10   2  -1 91.9022 8.05018   3
  10   2  -1 67.3708 7.56304   4
 -10   2   1 81.0270 5.23219   4
 -10   2   1 79.5607 7.19021   2
  -8  -2   1 121.851 7.17362   2
  -8  -2   1 114.620 8.42525   4
   8  -2  -1 110.005 9.04333   3
   8   2  -1 117.899 8.55847   4
   8   2  -1 124.664 8.61412   3
   8   2  -1 117.617 7.14279   2
  -8   2   1 111.974 7.96776   2
  -8   2   1 105.906 8.34029   2
  -8   2   1 111.304 9.21868   3
  -8   2   1 104.516 6.84857   4
  -6  -2   1 777.715 42.1568   2
  -6  -2   1 798.836 43.0284   4
  -6  -2   1 750.834 43.0189   3
   6  -2  -1 779.924 43.3452   3
  -6   2   1 791.378 42.8021   2
  -6   2   1 796.763 42.7288   2
  -6   2   1 776.502 42.1245   4
  -6   2   1 757.215 43.2829   3
   6   2  -1 782.586 43.1203   3
   6   2  -1 775.787 42.1292   2
   6   2  -1 830.269 43.8640   4
  -6   2   1 778.411 42.2710   4
   4  -2  -1 661.649 35.1041   3
  -4  -2   1 640.631 35.0131   4
   4  -2  -1 636.742 34.6517   2
  -4  -2   1 641.105 34.9128   3
  -4  -2   1 629.455 34.0407   2
  -4   2   1 621.913 34.3638   4
  -4   2   1 616.283 35.1134   3
  -4   2   1 635.491 34.6793   2
   4   2  -1 647.480 35.0887   4
   4   2  -1 617.641 34.9258   3
   4   2  -1 641.928 34.0420   2
  -2  -2   1 959.853 49.1003   4
   2  -2  -1 903.595 48.7702   4
   2  -2  -1 919.553 49.0204   3
  -2  -2   1 877.773 48.9642   3
   2  -2  -1 908.728 48.7095   2
   2   2  -1 887.156 48.3087   2
   2   2  -1 908.613 49.0544   4
   2   2  -1 883.634 48.9934   3
  -2   2   1 896.510 48.7049   2
  -2   2   1 894.000 48.7651   4
   2   2  -1 891.849 48.9711   3
   2   2  -1 889.910 48.3187   2
  -2   2   1 921.038 49.0384   3
   2  -2   1 57.0928 4.10665   4
   2  -2   1 64.6595 5.50110   3
   2  -2   1 64.0740 4.37181   2
  -2  -2  -1 54.8120 4.69978   4
  -2  -2  -1 65.7370 4.56881   3
  -2  -2  -1 59.4105 3.93852   2
  -2   2  -1 57.0894 4.31237   4
   2   2   1 54.1914 4.28645   3
  -2   2  -1 57.0367 5.18112   3
   2   2   1 62.1269 4.01791   2
   2   2   1 69.5618 5.09141   4
  -2   2  -1 63.8935 4.64152   2
  -4  -2  -1 281.545 16.0113   2
   4  -2   1 304.313 17.1997   3
  -4  -2  -1 262.038 16.5824   3
   4  -2   1 312.384 15.7290   4
   4  -2   1 294.905 16.4962   2
  -4  -2  -1 284.330 16.7703   4
  -4   2  -1 279.510 15.7720   4
   4   2   1 295.863 16.0719   2
  -4   2  -1 293.067 16.5241   2
  -4   2  -1 272.877 17.1888   3
   4   2   1 288.044 16.6448   3
   4   2   1 295.306 16.8791   4
  -6  -2  -1 284.880 15.1010   2
  -6  -2  -1 260.304 15.6193   4
   6  -2   1 297.083 16.7265   3
  -6  -2  -1 273.213 16.0084   3
   6  -2   1 273.803 15.6433   2
   6   2   1 245.716 15.8698   4
   6   2   1 258.040 15.0523   2
  -6   2  -1 255.324 15.5674   2
   6   2   1 247.424 15.8111   3
  -6   2  -1 274.165 16.6565   3
  -8  -2  -1 38.3355 3.82251   2
  -8  -2  -1 32.2873 4.26722   4
   8  -2   1 23.4433 5.41742   3
   8   2   1 21.3159 4.96644   3
  -8   2  -1 31.6001 4.53249   2
   8   2   1 37.4004 4.83341   4
   8   2   1 38.7545 3.89468   2
  10  -2   1 232.681 16.4560   3
 -10  -2  -1 225.562 15.0821   4
 -10  -2  -1 247.153 14.6216   2
 -10   2  -1 273.387 15.5903   2
  10   2   1 239.841 14.7966   2
  10   2   1 239.779 16.5289   3
 -12  -2  -1 429.243 25.3370   4
  12  -2   1 450.810 27.1744   3
 -12  -2  -1 412.590 24.9358   2
  12   2   1 439.798 26.7994   3
 -12   2  -1 443.647 25.8812   2
 -14  -2  -1 -3.5969 4.79995   2
 -14  -2  -1 -0.4675 4.71034   4
  14  -2   1 5.16018 7.69670   3
 -14   2  -1 1.70947 5.86975   2
  14   2   1 -1.1510 7.67724   3
  16  -2   1 15.0409 9.34338   3
 -16  -2  -1 19.0601 5.95762   4
 -16  -2  -1 10.5567 5.98120   2
  16   2   1 18.2970 9.21182   3
 -16   2  -1 15.4928 7.04260   2
 -18  -2  -1 49.3602 7.81824   4
 -18  -2  -1 57.9067 8.31553   2
  18  -2   1 49.1508 12.0170   3
  18   2   1 54.3542 11.1982   3
 -18   2  -1 41.3839 8.35607   2
  20  -2   1 129.162 15.4865   3
 -20  -2  -1 99.4182 11.5866   2
 -20   2  -1 103.035 11.8911   2
  20   2   1 126.351 15.4200   3
  22  -2   1 27.5977 14.0136   3
 -22  -2  -1 43.9692 10.0809   2
 -22   2  -1 27.3606 10.4591   2
  22   2   1 25.4771 14.0207   3
  24  -2   1 72.3373 17.7818   3
 -24   2  -1 85.4407 13.9492   2
  24   2   1 89.3151 17.1787   3
 -25   3   1 28.6405 12.3131   2
  23  -3  -1 -1.4525 12.0771   3
 -23   3   1 -2.4228 8.86085   2
  23   3  -1 -17.102 13.9912   3
  21  -3  -1 96.8424 14.7445   3
 -21  -3   1 86.6453 10.9233   4
 -21   3   1 86.7501 11.6278   2
  21   3  -1 72.9865 14.1712   3
  19  -3  -1 10.9605 9.64003   3
 -19  -3   1 12.4197 7.01590   4
 -19  -3   1 4.59870 6.41937   2
 -19   3   1 30.3604 8.52554   2
  19   3  -1 20.7793 11.4169   3
 -17  -3   1 36.9589 7.62229   4
  17  -3  -1 28.7677 9.72200   3
 -17  -3   1 18.6550 5.85844   2
  17   3  -1 22.2279 8.87972   3
 -15  -3   1 168.940 13.3253   4
  15  -3  -1 199.667 16.7829   3
 -15  -3   1 178.564 12.0257   2
  15   3  -1 159.133 14.6903   3
 -15   3   1 144.133 13.0002   2
 -13  -3   1 329.913 18.4189   2
 -13  -3   1 318.319 19.8774   4
  13  -3  -1 289.247 21.7183   3
 -13   3   1 316.610 19.5527   2
  13   3  -1 289.698 18.2360   2
  13   3  -1 306.567 20.7398   3
  11  -3  -1 12.6327 6.16646   3
 -11  -3   1 16.0417 3.33535   2
 -11  -3   1 24.8840 5.33328   4
 -11   3   1 25.7836 4.99863   2
  11   3  -1 18.2661 5.65879   3
  11   3  -1 23.7458 3.45032   2
  -9  -3   1 263.748 16.3331   4
  -9  -3   1 263.657 14.9068   2
   9  -3  -1 261.049 17.3508   3
  -9   3   1 257.490 14.5249   4
  -9   3   1 263.709 14.8343   4
   9   3  -1 259.136 14.8497   2
   9   3  -1 257.250 16.6532   3
  -9   3   1 286.963 16.1401   2
   7  -3  -1 186.365 12.1415   3
  -7  -3   1 172.303 9.86683   2
  -7  -3   1 180.470 11.5125   4
   7   3  -1 194.648 11.6862   3
  -7   3   1 178.566 11.1438   2
   7   3  -1 167.397 9.85275   2
  -7   3   1 170.371 10.3437   4
  -7   3   1 174.251 10.1044   4
  -5  -3   1 9.19484 3.23858   3
   5  -3  -1 3.72427 3.27656   3
   5  -3  -1 10.9116 2.14264   4
  -5  -3   1 11.3583 1.02402   2
  -5  -3   1 14.7822 3.30686   4
  -5   3   1 12.5083 2.86507   2
  -5   3   1 12.8604 2.27335   4
  -5   3   1 12.8066 4.02777   3
   5   3  -1 10.9802 3.67111   4
   5   3  -1 8.73881 1.05395   2
  -5   3   1 7.76206 2.75811   2
   5   3  -1 3.06193 2.57714   3
   3  -3  -1 329.382 18.1707   2
   3  -3  -1 322.723 18.2167   4
  -3  -3   1 316.688 18.7115   4
   3  -3  -1 323.258 18.7158   3
   3   3  -1 344.120 18.6898   3
   3   3  -1 327.386 18.8755   3
  -3   3   1 329.149 19.0542   3
  -3   3   1 315.949 18.2773   2
   3   3  -1 306.915 18.7968   4
   3   3  -1 331.713 17.5368   2
  -3   3   1 315.057 18.2801   4
   1  -3  -1 2517.71 135.174   2
  -1  -3   1 2574.96 135.638   4
  -1  -3   1 2551.55 135.664   3
   1  -3  -1 2496.45 135.575   3
   1  -3  -1 2540.97 135.520   4
   1   3  -1 2515.92 135.731   3
   1   3  -1 2470.42 135.611   4
   1   3  -1 2521.15 134.977   2
  -1   3   1 2546.00 135.199   2
  -1   3   1 2553.85 135.558   4
   1   3  -1 2499.44 135.006   2
  -1   3   1 2468.92 135.641   3
   1  -3   1 462.204 25.6888   4
   1  -3   1 490.023 26.1277   3
  -1  -3  -1 464.260 25.2125   2
  -1  -3  -1 483.379 25.9575   4
  -1   3  -1 454.409 25.4445   2
   1   3   1 447.150 25.7915   3
   1   3   1 455.706 25.8280   3
  -1   3  -1 461.539 25.3954   2
   1   3   1 469.411 25.2610   2
   1   3   1 451.072 26.2125   4
  -1   3  -1 456.107 25.7245   4
  -3  -3  -1 27.6296 2.49317   2
  -3  -3  -1 35.5349 4.07105   4
   3  -3   1 31.6205 2.98520   4
   3  -3   1 27.5929 4.19541   3
  -3  -3  -1 33.7875 4.02711   3
  -3   3  -1 37.7902 3.73011   2
   3   3   1 32.6215 3.69254   3
  -3   3  -1 31.9222 3.57713   2
  -3   3  -1 32.7293 3.15615   4
  -3   3  -1 31.0517 4.60499   3
   3   3   1 28.9250 2.66666   2
   3   3   1 25.3603 3.96439   4
  -5  -3  -1 318.656 19.3509   3
   5  -3   1 348.704 18.1648   4
   5  -3   1 336.044 20.2484   3
  -5  -3  -1 332.579 18.2564   2
  -5   3  -1 343.334 18.2468   4
  -5   3  -1 315.734 18.8891   2
   5   3   1 325.244 19.2388   3
   5   3   1 321.043 18.3153   2
  -5   3  -1 315.965 19.9939   3
   5   3   1 337.913 19.7238   4
  -5   3  -1 322.268 19.0011   2
   7  -3   1 70.8649 7.45376   3
  -7  -3  -1 56.4221 4.45103   2
  -7  -3  -1 58.9058 6.02922   4
  -7   3  -1 55.6283 5.98853   2
   7   3   1 57.5881 6.06303   3
   7   3   1 49.1683 4.38840   2
   9  -3   1 104.186 9.72627   3
  -9  -3  -1 91.8403 8.35072   4
  -9  -3  -1 114.763 7.67191   2
   9   3   1 112.563 8.02786   2
   9   3   1 101.028 9.18439   3
  -9   3  -1 113.224 8.83595   2
 -11  -3  -1 69.0807 7.52139   4
 -11  -3  -1 65.1309 6.24159   2
  11  -3   1 77.3670 9.09304   3
  11   3   1 76.2442 6.59586   2
 -11   3  -1 76.6653 7.49495   2
  11   3   1 77.5019 9.04562   3
  13  -3   1 117.507 12.3066   3
 -13  -3  -1 137.669 10.9328   4
 -13  -3  -1 109.137 9.22610   2
  13   3   1 133.468 12.5163   3
 -13   3  -1 129.422 11.3295   2
 -15  -3  -1 30.4309 6.21011   2
  15  -3   1 41.9996 9.60979   3
 -15  -3  -1 37.6979 7.05014   4
  15   3   1 38.6595 9.94699   3
 -15   3  -1 34.4929 7.62888   2
  17  -3   1 23.5801 9.71735   3
 -17  -3  -1 11.0773 6.65922   4
 -17  -3  -1 18.3349 6.54614   2
  17   3   1 18.8948 9.82689   3
 -17   3  -1 25.5676 7.25898   2
  19  -3   1 45.8784 12.2839   3
 -19  -3  -1 60.1863 9.19713   4
 -19  -3  -1 78.7197 9.49239   2
  19   3   1 54.0996 13.6720   3
 -19   3  -1 48.6224 9.37187   2
  21  -3   1 36.6140 13.7798   3
 -21   3  -1 21.1324 9.95831   2
  21   3   1 14.4558 13.2678   3
  23  -3   1 66.2375 15.5941   3
  23   3   1 71.0993 16.8816   3
 -23   3  -1 51.1712 11.6805   2
  24  -4  -1 -9.7368 14.1010   3
  24   4  -1 -28.391 15.3873   3
 -24   4   1 1.97955 11.7386   2
  22  -4  -1 1.18433 12.3815   3
 -22  -4   1 2.51207 9.04130   4
  22   4  -1 -0.1480 11.9716   3
 -22   4   1 8.53991 10.1927   2
 -20  -4   1 1.01569 7.77206   4
  20  -4  -1 -3.3889 10.0141   3
  20   4  -1 -15.904 10.2454   3
 -20   4   1 15.2532 7.95893   2
 -18  -4   1 2.75530 7.08119   4
  18  -4  -1 -1.0267 8.79129   3
  18   4  -1 -3.0012 9.76355   3
 -18   4   1 9.64170 6.90791   2
 -16  -4   1 100.997 10.2984   4
 -16  -4   1 93.2595 8.14901   2
  16  -4  -1 65.6012 13.1140   3
  16   4  -1 114.106 12.7251   3
 -16   4   1 94.9604 10.7444   2
  14  -4  -1 91.3314 11.1284   3
 -14  -4   1 86.4230 9.35761   4
 -14  -4   1 83.0409 6.99531   2
 -14   4   1 93.6735 9.31000   2
  14   4  -1 78.6954 10.7645   3
 -12  -4   1 27.2163 6.51596   4
  12  -4  -1 22.4814 7.88236   3
 -12  -4   1 22.0404 3.55810   2
 -12   4   1 17.4351 5.61953   2
  12   4  -1 19.9234 6.95668   3
  10  -4  -1 135.000 11.8712   3
 -10  -4   1 130.311 8.23551   2
 -10  -4   1 124.177 10.8177   4
  10   4  -1 157.351 11.7288   3
  10   4  -1 129.807 8.22294   2
 -10   4   1 162.999 11.0664   2
 -10   4   1 132.034 8.13790   4
 -10   4   1 135.345 8.65452   4
  -8  -4   1 4.37101 4.24072   4
   8  -4  -1 1.36346 4.55775   3
  -8  -4   1 4.61713 1.45938   2
  -8   4   1 0.46397 3.47120   2
   8   4  -1 4.48093 1.52837   2
  -8   4   1 5.04692 2.58707   4
   8   4  -1 5.61936 3.87185   3
  -8   4   1 3.54375 2.53858   4
   6  -4  -1 181.725 12.7939   3
   6  -4  -1 181.885 10.8376   4
  -6  -4   1 180.795 12.4094   4
  -6  -4   1 180.414 9.68493   2
  -6   4   1 165.856 10.8512   4
   6   4  -1 172.495 9.72540   2
   6   4  -1 198.138 11.9890   3
  -6   4   1 171.065 11.3399   2
  -4  -4   1 99.0039 7.99211   4
   4  -4  -1 78.6312 7.19231   3
   4  -4  -1 85.5960 6.64191   4
   4  -4  -1 94.1880 6.46304   2
  -4   4   1 87.5095 6.87993   4
  -4   4   1 104.275 8.73682   3
   4   4  -1 86.1528 5.32019   2
   4   4  -1 104.723 7.74680   3
  -4   4   1 93.8235 6.82254   2
   2  -4  -1 4.54504 2.70479   4
   2  -4  -1 6.05660 3.04291   3
  -2  -4   1 6.15764 4.01412   4
   2  -4  -1 2.98027 2.18747   2
  -2   4   1 6.69415 3.95271   3
   2   4  -1 3.77550 1.53488   2
   2   4  -1 3.07837 3.53174   4
   2   4  -1 6.84114 4.20506   3
  -2   4   1 8.19959 2.81099   2
   2   4  -1 3.40987 3.14055   3
  -2   4   1 1.18214 3.13308   4
   2   4  -1 0.91274 1.54711   2
   0  -4  -1 12.3334 3.21291   3
   0  -4  -1 16.5641 2.22209   2
   0  -4  -1 17.3082 3.41059   4
   0  -4   1 11.8676 3.29296   4
   0   4   1 12.2207 3.91016   4
   0   4  -1 12.5881 4.15670   3
   0   4  -1 10.6614 3.63117   4
   0   4   1 16.3183 4.13206   3
   0   4  -1 10.7811 2.31139   2
   0   4   1 14.7108 2.50542   2
   0   4  -1 7.24456 2.18104   2
  -2  -4  -1 584.406 31.1779   2
   2  -4   1 578.872 31.8049   4
  -2  -4  -1 573.581 32.3049   4
   2  -4   1 574.853 32.3844   3
  -2   4  -1 569.659 31.8549   4
  -2   4  -1 565.280 33.1923   3
   2   4   1 569.781 31.2335   2
  -2   4  -1 593.167 31.6759   2
   2   4   1 584.847 32.1392   3
   2   4   1 576.193 32.2765   3
  -2   4  -1 558.244 31.5481   2
   2   4   1 537.814 32.6105   4
   4  -4   1 -1.5758 3.78963   3
  -4  -4  -1 1.30843 1.61823   2
   4  -4   1 1.99308 2.25071   4
  -4  -4  -1 -0.4244 3.29060   4
   4   4   1 -0.8124 1.81240   2
   4   4   1 0.13471 2.66342   3
  -4   4  -1 4.08734 2.69993   4
  -4   4  -1 -3.1621 3.09719   2
   6  -4   1 127.818 10.3638   3
  -6  -4  -1 115.394 7.53583   2
  -6  -4  -1 139.111 9.65184   4
   6  -4   1 125.091 7.70416   4
  -6   4  -1 125.144 8.96947   2
  -6   4  -1 114.058 7.91680   4
   6   4   1 123.698 7.86271   2
   6   4   1 143.703 9.70705   3
  -8  -4  -1 231.209 13.1747   2
   8  -4   1 232.954 15.7957   3
  -8  -4  -1 218.697 14.8753   4
  -8   4  -1 224.151 12.7878   4
  -8   4  -1 220.348 12.7228   4
   8   4   1 245.547 15.3536   3
  -8   4  -1 221.434 14.8387   2
   8   4   1 232.406 13.3848   2
 -10  -4  -1 3.25113 3.06567   2
  10  -4   1 4.32596 6.47503   3
 -10  -4  -1 7.72692 5.22837   4
 -10   4  -1 -2.0107 4.68884   2
  10   4   1 -1.2186 4.67841   3
 -12  -4  -1 10.3194 3.99806   2
 -12  -4  -1 9.02484 5.38059   4
  12  -4   1 8.59465 7.74312   3
  12   4   1 11.0553 6.94963   3
 -12   4  -1 16.2688 5.71758   2
 -14  -4  -1 6.14358 4.77365   2
 -14  -4  -1 4.27684 6.40720   4
  14  -4   1 14.2619 8.86923   3
  14   4   1 4.40138 8.06116   3
 -14   4  -1 3.96275 5.80989   2
  16  -4   1 0.96648 8.07663   3
 -16  -4  -1 8.76215 5.40000   2
 -16  -4  -1 4.79959 6.03641   4
 -16   4  -1 5.15185 7.46212   2
  16   4   1 -7.8111 8.24222   3
  18  -4   1 1.13408 9.61262   3
 -18  -4  -1 9.08972 7.57960   4
 -18   4  -1 20.6078 7.84168   2
  18   4   1 1.08674 9.69525   3
  20  -4   1 -6.8616 10.1771   3
 -20  -4  -1 0.43680 8.18897   4
  20   4   1 -8.6962 11.2872   3
 -20   4  -1 1.55485 8.42624   2
  22  -4   1 7.84509 13.4032   3
 -22   4  -1 -14.300 10.2601   2
  22   4   1 4.59653 14.4934   3
  23  -5  -1 34.8799 15.2287   3
 -23  -5   1 6.92642 10.4301   4
 -23   5   1 12.1469 10.5757   2
  23   5  -1 -4.1331 15.5623   3
 -21  -5   1 88.6391 12.9962   4
  21  -5  -1 78.4129 15.8606   3
  21   5  -1 102.218 16.0111   3
 -21   5   1 88.3415 12.3354   2
  19  -5  -1 46.6516 12.3156   3
 -19  -5   1 73.2787 10.8088   4
 -19   5   1 80.5854 10.6430   2
  19   5  -1 47.3205 12.4446   3
  17  -5  -1 6.03123 8.92418   3
 -17  -5   1 0.61419 7.67396   4
 -17   5   1 1.38822 7.36914   2
  17   5  -1 -7.8064 8.58615   3
  15  -5  -1 107.299 13.2500   3
 -15  -5   1 115.607 11.5729   4
 -15   5   1 116.322 11.6180   2
  15   5  -1 102.976 12.2188   3
  13  -5  -1 1000.30 58.7629   3
 -13  -5   1 994.604 57.9481   4
 -13   5   1 1033.34 57.7219   2
  13   5  -1 1076.58 58.8961   3
 -11  -5   1 6.58350 5.69154   4
 -11  -5   1 14.5370 2.32224   2
  11  -5  -1 12.5842 6.82095   3
 -11   5   1 13.1153 3.62286   4
 -11   5   1 10.7242 5.51137   2
  11   5  -1 7.21060 6.17639   3
  -9  -5   1 -0.7406 5.75466   4
   9  -5  -1 3.69776 5.72034   3
   9   5  -1 8.22827 5.42405   3
  -9   5   1 3.75457 4.33250   2
  -9   5   1 -0.0253 3.18990   4
  -9   5   1 5.43074 3.39654   4
   7  -5  -1 608.811 36.4058   3
  -7  -5   1 620.464 36.1304   4
   7  -5  -1 645.347 34.8048   4
  -7   5   1 596.383 35.4899   2
   7   5  -1 662.132 36.2804   3
  -5  -5   1 312.325 19.6782   4
   5  -5  -1 325.743 18.7438   4
   5  -5  -1 318.593 20.0070   3
  -5   5   1 330.237 19.1363   4
   5   5  -1 316.850 17.4739   2
   5   5  -1 326.897 19.5821   3
  -5   5   1 329.201 18.9202   2
   5   5  -1 311.172 17.5079   2
   3  -5  -1 52.6633 6.10840   3
  -3  -5   1 54.3683 6.24975   4
   3  -5  -1 56.6301 5.03938   2
  -3   5   1 55.0810 6.31028   4
  -3   5   1 64.8185 5.71645   2
   3   5  -1 69.5130 6.77222   3
   3   5  -1 62.9073 4.52327   2
   3   5  -1 58.1646 4.44672   2
  -1  -5   1 2543.15 137.959   3
   1  -5  -1 2595.08 137.885   3
  -1  -5   1 2585.33 137.901   4
   1  -5  -1 2485.13 137.076   2
   1  -5  -1 2564.26 137.811   4
  -1   5   1 2497.58 137.143   2
   1   5  -1 2529.20 136.905   2
   1   5  -1 2615.14 136.994   2
  -1  -5  -1 854.540 44.6747   2
   1  -5   1 823.644 45.8612   3
  -1  -5  -1 834.064 45.7924   4
   1  -5   1 799.611 45.4715   4
   1   5   1 800.810 44.7167   2
  -1   5  -1 851.443 44.9824   2
   1   5   1 830.521 45.8504   3
  -1   5  -1 789.832 45.6488   4
  -1   5  -1 807.263 44.8822   2
  -3  -5  -1 35.8160 3.07212   2
   3  -5   1 37.6010 4.39009   4
  -3  -5  -1 25.1526 4.75792   4
   3  -5   1 25.9296 5.80057   3
  -3   5  -1 24.5123 4.10479   2
   3   5   1 30.5567 3.34194   2
  -3   5  -1 33.8539 4.99288   4
   3   5   1 31.9339 4.77310   3
   5  -5   1 623.838 34.3547   4
  -5  -5  -1 636.398 33.7221   2
   5  -5   1 643.545 35.8062   3
  -5  -5  -1 604.915 35.5949   4
   5   5   1 595.542 33.8432   2
   5   5   1 630.479 35.4039   3
  -5   5  -1 608.470 34.7884   2
  -7  -5  -1 58.6961 4.31473   2
  -7  -5  -1 54.5402 6.91245   4
   7  -5   1 53.5393 8.05472   3
   7  -5   1 54.4542 4.86307   4
   7   5   1 62.7719 7.28824   3
   7   5   1 55.7048 4.72675   2
  -7   5  -1 53.8471 6.28438   2
  -7   5  -1 51.8909 5.11720   4
  -9  -5  -1 7.17138 2.61869   2
   9  -5   1 7.56971 6.39275   3
  -9  -5  -1 0.73083 5.69979   4
  -9   5  -1 15.2654 5.38305   2
  -9   5  -1 2.63447 2.51800   4
   9   5   1 -4.7197 5.23100   3
 -11  -5  -1 212.954 16.5157   4
  11  -5   1 276.737 18.5349   3
 -11  -5  -1 232.506 14.1396   2
 -11   5  -1 225.600 16.3433   2
  11   5   1 255.340 18.0334   3
 -13  -5  -1 154.852 12.7565   4
  13  -5   1 155.156 14.2495   3
 -13  -5  -1 133.656 9.92979   2
 -13   5  -1 122.834 11.7159   2
  13   5   1 121.285 13.0263   3
 -15  -5  -1 30.8406 8.17471   4
  15  -5   1 30.7030 10.3519   3
 -15   5  -1 13.0534 7.93002   2
  15   5   1 22.7007 9.64195   3
 -17  -5  -1 30.4893 8.91910   4
  17  -5   1 21.5898 10.0143   3
 -17   5  -1 22.4614 8.95982   2
  17   5   1 23.5108 11.3955   3
  19  -5   1 134.602 16.3148   3
 -19  -5  -1 106.682 13.0616   4
 -19   5  -1 91.7655 13.4073   2
  19   5   1 130.745 17.1756   3
 -21  -5  -1 28.8624 10.8122   4
  21  -5   1 33.9418 13.4566   3
 -21   5  -1 29.8023 10.6891   2
  21   5   1 20.6707 15.0193   3
 -23   5  -1 94.6831 14.5929   2
 -22  -6   1 30.3443 12.1306   4
  22  -6  -1 36.8736 15.0075   3
 -22   6   1 38.2163 12.9085   2
  22   6  -1 21.9678 16.2856   3
  20  -6  -1 70.4024 13.3363   3
 -20  -6   1 71.6265 11.7701   4
  20   6  -1 103.787 16.5472   3
 -20   6   1 41.1467 11.5250   2
 -18  -6   1 51.3712 10.4773   4
  18  -6  -1 61.9547 12.2068   3
 -18   6   1 61.7960 10.7207   2
  18   6  -1 55.2200 12.3189   3
 -16  -6   1 123.615 12.7249   4
  16  -6  -1 94.1914 13.2987   3
  16   6  -1 105.453 13.5706   3
 -16   6   1 105.417 11.8593   2
 -14  -6   1 174.187 15.9563   4
  14  -6  -1 214.925 17.8919   3
  14   6  -1 204.352 17.0895   3
 -14   6   1 200.355 15.8183   2
  12  -6  -1 255.460 20.0971   3
 -12  -6   1 277.596 18.9522   4
  12   6  -1 246.802 19.3663   3
 -12   6   1 259.530 17.9750   2
  10  -6  -1 15.5721 7.83974   3
 -10  -6   1 12.4037 6.72274   4
 -10   6   1 13.0087 4.41358   4
 -10   6   1 9.56191 6.21942   2
  10   6  -1 10.4019 6.18530   3
   8  -6  -1 419.013 23.6205   4
  -8  -6   1 396.052 25.2137   4
   8  -6  -1 383.925 25.3892   3
   8   6  -1 400.637 25.1368   3
  -8   6   1 428.370 24.5433   2
   6  -6  -1 160.347 11.6655   4
  -6  -6   1 177.674 13.6502   4
   6  -6  -1 151.407 13.0488   3
   6   6  -1 167.866 9.55122   2
  -6   6   1 179.196 11.9445   2
   6   6  -1 193.045 12.9919   3
   6   6  -1 169.142 9.65665   2
  -4  -6   1 22.9845 6.01287   4
   4  -6  -1 30.7490 5.69587   3
   4  -6  -1 18.2509 4.73152   4
   4   6  -1 19.7352 3.00842   2
   4   6  -1 25.0112 5.49756   3
   4   6  -1 30.6370 3.04864   2
  -4   6   1 20.9176 4.74992   2
   2  -6  -1 1314.81 68.5187   2
  -2  -6   1 1252.03 69.5060   4
   2  -6  -1 1221.86 69.1579   4
   2  -6  -1 1269.48 69.4631   3
   2   6  -1 1230.17 68.0880   2
   2   6  -1 1259.66 69.7804   3
   2   6  -1 1269.76 68.1349   2
   0  -6  -1 2482.18 131.169   4
   0  -6  -1 2405.98 130.017   2
   0  -6   1 2421.72 131.232   3
   0  -6   1 2512.80 131.089   4
   0   6  -1 2423.05 130.123   2
   0   6   1 2350.66 130.110   2
   0   6   1 2393.33 131.305   3
   0   6  -1 2357.23 130.045   2
  -2  -6  -1 2.70051 2.36226   2
   2  -6   1 -1.6571 3.90721   4
   2  -6   1 0.27290 4.78482   3
  -2  -6  -1 11.7324 5.28375   4
   2   6   1 -0.4637 4.01009   3
  -2   6  -1 1.93442 3.59546   2
   2   6   1 3.28049 3.50572   2
  -4  -6  -1 326.816 20.4367   4
  -4  -6  -1 324.961 18.1317   2
   4  -6   1 326.061 19.3244   4
   4  -6   1 316.116 20.5766   3
  -4   6  -1 324.140 19.5357   2
   4   6   1 349.754 20.5203   3
   4   6   1 304.879 18.4151   2
  -6  -6  -1 347.133 19.6755   2
   6  -6   1 332.009 22.5853   3
  -6  -6  -1 368.578 22.4019   4
   6  -6   1 366.125 20.7803   4
   6   6   1 347.032 21.9892   3
  -6   6  -1 378.034 21.7519   2
  -6   6  -1 342.750 21.1990   4
   8  -6   1 61.4524 6.10160   4
   8  -6   1 87.6699 9.83401   3
  -8  -6  -1 80.8214 9.17973   4
  -8  -6  -1 72.9037 5.13847   2
   8   6   1 65.1556 8.26726   3
  -8   6  -1 72.3600 8.22862   2
 -10  -6  -1 105.384 11.6333   4
  10  -6   1 91.7749 11.6457   3
  10   6   1 116.519 11.4364   3
 -10   6  -1 106.942 10.3288   2
 -12  -6  -1 257.668 19.0502   4
  12  -6   1 274.488 20.3116   3
  12   6   1 281.365 20.5200   3
  14  -6   1 38.9727 9.65748   3
 -14  -6  -1 38.4583 8.65938   4
  14   6   1 37.3078 9.98757   3
 -14   6  -1 28.4803 8.28794   2
 -16  -6  -1 25.2895 9.10936   4
  16  -6   1 5.44365 9.63137   3
  16   6   1 6.63531 9.50386   3
 -16   6  -1 34.4742 9.68668   2
 -18  -6  -1 65.0114 11.6607   4
  18  -6   1 75.1811 14.6474   3
  18   6   1 70.5837 14.7599   3
 -18   6  -1 70.7097 12.2900   2
  20  -6   1 43.7130 13.5404   3
 -20  -6  -1 47.0352 11.4983   4
  20   6   1 30.0790 15.2528   3
 -20   6  -1 48.7068 12.3361   2
 -21  -7   1 14.6790 12.2565   4
  21  -7  -1 25.7419 15.6069   3
  21   7  -1 24.8088 14.7284   3
 -19  -7   1 -4.9446 9.87624   4
  19  -7  -1 -3.4989 12.0892   3
 -19   7   1 5.91532 9.53953   2
  19   7  -1 -3.5278 11.8567   3
  17  -7  -1 5.39624 9.43470   3
 -17  -7   1 -1.5600 9.02884   4
  17   7  -1 -9.2902 9.86094   3
 -17   7   1 -3.3933 9.64474   2
 -15  -7   1 65.8606 10.5261   4
  15  -7  -1 54.8796 11.2793   3
 -15   7   1 57.1030 9.97853   2
  15   7  -1 60.3987 11.9363   3
 -13  -7   1 47.9633 10.0093   4
  13  -7  -1 52.9958 10.8916   3
  13   7  -1 62.9839 10.4070   3
 -13   7   1 46.9774 9.40288   2
 -11  -7   1 11.7862 7.29003   4
 -11   7   1 41.0660 8.47386   2
  11   7  -1 18.7427 7.46676   3
  -9  -7   1 -3.8005 6.30194   4
   9  -7  -1 12.8120 7.16521   3
   9  -7  -1 3.16449 4.59849   4
  -9   7   1 1.84368 5.65609   2
   9   7  -1 -2.1636 6.73638   3
   7  -7  -1 22.5566 5.51508   4
  -7  -7   1 38.0419 8.11273   4
   7  -7  -1 25.2431 7.03200   3
  -7   7   1 13.6141 5.93214   2
   7   7  -1 21.6216 6.40178   3
   5  -7  -1 102.202 9.14719   4
   5  -7  -1 80.4081 9.88151   3
  -5  -7   1 95.2965 10.2020   4
   5   7  -1 128.736 11.0619   3
  -5   7   1 99.3506 9.02314   2
   5   7  -1 110.080 7.01372   2
  -3  -7   1 53.2256 7.69250   4
   3  -7  -1 61.7181 7.81969   3
   3  -7  -1 54.9588 7.16210   4
   3   7  -1 62.2522 5.24033   2
   3   7  -1 42.3577 7.33253   3
  -3   7   1 68.9795 6.81854   2
  -1  -7   1 97.8509 9.47708   4
   1  -7  -1 94.5890 9.65215   4
   1  -7  -1 101.609 9.94756   3
   1   7  -1 98.5685 7.51356   2
  -1   7   1 83.8841 7.83937   2
   1   7  -1 117.592 10.6628   3
   1  -7   1 200.465 13.8878   4
  -1  -7  -1 174.536 13.6613   4
   1  -7   1 170.768 14.4554   3
  -1  -7  -1 188.940 11.7710   2
   1   7   1 180.366 14.4373   3
  -1   7  -1 193.280 12.6005   2
  -3  -7  -1 98.7585 10.4030   4
   3  -7   1 94.8317 10.6903   3
   3  -7   1 105.744 9.27302   4
  -3  -7  -1 104.333 7.58674   2
  -3   7  -1 109.582 9.05199   2
   3   7   1 123.423 10.3817   3
   5  -7   1 0.25030 6.07253   3
  -5  -7  -1 23.7912 7.29867   4
  -5  -7  -1 8.27717 2.69791   2
   5  -7   1 9.44745 4.82482   4
   5   7   1 16.6157 6.25124   3
  -5   7  -1 5.09365 5.32016   2
   7  -7   1 7.98667 6.65348   3
  -7  -7  -1 9.73556 6.82172   4
   7  -7   1 11.7723 4.76767   4
   7   7   1 6.47615 6.46526   3
  -7   7  -1 14.7920 5.73912   2
   9  -7   1 75.0782 10.5341   3
   9   7   1 73.9325 9.54891   3
  -9   7  -1 57.7261 8.28799   2
  11  -7   1 92.5304 12.0790   3
 -11  -7  -1 71.9833 10.1538   4
 -11   7  -1 91.4697 10.7624   2
  11   7   1 75.9811 10.5296   3
  13  -7   1 17.1009 9.16506   3
 -13  -7  -1 2.24173 7.53432   4
 -13   7  -1 7.60407 7.23867   2
  13   7   1 14.2836 8.64715   3
  15  -7   1 6.64844 10.2652   3
 -15  -7  -1 -2.6529 8.65880   4
  15   7   1 -3.8347 9.32280   3
 -15   7  -1 -10.697 8.20850   2
 -17  -7  -1 4.46152 9.78306   4
  17  -7   1 18.3340 10.6397   3
 -17   7  -1 4.35912 8.95159   2
  17   7   1 3.58471 12.0223   3
  19  -7   1 26.0932 13.7841   3
 -19  -7  -1 43.9208 12.2415   4
 -19   7  -1 45.9934 11.5567   2
  19   7   1 33.1268 14.1040   3
  18  -8  -1 15.1079 12.6586   3
 -18  -8   1 -2.4190 11.0676   4
  18   8  -1 -12.374 11.6304   3
 -18   8   1 8.41513 9.93112   2
 -16  -8   1 1.89404 9.25358   4
  16  -8  -1 -4.2188 10.8204   3
 -16   8   1 11.7547 9.61984   2
  16   8  -1 23.3162 10.8949   3
  14  -8  -1 39.5582 11.7606   3
 -14  -8   1 43.3301 10.9498   4
 -14   8   1 51.4216 11.0514   2
  14   8  -1 60.5093 11.4099   3
  12  -8  -1 -0.5588 8.13629   3
 -12  -8   1 6.66554 7.73001   4
  12   8  -1 0.92121 8.76590   3
 -12   8   1 -5.0224 7.89560   2
  10  -8  -1 102.813 12.6567   3
 -10  -8   1 102.014 11.8517   4
  10   8  -1 114.115 12.6780   3
 -10   8   1 112.677 11.6861   2
   8  -8  -1 27.5100 8.58362   3
   8  -8  -1 15.6424 6.04770   4
  -8  -8   1 18.1223 8.48252   4
  -8   8   1 28.7629 7.32511   2
   8   8  -1 25.8679 7.74130   3
   6  -8  -1 37.5001 8.00490   3
   6  -8  -1 35.4759 6.76718   4
   6   8  -1 24.9333 7.54159   3
  -6   8   1 46.7752 7.12479   2
   4  -8  -1 25.0850 7.85780   3
  -4  -8   1 36.7329 8.39307   4
   4  -8  -1 40.7401 7.04696   4
   4   8  -1 35.0258 8.20784   3
  -4   8   1 38.5783 6.56942   2
   2  -8  -1 37.8511 6.73671   4
   2  -8  -1 43.0917 8.07739   3
  -2  -8   1 36.7887 7.68598   4
  -2   8   1 35.2652 6.11905   2
   2   8  -1 37.0269 5.19045   2
   2   8  -1 24.5941 7.52375   3
   0  -8  -1 340.855 22.6285   4
   0  -8   1 341.581 22.4889   4
   0   8  -1 348.258 20.7359   2
   0   8   1 332.706 20.6334   2
   0   8  -1 342.950 23.4379   3
   0   8   1 370.595 23.3837   3
   2  -8   1 3.91365 6.48966   3
   2  -8   1 7.48864 5.84683   4
  -2  -8  -1 3.86282 6.27305   4
   2   8   1 -3.3630 6.51074   3
  -2   8  -1 -3.2886 4.69212   2
   2   8   1 4.57218 4.33783   2
  -4  -8  -1 5.76722 6.55297   4
   4  -8   1 3.85495 5.42050   4
   4  -8   1 -4.2895 6.44825   3
  -4   8  -1 1.97483 5.53826   2
   4   8   1 16.2712 7.11707   3
   6  -8   1 16.0065 7.99674   3
   6  -8   1 0.23632 5.23397   4
  -6  -8  -1 11.5847 7.50162   4
  -6   8  -1 14.4113 6.54664   2
   6   8   1 6.45431 7.05251   3
   8  -8   1 14.9645 8.44199   3
  -8  -8  -1 13.0287 7.45291   4
   8   8   1 7.91302 7.52694   3
  -8   8  -1 23.5290 6.82888   2
 -10  -8  -1 15.6298 7.93201   4
  10  -8   1 19.6906 8.53328   3
 -10   8  -1 4.05344 7.70081   2
  10   8   1 11.1365 8.65411   3
  12  -8   1 5.81409 9.28865   3
 -12  -8  -1 10.8026 9.23833   4
  12   8   1 3.62422 9.26188   3
 -12   8  -1 7.68094 8.48594   2
  14  -8   1 8.02238 10.8255   3
 -14  -8  -1 2.24457 9.54952   4
 -14   8  -1 -2.5202 7.99616   2
  14   8   1 -8.4303 10.2545   3
  16  -8   1 0.52444 11.3442   3
 -16  -8  -1 -10.406 9.12941   4
 -16   8  -1 10.0445 9.72980   2
  16   8   1 -7.4010 10.9300   3
  18  -8   1 17.0845 12.7685   3
 -18  -8  -1 8.80418 11.4766   4
  18   8   1 8.10037 12.9475   3
 -18   8  -1 8.57178 11.5022   2
 -17  -9   1 59.7188 13.2665   4
  17  -9  -1 83.2403 14.5357   3
 -17   9   1 24.2840 12.1504   2
  17   9  -1 58.0527 14.4975   3
 -15  -9   1 40.7990 12.4029   4
  15  -9  -1 55.1983 13.3518   3
 -15   9   1 46.2766 11.5528   2
  15   9  -1 32.4191 12.5089   3
  13  -9  -1 88.0258 12.8307   3
 -13  -9   1 94.6189 12.5702   4
 -13   9   1 62.9132 11.9988   2
  13   9  -1 62.0295 12.3552   3
 -11  -9   1 88.3033 12.1922   4
  11  -9  -1 91.1807 12.5106   3
  11   9  -1 85.8214 13.7626   3
 -11   9   1 103.579 12.6556   2
  -9  -9   1 36.4106 9.21738   4
   9  -9  -1 27.3239 9.43379   3
   9   9  -1 24.4985 10.0033   3
  -9   9   1 25.4851 8.46162   2
   7  -9  -1 129.146 11.5573   4
   7  -9  -1 129.345 13.5803   3
  -7  -9   1 133.889 13.7756   4
  -7   9   1 85.5929 10.9669   2
   7   9  -1 103.850 12.6622   3
  -5  -9   1 7.87695 8.18433   4
   5  -9  -1 15.0723 7.02463   4
   5  -9  -1 0.30915 7.88019   3
   5   9  -1 -1.5359 7.14208   3
  -5   9   1 -0.8165 6.39880   2
   3  -9  -1 44.1453 8.11540   4
  -3  -9   1 51.6231 8.89765   4
   3  -9  -1 42.0271 8.97184   3
   3   9  -1 27.6439 8.35629   3
  -3   9   1 37.2795 7.30829   2
   1  -9  -1 741.621 44.3642   4
  -1  -9   1 759.938 44.6521   4
  -1   9   1 752.037 45.4383   3
   1   9  -1 783.283 45.4779   3
  -1   9   1 772.344 43.0663   2
   1  -9   1 91.9759 10.8637   4
  -1  -9  -1 103.590 11.3120   4
  -1   9  -1 97.9824 9.19794   2
   1   9   1 111.318 12.7274   3
  -1   9  -1 94.1284 12.2818   3
  -3  -9  -1 33.2685 8.14678   4
   3  -9   1 9.62504 8.31792   3
   3  -9   1 25.3030 7.37637   4
  -3   9  -1 37.6118 7.13899   2
   3   9   1 33.6329 8.30188   3
   5  -9   1 112.981 10.7490   4
  -5  -9  -1 87.4000 11.5720   4
   5  -9   1 105.467 12.7134   3
   5   9   1 118.475 12.9698   3
  -5   9  -1 108.995 10.8517   2
  -7  -9  -1 139.020 14.1221   4
   7  -9   1 121.608 13.2931   3
  -7   9  -1 106.242 11.7328   2
   7   9   1 118.460 13.7155   3
   9  -9   1 4.77363 8.43382   3
  -9  -9  -1 19.9364 9.44662   4
  -9   9  -1 1.10937 7.85765   2
   9   9   1 17.9273 9.89473   3
  11  -9   1 42.0217 10.8365   3
 -11  -9  -1 44.6403 11.0370   4
 -11   9  -1 75.4331 11.2970   2
  11   9   1 61.2610 11.9189   3
  13  -9   1 40.5439 12.5499   3
 -13  -9  -1 41.2041 11.2411   4
  13   9   1 62.0740 13.5907   3
 -13   9  -1 68.0951 11.8551   2
 -15  -9  -1 23.0917 10.8836   4
  15  -9   1 18.9338 12.2417   3
 -15   9  -1 16.4999 10.4289   2
  15   9   1 3.88729 11.5199   3
 -17   9  -1 33.4457 20.2693   2
  14 -10  -1 64.9243 14.2433   3
 -14 -10   1 58.5823 13.0463   4
  14  10  -1 51.4679 13.6134   3
 -14  10   1 75.0877 13.7077   2
  12 -10  -1 47.0159 12.7938   3
 -12 -10   1 87.1424 13.9572   4
 -12  10   1 44.1451 11.0899   2
  12  10  -1 87.0709 15.0714   3
 -10 -10   1 17.3484 9.85396   4
  10 -10  -1 38.7784 11.6791   3
 -10  10   1 22.9680 9.67529   2
  10  10  -1 24.1707 11.9649   3
  -8 -10   1 8.79306 9.20106   4
   8 -10  -1 8.97292 8.75536   3
   8  10  -1 5.33704 9.41672   3
  -8  10   1 6.34581 8.67012   2
   6 -10  -1 52.9924 10.8391   3
   6 -10  -1 77.4056 10.2436   4
  -6 -10   1 72.5864 11.4707   4
  -6  10   1 71.3309 11.6072   2
   6  10  -1 62.4246 11.4602   3
   4 -10  -1 90.5534 12.2134   3
   4 -10  -1 72.8931 11.7597   4
  -4 -10   1 94.5730 12.5180   4
   4  10  -1 92.0091 13.1974   3
  -4  10   1 92.6875 10.6307   2
  -2 -10   1 66.2808 10.7736   4
   2 -10  -1 57.6605 10.1121   4
   2  10  -1 53.6862 11.7225   3
  -2  10   1 36.6756 10.8240   3
   0 -10   1 176.641 14.7598   4
   0 -10  -1 154.523 14.5551   4
   0  10   1 183.973 16.9744   3
   0  10  -1 133.998 15.6094   3
   2 -10   1 144.812 13.3071   4
  -2 -10  -1 127.237 13.9567   4
   2  10   1 163.912 15.6203   3
  -2  10  -1 109.091 14.1783   3
  -4 -10  -1 41.3994 9.90874   4
   4 -10   1 39.9824 8.90332   4
   4 -10   1 43.9970 10.6434   3
   4  10   1 33.4047 9.75583   3
  -4  10  -1 43.4208 8.83792   2
   6 -10   1 -6.7634 8.04029   3
  -6 -10  -1 -3.3380 8.40037   4
   6  10   1 4.95242 9.27952   3
  -6  10  -1 -4.9194 8.15097   2
  -8 -10  -1 58.3820 10.9890   4
   8 -10   1 37.5899 10.8713   3
  -8  10  -1 38.3959 10.1591   2
   8  10   1 44.3767 10.9208   3
  10 -10   1 75.7596 13.7278   3
 -10 -10  -1 71.9665 12.8968   4
 -10  10  -1 81.1466 12.5212   2
  10  10   1 74.9180 13.9799   3
  12 -10   1 21.9379 12.0454   3
 -12 -10  -1 20.5290 10.7175   4
  12  10   1 16.8771 12.8307   3
 -12  10  -1 12.8299 10.7172   2
  14 -10   1 17.3424 13.2949   3
  14  10   1 8.31539 12.6242   3
 -14  10  -1 8.55285 11.9837   2
  11 -11  -1 18.9128 11.6122   3
 -11  11   1 16.0242 11.3749   2
  11  11  -1 22.0429 14.5179   3
  -9 -11   1 5.77475 11.8374   4
   9 -11  -1 28.8562 11.9283   3
  -9  11   1 5.40834 10.4537   2
   9  11  -1 4.64862 12.4988   3
   7 -11  -1 9.20829 10.6693   3
  -7 -11   1 4.37930 9.90659   4
   7  11  -1 4.94096 10.5112   3
  -7  11   1 -3.3553 9.69884   2
   5 -11  -1 0.29798 8.74884   4
  -5 -11   1 -4.1146 10.2341   4
   5 -11  -1 -11.534 9.52356   3
   5  11  -1 -2.7618 9.94426   3
   3 -11  -1 50.9378 11.1629   4
  -3 -11   1 44.0076 10.6390   4
   3  11  -1 55.8261 12.0219   3
  -3  11   1 68.5901 13.7524   3
  -1 -11   1 32.6685 10.5568   4
   1 -11  -1 64.4348 11.5085   4
   1  11  -1 53.7062 13.3971   3
  -1  11   1 39.8931 12.0197   3
   1 -11   1 8.65513 9.03906   4
  -1 -11  -1 -1.2614 9.64654   4
   1  11   1 0.23445 9.62412   3
  -1  11  -1 0.15162 10.1761   3
   3 -11   1 -4.1899 9.08140   4
  -3 -11  -1 7.34843 9.90071   4
  -3  11  -1 0.90133 10.2523   3
   3  11   1 4.09044 9.74308   3
  -5 -11  -1 15.4793 9.90760   4
   5 -11   1 1.77930 9.17250   3
   5  11   1 -1.5545 11.0457   3
   7 -11   1 17.0038 11.7557   3
  -7 -11  -1 13.2300 11.4915   4
   7  11   1 13.3753 12.3716   3
  -9 -11  -1 14.9450 10.8548   4
   9 -11   1 16.3266 10.9588   3
  -9  11  -1 8.73831 10.9757   2
   9  11   1 18.1576 13.5279   3
  -4 -12   1 0.20098 10.2783   4
  -4  12   1 2.20678 13.1450   3
   4  12  -1 2.58891 12.3022   3
   2 -12  -1 0.07592 11.2773   4
  -2 -12   1 7.14753 10.3223   4
  -2  12   1 14.2688 13.8328   3
   2  12  -1 10.8076 12.0094   3
   0 -12   1 11.2556 11.3156   4
   0 -12  -1 20.3725 11.5138   4
   0  12   1 10.8993 13.3562   3
   0  12  -1 6.73065 13.4141   3
  -2 -12  -1 12.4128 10.5360   4
   2 -12   1 18.9833 11.6638   4
   2  12   1 1.65084 13.1865   3
  -2  12  -1 18.1632 12.4702   3
  -4 -12  -1 -6.1472 11.6133   4
  -4  12  -1 6.47977 13.9070   3
   4  12   1 0.27626 11.6172   3
 -26   0   2 170.133 17.1697   2
  26   0  -2 152.562 23.3420   3
  24   0  -2 49.9513 14.2953   3
 -24   0   2 35.4663 10.2712   2
 -22   0   2 13.4194 8.12575   2
  22   0  -2 7.36831 12.3634   3
  20   0  -2 219.170 19.5446   3
 -20   0   2 245.915 17.5252   2
 -18   0   2 814.411 45.2792   4
 -18   0   2 838.732 46.2341   2
  18   0  -2 769.749 47.9403   3
  16   0  -2 238.735 18.4211   3
 -16   0   2 239.611 16.1453   2
 -14   0   2 1342.81 68.2400   2
  14   0  -2 1254.01 69.4681   3
 -14   0   2 1241.21 67.6967   4
  14   0  -2 1137.40 68.0332   4
 -12   0   2 1433.99 77.6047   4
 -12   0   2 1434.17 77.8157   2
  12   0  -2 1422.22 78.9195   3
 -10   0   2 92.3107 7.18584   2
  10   0  -2 108.036 8.84372   3
  10   0  -2 108.210 8.04036   4
 -10   0   2 85.9376 7.16747   4
 -10   0   2 111.689 7.17221   2
  -8   0   2 1899.32 101.672   4
  -8   0   2 1964.89 101.717   2
   8   0  -2 1850.88 101.779   4
  -8   0   2 1885.25 101.566   2
   8   0  -2 1872.12 102.306   3
  -8   0   2 1854.94 102.246   3
   6   0  -2 224.324 13.4778   3
  -6   0   2 224.417 12.8102   2
  -6   0   2 235.070 13.4125   3
   6   0  -2 221.449 12.7770   2
   6   0  -2 233.157 13.3880   4
  -6   0   2 214.922 13.1632   4
   4   0  -2 305.498 17.5054   3
   4   0  -2 329.601 17.2350   2
  -4   0   2 309.988 17.5512   4
  -4   0   2 311.591 17.2090   2
  -4   0   2 315.612 17.5246   3
   4   0  -2 316.527 17.6127   4
  -2   0   2 3248.61 174.128   1
   0   0  -2 1885.84 101.524   4
   0   0  -2 1902.13 101.328   3
   2   0   2 8.88183 1.70320   3
   2   0   2 12.2012 1.62943   2
  -2   0  -2 8.68404 1.73256   3
  -2   0  -2 13.2750 1.77835   2
  -2   0  -2 9.34142 1.43699   4
   4   0   2 7050.64 377.726   1
  -4   0  -2 7026.39 377.748   1
   6   0   2 1870.31 98.7041   3
   6   0   2 1683.25 97.7818   4
   6   0   2 1822.81 98.1786   2
  -6   0  -2 1822.88 98.6897   3
  -6   0  -2 1877.09 97.8266   4
  -6   0  -2 1859.33 98.2130   2
   8   0   2 132.015 8.96576   2
   8   0   2 133.541 8.17895   4
  -8   0  -2 136.549 9.32530   2
  -8   0  -2 119.353 7.98753   4
   8   0   2 124.713 10.0069   3
  10   0   2 1884.65 103.836   3
 -10   0  -2 1911.14 103.014   2
 -10   0  -2 1920.74 102.301   4
  10   0   2 1879.91 102.393   4
  12   0   2 569.366 33.0911   4
 -12   0  -2 563.635 33.6665   2
 -12   0  -2 612.566 32.9289   4
  12   0   2 630.636 35.0001   3
  14   0   2 204.875 16.9212   3
 -14   0  -2 217.736 13.3252   4
 -14   0  -2 196.959 14.9180   2
 -16   0  -2 340.661 22.7943   2
 -16   0  -2 362.213 21.2004   4
  16   0   2 373.469 25.7312   3
 -18   0  -2 135.532 13.6050   2
  18   0   2 119.247 14.6205   3
 -20   0  -2 153.060 14.0960   2
  20   0   2 138.121 16.7999   3
 -22   0  -2 233.446 18.4310   2
  22   0   2 182.747 20.7420   3
  24   0   2 81.2976 18.5247   3
 -24   0  -2 51.6988 13.0411   2
 -25  -1   2 -2.5382 9.70574   2
  25  -1  -2 -10.698 14.7415   3
 -25   1   2 -0.4717 9.82480   2
  25   1  -2 -0.3248 15.2423   3
 -23  -1   2 70.6040 11.2889   2
  23  -1  -2 115.890 17.1085   3
 -23   1   2 106.466 13.0091   2
  21  -1  -2 50.6866 13.7936   3
 -21  -1   2 72.4899 9.58956   2
 -21   1   2 69.8342 10.0596   2
  21   1  -2 81.9373 12.9642   3
 -19  -1   2 42.5411 7.22944   2
 -19  -1   2 37.3735 6.62281   4
  19  -1  -2 28.8705 10.6678   3
 -19   1   2 43.5758 7.51962   2
  19   1  -2 21.5433 9.59423   3
 -17  -1   2 242.930 17.5153   2
  17  -1  -2 263.151 20.9135   3
 -17  -1   2 286.181 17.7966   4
  17   1  -2 309.666 21.1044   3
 -17   1   2 260.635 16.4376   4
 -17   1   2 289.087 18.4895   2
  15  -1  -2 973.172 55.6930   3
 -15  -1   2 984.924 53.8079   2
 -15  -1   2 995.684 53.8599   4
  15   1  -2 936.162 55.5312   3
 -15   1   2 966.224 53.0848   4
 -15   1   2 966.357 54.1192   2
 -13  -1   2 93.9739 8.26577   4
  13  -1  -2 95.8756 8.27973   4
  13  -1  -2 137.087 11.6530   3
 -13  -1   2 115.154 8.25224   2
 -13   1   2 99.9293 7.43605   4
  13   1  -2 111.073 10.4208   3
 -13   1   2 97.3514 8.53230   2
  13   1  -2 92.3213 9.19313   4
 -11  -1   2 19.3737 3.70233   2
  11  -1  -2 21.5369 4.25154   4
 -11  -1   2 34.5940 4.60253   4
 -11  -1   2 25.7440 3.75818   2
  11  -1  -2 23.4831 5.53008   3
  11   1  -2 30.2908 5.65029   3
 -11   1   2 28.4704 4.15478   2
 -11   1   2 31.2118 3.50948   4
  11   1  -2 30.2591 5.18955   4
   9  -1  -2 428.473 25.9153   3
  -9  -1   2 434.850 24.1630   2
  -9  -1   2 433.287 24.2640   2
   9  -1  -2 437.187 24.4459   4
  -9  -1   2 436.805 25.7130   3
  -9  -1   2 442.530 24.7393   4
  -9   1   2 454.035 24.6331   2
  -9   1   2 465.393 24.9151   2
  -9   1   2 407.345 25.6140   3
  -9   1   2 447.822 24.2175   4
   9   1  -2 404.366 25.3146   4
   9   1  -2 430.951 25.2891   3
  -7  -1   2 411.804 21.5782   2
   7  -1  -2 387.479 21.8674   4
  -7  -1   2 395.819 22.1945   4
  -7  -1   2 409.009 21.6370   2
  -7  -1   2 386.926 22.3434   3
   7  -1  -2 376.483 22.6263   3
   7   1  -2 395.013 22.3290   4
  -7   1   2 415.033 21.9056   4
  -7   1   2 326.602 24.4141   3
   7   1  -2 400.814 22.5562   3
  -7   1   2 370.908 21.9773   2
  -5  -1   2 427.401 23.1687   2
  -5  -1   2 408.905 23.7785   3
  -5  -1   2 437.468 23.2517   2
   5  -1  -2 434.547 23.6053   2
   5  -1  -2 419.018 23.9389   3
  -5  -1   2 432.676 23.8596   4
  -5   1   2 445.275 23.7074   4
  -5   1   2 421.063 23.5391   2
  -5   1   2 442.586 23.9670   3
   5   1  -2 429.538 23.8533   3
   5   1  -2 406.816 23.8626   4
  -3  -1   2 54.7580 4.20556   4
   3  -1  -2 52.4312 3.66489   2
   3  -1  -2 50.8192 3.89676   4
  -3  -1   2 57.2462 3.29324   2
  -3  -1   2 53.9682 3.93629   3
   3  -1  -2 54.6525 4.00343   3
   3   1  -2 47.6430 4.18305   4
  -3   1   2 58.4929 3.74912   2
  -3   1   2 61.6457 4.05261   4
   3   1  -2 60.8040 3.28682   2
   3   1  -2 59.2911 3.84116   3
  -3   1   2 61.7221 4.04052   3
  -1  -1   2 725.999 39.5456   4
   1  -1  -2 759.713 39.4572   2
   1  -1  -2 730.333 39.2398   3
   1   1  -2 731.220 39.2746   2
  -1   1   2 725.600 39.3754   2
  -1   1   2 712.327 39.5049   4
  -1   1   2 738.808 39.2586   3
   1   1  -2 719.502 39.5597   4
   1   1  -2 733.611 39.4883   3
   1  -1   2 597.296 33.1787   3
  -1  -1  -2 632.591 32.9523   2
   1  -1   2 614.002 33.0166   2
  -1  -1  -2 612.023 33.1098   4
   1   1   2 595.978 32.9253   3
  -1   1  -2 622.935 33.0154   2
   1   1   2 612.945 33.1068   4
  -1   1  -2 606.822 32.9843   4
   1   1   2 595.817 32.9388   2
  -1   1  -2 601.761 33.1993   3
  -3  -1  -2 732.177 39.2153   2
  -3  -1  -2 718.298 39.4045   3
  -3  -1  -2 724.025 39.3445   4
   3  -1   2 734.156 39.7119   3
   3  -1   2 718.696 39.3284   2
   3  -1   2 727.669 38.9542   4
  -3   1  -2 701.485 39.6609   3
   3   1   2 726.869 39.2155   2
   3   1   2 713.312 39.4257   3
  -3   1  -2 737.330 38.8910   4
  -3   1  -2 714.238 39.3684   2
   3   1   2 721.224 39.3530   4
  -5  -1  -2 270.543 15.6318   4
   5  -1   2 254.638 15.6974   2
  -5  -1  -2 294.411 15.6445   2
   5  -1   2 264.746 14.8559   4
  -5  -1  -2 259.719 16.0830   3
   5  -1   2 281.631 16.4804   3
   5   1   2 270.364 15.6935   4
  -5   1  -2 291.119 15.8286   2
   5   1   2 273.992 16.0850   3
   5   1   2 276.907 15.5871   2
   7  -1   2 684.576 37.7548   2
  -7  -1  -2 664.840 37.5143   2
   7  -1   2 736.941 39.2519   3
   7  -1   2 682.573 36.8055   4
  -7  -1  -2 677.573 38.2508   3
  -7  -1  -2 694.421 37.5137   4
   7   1   2 686.424 37.5851   4
  -7   1  -2 655.124 38.4045   3
   7   1   2 688.762 38.3413   3
   7   1   2 663.412 37.4735   2
   9  -1   2 750.754 40.9443   4
  -9  -1  -2 797.606 41.9089   2
  -9  -1  -2 748.489 41.6952   4
   9  -1   2 737.636 42.8757   3
   9   1   2 740.143 41.8523   4
   9   1   2 769.976 42.7993   3
   9   1   2 734.716 41.7458   2
  -9   1  -2 741.327 42.0380   2
  -9   1  -2 784.056 40.9218   4
  11  -1   2 3.76244 6.76670   3
 -11  -1  -2 0.08026 3.34177   4
  11  -1   2 4.25171 2.63007   4
 -11  -1  -2 1.22847 3.83431   2
 -11   1  -2 1.43184 4.41342   2
  11   1   2 5.08311 6.15851   3
 -11   1  -2 2.41656 2.12307   4
  11   1   2 7.39644 4.46225   4
  13  -1   2 6.47635 7.68554   3
 -13  -1  -2 3.22025 4.70631   2
 -13  -1  -2 3.40117 4.08024   4
 -13   1  -2 5.45878 4.89830   2
  13   1   2 7.98683 7.40481   3
 -13   1  -2 4.32912 2.67487   4
 -15  -1  -2 121.694 9.49890   4
 -15  -1  -2 119.665 10.4322   2
  15  -1   2 107.143 13.5255   3
  15   1   2 93.3598 12.5852   3
 -15   1  -2 112.916 10.9632   2
 -17  -1  -2 222.845 15.8220   4
  17  -1   2 232.917 19.8189   3
 -17  -1  -2 258.595 17.2900   2
 -17   1  -2 262.322 17.8711   2
  17   1   2 215.301 19.1614   3
  19  -1   2 67.5992 13.6650   3
 -19   1  -2 52.1417 9.43529   2
  19   1   2 67.4349 12.3754   3
  21  -1   2 28.8475 13.3721   3
 -21  -1  -2 17.0746 8.63824   2
  21   1   2 12.4313 12.4804   3
 -21   1  -2 12.6798 9.51912   2
 -23  -1  -2 57.7413 12.3444   2
  23  -1   2 65.4926 15.3757   3
 -23   1  -2 50.1401 11.3420   2
  23   1   2 55.1514 17.0152   3
  26  -2  -2 -5.1028 14.7384   3
 -26   2   2 -14.185 11.2591   2
  24  -2  -2 -11.431 13.0094   3
  24   2  -2 -1.1766 12.3328   3
 -24   2   2 8.28558 9.26871   2
 -22  -2   2 31.5596 8.16984   2
  22  -2  -2 37.8667 12.5475   3
 -22   2   2 29.5509 8.97904   2
  22   2  -2 28.1908 12.9218   3
 -20  -2   2 8.26815 6.58951   2
  20  -2  -2 6.99444 9.50751   3
 -20  -2   2 6.92096 6.83835   4
  20   2  -2 -3.7951 10.7013   3
 -20   2   2 4.93375 7.69847   2
  18  -2  -2 47.8689 10.4566   3
 -18  -2   2 43.0705 7.43811   4
 -18  -2   2 47.9923 7.04060   2
 -18   2   2 51.9487 7.99270   2
  18   2  -2 53.8110 10.7335   3
  16  -2  -2 184.665 15.1392   3
 -16  -2   2 139.101 11.4846   4
 -16  -2   2 119.463 10.2611   2
 -16   2   2 130.466 11.5072   2
  16   2  -2 143.958 13.6758   3
 -14  -2   2 99.2485 8.70440   4
  14  -2  -2 80.3648 6.61299   4
  14  -2  -2 108.150 11.5212   3
 -14  -2   2 99.6462 7.54819   2
 -14   2   2 91.1153 8.43231   2
 -14   2   2 75.4572 6.42084   4
  14   2  -2 89.3188 10.3186   3
 -12  -2   2 254.437 15.7921   2
 -12  -2   2 264.349 16.8767   4
  12  -2  -2 292.518 18.7228   3
  12  -2  -2 264.695 15.5870   4
 -12  -2   2 289.930 15.9865   2
 -12   2   2 261.213 16.7124   2
 -12   2   2 268.226 15.3930   4
  12   2  -2 280.288 17.8678   3
 -10  -2   2 24.9650 4.71782   4
  10  -2  -2 29.0587 3.10883   4
  10  -2  -2 29.0924 5.59842   3
 -10  -2   2 23.7093 3.09789   2
  10   2  -2 22.6492 5.00571   3
 -10   2   2 20.6647 3.17104   4
 -10   2   2 23.9759 4.14948   2
  -8  -2   2 342.802 19.0702   4
  -8  -2   2 325.381 17.7645   2
  -8  -2   2 304.251 19.1851   3
   8  -2  -2 328.181 19.4998   3
  -8  -2   2 330.723 17.8467   2
   8  -2  -2 310.116 17.9511   4
   8   2  -2 321.076 19.1561   4
  -8   2   2 302.650 19.4117   3
  -8   2   2 318.751 18.2139   4
  -8   2   2 334.070 18.6407   2
  -8   2   2 320.205 18.6223   2
   8   2  -2 322.320 19.1126   3
   6  -2  -2 13.1155 3.47921   3
   6  -2  -2 13.3869 2.60331   2
  -6  -2   2 19.2980 3.37204   3
  -6  -2   2 14.1946 3.24631   4
  -6  -2   2 17.1570 1.51327   2
   6   2  -2 11.7146 3.07826   3
  -6   2   2 16.2130 3.80061   3
  -6   2   2 14.4862 2.83289   2
   6   2  -2 23.2784 3.60853   4
  -6   2   2 20.5128 2.42318   4
  -6   2   2 21.3092 2.68527   4
   4  -2  -2 125.411 7.58944   2
   4  -2  -2 124.142 8.04123   3
  -4  -2   2 113.742 8.13115   4
  -4  -2   2 118.570 7.79043   3
   4   2  -2 125.629 7.97430   3
   4   2  -2 112.701 8.26174   4
  -4   2   2 130.685 7.58506   4
  -4   2   2 118.899 8.48645   3
  -4   2   2 123.171 7.63673   2
  -4   2   2 122.886 7.64999   4
   2  -2  -2 93.5153 6.13934   2
  -2  -2   2 99.9172 5.66078   2
   2  -2  -2 107.076 6.63997   4
   2  -2  -2 98.2115 6.53498   3
  -2  -2   2 91.3313 7.06769   4
  -2   2   2 100.316 6.32307   2
   2   2  -2 97.8279 6.70966   3
   2   2  -2 102.465 5.69530   2
  -2   2   2 98.6414 6.57874   4
   2   2  -2 102.831 6.50694   3
  -2   2   2 93.7760 6.55549   3
   2   2  -2 105.080 6.84430   4
   0  -2  -2 64.5272 4.42858   2
   0  -2   2 60.6218 4.95801   4
   0  -2   2 64.6735 5.08970   3
   0  -2   2 64.7337 4.35532   2
   0  -2  -2 61.2353 4.96211   4
   0   2   2 63.9186 4.76598   3
   0   2   2 66.7378 5.03419   4
   0   2   2 67.0087 4.43417   2
   0   2  -2 60.8347 4.36869   2
   0   2  -2 62.1451 5.03831   4
   0   2   2 69.2567 4.49539   3
   0   2  -2 76.6681 5.54175   3
  -2  -2  -2 187.410 10.9588   2
   2  -2   2 187.394 10.9839   4
  -2  -2  -2 191.826 11.2346   3
   2  -2   2 185.197 11.2214   2
  -2  -2  -2 195.410 11.6041   4
   2  -2   2 210.736 12.0065   3
  -2   2  -2 181.001 11.9417   3
   2   2   2 195.093 11.0195   2
  -2   2  -2 199.486 11.2011   4
   2   2   2 188.284 11.6025   4
  -2   2  -2 200.841 11.3798   2
   2   2   2 197.091 11.2709   3
   4  -2   2 12.2987 3.46595   3
  -4  -2  -2 7.99256 2.68793   4
  -4  -2  -2 3.65825 2.19916   3
  -4  -2  -2 5.32758 1.93195   2
   4  -2   2 12.8608 2.86625   2
   4   2   2 6.23393 2.06919   2
  -4   2  -2 11.7353 2.57952   2
   4   2   2 6.69681 3.21279   4
  -4   2  -2 2.12402 3.70201   3
   4   2   2 6.28214 2.40139   3
  -4   2  -2 6.95281 1.69374   4
   6  -2   2 257.326 16.7883   3
  -6  -2  -2 263.331 14.8202   2
   6  -2   2 254.511 15.2986   2
  -6  -2  -2 271.060 15.4322   4
  -6  -2  -2 241.779 15.5860   3
   6   2   2 253.351 15.5071   4
  -6   2  -2 256.572 15.7427   2
  -6   2  -2 258.634 16.3931   3
   6   2   2 246.144 14.7539   2
   6   2   2 265.766 15.6838   3
   8  -2   2 165.721 12.4779   3
  -8  -2  -2 161.500 10.7059   2
   8   2   2 170.778 10.9369   2
   8   2   2 163.048 11.8135   4
   8   2   2 195.921 12.4642   3
  -8   2  -2 175.247 11.3330   2
 -10  -2  -2 114.469 9.43488   4
 -10  -2  -2 133.409 9.23851   2
  10  -2   2 149.619 11.6596   3
 -10   2  -2 122.464 9.69855   2
  10   2   2 123.234 10.7873   3
  12  -2   2 69.4067 10.0233   3
 -12  -2  -2 55.0214 6.39985   4
 -12  -2  -2 54.4570 6.35460   2
 -12   2  -2 53.0410 7.17744   2
  12   2   2 53.3749 8.63354   3
 -14  -2  -2 1.95442 5.05949   4
  14  -2   2 3.65243 8.10427   3
 -14  -2  -2 1.69144 5.22569   2
  14   2   2 7.03791 8.48115   3
 -14   2  -2 8.43100 5.70084   2
  16  -2   2 17.2264 9.09873   3
 -16  -2  -2 25.7811 6.57503   2
 -16  -2  -2 34.9037 6.73582   4
  16   2   2 49.2180 10.9891   3
 -16   2  -2 25.5036 6.96464   2
 -18  -2  -2 20.1320 7.33840   2
 -18  -2  -2 3.89624 6.24304   4
  18  -2   2 -4.2127 9.64770   3
  18   2   2 11.1109 9.70927   3
 -18   2  -2 3.61924 7.02824   2
  20  -2   2 0.32629 11.2331   3
 -20  -2  -2 14.9918 8.44998   2
 -20   2  -2 4.34525 9.06081   2
  20   2   2 13.8296 11.4914   3
 -22  -2  -2 -4.5460 9.40894   2
  22  -2   2 5.42141 12.7526   3
 -22   2  -2 1.23520 10.1767   2
  24   2   2 -14.332 18.2859   3
 -24   2  -2 2.56665 11.6336   2
  25  -3  -2 10.5334 15.5177   3
  25   3  -2 8.46363 14.0926   3
 -25   3   2 1.56574 11.3168   2
  23  -3  -2 4.50524 11.2157   3
 -23   3   2 2.31533 8.70718   2
  23   3  -2 -2.4235 11.6234   3
 -21  -3   2 35.4381 8.61925   4
  21  -3  -2 41.0847 13.0806   3
 -21   3   2 39.7811 9.66934   2
  21   3  -2 18.8519 11.7396   3
  19  -3  -2 144.468 16.3448   3
 -19  -3   2 126.235 12.2786   4
 -19  -3   2 138.297 11.3357   2
 -19   3   2 139.894 13.3234   2
  19   3  -2 128.830 14.8261   3
  17  -3  -2 147.756 15.8831   3
 -17  -3   2 187.011 12.9118   2
 -17  -3   2 189.013 14.5689   4
 -17   3   2 175.372 14.2564   2
  15  -3  -2 27.4740 8.51305   3
 -15  -3   2 31.3820 6.73720   4
 -15  -3   2 35.9127 5.05281   2
 -15   3   2 21.2821 6.00312   2
  15   3  -2 14.0979 7.71066   3
 -13  -3   2 767.870 43.5100   2
  13  -3  -2 793.271 45.8849   3
 -13  -3   2 804.265 43.4386   2
 -13  -3   2 835.944 45.0776   4
 -13   3   2 765.263 42.8251   4
 -13   3   2 794.381 42.8720   4
  13   3  -2 826.754 45.7859   3
 -13   3   2 784.994 44.7280   2
 -11  -3   2 234.267 13.0164   2
  11  -3  -2 229.141 16.3560   3
 -11  -3   2 204.798 14.6340   4
 -11  -3   2 232.114 13.2155   2
  11   3  -2 215.474 15.2046   3
 -11   3   2 213.934 14.4575   2
 -11   3   2 228.581 12.8393   4
 -11   3   2 224.054 13.1654   4
   9  -3  -2 144.317 10.4974   3
  -9  -3   2 126.513 9.69984   4
  -9  -3   2 137.570 7.66602   2
  -9  -3   2 127.178 7.83143   2
  -9   3   2 119.386 9.16974   2
  -9   3   2 130.121 8.61765   4
   9   3  -2 148.579 10.2688   3
  -9   3   2 120.739 8.03440   4
  -7  -3   2 46.1370 3.20257   2
  -7  -3   2 65.0112 6.18862   4
   7  -3  -2 64.8558 5.13121   2
  -7  -3   2 51.3035 3.06754   2
  -7   3   2 48.7358 4.42218   4
   7   3  -2 43.4195 5.05262   3
  -7   3   2 63.6201 6.95288   3
  -7   3   2 51.1168 4.14423   4
   5  -3  -2 289.992 17.6317   3
   5  -3  -2 313.587 16.9503   4
  -5  -3   2 286.481 17.5755   4
  -5  -3   2 294.865 17.5763   3
   5  -3  -2 292.451 16.9832   2
  -5   3   2 303.728 17.9517   3
  -5   3   2 306.262 16.9187   4
  -5   3   2 295.355 17.1099   2
   5   3  -2 298.404 17.8172   4
   5   3  -2 289.546 17.4177   3
  -3  -3   2 933.023 51.3204   4
   3  -3  -2 908.829 50.7872   2
   3  -3  -2 918.725 51.1522   3
   3  -3  -2 956.839 50.9674   4
   3   3  -2 937.162 50.2304   2
   3   3  -2 954.637 51.3750   4
  -3   3   2 927.587 51.2411   3
   3   3  -2 946.906 51.2842   3
   3   3  -2 960.037 51.3665   3
   3   3  -2 948.473 50.2053   2
  -3   3   2 934.747 50.9851   4
  -3   3   2 917.189 50.8276   2
  -1  -3   2 781.118 42.2928   4
   1  -3  -2 742.936 41.7928   2
  -1  -3   2 766.890 42.3797   3
   1  -3  -2 778.278 42.2311   4
   1  -3  -2 780.795 42.1489   3
  -1   3   2 787.214 42.2308   3
   1   3  -2 766.336 41.6124   2
   1   3  -2 768.088 42.3588   4
  -1   3   2 782.323 41.8824   2
  -1   3   2 782.666 42.3157   4
   1   3  -2 760.672 41.6743   2
   1   3  -2 760.892 42.4743   3
  -1  -3  -2 13.1258 2.86206   4
   1  -3   2 4.78061 2.98179   3
   1  -3   2 8.40322 2.32644   4
  -1  -3  -2 10.2203 1.87718   2
   1  -3   2 7.57039 2.07029   2
  -1   3  -2 8.72827 2.22826   2
   1   3   2 5.83297 1.95984   2
  -1   3  -2 7.36533 3.34237   3
   1   3   2 5.70594 3.17040   4
  -1   3  -2 3.13207 2.51109   4
   1   3   2 5.30490 2.38961   3
   1   3   2 6.24586 2.19640   3
   3  -3   2 159.551 9.32819   4
   3  -3   2 149.817 9.88900   2
  -3  -3  -2 162.272 9.19177   2
   3  -3   2 159.320 10.5862   3
  -3  -3  -2 154.595 10.1457   4
   3   3   2 158.582 9.29724   2
   3   3   2 163.761 10.7412   4
  -3   3  -2 152.536 10.8915   3
  -3   3  -2 147.661 9.85663   2
  -3   3  -2 157.171 9.52346   4
   3   3   2 156.605 9.93730   3
   5  -3   2 874.897 48.0283   2
   5  -3   2 842.074 48.5657   3
  -5  -3  -2 863.934 48.1461   3
  -5  -3  -2 908.285 47.4190   2
  -5  -3  -2 898.994 48.2962   4
   5  -3   2 867.509 47.0920   4
   5   3   2 862.354 47.4441   2
   5   3   2 896.566 48.2434   3
   5   3   2 878.497 48.4145   4
  -5   3  -2 849.822 47.9688   2
  -5   3  -2 871.378 47.2204   4
  -7  -3  -2 135.021 8.59879   2
   7  -3   2 137.840 10.6335   3
  -7  -3  -2 123.622 9.96503   4
   7   3   2 145.789 10.2442   3
   7   3   2 125.313 8.70768   2
  -7   3  -2 132.330 9.43462   2
  -9  -3  -2 40.3695 5.29260   4
   9  -3   2 36.9879 7.01215   3
  -9  -3  -2 29.4405 4.08303   2
  -9   3  -2 30.1051 5.03421   2
   9   3   2 24.0286 4.24659   2
   9   3   2 26.5493 5.46908   3
 -11  -3  -2 136.581 10.6025   4
 -11  -3  -2 132.026 9.58678   2
  11  -3   2 131.780 11.9927   3
  11   3   2 126.275 11.4094   3
 -11   3  -2 97.9153 9.95116   2
 -13  -3  -2 28.4586 6.37684   4
  13  -3   2 41.1791 9.14720   3
 -13  -3  -2 37.1576 5.82761   2
 -13   3  -2 27.9970 6.76163   2
  13   3   2 31.3592 8.15934   3
 -15  -3  -2 208.261 15.3373   4
 -15  -3  -2 183.275 14.5877   2
  15  -3   2 210.225 21.0817   3
 -15   3  -2 215.368 16.3301   2
  15   3   2 221.457 18.5825   3
 -17  -3  -2 45.2020 7.60800   2
  17  -3   2 54.8501 10.9580   3
 -17  -3  -2 54.0932 8.42994   4
  17   3   2 35.2498 10.7847   3
 -17   3  -2 60.4043 8.99898   2
 -19  -3  -2 65.1446 9.16755   4
  19  -3   2 58.7132 13.0157   3
 -19  -3  -2 50.8814 8.81466   2
  19   3   2 38.3932 13.1183   3
 -19   3  -2 42.8488 9.37460   2
  21  -3   2 75.1352 15.8175   3
 -21   3  -2 82.4601 12.3869   2
  21   3   2 76.9507 16.2464   3
  23  -3   2 96.5591 18.0393   3
  23   3   2 117.318 18.4099   3
 -23   3  -2 100.279 14.6621   2
  24  -4  -2 133.706 18.2262   3
 -24   4   2 127.505 15.3897   2
  24   4  -2 150.412 21.0306   3
  22  -4  -2 64.6673 13.9633   3
 -22  -4   2 56.6075 10.8980   4
 -22   4   2 66.3811 12.0115   2
  22   4  -2 68.5713 15.9322   3
 -20  -4   2 15.5717 8.66645   4
  20  -4  -2 27.1312 11.6986   3
  20   4  -2 8.80928 11.5452   3
 -20   4   2 9.68684 8.40735   2
 -18  -4   2 103.181 10.9345   4
  18  -4  -2 114.382 13.5330   3
  18   4  -2 90.0647 13.8268   3
 -18   4   2 113.974 11.5402   2
 -16  -4   2 919.799 52.3882   4
  16  -4  -2 916.714 53.9301   3
 -14  -4   2 643.639 37.8578   4
  14  -4  -2 607.703 38.3924   3
 -14  -4   2 653.790 35.5169   2
  14   4  -2 658.281 38.4346   3
 -14   4   2 638.832 37.5420   2
 -12  -4   2 203.649 11.3771   2
 -12  -4   2 211.283 14.1406   4
 -12  -4   2 187.377 11.1861   2
  12  -4  -2 173.984 14.9858   3
  12   4  -2 181.927 14.3607   3
 -12   4   2 176.447 13.8009   2
 -12   4   2 190.661 11.6859   4
 -12   4   2 182.797 11.3683   4
 -10  -4   2 1.72558 1.68752   2
 -10  -4   2 -1.5915 4.28670   4
  10  -4  -2 1.56599 5.23456   3
 -10  -4   2 1.26664 1.53178   2
 -10   4   2 3.71971 2.69918   4
 -10   4   2 1.05768 3.96635   2
  10   4  -2 5.76132 4.50231   3
 -10   4   2 2.07785 3.24157   4
   8  -4  -2 479.427 27.6159   3
  -8  -4   2 477.413 27.6750   4
  -8   4   2 479.274 26.3588   4
  -8   4   2 449.751 26.9498   2
  -8   4   2 465.676 26.1392   4
   8   4  -2 461.234 27.5376   3
   6  -4  -2 1102.46 62.0787   2
   6  -4  -2 1141.72 61.9288   4
   6  -4  -2 1158.05 62.7624   3
  -6  -4   2 1160.50 62.8266   4
   6   4  -2 1167.10 62.7809   3
  -6   4   2 1118.26 61.9188   4
   4  -4  -2 97.9911 6.75547   4
  -4  -4   2 103.967 7.57756   4
   4  -4  -2 97.6996 7.52946   3
   4  -4  -2 88.3453 7.17069   2
  -4   4   2 88.8993 6.92892   4
   4   4  -2 95.2774 7.63729   3
   4   4  -2 84.7763 5.05152   2
  -4   4   2 85.8991 6.67249   2
  -4   4   2 89.9863 8.25322   3
   4   4  -2 80.4056 5.01914   2
   2  -4  -2 415.698 22.5397   4
   2  -4  -2 394.076 21.9235   2
   2  -4  -2 401.664 22.4999   3
  -2  -4   2 407.636 22.8140   4
  -2   4   2 374.385 22.6858   3
   2   4  -2 377.300 22.8205   4
   2   4  -2 386.979 23.3607   3
   2   4  -2 392.456 21.5141   2
   2   4  -2 393.192 21.5795   2
  -2   4   2 391.007 22.1039   2
   2   4  -2 401.062 22.9152   3
  -2   4   2 378.629 22.5896   4
   0  -4   2 1284.33 69.3676   3
   0  -4  -2 1298.20 68.5288   2
   0  -4   2 1258.75 69.0378   4
   0   4  -2 1234.01 68.4508   2
   0   4   2 1230.81 68.5362   2
   0   4  -2 1333.79 70.0768   3
   0   4  -2 1275.85 69.1231   4
   0   4   2 1245.86 69.2646   4
   0   4  -2 1256.20 68.5537   2
   0   4   2 1302.21 69.1830   3
   0   4   2 1262.33 69.1945   3
  -2  -4  -2 562.743 31.9259   4
   2  -4   2 560.015 32.0342   3
   2  -4   2 550.182 31.2931   4
  -2  -4  -2 577.430 30.8392   2
   2   4   2 598.704 31.7147   3
  -2   4  -2 574.213 31.2760   2
   2   4   2 545.865 30.8833   2
  -2   4  -2 571.490 31.4052   4
  -2   4  -2 560.359 31.1357   2
   2   4   2 540.905 31.5698   3
  -4  -4  -2 352.804 19.2509   2
   4  -4   2 344.351 20.8943   3
   4  -4   2 353.080 19.4721   4
  -4  -4  -2 338.877 20.5141   4
  -4  -4  -2 336.134 20.9840   3
  -4   4  -2 343.621 19.6133   4
   4   4   2 332.746 19.3321   2
  -4   4  -2 359.485 20.1608   2
   4   4   2 342.692 20.2195   3
   6  -4   2 160.861 9.54740   4
   6  -4   2 143.674 11.8545   3
  -6  -4  -2 157.653 11.7641   4
  -6  -4  -2 167.383 9.80296   2
   6   4   2 166.771 11.4477   3
  -6   4  -2 155.237 9.95921   4
  -6   4  -2 167.315 11.2785   2
   6   4   2 165.252 10.0139   2
  -8  -4  -2 1134.82 63.6113   4
   8  -4   2 1171.64 64.2512   3
  -8  -4  -2 1168.10 62.3361   2
  -8   4  -2 1164.50 63.3553   2
   8   4   2 1105.98 63.6945   3
 -10  -4  -2 237.073 15.8856   4
  10  -4   2 210.296 17.2697   3
 -10  -4  -2 228.551 13.7861   2
 -10   4  -2 246.883 15.7034   2
  10   4   2 192.993 15.5918   3
  10   4   2 218.510 14.1801   2
 -12  -4  -2 290.180 19.6223   4
  12  -4   2 269.585 20.8639   3
 -12  -4  -2 304.564 17.9144   2
 -12   4  -2 294.933 19.1986   2
  12   4   2 291.630 20.3145   3
 -14  -4  -2 26.3297 5.50266   2
  14  -4   2 23.1641 10.3318   3
 -14  -4  -2 12.8416 6.19204   4
 -14   4  -2 19.0054 7.72975   2
  14   4   2 40.0199 9.96714   3
  16  -4   2 186.030 17.8342   3
 -16  -4  -2 180.747 14.9768   4
 -16  -4  -2 196.943 13.9714   2
 -16   4  -2 182.359 15.3349   2
  16   4   2 165.356 16.8146   3
  18  -4   2 264.545 22.2552   3
 -18  -4  -2 283.437 21.6382   4
  18   4   2 273.053 22.3787   3
 -18   4  -2 235.851 19.9389   2
 -20  -4  -2 76.8971 10.9019   4
  20  -4   2 49.3634 13.2193   3
  20   4   2 52.5455 13.7785   3
 -20   4  -2 55.2951 10.7703   2
  22  -4   2 29.7144 14.6745   3
  22   4   2 33.3826 14.3285   3
 -22   4  -2 38.1613 10.9841   2
 -23  -5   2 33.5552 11.5194   4
  23  -5  -2 17.4274 14.1076   3
 -23   5   2 16.5643 10.5802   2
  23   5  -2 8.13853 13.9469   3
  21  -5  -2 14.4406 12.5223   3
 -21  -5   2 15.1239 9.21334   4
  21   5  -2 3.07584 12.8522   3
 -21   5   2 14.6766 8.71145   2
 -19  -5   2 25.1484 9.22703   4
  19  -5  -2 29.8788 11.1919   3
  19   5  -2 40.4379 12.9510   3
 -19   5   2 46.3429 10.1851   2
 -17  -5   2 182.618 16.1217   4
  17  -5  -2 196.346 18.0168   3
 -17   5   2 206.807 16.2630   2
  17   5  -2 233.265 19.1643   3
  15  -5  -2 41.1726 9.19597   3
 -15  -5   2 23.8164 7.37511   4
  15   5  -2 22.3063 8.37004   3
 -15   5   2 29.0349 6.99636   2
  13  -5  -2 94.3038 11.2298   3
 -13  -5   2 83.0933 9.95340   4
  13   5  -2 91.6039 10.3498   3
 -13   5   2 99.7860 10.0854   2
 -11  -5   2 354.468 23.9962   4
  11  -5  -2 448.703 25.4374   3
 -11   5   2 405.812 23.5748   2
 -11   5   2 366.672 22.2084   4
  11   5  -2 370.758 24.3603   3
   9  -5  -2 5.53933 5.47405   3
  -9  -5   2 7.17436 5.61679   4
  -9   5   2 13.5031 4.63194   2
   9   5  -2 12.5960 5.03279   3
  -9   5   2 6.34591 3.93804   4
  -9   5   2 9.76971 3.80258   4
   7  -5  -2 31.2519 4.22533   4
  -7  -5   2 18.3349 5.08336   4
   7  -5  -2 23.0607 6.09636   3
  -7   5   2 27.0030 4.91350   2
   7   5  -2 24.4803 5.05064   3
  -7   5   2 14.8023 4.48803   4
  -5  -5   2 370.904 22.4685   4
   5  -5  -2 380.351 21.5916   4
   5  -5  -2 389.397 21.5759   2
   5  -5  -2 376.812 22.3651   3
  -5   5   2 373.616 21.9355   4
   5   5  -2 371.739 20.1540   2
   5   5  -2 372.601 22.3930   3
   5   5  -2 362.802 20.1543   2
   3  -5  -2 271.602 16.6758   2
   3  -5  -2 261.454 17.1900   4
   3  -5  -2 276.522 17.7066   3
  -3  -5   2 298.815 17.7772   4
   3   5  -2 286.488 16.0253   2
   3   5  -2 292.417 16.0023   2
   3   5  -2 334.541 18.0842   3
   1  -5  -2 20.4696 3.19758   2
   1  -5  -2 24.4145 4.54417   3
   1  -5  -2 24.6055 4.64248   4
  -1  -5   2 40.4536 5.11985   3
  -1  -5   2 20.9686 4.20026   4
  -1   5   2 20.5311 3.68341   2
   1   5  -2 20.1467 3.08695   2
   1   5  -2 22.9172 3.18868   2
   1  -5   2 88.7066 8.11720   3
   1  -5   2 105.527 8.23453   4
  -1  -5  -2 86.6031 7.87041   4
  -1  -5  -2 98.2622 6.47442   2
  -1   5  -2 84.9912 7.87883   4
  -1   5  -2 106.408 7.06583   2
  -1   5  -2 94.5665 7.07470   2
   1   5   2 78.8586 7.45871   3
  -3  -5  -2 106.827 8.78153   4
  -3  -5  -2 82.8196 5.97405   2
   3  -5   2 85.3944 6.85780   4
   3  -5   2 73.8179 7.81773   3
  -3   5  -2 89.7447 7.30757   4
  -3   5  -2 91.5094 7.19969   2
   3   5   2 77.4571 7.37752   3
   3   5   2 79.8794 6.15173   2
  -5  -5  -2 84.8441 8.06869   4
  -5  -5  -2 83.5650 6.00478   2
   5  -5   2 74.3919 8.31688   3
   5  -5   2 90.1717 6.75995   4
   5   5   2 86.1980 6.36559   2
  -5   5  -2 89.6003 6.93397   4
   5   5   2 90.3119 7.89125   3
  -5   5  -2 72.1012 7.45295   2
  -7  -5  -2 321.748 17.9253   2
  -7  -5  -2 309.994 20.0369   4
   7  -5   2 309.892 17.9262   4
   7  -5   2 319.338 20.6862   3
   7   5   2 312.971 18.3169   2
   7   5   2 314.669 19.9856   3
  -7   5  -2 328.108 18.3955   4
  -7   5  -2 300.638 19.3040   2
  -9  -5  -2 31.6447 6.45088   4
  -9  -5  -2 29.0679 3.96972   2
   9  -5   2 22.2509 7.31435   3
  -9   5  -2 17.2460 6.07242   2
   9   5   2 18.3596 6.04097   3
  -9   5  -2 30.8820 2.85117   4
 -11  -5  -2 37.1941 4.83320   2
  11  -5   2 23.6788 8.91784   3
 -11  -5  -2 51.7399 8.19368   4
 -11   5  -2 24.5322 6.54692   2
  11   5   2 50.6755 8.84172   3
  13  -5   2 110.761 14.2166   3
 -13  -5  -2 148.938 10.3052   2
 -13  -5  -2 131.613 12.1623   4
  13   5   2 122.630 13.2519   3
  15  -5   2 41.9998 11.0052   3
 -15   5  -2 52.3761 9.45329   2
  15   5   2 68.6416 11.8205   3
  17  -5   2 18.1580 9.71797   3
 -17  -5  -2 11.5199 8.61264   4
  17   5   2 -2.1311 9.83020   3
 -17   5  -2 8.40093 7.77775   2
  19  -5   2 70.0582 12.8946   3
 -19  -5  -2 40.0676 9.78963   4
  19   5   2 33.8938 14.1896   3
 -19   5  -2 50.2489 11.0278   2
  21  -5   2 56.1042 14.7629   3
 -21  -5  -2 45.6996 11.8601   4
  21   5   2 51.5221 16.2519   3
 -21   5  -2 38.5252 11.4166   2
  22  -6  -2 -0.0700 13.5693   3
 -22  -6   2 5.32261 10.7631   4
  22   6  -2 4.76416 13.3219   3
 -22   6   2 6.21457 10.9958   2
  20  -6  -2 0.35347 11.8254   3
 -20  -6   2 4.30108 9.45391   4
  20   6  -2 -2.8657 11.1930   3
 -20   6   2 -3.0804 10.0511   2
 -18  -6   2 41.5602 10.3664   4
  18  -6  -2 48.5083 12.1956   3
 -18   6   2 40.8439 9.64497   2
  18   6  -2 18.2608 10.5062   3
  16  -6  -2 18.9216 9.46700   3
 -16  -6   2 12.7202 7.80278   4
  16   6  -2 12.0814 9.10688   3
 -16   6   2 14.9253 7.96464   2
 -14  -6   2 9.62311 7.26560   4
  14  -6  -2 14.0963 8.99393   3
 -14   6   2 18.3063 7.66549   2
  14   6  -2 15.0985 8.63818   3
 -12  -6   2 46.3911 8.36060   4
  12  -6  -2 49.6826 9.12296   3
  12   6  -2 40.5505 8.34174   3
 -12   6   2 53.5761 8.25040   2
  10  -6  -2 19.6717 7.56080   3
 -10  -6   2 -2.1543 6.44536   4
  10   6  -2 12.1625 6.06167   3
 -10   6   2 19.2971 4.91962   4
 -10   6   2 7.21936 6.11185   2
   8  -6  -2 48.5085 5.96551   4
  -8  -6   2 66.1685 8.07172   4
   8  -6  -2 47.1833 7.74438   3
   8   6  -2 48.0424 7.18739   3
  -8   6   2 51.9378 6.69387   2
   6  -6  -2 -1.5243 4.07386   4
  -6  -6   2 9.88988 5.71437   4
   6  -6  -2 8.13250 5.22223   3
   6   6  -2 0.84098 4.51331   3
  -6   6   2 6.03357 4.30785   2
   4  -6  -2 26.4245 5.26503   4
   4  -6  -2 28.6601 5.75346   3
  -4  -6   2 22.4482 5.65153   4
   4  -6  -2 43.0050 4.87034   2
   4   6  -2 32.3240 5.69825   3
   4   6  -2 36.4544 3.23883   2
   4   6  -2 27.5459 3.10289   2
   2  -6  -2 38.6575 4.66842   2
   2  -6  -2 61.4007 6.51931   4
  -2  -6   2 49.0773 6.66664   4
   2  -6  -2 48.6779 6.52152   3
   2   6  -2 43.2533 4.36208   2
   2   6  -2 33.5210 6.34332   3
   2   6  -2 44.5576 4.30565   2
   0  -6  -2 6.81403 4.35745   4
   0  -6   2 11.7072 4.83496   3
   0  -6   2 6.73515 4.53492   4
   0   6   2 1.24005 3.71858   2
   0   6  -2 4.78235 3.58108   2
   0   6   2 7.02858 4.14227   3
   0   6  -2 5.65269 3.33308   2
   2  -6   2 63.9569 6.32411   4
  -2  -6  -2 54.4979 4.69397   2
   2  -6   2 45.5434 6.90283   3
  -2  -6  -2 43.2314 6.62769   4
   2   6   2 52.7002 5.35849   2
   2   6   2 60.9523 6.91872   3
  -2   6  -2 52.5550 5.71414   2
  -4  -6  -2 12.5229 6.11066   4
  -4  -6  -2 15.1532 2.89692   2
   4  -6   2 12.2268 4.23660   4
   4  -6   2 14.9211 6.21949   3
  -4   6  -2 26.9430 5.13273   2
   4   6   2 18.3214 5.37945   3
  -6  -6  -2 29.2382 6.51592   4
   6  -6   2 43.8466 8.02992   3
   6  -6   2 45.9330 4.97529   4
  -6  -6  -2 42.9356 4.05607   2
   6   6   2 39.2918 6.94245   3
  -6   6  -2 25.2410 6.04589   2
  -8  -6  -2 24.3964 7.15463   4
  -8  -6  -2 16.0144 3.38146   2
   8  -6   2 29.1204 8.10605   3
   8  -6   2 19.8625 3.78487   4
   8   6   2 19.2412 6.64195   3
  -8   6  -2 17.4064 6.35800   2
 -10  -6  -2 26.9215 3.98055   2
 -10  -6  -2 25.1472 7.04399   4
  10  -6   2 17.2005 7.78729   3
  10   6   2 19.3360 7.84335   3
 -10   6  -2 30.3851 7.34689   2
 -12  -6  -2 29.8232 8.77429   4
  12  -6   2 17.7086 8.95301   3
 -12   6  -2 34.5130 7.97538   2
  12   6   2 32.0850 8.25439   3
  14  -6   2 9.84396 9.82617   3
 -14  -6  -2 18.5014 8.35466   4
  14   6   2 19.6538 9.73664   3
 -14   6  -2 20.3909 8.49035   2
  16  -6   2 0.96799 10.0026   3
 -16  -6  -2 -1.9009 8.51777   4
  16   6   2 0.68990 10.7311   3
 -16   6  -2 1.77480 7.70200   2
 -18  -6  -2 10.6875 9.63780   4
  18  -6   2 5.70756 11.9179   3
 -18   6  -2 16.9950 10.0162   2
  18   6   2 0.49099 11.7224   3
 -20  -6  -2 14.7467 10.2658   4
  20  -6   2 26.8511 13.9630   3
 -20   6  -2 5.93629 11.5279   2
  20   6   2 -6.0587 14.5773   3
 -21  -7   2 1.10557 11.2268   4
  21  -7  -2 -7.2047 12.2055   3
  21   7  -2 2.01794 14.8943   3
 -21   7   2 3.11921 10.0174   2
 -19  -7   2 -1.9051 10.0242   4
  19  -7  -2 -3.1212 10.7739   3
 -19   7   2 5.59304 9.63302   2
  19   7  -2 -3.7836 10.8836   3
  17  -7  -2 85.8956 13.3537   3
 -17  -7   2 85.9289 13.0749   4
 -17   7   2 107.283 12.9932   2
  17   7  -2 80.3524 13.5574   3
  15  -7  -2 104.438 14.3405   3
 -15  -7   2 134.818 13.9402   4
  15   7  -2 119.267 14.2485   3
 -15   7   2 112.654 12.9857   2
 -13  -7   2 166.597 14.9950   4
  13  -7  -2 168.605 16.0953   3
 -13   7   2 157.663 13.8500   2
  13   7  -2 134.495 14.8331   3
  11  -7  -2 1.89197 7.11561   3
 -11  -7   2 25.2602 8.27109   4
  11   7  -2 23.4690 7.53159   3
 -11   7   2 18.2539 6.64906   2
  -9  -7   2 11.0695 6.75885   4
   9  -7  -2 6.37020 6.79071   3
  -9   7   2 -0.5139 6.17551   2
  -9   7   2 11.7956 5.36315   4
   9   7  -2 2.96605 5.95624   3
   7  -7  -2 217.197 16.7538   3
  -7  -7   2 207.438 16.8161   4
   7  -7  -2 209.102 14.9242   4
   7   7  -2 222.426 16.7645   3
  -7   7   2 231.866 15.5861   2
   5  -7  -2 109.976 9.42241   4
   5  -7  -2 85.7291 10.3680   3
  -5  -7   2 107.104 10.4216   4
   5   7  -2 93.5437 6.68821   2
   5   7  -2 98.8893 10.4060   3
  -5   7   2 108.533 9.32125   2
   3  -7  -2 36.7986 6.63746   4
   3  -7  -2 46.1323 5.54517   2
  -3  -7   2 46.1871 7.43801   4
   3  -7  -2 51.1398 7.56461   3
   3   7  -2 50.1458 7.85960   3
   3   7  -2 46.0127 4.60868   2
   1  -7  -2 225.486 17.0164   4
   1  -7  -2 261.758 15.6024   2
  -1  -7   2 244.261 17.3559   4
  -1   7   2 255.593 17.5539   3
   1   7  -2 265.141 17.7371   3
   1   7  -2 266.456 15.5471   2
   1  -7   2 156.707 12.0356   4
  -1  -7  -2 159.878 12.1554   4
  -1  -7  -2 146.041 9.79815   2
   1  -7   2 124.894 11.8972   3
  -1   7  -2 146.414 10.5169   2
   1   7   2 145.895 12.3208   3
  -3  -7  -2 24.4630 3.69191   2
   3  -7   2 23.0730 5.47523   4
   3  -7   2 13.6590 6.43027   3
  -3  -7  -2 19.7876 6.33091   4
   3   7   2 17.0052 5.56438   3
  -3   7  -2 28.7480 5.65681   2
  -5  -7  -2 5.07352 2.91440   2
  -5  -7  -2 -0.9402 6.31526   4
   5  -7   2 -1.7719 6.22767   3
   5  -7   2 8.71059 4.66952   4
   5   7   2 10.3277 5.98011   3
  -5   7  -2 16.4680 5.84113   2
  -7  -7  -2 239.962 14.8055   2
  -7  -7  -2 251.890 17.6681   4
   7  -7   2 222.353 18.0236   3
   7  -7   2 244.946 15.2755   4
   7   7   2 237.602 17.6928   3
  -7   7  -2 238.156 17.0060   2
  -9  -7  -2 30.0203 8.05353   4
   9  -7   2 27.1979 8.58062   3
  -9   7  -2 32.6088 7.74085   2
   9   7   2 37.3398 8.46049   3
  11  -7   2 3.62133 8.19573   3
 -11  -7  -2 9.93799 8.01249   4
 -11   7  -2 3.67517 6.60136   2
  11   7   2 21.0796 8.66707   3
  13  -7   2 12.4594 9.57839   3
 -13  -7  -2 30.4361 9.36418   4
 -13   7  -2 6.37152 7.60063   2
  13   7   2 0.30978 8.33758   3
  15  -7   2 11.8731 9.93296   3
 -15  -7  -2 4.03643 8.41469   4
  15   7   2 -8.0009 9.43864   3
 -15   7  -2 -14.131 7.71726   2
  17  -7   2 85.0944 15.4536   3
 -17  -7  -2 114.090 13.5742   4
  17   7   2 102.972 15.8605   3
 -17   7  -2 120.192 14.5343   2
  19  -7   2 37.4985 14.6474   3
 -19  -7  -2 35.3119 10.9698   4
  19   7   2 28.7477 14.2883   3
 -19   7  -2 48.1453 12.1026   2
 -20  -8   2 -1.7758 11.9394   4
  20  -8  -2 12.9392 12.6476   3
  20   8  -2 -21.211 21.6737   3
  18  -8  -2 100.346 15.0667   3
 -18  -8   2 106.023 14.8025   4
  18   8  -2 51.3690 14.1992   3
 -18   8   2 117.613 14.3283   2
  16  -8  -2 126.461 14.8713   3
 -16  -8   2 91.7196 14.0296   4
  16   8  -2 99.8657 14.7200   3
 -16   8   2 144.807 15.0449   2
  14  -8  -2 101.999 13.2492   3
 -14  -8   2 107.440 13.7703   4
 -14   8   2 102.993 12.3224   2
  14   8  -2 102.078 13.4305   3
  12  -8  -2 96.5259 13.1455   3
 -12  -8   2 135.613 14.6822   4
  12   8  -2 151.982 14.5099   3
 -12   8   2 149.451 13.5508   2
  10  -8  -2 24.2271 8.91563   3
 -10  -8   2 11.7797 8.14101   4
 -10   8   2 35.4791 8.31165   2
  10   8  -2 26.4988 8.54875   3
  -8  -8   2 46.2984 8.69801   4
   8  -8  -2 42.4198 7.08458   4
   8  -8  -2 43.6772 8.99862   3
   8   8  -2 62.6411 9.59461   3
  -8   8   2 40.8637 7.70141   2
   6  -8  -2 11.3455 6.68137   3
   6  -8  -2 14.3291 5.96638   4
  -6  -8   2 17.7576 8.77964   4
  -6   8   2 15.7460 5.69305   2
   6   8  -2 10.8411 7.88646   3
   4  -8  -2 103.044 11.5144   3
   4  -8  -2 151.143 11.8035   4
  -4  -8   2 130.853 11.9493   4
  -4   8   2 127.174 10.6821   2
   4   8  -2 118.986 12.6067   3
  -2  -8   2 173.774 14.2146   4
   2  -8  -2 161.208 13.4609   4
   2  -8  -2 144.641 13.4895   3
   2   8  -2 191.453 15.0793   3
  -2   8   2 163.992 12.6829   2
  -2   8   2 169.934 14.1412   3
   2   8  -2 164.790 11.4599   2
   0  -8  -2 49.9468 5.86349   2
   0  -8   2 53.2237 9.16494   3
   0  -8   2 50.8810 8.10237   4
   0  -8  -2 51.6225 7.94197   4
   0   8  -2 58.1030 6.57493   2
   0   8   2 66.9109 8.72184   3
  -2  -8  -2 15.2090 4.20246   2
   2  -8   2 29.8449 7.82134   3
  -2  -8  -2 35.6102 7.94745   4
   2  -8   2 14.8756 6.36442   4
  -2   8  -2 17.7895 5.62716   2
   2   8   2 34.3493 7.76398   3
  -4  -8  -2 215.657 22.5333   4
   4  -8   2 175.059 13.7509   4
   4   8   2 162.426 14.3195   3
  -4   8  -2 177.422 13.4881   2
  -6  -8  -2 78.6750 10.2172   4
   6  -8   2 83.3962 10.6301   3
   6  -8   2 77.8199 8.27299   4
   6   8   2 91.0863 10.9660   3
  -6   8  -2 78.5949 9.34984   2
  -8  -8  -2 72.8193 10.2964   4
   8  -8   2 92.2975 11.6769   3
   8   8   2 70.7033 10.9102   3
  -8   8  -2 72.8151 9.29441   2
  10  -8   2 101.784 13.0260   3
 -10  -8  -2 55.3601 10.8937   4
  10   8   2 74.5303 11.4045   3
 -10   8  -2 72.1208 10.2030   2
 -12  -8  -2 23.0518 9.92572   4
  12  -8   2 29.1661 9.79999   3
  12   8   2 26.9851 10.7355   3
 -12   8  -2 10.0293 8.99028   2
 -14  -8  -2 47.7951 11.7483   4
  14  -8   2 76.5135 13.6772   3
  14   8   2 46.2413 12.8223   3
 -14   8  -2 69.2500 11.7142   2
 -16  -8  -2 39.9132 11.0635   4
  16  -8   2 26.0879 13.0299   3
  16   8   2 31.4405 13.7931   3
 -16   8  -2 36.9055 11.8969   2
 -18  -8  -2 20.4561 12.0610   4
  18   8   2 15.2904 15.5533   3
 -18   8  -2 8.57523 13.4153   2
  17  -9  -2 14.9075 12.7755   3
 -17  -9   2 26.9057 12.5026   4
 -17   9   2 16.1319 11.4817   2
  17   9  -2 14.0571 14.1214   3
  15  -9  -2 121.509 16.1444   3
 -15  -9   2 123.914 15.0213   4
  15   9  -2 114.206 15.5883   3
 -15   9   2 97.0259 13.8039   2
 -13  -9   2 22.7616 9.74084   4
  13  -9  -2 21.5878 10.9200   3
  13   9  -2 23.4185 10.3589   3
 -13   9   2 30.1350 10.3635   2
  11  -9  -2 14.9371 9.45975   3
 -11  -9   2 -3.8638 9.22348   4
  11   9  -2 -0.7852 9.57988   3
 -11   9   2 -8.1196 8.28051   2
  -9  -9   2 47.8054 10.6739   4
   9  -9  -2 51.5674 10.4851   3
   9   9  -2 54.5426 10.9653   3
  -9   9   2 56.1663 9.69351   2
   7  -9  -2 44.9278 8.18741   4
   7  -9  -2 43.3578 9.64181   3
  -7  -9   2 58.9765 9.84399   4
  -7   9   2 40.3599 8.33615   2
   7   9  -2 54.6105 10.1653   3
   5  -9  -2 -8.3110 7.26445   3
   5  -9  -2 -7.3223 5.88573   4
  -5  -9   2 -2.0434 7.03942   4
   5   9  -2 -0.0256 7.98798   3
  -5   9   2 -3.9547 6.38693   2
   3  -9  -2 55.0982 8.88834   4
   3  -9  -2 60.4682 8.98112   3
  -3  -9   2 71.5384 10.0069   4
  -3   9   2 62.5858 8.14475   2
   3   9  -2 63.1618 10.8805   3
  -1  -9   2 67.8010 9.54854   4
   1  -9  -2 57.4970 9.46858   4
   1   9  -2 63.3606 10.2348   3
  -1   9   2 59.2830 7.57245   2
   1  -9   2 -0.2866 7.68260   3
  -1  -9  -2 11.3046 7.55522   4
   1  -9   2 -1.3382 6.49454   4
  -1   9  -2 2.71543 5.64433   2
   3  -9   2 49.0817 8.30629   4
   3  -9   2 38.4450 8.83825   3
  -3  -9  -2 48.9758 8.82405   4
  -3   9  -2 47.4383 7.76236   2
   3   9   2 41.5295 8.83062   3
   5  -9   2 57.8357 8.52687   4
  -5  -9  -2 53.5515 10.5477   4
   5  -9   2 52.6274 10.5278   3
  -5   9  -2 67.6283 8.83862   2
   5   9   2 49.5161 10.1109   3
   7  -9   2 -6.3995 7.72538   3
  -7  -9  -2 3.39924 7.92166   4
   7   9   2 9.19592 8.71278   3
   9  -9   2 59.8064 11.5605   3
  -9  -9  -2 88.7110 11.9286   4
   9   9   2 82.6754 11.8490   3
  -9   9  -2 93.4466 11.5390   2
  11  -9   2 55.4901 11.8702   3
 -11  -9  -2 58.3194 11.8794   4
 -11   9  -2 84.9453 12.0977   2
  11   9   2 50.1495 11.4329   3
 -13  -9  -2 -2.4804 9.15412   4
  13  -9   2 -5.0081 11.1999   3
 -13   9  -2 6.61874 10.5032   2
  13   9   2 -4.4408 10.5949   3
 -15  -9  -2 -9.8932 9.59190   4
  15  -9   2 -5.5923 12.4006   3
  15   9   2 -9.4456 13.2152   3
 -15   9  -2 8.69634 11.6646   2
  14 -10  -2 -6.0989 11.3220   3
 -14 -10   2 26.4036 11.5955   4
 -14  10   2 -10.593 11.0561   2
  14  10  -2 -9.4745 12.5208   3
  12 -10  -2 1.75851 9.55602   3
 -12 -10   2 3.93866 9.59394   4
 -12  10   2 0.58467 10.1539   2
  12  10  -2 -2.2083 10.3553   3
  10 -10  -2 4.10532 10.3287   3
 -10 -10   2 8.79225 9.43101   4
 -10  10   2 -3.6296 9.22294   2
  10  10  -2 20.2642 10.2771   3
  -8 -10   2 -3.7489 8.70104   4
   8 -10  -2 7.74544 9.33633   3
  -8  10   2 -1.3868 8.00110   2
   8  10  -2 -6.1465 9.78724   3
  -6 -10   2 16.3413 8.82323   4
   6 -10  -2 18.9456 8.52150   3
   6 -10  -2 24.4204 8.49915   4
  -6  10   2 20.5259 8.83241   2
   6  10  -2 10.2127 10.0135   3
   4 -10  -2 -0.7569 8.30396   3
   4 -10  -2 -7.0920 7.79086   4
  -4 -10   2 7.74103 9.10839   4
  -4  10   2 2.42919 7.27682   2
   4  10  -2 1.57481 8.49319   3
  -2 -10   2 37.9590 10.0978   4
   2 -10  -2 60.1978 10.2288   4
   2  10  -2 46.8973 11.5648   3
  -2  10   2 49.5799 11.1981   3
   0 -10   2 20.1625 8.53957   4
   0 -10  -2 43.8509 9.39000   4
   0  10   2 35.1628 10.6069   3
   0  10  -2 36.7008 9.96922   3
   2 -10   2 17.3961 8.28172   4
  -2 -10  -2 14.3461 9.05658   4
   2 -10   2 27.3531 9.40820   3
   2  10   2 20.2176 8.90141   3
   4 -10   2 -3.4135 9.02756   3
  -4 -10  -2 5.91904 8.11050   4
   4 -10   2 -1.6428 7.24752   4
   4  10   2 -0.5995 9.18432   3
  -4  10  -2 1.71180 7.68240   2
  -6 -10  -2 1.98155 8.28267   4
   6 -10   2 0.62297 8.75434   3
  -6  10  -2 0.69131 8.17793   2
   6  10   2 -4.0636 9.71186   3
   8 -10   2 6.03741 10.0094   3
  -8 -10  -2 9.75076 9.56435   4
  -8  10  -2 12.7638 9.48641   2
   8  10   2 24.7840 11.4526   3
  10 -10   2 -2.6835 9.62267   3
 -10 -10  -2 -8.8016 9.04070   4
  10  10   2 -6.8585 10.1310   3
 -10  10  -2 3.55392 10.2337   2
  12 -10   2 -1.5115 11.9585   3
 -12 -10  -2 6.48093 10.4106   4
 -12  10  -2 9.27543 10.8168   2
  12  10   2 -17.027 10.6053   3
  11 -11  -2 15.5550 11.2942   3
 -11 -11   2 -4.8042 12.1082   4
 -11  11   2 -0.1611 11.0352   2
  11  11  -2 1.91235 12.2535   3
   9 -11  -2 3.35778 11.3407   3
  -9 -11   2 1.92243 10.4287   4
   9  11  -2 12.6353 12.8576   3
  -9  11   2 15.5070 10.6034   2
   7 -11  -2 -4.2184 9.33672   3
  -7 -11   2 15.2123 11.2679   4
  -7  11   2 16.6223 10.1515   2
   7  11  -2 5.99691 11.4306   3
  -5 -11   2 0.45032 9.24568   4
   5 -11  -2 5.86772 9.57624   4
  -5  11   2 0.58211 11.0478   3
   5  11  -2 -0.8269 10.0823   3
  -3 -11   2 8.50560 10.2036   4
   3 -11  -2 3.00099 8.98925   4
  -3  11   2 15.5936 11.6963   3
   3  11  -2 9.55343 10.5174   3
  -1 -11   2 69.6294 11.9932   4
   1 -11  -2 32.2651 10.6956   4
   1  11  -2 62.8347 14.1703   3
  -1  11   2 63.2858 13.5494   3
  -1 -11  -2 -1.5859 9.38745   4
   1 -11   2 -5.8696 8.56211   4
   1  11   2 -0.0777 10.6952   3
  -1  11  -2 -5.3088 11.3132   3
   3 -11   2 6.70397 9.37291   4
  -3 -11  -2 12.6304 9.57200   4
  -3  11  -2 12.9034 10.8718   3
   3  11   2 10.0442 10.1125   3
  -5 -11  -2 51.6818 12.5677   4
   5 -11   2 19.2954 10.3601   3
   5  11   2 55.8442 13.1001   3
   7 -11   2 4.42005 10.4787   3
  -7 -11  -2 -0.3308 10.1299   4
   7  11   2 3.48056 11.9468   3
  -9 -11  -2 24.8776 14.1095   4
   9 -11   2 9.96735 11.4463   3
   9  11   2 14.3005 13.6133   3
  -9  11  -2 12.1709 11.4573   2
   4 -12  -2 5.05314 10.5414   4
  -4 -12   2 12.1454 11.4984   4
   4  12  -2 -2.1969 11.9280   3
  -4  12   2 7.76826 13.2556   3
   2 -12  -2 67.4850 13.0801   4
  -2 -12   2 57.9800 12.4941   4
  -2  12   2 69.6057 15.3460   3
   2  12  -2 77.9116 15.8961   3
   0 -12  -2 12.6047 11.4414   4
   0 -12   2 5.34328 11.5207   4
   0  12   2 13.0331 12.5231   3
   0  12  -2 1.03251 12.3803   3
  -2 -12  -2 -5.9317 11.1688   4
   2  12   2 2.26262 13.1293   3
  -2  12  -2 -5.8664 12.0562   3
   4  12   2 25.3521 13.6656   3
  -4  12  -2 42.2406 22.0630   3
  26   0  -3 0.46358 14.2969   3
 -26   0   3 2.99560 10.2497   2
 -24   0   3 0.64573 8.53145   2
  24   0  -3 0.96174 12.1044   3
 -22   0   3 -11.743 7.22571   2
  22   0  -3 -0.9640 10.4351   3
 -20   0   3 1.98548 6.72871   2
 -18   0   3 -1.4680 5.56999   2
  18   0  -3 -0.3210 8.57241   3
 -18   0   3 -3.5402 4.83110   4
 -16   0   3 -11.585 4.72657   2
 -16   0   3 2.62671 4.39779   4
  16   0  -3 6.42335 7.56673   3
  14   0  -3 -3.7711 5.77065   4
 -14   0   3 2.28995 3.77397   4
  14   0  -3 -13.468 6.38613   3
 -14   0   3 3.45825 4.22250   2
 -12   0   3 -0.6461 3.14038   4
 -12   0   3 4.65232 3.40211   2
  12   0  -3 2.24165 4.76583   3
  12   0  -3 0.82417 4.64320   4
 -10   0   3 3.56751 2.77813   2
 -10   0   3 2.90959 2.60489   2
  10   0  -3 -2.0137 3.75368   4
 -10   0   3 -2.2884 2.79507   4
  10   0  -3 0.48980 4.31113   3
  -8   0   3 -1.3534 2.08446   2
   8   0  -3 -2.1024 3.09402   4
  -8   0   3 3.30179 3.29351   3
   8   0  -3 8.00330 2.04922   2
  -8   0   3 -7.1585 2.61402   4
   8   0  -3 0.73668 2.95492   3
   6   0  -3 2.37921 3.06790   4
   6   0  -3 -0.7380 2.58882   3
   6   0  -3 4.01304 1.78740   2
  -6   0   3 1.92513 2.25700   3
  -6   0   3 -0.4531 1.73001   2
  -6   0   3 0.88103 3.10600   4
   4   0  -3 2.09172 1.18001   2
  -4   0   3 3.03866 1.37781   2
   4   0  -3 5.17253 2.33183   4
   4   0  -3 2.19892 1.41861   3
  -4   0   3 1.60254 1.35908   3
  -4   0   3 4.80503 2.43026   4
   2   0  -3 0.39449 1.62419   4
  -2   0   3 0.15684 1.02420   2
   2   0  -3 2.63245 1.13606   2
   2   0  -3 0.98920 0.58833   3
  -2   0   3 0.84793 0.59012   3
   0   0   3 0.30527 1.55556   4
   0   0  -3 3.80563 1.50208   4
   0   0   3 2.30553 1.05522   3
   0   0  -3 1.84115 0.86675   3
   0   0  -3 3.25382 1.29759   2
   0   0   3 1.00037 1.19456   2
   2   0   3 -3.2583 1.65336   4
   2   0   3 3.10176 1.89597   4
   2   0   3 3.26210 2.45664   3
   2   0   3 -0.4949 1.86225   2
  -2   0  -3 4.36703 2.27555   3
  -2   0  -3 -0.8367 1.95288   2
   4   0   3 8.67294 3.32376   3
   4   0   3 -2.7534 2.18561   2
  -4   0  -3 1.73752 2.76702   3
  -4   0  -3 0.34388 1.83480   4
   4   0   3 -2.3057 1.65960   4
  -4   0  -3 2.01932 2.56995   2
   6   0   3 0.01993 1.59321   4
  -6   0  -3 0.21064 1.90361   4
  -6   0  -3 -2.4098 2.46050   2
   6   0   3 1.90611 2.75280   2
  -6   0  -3 1.10436 3.57527   3
  -8   0  -3 4.57723 2.28098   4
  -8   0  -3 0.81853 3.12775   2
   8   0   3 -0.0820 2.13145   4
 -10   0  -3 -4.5665 2.63415   4
 -10   0  -3 -0.9255 3.57221   2
  10   0   3 -3.9145 3.09237   4
  10   0   3 3.63976 5.80428   3
 -12   0  -3 6.04029 4.96316   2
 -12   0  -3 -0.3405 3.24519   4
  12   0   3 -10.603 6.75587   3
 -14   0  -3 -6.0164 5.65357   2
 -14   0  -3 -4.7807 3.70226   4
  14   0   3 -6.4778 7.92249   3
 -16   0  -3 -3.9421 5.70590   2
  18   0   3 3.43714 10.1283   3
 -18   0  -3 7.27662 6.78531   2
  20   0   3 -10.465 12.7516   3
 -20   0  -3 -4.6540 8.67630   2
 -22   0  -3 -11.271 9.97248   2
  22   0   3 -12.684 14.2602   3
  24   0   3 12.9082 25.0138   3
 -24   0  -3 2.78935 12.2133   2
 -25  -1   3 16.3073 9.79265   2
  25  -1  -3 -4.3344 12.7891   3
  25   1  -3 -5.7601 12.6664   3
 -25   1   3 11.3321 9.31315   2
  23  -1  -3 51.7619 13.4731   3
 -23  -1   3 31.7717 8.91356   2
 -23   1   3 32.1354 9.05368   2
  23   1  -3 32.7846 12.3782   3
  21  -1  -3 0.48751 10.1620   3
 -21  -1   3 5.25620 6.79716   2
  21   1  -3 -6.5139 9.45162   3
 -21   1   3 7.52766 7.67723   2
  19  -1  -3 74.7187 12.2767   3
 -19  -1   3 65.8771 8.00280   2
 -19  -1   3 69.4726 8.09348   4
  19   1  -3 60.2749 11.0632   3
 -19   1   3 67.2926 8.58170   2
  17  -1  -3 274.988 21.1662   3
 -17  -1   3 252.852 18.1089   4
 -17  -1   3 287.902 18.1357   2
  17   1  -3 323.702 22.1697   3
 -17   1   3 278.158 17.1457   4
 -17   1   3 287.546 18.3552   2
  15  -1  -3 207.175 16.4580   3
  15  -1  -3 173.958 14.5374   4
 -15  -1   3 222.243 13.7369   2
 -15  -1   3 217.421 14.1983   4
 -15   1   3 189.006 13.8603   2
 -15   1   3 207.226 13.1844   4
  15   1  -3 228.569 16.3476   3
  13  -1  -3 375.226 22.7732   3
  13  -1  -3 337.616 21.6738   4
 -13  -1   3 383.012 21.7016   4
 -13  -1   3 355.963 21.1377   2
 -13   1   3 396.364 21.6229   2
  13   1  -3 326.805 22.6414   3
 -13   1   3 371.981 20.9991   4
 -11  -1   3 145.352 9.72886   2
  11  -1  -3 186.274 11.0446   3
 -11  -1   3 162.752 9.82198   2
 -11  -1   3 148.864 10.4181   4
 -11   1   3 134.524 9.92966   2
 -11   1   3 138.107 9.89012   4
  11   1  -3 163.113 11.7816   3
  11   1  -3 144.440 11.2567   4
  -9  -1   3 7.84407 2.17773   2
  -9  -1   3 5.57535 3.16113   4
  -9  -1   3 8.28801 2.20425   2
  -9  -1   3 6.22178 3.89652   3
   9  -1  -3 -4.1721 2.32576   4
   9  -1  -3 -1.3899 3.17262   3
  -9   1   3 5.23098 2.78100   2
  -9   1   3 4.26888 2.79897   2
  -9   1   3 1.15144 3.91941   3
   9   1  -3 8.39942 3.91080   4
  -9   1   3 6.04531 2.94290   4
   9   1  -3 9.12464 5.45578   3
   7  -1  -3 425.838 24.1894   4
  -7  -1   3 442.431 24.4819   4
   7  -1  -3 445.681 23.9952   2
   7  -1  -3 424.817 24.3618   3
  -7  -1   3 437.397 24.8222   3
   7   1  -3 402.734 24.3908   3
   7   1  -3 421.545 24.5095   4
  -7   1   3 436.393 24.6535   3
   7   1  -3 438.227 23.6491   2
  -7   1   3 446.325 24.3782   4
   5  -1  -3 963.535 52.6734   2
   5  -1  -3 976.105 52.8864   3
  -5  -1   3 977.448 53.0697   4
  -5  -1   3 945.932 52.8709   3
   5  -1  -3 967.019 52.8715   4
   5   1  -3 994.045 52.9482   3
  -5   1   3 989.488 53.0149   4
  -5   1   3 999.657 52.7276   2
   5   1  -3 967.620 53.1901   4
  -5   1   3 979.774 52.8957   3
   5   1  -3 960.472 52.3550   2
   3  -1  -3 58.0061 4.37776   4
   3  -1  -3 54.5902 3.93915   2
  -3  -1   3 48.5617 3.81140   3
  -3  -1   3 68.8645 4.88443   4
  -3   1   3 54.6551 3.82287   2
   3   1  -3 52.1773 3.37718   2
   3   1  -3 53.0163 3.73200   3
  -3   1   3 56.3084 4.32844   4
  -3   1   3 48.3034 3.74665   3
   3   1  -3 55.9265 4.72228   4
   1  -1  -3 1214.19 65.9640   2
  -1  -1   3 1219.93 65.8893   2
  -1  -1   3 1252.63 66.0347   3
  -1  -1   3 1232.53 66.2247   4
   1   1  -3 1226.40 65.8977   2
  -1   1   3 1252.08 65.6464   3
  -1   1   3 1187.58 65.9536   2
   1   1  -3 1213.80 66.2645   4
   1   1  -3 1244.30 66.0462   3
  -1   1   3 1221.82 65.6363   3
  -1   1   3 1221.20 66.2387   4
  -1   1   3 1230.88 66.1622   4
  -1  -1  -3 106.386 6.88157   4
   1  -1   3 104.570 7.14131   3
   1  -1   3 109.091 6.77737   2
  -1  -1  -3 113.051 6.73459   2
   1  -1   3 116.957 7.08025   4
  -1   1  -3 103.512 6.96976   3
   1   1   3 99.8391 6.55787   2
   1   1   3 107.055 7.01685   4
  -1   1  -3 111.379 6.91308   4
   1   1   3 107.455 6.42525   3
  -1   1  -3 96.1108 6.63486   2
   3  -1   3 106.542 6.45021   4
   3  -1   3 92.7216 6.67080   2
   3  -1   3 95.8209 7.72774   3
  -3  -1  -3 92.0456 6.67444   3
  -3  -1  -3 105.226 6.86349   4
  -3  -1  -3 88.1074 6.41424   2
  -3   1  -3 101.745 6.13118   4
   3   1   3 97.2764 6.95914   3
   3   1   3 98.5678 6.68331   2
  -3   1  -3 101.884 6.99139   2
   3   1   3 96.1268 6.67131   4
  -3   1  -3 108.132 7.69945   3
   5  -1   3 425.059 24.3796   2
   5  -1   3 429.942 23.5360   4
   5  -1   3 459.634 24.9107   3
  -5  -1  -3 425.956 24.8317   3
  -5  -1  -3 430.827 24.1332   4
  -5  -1  -3 429.848 24.1686   2
   5  -1   3 426.593 23.6776   4
   5   1   3 431.738 24.1842   4
  -5   1  -3 444.870 24.7489   3
   5   1   3 419.733 24.6547   3
   5   1   3 458.178 24.5653   2
  -5   1  -3 413.816 24.2970   2
   7  -1   3 2085.42 110.953   4
  -7  -1  -3 2083.70 111.457   4
  -7  -1  -3 2033.67 112.062   3
   7  -1   3 2052.40 110.844   4
   7  -1   3 2036.03 112.275   3
  -7  -1  -3 2063.00 111.574   2
   7   1   3 2068.89 111.729   4
   7   1   3 2042.35 111.509   2
  -7   1  -3 2011.06 111.730   2
   7   1   3 2214.86 113.062   3
  -9  -1  -3 8.07065 3.56839   2
  -9  -1  -3 6.57618 3.27767   4
   9  -1   3 14.1177 5.90076   3
   9  -1   3 9.39209 2.26051   4
   9  -1   3 9.34006 2.31884   4
   9   1   3 12.2502 4.05840   4
  -9   1  -3 15.0601 4.06459   2
   9   1   3 11.1169 5.08341   3
 -11  -1  -3 71.7355 7.59982   4
  11  -1   3 78.4453 6.16379   4
  11  -1   3 100.336 10.4450   3
  11  -1   3 70.8489 5.87329   4
 -11  -1  -3 97.0940 8.03769   2
  11   1   3 91.0541 9.50538   3
 -11   1  -3 70.7371 7.73284   2
  11   1   3 78.5835 7.56938   4
  13  -1   3 86.6138 11.1827   3
 -13  -1  -3 88.5336 8.05729   4
 -13  -1  -3 106.885 9.27805   2
  13  -1   3 87.1209 7.12762   4
 -13   1  -3 118.275 9.72366   2
  13   1   3 117.296 12.2109   3
 -15  -1  -3 45.7694 7.20682   2
 -15  -1  -3 44.8351 6.47595   4
  15  -1   3 48.7901 10.5717   3
  15   1   3 35.1514 9.53439   3
 -15   1  -3 55.3310 7.62489   2
  17  -1   3 193.824 19.0858   3
 -17  -1  -3 223.159 16.5426   4
 -17  -1  -3 224.677 16.5644   2
  17   1   3 335.749 19.2689   3
 -17   1  -3 197.244 17.0781   2
  19  -1   3 126.085 16.0034   3
 -19  -1  -3 82.4829 11.4267   2
 -19   1  -3 112.665 12.4253   2
  19   1   3 87.9981 14.5684   3
 -21  -1  -3 8.38485 9.25094   2
  21  -1   3 10.3687 13.6369   3
 -21   1  -3 30.8291 10.4499   2
  21   1   3 24.0912 13.0349   3
 -23  -1  -3 49.4697 12.2512   2
  23  -1   3 28.8957 15.7501   3
 -23   1  -3 27.5823 11.5141   2
  23   1   3 16.0770 16.3554   3
  26  -2  -3 35.7880 15.2765   3
 -26   2   3 42.9050 12.3988   2
  26   2  -3 28.4794 27.2254   3
  24  -2  -3 93.8068 15.7087   3
 -24   2   3 77.1534 12.2444   2
  24   2  -3 73.0664 15.0253   3
  22  -2  -3 5.33123 10.7932   3
 -22  -2   3 21.5138 12.5721   4
 -22  -2   3 -7.2004 7.12775   2
  22   2  -3 0.68165 10.0206   3
 -22   2   3 1.40868 8.34119   2
 -20  -2   3 50.9627 8.29687   4
 -20  -2   3 49.0038 7.68285   2
  20  -2  -3 56.1544 12.3379   3
 -20   2   3 57.5444 8.94104   2
  20   2  -3 35.6710 10.6565   3
 -18  -2   3 403.403 25.7856   4
 -18  -2   3 422.097 25.1823   2
  18  -2  -3 432.339 29.3267   3
 -18   2   3 429.071 26.4890   2
 -16  -2   3 403.989 22.9356   2
  16  -2  -3 402.600 25.8635   3
 -16  -2   3 399.487 23.7915   4
 -16   2   3 383.696 23.6599   2
 -16   2   3 369.891 21.9362   4
  16   2  -3 352.777 25.8482   3
 -14  -2   3 1002.36 52.1467   2
  14  -2  -3 931.825 51.9680   4
  14  -2  -3 1011.91 54.4268   3
 -14  -2   3 900.020 51.9317   2
 -14  -2   3 976.990 53.0383   4
 -14   2   3 949.357 51.7293   4
  14   2  -3 875.983 53.7671   3
 -14   2   3 951.546 52.8803   2
 -12  -2   3 288.475 15.8921   2
 -12  -2   3 280.538 16.0026   2
  12  -2  -3 273.010 18.6254   3
  12  -2  -3 272.793 16.1611   4
 -12  -2   3 266.747 17.0276   4
 -12   2   3 256.513 16.7741   2
 -12   2   3 270.573 16.0930   4
  12   2  -3 273.441 17.8749   3
  10  -2  -3 159.276 9.99524   4
 -10  -2   3 157.856 9.34793   2
 -10  -2   3 165.130 9.61128   2
 -10  -2   3 154.973 11.2188   4
  10  -2  -3 150.856 11.9903   3
 -10   2   3 159.546 10.5186   2
  10   2  -3 158.218 11.2098   3
 -10   2   3 151.027 10.4201   4
   8  -2  -3 305.456 17.5623   2
  -8  -2   3 307.317 16.8532   2
  -8  -2   3 297.525 18.1929   4
  -8  -2   3 304.941 16.7769   2
   8  -2  -3 268.253 17.2806   4
   8  -2  -3 346.571 18.5568   3
  -8  -2   3 294.236 18.1132   3
   8   2  -3 331.776 18.9896   3
  -8   2   3 300.829 17.6910   2
   8   2  -3 311.153 18.3188   4
  -8   2   3 305.570 17.6844   4
  -8   2   3 316.188 18.7030   3
   6  -2  -3 229.508 13.4844   4
  -6  -2   3 206.869 13.8427   3
  -6  -2   3 257.033 14.4826   4
   6  -2  -3 254.591 14.2565   3
  -6  -2   3 232.338 12.7812   2
   6  -2  -3 235.094 13.5769   2
  -6   2   3 234.603 13.8134   4
  -6   2   3 228.458 14.2636   3
   6   2  -3 238.072 13.9378   3
  -6   2   3 232.351 13.6637   2
   6   2  -3 233.559 14.3420   4
   4  -2  -3 71.2949 5.03684   2
  -4  -2   3 84.3381 5.63638   3
  -4  -2   3 76.6462 6.22069   4
   4  -2  -3 67.1958 5.33067   3
  -4  -2   3 64.2904 4.13700   2
  -4   2   3 65.9710 5.50597   4
   4   2  -3 70.7267 4.09824   2
  -4   2   3 81.6002 5.53848   4
  -4   2   3 75.2585 5.29708   2
   4   2  -3 69.8906 5.27596   3
  -4   2   3 68.7996 5.55486   3
   4   2  -3 69.9952 6.28791   4
  -2  -2   3 17.7372 3.20409   4
   2  -2  -3 22.4187 2.67651   2
  -2  -2   3 20.0579 3.00607   3
   2  -2  -3 20.2431 2.50099   3
  -2  -2   3 20.8093 1.98876   2
   2  -2  -3 18.0953 2.96655   4
   2   2  -3 23.5572 2.19406   2
  -2   2   3 14.4009 2.90834   4
   2   2  -3 23.5163 3.31928   3
   2   2  -3 20.8390 3.84654   4
  -2   2   3 22.3274 2.59053   2
  -2   2   3 22.5650 2.74084   3
   0  -2   3 336.540 18.6539   2
   0  -2   3 328.823 19.1275   3
   0  -2  -3 347.484 18.6833   2
   0  -2   3 333.986 18.9633   4
   0  -2  -3 353.844 19.0781   4
   0   2   3 340.827 18.5548   3
   0   2  -3 327.450 19.1717   3
   0   2  -3 339.464 18.6770   2
   0   2   3 341.407 19.0683   4
   0   2  -3 325.291 19.0574   4
   0   2   3 334.230 18.6475   2
   0   2   3 322.345 18.5821   3
   2  -2   3 26.7765 3.62586   3
   2  -2   3 10.8794 2.34356   4
  -2  -2  -3 10.8661 2.26079   2
  -2  -2  -3 12.8714 2.19735   3
  -2  -2  -3 13.1550 2.78625   4
   2  -2   3 13.4794 2.60316   2
   2   2   3 13.0760 2.32606   3
   2   2   3 14.5683 2.39657   2
  -2   2  -3 14.4203 3.66862   3
   2   2   3 12.6278 3.14764   4
  -2   2  -3 15.3610 2.94646   2
  -2   2  -3 18.0166 2.92005   4
  -4  -2  -3 610.200 34.2072   3
   4  -2   3 667.184 34.8997   3
  -4  -2  -3 627.758 34.2828   4
   4  -2   3 594.262 34.1760   2
  -4  -2  -3 606.370 33.9049   2
  -4   2  -3 633.936 34.3308   2
   4   2   3 621.819 33.9477   2
  -4   2  -3 652.392 34.8994   3
   4   2   3 589.011 34.3066   4
  -4   2  -3 604.155 33.5785   4
   4   2   3 622.272 34.2811   3
  -6  -2  -3 802.368 45.3014   3
   6  -2   3 830.408 43.9706   4
  -6  -2  -3 805.614 45.1087   4
   6  -2   3 852.738 45.8713   3
   6  -2   3 812.327 43.9931   4
  -6  -2  -3 851.382 44.8669   2
   6   2   3 849.031 45.5839   3
   6   2   3 814.018 45.2602   4
   6   2   3 771.121 44.8205   2
  -6   2  -3 816.452 45.2830   2
   8  -2   3 503.015 29.9590   3
  -8  -2  -3 532.171 29.1902   2
  -8  -2  -3 514.449 28.9163   4
   8   2   3 487.640 29.6415   3
   8   2   3 483.957 28.6174   2
   8   2   3 514.112 29.4946   4
  -8   2  -3 526.390 29.1188   2
 -10  -2  -3 304.099 18.8135   2
  10  -2   3 346.211 20.9129   3
 -10  -2  -3 294.430 18.8904   4
  10   2   3 356.197 20.8349   3
 -10   2  -3 296.378 19.2547   2
  12  -2   3 197.380 16.1569   3
 -12  -2  -3 161.509 12.5632   4
 -12  -2  -3 197.365 12.9855   2
  12   2   3 197.279 15.4866   3
 -12   2  -3 168.660 13.1273   2
  14  -2   3 49.6764 10.7599   3
 -14  -2  -3 42.7658 7.11979   2
 -14  -2  -3 41.0392 6.55954   4
 -14   2  -3 45.1574 7.45165   2
  14   2   3 38.6373 10.3966   3
 -16  -2  -3 426.816 25.1341   2
 -16  -2  -3 396.476 24.7003   4
  16  -2   3 377.402 27.7528   3
 -16   2  -3 393.634 25.7530   2
  16   2   3 402.703 27.4392   3
 -18  -2  -3 214.325 16.1932   4
 -18  -2  -3 219.722 16.5054   2
  18  -2   3 199.228 19.3543   3
  18   2   3 233.513 19.7226   3
 -18   2  -3 207.732 17.3050   2
  20  -2   3 30.1291 13.1106   3
 -20  -2  -3 25.4300 8.89498   2
 -20   2  -3 10.6251 9.10637   2
  20   2   3 30.4365 11.8773   3
  22  -2   3 47.4154 14.2785   3
 -22  -2  -3 44.0294 11.1260   2
 -22   2  -3 70.6665 11.5446   2
  22   2   3 69.1000 17.2139   3
  25  -3  -3 -13.679 12.9571   3
  25   3  -3 1.10367 12.6917   3
 -25   3   3 -12.623 10.0002   2
  23  -3  -3 65.4050 15.4022   3
 -23  -3   3 96.4262 12.7857   4
  23   3  -3 72.0400 14.5761   3
 -23   3   3 68.5603 11.4074   2
  21  -3  -3 10.5232 10.6125   3
 -21  -3   3 19.0000 8.33468   4
 -21   3   3 8.61649 8.74218   2
  21   3  -3 19.9391 12.6474   3
 -19  -3   3 -1.6990 6.35720   4
  19  -3  -3 5.12603 9.16538   3
 -19  -3   3 -10.369 5.26091   2
 -19   3   3 -0.2991 6.49133   2
  19   3  -3 8.97353 9.17083   3
 -17  -3   3 469.414 28.7028   4
 -17  -3   3 470.078 27.1465   2
  17  -3  -3 485.298 30.5181   3
  17   3  -3 437.789 30.7050   3
 -17   3   3 467.082 28.8636   2
  15  -3  -3 193.865 16.2051   3
 -15  -3   3 188.945 13.8533   4
 -15   3   3 161.407 10.4566   4
  15   3  -3 169.858 14.8326   3
 -15   3   3 155.168 12.7959   2
  13  -3  -3 35.9088 7.80234   3
 -13  -3   3 48.1672 4.53967   2
 -13  -3   3 55.0704 4.83422   2
 -13  -3   3 41.2961 6.60097   4
 -13   3   3 37.5613 6.15231   2
  13   3  -3 45.6646 7.23961   3
 -13   3   3 48.9700 4.47758   4
 -13   3   3 49.5270 4.91344   4
 -11  -3   3 246.586 14.1808   2
 -11  -3   3 250.657 14.3550   2
 -11  -3   3 264.173 16.5723   4
  11  -3  -3 249.837 16.8653   3
 -11   3   3 241.674 14.5556   4
 -11   3   3 261.947 15.8423   2
  11   3  -3 257.589 16.8093   3
 -11   3   3 250.698 15.1967   4
   9  -3  -3 197.319 13.4274   3
   9  -3  -3 203.458 12.2379   2
  -9  -3   3 187.490 12.7776   4
  -9  -3   3 187.806 10.6156   2
  -9  -3   3 186.423 10.7134   2
  -9   3   3 186.030 11.4762   4
  -9   3   3 180.156 11.9056   4
   9   3  -3 213.586 12.8661   3
  -7  -3   3 108.037 8.42756   4
   7  -3  -3 108.238 8.32111   3
   7  -3  -3 93.7462 7.04916   2
  -7   3   3 100.621 7.29115   4
  -7   3   3 100.909 6.98783   4
  -7   3   3 95.9854 8.22551   3
   7   3  -3 89.7751 7.49208   3
   5  -3  -3 912.291 50.3005   2
  -5  -3   3 872.595 50.7074   3
  -5  -3   3 961.362 50.9352   4
   5  -3  -3 943.714 50.5898   3
  -5   3   3 937.122 50.3212   4
  -5   3   3 925.909 50.4607   4
  -5   3   3 916.395 50.7108   3
   5   3  -3 929.539 50.7825   3
   5   3  -3 916.026 50.9370   4
  -5   3   3 922.051 50.3594   2
  -3  -3   3 597.179 32.6187   2
  -3  -3   3 613.302 33.7054   4
   3  -3  -3 606.549 33.4412   4
   3  -3  -3 592.505 33.3499   3
   3  -3  -3 611.152 33.1956   2
   3   3  -3 603.967 33.8495   4
   3   3  -3 616.565 32.6487   2
   3   3  -3 616.941 33.7122   3
  -3   3   3 600.775 33.4664   4
   3   3  -3 617.696 33.7158   3
  -3   3   3 581.338 33.4404   3
  -1  -3   3 405.193 22.8327   3
   1  -3  -3 412.814 22.8209   4
  -1  -3   3 388.968 22.6171   4
   1  -3  -3 379.738 22.2084   2
   1  -3  -3 394.536 22.3420   3
   1   3  -3 420.834 22.1142   2
   1   3  -3 400.194 22.8829   4
  -1   3   3 390.141 22.2834   2
  -1   3   3 415.914 22.8147   4
  -1   3   3 395.833 22.5156   3
   1   3  -3 412.393 23.0331   3
   1  -3   3 325.443 18.7262   2
  -1  -3  -3 340.967 18.5464   2
  -1  -3  -3 328.740 19.1777   4
   1  -3   3 333.088 19.5545   3
   1  -3   3 342.780 18.8233   4
   1   3   3 319.212 18.5845   2
   1   3   3 330.723 18.8516   3
  -1   3  -3 335.785 19.5835   3
   1   3   3 348.267 19.4903   4
  -1   3  -3 316.040 18.7136   2
   1   3   3 343.575 18.8367   3
  -1   3  -3 324.785 18.9590   4
   3  -3   3 702.259 39.9153   2
   3  -3   3 747.514 39.5299   4
  -3  -3  -3 751.211 39.5666   2
   3   3   3 726.761 40.0116   3
  -3   3  -3 740.601 40.7165   3
   3   3   3 728.224 40.3679   4
  -3   3  -3 705.638 39.6590   4
  -3   3  -3 727.178 39.9209   2
   3   3   3 706.155 39.5861   2
  -5  -3  -3 32.4392 4.68537   3
   5  -3   3 42.9255 5.82015   3
  -5  -3  -3 37.3584 4.97765   4
  -5  -3  -3 33.9728 3.72074   2
   5  -3   3 37.7307 2.96069   4
   5   3   3 28.5361 4.24145   3
  -5   3  -3 34.9958 3.52718   4
   5   3   3 34.8254 3.97443   2
  -5   3  -3 30.5541 4.50790   2
  -7  -3  -3 456.411 24.9864   2
  -7  -3  -3 441.378 25.8102   4
   7  -3   3 436.598 26.4259   3
  -7   3  -3 440.161 25.6068   2
   7   3   3 463.056 25.9695   3
   7   3   3 422.711 25.0377   2
   9  -3   3 575.049 33.1226   3
  -9  -3  -3 560.631 32.0694   4
  -9  -3  -3 564.044 31.2444   2
   9   3   3 538.110 32.6899   3
  -9   3  -3 560.431 31.9993   2
   9   3   3 542.783 31.4405   2
 -11  -3  -3 0.90842 4.19495   2
 -11  -3  -3 2.83799 4.95877   4
  11  -3   3 16.0634 7.43342   3
  11   3   3 -2.1957 5.95180   3
 -11   3  -3 6.12647 5.22118   2
  13  -3   3 15.3517 8.76064   3
 -13  -3  -3 7.34262 5.53627   4
 -13  -3  -3 20.6881 5.59028   2
  13   3   3 25.6900 9.05764   3
 -13   3  -3 17.2368 6.41083   2
 -15  -3  -3 246.422 17.2172   4
 -15  -3  -3 251.344 17.1654   2
  15  -3   3 255.677 20.0418   3
 -15   3  -3 248.824 17.7393   2
  15   3   3 238.399 20.2642   3
  17  -3   3 58.0673 12.9451   3
 -17  -3  -3 53.7073 8.44332   2
 -17  -3  -3 37.4076 8.09327   4
 -17   3  -3 53.0629 8.85236   2
  17   3   3 45.0003 11.2512   3
 -19  -3  -3 46.0176 9.04819   4
 -19  -3  -3 47.6158 9.31076   2
  19  -3   3 22.6270 11.2372   3
 -19   3  -3 31.8835 9.30211   2
  19   3   3 39.0043 12.5432   3
  21  -3   3 19.9172 12.5710   3
 -21   3  -3 46.9238 11.4340   2
  21   3   3 54.9116 15.6684   3
 -23   3  -3 27.3677 12.9140   2
  24  -4  -3 0.00081 13.6053   3
 -24   4   3 10.4377 10.0872   2
  24   4  -3 -15.089 12.4996   3
 -22  -4   3 -4.4316 8.71762   4
  22  -4  -3 -14.511 11.3647   3
  22   4  -3 -10.234 12.6769   3
 -22   4   3 -0.6943 8.09632   2
  20  -4  -3 19.0100 10.3844   3
 -20  -4   3 -5.2920 7.48901   4
  20   4  -3 9.45103 10.0490   3
 -20   4   3 1.57232 7.74271   2
 -18  -4   3 1.18469 7.04320   4
  18  -4  -3 1.08344 8.20843   3
 -18   4   3 7.01243 6.99631   2
  18   4  -3 5.59564 8.30855   3
 -16  -4   3 39.7537 8.29198   4
 -16  -4   3 48.0016 5.56531   2
  16  -4  -3 41.9290 10.1921   3
 -16   4   3 35.7407 7.26813   2
  16   4  -3 43.6749 10.1818   3
 -14  -4   3 15.7621 6.69025   4
 -14  -4   3 13.5628 3.45416   2
  14  -4  -3 9.68203 7.20345   3
 -14   4   3 8.62296 3.69400   4
  14   4  -3 12.8763 6.75870   3
 -14   4   3 13.9223 5.73966   2
 -12  -4   3 17.3289 2.68439   2
 -12  -4   3 21.5114 2.52567   2
 -12  -4   3 12.3313 6.14271   4
  12  -4  -3 7.82261 6.44691   3
 -12   4   3 23.4930 3.74492   4
  12   4  -3 22.3017 5.90862   3
 -12   4   3 21.2816 4.67172   4
 -12   4   3 19.1868 5.38474   2
  10  -4  -3 0.60824 5.52711   3
 -10  -4   3 -0.9244 4.52212   4
 -10   4   3 -0.5317 3.55737   4
  10   4  -3 1.68734 4.08888   3
 -10   4   3 -6.0407 4.09751   2
 -10   4   3 -2.5481 3.12506   4
   8  -4  -3 90.5606 7.12971   2
   8  -4  -3 81.0465 7.92737   3
  -8  -4   3 70.6261 7.65077   4
  -8   4   3 93.0929 7.34594   4
  -8   4   3 92.8379 6.93254   4
   8   4  -3 95.8045 8.18060   3
  -6  -4   3 168.558 12.2152   4
   6  -4  -3 178.205 12.2879   3
   6  -4  -3 184.526 11.4925   2
  -6   4   3 178.857 13.1798   3
   6   4  -3 185.193 11.9972   3
  -6   4   3 167.515 11.4229   4
  -6   4   3 203.557 11.6790   4
  -4  -4   3 4.72700 3.88223   4
   4  -4  -3 7.97099 3.24414   4
   4  -4  -3 11.1526 3.61401   3
   4   4  -3 6.18182 1.18106   2
  -4   4   3 3.30988 3.23047   2
  -4   4   3 7.43438 3.96514   3
   4   4  -3 6.71598 3.04463   3
  -4   4   3 10.4907 3.73331   4
   4   4  -3 4.22018 1.32530   2
   2  -4  -3 204.458 12.5993   4
   2  -4  -3 209.912 11.8814   2
   2  -4  -3 208.224 12.3585   3
  -2  -4   3 186.569 12.5936   3
  -2  -4   3 197.138 12.7999   4
   2   4  -3 209.807 11.4882   2
   2   4  -3 196.135 12.8334   4
  -2   4   3 186.809 12.0558   2
   2   4  -3 189.507 11.3121   2
  -2   4   3 199.465 12.8139   3
  -2   4   3 197.426 12.9227   4
   0  -4  -3 10.9698 2.37434   2
   0  -4   3 14.2824 2.65624   2
   0  -4  -3 7.12386 3.29206   4
   0  -4   3 17.5408 3.50718   4
   0  -4   3 8.44470 3.92352   3
   0   4  -3 8.28191 3.61282   4
   0   4   3 13.8981 3.02157   3
   0   4  -3 12.5629 2.66795   2
   0   4   3 15.5440 3.73359   3
   2  -4   3 1.69382 3.47737   3
  -2  -4  -3 -1.5347 2.94429   4
  -2  -4  -3 4.72789 2.10469   2
   2  -4   3 5.36715 3.01899   2
   2  -4   3 -0.3064 2.51283   4
  -2   4  -3 2.64569 3.37256   4
   2   4   3 0.07405 2.60460   3
   2   4   3 -1.2143 2.41723   2
   2   4   3 0.61150 3.19861   3
  -2   4  -3 1.77154 2.77963   2
   4  -4   3 1.66228 2.29415   4
   4  -4   3 6.35111 4.23772   3
  -4  -4  -3 0.50277 2.26741   2
  -4  -4  -3 1.66908 4.22611   3
  -4  -4  -3 0.91918 3.65634   4
   4   4   3 2.28932 2.82115   3
  -4   4  -3 -2.9554 2.96029   2
  -4   4  -3 4.45270 3.21310   4
   4   4   3 1.66480 2.84738   2
  -6  -4  -3 86.6674 6.39509   2
   6  -4   3 102.129 9.05804   3
   6  -4   3 80.5446 5.66500   4
  -6  -4  -3 67.7178 7.47571   4
  -6   4  -3 91.0629 6.45971   4
   6   4   3 80.2283 7.71873   3
  -6   4  -3 89.2396 7.64573   2
   6   4   3 85.3254 6.72289   2
  -8  -4  -3 3.43204 5.01976   4
   8  -4   3 1.30692 6.30785   3
  -8  -4  -3 6.57938 3.40292   2
   8   4   3 3.91063 4.01037   2
   8   4   3 10.9929 5.27835   3
  -8   4  -3 6.65616 4.89928   2
 -10  -4  -3 36.1115 6.49682   4
 -10  -4  -3 43.9499 5.22933   2
  10  -4   3 34.9097 8.30117   3
  10   4   3 50.9143 7.58741   3
 -10   4  -3 27.4374 6.48375   2
  12  -4   3 94.4043 11.9960   3
 -12  -4  -3 62.2204 8.27057   4
 -12  -4  -3 81.0547 7.40907   2
  12   4   3 81.9541 9.93561   3
 -12   4  -3 43.4998 8.12198   2
 -14  -4  -3 21.5019 6.39318   4
  14  -4   3 21.5838 8.72191   3
 -14  -4  -3 20.2712 5.82431   2
  14   4   3 24.5821 8.77688   3
 -14   4  -3 25.7821 7.75683   2
 -16  -4  -3 7.07689 6.73255   4
  16  -4   3 -5.6095 8.57045   3
 -16  -4  -3 5.81465 6.12736   2
  16   4   3 7.15471 10.4068   3
 -16   4  -3 -10.274 7.20440   2
 -18  -4  -3 2.41233 8.02741   4
  18  -4   3 7.10600 10.7147   3
 -18   4  -3 17.9007 8.32871   2
  18   4   3 -15.379 11.2911   3
  20  -4   3 1.67784 11.4331   3
 -20  -4  -3 -1.0346 8.97134   4
  20   4   3 -8.5603 11.6376   3
 -20   4  -3 10.8644 10.5352   2
  22  -4   3 3.77454 14.1109   3
 -22   4  -3 0.42172 10.4548   2
  22   4   3 -5.0239 15.3543   3
  23  -5  -3 49.2222 15.0754   3
 -23  -5   3 17.8799 10.8628   4
  23   5  -3 24.1751 15.4478   3
 -23   5   3 11.4680 11.0453   2
 -21  -5   3 2.12370 9.30889   4
  21  -5  -3 -0.3593 11.6862   3
 -21   5   3 -6.2725 8.68790   2
  21   5  -3 -15.292 10.3966   3
 -19  -5   3 43.3155 10.0757   4
  19  -5  -3 28.8206 11.9767   3
 -19   5   3 56.7711 10.0364   2
  19   5  -3 48.6987 11.6983   3
  17  -5  -3 461.865 29.8232   3
 -17  -5   3 427.065 27.8816   4
  17   5  -3 375.232 28.2819   3
 -17   5   3 448.951 27.3139   2
 -15  -5   3 66.5578 9.26866   4
  15  -5  -3 61.9021 10.0717   3
 -15   5   3 67.3384 12.3739   2
 -13  -5   3 375.475 22.5794   4
  13  -5  -3 314.414 23.5068   3
 -13   5   3 330.299 20.4679   4
  13   5  -3 351.130 23.2302   3
 -13   5   3 336.856 22.1927   2
  11  -5  -3 32.3064 7.68668   3
 -11  -5   3 28.4682 6.59690   4
 -11   5   3 27.3404 5.16175   4
 -11   5   3 12.6264 5.35139   2
  11   5  -3 29.6297 7.19156   3
   9  -5  -3 214.592 15.4476   3
  -9  -5   3 223.196 15.4978   4
  -9   5   3 212.401 14.6310   2
  -9   5   3 244.994 14.4034   4
  -9   5   3 217.235 14.0831   4
   9   5  -3 208.479 15.1730   3
  -7  -5   3 97.5502 9.34636   4
   7  -5  -3 86.3975 8.66121   3
   7  -5  -3 73.0140 7.13306   2
  -7   5   3 91.7529 7.64940   4
   7   5  -3 87.9627 8.34818   3
  -7   5   3 84.1219 7.45694   4
   5  -5  -3 172.810 11.0851   2
  -5  -5   3 167.402 12.6859   4
   5  -5  -3 173.735 11.6390   4
   5  -5  -3 176.338 12.4119   3
   5   5  -3 196.689 12.3907   3
  -5   5   3 161.972 12.7369   4
   3  -5  -3 313.202 18.3737   4
   3  -5  -3 301.598 17.6218   2
   3  -5  -3 314.721 18.3673   3
  -3  -5   3 312.137 18.5611   4
   3   5  -3 301.712 18.6962   3
   3   5  -3 298.541 16.9152   2
   3   5  -3 288.402 16.8284   2
  -1  -5   3 17.5004 4.54436   3
   1  -5  -3 17.8460 4.32661   4
  -1  -5   3 14.4874 3.97760   4
   1  -5  -3 26.4987 3.35688   2
  -1   5   3 24.7167 3.95874   2
   1   5  -3 30.3713 3.41165   2
  -1   5   3 16.3474 4.09225   3
   1   5  -3 21.7329 3.19959   2
  -1  -5  -3 177.269 11.3419   4
   1  -5   3 166.703 11.4469   4
  -1  -5  -3 166.074 9.94789   2
   1  -5   3 176.410 11.8415   3
   1   5   3 153.575 10.3159   2
  -1   5  -3 162.860 10.4952   2
   1   5   3 157.682 11.0053   3
  -1   5  -3 137.255 11.3885   4
  -1   5  -3 154.112 10.3394   2
   3  -5   3 416.885 23.1806   4
   3  -5   3 409.253 24.3633   3
  -3  -5  -3 418.027 22.6103   2
  -3  -5  -3 397.694 23.9467   4
   3   5   3 393.916 23.6543   3
  -3   5  -3 382.424 23.1020   2
   3   5   3 392.991 22.8114   2
  -3   5  -3 409.531 23.5628   4
   5  -5   3 98.8675 7.01852   4
  -5  -5  -3 76.4401 8.43999   4
  -5  -5  -3 94.7948 6.75755   2
   5  -5   3 79.6596 8.98718   3
   5   5   3 113.287 8.81697   3
  -5   5  -3 84.3022 7.62440   2
  -5   5  -3 84.6953 7.40725   4
   5   5   3 86.0226 7.06224   2
   7  -5   3 462.829 26.4696   4
   7  -5   3 506.020 29.3693   3
  -7  -5  -3 481.807 28.6564   4
  -7  -5  -3 487.404 26.8286   2
  -7   5  -3 469.765 27.1225   4
  -7   5  -3 487.244 28.0584   2
   7   5   3 462.072 27.2278   2
   7   5   3 503.510 28.4082   3
   9  -5   3 520.843 31.6309   3
  -9  -5  -3 509.680 28.3160   2
  -9  -5  -3 524.993 30.2884   4
   9   5   3 479.900 30.1259   3
  -9   5  -3 479.155 29.6727   2
  11  -5   3 81.3401 11.4068   3
 -11  -5  -3 58.0046 6.14997   2
 -11  -5  -3 60.8632 8.34239   4
  11   5   3 45.7164 9.30743   3
 -11   5  -3 54.5177 8.09914   2
 -13  -5  -3 47.5164 6.14559   2
  13  -5   3 46.0840 10.8506   3
 -13  -5  -3 45.4571 8.66993   4
 -13   5  -3 35.1913 7.83840   2
  13   5   3 57.9466 9.91597   3
 -15  -5  -3 342.226 22.7953   4
  15  -5   3 306.242 24.2486   3
  15   5   3 327.502 24.3111   3
 -15   5  -3 324.554 23.0177   2
 -17  -5  -3 269.877 20.7808   4
  17  -5   3 311.602 23.3385   3
  17   5   3 234.184 22.4264   3
 -17   5  -3 285.754 21.5754   2
 -19  -5  -3 18.6116 9.89259   4
  19  -5   3 10.9339 11.8186   3
 -19   5  -3 20.0140 9.55243   2
  19   5   3 12.9966 12.3952   3
 -21  -5  -3 -1.1366 10.8250   4
  21  -5   3 22.8140 14.3763   3
  21   5   3 5.87432 14.2856   3
 -21   5  -3 1.68850 11.3806   2
 -22  -6   3 33.7447 11.5051   4
  22  -6  -3 50.4778 13.8381   3
 -22   6   3 56.8637 12.4309   2
  22   6  -3 60.5921 16.2139   3
 -20  -6   3 3.20589 10.1383   4
  20  -6  -3 34.7761 11.7042   3
  20   6  -3 10.3201 12.3200   3
 -20   6   3 25.4110 10.7649   2
  18  -6  -3 152.415 16.2320   3
 -18  -6   3 140.124 14.7253   4
 -18   6   3 114.588 13.7585   2
  18   6  -3 129.035 15.9483   3
 -16  -6   3 419.816 27.3772   4
  16  -6  -3 428.997 28.2937   3
 -16   6   3 391.068 26.7261   2
  16   6  -3 429.959 28.3296   3
  14  -6  -3 374.133 24.4444   3
 -14  -6   3 359.928 23.9042   4
 -14   6   3 358.579 23.1739   2
  14   6  -3 332.635 24.0663   3
  12  -6  -3 99.1702 11.4318   3
 -12  -6   3 155.193 13.3722   4
 -12   6   3 104.329 10.9820   2
 -12   6   3 103.624 9.37294   4
  12   6  -3 115.360 11.9675   3
 -10  -6   3 120.196 12.1332   4
  10  -6  -3 166.586 13.5636   3
 -10   6   3 150.916 12.1188   2
  10   6  -3 142.942 12.6859   3
 -10   6   3 131.408 10.7090   4
   8  -6  -3 78.9760 9.12135   3
  -8  -6   3 73.5555 9.28804   4
  -8   6   3 66.7694 8.14731   2
   8   6  -3 93.6595 8.97297   3
  -8   6   3 79.1979 7.82511   4
   6  -6  -3 70.1024 6.92631   4
   6  -6  -3 59.7569 7.35407   3
   6  -6  -3 58.9557 6.05258   2
  -6  -6   3 60.0178 7.72593   4
   6   6  -3 53.9379 7.34453   3
  -4  -6   3 605.937 34.8972   4
   4  -6  -3 589.048 34.1277   4
   4  -6  -3 588.508 34.2733   3
   4  -6  -3 625.197 33.6111   2
   4   6  -3 611.224 35.1316   3
   4   6  -3 579.723 32.5725   2
   4   6  -3 598.104 32.5603   2
   2  -6  -3 72.2050 7.54642   3
   2  -6  -3 59.3298 7.27314   4
   2  -6  -3 65.3540 5.95424   2
  -2  -6   3 92.3859 8.53710   4
   2   6  -3 67.3851 5.56678   2
   2   6  -3 62.0020 5.46239   2
   2   6  -3 82.1606 8.52024   3
   0  -6   3 64.7089 7.08570   4
   0  -6   3 42.5448 6.93502   3
   0  -6  -3 55.7864 6.89597   4
   0  -6  -3 63.4170 5.28726   2
   0   6  -3 49.0067 5.49607   2
   0   6   3 60.1757 6.69941   3
   0   6  -3 58.8500 5.57047   2
  -2  -6  -3 403.981 21.3396   2
   2  -6   3 367.770 22.2291   4
   2  -6   3 403.581 23.8178   3
  -2  -6  -3 371.065 22.9460   4
   2   6   3 360.394 22.4355   3
  -2   6  -3 365.448 21.9119   2
   2   6   3 353.837 21.6417   2
  -4  -6  -3 662.364 36.1382   4
   4  -6   3 612.613 34.5939   4
  -4  -6  -3 611.424 33.9056   2
   4  -6   3 636.270 36.1980   3
   4   6   3 587.786 34.2220   2
   4   6   3 601.868 35.4088   3
  -4   6  -3 628.205 34.9712   2
  -4   6  -3 596.361 35.1247   4
  -6  -6  -3 161.523 13.2650   4
   6  -6   3 161.271 14.1443   3
  -6  -6  -3 157.460 10.4924   2
   6  -6   3 172.231 11.0729   4
  -6   6  -3 169.205 12.6555   2
   6   6   3 156.883 13.0048   3
  -8  -6  -3 477.859 26.8018   2
   8  -6   3 471.649 26.6602   4
   8  -6   3 480.650 30.0261   3
  -8  -6  -3 469.945 29.2060   4
   8   6   3 486.791 28.9389   3
  -8   6  -3 478.087 28.7947   2
  10  -6   3 246.168 20.7707   3
 -10  -6  -3 216.559 16.6790   4
 -10   6  -3 206.554 16.4821   2
  10   6   3 231.372 17.8492   3
  12  -6   3 48.5410 10.0283   3
 -12  -6  -3 40.3973 8.31732   4
  12   6   3 56.5201 11.1889   3
 -12   6  -3 44.4886 8.46090   2
 -14  -6  -3 159.623 15.6470   4
  14  -6   3 197.711 18.0866   3
  14   6   3 171.173 17.3363   3
 -14   6  -3 178.609 15.6796   2
  16  -6   3 147.803 17.5627   3
 -16  -6  -3 209.991 16.9116   4
  16   6   3 201.130 19.4677   3
 -16   6  -3 158.373 16.2214   2
  18  -6   3 75.0723 13.8981   3
 -18  -6  -3 59.1968 11.9901   4
 -18   6  -3 57.7827 11.1843   2
  18   6   3 52.0942 15.2214   3
 -20  -6  -3 85.9257 13.4890   4
  20  -6   3 89.6682 16.8138   3
 -20   6  -3 70.0433 13.0320   2
  20   6   3 66.9411 16.3093   3
  21  -7  -3 4.88941 11.9677   3
 -21  -7   3 -7.6035 10.6079   4
 -21   7   3 -8.9012 11.8791   2
  21   7  -3 -12.059 12.2243   3
 -19  -7   3 19.9189 11.0777   4
  19  -7  -3 13.2003 10.8960   3
  19   7  -3 30.5323 12.9306   3
 -19   7   3 20.1403 11.1383   2
 -17  -7   3 92.5401 12.8155   4
  17  -7  -3 121.412 15.0213   3
  17   7  -3 104.894 14.8553   3
 -17   7   3 108.222 12.7383   2
  15  -7  -3 62.2939 11.4262   3
 -15  -7   3 62.0747 11.0743   4
 -15   7   3 51.3422 10.3881   2
  15   7  -3 30.1716 10.6849   3
 -13  -7   3 48.9445 9.67290   4
  13  -7  -3 44.4033 9.99944   3
 -13   7   3 26.2566 7.64240   2
  13   7  -3 39.6533 9.65066   3
 -11  -7   3 3.78920 6.84854   4
  11  -7  -3 11.9674 7.12229   3
 -11   7   3 10.5127 6.29115   2
 -11   7   3 0.13882 5.84015   4
  11   7  -3 16.3628 7.92659   3
   9  -7  -3 38.0898 8.06890   3
  -9  -7   3 17.1934 7.27539   4
  -9   7   3 9.85295 5.67599   4
  -9   7   3 16.6556 6.11187   2
   9   7  -3 18.8421 6.85148   3
  -7  -7   3 114.491 11.3091   4
   7  -7  -3 95.6375 10.4418   3
   7  -7  -3 107.956 9.41420   4
   7   7  -3 99.8991 10.4982   3
  -7   7   3 91.3463 9.75657   2
   5  -7  -3 15.4438 4.18277   2
  -5  -7   3 4.29705 5.89682   4
   5  -7  -3 3.88785 5.13271   4
   5  -7  -3 9.88732 6.20810   3
   5   7  -3 -4.2197 5.08112   3
   5   7  -3 5.51568 4.01200   2
   3  -7  -3 0.53004 3.83992   2
   3  -7  -3 10.5075 5.85695   3
   3  -7  -3 11.4913 5.77736   4
  -3  -7   3 7.99420 6.24563   4
   3   7  -3 -2.2224 5.34087   3
   3   7  -3 4.11649 3.27956   2
   1  -7  -3 50.6390 7.22439   4
   1  -7  -3 48.4773 5.35958   2
  -1  -7   3 46.4272 7.25203   4
  -1  -7   3 33.0156 7.54297   3
  -1   7   3 60.4107 7.33416   3
   1   7  -3 53.1252 5.62869   2
  -1  -7  -3 21.2997 6.45190   4
   1  -7   3 32.0354 7.49849   3
  -1  -7  -3 38.3845 4.62568   2
   1  -7   3 31.2251 6.07549   4
   1   7   3 26.8538 6.49191   3
  -1   7  -3 29.9199 5.20318   2
  -3  -7  -3 12.6704 6.38272   4
   3  -7   3 19.2379 6.83978   3
   3  -7   3 8.18534 5.12989   4
  -3  -7  -3 17.9307 3.73511   2
   3   7   3 18.5330 6.02111   3
  -3   7  -3 20.1773 5.42680   2
  -5  -7  -3 36.3429 4.55894   2
   5  -7   3 58.8837 6.45168   4
  -5  -7  -3 33.7336 7.36000   4
   5  -7   3 41.3620 8.61636   3
  -5   7  -3 40.2109 7.08824   2
   5   7   3 39.7722 7.04448   3
  -7  -7  -3 164.909 14.1603   4
   7  -7   3 142.648 14.0921   3
  -7  -7  -3 168.837 10.6009   2
   7   7   3 145.832 13.6742   3
  -7   7  -3 169.090 13.1798   2
  -9  -7  -3 22.3622 8.14983   4
   9  -7   3 57.4579 9.85904   3
   9   7   3 38.1009 8.64532   3
  -9   7  -3 32.6326 8.09390   2
 -11  -7  -3 67.3801 10.3835   4
  11  -7   3 38.1693 9.57666   3
 -11   7  -3 57.1412 9.39438   2
  11   7   3 42.0878 9.34598   3
 -13  -7  -3 1.19278 7.75777   4
  13  -7   3 4.68424 8.85042   3
 -13   7  -3 -0.1793 7.79099   2
  13   7   3 3.12369 9.96807   3
 -15  -7  -3 24.0263 9.89293   4
  15  -7   3 10.1358 11.4097   3
 -15   7  -3 16.6160 9.86805   2
  15   7   3 19.8980 10.6601   3
 -17  -7  -3 100.748 14.3326   4
  17  -7   3 101.015 16.0944   3
  17   7   3 122.843 17.7528   3
 -17   7  -3 82.1231 13.9390   2
 -19  -7  -3 10.9047 11.9143   4
 -19   7  -3 -9.2004 19.8007   2
  19   7   3 -17.787 15.1531   3
 -20  -8   3 36.2106 11.9791   4
  20  -8  -3 20.9668 12.6580   3
 -20   8   3 24.0487 13.2398   2
  20   8  -3 12.4644 15.6988   3
 -18  -8   3 14.1442 10.4755   4
  18  -8  -3 26.7553 12.2986   3
  18   8  -3 14.7651 13.2675   3
 -18   8   3 20.8565 10.3849   2
  16  -8  -3 50.2047 12.1821   3
 -16  -8   3 61.5872 12.4196   4
  16   8  -3 41.9031 12.3137   3
 -16   8   3 34.0063 10.7987   2
  14  -8  -3 2.88481 9.49975   3
 -14  -8   3 5.47662 8.68354   4
 -14   8   3 6.46614 8.92449   2
  14   8  -3 6.04316 8.65923   3
  12  -8  -3 8.39976 8.80144   3
 -12  -8   3 -9.0657 7.87433   4
 -12   8   3 -0.0307 6.94500   2
  12   8  -3 2.20602 8.73870   3
  10  -8  -3 4.09758 7.91473   3
 -10  -8   3 -8.9726 6.75182   4
 -10   8   3 0.86503 6.90329   4
 -10   8   3 -0.6206 6.25807   2
  10   8  -3 6.80159 7.58330   3
   8  -8  -3 3.22213 5.77332   4
  -8  -8   3 9.54313 7.43584   4
   8  -8  -3 10.1134 7.14963   3
  -8   8   3 6.46334 6.62047   2
   8   8  -3 4.67930 6.87201   3
   6  -8  -3 8.94343 6.04579   4
   6  -8  -3 17.3676 7.26927   3
  -6  -8   3 33.8219 8.43114   4
  -6   8   3 9.95004 5.69829   2
   4  -8  -3 27.5864 7.53421   3
  -4  -8   3 38.5953 8.10715   4
   4  -8  -3 44.1368 7.30818   4
   4  -8  -3 25.2934 5.32916   2
   4   8  -3 26.2726 7.45395   3
  -2  -8   3 38.1973 7.91425   4
   2  -8  -3 41.4752 5.61523   2
   2  -8  -3 34.8292 7.61870   4
   2   8  -3 34.9046 5.46510   2
  -2   8   3 46.5181 8.29716   3
   2   8  -3 29.1733 7.61631   3
   0  -8   3 31.0815 6.97698   4
   0  -8  -3 17.4543 4.54002   2
   0  -8   3 30.4011 7.90910   3
   0  -8  -3 24.2414 6.81600   4
   0   8  -3 17.8793 5.38468   2
   0   8   3 27.8370 7.54010   3
   2  -8   3 68.7502 10.9566   3
  -2  -8  -3 73.1402 6.77077   2
  -2  -8  -3 88.5296 9.93470   4
   2  -8   3 80.8027 9.05807   4
  -2   8  -3 90.0235 8.46096   2
   2   8   3 84.5574 9.84187   3
  -4  -8  -3 5.59907 6.22858   4
   4  -8   3 13.0389 7.19791   3
  -4  -8  -3 -0.9685 3.53943   2
   4  -8   3 -0.2401 5.23346   4
  -4   8  -3 3.29824 5.77352   2
   4   8   3 8.87467 6.81988   3
   6  -8   3 1.04101 5.15369   4
   6  -8   3 20.4170 7.57721   3
  -6  -8  -3 12.0566 7.15743   4
  -6   8  -3 2.30926 6.52149   2
   6   8   3 0.61417 6.99417   3
  -8  -8  -3 41.9720 9.56048   4
   8  -8   3 70.1103 10.8421   3
   8   8   3 39.6692 8.74025   3
 -10  -8  -3 42.1507 10.2493   4
  10  -8   3 44.6664 10.5269   3
 -10   8  -3 56.2541 9.85301   2
  10   8   3 40.0020 10.2123   3
 -12  -8  -3 44.7264 10.7799   4
  12  -8   3 53.3407 11.0466   3
 -12   8  -3 46.8568 10.6755   2
  12   8   3 30.9387 11.6092   3
  14  -8   3 14.3691 10.8754   3
 -14  -8  -3 -11.084 9.46499   4
 -14   8  -3 -9.9376 9.36058   2
  14   8   3 -12.512 11.2771   3
 -16  -8  -3 80.0450 13.2530   4
  16  -8   3 69.8571 14.0940   3
  16   8   3 77.5122 16.2428   3
 -16   8  -3 114.541 15.1147   2
 -17  -9   3 57.8960 13.6218   4
  17  -9  -3 77.0953 14.6921   3
  17   9  -3 64.5011 14.8204   3
 -17   9   3 63.2320 12.5908   2
 -15  -9   3 161.912 17.5504   4
  15  -9  -3 140.599 17.3068   3
 -15   9   3 150.220 16.1907   2
  15   9  -3 148.625 18.2782   3
 -13  -9   3 132.127 15.1585   4
  13  -9  -3 125.005 14.3975   3
  13   9  -3 148.843 16.5569   3
 -13   9   3 107.853 13.6625   2
  11  -9  -3 25.0364 9.62323   3
 -11  -9   3 10.9786 9.21682   4
 -11   9   3 15.2832 8.84320   2
  11   9  -3 16.6589 9.64113   3
  -9  -9   3 42.3172 9.86121   4
   9  -9  -3 49.7255 9.38419   3
   9   9  -3 42.3572 9.66747   3
  -9   9   3 23.9276 8.48102   2
  -7  -9   3 89.8602 11.6718   4
   7  -9  -3 69.0467 9.24708   4
   7  -9  -3 52.4915 10.0939   3
  -7   9   3 52.2827 9.25568   2
   7   9  -3 86.6003 11.4308   3
   5  -9  -3 99.6989 10.6175   4
   5  -9  -3 101.306 11.4222   3
  -5  -9   3 88.9820 11.7802   4
  -5   9   3 86.6551 9.68685   2
   5   9  -3 62.7705 10.9062   3
   3  -9  -3 51.8283 8.77966   4
  -3  -9   3 30.8025 8.94227   4
   3   9  -3 46.2164 10.1770   3
  -3   9   3 41.2858 9.01420   3
  -3   9   3 36.3487 7.28032   2
  -1  -9   3 100.581 11.2273   4
   1  -9  -3 83.2238 11.2873   4
   1  -9  -3 95.5407 8.54564   2
   1   9  -3 77.5520 11.3330   3
  -1   9   3 97.2625 11.2883   3
   1  -9   3 9.19692 6.97332   4
  -1  -9  -3 8.67057 4.57537   2
  -1  -9  -3 8.76991 6.92964   4
   1  -9   3 5.68102 7.70771   3
   1   9   3 -5.1867 6.33782   3
  -1   9  -3 8.36724 6.00956   2
   3  -9   3 163.646 14.0227   4
  -3  -9  -3 186.320 16.1963   4
   3  -9   3 185.411 15.7339   3
  -3   9  -3 186.178 13.9996   2
   3   9   3 174.739 15.3367   3
  -5  -9  -3 142.095 13.5718   4
   5  -9   3 111.140 13.1172   3
   5  -9   3 127.462 11.4852   4
   5   9   3 114.675 13.2579   3
  -5   9  -3 158.893 12.6216   2
   7  -9   3 167.392 16.0262   3
  -7  -9  -3 153.243 14.7141   4
  -7   9  -3 161.848 13.8508   2
   7   9   3 132.075 14.3074   3
  -9  -9  -3 42.5119 10.8044   4
   9  -9   3 60.8857 11.8700   3
   9   9   3 44.1071 11.0248   3
  -9   9  -3 46.1815 10.0208   2
  11  -9   3 67.6163 12.4064   3
 -11  -9  -3 52.5580 10.8748   4
  11   9   3 49.1140 11.5723   3
 -11   9  -3 45.1561 10.8919   2
 -13  -9  -3 24.6307 12.0059   4
  13  -9   3 25.4073 12.1855   3
  13   9   3 31.4446 11.9941   3
 -13   9  -3 46.4712 10.9556   2
  15  -9   3 38.0107 13.4111   3
 -15  -9  -3 22.6834 12.6950   4
 -15   9  -3 41.5319 12.9163   2
  15   9   3 20.6788 14.0883   3
 -16  10   3 60.6558 14.7574   2
 -14 -10   3 75.5346 13.6998   4
  14 -10  -3 59.9311 13.0125   3
 -14  10   3 63.5957 13.2162   2
  14  10  -3 46.8422 13.3133   3
  12 -10  -3 45.2647 11.8750   3
 -12 -10   3 74.5314 12.7706   4
 -12  10   3 57.3904 12.1955   2
  12  10  -3 68.0453 14.4111   3
 -10 -10   3 -3.3499 9.04910   4
  10 -10  -3 7.11692 9.79011   3
 -10  10   3 7.96183 9.46812   2
  10  10  -3 -2.1518 10.6627   3
  -8 -10   3 60.3689 11.4490   4
   8 -10  -3 60.4308 10.5872   3
   8 -10  -3 65.5310 16.1756   4
   8  10  -3 62.5655 11.5642   3
  -8  10   3 77.0758 10.7942   2
   6 -10  -3 78.6771 10.5933   4
   6 -10  -3 53.2577 10.8405   3
  -6 -10   3 67.0789 11.4240   4
  -6  10   3 78.9697 10.4901   2
   6  10  -3 79.0286 13.3055   3
  -4 -10   3 0.93178 8.79843   4
   4 -10  -3 -5.2761 7.03411   4
  -4  10   3 9.20415 7.64362   2
  -4  10   3 0.00013 9.29892   3
   4  10  -3 0.02609 8.69713   3
  -2 -10   3 45.8219 9.92700   4
   2 -10  -3 37.6819 9.04926   4
  -2  10   3 64.7717 11.7468   3
   2  10  -3 39.8018 11.5932   3
   0 -10   3 67.7135 10.6074   4
   0 -10  -3 49.6007 10.3185   4
   0  10   3 76.8778 11.0492   3
   0  10  -3 62.3214 12.3117   3
   2 -10   3 13.8481 8.67566   3
  -2 -10  -3 15.2105 8.52731   4
   2  10   3 8.99722 9.53363   3
   4 -10   3 7.61835 9.84543   3
   4 -10   3 22.1144 7.90507   4
  -4 -10  -3 5.83093 8.56207   4
   4  10   3 12.7578 9.38574   3
  -4  10  -3 2.43160 7.71685   2
  -6 -10  -3 160.070 16.7368   4
   6 -10   3 177.474 17.0281   3
  -6  10  -3 204.658 15.9933   2
   6  10   3 159.650 17.1393   3
   8 -10   3 109.588 14.5627   3
  -8 -10  -3 93.9332 14.2049   4
   8  10   3 103.808 15.0526   3
  -8  10  -3 133.465 14.0417   2
 -10 -10  -3 11.0479 11.2550   4
  10 -10   3 23.2335 10.7659   3
  10  10   3 10.0151 10.5544   3
 -10  10  -3 13.5257 10.4043   2
  12 -10   3 49.6098 13.8620   3
 -12 -10  -3 32.1364 11.7945   4
 -12  10  -3 48.4641 12.9868   2
  12  10   3 20.3345 14.1111   3
 -11 -11   3 13.4227 12.4162   4
  11 -11  -3 13.7890 10.4725   3
  11  11  -3 2.79801 13.4453   3
 -11  11   3 17.4165 11.6187   2
  -9 -11   3 3.79558 11.4071   4
   9 -11  -3 4.76790 9.61485   3
  -9  11   3 -4.4769 10.3060   2
   9  11  -3 1.36286 11.1590   3
   7 -11  -3 4.11123 9.20646   3
  -7 -11   3 14.4836 10.4051   4
   7  11  -3 7.73324 11.8247   3
  -7  11   3 0.86821 9.45363   2
   5 -11  -3 22.7490 9.78296   4
  -5 -11   3 18.7794 10.9933   4
  -5  11   3 28.6651 11.8524   3
   5  11  -3 21.3569 11.4546   3
   3 -11  -3 -2.7316 8.53275   4
  -3 -11   3 -0.6919 9.62685   4
  -3  11   3 6.01379 11.3283   3
   3  11  -3 -5.4478 11.0379   3
  -1 -11   3 4.14042 9.33087   4
   1 -11  -3 -4.7613 9.20663   4
  -1  11   3 -0.4548 10.8848   3
   1  11  -3 -0.2197 10.2784   3
   1 -11   3 1.42701 9.21059   4
  -1 -11  -3 -2.2455 9.94480   4
  -1  11  -3 -0.8364 11.2290   3
   1  11   3 -4.9096 9.28018   3
   3 -11   3 9.37637 9.69014   3
  -3 -11  -3 -17.631 9.84386   4
   3  11   3 2.72354 11.1290   3
   5 -11   3 30.8184 12.1322   3
  -5 -11  -3 28.6338 10.7178   4
   5  11   3 31.5105 11.2331   3
  -7 -11  -3 -2.4701 10.5708   4
   7 -11   3 8.52653 10.7094   3
   7  11   3 -2.7307 12.2045   3
  -9 -11  -3 5.95249 13.6761   4
   9  11   3 0.86917 12.7833   3
  -9  11  -3 16.8133 11.7882   2
   4 -12  -3 8.75107 11.4387   4
  -4 -12   3 14.2467 11.8312   4
   4  12  -3 14.0081 14.2721   3
  -4  12   3 22.6503 14.3292   3
   2 -12  -3 -1.8280 10.8490   4
  -2 -12   3 1.43148 11.1971   4
   2  12  -3 4.57787 12.2739   3
  -2  12   3 -2.3120 12.9825   3
   0 -12   3 -0.1843 10.5908   4
   0 -12  -3 3.97943 11.2276   4
   0  12  -3 15.2540 14.2147   3
   0  12   3 -5.6737 12.6959   3
  -2 -12  -3 10.1580 12.3484   4
   2  12   3 -7.6578 12.9391   3
  -2  12  -3 1.21504 13.8779   3
  26   0  -4 25.2180 16.6699   3
 -26   0   4 55.2354 11.7552   2
 -24   0   4 114.689 13.4099   2
  24   0  -4 119.292 18.3441   3
 -22   0   4 121.200 12.5699   2
  22   0  -4 142.001 16.6799   3
  20   0  -4 79.2901 12.5781   3
 -20   0   4 98.7565 10.0639   2
 -20   0   4 74.9216 8.42375   4
 -18   0   4 203.910 14.9106   4
 -18   0   4 237.993 15.7112   2
  18   0  -4 219.530 17.9392   3
  16   0  -4 544.099 31.5130   3
 -16   0   4 489.473 29.3697   4
 -16   0   4 501.167 29.5489   2
 -14   0   4 1632.57 86.3933   2
  14   0  -4 1613.83 87.6037   3
  14   0  -4 1513.93 86.8659   4
  12   0  -4 1412.29 77.3829   4
  12   0  -4 1392.07 77.7896   3
 -12   0   4 1407.53 76.9551   4
 -12   0   4 1440.82 76.8555   2
 -10   0   4 13.7805 3.23141   2
  10   0  -4 21.6810 3.15617   2
 -10   0   4 25.2884 4.10091   4
  10   0  -4 9.23433 4.94058   4
 -10   0   4 19.7568 4.93898   3
  10   0  -4 11.4015 4.04849   3
   8   0  -4 1058.52 57.5617   2
   8   0  -4 1076.23 58.1649   3
  -8   0   4 1113.88 58.6148   3
   8   0  -4 995.752 58.1540   4
  -8   0   4 1066.58 58.1112   4
  -8   0   4 1075.40 57.5801   2
   6   0  -4 1829.50 95.9539   2
   6   0  -4 1756.50 96.2180   3
  -6   0   4 1757.42 95.9392   2
  -6   0   4 1781.16 96.1734   3
  -6   0   4 1810.95 96.5425   4
   6   0  -4 1778.84 96.5586   4
   4   0  -4 5375.29 281.721   3
   4   0  -4 5211.04 282.220   4
  -4   0   4 5214.57 282.251   4
  -2   0   4 120.723 7.06156   2
   2   0  -4 115.258 6.50696   3
  -2   0   4 132.194 7.84865   4
   2   0  -4 105.830 6.55057   3
   2   0  -4 123.116 6.96738   2
   2   0  -4 113.439 7.57907   4
   0   0  -4 546.692 30.0826   3
   0   0   4 573.400 30.6281   4
   0   0  -4 549.436 30.3249   2
   0   0   4 571.205 30.1321   3
   0   0  -4 535.614 30.4833   4
   0   0   4 551.344 30.3519   2
   2   0   4 6562.67 349.793   1
  -2   0  -4 6455.78 349.751   1
   4   0   4 1592.14 82.5670   3
   4   0   4 1494.28 82.1631   4
  -4   0  -4 1463.80 82.4699   3
   4   0   4 1503.02 82.2891   2
   4   0   4 1533.24 82.0654   4
  -4   0  -4 1550.01 82.3670   2
   6   0   4 547.786 31.2847   3
  -6   0  -4 558.275 31.3729   3
  -6   0  -4 580.128 30.8387   2
  -6   0  -4 558.394 30.2477   4
   6   0   4 497.479 30.6228   2
   8   0   4 917.425 53.2957   3
  -8   0  -4 974.470 52.1026   4
  -8   0  -4 971.539 52.7311   2
 -10   0  -4 1710.09 94.4256   2
  10   0   4 1762.24 95.3325   3
 -10   0  -4 1720.78 93.6450   4
  10   0   4 1745.10 93.7298   4
  12   0   4 74.6781 10.8395   3
 -12   0  -4 79.2572 8.09515   2
 -12   0  -4 77.3953 6.64219   4
 -14   0  -4 76.4114 6.83861   4
  14   0   4 37.6629 10.3237   3
 -14   0  -4 81.1267 8.60759   2
 -16   0  -4 963.305 52.3063   2
  16   0   4 854.758 53.7894   3
  18   0   4 360.917 28.7996   3
 -18   0  -4 367.813 24.8151   2
  20   0   4 74.9428 14.7527   3
 -20   0  -4 84.1985 12.3413   2
 -22   0  -4 55.6466 11.5812   2
  22   0   4 46.5490 15.3864   3
  27  -1  -4 25.9518 18.3306   3
  27   1  -4 -17.652 14.5225   3
 -27   1   4 -5.1131 11.4160   2
  25  -1  -4 44.0560 14.4193   3
 -25  -1   4 69.8745 11.4003   2
 -25   1   4 61.0923 11.3927   2
  23  -1  -4 34.8271 12.5234   3
 -23  -1   4 36.0488 8.95055   2
 -23   1   4 35.4231 9.71090   2
  23   1  -4 45.0457 13.6080   3
 -21  -1   4 11.5705 6.71545   4
  21  -1  -4 4.20943 9.94333   3
 -21  -1   4 5.73067 6.72299   2
 -21   1   4 8.00343 7.52060   2
  21   1  -4 10.1431 10.6673   3
 -19  -1   4 139.313 11.4565   4
 -19  -1   4 118.634 10.7964   2
  19  -1  -4 99.0461 20.4290   3
 -19   1   4 143.262 11.6043   2
  19   1  -4 111.155 13.7741   3
 -17  -1   4 461.163 27.5985   4
 -17  -1   4 478.368 27.2190   2
  17  -1  -4 446.459 29.5984   3
 -17   1   4 441.673 26.7181   4
  17   1  -4 453.518 29.5596   3
 -17   1   4 482.984 27.5490   2
 -15  -1   4 16.3487 4.48960   2
 -15  -1   4 18.6023 5.33401   4
  15  -1  -4 31.2818 7.09993   3
  15  -1  -4 -10.179 5.13822   4
  15   1  -4 23.0756 7.77342   3
 -15   1   4 14.6142 4.43962   4
 -15   1   4 22.2596 4.98336   2
  13  -1  -4 -1.2072 4.68050   4
  13  -1  -4 2.61014 5.16549   3
 -13  -1   4 3.93289 3.53369   2
 -13  -1   4 7.63662 3.34512   2
 -13  -1   4 -0.4797 4.14666   4
 -13   1   4 5.71082 3.95048   2
  13   1  -4 8.76053 5.12405   3
 -13   1   4 2.29810 3.79030   4
 -11  -1   4 547.716 31.8013   4
 -11  -1   4 571.807 30.2635   2
  11  -1  -4 514.757 30.8786   4
 -11  -1   4 553.393 30.3295   2
  11  -1  -4 555.765 31.7214   3
 -11   1   4 558.346 30.7804   2
  11   1  -4 547.286 31.6685   3
  11   1  -4 529.425 31.5136   4
 -11   1   4 540.355 30.7967   4
   9  -1  -4 435.260 24.4129   4
  -9  -1   4 437.893 24.5879   4
   9  -1  -4 392.160 24.6598   3
   9  -1  -4 429.146 23.9968   2
  -9  -1   4 407.740 23.5587   2
  -9  -1   4 407.090 24.4786   3
  -9   1   4 417.108 24.7796   3
   9   1  -4 446.520 24.9134   4
   9   1  -4 452.305 24.7967   3
  -9   1   4 449.186 24.1290   2
   9   1  -4 432.429 23.6001   2
  -9   1   4 420.651 24.4518   4
  -7  -1   4 69.0985 4.94309   2
  -7  -1   4 76.3884 6.40084   3
   7  -1  -4 76.3648 6.16060   4
  -7  -1   4 71.9409 6.41694   4
   7  -1  -4 81.1078 6.01651   3
   7  -1  -4 71.8491 5.30309   2
   7   1  -4 72.7619 5.95973   3
   7   1  -4 78.5525 7.44454   4
  -7   1   4 69.9402 6.16840   4
   7   1  -4 70.1219 4.81075   2
  -7   1   4 83.1646 5.93529   2
  -7   1   4 78.0289 6.06301   3
   5  -1  -4 975.002 53.1715   3
  -5  -1   4 1018.56 53.8070   4
   5  -1  -4 972.835 53.5094   4
  -5  -1   4 949.303 53.2196   3
   5  -1  -4 939.804 53.1152   2
   5   1  -4 1020.73 53.3366   3
   5   1  -4 1000.71 52.8755   2
  -5   1   4 989.745 53.1622   3
   5   1  -4 944.895 53.7549   4
  -5   1   4 959.541 53.6211   4
  -5   1   4 1031.42 53.2321   2
  -3  -1   4 -1.0487 1.49207   2
   3  -1  -4 0.41843 1.91325   2
   3  -1  -4 5.29612 2.29302   4
   3  -1  -4 -0.1806 1.54042   3
  -3  -1   4 5.24497 3.55303   4
   3   1  -4 4.23864 3.19671   4
   3   1  -4 1.94880 1.48221   3
  -3   1   4 2.19049 1.85661   2
  -3   1   4 5.06173 1.33540   3
   3   1  -4 2.72943 1.79679   3
   3   1  -4 4.08413 1.55285   2
  -3   1   4 2.83464 2.67775   4
   1  -1  -4 680.586 35.6143   2
   1  -1  -4 638.154 35.0329   3
  -1  -1   4 661.538 36.0128   4
   1  -1  -4 642.047 35.9250   4
  -1  -1   4 664.050 35.6020   3
  -1  -1   4 638.004 35.5227   2
  -1   1   4 641.844 35.9423   4
   1   1  -4 649.399 35.6013   3
  -1   1   4 653.280 35.0562   3
  -1   1   4 622.540 35.5472   2
   1   1  -4 686.079 36.0937   4
   1   1  -4 673.472 35.5520   2
   1  -1   4 621.919 33.9017   2
  -1  -1  -4 623.030 33.8894   2
   1  -1   4 628.646 34.0988   3
   1  -1   4 638.380 34.1227   4
  -1   1  -4 611.172 34.0927   3
  -1   1  -4 616.178 33.9744   4
   1   1   4 606.604 33.8684   2
   1   1   4 603.812 34.2056   4
   1   1   4 623.120 33.7130   3
  -1   1  -4 615.380 33.9755   2
   1   1   4 624.748 34.1433   4
   3  -1   4 11.8154 2.62211   4
  -3  -1  -4 8.38866 2.49055   3
  -3  -1  -4 12.5478 2.64747   4
  -3  -1  -4 11.8856 2.89792   2
   3  -1   4 12.5922 3.67269   3
   3  -1   4 11.4764 3.11003   2
   3   1   4 14.4162 3.10444   4
  -3   1  -4 9.98361 2.17113   4
   3   1   4 15.8335 2.81855   2
  -3   1  -4 17.5026 2.95777   2
  -3   1  -4 10.5130 3.66304   3
   3   1   4 18.4738 3.07682   3
  -5  -1  -4 664.937 37.1785   3
   5  -1   4 668.466 36.3458   4
   5  -1   4 672.862 36.5203   4
  -5  -1  -4 655.795 36.8563   2
   5  -1   4 649.562 37.0283   2
   5  -1   4 661.799 37.5656   3
  -5  -1  -4 698.775 36.9058   4
  -5   1  -4 694.336 37.2212   3
   5   1   4 647.975 36.8749   4
   5   1   4 658.009 36.8613   2
   5   1   4 681.773 37.3417   3
   7  -1   4 1873.81 101.014   4
  -7  -1  -4 1912.96 101.437   4
   7  -1   4 1828.58 100.819   4
  -7  -1  -4 1854.35 101.536   2
   7  -1   4 1896.22 102.369   3
   7   1   4 1872.25 101.465   4
  -7   1  -4 1894.58 101.792   2
   7   1   4 1894.58 102.185   3
  -9  -1  -4 131.450 9.98485   2
  -9  -1  -4 132.505 9.56879   4
   9  -1   4 132.293 8.63834   4
   9  -1   4 127.655 8.45983   4
   9  -1   4 123.093 11.3014   3
  -9   1  -4 158.292 10.8983   2
   9   1   4 125.976 9.90941   4
   9   1   4 168.880 12.1060   3
 -11  -1  -4 16.5703 4.35534   4
  11  -1   4 2.21778 7.45138   3
  11  -1   4 12.4788 3.29734   4
  11  -1   4 7.46076 3.10852   4
 -11  -1  -4 4.87864 5.08009   2
 -11   1  -4 14.0412 5.04493   2
  11   1   4 4.04553 5.16272   4
  11   1   4 5.55117 6.57408   3
 -13  -1  -4 123.998 9.87042   4
  13  -1   4 115.952 13.9893   3
  13  -1   4 129.061 9.10779   4
 -13  -1  -4 132.715 11.3362   2
 -13   1  -4 124.479 11.0164   2
  13   1   4 135.842 13.6989   3
  15  -1   4 320.647 23.8288   3
 -15  -1  -4 274.329 19.6176   2
 -15  -1  -4 286.639 18.9491   4
  15   1   4 358.351 21.3898   3
 -15   1  -4 293.558 20.5353   2
  17  -1   4 29.4945 11.7079   3
 -17  -1  -4 41.7315 8.94809   2
 -17   1  -4 65.3303 9.62508   2
  17   1   4 22.5189 11.6892   3
  19  -1   4 19.1100 11.6848   3
 -19  -1  -4 29.8403 9.46663   2
 -19   1  -4 18.0454 9.15423   2
  19   1   4 33.6747 12.2565   3
  21  -1   4 93.5077 16.5360   3
 -21  -1  -4 61.9274 12.0414   2
 -21   1  -4 63.6994 12.5218   2
  21   1   4 38.5777 15.9744   3
  23  -1   4 50.4826 17.5467   3
 -23  -1  -4 20.4535 11.4890   2
  23   1   4 35.6498 17.4443   3
 -23   1  -4 21.2165 12.6157   2
  26  -2  -4 -13.738 14.9592   3
  26   2  -4 16.1053 14.5426   3
 -26   2   4 6.92174 10.0097   2
  24  -2  -4 8.13118 12.1484   3
  24   2  -4 8.81861 11.7505   3
 -24   2   4 1.06345 9.63449   2
 -22  -2   4 3.01649 7.13713   2
  22  -2  -4 10.4781 10.9583   3
 -22  -2   4 7.45628 7.80275   4
  22   2  -4 15.9422 12.2894   3
 -22   2   4 6.23825 7.69957   2
 -20  -2   4 32.7236 7.74974   4
  20  -2  -4 28.4496 11.3372   3
 -20  -2   4 34.0847 7.01061   2
 -20   2   4 34.9230 7.85071   2
  20   2  -4 47.5829 11.2318   3
  18  -2  -4 95.0079 13.0469   3
 -18  -2   4 94.5605 10.0155   4
 -18  -2   4 99.3203 8.85279   2
  18   2  -4 86.2544 12.0103   3
 -18   2   4 108.617 10.6889   2
  16  -2  -4 32.3887 8.62605   3
 -16  -2   4 25.7761 6.51119   4
 -16  -2   4 27.8626 5.29384   2
 -16   2   4 32.2479 5.02372   4
  16   2  -4 39.5318 8.99987   3
 -16   2   4 38.7352 6.45999   2
 -14  -2   4 198.790 12.5211   2
  14  -2  -4 201.533 15.3342   3
  14  -2  -4 186.333 13.1639   4
 -14  -2   4 180.851 14.0891   4
 -14   2   4 204.554 12.9547   4
  14   2  -4 219.709 15.1336   3
 -14   2   4 197.767 13.5037   2
 -12  -2   4 43.0415 4.44659   2
 -12  -2   4 55.9842 6.55215   4
  12  -2  -4 41.4816 5.22276   4
  12  -2  -4 52.6428 7.09919   3
 -12   2   4 49.8154 5.47004   4
  12   2  -4 39.8963 6.52198   3
 -12   2   4 63.0742 6.29563   2
 -10  -2   4 504.183 28.4845   2
  10  -2  -4 526.301 29.2396   2
 -10  -2   4 540.528 28.6115   2
 -10  -2   4 533.512 30.0479   4
  10  -2  -4 503.804 29.9342   3
 -10   2   4 513.491 29.5087   4
  10   2  -4 525.025 29.9803   3
   8  -2  -4 316.727 19.2307   4
  -8  -2   4 344.713 20.0234   4
  -8  -2   4 335.448 19.6625   3
   8  -2  -4 331.038 19.1322   2
  -8  -2   4 339.435 18.4391   2
   8  -2  -4 332.442 19.7524   3
  -8   2   4 335.127 19.4131   2
  -8   2   4 340.280 19.6108   4
  -8   2   4 321.802 19.7494   3
   8   2  -4 346.426 18.4221   2
   8   2  -4 339.703 20.3705   4
   6  -2  -4 92.5186 6.47186   2
  -6  -2   4 89.9627 5.41527   2
  -6  -2   4 80.7536 7.18344   4
  -6  -2   4 76.6488 6.64948   3
   6  -2  -4 91.8151 6.61339   4
   6  -2  -4 85.4033 6.96308   3
   6   2  -4 92.6587 5.37610   2
  -6   2   4 92.0312 6.97245   3
  -6   2   4 96.5754 6.59145   2
  -6   2   4 94.8377 7.01279   4
   6   2  -4 95.8024 6.62589   3
   6   2  -4 106.685 8.07433   4
   4  -2  -4 735.686 39.7943   3
  -4  -2   4 715.481 40.0597   3
  -4  -2   4 736.650 39.4272   2
  -4  -2   4 728.227 40.4014   4
   4  -2  -4 763.637 39.9189   2
  -4   2   4 743.723 40.3126   4
   4   2  -4 716.780 40.0834   3
  -4   2   4 723.488 40.0620   4
  -4   2   4 756.479 39.9488   2
   4   2  -4 689.206 40.4551   4
  -4   2   4 726.073 39.8514   3
   4   2  -4 736.602 39.4100   2
  -2  -2   4 367.741 20.6405   4
   2  -2  -4 358.124 20.1898   2
  -2  -2   4 353.547 19.9030   2
   2  -2  -4 360.126 19.8142   3
  -2  -2   4 365.515 20.3925   3
   2   2  -4 362.286 20.8213   4
  -2   2   4 355.245 20.6357   4
   2   2  -4 365.911 20.5783   3
  -2   2   4 372.324 19.9275   3
  -2   2   4 355.591 20.2205   2
  -2   2   4 371.448 20.6735   4
   2   2  -4 353.341 19.9236   2
   0  -2   4 9.73104 2.87116   3
   0  -2   4 9.68987 2.93120   4
   0  -2  -4 3.83321 2.11846   2
   0  -2  -4 9.50392 3.15633   4
   0  -2  -4 6.14113 1.49917   3
   0  -2   4 4.30930 2.09431   2
   0   2   4 10.0286 3.02310   4
   0   2  -4 8.50510 2.46635   2
   0   2   4 4.61514 2.34399   2
   0   2  -4 1.99672 2.80780   3
   0   2  -4 10.2507 3.51316   4
   0   2   4 6.70660 1.58028   3
  -2  -2  -4 3.52046 2.65231   4
  -2  -2  -4 6.44609 2.02534   3
  -2  -2  -4 6.08715 2.12569   2
   2  -2   4 10.3398 2.62318   4
   2  -2   4 0.25830 2.96115   3
   2   2   4 9.91471 2.70394   2
   2   2   4 1.92942 2.01244   3
  -2   2  -4 8.15872 4.13812   3
   2   2   4 2.27876 2.89059   4
  -2   2  -4 3.31540 2.81104   4
  -2   2  -4 8.00451 2.72916   2
  -4  -2  -4 214.262 12.6835   3
  -4  -2  -4 207.954 12.4271   2
   4  -2   4 208.158 13.3348   3
   4  -2   4 207.860 12.0832   4
   4  -2   4 197.075 12.7867   2
  -4  -2  -4 198.440 12.8616   4
  -4   2  -4 214.501 12.0773   4
   4   2   4 202.854 12.4030   2
  -4   2  -4 219.830 13.7480   3
   4   2   4 194.814 13.1118   4
   4   2   4 216.128 12.8287   3
  -4   2  -4 219.376 13.3097   2
  -6  -2  -4 66.2339 6.46107   3
   6  -2   4 73.9313 4.92467   4
   6  -2   4 73.4212 7.60954   3
   6  -2   4 71.7366 5.26582   4
  -6  -2  -4 81.2537 6.28095   2
  -6   2  -4 73.1603 6.50714   2
   6   2   4 78.1857 6.49856   2
   6   2   4 67.7785 7.00359   3
   6   2   4 81.1885 7.11903   4
  -8  -2  -4 161.268 11.2602   4
   8  -2   4 167.171 9.26749   4
   8  -2   4 166.866 12.6693   3
  -8  -2  -4 169.055 11.1309   2
  -8   2  -4 157.020 11.8107   2
   8   2   4 158.837 12.5694   3
  10  -2   4 108.495 11.4924   3
 -10  -2  -4 105.104 9.00668   4
 -10  -2  -4 106.797 8.76870   2
 -10   2  -4 119.333 9.81828   2
  10   2   4 133.958 11.3996   3
  12  -2   4 71.5232 10.4207   3
 -12  -2  -4 78.5811 8.18599   2
 -12  -2  -4 79.5232 8.02967   4
  12   2   4 87.4436 10.7921   3
 -12   2  -4 65.2236 8.18677   2
 -14  -2  -4 257.753 17.7763   4
 -14  -2  -4 300.539 18.5036   2
  14  -2   4 265.959 21.0802   3
 -14   2  -4 255.644 18.9987   2
  14   2   4 287.589 20.6821   3
 -16  -2  -4 -6.6279 5.68686   4
  16  -2   4 -2.1688 8.91379   3
 -16  -2  -4 -1.8769 6.51621   2
  16   2   4 -9.8336 8.88222   3
 -16   2  -4 0.64965 7.05446   2
  18  -2   4 61.9690 12.7389   3
 -18  -2  -4 58.1361 14.0935   2
  18   2   4 34.6438 12.5853   3
 -18   2  -4 38.0298 9.28572   2
  20  -2   4 15.1853 12.9347   3
 -20  -2  -4 -1.7073 8.89247   2
  20   2   4 -2.6135 11.7934   3
 -20   2  -4 18.4227 9.24746   2
 -22  -2  -4 10.2171 10.3311   2
  22  -2   4 14.2227 15.0821   3
 -22   2  -4 21.1021 11.0094   2
  22   2   4 35.8509 16.3625   3
  25  -3  -4 41.9302 15.2502   3
  25   3  -4 29.8098 16.2171   3
 -25   3   4 28.3350 10.5630   2
 -23  -3   4 80.7405 11.4637   4
  23  -3  -4 85.3707 14.7068   3
 -23   3   4 65.4046 11.6555   2
  23   3  -4 65.7881 14.5291   3
  21  -3  -4 9.56050 11.5539   3
 -21  -3   4 19.5016 7.94761   4
  21   3  -4 17.4043 10.3146   3
 -21   3   4 19.1946 8.26212   2
  19  -3  -4 0.26276 9.61700   3
 -19  -3   4 17.1742 6.87221   4
 -19  -3   4 6.62414 5.52518   2
  19   3  -4 1.93059 8.62079   3
 -19   3   4 19.0739 7.06379   2
 -17  -3   4 184.694 15.3559   4
  17  -3  -4 212.135 17.8784   3
 -17  -3   4 199.154 13.4434   2
 -17   3   4 220.446 15.9478   2
  17   3  -4 179.582 16.5257   3
 -15  -3   4 74.2860 9.03525   4
 -15  -3   4 88.7802 6.88890   2
  15  -3  -4 75.5063 10.8560   3
 -15   3   4 93.1163 7.18163   4
 -15   3   4 73.1034 8.67106   2
  15   3  -4 65.3694 9.50328   3
 -13  -3   4 428.503 23.2261   2
 -13  -3   4 402.544 23.0714   2
 -13  -3   4 405.775 25.3914   4
  13  -3  -4 412.343 23.6150   4
  13  -3  -4 400.667 26.1107   3
  13   3  -4 465.771 26.1678   3
 -13   3   4 418.431 24.9245   2
 -13   3   4 394.220 23.9965   4
 -11  -3   4 14.3049 2.45152   2
  11  -3  -4 14.2123 5.66954   3
  11  -3  -4 15.8367 3.72483   2
 -11  -3   4 19.0387 4.88694   4
 -11  -3   4 14.9490 2.30095   2
 -11   3   4 13.7651 3.49492   4
  11   3  -4 14.5320 5.07092   3
 -11   3   4 9.18508 4.47065   4
   9  -3  -4 23.9631 4.67613   3
   9  -3  -4 15.2487 3.40684   2
  -9  -3   4 21.8994 2.08063   2
  -9  -3   4 22.3505 4.77091   4
  -9  -3   4 25.3125 2.08492   2
  -9   3   4 22.1541 3.65129   4
   9   3  -4 21.8897 4.87232   3
  -9   3   4 18.2082 4.14126   4
   7  -3  -4 260.131 15.4865   2
   7  -3  -4 268.354 16.0624   3
  -7  -3   4 269.808 16.3484   4
  -7   3   4 245.943 16.3590   3
   7   3  -4 269.184 16.0469   3
  -7   3   4 278.053 16.0083   4
  -7   3   4 254.176 15.5256   4
  -5  -3   4 749.777 42.3935   4
   5  -3  -4 772.845 41.3607   3
  -5  -3   4 759.515 40.3266   2
   5  -3  -4 752.606 41.1373   2
  -5   3   4 705.005 41.5527   4
   5   3  -4 733.833 41.8280   4
  -5   3   4 781.030 41.4771   3
   5   3  -4 740.920 40.3053   2
   5   3  -4 741.924 41.5791   3
  -5   3   4 754.742 41.2427   2
  -5   3   4 768.607 41.5562   4
  -3  -3   4 139.739 9.47140   4
   3  -3  -4 134.973 8.38313   2
   3  -3  -4 148.094 8.51522   3
  -3  -3   4 126.993 7.82838   2
   3  -3  -4 137.829 9.08798   4
   3   3  -4 119.943 9.52857   4
  -3   3   4 141.815 9.11096   4
  -3   3   4 136.271 8.63762   2
  -3   3   4 129.097 8.81813   3
   3   3  -4 138.879 7.93898   2
   3   3  -4 135.435 9.30689   3
   3   3  -4 126.947 9.05216   3
   1  -3  -4 111.784 7.76190   4
  -1  -3   4 109.476 7.55347   4
  -1  -3   4 101.943 7.74219   3
  -1  -3   4 107.994 6.97504   2
   1  -3  -4 112.394 7.00038   2
  -1   3   4 111.182 7.58285   2
  -1   3   4 105.545 6.96919   3
   1   3  -4 114.013 7.06501   2
  -1   3   4 109.340 8.01261   4
  -1   3   4 104.641 7.29820   3
   1   3  -4 106.641 8.38573   4
   1   3  -4 105.651 8.29355   3
   1  -3   4 997.506 51.6354   4
  -1  -3  -4 943.745 51.5140   3
   1  -3   4 960.775 52.1737   3
  -1  -3  -4 981.167 51.4679   2
  -1  -3  -4 926.070 52.0525   4
   1   3   4 924.874 52.0676   4
   1   3   4 960.320 51.5176   3
   1   3   4 914.531 51.4622   2
  -1   3  -4 941.885 52.2293   3
  -1   3  -4 972.384 51.6075   2
  -1   3  -4 893.814 51.7583   4
   3  -3   4 1578.91 84.6800   4
  -3  -3  -4 1567.08 85.3762   4
   3  -3   4 1580.98 85.1062   2
  -3  -3  -4 1565.38 84.7741   2
   3  -3   4 1576.07 85.6611   3
   3   3   4 1553.47 85.0666   3
  -3   3  -4 1561.44 85.1322   2
  -3   3  -4 1584.65 84.9318   4
  -5  -3  -4 19.6185 4.44617   4
   5  -3   4 29.5257 5.27422   3
   5  -3   4 22.8636 2.67053   4
  -5  -3  -4 20.2912 4.19997   3
  -5  -3  -4 22.9645 3.49377   2
   5   3   4 20.1769 4.14531   3
  -5   3  -4 19.5038 3.14612   4
  -5   3  -4 12.0967 4.06542   2
   5   3   4 25.2708 4.02094   2
   7  -3   4 410.240 21.9961   4
  -7  -3  -4 390.266 23.9599   4
   7  -3   4 413.622 24.8042   3
   7   3   4 400.303 23.5142   2
  -7   3  -4 417.239 23.8632   2
   7   3   4 405.151 24.1162   3
  -9  -3  -4 668.828 37.9824   4
   9  -3   4 667.034 39.4774   3
  -9  -3  -4 666.972 37.4471   2
   9   3   4 675.338 38.6528   3
  -9   3  -4 669.341 38.2618   2
 -11  -3  -4 266.522 17.4458   4
 -11  -3  -4 264.833 17.1411   2
  11  -3   4 278.880 19.6246   3
 -11   3  -4 272.585 18.3538   2
  11   3   4 277.657 19.7743   3
  13  -3   4 108.473 12.4916   3
 -13  -3  -4 126.489 10.8229   4
 -13  -3  -4 106.652 9.90841   2
  13   3   4 113.884 12.4907   3
 -13   3  -4 109.956 10.6505   2
  15  -3   4 120.549 14.1502   3
 -15  -3  -4 105.196 10.6323   4
 -15  -3  -4 108.019 10.2759   2
 -15   3  -4 115.059 11.2774   2
 -17  -3  -4 267.030 19.3327   2
  17  -3   4 256.792 22.4781   3
 -17  -3  -4 283.874 19.9082   4
 -17   3  -4 294.363 21.1051   2
  17   3   4 274.554 23.0366   3
  19  -3   4 54.2896 13.9712   3
 -19  -3  -4 63.0338 10.3152   2
 -19   3  -4 62.3666 11.6924   2
  19   3   4 43.6083 12.8303   3
  21  -3   4 -2.2737 13.6314   3
 -21   3  -4 -6.5618 10.2652   2
  21   3   4 -15.137 14.1663   3
 -24  -4   4 59.6039 12.2483   4
  24  -4  -4 101.030 16.7242   3
  24   4  -4 53.9800 16.7451   3
 -24   4   4 42.6768 12.2714   2
  22  -4  -4 21.3565 12.0212   3
 -22  -4   4 8.26824 9.09523   4
  22   4  -4 -4.1858 11.8436   3
 -22   4   4 -8.8230 8.29431   2
  20  -4  -4 128.396 16.1965   3
 -20  -4   4 133.511 13.7131   4
 -20   4   4 159.084 14.8331   2
  20   4  -4 167.835 17.5958   3
 -18  -4   4 173.048 14.9923   4
  18  -4  -4 146.439 15.6055   3
  18   4  -4 167.991 16.3145   3
 -18   4   4 217.401 15.9853   2
 -16  -4   4 168.313 14.4335   4
  16  -4  -4 176.184 15.6552   3
  16   4  -4 174.902 15.4550   3
 -16   4   4 190.773 14.0349   2
 -14  -4   4 779.202 43.6444   4
 -14  -4   4 739.251 41.1769   2
  14  -4  -4 694.466 44.1458   3
 -14   4   4 768.257 42.0561   4
  14   4  -4 764.893 44.0425   3
 -14   4   4 787.124 43.4296   2
 -12  -4   4 91.2311 5.67954   2
 -12  -4   4 83.4176 9.49846   4
 -12  -4   4 85.9025 5.80880   2
  12  -4  -4 100.951 10.5987   3
  12   4  -4 77.3796 9.14159   3
 -12   4   4 89.1408 8.55017   2
 -12   4   4 101.847 8.29854   4
 -12   4   4 97.9844 7.35601   4
  10  -4  -4 344.577 22.7384   3
 -10  -4   4 363.023 22.9007   4
  10  -4  -4 349.815 21.6197   2
  10   4  -4 396.224 22.7203   3
 -10   4   4 381.952 21.8720   4
 -10   4   4 378.189 21.8861   4
   8  -4  -4 514.064 29.6848   2
  -8  -4   4 518.600 30.5826   4
   8  -4  -4 517.626 30.4055   3
   8   4  -4 544.044 30.5146   3
  -8   4   4 517.976 29.6000   4
  -8   4   4 549.672 30.0167   4
  -6  -4   4 345.702 20.8533   4
   6  -4  -4 366.742 19.9493   2
   6  -4  -4 332.211 20.2929   3
  -6   4   4 341.012 20.7572   3
   6   4  -4 338.163 20.4538   3
  -6   4   4 339.311 20.0683   4
  -6   4   4 336.492 20.1632   4
   4  -4  -4 87.2160 7.32739   4
  -4  -4   4 87.9449 7.72172   4
   4  -4  -4 92.3885 6.61415   2
   4  -4  -4 97.4292 7.28552   3
  -4   4   4 96.9662 7.71213   4
  -4   4   4 88.3316 7.52781   3
   4   4  -4 87.9062 5.65993   2
  -4   4   4 109.873 7.97715   2
   4   4  -4 84.7460 7.57504   3
   2  -4  -4 680.591 37.3600   2
  -2  -4   4 708.156 38.1017   3
   2  -4  -4 713.887 37.9952   4
   2  -4  -4 703.295 37.5449   3
  -2  -4   4 607.581 36.9040   2
   2   4  -4 705.174 37.0587   2
   2   4  -4 664.696 38.1857   4
  -2   4   4 669.929 37.4665   2
  -2   4   4 724.727 37.8066   3
  -2   4   4 625.700 38.3839   4
   0  -4   4 237.862 15.0802   3
   0  -4  -4 255.389 14.9085   4
   0  -4   4 263.184 14.6969   4
   0  -4  -4 238.327 13.9742   2
   0   4   4 225.779 14.1938   2
   0   4  -4 233.384 15.0245   4
   0   4  -4 237.546 14.0298   2
   0   4   4 234.469 14.5368   3
   0   4   4 226.636 14.1753   3
  -2  -4  -4 39.4026 5.29234   4
   2  -4   4 30.0274 4.18009   4
  -2  -4  -4 33.3528 3.81457   2
   2  -4   4 41.3405 4.78134   2
   2  -4   4 48.7862 6.02134   3
  -2   4  -4 36.1267 4.75396   2
   2   4   4 41.9014 4.98736   3
   2   4   4 36.8198 4.22679   3
   2   4   4 38.3696 4.37538   2
  -2   4  -4 47.2414 5.23000   4
   4  -4   4 1155.36 64.5527   3
  -4  -4  -4 1196.06 63.2726   2
   4  -4   4 1199.87 63.1881   4
  -4  -4  -4 1118.68 64.2916   3
  -4  -4  -4 1161.58 64.2800   4
   4   4   4 1118.65 63.3601   2
   4   4   4 1180.40 63.9345   3
  -4   4  -4 1177.53 63.8646   2
  -4   4  -4 1172.13 63.5145   4
   6  -4   4 1721.32 91.7787   4
  -6  -4  -4 1741.76 93.2607   4
  -6  -4  -4 1694.56 92.2516   2
   6  -4   4 1705.04 93.8204   3
   6   4   4 1650.48 92.3504   2
  -6   4  -4 1691.55 92.0542   4
  -6   4  -4 1726.97 92.9903   2
   6   4   4 1731.58 93.2491   3
  -8  -4  -4 260.757 16.7935   4
   8  -4   4 288.111 18.9945   3
  -8  -4  -4 270.015 15.6497   2
   8   4   4 218.023 17.1703   3
  -8   4  -4 252.605 16.6800   2
 -10  -4  -4 70.2705 6.92078   2
  10  -4   4 51.5616 9.38593   3
 -10  -4  -4 73.1712 8.51373   4
  10   4   4 65.2476 8.80566   3
 -10   4  -4 73.8989 8.24252   2
 -12  -4  -4 262.239 16.3660   2
  12  -4   4 235.012 18.9607   3
 -12  -4  -4 212.319 17.3536   4
  12   4   4 283.024 20.0748   3
 -12   4  -4 249.549 17.4581   2
  14  -4   4 140.274 15.1655   3
 -14  -4  -4 169.600 13.3113   4
 -14  -4  -4 176.875 12.5238   2
  14   4   4 184.912 16.6726   3
 -14   4  -4 117.546 12.6478   2
 -16  -4  -4 308.264 21.8591   4
  16  -4   4 322.616 24.2328   3
 -16  -4  -4 332.050 20.7148   2
 -16   4  -4 313.312 22.8205   2
  16   4   4 292.042 24.3655   3
  18  -4   4 142.413 17.1904   3
 -18  -4  -4 178.791 20.6287   2
 -18  -4  -4 157.281 14.6605   4
  18   4   4 157.398 18.3001   3
 -18   4  -4 149.159 14.7615   2
  20  -4   4 25.9573 12.8665   3
  20   4   4 16.2444 14.5690   3
 -20   4  -4 35.8397 10.2717   2
  22  -4   4 107.188 17.7599   3
  22   4   4 81.9053 19.3584   3
 -22   4  -4 124.181 23.4243   2
  23  -5  -4 58.4075 15.4402   3
 -23  -5   4 41.0593 11.9989   4
  23   5  -4 50.3199 16.5619   3
 -23   5   4 71.9484 13.5512   2
 -21  -5   4 30.5927 10.2525   4
  21  -5  -4 14.6558 10.9774   3
  21   5  -4 2.14376 11.0333   3
 -21   5   4 10.5386 10.0953   2
 -19  -5   4 29.7199 9.27792   4
  19  -5  -4 31.8214 10.4595   3
  19   5  -4 5.30861 10.3525   3
 -19   5   4 34.8597 8.94939   2
  17  -5  -4 39.5764 10.5953   3
 -17  -5   4 40.7320 9.22670   4
  17   5  -4 17.8610 8.73711   3
 -17   5   4 47.1542 8.81140   2
  15  -5  -4 131.194 13.5058   3
 -15  -5   4 113.454 12.4103   4
  13  -5  -4 283.442 19.8202   3
 -13  -5   4 278.473 18.5985   4
  13   5  -4 266.978 18.5711   3
 -13   5   4 252.403 17.1868   4
 -13   5   4 240.061 17.5502   2
 -11  -5   4 11.9712 5.67713   4
  11  -5  -4 -2.4268 6.17098   3
  11   5  -4 0.08086 5.04107   3
 -11   5   4 5.05183 4.88074   4
 -11   5   4 -9.1358 4.61558   2
   9  -5  -4 4.39878 5.57821   3
   9  -5  -4 7.67369 3.96166   2
  -9  -5   4 0.16021 5.34354   4
  -9   5   4 -0.9700 4.15376   4
  -9   5   4 10.8481 4.76057   4
   9   5  -4 2.58448 4.51844   3
   7  -5  -4 537.731 32.1041   3
  -7  -5   4 563.113 32.4630   4
   7  -5  -4 573.666 31.5479   2
   7   5  -4 561.687 32.4975   3
  -7   5   4 546.940 31.8299   4
   5  -5  -4 138.302 10.2185   3
   5  -5  -4 144.127 10.0156   4
  -5  -5   4 128.426 10.4685   4
   5  -5  -4 135.193 9.15379   2
   5   5  -4 146.279 10.3855   3
   5   5  -4 135.044 7.67004   2
   5   5  -4 127.563 7.58501   2
   3  -5  -4 1.36712 3.96324   4
   3  -5  -4 11.6088 3.71990   3
   3  -5  -4 13.2088 3.23372   2
  -3  -5   4 -0.8150 3.82288   4
   3   5  -4 4.61617 2.12003   2
   3   5  -4 8.53396 2.38972   2
   3   5  -4 2.07701 3.74148   3
   1  -5  -4 64.8011 5.32588   2
   1  -5  -4 54.2318 6.23322   4
  -1  -5   4 61.7694 7.00411   3
  -1  -5   4 57.4699 6.40161   4
  -1   5   4 56.1751 7.21603   3
  -1   5   4 53.6478 5.77792   2
  -1   5   4 64.0179 6.16390   3
   1   5  -4 69.1888 5.31465   2
   1  -5   4 101.998 8.11641   2
  -1  -5  -4 115.129 9.15361   4
  -1  -5  -4 113.765 7.83413   2
   1  -5   4 106.122 9.55305   3
   1  -5   4 117.438 8.58716   4
   1   5   4 107.238 8.23314   2
   1   5   4 117.221 8.50297   3
  -1   5  -4 99.3333 8.98852   4
   3  -5   4 219.238 14.0546   4
   3  -5   4 219.637 15.5330   3
  -3  -5  -4 243.892 13.7198   2
  -3  -5  -4 208.304 14.9847   4
   3   5   4 220.040 14.1733   2
   3   5   4 228.297 14.6109   3
  -3   5  -4 248.104 14.5969   2
  -3   5  -4 230.051 14.9415   4
  -5  -5  -4 216.905 12.1781   2
  -5  -5  -4 173.786 13.5825   4
   5  -5   4 205.889 12.0882   4
   5  -5   4 198.089 14.5707   3
   5   5   4 160.763 12.6271   2
  -5   5  -4 217.950 13.2539   2
   5   5   4 178.423 13.0291   3
  -5   5  -4 190.739 13.2803   4
  -7  -5  -4 83.7849 9.36935   4
  -7  -5  -4 99.3462 7.43195   2
   7  -5   4 97.7994 6.71819   4
   7  -5   4 99.2667 10.8189   3
  -7   5  -4 111.153 9.38174   2
   7   5   4 93.9976 8.24346   2
   7   5   4 69.6163 8.54819   3
  -9  -5  -4 85.4338 9.60863   4
  -9  -5  -4 74.8993 6.87058   2
   9  -5   4 79.8075 10.4547   3
  -9   5  -4 92.6230 9.73278   2
   9   5   4 69.8179 8.95804   3
 -11  -5  -4 287.168 19.2945   4
  11  -5   4 278.999 21.4787   3
 -11  -5  -4 262.069 16.9991   2
 -11   5  -4 261.368 18.7133   2
  11   5   4 276.230 19.5479   3
 -13  -5  -4 2.66351 5.16780   2
 -13  -5  -4 6.68722 7.32203   4
  13  -5   4 -6.5021 7.94832   3
 -13   5  -4 2.07193 6.45649   2
  13   5   4 -1.0403 8.78479   3
 -15  -5  -4 4.18674 8.11651   4
  15  -5   4 -4.8215 9.99277   3
  15   5   4 16.1052 9.82395   3
 -15   5  -4 0.60928 8.35203   2
 -17  -5  -4 178.384 16.3770   4
  17  -5   4 206.532 19.8049   3
 -17   5  -4 200.300 17.3181   2
  17   5   4 208.108 20.6795   3
 -19  -5  -4 41.1279 10.9701   4
  19  -5   4 46.9316 14.4574   3
  19   5   4 29.6523 14.9752   3
 -19   5  -4 31.8555 10.3101   2
  21  -5   4 -2.7624 14.8842   3
 -21   5  -4 5.76023 12.3627   2
  21   5   4 2.17434 16.1062   3
 -22  -6   4 3.99425 11.0548   4
  22  -6  -4 3.43986 13.1986   3
  22   6  -4 -11.648 13.3333   3
 -22   6   4 14.4414 10.0134   2
 -20  -6   4 3.76340 8.82125   4
  20  -6  -4 0.40592 10.4005   3
  20   6  -4 -4.0468 10.2246   3
 -20   6   4 10.8796 9.84595   2
 -18  -6   4 5.13884 7.92361   4
  18  -6  -4 -2.2304 9.99267   3
 -18   6   4 9.36569 9.01427   2
  18   6  -4 0.60954 9.62299   3
 -16  -6   4 15.1495 7.99854   4
  16  -6  -4 5.36243 9.13456   3
  16   6  -4 20.3835 8.61957   3
 -16   6   4 17.8122 7.27175   2
  14  -6  -4 103.102 11.7902   3
 -14  -6   4 87.6407 11.0337   4
  14   6  -4 113.619 12.2906   3
 -14   6   4 128.332 11.7615   2
 -12  -6   4 17.0744 7.50609   4
  12  -6  -4 14.9257 7.99463   3
  12   6  -4 16.0392 7.57775   3
 -12   6   4 25.2107 6.98683   4
 -12   6   4 28.4719 7.57504   2
  10  -6  -4 18.5298 6.58750   3
 -10  -6   4 27.1987 7.89912   4
 -10   6   4 32.5128 6.08392   4
  10   6  -4 28.1385 6.95873   3
 -10   6   4 16.6054 6.23728   2
   8  -6  -4 4.26856 4.36711   2
   8  -6  -4 13.1674 5.63761   3
  -8  -6   4 10.6666 6.45049   4
  -8   6   4 3.77550 4.87482   4
   8   6  -4 3.41343 5.39967   3
  -6  -6   4 134.638 12.5324   4
   6  -6  -4 159.000 12.3900   3
   6  -6  -4 160.457 11.2603   2
   6  -6  -4 178.354 11.9686   4
   6   6  -4 158.034 12.4514   3
   4  -6  -4 0.33679 3.47186   2
   4  -6  -4 0.09784 4.01548   4
   4  -6  -4 0.55334 4.57028   3
  -4  -6   4 4.90834 5.44770   4
   4   6  -4 1.73526 2.33806   2
   4   6  -4 -3.2084 4.61396   3
   4   6  -4 -1.0720 2.41982   2
   2  -6  -4 -0.2953 4.40753   4
   2  -6  -4 10.2692 3.62395   2
  -2  -6   4 8.35823 4.71911   4
  -2  -6   4 18.8642 5.76486   3
  -2   6   4 19.4212 4.89247   3
   2   6  -4 13.1761 3.38814   2
   0  -6   4 20.4198 5.17893   4
   0  -6   4 15.4100 5.85219   3
   0  -6  -4 14.8622 3.55500   2
   0  -6  -4 14.3485 5.26734   4
   0   6   4 10.8186 4.65747   3
   0   6  -4 28.1026 6.25746   2
   0   6  -4 7.94543 3.90615   2
   2  -6   4 12.5384 6.66839   3
   2  -6   4 13.8669 4.68924   4
  -2  -6  -4 26.7560 5.79304   4
  -2  -6  -4 21.9206 3.83265   2
   2   6   4 17.9651 4.57136   3
  -2   6  -4 23.5500 4.78729   2
   4  -6   4 31.8310 5.04582   4
  -4  -6  -4 16.2867 6.78587   4
   4  -6   4 46.7426 7.93503   3
  -4  -6  -4 39.9192 4.58098   2
  -4   6  -4 26.6207 8.86049   4
  -4   6  -4 37.2652 6.13206   2
   4   6   4 45.0885 6.44279   3
   4   6   4 28.2758 6.38846   2
  -6  -6  -4 15.8167 6.70316   4
   6  -6   4 10.9204 7.18465   3
   6  -6   4 5.36948 3.62295   4
  -6  -6  -4 4.30233 3.63720   2
  -6   6  -4 12.5799 5.37930   2
   6   6   4 7.06452 5.60740   3
  -8  -6  -4 3.70742 3.91268   2
  -8  -6  -4 4.83264 6.16535   4
   8  -6   4 8.25935 7.52743   3
  -8   6  -4 9.51022 6.76742   2
   8   6   4 6.14316 5.79059   3
 -10  -6  -4 49.2618 9.53600   4
 -10  -6  -4 49.5041 5.78976   2
  10  -6   4 32.8020 8.84995   3
  10   6   4 38.2449 8.26858   3
 -10   6  -4 50.2317 8.74768   2
  12  -6   4 7.27575 8.19920   3
 -12  -6  -4 7.59143 7.74082   4
 -12   6  -4 5.46736 7.61471   2
 -14  -6  -4 14.7359 8.24686   4
  14  -6   4 25.0380 10.6725   3
  14   6   4 23.2736 9.85748   3
 -14   6  -4 29.2968 9.38616   2
 -16  -6  -4 33.9650 10.0842   4
  16  -6   4 57.2131 13.1805   3
 -16   6  -4 24.4049 9.59023   2
  16   6   4 45.2820 13.5842   3
  18  -6   4 27.8710 14.1929   3
 -18  -6  -4 11.2341 10.5110   4
 -18   6  -4 1.18371 9.74311   2
  18   6   4 -21.694 13.3878   3
 -20  -6  -4 -3.9559 10.6206   4
  20  -6   4 1.63768 14.6316   3
  20   6   4 -16.307 15.6263   3
 -20   6  -4 -0.2530 10.8014   2
  21  -7  -4 1.76221 11.5957   3
 -21  -7   4 -7.1033 10.7872   4
  21   7  -4 -0.1551 12.3710   3
 -21   7   4 -0.7372 10.3651   2
  19  -7  -4 78.4790 14.3349   3
 -19  -7   4 48.7191 12.2304   4
  19   7  -4 50.4103 13.0367   3
 -19   7   4 59.1780 12.4374   2
 -17  -7   4 36.3391 10.0313   4
  17  -7  -4 23.0586 9.68566   3
 -17   7   4 -4.1958 9.07076   2
  17   7  -4 29.6402 10.3667   3
  15  -7  -4 38.8761 10.6719   3
 -15  -7   4 52.8640 9.97514   4
  15   7  -4 68.1965 11.4219   3
 -15   7   4 37.8449 8.75830   2
 -13  -7   4 80.5633 11.1529   4
 -13   7   4 90.4628 10.6781   2
  13   7  -4 100.876 11.9202   3
 -11  -7   4 9.98692 8.04560   4
  11  -7  -4 -0.0040 6.29256   3
 -11   7   4 8.24598 6.80783   2
 -11   7   4 -4.5479 6.03120   4
  11   7  -4 7.91241 6.64219   3
   9  -7  -4 127.970 11.6771   3
  -9  -7   4 98.9262 11.2266   4
  -9   7   4 140.183 11.0846   4
   9   7  -4 94.7059 10.9435   3
  -9   7   4 104.161 11.0219   2
  -7  -7   4 92.8403 10.4643   4
   7  -7  -4 89.6007 9.62418   3
   7  -7  -4 82.0431 8.60034   4
   7  -7  -4 83.3824 7.85489   2
   7   7  -4 69.6397 9.69384   3
   5  -7  -4 -1.3118 5.34757   4
   5  -7  -4 -0.7161 4.05728   2
   5  -7  -4 -3.9568 5.62799   3
  -5  -7   4 12.4330 6.18307   4
   5   7  -4 4.11460 5.59648   3
   3  -7  -4 18.3546 4.44025   2
  -3  -7   4 6.10246 6.02687   4
   3  -7  -4 5.38404 5.08390   4
   3  -7  -4 3.34529 5.22699   3
   3   7  -4 -1.2064 5.22039   3
   3   7  -4 2.05495 3.36600   2
  -1  -7   4 388.432 24.4530   4
   1  -7  -4 391.674 22.8890   2
   1  -7  -4 406.233 24.6965   4
  -1  -7   4 377.260 25.0159   3
  -1   7   4 418.675 24.4172   3
   1   7  -4 377.119 23.2540   2
  -1  -7  -4 28.9682 4.39879   2
   1  -7   4 27.6498 7.28802   3
   1  -7   4 25.7573 6.14202   4
  -1  -7  -4 18.9740 6.28298   4
   1   7   4 32.3043 6.27573   3
  -1   7  -4 17.7650 5.12505   2
  -3  -7  -4 9.39799 6.06084   4
  -3  -7  -4 9.08296 3.79437   2
   3  -7   4 15.8059 7.55727   3
   3  -7   4 8.53487 4.96122   4
   3   7   4 13.5328 5.75094   3
  -3   7  -4 19.2581 5.76029   2
  -5  -7  -4 419.375 26.8676   4
   5  -7   4 438.205 25.2814   4
   5  -7   4 419.810 27.8266   3
  -5  -7  -4 427.397 24.4352   2
  -5   7  -4 447.995 25.8054   2
   5   7   4 410.090 26.5101   3
  -7  -7  -4 174.589 12.4318   2
   7  -7   4 216.309 17.7852   3
  -7  -7  -4 208.025 16.2861   4
   7   7   4 186.062 14.9135   3
  -7   7  -4 212.032 14.6718   2
  -9  -7  -4 4.17680 7.53867   4
   9  -7   4 12.1804 9.12980   3
   9   7   4 2.72818 7.62230   3
  11  -7   4 96.3110 13.5116   3
 -11  -7  -4 88.6113 11.1595   4
 -11   7  -4 72.0950 10.3620   2
  11   7   4 77.6898 11.8321   3
  13  -7   4 9.11712 10.7531   3
 -13  -7  -4 -2.2653 7.62459   4
 -13   7  -4 -19.381 7.53350   2
  13   7   4 -4.1901 8.62702   3
  15  -7   4 26.4002 12.4852   3
 -15  -7  -4 43.7783 10.1998   4
  15   7   4 32.4393 11.8149   3
 -15   7  -4 41.2004 10.0910   2
 -17  -7  -4 123.664 14.9199   4
  17  -7   4 115.218 17.6046   3
 -17   7  -4 109.862 15.3186   2
  17   7   4 114.634 18.3939   3
 -20  -8   4 2.17249 12.0502   4
  20  -8  -4 -5.5416 12.9359   3
 -20   8   4 0.49578 11.9964   2
  20   8  -4 -7.6675 14.0316   3
  18  -8  -4 85.6574 14.0850   3
 -18  -8   4 81.7650 14.5552   4
 -18   8   4 74.3026 13.3523   2
  18   8  -4 81.9836 15.0719   3
  16  -8  -4 97.7388 13.8415   3
 -16  -8   4 56.4047 11.3552   4
 -16   8   4 63.2361 11.2746   2
  16   8  -4 70.9668 12.6538   3
  14  -8  -4 73.5492 11.5754   3
 -14  -8   4 79.5901 11.9633   4
  14   8  -4 87.9234 13.2577   3
 -14   8   4 104.244 12.3861   2
  12  -8  -4 91.2209 12.2416   3
 -12  -8   4 106.273 12.6824   4
  12   8  -4 98.8067 12.4441   3
 -12   8   4 89.4322 10.8769   2
 -10  -8   4 10.6409 8.02182   4
  10  -8  -4 21.3022 8.08734   3
  10   8  -4 15.5737 7.81222   3
 -10   8   4 24.2964 7.84348   2
 -10   8   4 8.06525 6.97464   4
   8  -8  -4 35.4627 7.46982   4
  -8  -8   4 41.5283 8.68389   4
   8  -8  -4 47.0889 8.93083   3
  -8   8   4 65.1823 8.90195   2
   8   8  -4 54.7424 9.23866   3
  -6  -8   4 160.575 14.5920   4
   6  -8  -4 152.392 12.2221   2
   6  -8  -4 187.238 13.9303   4
   6  -8  -4 168.221 14.0857   3
   6   8  -4 158.657 15.1306   3
   4  -8  -4 177.997 13.5788   3
   4  -8  -4 142.401 12.9503   4
   4  -8  -4 157.312 11.9021   2
  -4  -8   4 156.153 13.9529   4
  -2  -8   4 15.3984 6.37526   4
   2  -8  -4 25.4493 6.58587   4
   2  -8  -4 9.01884 4.42448   2
  -2   8   4 20.2199 6.38874   3
   2   8  -4 2.94875 6.86716   3
   0  -8  -4 18.5700 6.76985   4
   0  -8  -4 17.4609 4.50558   2
   0  -8   4 11.7987 6.45669   4
   0   8   4 15.3250 6.81372   3
   0   8  -4 13.0713 5.25912   2
   2  -8   4 300.131 19.0571   4
   2  -8   4 274.235 20.0916   3
  -2  -8  -4 282.772 21.4996   4
  -2  -8  -4 279.931 17.4238   2
   2   8   4 278.305 19.7711   3
  -2   8  -4 291.801 18.6721   2
   4  -8   4 63.3254 7.76460   4
  -4  -8  -4 66.6764 6.27774   2
  -4  -8  -4 56.7635 9.56358   4
   4  -8   4 64.0874 9.82531   3
  -4   8  -4 67.2740 8.51174   2
   4   8   4 60.5091 8.89474   3
   6  -8   4 107.087 12.7538   3
  -6  -8  -4 148.986 13.2138   4
  -6   8  -4 138.614 12.1184   2
   6   8   4 129.719 12.9509   3
  -8  -8  -4 95.0062 12.4146   4
   8  -8   4 98.6726 12.4137   3
  -8   8  -4 100.746 10.9542   2
   8   8   4 132.012 12.3807   3
 -10  -8  -4 119.766 13.4964   4
  10  -8   4 103.811 13.5594   3
 -10   8  -4 134.080 13.1958   2
  10   8   4 115.386 14.1226   3
 -12  -8  -4 21.6589 9.20588   4
  12  -8   4 22.7989 9.86976   3
 -12   8  -4 4.87743 8.30593   2
  12   8   4 0.94962 9.37235   3
 -14  -8  -4 6.65302 10.4398   4
  14  -8   4 3.27697 11.3136   3
 -14   8  -4 7.56365 9.29651   2
  14   8   4 12.8337 12.4772   3
  16  -8   4 121.451 17.3850   3
 -16  -8  -4 153.186 16.1411   4
 -16   8  -4 117.128 15.7865   2
  16   8   4 107.774 18.4912   3
 -17  -9   4 71.0643 14.4933   4
  17  -9  -4 57.7713 14.0905   3
  17   9  -4 50.7056 14.8413   3
 -17   9   4 63.9213 13.8386   2
 -15  -9   4 7.08680 11.0379   4
  15  -9  -4 6.46699 9.70478   3
  15   9  -4 1.09515 9.93862   3
 -15   9   4 3.28728 10.3108   2
  13  -9  -4 16.0275 9.11584   3
 -13  -9   4 6.79911 10.0798   4
  13   9  -4 11.4637 9.75031   3
 -13   9   4 5.02834 8.27720   2
  11  -9  -4 67.8426 11.1185   3
 -11  -9   4 83.1072 11.8228   4
 -11   9   4 53.3802 9.82806   2
  11   9  -4 69.5201 11.9938   3
   9  -9  -4 30.4771 9.32974   3
  -9  -9   4 35.2180 9.29395   4
  -9   9   4 44.2087 8.90420   4
  -9   9   4 32.6524 8.08084   2
   9   9  -4 18.3752 8.75881   3
   7  -9  -4 -7.8709 6.35534   3
  -7  -9   4 -3.6948 7.42619   4
   7  -9  -4 -0.5051 6.78840   4
   7   9  -4 8.31705 8.79761   3
  -7   9   4 0.95407 6.72155   2
   5  -9  -4 71.2705 10.0911   4
  -5  -9   4 69.0075 10.1492   4
   5   9  -4 95.1267 11.5462   3
  -5   9   4 69.4538 9.30563   2
  -3  -9   4 70.2351 9.88093   4
   3  -9  -4 40.1288 6.53170   2
   3  -9  -4 42.2767 10.3294   4
  -3   9   4 54.4046 9.16630   3
   3   9  -4 41.4636 9.78557   3
  -1  -9   4 11.9024 7.30068   4
   1  -9  -4 6.30121 6.66712   4
   1  -9  -4 7.85080 4.99567   2
   1   9  -4 3.21112 7.74827   3
  -1   9   4 10.4246 7.05914   3
  -1  -9  -4 59.1022 10.1000   4
  -1  -9  -4 62.4170 6.71272   2
   1  -9   4 55.5973 9.70611   3
   1  -9   4 79.1225 9.53509   4
  -1   9  -4 60.9853 8.03632   2
   1   9   4 49.9276 9.63564   3
   3  -9   4 30.9368 7.67101   4
  -3  -9  -4 36.8955 8.66561   4
   3  -9   4 26.6585 9.58949   3
  -3   9  -4 19.9201 7.34427   2
  -5  -9  -4 39.8003 9.31248   4
   5  -9   4 41.4943 9.92529   3
  -5   9  -4 13.8850 7.87582   2
   5   9   4 59.0475 10.3349   3
   7  -9   4 94.5605 12.9746   3
  -7  -9  -4 59.9051 11.2634   4
   7   9   4 60.5105 11.6763   3
  -7   9  -4 80.5222 10.8980   2
  -9  -9  -4 29.5266 10.4030   4
   9  -9   4 21.8032 9.66167   3
  -9   9  -4 9.95901 8.34524   2
   9   9   4 34.3059 10.6258   3
  11  -9   4 2.83430 10.7636   3
 -11  -9  -4 0.55285 9.22865   4
 -11   9  -4 3.08940 9.55006   2
  11   9   4 -12.431 10.7426   3
  13  -9   4 44.8642 14.1150   3
 -13  -9  -4 35.5442 11.5474   4
  13   9   4 15.2139 11.8187   3
 -13   9  -4 38.0950 11.8864   2
  15  -9   4 46.7840 14.9122   3
 -15   9  -4 56.5336 12.5035   2
  15   9   4 32.4845 15.0820   3
  16 -10  -4 1.41442 11.7526   3
 -16 -10   4 1.65058 11.3471   4
 -16  10   4 -7.6684 12.0547   2
  16  10  -4 1.85845 14.7445   3
 -14 -10   4 2.46191 11.7829   4
  14 -10  -4 11.3676 10.9320   3
  14  10  -4 18.8866 12.2462   3
 -14  10   4 21.1714 11.6843   2
 -12 -10   4 3.51621 10.0139   4
  12 -10  -4 21.3116 10.1676   3
 -12  10   4 18.7979 9.48771   2
  12  10  -4 23.1706 12.6257   3
  10 -10  -4 8.42676 9.90872   3
 -10 -10   4 3.33599 10.3309   4
  10  10  -4 -11.295 9.52500   3
 -10  10   4 1.03615 8.80277   2
  -8 -10   4 0.46221 8.94835   4
   8 -10  -4 4.13134 8.85151   3
   8  10  -4 6.39739 9.26710   3
  -8  10   4 -2.0915 8.41688   2
  -6 -10   4 19.5756 9.26885   4
   6 -10  -4 11.1989 8.08531   4
   6 -10  -4 12.5384 8.59014   3
   6  10  -4 18.0960 10.7743   3
  -6  10   4 4.03481 7.92548   2
  -4 -10   4 -1.9807 7.80453   4
   4 -10  -4 2.22591 8.55595   4
  -4  10   4 -3.6744 9.29799   3
   4  10  -4 7.10771 9.91248   3
  -4  10   4 0.65749 7.09974   2
   2 -10  -4 -10.931 7.43598   4
  -2 -10   4 -9.3629 7.19673   4
  -2  10   4 6.50089 8.37609   3
   2  10  -4 2.58331 8.91363   3
   0 -10  -4 -0.8028 8.55599   4
   0 -10   4 3.57382 8.25504   4
   0  10  -4 1.22482 9.81368   3
   0  10   4 2.79351 8.63815   3
  -2 -10  -4 8.52015 8.24701   4
   2 -10   4 1.41942 9.43129   3
   2  10   4 5.01589 9.13743   3
   4 -10   4 6.56388 8.97609   3
  -4 -10  -4 7.26504 8.75704   4
  -4  10  -4 18.4534 8.35241   2
   4  10   4 12.1579 9.89671   3
   6 -10   4 6.95042 10.2188   3
  -6 -10  -4 17.1459 10.9264   4
   6  10   4 7.83371 10.1604   3
  -6  10  -4 23.1385 9.64709   2
  -8 -10  -4 -2.9541 10.0595   4
   8 -10   4 6.96665 9.94100   3
   8  10   4 0.28984 10.9216   3
  -8  10  -4 -10.713 9.51554   2
  10 -10   4 2.92251 11.7711   3
 -10 -10  -4 9.81873 11.2885   4
 -10  10  -4 3.33323 10.8358   2
  10  10   4 9.13387 10.8875   3
 -12 -10  -4 -12.351 18.9565   4
 -12  10  -4 -27.330 10.9760   2
  12  10   4 2.16299 13.8040   3
  11 -11  -4 9.51944 11.8712   3
 -11 -11   4 18.3619 12.6346   4
 -11  11   4 14.7115 11.7112   2
  11  11  -4 5.86042 13.3936   3
   9 -11  -4 22.5019 10.2018   3
  -9 -11   4 19.1308 11.0757   4
  -9  11   4 16.2237 10.4500   2
   9  11  -4 6.93576 12.3921   3
   7 -11  -4 -1.2438 10.1913   3
  -7 -11   4 0.82056 9.62430   4
   7 -11  -4 -5.8318 9.34057   4
  -7  11   4 -3.9581 9.54254   2
   7  11  -4 5.20049 10.9096   3
  -5 -11   4 76.9035 12.7858   4
   5 -11  -4 52.6153 10.9381   4
   5  11  -4 23.7644 12.5283   3
  -5  11   4 36.9789 12.9416   3
  -3 -11   4 1.00642 9.15160   4
   3 -11  -4 2.19501 8.65201   4
   3  11  -4 3.93733 10.6362   3
  -3  11   4 -1.7221 11.1543   3
   1 -11  -4 26.5177 10.2959   4
  -1 -11   4 11.3516 9.65603   4
  -1  11   4 49.0101 11.9346   3
   1  11  -4 11.9153 11.1726   3
   1 -11   4 40.4327 10.9317   4
  -1 -11  -4 41.9719 10.7229   4
  -1  11  -4 46.5438 13.4696   3
   1  11   4 41.8345 12.4583   3
  -3 -11  -4 36.2772 10.8322   4
   3 -11   4 19.2668 11.3987   3
   3  11   4 36.1293 11.9057   3
   5 -11   4 -23.393 10.4875   3
  -5 -11  -4 -2.7593 9.77920   4
   5  11   4 -5.9887 10.9514   3
   7 -11   4 51.7730 13.2513   3
  -7 -11  -4 57.2912 13.8738   4
   7  11   4 56.6256 13.8763   3
   4 -12  -4 23.1635 11.1100   4
  -4 -12   4 32.1415 11.6827   4
  -4  12   4 30.8234 14.2001   3
   2 -12  -4 12.8288 10.9367   4
  -2 -12   4 5.36034 11.8388   4
  -2  12   4 10.9888 13.1913   3
   0 -12   4 0.13178 11.0788   4
   0 -12  -4 -1.9841 11.4213   4
   0  12   4 -7.5130 12.0636   3
 -26   0   5 -8.1730 9.92050   2
  26   0  -5 -20.691 14.6059   3
 -24   0   5 -0.9076 8.72386   2
  24   0  -5 -3.0352 12.7877   3
 -20   0   5 -9.5467 5.44802   4
 -20   0   5 3.36976 6.61309   2
  20   0  -5 11.2849 8.93937   3
  18   0  -5 -5.3113 8.65102   3
 -18   0   5 0.15757 5.44806   2
 -18   0   5 -0.1859 5.33628   4
  16   0  -5 -4.7056 6.88190   3
 -16   0   5 2.11882 4.96468   4
 -16   0   5 -4.0968 4.30862   2
 -14   0   5 0.58924 3.71826   2
 -14   0   5 -3.1988 4.23136   4
  14   0  -5 -0.0217 5.44582   3
  12   0  -5 -0.8837 4.21116   3
  12   0  -5 -1.7021 5.35432   4
  12   0  -5 -7.5715 2.72093   2
 -12   0   5 -0.4734 4.13569   4
 -10   0   5 -0.4680 2.72972   2
 -10   0   5 -0.1106 3.98316   3
 -10   0   5 11.8484 4.06146   4
  10   0  -5 -3.6080 5.95704   3
  10   0  -5 -4.6489 4.22482   4
  10   0  -5 3.39351 2.47024   2
  -8   0   5 -4.1107 3.83894   4
  -8   0   5 -1.8414 2.19577   2
  -8   0   5 5.45527 3.00189   3
   8   0  -5 6.24174 2.87801   3
   8   0  -5 -1.9622 1.90677   2
   6   0  -5 -1.9280 1.74123   2
  -6   0   5 -0.2575 1.79227   3
  -6   0   5 0.91691 2.05347   2
   6   0  -5 4.01966 3.43073   4
   6   0  -5 1.04921 2.04704   3
  -6   0   5 9.15832 3.96421   4
  -4   0   5 0.95336 1.21842   3
   4   0  -5 2.82734 1.30388   3
  -4   0   5 0.77651 3.62305   4
   4   0  -5 9.01479 3.34197   4
  -4   0   5 -1.8318 2.14274   2
   4   0  -5 1.84802 2.03316   2
   2   0  -5 -0.9574 1.34424   3
  -2   0   5 -0.0857 3.28143   4
  -2   0   5 1.17951 1.21109   3
   2   0  -5 -1.4178 2.18809   2
  -2   0   5 0.96376 2.18452   2
   2   0  -5 -0.0233 2.76301   4
   0   0   5 -3.5133 1.86623   3
   0   0  -5 0.42826 1.59907   3
   0   0   5 -1.3346 2.34114   2
   0   0   5 10.4278 2.98191   4
   0   0  -5 -1.4484 2.16425   2
   0   0  -5 2.88282 2.52548   4
   2   0   5 -0.9759 2.63445   3
   2   0   5 -3.7309 2.46989   4
   2   0   5 0.12237 2.49094   2
  -2   0  -5 -0.4454 2.48780   3
   2   0   5 2.12987 2.64600   4
  -2   0  -5 4.23311 2.58890   2
   4   0   5 1.05275 2.88598   2
   4   0   5 -0.2337 2.47375   4
   4   0   5 -0.1143 3.33445   3
   4   0   5 -1.4296 2.54269   4
  -4   0  -5 -0.6622 2.59540   2
  -6   0  -5 0.29953 4.21373   3
  -6   0  -5 -0.6510 3.47608   2
   6   0   5 -0.1465 2.57107   4
   6   0   5 4.53617 5.12287   3
   6   0   5 -3.4488 2.81453   4
   8   0   5 1.97191 4.99269   3
   8   0   5 0.82681 3.12672   4
  -8   0  -5 1.74761 4.47516   2
   8   0   5 -0.8147 2.89830   4
  10   0   5 -0.0326 3.38893   4
  10   0   5 0.88288 3.54296   4
  10   0   5 -2.9934 6.23366   3
 -10   0  -5 -1.8366 4.67820   2
  12   0   5 3.10341 3.97514   4
 -12   0  -5 -5.3264 5.78939   2
  12   0   5 3.24602 8.52110   3
  14   0   5 2.37648 9.70137   3
 -14   0  -5 -10.965 5.71181   2
 -16   0  -5 1.27133 7.48479   2
  16   0   5 11.1448 9.78012   3
  18   0   5 0.21811 11.7034   3
 -18   0  -5 -10.976 8.31311   2
 -20   0  -5 0.31380 9.52390   2
  20   0   5 -6.5874 13.2638   3
  22   0   5 8.26689 15.7980   3
 -22   0  -5 -1.9018 11.3531   2
  27  -1  -5 2.57628 18.2317   3
 -27   1   5 4.57753 11.5688   2
 -25  -1   5 58.5508 10.7704   2
  25  -1  -5 27.9599 15.2099   3
  25   1  -5 52.5982 13.9093   3
 -25   1   5 37.1528 11.2016   2
 -23  -1   5 55.1953 10.5635   2
  23  -1  -5 51.1299 12.9996   3
 -23   1   5 71.7565 11.0112   2
  23   1  -5 48.0991 12.7234   3
  21  -1  -5 24.1517 10.3619   3
 -21  -1   5 29.4378 7.52866   4
 -21  -1   5 37.1228 7.66514   2
 -21   1   5 34.0605 8.04868   2
  21   1  -5 41.6618 11.1587   3
  19  -1  -5 21.9492 10.5106   3
 -19  -1   5 38.7296 7.07162   2
 -19  -1   5 27.6289 7.04329   4
 -19   1   5 44.2124 6.35137   4
 -19   1   5 53.0757 8.02467   2
  17  -1  -5 30.3485 8.35822   3
 -17  -1   5 20.8467 6.40874   4
 -17  -1   5 22.9872 5.48728   2
  17   1  -5 9.41962 7.67442   3
 -17   1   5 35.4026 5.81877   4
 -17   1   5 22.4748 6.01002   2
  15  -1  -5 181.067 14.7590   4
 -15  -1   5 191.169 13.8469   4
  15  -1  -5 216.660 14.8344   3
 -15  -1   5 179.861 12.5366   2
 -15   1   5 198.105 13.9213   4
 -15   1   5 182.328 13.2702   2
  15   1  -5 184.970 14.8231   3
  13  -1  -5 75.7879 8.51399   4
 -13  -1   5 76.5359 6.81092   2
 -13  -1   5 87.1866 6.90076   2
  13  -1  -5 108.999 9.85022   3
 -13  -1   5 90.0562 8.36972   4
  13   1  -5 84.2010 8.80720   3
 -13   1   5 85.7656 7.59687   2
 -13   1   5 111.870 8.24364   4
 -11  -1   5 5.66721 4.39671   4
  11  -1  -5 8.86699 3.31551   2
  11  -1  -5 21.6722 4.82161   3
 -11  -1   5 9.23322 2.94351   2
  11  -1  -5 11.6528 4.58178   4
  11   1  -5 14.8492 2.87052   2
 -11   1   5 11.5771 4.49921   4
  11   1  -5 9.12565 4.16126   3
  -9  -1   5 934.881 51.3899   3
  -9  -1   5 926.584 50.5840   2
  -9  -1   5 937.089 51.5232   4
   9  -1  -5 905.456 51.3732   3
   9  -1  -5 964.603 50.9810   2
   9  -1  -5 884.456 51.3579   4
  -9   1   5 936.300 51.3980   3
   9   1  -5 943.915 51.4985   3
  -9   1   5 975.214 51.5761   4
   9   1  -5 942.554 51.9173   4
   9   1  -5 951.284 50.5965   2
  -9   1   5 900.582 50.9210   2
   7  -1  -5 260.243 15.0625   2
  -7  -1   5 274.255 16.0529   4
   7  -1  -5 263.988 15.7796   4
  -7  -1   5 259.464 14.7278   2
   7  -1  -5 265.893 15.3404   3
  -7  -1   5 252.366 15.2976   3
   7   1  -5 268.436 14.6907   2
  -7   1   5 264.441 16.1306   4
  -7   1   5 228.693 15.0249   2
  -7   1   5 275.562 15.3957   3
   7   1  -5 262.902 15.3460   3
   7   1  -5 268.736 16.5818   4
   5  -1  -5 102.586 7.70623   4
  -5  -1   5 100.090 8.07833   4
  -5  -1   5 94.6829 6.23279   2
   5  -1  -5 99.1015 6.28036   3
  -5  -1   5 88.4251 6.46022   3
   5  -1  -5 102.182 6.56495   2
  -5   1   5 109.392 8.19095   4
  -5   1   5 104.567 6.70536   2
   5   1  -5 96.3703 6.25138   2
  -5   1   5 106.039 6.40573   3
   5   1  -5 97.4487 6.50846   3
   5   1  -5 107.871 8.45065   4
  -3  -1   5 8.63024 4.02684   4
   3  -1  -5 3.43372 2.65065   4
   3  -1  -5 -0.8128 2.00296   2
  -3  -1   5 1.93621 1.90268   2
   3  -1  -5 -0.1775 0.87858   3
   3   1  -5 0.29467 2.00423   3
   3   1  -5 0.71255 1.58326   3
  -3   1   5 1.71698 3.15869   4
  -3   1   5 3.18594 0.74979   3
  -3   1   5 2.50877 2.49133   2
   3   1  -5 2.31130 1.95641   2
   3   1  -5 5.66021 3.94794   4
   1  -1  -5 1736.08 94.6865   4
   1  -1  -5 1807.52 94.3785   2
  -1  -1   5 1755.34 94.2757   3
   1  -1  -5 1761.82 93.7150   3
  -1  -1   5 1701.15 94.7575   4
  -1  -1   5 1745.58 94.2862   2
   1   1  -5 1805.84 94.3312   2
  -1   1   5 1763.12 94.7889   4
   1   1  -5 1745.84 94.7456   4
  -1   1   5 1764.67 93.7490   3
   1   1  -5 1733.95 94.3131   3
  -1   1   5 1703.30 94.3317   2
  -1  -1  -5 58.9536 4.43149   3
   1  -1   5 53.7015 5.36628   4
   1  -1   5 67.0952 5.31214   3
  -1  -1  -5 61.1680 4.87711   2
   1  -1   5 54.1176 4.91650   2
   1   1   5 67.2081 4.87503   3
  -1   1  -5 58.7608 5.14227   4
   1   1   5 57.6346 5.41711   4
  -1   1  -5 79.9659 5.70051   3
   1   1   5 60.9442 5.44491   4
  -1   1  -5 60.5148 5.17869   2
   1   1   5 55.1616 4.88654   2
   3  -1   5 1093.05 58.8262   3
  -3  -1  -5 1085.47 58.5422   4
   3  -1   5 1064.99 58.4726   4
  -3  -1  -5 1067.34 58.4843   2
   3  -1   5 1065.76 58.5818   2
  -3  -1  -5 1080.96 58.4347   3
   3   1   5 1085.14 58.5231   3
  -3   1  -5 1089.31 58.6161   2
  -3   1  -5 1088.33 58.3331   4
   3   1   5 1044.88 58.4807   2
   3   1   5 1060.50 58.8373   4
   5  -1   5 461.261 26.1403   4
  -5  -1  -5 469.931 26.9394   3
  -5  -1  -5 456.244 26.6965   2
   5  -1   5 454.223 27.2726   3
  -5  -1  -5 483.727 26.6120   4
   5  -1   5 479.284 26.3849   4
  -5   1  -5 475.256 26.9112   2
  -5   1  -5 494.242 26.9389   3
   5   1   5 465.680 26.6729   2
   5   1   5 467.935 26.7304   4
   5   1   5 481.874 27.0827   3
   7  -1   5 122.847 8.35861   4
  -7  -1  -5 122.091 8.94242   4
   7  -1   5 120.519 10.1366   3
  -7  -1  -5 123.478 8.99948   2
   7  -1   5 116.993 8.05878   4
   7   1   5 118.462 9.21464   4
   7   1   5 124.972 10.1849   3
  -7   1  -5 134.656 9.38570   2
   9  -1   5 424.601 24.1588   4
   9  -1   5 432.389 26.7858   3
  -9  -1  -5 436.011 24.8244   4
   9  -1   5 432.263 24.3804   4
  -9  -1  -5 429.450 25.4080   2
   9   1   5 412.829 25.1375   4
   9   1   5 444.513 26.2583   3
  -9   1  -5 448.075 25.5134   2
  11  -1   5 221.627 14.6762   4
 -11  -1  -5 277.079 16.6411   2
  11  -1   5 249.044 18.8791   3
 -11  -1  -5 256.612 15.3873   4
  11   1   5 241.816 18.2635   3
 -11   1  -5 225.299 16.2006   2
  13  -1   5 7.49001 4.28417   4
  13  -1   5 19.4125 9.62123   3
 -13  -1  -5 8.90385 6.43794   2
 -13  -1  -5 11.1176 4.97813   4
 -13   1  -5 13.2093 6.75323   2
  15  -1   5 83.2968 13.0421   3
 -15  -1  -5 105.950 10.7561   2
 -15  -1  -5 91.8214 8.66767   4
 -15   1  -5 89.7819 12.2080   2
  15   1   5 61.6080 18.7920   3
  17  -1   5 154.662 16.6579   3
 -17  -1  -5 164.921 14.2278   2
  17   1   5 151.225 17.1353   3
 -17   1  -5 139.225 14.1030   2
 -19  -1  -5 34.0932 9.97940   2
  19  -1   5 18.9663 11.9451   3
  19   1   5 9.90377 11.9333   3
 -19   1  -5 16.6548 9.85836   2
 -21  -1  -5 32.0764 10.5062   2
  21  -1   5 26.1768 13.8337   3
 -21   1  -5 29.4204 10.7109   2
  21   1   5 35.1132 16.2386   3
  26  -2  -5 14.4758 13.7747   3
  26   2  -5 12.3698 15.5589   3
 -26   2   5 29.0351 10.6760   2
  24  -2  -5 -13.794 12.4337   3
 -24   2   5 3.53050 9.34697   2
  24   2  -5 -11.568 11.0410   3
 -22  -2   5 51.5249 9.33121   4
  22  -2  -5 47.3334 13.3662   3
 -22  -2   5 55.6235 8.47842   2
 -22   2   5 53.6965 9.37783   2
  22   2  -5 60.7368 13.0868   3
 -20  -2   5 46.6968 8.56104   4
 -20  -2   5 64.0010 7.91506   2
  20  -2  -5 71.6848 11.9339   3
 -20   2   5 66.7896 9.54948   2
  20   2  -5 59.9380 11.1015   3
  18  -2  -5 10.6749 8.56517   3
 -18  -2   5 4.60286 6.36055   4
 -18  -2   5 5.68206 5.01121   2
 -18   2   5 4.55913 5.62413   2
  18   2  -5 0.66717 7.77337   3
 -18   2   5 -0.5272 4.62735   4
 -16  -2   5 44.6159 7.37432   4
  16  -2  -5 42.6353 9.78604   3
 -16  -2   5 41.4432 5.61155   2
  16   2  -5 48.8683 8.69358   3
 -16   2   5 33.9056 6.27622   2
 -16   2   5 48.0749 6.25105   4
 -14  -2   5 577.135 32.6381   2
 -14  -2   5 610.368 34.2124   4
 -14  -2   5 589.172 32.7451   2
  14  -2  -5 597.438 35.1021   3
  14   2  -5 560.884 34.5889   3
 -14   2   5 584.358 33.5903   2
 -14   2   5 590.353 33.4167   4
 -12  -2   5 91.2047 6.69522   2
  12  -2  -5 108.433 9.53493   3
  12  -2  -5 78.0267 7.53090   4
 -12  -2   5 92.0422 8.73022   4
  12  -2  -5 80.0744 7.12651   2
  12   2  -5 86.2520 8.61778   3
 -12   2   5 95.1772 8.18613   4
 -10  -2   5 660.358 35.3001   2
  10  -2  -5 683.184 36.7877   4
  10  -2  -5 630.678 35.9840   2
 -10  -2   5 659.876 36.6770   4
  10  -2  -5 637.239 37.1719   3
 -10   2   5 673.429 36.5590   4
 -10   2   5 617.275 36.7408   3
  10   2  -5 631.920 35.2498   2
  10   2  -5 634.664 36.7228   3
  -8  -2   5 917.485 51.0341   3
   8  -2  -5 926.789 50.8970   3
   8  -2  -5 912.007 50.8641   4
   8  -2  -5 960.383 50.6439   2
  -8  -2   5 913.167 51.2372   4
  -8  -2   5 936.259 50.0042   2
   8   2  -5 943.918 49.9743   2
  -8   2   5 916.903 51.0808   4
   8   2  -5 906.051 51.4418   4
  -6  -2   5 150.751 11.2197   4
   6  -2  -5 148.563 10.1423   3
  -6  -2   5 167.613 10.3732   3
   6  -2  -5 156.359 10.6515   4
   6  -2  -5 157.376 10.0031   2
  -6  -2   5 167.371 9.42438   2
   6   2  -5 165.183 9.35617   2
  -6   2   5 166.628 10.3362   2
  -6   2   5 167.674 11.0023   4
  -6   2   5 173.190 10.3452   3
   6   2  -5 165.729 11.5110   4
   6   2  -5 181.913 10.4822   3
   4  -2  -5 360.607 20.5149   4
   4  -2  -5 364.154 19.7187   3
  -4  -2   5 365.314 20.7662   4
   4  -2  -5 369.533 20.0935   2
  -4   2   5 362.202 20.1096   2
   4   2  -5 351.555 20.2080   3
   4   2  -5 354.472 21.0122   4
  -4   2   5 324.924 20.3063   4
  -4   2   5 373.540 20.6692   4
   4   2  -5 348.139 20.1708   3
   4   2  -5 349.229 19.6254   2
  -4   2   5 355.228 19.7789   3
  -2  -2   5 1309.41 69.5894   4
  -2  -2   5 1287.26 68.9249   2
   2  -2  -5 1258.39 69.0814   2
  -2  -2   5 1297.25 69.2522   3
   2   2  -5 1277.38 68.9186   2
   2   2  -5 1322.12 69.3387   3
  -2   2   5 1277.91 68.6406   3
  -2   2   5 1293.92 69.6549   4
   2   2  -5 1222.20 69.6028   4
  -2   2   5 1241.36 68.5874   3
  -2   2   5 1277.11 69.9033   4
   0  -2  -5 13.0216 3.25832   4
   0  -2   5 16.2086 3.27721   3
   0  -2   5 13.9563 3.44532   4
   0  -2   5 7.90385 2.61860   2
   0  -2  -5 11.8188 2.57725   2
   0  -2  -5 7.25429 1.59114   3
   0   2   5 7.73795 1.72048   3
   0   2  -5 8.46279 3.65327   4
   0   2   5 9.83212 3.28564   4
   0   2  -5 4.08255 2.91104   3
   0   2  -5 2.50070 2.30153   2
  -2  -2  -5 28.0698 3.58776   2
   2  -2   5 20.9214 3.93564   3
   2  -2   5 28.5769 3.95117   2
   2  -2   5 24.2974 3.70225   4
  -2  -2  -5 27.0974 3.80736   4
  -2  -2  -5 23.2609 2.94823   3
  -2   2  -5 34.4255 3.91242   2
   2   2   5 28.8037 3.52483   2
   2   2   5 16.7714 3.88196   4
  -2   2  -5 34.9864 4.83559   3
   2   2   5 22.3834 3.15780   3
  -2   2  -5 29.4770 3.82024   4
  -4  -2  -5 1354.62 73.7191   2
   4  -2   5 1373.68 73.5108   4
   4  -2   5 1380.39 74.3973   3
   4   2   5 1353.23 73.7628   2
  -4   2  -5 1319.18 73.4102   4
   4   2   5 1347.84 74.1186   4
  -4   2  -5 1385.81 74.0124   2
   4   2   5 1377.79 73.9461   3
  -4   2  -5 1342.70 74.4029   3
  -6  -2  -5 261.922 15.4370   2
  -6  -2  -5 261.882 15.6331   4
   6  -2   5 250.892 14.6231   4
  -6  -2  -5 255.864 15.8818   3
   6  -2   5 253.418 15.0154   4
   6  -2   5 274.789 17.2293   3
  -6   2  -5 251.599 15.8434   2
   6   2   5 256.693 16.3765   3
  -8  -2  -5 -4.5750 3.75599   2
   8  -2   5 1.42779 2.04132   4
  -8  -2  -5 -0.2197 3.86561   4
   8  -2   5 -4.6483 2.73474   4
   8  -2   5 -8.5121 5.71768   3
   8   2   5 1.57814 5.30403   3
  -8   2  -5 2.05081 4.43862   2
  10  -2   5 391.655 26.1321   3
 -10  -2  -5 383.101 24.4539   4
 -10  -2  -5 428.806 24.4153   2
  10  -2   5 442.047 23.4086   4
  10  -2   5 417.387 22.6468   4
 -10   2  -5 406.384 24.8966   2
  10   2   5 397.739 25.7332   3
 -12  -2  -5 18.6663 5.56002   4
  12  -2   5 10.4028 8.04728   3
 -12  -2  -5 11.7072 6.09097   2
  12   2   5 19.8305 8.61689   3
 -12   2  -5 22.2448 6.26535   2
 -14  -2  -5 4.07032 6.40247   2
 -14  -2  -5 7.54921 5.34636   4
  14  -2   5 -0.4924 9.67028   3
  14   2   5 7.33387 8.49802   3
 -16  -2  -5 314.083 20.9362   4
 -16  -2  -5 334.669 21.7803   2
  16  -2   5 319.749 24.4016   3
 -16   2  -5 306.923 21.8342   2
  16   2   5 339.155 25.3301   3
  18  -2   5 92.2177 14.6839   3
 -18  -2  -5 97.5652 11.5096   2
 -18   2  -5 95.7561 12.5989   2
  18   2   5 96.5591 14.4264   3
  20  -2   5 18.9896 13.6327   3
 -20  -2  -5 20.3421 10.1619   2
  20   2   5 11.1134 12.8140   3
 -20   2  -5 14.7117 10.3939   2
 -22  -2  -5 118.905 14.7183   2
  22  -2   5 112.719 19.6839   3
  22   2   5 122.149 20.3368   3
 -22   2  -5 126.296 16.7630   2
  25  -3  -5 59.8971 14.8507   3
 -25   3   5 54.7671 11.2376   2
  25   3  -5 80.9849 16.2714   3
  23  -3  -5 29.6530 12.5001   3
 -23  -3   5 52.0999 10.2309   4
  23   3  -5 13.6269 12.9558   3
 -23   3   5 34.9614 10.6386   2
  21  -3  -5 5.45771 10.9715   3
 -21  -3   5 -5.8878 7.24970   4
  21   3  -5 4.81900 10.9052   3
 -21   3   5 -2.1129 7.14687   2
 -19  -3   5 37.1084 8.16201   4
  19  -3  -5 29.7134 10.4752   3
 -19  -3   5 40.9156 6.26981   2
 -19   3   5 39.7600 8.41916   2
  19   3  -5 31.7485 10.1044   3
 -17  -3   5 191.294 15.2787   4
 -17  -3   5 178.942 12.6908   2
  17  -3  -5 204.981 17.2090   3
 -17   3   5 200.328 15.5240   4
 -17   3   5 191.489 15.0947   2
  17   3  -5 172.852 16.1143   3
 -15  -3   5 2.11547 3.46813   2
  15  -3  -5 -10.933 6.24980   3
 -15  -3   5 1.50441 6.22709   4
  15   3  -5 6.67087 6.91870   3
 -15   3   5 1.35470 5.57475   2
 -15   3   5 12.9772 5.04148   4
 -13  -3   5 151.532 9.55398   2
  13  -3  -5 158.621 10.8975   4
 -13  -3   5 146.189 9.47934   2
 -13  -3   5 155.658 12.1338   4
  13  -3  -5 135.966 12.2708   3
 -13   3   5 150.610 11.9044   4
  13   3  -5 167.326 12.4020   3
 -13   3   5 142.702 11.6123   2
  11  -3  -5 423.926 24.6721   2
  11  -3  -5 424.232 24.4149   4
 -11  -3   5 419.665 23.3627   2
 -11  -3   5 411.647 25.3723   4
 -11  -3   5 427.789 23.4013   2
  11  -3  -5 430.565 25.3826   3
 -11   3   5 433.769 25.1263   4
  11   3  -5 434.135 25.5437   3
  -9  -3   5 29.6961 2.49107   2
   9  -3  -5 31.9197 4.07021   2
  -9  -3   5 29.2152 2.51013   2
  -9  -3   5 26.5277 5.23278   4
  -9   3   5 37.7994 5.16962   4
  -9   3   5 26.6405 4.33826   4
   9   3  -5 26.7332 4.56606   3
  -7  -3   5 263.427 14.5682   2
  -7  -3   5 279.212 16.6466   4
   7  -3  -5 258.244 15.9508   3
   7  -3  -5 262.354 15.6162   2
  -7   3   5 290.617 16.0468   4
   7   3  -5 267.331 14.5098   2
   7   3  -5 250.712 16.0267   3
  -7   3   5 271.831 16.4247   4
  -7   3   5 246.296 16.3372   3
  -5  -3   5 1118.52 59.4521   2
  -5  -3   5 1157.18 60.8501   4
   5  -3  -5 1168.49 60.0988   3
   5  -3  -5 1142.19 60.4897   2
   5   3  -5 1095.28 59.4254   2
  -5   3   5 1066.64 60.3420   4
   5   3  -5 996.694 60.7663   4
   5   3  -5 1093.02 60.4861   3
  -5   3   5 1126.82 60.2234   2
  -5   3   5 1097.64 60.6287   4
  -5   3   5 1096.10 60.1452   3
   3  -3  -5 32.9452 3.13536   3
   3  -3  -5 23.5164 3.28826   2
  -3  -3   5 29.7972 4.57849   4
  -3  -3   5 34.8258 4.28603   3
   3   3  -5 30.2817 4.66162   3
   3   3  -5 25.8284 2.82482   2
  -3   3   5 30.0004 4.18191   4
  -3   3   5 29.6492 3.44003   3
  -3   3   5 32.0496 3.99326   2
  -3   3   5 30.1160 4.56887   4
   3   3  -5 31.2137 3.97721   3
   3   3  -5 22.0751 4.91351   4
  -1  -3   5 39.3709 4.71574   4
   1  -3  -5 38.6509 5.63192   4
  -1  -3   5 47.9980 5.42095   3
  -1  -3   5 51.1192 4.30064   2
   1  -3  -5 43.8567 4.19981   2
   1   3  -5 45.9237 5.64863   4
  -1   3   5 49.0112 4.52396   2
  -1   3   5 55.8219 5.59112   4
  -1   3   5 56.8360 4.05705   3
   1   3  -5 47.0492 4.25004   2
  -1   3   5 52.1408 4.27906   3
   1   3  -5 54.3251 5.93258   3
  -1  -3  -5 1649.06 87.4072   4
   1  -3   5 1577.58 87.9159   3
   1  -3   5 1531.36 86.8831   2
  -1  -3  -5 1604.68 86.7431   3
   1  -3   5 1587.59 86.9971   4
  -1  -3  -5 1629.75 86.8453   2
  -1   3  -5 1586.71 87.5442   3
  -1   3  -5 1599.81 87.2433   4
   1   3   5 1694.21 86.8403   3
  -1   3  -5 1616.29 86.9544   2
   1   3   5 1606.62 86.9149   2
  -3  -3  -5 100.103 7.91224   4
   3  -3   5 91.7030 8.10705   3
   3  -3   5 88.8638 6.82017   4
  -3  -3  -5 88.2342 7.28971   3
  -3  -3  -5 92.9114 6.84417   2
  -3   3  -5 109.530 7.81884   2
   3   3   5 87.5161 7.02914   3
   3   3   5 82.0911 6.86529   2
  -3   3  -5 87.8562 7.25187   4
  -5  -3  -5 59.5238 6.26935   3
  -5  -3  -5 63.6397 6.82371   4
   5  -3   5 55.9329 7.42831   3
  -5  -3  -5 78.2846 6.61088   2
   5  -3   5 62.1992 4.92125   4
  -5   3  -5 58.9005 6.37625   2
  -5   3  -5 61.0453 5.24192   4
   5   3   5 66.2812 6.26425   2
   7  -3   5 434.340 24.4438   4
  -7  -3  -5 449.503 26.1490   4
  -7  -3  -5 448.376 25.6047   2
   7  -3   5 473.520 27.1800   3
   7  -3   5 450.488 24.4331   4
  -7   3  -5 446.674 26.1574   2
   7   3   5 437.569 26.3332   3
  -9  -3  -5 144.565 11.7753   4
   9  -3   5 116.424 12.2955   3
  -9  -3  -5 146.182 10.9516   2
  -9   3  -5 160.415 12.0388   2
   9   3   5 180.747 13.3540   3
  11  -3   5 40.5008 9.16840   3
 -11  -3  -5 44.9799 7.12870   4
 -11  -3  -5 53.4818 6.83573   2
 -11   3  -5 44.2878 7.89117   2
  11   3   5 53.9810 9.42405   3
 -13  -3  -5 0.97225 5.97021   4
  13  -3   5 22.2139 8.67744   3
 -13  -3  -5 -2.2938 5.76990   2
 -13   3  -5 25.1711 11.7684   2
  13   3   5 0.25622 7.83547   3
  15  -3   5 107.394 13.7248   3
 -15  -3  -5 111.946 11.0852   2
 -15  -3  -5 154.070 12.1061   4
 -15   3  -5 107.046 11.5717   2
  15   3   5 96.1133 13.3134   3
  17  -3   5 30.8825 11.8402   3
 -17  -3  -5 39.7746 8.64892   2
 -17  -3  -5 39.0136 8.03510   4
  17   3   5 42.8972 12.7592   3
 -17   3  -5 20.8239 8.47052   2
 -19  -3  -5 69.7532 10.9408   2
  19  -3   5 63.8118 13.2153   3
 -19   3  -5 61.6800 11.9873   2
  19   3   5 58.3517 14.9320   3
  21  -3   5 0.03911 12.3774   3
 -21   3  -5 19.7723 12.1537   2
  21   3   5 56.8273 13.8723   3
 -26   4   5 -5.6595 11.1993   2
  26   4  -5 2.74308 16.6787   3
 -24  -4   5 3.08642 10.1680   4
  24  -4  -5 -1.0293 12.8705   3
  24   4  -5 17.0544 14.6088   3
 -24   4   5 20.4172 11.6568   2
  22  -4  -5 1.54182 10.9213   3
 -22  -4   5 -1.6598 8.72735   4
 -22   4   5 1.37273 8.69858   2
  22   4  -5 -5.1436 10.9673   3
  20  -4  -5 -3.1771 9.99557   3
 -20  -4   5 -1.1731 7.72070   4
 -20   4   5 8.71421 7.62803   2
  20   4  -5 -6.3541 10.1331   3
 -18  -4   5 -6.7488 7.09079   4
  18   4  -5 2.47718 7.75919   3
 -18   4   5 0.04936 6.98749   2
  16  -4  -5 -6.5708 7.07307   3
 -16  -4   5 -6.8754 6.65707   4
 -16   4   5 -2.0568 6.18854   2
  16   4  -5 1.24541 7.02365   3
  14  -4  -5 41.6973 8.03041   3
 -14  -4   5 43.6184 4.04924   2
 -14  -4   5 48.5862 8.55308   4
 -14   4   5 48.4928 7.17374   4
 -14   4   5 47.7296 7.26444   2
  14   4  -5 32.6439 7.29768   3
  12  -4  -5 1.04162 6.21332   3
 -12  -4   5 1.54478 1.62082   2
 -12  -4   5 2.51487 5.81677   4
  12  -4  -5 -3.6609 4.48002   2
 -12   4   5 4.67268 5.15985   4
 -12   4   5 0.63812 4.23309   4
  12   4  -5 4.51626 4.76518   3
  10  -4  -5 8.57480 3.94764   2
  10  -4  -5 17.7268 5.55782   3
 -10  -4   5 13.7034 5.45299   4
 -10   4   5 12.2333 4.52098   4
  10   4  -5 14.9189 5.07718   3
 -10   4   5 18.1042 4.91487   4
   8  -4  -5 0.55085 3.81205   3
   8  -4  -5 0.57633 3.56673   2
  -8  -4   5 -4.9532 4.50662   4
   8   4  -5 3.07858 3.60798   3
  -8   4   5 -2.7747 3.89495   4
  -8   4   5 0.18899 3.78105   4
  -6  -4   5 105.968 9.16890   4
  -6  -4   5 99.9298 5.94804   2
   6  -4  -5 120.732 8.26613   3
   6  -4  -5 107.756 7.94542   2
   6   4  -5 97.8836 5.91685   2
   6   4  -5 114.662 8.44888   3
  -6   4   5 108.257 8.55562   4
  -6   4   5 114.429 8.80878   3
   4  -4  -5 -1.0956 2.75769   3
   4  -4  -5 -0.9923 2.86406   2
   4  -4  -5 3.16990 3.28299   4
  -4  -4   5 0.53402 1.76461   2
  -4  -4   5 -2.6130 3.98791   4
   4   4  -5 2.28636 1.84096   2
   4   4  -5 -0.2823 3.09504   3
  -4   4   5 1.96196 4.09472   3
  -2  -4   5 1.27351 2.32003   2
   2  -4  -5 6.36334 3.55780   4
   2  -4  -5 1.24393 2.42479   2
  -2  -4   5 2.64503 3.83196   4
  -2  -4   5 -0.1968 3.70804   3
  -2   4   5 2.73673 3.33984   3
  -2   4   5 3.36692 3.45972   2
   2   4  -5 2.56074 5.03947   4
  -2   4   5 1.10232 2.29717   3
   2   4  -5 -0.8661 2.34799   2
   0  -4   5 16.0373 4.01567   4
   0  -4  -5 20.4224 4.30231   4
   0  -4  -5 14.4970 3.11287   2
   0  -4   5 17.3556 4.27731   3
   0  -4   5 14.3178 3.47998   2
   0   4   5 16.6410 4.00247   3
   0   4  -5 13.9935 4.86947   4
   0   4  -5 10.5809 3.19959   2
   0   4   5 19.6166 3.17888   3
   0   4   5 9.73026 3.46520   2
   2  -4   5 6.94435 3.26742   4
   2  -4   5 -0.1130 4.35413   3
  -2  -4  -5 0.76972 3.71010   4
  -2  -4  -5 -0.2214 3.21627   3
  -2  -4  -5 -1.2281 2.63828   2
  -2   4  -5 0.51386 3.37483   2
   2   4   5 3.57168 3.49247   2
   2   4   5 -1.0465 2.67951   3
  -2   4  -5 -0.2092 4.42453   4
  -4  -4  -5 1.04426 3.21569   2
  -4  -4  -5 3.19234 4.42578   3
  -4  -4  -5 0.64374 3.98954   4
   4  -4   5 3.15534 2.81797   4
   4  -4   5 4.57079 4.73547   3
  -4   4  -5 4.86970 4.07505   2
   4   4   5 7.65550 4.09206   2
  -4   4  -5 0.43135 4.26011   4
   4   4   5 -0.4209 3.45122   3
   6  -4   5 4.79968 2.56591   4
  -6  -4  -5 11.9577 3.79224   2
  -6  -4  -5 9.28786 5.11946   4
   6  -4   5 0.08389 5.97763   3
   6   4   5 8.57314 4.57086   3
  -6   4  -5 5.17966 3.56354   4
  -6   4  -5 1.61895 4.27071   2
  -8  -4  -5 10.0342 5.70084   4
   8  -4   5 1.10489 6.35455   3
  -8  -4  -5 7.25408 4.24518   2
   8   4   5 1.34502 5.83466   3
  -8   4  -5 16.8453 5.35832   2
  10  -4   5 12.8211 7.79391   3
 -10  -4  -5 25.8513 5.56544   2
 -10  -4  -5 24.5006 6.81666   4
  10   4   5 28.6653 7.50371   3
 -10   4  -5 26.2834 7.44244   2
 -12  -4  -5 25.3611 5.93849   2
 -12  -4  -5 31.1392 7.29754   4
  12  -4   5 33.7466 9.44074   3
  12   4   5 23.7822 9.36956   3
 -14  -4  -5 1.39973 5.92045   2
 -14  -4  -5 1.98159 6.83456   4
  14  -4   5 5.40413 8.45166   3
 -14   4  -5 -1.1593 6.51627   2
 -16  -4  -5 29.6642 7.74319   2
  16  -4   5 5.96878 9.46543   3
 -16   4  -5 10.5568 7.81794   2
  16   4   5 34.7978 11.2382   3
  18  -4   5 2.34107 11.8566   3
 -18  -4  -5 5.48330 8.43131   4
  18   4   5 6.07317 12.8309   3
 -18   4  -5 2.90585 9.77256   2
  20  -4   5 -5.2704 12.8769   3
 -20   4  -5 -9.8993 9.55700   2
  20   4   5 -13.628 12.6019   3
  25  -5  -5 56.6894 16.7797   3
 -25  -5   5 68.8899 14.0832   4
  25   5  -5 35.3189 16.2308   3
  23  -5  -5 16.6043 12.0321   3
 -23  -5   5 14.2230 10.8834   4
 -23   5   5 24.2915 10.7369   2
  23   5  -5 -4.6237 13.3174   3
 -21  -5   5 33.8230 10.4884   4
  21  -5  -5 33.2359 12.7088   3
 -21   5   5 21.5295 10.7441   2
  21   5  -5 34.6305 11.7437   3
  19  -5  -5 20.5091 9.93006   3
 -19  -5   5 31.7431 9.54411   4
  19   5  -5 4.72138 8.94849   3
 -19   5   5 34.6392 8.90601   2
 -17  -5   5 112.309 12.7823   4
  17   5  -5 134.270 14.0506   3
 -17   5   5 99.8866 11.7585   2
 -15  -5   5 15.6143 7.32617   4
  15  -5  -5 14.3872 7.55849   3
  15   5  -5 -1.7302 7.32979   3
 -15   5   5 13.8858 7.43903   2
 -13  -5   5 161.558 14.1907   4
  13  -5  -5 191.945 15.1205   3
  13   5  -5 186.150 14.2832   3
 -13   5   5 163.356 13.3721   2
 -13   5   5 165.961 13.5523   4
 -11  -5   5 172.285 14.1811   4
  11  -5  -5 201.189 14.6764   3
  11  -5  -5 173.890 12.6197   2
  11   5  -5 191.499 14.0729   3
  -9  -5   5 357.978 22.0612   4
   9  -5  -5 336.301 21.5254   3
   9  -5  -5 335.584 20.5896   2
   9   5  -5 354.973 21.6806   3
  -9   5   5 346.440 21.2950   4
   7  -5  -5 150.540 10.5507   2
  -7  -5   5 163.649 12.1591   4
   7  -5  -5 145.951 11.4768   3
  -7   5   5 159.433 11.7256   4
   7   5  -5 153.446 11.5782   3
  -5  -5   5 94.0778 8.78047   4
   5  -5  -5 121.318 8.96093   4
   5  -5  -5 95.8473 7.98440   3
   5  -5  -5 103.497 7.71354   2
   5   5  -5 96.6060 6.10361   2
   5   5  -5 93.7153 5.94165   2
   5   5  -5 76.8291 8.19480   3
   3  -5  -5 315.362 18.7229   4
   3  -5  -5 316.521 17.8143   2
  -3  -5   5 291.736 18.8584   4
   3  -5  -5 296.288 18.3877   3
  -3  -5   5 305.526 17.1130   2
   3   5  -5 306.076 17.1611   2
   3   5  -5 310.354 18.8943   3
  -3   5   5 257.722 18.5501   3
   1  -5  -5 248.422 15.5610   4
  -1  -5   5 258.039 15.6716   4
   1  -5  -5 213.038 14.4821   2
  -1  -5   5 246.402 14.5763   2
  -1  -5   5 256.387 16.2835   3
   1   5  -5 242.681 14.5505   2
  -1   5   5 249.650 15.8736   3
  -1  -5  -5 150.099 10.5007   2
   1  -5   5 163.187 11.1371   4
  -1  -5  -5 157.032 11.6943   4
   1  -5   5 139.811 11.8650   3
  -1   5  -5 167.796 12.7705   4
   1   5   5 171.946 10.9151   3
  -1   5  -5 161.829 10.8110   2
   3  -5   5 469.079 27.9838   4
   3  -5   5 499.282 29.7736   3
  -3  -5  -5 507.406 29.3081   4
  -3  -5  -5 509.214 27.7915   2
   3   5   5 489.576 28.4534   3
  -3   5  -5 510.739 28.4905   2
  -3   5  -5 479.233 28.7777   4
  -5  -5  -5 306.626 20.2149   4
   5  -5   5 312.713 18.2297   4
  -5  -5  -5 320.527 18.4765   2
   5  -5   5 294.445 20.5011   3
   5   5   5 323.378 19.4930   3
  -5   5  -5 303.364 19.8692   4
  -5   5  -5 316.000 19.3008   2
   7  -5   5 160.165 15.1481   3
   7  -5   5 191.572 11.4369   4
  -7  -5  -5 182.330 12.6059   2
  -7  -5  -5 224.231 14.5423   4
   7   5   5 182.943 14.2019   3
  -7   5  -5 189.421 13.7544   2
   9  -5   5 75.9115 11.0294   3
  -9  -5  -5 121.279 11.2506   4
  -9  -5  -5 113.651 8.86134   2
   9   5   5 103.247 11.1867   3
  -9   5  -5 110.605 10.4254   2
 -11  -5  -5 270.810 16.5687   2
  11  -5   5 208.312 19.2680   3
 -11  -5  -5 252.382 18.4508   4
  11   5   5 264.031 19.7647   3
 -13  -5  -5 4.21085 5.70584   2
  13  -5   5 0.99000 9.59124   3
 -13  -5  -5 12.7409 8.65231   4
 -13   5  -5 1.89524 7.07145   2
  15  -5   5 79.2260 13.6492   3
 -15  -5  -5 81.3462 10.9040   4
 -15   5  -5 66.5642 10.5139   2
  15   5   5 72.0429 13.6831   3
  17  -5   5 82.0132 14.9288   3
 -17  -5  -5 71.9045 11.9283   4
  17   5   5 74.5089 14.8239   3
 -17   5  -5 93.2122 12.1036   2
  19  -5   5 46.4479 14.6787   3
 -19  -5  -5 23.3260 10.9369   4
  19   5   5 11.9963 15.0001   3
 -19   5  -5 22.8508 10.4987   2
 -24  -6   5 87.5691 15.2786   4
  24  -6  -5 57.6424 16.6605   3
  24   6  -5 20.1708 17.0822   3
 -24   6   5 51.4254 14.1910   2
 -22  -6   5 44.2249 12.3398   4
  22  -6  -5 51.0112 14.4587   3
  22   6  -5 16.4174 13.5733   3
 -22   6   5 46.5324 12.4748   2
  20  -6  -5 0.49179 10.0955   3
 -20  -6   5 18.1937 10.2592   4
  20   6  -5 14.7331 10.4772   3
 -20   6   5 -1.6724 9.22830   2
  18  -6  -5 39.9180 10.6811   3
 -18  -6   5 57.2441 11.1515   4
  18   6  -5 56.2918 11.3020   3
 -18   6   5 57.6447 9.74064   2
 -16  -6   5 48.7520 10.2075   4
  16  -6  -5 76.7598 11.6153   3
  16   6  -5 70.0977 11.1908   3
 -16   6   5 72.2093 9.43197   2
 -14  -6   5 118.838 12.4960   4
  14  -6  -5 128.996 13.0520   3
  14   6  -5 122.848 12.8646   3
 -14   6   5 109.319 11.3086   2
 -12  -6   5 232.446 18.3254   4
  12  -6  -5 222.206 17.8997   3
 -12   6   5 231.036 16.8425   4
 -12   6   5 239.412 17.4502   2
  12   6  -5 246.063 18.7493   3
 -10  -6   5 364.937 22.5889   4
  10  -6  -5 320.951 20.4788   2
  10  -6  -5 312.104 21.5869   3
  10   6  -5 322.744 21.6056   3
 -10   6   5 332.065 21.0800   4
   8  -6  -5 97.8945 9.90629   3
  -8  -6   5 92.8995 10.1492   4
   8  -6  -5 107.029 9.25681   2
   8   6  -5 110.214 10.4734   3
  -8   6   5 123.011 10.1512   4
   6  -6  -5 787.381 44.6207   4
  -6  -6   5 830.201 45.3632   4
   6  -6  -5 803.500 44.1762   2
   6  -6  -5 806.881 44.6708   3
   6   6  -5 726.692 45.1095   3
   4  -6  -5 339.154 21.2861   4
  -4  -6   5 362.211 21.8479   4
   4  -6  -5 352.328 20.8398   3
   4  -6  -5 353.383 20.2876   2
   4   6  -5 336.652 21.6590   3
   4   6  -5 324.934 19.1644   2
   4   6  -5 339.563 19.2868   2
   2  -6  -5 -3.1742 4.99012   4
  -2  -6   5 -1.8709 4.91532   4
   2  -6  -5 -0.7416 3.45781   2
  -2  -6   5 5.15080 5.02001   3
  -2   6   5 2.86811 4.12598   3
   2   6  -5 2.55051 3.33351   2
   2   6  -5 11.3337 3.56706   2
   0  -6  -5 565.651 33.0257   2
   0  -6   5 584.372 33.9498   4
   0  -6  -5 610.845 34.6246   4
   0  -6   5 619.397 34.7060   3
   0   6   5 620.580 33.8694   3
   0   6  -5 559.601 33.1172   2
   2  -6   5 554.209 31.7291   4
  -2  -6  -5 549.245 31.1376   2
   2  -6   5 559.340 33.0217   3
  -2  -6  -5 555.785 32.8617   4
  -2   6  -5 561.944 31.6509   2
   2   6   5 544.182 31.9573   3
   4  -6   5 81.7412 9.51660   3
   4  -6   5 82.0795 7.32133   4
  -4  -6  -5 85.7107 6.99677   2
  -4  -6  -5 66.6227 8.74027   4
   4   6   5 82.5416 8.21109   3
  -4   6  -5 76.1837 8.17904   2
  -6  -6  -5 288.909 17.9292   2
  -6  -6  -5 300.872 20.0729   4
   6  -6   5 297.826 17.8763   4
   6  -6   5 311.968 20.9651   3
   6   6   5 320.048 19.8721   3
  -6   6  -5 289.800 19.2276   2
   8  -6   5 181.714 16.3398   3
  -8  -6  -5 210.831 16.4666   4
  -8  -6  -5 204.942 13.4714   2
   8   6   5 207.467 16.1570   3
  -8   6  -5 213.190 15.8712   2
 -10  -6  -5 235.417 15.1587   2
  10  -6   5 209.913 18.6350   3
 -10  -6  -5 223.413 17.9240   4
 -10   6  -5 234.611 16.8487   2
  10   6   5 241.968 18.5262   3
  12  -6   5 13.0289 9.24551   3
 -12  -6  -5 5.80679 7.21405   4
  12   6   5 4.88909 9.03717   3
 -12   6  -5 -13.489 7.49360   2
 -14  -6  -5 53.6804 9.65848   4
  14  -6   5 21.7413 10.1848   3
  14   6   5 44.0253 12.3341   3
 -14   6  -5 39.8953 9.38216   2
  16  -6   5 172.938 18.2202   3
 -16  -6  -5 163.037 15.5279   4
  16   6   5 156.374 17.8613   3
 -16   6  -5 143.838 15.2579   2
 -18  -6  -5 90.2467 13.7717   4
  18  -6   5 93.6291 15.5769   3
  18   6   5 83.5792 17.2487   3
 -18   6  -5 65.0431 13.3475   2
 -21  -7   5 4.13861 11.5118   4
  21  -7  -5 2.36779 11.6022   3
 -21   7   5 7.07994 11.5882   2
  21   7  -5 0.20077 11.9230   3
 -19  -7   5 22.9374 10.9685   4
  19  -7  -5 0.80460 10.0348   3
  19   7  -5 -3.9775 10.1969   3
 -19   7   5 32.0366 10.9413   2
  17  -7  -5 8.89876 9.28394   3
 -17  -7   5 3.29807 8.67373   4
 -17   7   5 -2.6984 8.65036   2
  17   7  -5 0.36926 10.3512   3
  15  -7  -5 10.8253 8.97981   3
 -15  -7   5 8.51977 8.20454   4
 -15   7   5 21.2685 7.83447   2
  15   7  -5 21.4050 8.43834   3
 -13  -7   5 20.2874 8.05337   4
  13  -7  -5 29.7835 8.54171   3
  13   7  -5 13.9511 7.64790   3
 -13   7   5 28.3800 8.17743   2
 -11  -7   5 36.1669 8.21953   4
  11  -7  -5 52.3532 8.92183   3
 -11   7   5 59.0821 8.96413   2
  11   7  -5 38.8886 8.31893   3
 -11   7   5 60.2959 8.58539   4
   9  -7  -5 86.4779 10.1608   3
  -9  -7   5 86.2310 10.8254   4
   9  -7  -5 95.8309 8.98523   2
   9   7  -5 112.729 11.5543   3
  -9   7   5 112.614 10.6770   4
   7  -7  -5 42.0536 6.32999   2
   7  -7  -5 32.1943 7.21258   3
   7  -7  -5 53.3223 7.32082   4
  -7  -7   5 35.0516 7.76526   4
   7   7  -5 57.7941 8.41450   3
  -5  -7   5 13.9378 6.34918   4
   5  -7  -5 20.9310 6.26161   4
   5  -7  -5 9.94075 4.61711   2
   5  -7  -5 1.09258 5.34570   3
   5   7  -5 17.1014 6.50803   3
  -3  -7   5 173.745 13.2206   4
   3  -7  -5 166.961 12.3505   4
   3  -7  -5 147.295 10.9054   2
   3   7  -5 117.540 12.5241   3
  -3   7   5 145.834 11.9987   3
   3   7  -5 140.543 10.0779   2
   1  -7  -5 93.4183 9.69150   4
   1  -7  -5 92.2330 7.71176   2
  -1  -7   5 86.5961 9.17219   4
  -1  -7   5 85.1940 9.67011   3
  -1   7   5 90.4823 9.22765   3
   1   7  -5 99.0543 7.88501   2
  -1  -7  -5 18.2156 4.24764   2
   1  -7   5 5.64533 7.06782   3
  -1  -7  -5 15.9390 6.40624   4
   1  -7   5 4.29857 5.51666   4
  -1   7  -5 18.3855 5.46146   2
   1   7   5 14.2565 5.51629   3
  -3  -7  -5 121.819 12.2336   4
   3  -7   5 142.431 11.0794   4
   3  -7   5 127.054 12.7146   3
  -3  -7  -5 140.788 10.2120   2
   3   7   5 147.411 11.9485   3
  -3   7  -5 144.306 11.3630   2
  -5  -7  -5 174.134 12.3723   2
   5  -7   5 178.058 15.5653   3
   5  -7   5 199.643 13.2201   4
  -5  -7  -5 201.142 15.9731   4
  -5   7  -5 193.872 13.9090   2
   5   7   5 174.473 14.3989   3
  -7  -7  -5 16.8950 7.09714   4
   7  -7   5 13.7006 8.18683   3
  -7  -7  -5 22.4033 4.76193   2
  -7   7  -5 3.00520 5.95734   2
   7   7   5 11.0170 6.75231   3
  -9  -7  -5 2.19242 7.22519   4
   9  -7   5 7.42149 8.51058   3
  -9   7  -5 4.73503 6.55902   2
   9   7   5 7.03982 7.80275   3
 -11  -7  -5 29.1164 8.63371   4
  11  -7   5 30.6896 9.70520   3
  11   7   5 18.3505 8.87137   3
 -11   7  -5 18.1892 8.04660   2
  13  -7   5 44.4893 11.0391   3
 -13  -7  -5 36.4055 10.7157   4
  13   7   5 29.5834 11.8371   3
 -13   7  -5 42.2113 10.6030   2
 -15  -7  -5 6.42941 10.3674   4
  15  -7   5 8.31140 11.6857   3
  15   7   5 -3.8518 12.7305   3
 -15   7  -5 6.90159 9.04285   2
  17  -7   5 22.3757 12.3724   3
 -17  -7  -5 21.5165 11.7088   4
 -17   7  -5 12.0115 11.7862   2
  17   7   5 0.07484 14.8307   3
 -20  -8   5 12.8798 11.7175   4
  20  -8  -5 -9.0498 11.7425   3
 -20   8   5 7.15180 10.8580   2
  20   8  -5 2.41668 14.1923   3
  18  -8  -5 22.7819 11.1215   3
 -18  -8   5 2.22385 9.91100   4
 -18   8   5 14.3601 10.8711   2
  18   8  -5 -5.1217 10.4673   3
  16  -8  -5 4.78727 9.90683   3
 -16  -8   5 -0.1489 10.1543   4
  16   8  -5 -0.7021 10.1708   3
 -16   8   5 4.99508 8.59853   2
 -14  -8   5 14.9621 9.68571   4
  14  -8  -5 8.62002 8.67026   3
 -14   8   5 14.7114 9.02000   2
  14   8  -5 8.06957 9.76623   3
  12  -8  -5 128.050 13.6001   3
 -12  -8   5 134.783 13.8061   4
 -12   8   5 144.682 13.5981   2
  12   8  -5 115.104 14.7304   3
 -10  -8   5 13.4239 8.47706   4
  10  -8  -5 14.1050 7.86426   3
 -10   8   5 16.5879 7.71754   4
  10   8  -5 5.85275 7.43646   3
 -10   8   5 13.2100 6.85024   2
  -8  -8   5 27.2089 8.67053   4
   8  -8  -5 19.3768 5.98284   2
   8  -8  -5 17.0312 7.64985   3
  -8   8   5 21.0562 7.34886   4
   8   8  -5 8.52357 7.00141   3
   6  -8  -5 13.6132 5.40365   2
   6  -8  -5 14.4647 6.70337   3
   6  -8  -5 13.8050 6.62138   4
  -6  -8   5 12.1467 7.76672   4
   6   8  -5 11.0152 7.47713   3
   4  -8  -5 54.5885 6.64008   2
  -4  -8   5 51.7628 9.04133   4
   4  -8  -5 50.6313 8.05863   3
   4  -8  -5 50.8474 7.77971   4
   4   8  -5 39.9997 8.64214   3
   2  -8  -5 9.95483 6.61034   4
   2  -8  -5 6.82344 4.65258   2
  -2  -8   5 5.53716 5.99641   4
   2   8  -5 12.9019 7.96530   3
   2   8  -5 9.58381 4.68921   2
  -2   8   5 7.04239 6.28519   3
   0  -8   5 28.2595 7.71248   3
   0  -8  -5 28.8086 5.16938   2
   0  -8  -5 28.9021 7.23651   4
   0  -8   5 18.3137 6.49993   4
   0   8  -5 32.8306 6.12768   2
   0   8   5 20.8085 6.88349   3
   2  -8   5 6.58920 7.79180   3
   2  -8   5 5.96797 6.09190   4
  -2  -8  -5 9.97962 4.30824   2
  -2  -8  -5 7.38710 6.52930   4
   2   8   5 22.6680 6.86030   3
  -2   8  -5 12.7428 6.00458   2
   4  -8   5 4.13540 7.49277   3
   4  -8   5 1.42212 5.38013   4
  -4  -8  -5 2.40575 4.22078   2
  -4  -8  -5 -5.5029 6.55092   4
  -4   8  -5 8.87624 6.35357   2
   4   8   5 1.49308 6.71232   3
  -6  -8  -5 8.54245 8.58079   4
   6  -8   5 34.2825 8.84987   3
  -6   8  -5 2.94249 6.52543   2
   6   8   5 12.8055 7.34666   3
  -8  -8  -5 2.73345 7.71630   4
   8  -8   5 -9.5804 7.76572   3
   8   8   5 -2.6010 8.02388   3
  -8   8  -5 5.49783 7.97214   2
 -10  -8  -5 7.29730 8.65208   4
  10  -8   5 2.40763 8.99942   3
  10   8   5 5.85922 9.78444   3
 -10   8  -5 8.19545 8.39415   2
  12  -8   5 14.2625 9.84714   3
 -12  -8  -5 2.28333 8.75343   4
  12   8   5 -9.5372 10.7412   3
 -12   8  -5 0.24125 8.91445   2
 -14  -8  -5 8.56176 10.7697   4
  14  -8   5 -8.0584 10.2749   3
  14   8   5 5.64405 12.2102   3
 -14   8  -5 -11.451 10.3136   2
 -16  -8  -5 25.6558 11.3528   4
 -16   8  -5 18.5037 11.1015   2
  16   8   5 0.47206 15.1860   3
  17  -9  -5 8.14454 10.8891   3
 -17  -9   5 4.91974 12.2218   4
  17   9  -5 7.36642 12.5917   3
 -17   9   5 3.64691 10.4102   2
  15  -9  -5 90.6960 13.0041   3
 -15  -9   5 95.1783 14.6223   4
 -15   9   5 69.5527 12.6837   2
  15   9  -5 91.5040 14.2451   3
 -13  -9   5 65.6721 11.8357   4
  13  -9  -5 39.3971 10.6775   3
  13   9  -5 32.0553 10.6922   3
 -13   9   5 42.1322 10.8268   2
 -11  -9   5 34.1609 10.7812   4
  11  -9  -5 28.2334 8.62982   3
  11   9  -5 20.2174 10.4995   3
 -11   9   5 16.7016 8.93126   2
  -9  -9   5 206.973 17.4634   4
   9  -9  -5 199.154 16.8176   3
   9   9  -5 192.862 17.7223   3
  -9   9   5 189.844 15.8416   2
  -9   9   5 208.031 16.8669   4
  -7  -9   5 89.1465 11.7739   4
   7  -9  -5 84.2851 10.6060   4
  -7   9   5 89.5115 11.9163   2
   7   9  -5 79.6617 11.5397   3
   5  -9  -5 159.979 14.1056   3
   5  -9  -5 154.426 13.7087   4
  -5  -9   5 180.901 15.5806   4
   5  -9  -5 167.398 12.7196   2
   5   9  -5 157.514 15.6126   3
  -3  -9   5 -11.489 6.28386   4
   3  -9  -5 -0.2807 5.06074   2
   3  -9  -5 4.54435 7.52122   4
  -3   9   5 1.99038 7.48284   3
   3   9  -5 -2.1048 8.30504   3
   1  -9  -5 150.655 11.5241   2
  -1  -9   5 144.785 13.8948   4
   1  -9  -5 155.810 14.2053   4
  -1   9   5 181.440 14.7531   3
   1   9  -5 128.070 14.4777   3
  -1  -9  -5 154.053 12.2385   2
   1  -9   5 161.413 15.6092   3
  -1  -9  -5 135.297 14.4751   4
   1  -9   5 192.613 14.8009   4
  -1   9  -5 166.421 13.1358   2
   1   9   5 203.773 15.5533   3
  -3  -9  -5 111.852 12.8771   4
   3  -9   5 123.471 11.8325   4
   3  -9   5 121.517 13.6804   3
  -3   9  -5 97.3098 11.1475   2
   3   9   5 129.825 14.0728   3
  -5  -9  -5 33.3842 10.0319   4
   5  -9   5 62.4299 10.7964   3
  -5   9  -5 64.0168 9.42410   2
   5   9   5 41.8747 10.0397   3
   7  -9   5 47.8669 10.4746   3
  -7  -9  -5 38.8662 10.1692   4
   7   9   5 49.7265 10.9096   3
  -7   9  -5 38.3145 9.55188   2
  -9  -9  -5 163.715 16.0122   4
   9  -9   5 119.189 15.4727   3
   9   9   5 211.540 17.6920   3
  -9   9  -5 147.196 14.8238   2
 -11  -9  -5 48.5596 12.4592   4
  11  -9   5 54.7973 12.1356   3
 -11   9  -5 72.9378 12.5056   2
  11   9   5 35.1936 12.8583   3
 -13  -9  -5 5.17852 11.7807   4
  13  -9   5 3.59081 11.4887   3
 -13   9  -5 3.62580 11.4553   2
  13   9   5 3.40181 13.2238   3
  16 -10  -5 11.7559 12.5041   3
 -16 -10   5 4.99407 11.7571   4
 -16  10   5 2.38021 11.1582   2
  16  10  -5 20.7691 16.3535   3
  14 -10  -5 19.0664 11.0366   3
 -14 -10   5 34.5106 11.8876   4
  14  10  -5 44.1453 13.2635   3
 -14  10   5 35.7856 12.3160   2
  12 -10  -5 18.9547 10.6653   3
 -12 -10   5 8.94758 11.6089   4
  12  10  -5 17.9846 12.1787   3
 -12  10   5 24.6861 9.64297   2
  10 -10  -5 98.3551 13.3335   3
 -10 -10   5 129.427 15.6170   4
 -10  10   5 98.9679 13.3331   2
  10  10  -5 109.420 15.6490   3
   8 -10  -5 60.2480 11.3243   3
  -8 -10   5 93.4245 13.2803   4
  -8  10   5 93.2430 12.4076   4
   8  10  -5 71.4535 13.3653   3
  -8  10   5 77.7589 11.1932   2
  -6 -10   5 23.2893 10.3801   4
   6 -10  -5 34.7919 9.35227   4
  -6  10   5 12.5414 9.39653   3
   6  10  -5 17.7890 9.91429   3
  -6  10   5 38.9508 9.23659   2
   4 -10  -5 43.9174 9.93340   4
   4 -10  -5 52.0600 7.71880   2
  -4 -10   5 48.4521 10.5736   4
   4  10  -5 41.1243 10.8039   3
  -4  10   5 57.5002 11.3547   3
  -2 -10   5 198.563 17.2950   4
   2 -10  -5 196.109 17.4859   4
   2 -10  -5 219.636 15.1730   2
   2  10  -5 174.960 18.0648   3
  -2  10   5 200.694 17.5072   3
   0 -10   5 2.07679 8.05203   4
   0 -10  -5 -0.6907 8.48400   4
   0  10  -5 6.79453 9.16559   3
   0  10   5 1.32236 8.66673   3
   2 -10   5 35.3825 10.0995   3
   2 -10   5 33.7271 11.0278   4
  -2 -10  -5 55.7352 10.3666   4
   2  10   5 21.2764 9.82133   3
  -4 -10  -5 228.731 19.4629   4
   4 -10   5 234.255 20.0429   3
   4  10   5 221.664 19.0617   3
  -6 -10  -5 66.6193 12.3662   4
   6 -10   5 70.2738 12.5419   3
   6  10   5 75.7404 13.0909   3
  -6  10  -5 78.8640 11.8570   2
   8 -10   5 10.0300 11.6864   3
  -8 -10  -5 9.17995 9.70167   4
  -8  10  -5 8.70231 10.1132   2
   8  10   5 6.76942 10.7127   3
 -10 -10  -5 62.8708 12.9509   4
  10 -10   5 47.5820 14.2273   3
  10  10   5 27.6601 13.6404   3
 -10  10  -5 53.3746 12.5155   2
 -11 -11   5 -6.8400 10.9535   4
  11 -11  -5 -8.5790 11.4077   3
 -11  11   5 -0.3743 10.9650   2
  11  11  -5 0.46277 12.0050   3
  -9 -11   5 36.7590 11.9864   4
   9 -11  -5 10.1425 10.7161   3
  -9  11   5 8.74218 10.4665   2
   9  11  -5 17.7535 12.8022   3
  -7 -11   5 45.0278 12.6376   4
   7 -11  -5 41.3000 10.8860   4
  -7  11   5 35.2760 10.5225   2
  -7  11   5 53.9253 12.2905   3
   7  11  -5 26.5575 12.9662   3
  -5 -11   5 -5.7555 10.0051   4
   5 -11  -5 -4.4592 8.91936   4
   5  11  -5 7.98794 10.9559   3
  -5  11   5 2.56781 11.5512   3
  -3 -11   5 -0.7017 9.78801   4
   3 -11  -5 -9.8946 9.39017   4
   3  11  -5 9.30834 11.0294   3
  -3  11   5 -0.9351 10.5416   3
  -1 -11   5 20.2109 10.4290   4
   1 -11  -5 17.0991 10.1578   4
  -1  11   5 11.5442 11.0350   3
   1  11  -5 18.9293 11.4121   3
  -1 -11  -5 6.02127 10.1524   4
   1 -11   5 34.3035 10.4183   4
   1  11   5 15.6706 11.2851   3
  -1  11  -5 27.7262 12.0356   3
   3 -11   5 -1.9266 9.58883   3
  -3 -11  -5 -13.529 10.1671   4
   3  11   5 4.29486 11.4050   3
  -5 -11  -5 29.9922 12.4243   4
   5 -11   5 18.3419 12.4574   3
   5  11   5 25.8575 12.3111   3
   7  11   5 -0.1098 12.6468   3
   2 -12  -5 -2.4326 11.3559   4
  -2 -12   5 9.04709 11.9228   4
   2  12  -5 0.20900 12.6265   3
  -2  12   5 1.06975 12.7663   3
 -26   0   6 49.4482 11.2962   2
  26   0  -6 88.8720 17.6560   3
  24   0  -6 57.2886 14.3944   3
 -24   0   6 61.8070 10.5238   2
  22   0  -6 158.939 16.6271   3
 -22   0   6 179.750 14.8568   2
 -20   0   6 49.5646 7.42734   2
 -20   0   6 39.8223 7.27433   4
  20   0  -6 31.8387 9.79305   3
 -18   0   6 30.0284 6.55100   4
 -18   0   6 23.7971 6.14183   2
  18   0  -6 20.0475 8.46132   3
  16   0  -6 404.812 26.3836   3
 -16   0   6 396.972 24.4897   4
 -16   0   6 415.363 24.1597   2
  14   0  -6 164.503 13.0766   3
 -14   0   6 162.427 11.5750   2
 -14   0   6 174.610 12.6898   4
 -12   0   6 296.082 19.6177   4
  12   0  -6 335.141 18.6799   2
  12   0  -6 326.948 19.7854   3
 -10   0   6 3413.57 186.904   3
 -10   0   6 3487.43 186.504   2
  10   0  -6 3589.53 186.503   2
  10   0  -6 3358.67 187.336   4
 -10   0   6 3567.37 187.283   4
  10   0  -6 3427.30 187.076   3
  -8   0   6 3991.68 218.322   3
   8   0  -6 3966.76 218.955   4
   8   0  -6 4096.33 218.131   2
   8   0  -6 4073.36 218.453   3
  -8   0   6 4168.04 219.030   4
  -8   0   6 4126.49 218.169   2
  -6   0   6 688.778 37.4513   2
   6   0  -6 668.444 37.4115   3
   6   0  -6 662.091 38.3401   4
  -6   0   6 713.302 38.5167   4
   6   0  -6 706.465 37.4921   2
  -6   0   6 678.055 37.3462   3
  -4   0   6 341.816 19.0989   3
  -4   0   6 369.151 20.7216   4
   4   0  -6 348.181 20.9713   4
   4   0  -6 339.196 19.1234   3
   4   0  -6 358.808 19.6188   2
  -2   0   6 9999.99 536.115   1
   0   0   6 812.372 44.0256   4
   0   0   6 794.819 43.5439   2
   0   0  -6 785.839 43.1934   3
   0   0  -6 832.087 43.5726   2
   0   0  -6 766.052 43.8043   4
   0   0   6 788.224 43.1930   3
   2   0   6 564.657 30.8778   4
  -2   0  -6 543.138 30.6864   4
  -2   0  -6 549.290 30.5439   3
   2   0   6 544.709 30.5778   3
   2   0   6 545.533 30.6267   2
  -2   0  -6 548.196 30.5889   2
  -4   0  -6 1497.20 83.8343   3
   4   0   6 1513.49 83.7427   4
  -4   0  -6 1550.76 83.7687   2
   4   0   6 1571.65 83.5582   4
   4   0   6 1579.88 83.9171   3
   6   0   6 791.053 46.0825   3
   6   0   6 859.205 46.1343   4
   6   0   6 824.525 45.6085   4
  -6   0  -6 827.843 45.8355   2
   8   0   6 136.817 10.6261   4
   8   0   6 148.280 12.6113   3
  -8   0  -6 158.811 11.2534   2
   8   0   6 168.632 10.8204   4
  10   0   6 580.994 32.7346   4
 -10   0  -6 584.672 33.3399   2
  10   0   6 553.117 34.8364   3
 -12   0  -6 27.4899 6.53216   2
  12   0   6 10.8645 8.92485   3
  12   0   6 14.5803 7.99117   4
  14   0   6 40.6020 10.3604   3
  14   0   6 58.4002 7.94912   4
 -14   0  -6 56.6082 8.98453   2
 -16   0  -6 436.893 28.0127   2
  16   0   6 421.842 30.6713   3
  18   0   6 113.622 16.3712   3
 -18   0  -6 99.2605 12.6877   2
 -20   0  -6 20.1899 10.8493   2
  20   0   6 15.9840 14.1315   3
  22   0   6 235.386 24.3541   3
 -22   0  -6 232.678 21.4598   2
  27  -1  -6 18.2107 15.1143   3
  27   1  -6 2.86772 13.8668   3
 -27   1   6 16.6371 11.6343   2
  25  -1  -6 11.3782 13.9877   3
 -25  -1   6 1.92203 8.85386   2
  25   1  -6 -6.4655 11.9274   3
 -25   1   6 -4.6487 9.18914   2
 -23  -1   6 73.3467 9.73250   2
  23  -1  -6 41.4991 13.8637   3
  23   1  -6 51.0757 12.7652   3
 -23   1   6 54.4193 10.2228   2
 -21  -1   6 53.1364 8.74514   4
 -21  -1   6 70.7697 8.83182   2
  21  -1  -6 72.2836 13.0381   3
  21   1  -6 86.9342 13.2698   3
  19  -1  -6 64.4580 11.2801   3
 -19  -1   6 70.9705 7.91376   2
 -19  -1   6 62.0622 8.44098   4
 -19   1   6 51.8302 7.45206   4
 -19   1   6 62.3047 8.53531   2
  19   1  -6 38.2135 10.7662   3
 -17  -1   6 8.94625 6.17237   4
 -17  -1   6 6.85678 4.75072   2
  17   1  -6 -0.0706 7.15805   3
 -17   1   6 9.58170 5.69700   2
 -17   1   6 3.75105 5.25392   4
 -15  -1   6 -4.0603 5.19423   4
  15  -1  -6 -3.9290 6.32220   3
 -15  -1   6 -2.5234 3.59863   2
  15   1  -6 8.51048 6.10473   3
 -15   1   6 -6.7529 4.44603   2
 -15   1   6 0.45548 5.18445   4
 -13  -1   6 773.550 41.5943   2
  13  -1  -6 757.992 41.8126   2
  13  -1  -6 766.820 42.9679   3
 -13  -1   6 747.164 42.5821   4
  13  -1  -6 710.947 42.5595   4
 -13  -1   6 770.339 41.5043   2
  13   1  -6 734.048 42.7711   3
  11  -1  -6 495.654 27.9421   3
  11  -1  -6 474.693 27.0633   2
 -11  -1   6 485.151 26.7296   2
  11  -1  -6 455.094 27.9305   4
 -11  -1   6 487.539 27.8676   4
  11   1  -6 482.175 26.6329   2
  11   1  -6 514.393 28.0486   3
 -11   1   6 464.857 27.9668   4
 -11   1   6 450.874 28.4426   3
  -9  -1   6 4.44385 4.58162   4
   9  -1  -6 10.7742 3.41028   3
  -9  -1   6 4.60543 3.33945   3
  -9  -1   6 1.41311 2.34841   2
   9  -1  -6 1.15853 2.70392   2
   9  -1  -6 5.23982 4.32523   4
  -9   1   6 4.04393 3.43893   3
   9   1  -6 3.66256 5.52750   4
   9   1  -6 1.33240 1.96203   2
   9   1  -6 4.01272 2.75036   3
  -9   1   6 4.53105 4.59717   4
  -9   1   6 1.60266 2.94970   2
   7  -1  -6 515.921 28.6605   4
  -7  -1   6 498.812 28.0552   3
  -7  -1   6 488.928 27.6474   2
   7  -1  -6 494.247 27.9308   3
   7  -1  -6 503.106 27.9537   2
  -7  -1   6 548.114 28.9371   4
  -7   1   6 488.219 28.0421   2
  -7   1   6 508.077 27.8919   3
   7   1  -6 497.972 29.2460   4
   7   1  -6 512.345 27.6377   2
   7   1  -6 479.627 28.0038   3
  -7   1   6 520.177 29.0235   4
  -5  -1   6 2396.63 125.846   4
  -5  -1   6 2366.02 124.997   3
   5  -1  -6 2150.86 124.596   3
   5  -1  -6 2267.68 125.591   4
   5  -1  -6 2365.38 125.094   2
  -5  -1   6 2334.70 124.870   2
  -5   1   6 2328.36 124.634   3
   5   1  -6 2274.95 125.830   4
   5   1  -6 2400.61 124.879   2
  -5   1   6 2320.15 125.076   2
   5   1  -6 2341.45 125.015   3
  -5   1   6 2380.47 125.796   4
   3  -1  -6 20.1177 3.92990   4
   3  -1  -6 12.1180 2.59961   2
  -3  -1   6 17.2544 4.42558   4
  -3  -1   6 12.9491 2.58011   2
   3   1  -6 21.5750 5.01962   4
   3   1  -6 17.3509 2.31516   3
  -3   1   6 24.8219 4.36191   4
   3   1  -6 11.5509 2.61528   3
  -3   1   6 16.8679 3.37788   2
   3   1  -6 18.2363 2.57089   2
   1  -1  -6 5.51566 2.96940   4
  -1  -1   6 10.0491 4.18977   4
   1  -1  -6 5.19725 2.42993   2
  -1  -1   6 8.34955 2.44630   3
   1  -1  -6 9.35008 1.16808   3
  -1  -1   6 2.67003 2.55772   2
   1   1  -6 7.50881 3.32480   4
   1   1  -6 7.75458 2.58030   3
  -1   1   6 7.97210 1.48442   3
  -1   1   6 9.29808 3.23976   4
  -1   1   6 5.38708 2.74891   2
   1   1  -6 10.4859 2.73853   2
   1  -1   6 1084.46 58.6385   2
  -1  -1  -6 1088.80 58.1637   3
   1  -1   6 1092.65 58.6155   3
   1  -1   6 1104.88 58.9156   4
  -1  -1  -6 1110.27 58.6414   2
  -1   1  -6 1072.46 58.6561   3
   1   1   6 1076.99 58.5871   2
   1   1   6 1032.54 58.7350   4
  -1   1  -6 1111.01 58.6235   2
   1   1   6 1044.61 58.9163   4
  -1   1  -6 1044.65 58.6854   4
   1   1   6 1056.13 58.1956   3
   3  -1   6 996.553 53.6564   4
  -3  -1  -6 976.795 53.4694   3
   3  -1   6 972.797 53.8457   3
  -3   1  -6 983.964 53.8379   3
  -3   1  -6 970.759 53.4725   4
  -3   1  -6 1026.21 53.7201   2
   3   1   6 952.126 53.6661   4
   3   1   6 961.069 53.4782   3
   3   1   6 985.319 53.8801   4
   3   1   6 973.278 53.6602   2
   5  -1   6 178.744 11.9532   3
   5  -1   6 170.142 10.5142   4
  -5  -1  -6 140.374 10.9404   3
  -5  -1  -6 138.627 10.3430   2
   5   1   6 150.139 11.1549   3
  -5   1  -6 177.432 10.8618   2
   5   1   6 148.700 10.7073   4
   5   1   6 164.532 11.0080   4
  -5   1  -6 146.816 11.8494   3
   7  -1   6 15.7651 3.76624   4
   7  -1   6 18.0116 3.50083   4
  -7  -1  -6 10.7015 3.83152   4
   7  -1   6 9.67533 5.31804   3
  -7  -1  -6 18.6645 4.76016   2
   7   1   6 13.1355 4.80215   3
   7   1   6 7.65099 4.61369   4
  -7   1  -6 19.1073 5.03607   2
  -9  -1  -6 251.403 18.6446   2
   9  -1   6 322.773 18.2836   4
   9  -1   6 346.368 20.6423   3
   9  -1   6 295.376 17.7774   4
  -9  -1  -6 291.787 18.4687   4
  -9   1  -6 291.097 19.1219   2
   9   1   6 362.947 19.9426   3
 -11  -1  -6 317.563 21.0081   2
  11  -1   6 344.352 20.0705   4
  11  -1   6 345.820 22.9537   3
 -11  -1  -6 350.944 20.6013   4
 -11   1  -6 331.530 21.3877   2
  11   1   6 317.980 23.6296   3
 -13  -1  -6 0.74669 4.80597   4
 -13  -1  -6 3.33495 6.53684   2
  13  -1   6 0.52336 9.44618   3
  13   1   6 3.03465 9.41569   3
 -13   1  -6 -1.1979 6.67965   2
  15  -1   6 22.4116 9.82017   3
 -15  -1  -6 18.3314 7.63394   2
 -15  -1  -6 9.41453 5.76514   4
 -15   1  -6 7.85121 7.16772   2
  15   1   6 24.3149 10.7685   3
  17  -1   6 44.0286 12.9640   3
 -17  -1  -6 31.7886 8.38525   2
 -17   1  -6 50.9091 9.64596   2
  17   1   6 42.5347 12.0796   3
  19  -1   6 127.309 17.8137   3
 -19  -1  -6 118.887 13.8583   2
  19   1   6 106.436 16.3218   3
 -19   1  -6 123.550 14.6451   2
 -21  -1  -6 29.4898 10.4940   2
  21  -1   6 22.5103 15.8041   3
  21   1   6 15.3594 16.2173   3
 -21   1  -6 33.5607 12.4148   2
  26  -2  -6 -0.8076 14.2767   3
  26   2  -6 4.00343 13.5760   3
 -26   2   6 3.06361 10.5209   2
  24  -2  -6 2.13009 11.1725   3
  24   2  -6 -10.887 12.6531   3
 -24   2   6 0.06517 8.92339   2
 -22  -2   6 14.2087 7.86497   4
  22  -2  -6 0.94683 10.0800   3
 -22  -2   6 -1.6152 6.56885   2
  22   2  -6 -2.0490 10.3145   3
 -22   2   6 14.7959 7.58273   2
 -20  -2   6 9.99066 5.88701   2
  20  -2  -6 -12.851 9.61552   3
 -20  -2   6 7.11494 6.80645   4
  20   2  -6 -0.7686 9.84333   3
 -20   2   6 5.99122 6.30238   2
 -18  -2   6 11.6473 6.50225   4
  18  -2  -6 -6.5301 8.84218   3
 -18  -2   6 6.17696 4.73244   2
 -18   2   6 -0.9047 5.42920   2
 -18   2   6 10.7381 5.43133   4
  18   2  -6 -1.8620 7.63444   3
  16  -2  -6 128.558 13.3016   3
 -16  -2   6 129.227 11.9682   4
 -16  -2   6 143.715 10.0444   2
 -16   2   6 141.730 11.0931   2
  16   2  -6 123.637 12.4403   3
 -16   2   6 128.115 11.7588   4
 -14  -2   6 16.6059 3.95584   2
 -14  -2   6 10.1825 5.44691   4
 -14  -2   6 14.3900 3.72851   2
  14  -2  -6 30.0554 6.77063   3
  14  -2  -6 11.6154 5.63772   4
  14  -2  -6 19.8011 4.37548   2
  14   2  -6 19.9342 5.98412   3
 -14   2   6 24.4953 5.81937   4
  12  -2  -6 401.124 25.7309   4
 -12  -2   6 458.479 24.6370   2
  12  -2  -6 447.582 26.3947   3
 -12  -2   6 423.076 26.0405   4
  12  -2  -6 449.889 25.3906   2
  12   2  -6 459.142 26.2168   3
 -12   2   6 435.761 26.1370   4
  10  -2  -6 193.608 13.3774   4
  10  -2  -6 206.144 12.8243   2
  10  -2  -6 205.038 13.4387   3
 -10  -2   6 196.429 14.1053   4
 -10  -2   6 202.945 11.8101   2
 -10   2   6 201.598 13.9893   4
  10   2  -6 223.414 13.5829   3
 -10   2   6 212.878 13.9352   3
  10   2  -6 197.608 11.7730   2
   8  -2  -6 89.4080 7.15137   2
  -8  -2   6 105.515 7.89470   3
  -8  -2   6 103.411 8.79894   4
   8  -2  -6 108.608 8.48312   4
   8  -2  -6 108.954 7.92834   3
  -8  -2   6 102.031 6.50794   2
  -8   2   6 103.044 7.99166   3
  -8   2   6 102.612 8.56733   4
   8   2  -6 105.860 6.45531   2
   6  -2  -6 617.221 32.8491   3
  -6  -2   6 585.344 34.4513   4
  -6  -2   6 629.022 33.3467   3
   6  -2  -6 593.154 33.5588   2
   6  -2  -6 595.821 33.5961   4
  -6   2   6 584.181 32.8691   3
  -6   2   6 589.400 33.1533   2
   6   2  -6 601.707 32.5653   2
   6   2  -6 608.783 33.2637   3
  -6   2   6 572.949 33.8176   4
   6   2  -6 594.532 34.1575   4
   4  -2  -6 175.835 10.3411   2
   4  -2  -6 158.295 11.1969   4
   4  -2  -6 174.136 9.58295   3
  -4  -2   6 167.611 9.98486   2
  -4  -2   6 166.348 11.3231   4
   4   2  -6 141.206 12.1862   4
   4   2  -6 169.852 10.6883   3
  -4   2   6 162.404 10.4243   2
  -4   2   6 162.263 9.70285   3
  -4   2   6 188.491 11.3039   4
   4   2  -6 174.548 10.5002   3
   4   2  -6 164.802 9.94475   2
  -2  -2   6 366.093 20.4222   3
  -2  -2   6 365.946 20.1824   2
  -2  -2   6 362.834 21.0870   4
   2  -2  -6 339.278 20.1966   2
  -2   2   6 357.081 20.8007   4
  -2   2   6 362.474 19.4444   3
   2   2  -6 364.036 21.4158   4
  -2   2   6 342.885 20.2816   2
   2   2  -6 356.566 20.4773   3
  -2   2   6 368.232 20.9831   4
  -2   2   6 348.610 19.4825   3
   2   2  -6 367.502 20.1567   2
   0  -2   6 18.0687 3.65888   3
   0  -2   6 14.7596 3.02177   2
   0  -2  -6 19.4008 3.28099   2
   0  -2   6 11.4747 3.88608   4
   0  -2  -6 19.3646 2.09761   3
   0   2  -6 16.3431 4.34747   4
   0   2   6 20.1421 2.38200   3
   0   2   6 13.4231 4.18385   4
   0   2   6 19.8182 4.13189   4
   0   2  -6 14.0188 3.52660   3
   0   2   6 19.5437 3.65987   2
   0   2  -6 12.0182 3.19798   2
   2  -2   6 104.968 8.24562   2
  -2  -2  -6 118.398 8.15158   2
   2  -2   6 121.660 8.59337   3
  -2  -2  -6 117.630 8.75041   4
   2  -2   6 118.561 8.46181   4
  -2   2  -6 128.906 9.32228   2
  -2   2  -6 102.420 8.22370   4
   2   2   6 107.649 7.84935   3
   2   2   6 122.045 8.24760   2
   2   2   6 102.499 8.70106   4
  -2   2  -6 123.051 9.33206   3
  -4  -2  -6 4.44808 3.70714   4
   4  -2   6 0.34463 4.42437   3
  -4  -2  -6 -3.1737 3.10018   2
   4  -2   6 -2.0514 3.40295   4
  -4  -2  -6 -1.6460 3.05437   3
  -4   2  -6 1.56146 3.29224   2
   4   2   6 -1.2593 3.47498   3
  -4   2  -6 2.97370 2.88487   4
  -6  -2  -6 7.82794 3.60571   2
   6  -2   6 14.6156 3.86336   4
   6  -2   6 9.48538 5.58230   3
   6  -2   6 9.53994 3.01695   4
  -6  -2  -6 17.0199 4.00691   4
   6   2   6 8.66560 4.81852   3
  -6   2  -6 15.2622 4.79635   2
  -8  -2  -6 182.500 11.7623   4
   8  -2   6 158.631 9.87377   4
   8  -2   6 151.065 10.6925   4
   8  -2   6 168.699 13.1297   3
  -8  -2  -6 161.810 11.7158   2
  -8   2  -6 154.128 11.8051   2
   8   2   6 141.567 12.4195   3
  10  -2   6 56.3484 5.81225   4
  10  -2   6 73.3121 9.51560   3
 -10  -2  -6 75.6097 7.58342   4
 -10  -2  -6 80.6456 8.03075   2
  10   2   6 61.8505 8.89413   3
 -10   2  -6 64.9828 8.21861   2
 -12  -2  -6 10.6976 6.24796   2
 -12  -2  -6 13.7041 5.58565   4
  12  -2   6 9.97691 9.04244   3
  12   2   6 35.2509 9.33704   3
 -12   2  -6 -0.8274 6.01671   2
 -14  -2  -6 24.7316 6.52501   4
 -14  -2  -6 23.8294 7.07446   2
  14  -2   6 41.0833 10.9319   3
  14   2   6 22.8519 10.2575   3
 -14   2  -6 19.8900 7.77282   2
 -16  -2  -6 10.3375 7.98067   2
  16  -2   6 -1.7006 10.5073   3
 -16  -2  -6 5.11634 6.18582   4
 -16   2  -6 3.39365 8.27161   2
  18  -2   6 2.85458 10.8653   3
 -18  -2  -6 18.6983 8.50872   2
  18   2   6 38.1258 14.1060   3
 -18   2  -6 20.0861 10.3237   2
 -20  -2  -6 -0.5299 10.1975   2
  20  -2   6 -22.801 12.6221   3
 -20   2  -6 17.4268 11.4785   2
  20   2   6 -26.617 13.8300   3
  25  -3  -6 80.5684 15.6220   3
  25   3  -6 75.7509 17.8677   3
 -25   3   6 123.652 14.6113   2
 -23  -3   6 30.3045 9.46496   4
  23  -3  -6 29.4990 11.6331   3
  23   3  -6 24.8406 12.4566   3
 -23   3   6 48.0659 9.78458   2
  21  -3  -6 8.04332 10.6453   3
 -21  -3   6 8.07086 8.02385   4
  21   3  -6 29.5219 12.1960   3
 -21   3   6 19.4848 8.66732   2
 -19  -3   6 9.07006 7.39798   4
 -19  -3   6 4.90012 4.89158   2
  19   3  -6 1.28649 7.96987   3
 -19   3   6 9.64330 7.03318   2
  17  -3  -6 195.005 17.0637   3
 -17  -3   6 196.993 16.5614   4
 -17  -3   6 241.830 14.0638   2
 -17   3   6 218.188 16.2852   2
  17   3  -6 208.400 17.4376   3
 -17   3   6 216.124 15.1971   4
 -15  -3   6 126.258 11.7245   4
 -15  -3   6 118.681 8.48942   2
  15  -3  -6 102.186 11.6141   3
  15   3  -6 115.159 11.3940   3
 -15   3   6 118.080 10.5066   2
 -15   3   6 109.128 10.0087   4
  13  -3  -6 1.68357 3.72277   2
 -13  -3   6 2.08621 5.31065   4
  13  -3  -6 7.15930 4.85771   4
 -13  -3   6 5.79317 2.66631   2
  13  -3  -6 -0.6956 5.65374   3
 -13  -3   6 0.95910 2.85125   2
  13   3  -6 4.74508 4.99987   3
 -13   3   6 4.48836 5.76033   4
 -11  -3   6 284.618 15.8949   2
 -11  -3   6 267.184 18.5249   4
  11  -3  -6 297.932 17.5610   4
  11  -3  -6 266.902 17.9630   3
 -11  -3   6 291.829 15.9005   2
  11  -3  -6 272.337 16.9998   2
  11   3  -6 264.757 17.7164   3
 -11   3   6 303.249 18.3060   4
   9  -3  -6 1288.59 70.2211   4
  -9  -3   6 1271.30 69.0248   2
  -9  -3   6 1272.68 70.7535   4
   9  -3  -6 1241.99 69.9524   2
   9  -3  -6 1297.75 70.2523   3
  -9   3   6 1333.89 70.5860   4
   9   3  -6 1316.60 70.5903   3
  -9   3   6 1250.27 70.3104   3
   9   3  -6 1289.10 68.9927   2
  -7  -3   6 646.262 35.6106   4
   7  -3  -6 605.773 34.7132   2
  -7  -3   6 628.973 33.9201   2
   7  -3  -6 613.257 34.7367   3
   7   3  -6 626.419 33.8754   2
  -7   3   6 621.585 34.9154   3
   7   3  -6 662.986 35.3500   3
  -7   3   6 641.998 35.4322   4
  -7   3   6 589.910 35.0340   4
   5  -3  -6 67.5323 5.12138   3
   5  -3  -6 77.1741 5.72150   2
  -5  -3   6 65.3928 6.92921   4
  -5  -3   6 61.6535 4.88537   2
  -5   3   6 70.3814 5.55849   3
   5   3  -6 62.3010 5.81476   3
   5   3  -6 58.8807 6.24428   3
  -5   3   6 49.8289 6.17438   4
  -5   3   6 69.3153 7.44468   4
   5   3  -6 68.9095 4.72129   2
  -3  -3   6 195.232 12.6319   3
   3  -3  -6 195.434 12.5534   2
  -3  -3   6 211.770 13.3962   4
   3  -3  -6 210.856 11.7194   3
  -3  -3   6 204.733 11.9852   2
   3   3  -6 190.292 14.0809   4
  -3   3   6 196.445 13.1179   4
  -3   3   6 201.323 12.5275   2
   3   3  -6 207.133 11.9618   2
   3   3  -6 208.261 13.0964   3
  -3   3   6 195.619 13.0581   4
  -3   3   6 210.227 12.0227   3
  -1  -3   6 1267.85 66.8574   4
   1  -3  -6 1230.95 66.9058   4
  -1  -3   6 1217.77 66.3164   2
   1  -3  -6 1224.27 66.9413   2
   1   3  -6 1134.26 66.8582   3
  -1   3   6 1224.71 65.9898   3
  -1   3   6 1216.45 66.4938   2
   1   3  -6 1220.62 67.1294   4
   1   3  -6 1245.85 66.3329   2
  -1   3   6 1241.55 66.0435   3
  -1  -3  -6 53.0209 6.14754   4
   1  -3   6 60.0135 5.58151   4
   1  -3   6 38.9497 5.60345   3
   1  -3   6 52.6416 5.56833   2
   1   3   6 61.8561 5.80017   2
  -1   3  -6 66.5213 6.33130   2
   1   3   6 59.4474 4.83937   3
  -3  -3  -6 429.277 24.4349   2
   3  -3   6 438.249 25.5818   3
  -3  -3  -6 419.938 24.9322   4
   3  -3   6 428.047 24.3286   4
  -3  -3  -6 427.817 24.3608   3
  -3   3  -6 419.045 24.7446   4
   3   3   6 453.417 24.5466   3
  -3   3  -6 417.849 24.6856   2
   5  -3   6 149.385 11.8059   3
  -5  -3  -6 163.379 10.7426   3
  -5  -3  -6 139.012 10.9531   4
  -5  -3  -6 149.391 9.90419   2
   5  -3   6 136.278 9.53252   4
   5   3   6 151.567 10.7535   3
  -5   3  -6 138.572 9.78148   4
  -5   3  -6 146.141 10.5859   2
   7  -3   6 195.774 14.5844   3
  -7  -3  -6 166.064 11.7119   2
   7  -3   6 159.650 10.2814   4
  -7  -3  -6 176.770 12.0672   4
   7  -3   6 160.885 10.3142   4
  -7   3  -6 160.941 12.2474   2
   7   3   6 196.857 13.1463   3
   9  -3   6 185.586 15.6697   3
  -9  -3  -6 173.278 13.1797   2
  -9  -3  -6 184.730 13.7051   4
  -9   3  -6 192.690 14.5513   2
   9   3   6 215.453 15.4242   3
 -11  -3  -6 82.3223 8.79978   4
  11  -3   6 76.2543 11.5211   3
 -11  -3  -6 100.706 9.12214   2
  11   3   6 103.947 10.9490   3
 -11   3  -6 68.1625 9.10386   2
  13  -3   6 -0.8348 8.80458   3
 -13  -3  -6 -4.6971 5.73835   4
 -13  -3  -6 3.34847 5.80048   2
  13   3   6 0.95586 8.12754   3
 -13   3  -6 5.92504 7.07303   2
 -15  -3  -6 85.3967 10.5216   4
  15  -3   6 95.1697 13.3169   3
 -15  -3  -6 113.263 11.0132   2
  15   3   6 94.5611 14.1441   3
 -15   3  -6 115.599 12.2768   2
  17  -3   6 46.7929 13.0805   3
 -17  -3  -6 49.1007 9.12642   4
 -17  -3  -6 45.4182 9.42760   2
 -17   3  -6 53.8419 9.97402   2
  17   3   6 72.9118 14.5682   3
 -19  -3  -6 12.1242 9.67089   2
  19  -3   6 25.0051 12.4244   3
 -19   3  -6 13.6668 10.7368   2
  21  -3   6 21.8257 14.5212   3
  21   3   6 39.5984 16.1900   3
 -21   3  -6 39.8969 12.4202   2
  26  -4  -6 5.89967 15.0641   3
 -26   4   6 -16.692 12.4762   2
  26   4  -6 -10.034 16.0817   3
 -24  -4   6 4.49192 9.68439   4
  24  -4  -6 21.2050 12.0450   3
 -24   4   6 -5.6527 10.5414   2
  24   4  -6 13.5468 12.8094   3
 -22  -4   6 208.239 17.8447   4
  22  -4  -6 212.452 20.0672   3
 -22   4   6 197.474 18.0701   2
  22   4  -6 230.973 21.6918   3
  20  -4  -6 76.5826 12.3627   3
 -20  -4   6 57.6944 10.3754   4
  20   4  -6 68.7875 12.7943   3
 -20   4   6 75.9553 10.4952   2
 -18  -4   6 -0.8345 7.11907   4
  18  -4  -6 0.16320 8.65978   3
 -18   4   6 -1.3764 6.20249   2
  18   4  -6 3.82222 8.86843   3
  16  -4  -6 -4.9678 6.76716   3
 -16  -4   6 -0.7946 6.45065   4
  16   4  -6 2.04359 7.81010   3
 -16   4   6 2.38275 6.09774   2
 -16   4   6 -9.7501 6.21068   4
  14  -4  -6 381.053 25.0292   3
  14  -4  -6 380.525 23.5059   2
 -14  -4   6 391.721 25.0181   4
 -14  -4   6 383.364 21.4059   2
  14   4  -6 383.747 24.6918   3
 -14   4   6 395.150 24.0782   4
  12  -4  -6 382.353 23.9874   3
 -12  -4   6 376.172 24.5100   4
 -12  -4   6 389.940 20.9133   2
  12  -4  -6 389.414 23.0713   2
  12   4  -6 395.235 23.9016   3
 -12   4   6 364.634 22.8744   4
 -10  -4   6 964.823 52.2100   4
  10  -4  -6 948.962 51.6609   3
  10  -4  -6 921.576 51.1223   2
 -10   4   6 830.307 51.3983   4
 -10   4   6 940.989 51.7146   4
  10   4  -6 951.107 51.9781   3
   8  -4  -6 172.058 10.4722   2
  -8  -4   6 150.227 8.56193   2
  -8  -4   6 146.730 11.7984   4
   8   4  -6 142.004 11.2696   3
  -8   4   6 169.993 11.6862   4
  -8   4   6 135.214 11.3682   3
   8   4  -6 157.415 8.51940   2
  -6  -4   6 1200.45 65.6892   4
   6  -4  -6 1203.89 64.8407   2
  -6  -4   6 1200.81 63.8969   2
   6  -4  -6 1253.38 64.8599   3
   6   4  -6 1135.74 65.3858   3
  -6   4   6 1137.50 64.9110   3
   6   4  -6 1166.97 63.8741   2
  -6   4   6 1205.77 65.5527   4
   4  -4  -6 1234.44 67.1251   2
  -4  -4   6 1231.75 66.4945   2
  -4  -4   6 1258.06 67.8817   4
   4  -4  -6 1220.99 66.8512   3
   4   4  -6 1226.39 67.7655   3
  -4   4   6 1195.07 67.7938   4
  -4   4   6 1230.71 67.0875   3
   4   4  -6 1256.96 66.5366   2
  -2  -4   6 289.560 17.4182   2
   2  -4  -6 292.537 17.3848   2
  -2  -4   6 298.130 17.9619   4
  -2  -4   6 284.343 18.2368   3
   2  -4  -6 306.470 18.0669   4
   2   4  -6 303.966 17.0458   2
  -2   4   6 289.586 17.0838   3
  -2   4   6 300.188 17.3754   3
   0  -4  -6 171.767 11.5628   4
   0  -4   6 169.881 11.2428   4
   0  -4   6 147.550 11.5563   3
   0  -4   6 156.347 10.8024   2
   0  -4  -6 180.019 10.7259   2
   0   4  -6 160.398 12.7006   4
   0   4  -6 168.685 10.8219   2
   0   4   6 157.193 10.3805   3
   0   4   6 175.550 11.1536   3
  -2  -4  -6 1040.26 54.4458   2
   2  -4   6 991.554 55.4498   3
  -2  -4  -6 992.381 55.2016   4
   2  -4   6 982.247 54.5105   4
  -2  -4  -6 986.602 54.4986   3
  -2   4  -6 1000.64 54.7128   2
  -2   4  -6 959.151 55.0551   4
   2   4   6 1000.24 54.5525   3
  -4  -4  -6 1162.84 64.7731   2
   4  -4   6 1210.49 64.6028   4
  -4  -4  -6 1182.69 65.5822   4
   4  -4   6 1244.06 66.2419   3
   4   4   6 1154.43 65.1964   3
  -4   4  -6 1261.39 65.3913   2
  -4   4  -6 1110.65 64.9788   4
  -6  -4  -6 8.33253 5.58693   4
   6  -4   6 8.14452 2.99924   4
  -6  -4  -6 3.70564 3.90533   2
   6  -4   6 5.26841 6.47209   3
   6   4   6 13.4890 5.25504   3
  -6   4  -6 12.4334 4.97820   2
  -6   4  -6 0.91667 3.70939   4
   8  -4   6 61.8600 4.87923   4
  -8  -4  -6 80.1924 8.79869   4
   8  -4   6 64.0035 10.1303   3
  -8  -4  -6 62.6227 7.05187   2
   8   4   6 62.9227 8.22541   3
  -8   4  -6 81.7333 8.81679   2
  10  -4   6 784.843 46.6845   3
 -10  -4  -6 803.335 44.5909   2
 -10  -4  -6 812.570 45.6400   4
  10   4   6 777.571 46.2023   3
 -10   4  -6 775.555 45.3573   2
  12  -4   6 3.59442 9.03695   3
 -12  -4  -6 1.75212 6.44601   4
 -12  -4  -6 -0.2064 5.43395   2
 -12   4  -6 -5.4641 6.60296   2
  12   4   6 0.25367 7.75167   3
  14  -4   6 21.9202 10.4370   3
 -14  -4  -6 23.8606 6.74459   2
 -14  -4  -6 11.7897 7.06777   4
  14   4   6 24.8495 9.89429   3
 -14   4  -6 17.2351 8.37967   2
  16  -4   6 144.908 17.3523   3
 -16  -4  -6 168.305 14.6781   4
 -16  -4  -6 171.005 14.1385   2
 -16   4  -6 156.152 15.1162   2
  16   4   6 168.062 18.3906   3
  18  -4   6 95.5874 14.8448   3
 -18  -4  -6 88.6805 11.7469   4
 -18  -4  -6 83.7726 12.3826   2
  18   4   6 44.3455 14.7249   3
 -18   4  -6 75.0067 12.8987   2
  20  -4   6 48.6148 14.4521   3
  20   4   6 31.9925 16.7772   3
 -20   4  -6 59.1808 13.2665   2
 -25  -5   6 40.7817 12.8219   4
  25  -5  -6 48.6230 14.5219   3
 -25   5   6 34.0505 12.6392   2
 -23  -5   6 15.8355 10.6233   4
  23  -5  -6 28.8351 12.1177   3
  23   5  -6 0.32390 12.2868   3
 -23   5   6 18.6594 10.1792   2
  21  -5  -6 15.6005 11.7305   3
 -21  -5   6 -2.9605 8.03533   4
 -21   5   6 -3.4999 9.43699   2
  21   5  -6 8.22859 10.3372   3
 -19  -5   6 12.7012 8.85620   4
  19  -5  -6 11.6478 9.24057   3
  19   5  -6 -6.1000 9.02021   3
 -19   5   6 0.64204 7.28103   2
  17  -5  -6 43.0590 10.3120   3
 -17  -5   6 93.5898 11.3969   4
  17   5  -6 90.7200 11.3015   3
 -17   5   6 61.8129 9.58401   2
  15  -5  -6 38.0953 8.57072   3
 -15  -5   6 45.9497 8.51999   4
  15   5  -6 50.9807 9.49253   3
 -15   5   6 58.9799 11.0541   4
 -15   5   6 61.5104 9.57680   2
 -13  -5   6 -2.3727 6.29035   4
  13  -5  -6 -4.0478 4.42690   2
  13  -5  -6 8.93446 6.82699   3
  13   5  -6 -1.4471 6.13604   3
 -13   5   6 2.62625 6.24625   4
  11  -5  -6 208.545 13.8262   2
 -11  -5   6 190.941 15.4379   4
  11  -5  -6 190.077 14.7905   3
 -11   5   6 189.564 14.6623   4
  11   5  -6 190.429 14.4916   3
   9  -5  -6 561.580 32.1103   2
   9  -5  -6 559.390 32.7744   3
  -9  -5   6 586.698 33.6476   4
   9   5  -6 574.658 33.0852   3
  -9   5   6 540.203 32.7651   4
  -7  -5   6 120.395 10.6453   4
   7  -5  -6 98.8406 8.66654   2
   7  -5  -6 132.948 9.53543   3
   7   5  -6 105.285 9.71121   3
  -7   5   6 103.599 9.85663   4
   5  -5  -6 9.60499 3.69070   2
  -5  -5   6 11.2571 2.47101   2
   5  -5  -6 13.7576 4.23907   3
  -5  -5   6 6.59212 4.88646   4
   5   5  -6 11.5409 2.48203   2
  -5   5   6 6.81796 4.90752   4
  -5   5   6 15.3652 5.51937   3
   5   5  -6 13.6655 4.98924   3
  -3  -5   6 240.769 14.7524   2
  -3  -5   6 254.157 16.3751   3
  -3  -5   6 245.191 16.5751   4
   3  -5  -6 266.959 16.5840   4
   3  -5  -6 256.240 15.4520   2
  -3   5   6 265.677 15.5260   3
  -3   5   6 241.745 16.3294   3
   3   5  -6 253.804 14.8504   2
  -1  -5   6 345.132 21.1790   2
  -1  -5   6 341.531 21.7659   4
   1  -5  -6 364.278 21.2672   2
  -1  -5   6 392.125 22.4466   3
   1  -5  -6 389.019 22.5767   4
  -1   5   6 363.190 21.9240   3
  -1   5   6 368.393 21.3629   3
   1   5  -6 381.437 21.1749   2
   1  -5   6 31.9866 5.19059   4
   1  -5   6 21.0980 5.62612   3
  -1  -5  -6 36.0829 4.56868   2
  -1  -5  -6 25.9248 5.32780   4
   1   5   6 24.7548 5.86919   3
   1   5   6 29.9153 4.51217   3
  -1   5  -6 29.5467 4.91411   2
  -3  -5  -6 193.596 11.8260   2
   3  -5   6 168.796 13.7126   3
   3  -5   6 176.177 12.0019   4
  -3  -5  -6 158.236 13.4728   4
  -3   5  -6 170.355 13.3578   4
  -3   5  -6 189.939 12.3043   2
   3   5   6 184.100 12.3500   3
  -5  -5  -6 30.8775 4.87216   2
   5  -5   6 34.1942 7.72373   3
   5  -5   6 28.5101 4.39387   4
  -5  -5  -6 41.5564 7.54692   4
   5   5   6 23.3768 5.76834   3
  -5   5  -6 37.6368 6.53627   2
  -7  -5  -6 117.324 9.39155   2
  -7  -5  -6 117.444 11.3132   4
   7  -5   6 99.6385 11.8188   3
   7  -5   6 126.177 8.41016   4
  -7   5  -6 129.809 11.2540   2
   7   5   6 137.108 11.6022   3
   9  -5   6 148.134 14.6649   3
  -9  -5  -6 118.191 12.0745   4
  -9  -5  -6 132.825 10.3998   2
   9   5   6 135.917 12.6516   3
  -9   5  -6 128.874 11.6715   2
 -11  -5  -6 -0.1696 7.01592   4
  11  -5   6 -14.892 8.33342   3
 -11  -5  -6 6.58058 5.28485   2
 -11   5  -6 8.57707 6.76657   2
  11   5   6 9.15222 8.92017   3
 -13  -5  -6 27.4949 6.81352   2
  13  -5   6 26.6882 10.0253   3
 -13  -5  -6 32.7880 8.62026   4
  13   5   6 11.4332 9.96058   3
 -13   5  -6 19.6745 7.79628   2
 -15  -5  -6 75.8468 11.6363   4
 -15  -5  -6 97.7154 11.2089   2
  15  -5   6 102.331 15.6538   3
  15   5   6 101.439 15.0013   3
 -15   5  -6 87.4681 12.3348   2
  17  -5   6 8.45585 12.1915   3
 -17  -5  -6 14.0817 9.02099   4
  17   5   6 12.2330 11.9739   3
 -17   5  -6 12.0072 8.94467   2
  19  -5   6 14.2725 14.2034   3
 -19  -5  -6 0.39734 10.2174   4
  19   5   6 -8.2809 14.9881   3
 -19   5  -6 9.70973 11.6552   2
 -24  -6   6 4.34921 12.2780   4
  24  -6  -6 7.44713 14.2132   3
  24   6  -6 -21.318 17.5297   3
 -24   6   6 8.98645 20.1167   2
  22  -6  -6 5.96329 12.7953   3
 -22  -6   6 -7.7735 10.4062   4
 -22   6   6 -10.408 9.36292   2
  22   6  -6 4.57601 13.3095   3
  20  -6  -6 -2.8837 11.1833   3
 -20  -6   6 -5.0568 9.74301   4
 -20   6   6 19.1042 10.1431   2
  20   6  -6 -8.1932 9.63345   3
 -18  -6   6 -8.1934 7.61624   4
  18  -6  -6 2.52992 9.68260   3
  18   6  -6 3.52394 9.83180   3
 -18   6   6 0.43491 8.13906   2
  16  -6  -6 5.27927 9.97402   3
 -16  -6   6 -1.6942 7.37468   4
 -16   6   6 18.5885 7.99679   2
  16   6  -6 -0.9492 8.37518   3
  14  -6  -6 8.25075 7.37740   3
 -14  -6   6 0.68824 6.76251   4
  14   6  -6 -7.0984 6.20681   3
 -14   6   6 -3.2101 6.82622   4
 -14   6   6 -6.1461 6.36540   2
 -12  -6   6 4.86458 6.65748   4
  12  -6  -6 8.25044 4.95042   2
  12  -6  -6 -5.0182 6.64799   3
 -12   6   6 9.10117 6.75878   4
  12   6  -6 -6.7114 5.71923   3
  10  -6  -6 129.611 10.3682   2
 -10  -6   6 119.496 12.0288   4
  10  -6  -6 133.674 11.7416   3
  10   6  -6 118.001 11.5270   3
 -10   6   6 140.094 11.6776   4
   8  -6  -6 0.05234 4.46280   2
   8  -6  -6 13.9334 5.67729   3
  -8  -6   6 0.59323 6.19092   4
   8   6  -6 9.56692 5.32017   3
  -8   6   6 13.8965 6.20682   4
  -6  -6   6 1.32023 6.13237   4
   6  -6  -6 -4.7080 4.72771   3
   6  -6  -6 8.40995 4.53129   2
  -6   6   6 -0.3523 5.32202   4
   6   6  -6 4.91186 4.87730   3
   6   6  -6 2.78913 2.07398   2
   4  -6  -6 -5.2600 4.93069   4
  -4  -6   6 -3.2913 5.04561   4
   4  -6  -6 6.81035 3.93641   2
   4  -6  -6 -1.3816 4.16202   3
   4   6  -6 -5.5451 2.81936   2
   4   6  -6 -0.0868 3.27848   2
   4   6  -6 1.18351 5.27320   3
  -2  -6   6 110.328 9.67428   4
  -2  -6   6 87.0882 9.38163   3
  -2  -6   6 68.3785 7.46615   2
   2  -6  -6 112.838 9.87145   4
   2  -6  -6 103.002 8.08097   2
  -2   6   6 126.840 9.22174   3
   2   6  -6 122.199 8.36614   2
   0  -6  -6 12.5744 4.05824   2
   0  -6  -6 15.4103 6.20552   4
   0  -6   6 18.4071 5.36630   4
   0  -6   6 10.2474 5.79999   3
   0   6   6 17.8818 4.75455   3
   0   6  -6 15.2053 4.49177   2
   2  -6   6 8.32723 4.68040   4
  -2  -6  -6 6.63857 3.95281   2
   2  -6   6 -6.2975 5.48551   3
  -2  -6  -6 0.17855 5.67319   4
  -2   6  -6 1.32451 4.76315   2
   2   6   6 -1.6603 4.25069   3
   4  -6   6 5.12130 4.41796   4
   4  -6   6 -9.7904 6.60693   3
  -4  -6  -6 2.26647 4.21122   2
  -4  -6  -6 9.30776 5.77737   4
   4   6   6 10.9944 5.35185   3
  -4   6  -6 9.05336 5.12129   2
  -6  -6  -6 -1.2835 6.63123   4
  -6  -6  -6 0.84896 4.26521   2
   6  -6   6 1.59834 3.98529   4
   6  -6   6 -11.967 6.50861   3
   6   6   6 4.72463 5.72018   3
  -6   6  -6 1.26324 6.08451   2
  -8  -6  -6 76.0984 11.5792   4
  -8  -6  -6 74.1071 7.64178   2
   8  -6   6 84.8700 11.8550   3
  -8   6  -6 75.2059 9.86282   2
   8   6   6 100.225 10.8636   3
  10  -6   6 15.5044 9.28375   3
 -10  -6  -6 22.1386 5.68641   2
 -10  -6  -6 16.9755 7.23169   4
 -10   6  -6 8.14248 7.57342   2
  10   6   6 11.1979 8.49193   3
  12  -6   6 23.0666 9.67857   3
 -12  -6  -6 29.6088 8.52356   4
  12   6   6 15.2977 10.2616   3
 -12   6  -6 39.4853 9.14441   2
  14  -6   6 22.3030 11.2073   3
 -14  -6  -6 5.74791 8.20282   4
 -14   6  -6 22.9615 10.0023   2
  14   6   6 24.8821 12.0523   3
 -16  -6  -6 -1.9157 9.27584   4
  16  -6   6 4.58644 12.5527   3
  16   6   6 -8.6677 12.8535   3
 -16   6  -6 -11.897 9.63828   2
  18  -6   6 -5.1963 12.7348   3
 -18  -6  -6 -4.1103 10.2553   4
  18   6   6 12.3732 15.7907   3
 -18   6  -6 -0.6376 11.5142   2
  21  -7  -6 37.4008 13.7351   3
 -21  -7   6 45.7433 12.8896   4
 -21   7   6 29.7622 11.1580   2
  21   7  -6 42.3821 13.5475   3
 -19  -7   6 5.49895 9.83689   4
  19  -7  -6 -1.2898 10.1006   3
  19   7  -6 -2.4024 10.1325   3
 -19   7   6 -2.8593 9.59569   2
  17  -7  -6 -3.0598 9.71306   3
 -17  -7   6 6.66361 9.40183   4
 -17   7   6 -5.4663 7.47171   2
  17   7  -6 6.65318 10.5308   3
 -15  -7   6 78.7267 11.7175   4
  15  -7  -6 68.1251 11.0262   3
 -15   7   6 28.3882 9.35131   2
  15   7  -6 66.1135 10.9691   3
  13  -7  -6 39.9883 9.03332   3
 -13  -7   6 33.7898 8.69899   4
 -13   7   6 30.6041 8.30528   4
 -13   7   6 19.8858 7.61847   2
  13   7  -6 34.0704 9.22456   3
  11  -7  -6 52.2595 8.65493   3
  11  -7  -6 54.8640 8.34534   2
 -11  -7   6 45.6502 9.17274   4
 -11   7   6 52.8479 8.68527   4
  11   7  -6 63.5430 9.54698   3
   9  -7  -6 244.122 16.7614   3
   9  -7  -6 250.997 15.9756   2
  -9  -7   6 228.922 17.4333   4
   9   7  -6 203.644 16.9599   3
  -9   7   6 212.087 17.2630   4
   7  -7  -6 26.6386 6.66517   3
   7  -7  -6 16.7465 4.97622   2
  -7  -7   6 25.5507 7.42049   4
  -7   7   6 30.8484 7.30080   4
   7   7  -6 25.0269 7.06564   3
   5  -7  -6 151.859 11.0656   2
  -5  -7   6 149.731 13.1954   4
   5  -7  -6 160.532 12.7069   4
   5  -7  -6 148.763 12.0046   3
   5   7  -6 137.569 13.2840   3
   3  -7  -6 111.601 8.30160   2
   3  -7  -6 89.0546 9.41281   4
  -3  -7   6 61.5309 9.23786   4
  -3   7   6 84.1584 8.67679   3
   3   7  -6 67.0093 10.1103   3
   3   7  -6 84.1750 7.02999   2
  -1  -7   6 11.4649 6.93155   3
  -1  -7   6 12.5293 6.17336   4
   1  -7  -6 10.7539 4.44159   2
   1  -7  -6 9.96068 6.63641   4
   1   7  -6 6.04742 4.56211   2
  -1   7   6 17.9113 5.60602   3
  -1  -7  -6 14.4471 6.42400   4
   1  -7   6 11.3697 6.67516   3
  -1  -7  -6 16.5627 4.67553   2
   1  -7   6 15.3602 5.73725   4
   1   7   6 12.7117 5.62540   3
  -1   7  -6 27.1995 5.73635   2
   3  -7   6 527.316 33.5407   3
  -3  -7  -6 566.156 33.6495   4
   3  -7   6 563.934 32.0986   4
  -3  -7  -6 539.714 31.2971   2
   3   7   6 551.307 32.5644   3
  -3   7  -6 549.913 32.2024   2
   5  -7   6 14.8401 5.20403   4
  -5  -7  -6 24.7306 5.06903   2
   5  -7   6 14.1652 7.80589   3
  -5  -7  -6 12.8491 6.58961   4
  -5   7  -6 26.2996 7.04544   2
   5   7   6 7.84581 6.44969   3
  -7  -7  -6 45.2363 8.80810   4
  -7  -7  -6 69.7200 7.12310   2
   7  -7   6 75.5436 11.5847   3
   7   7   6 76.3459 9.97911   3
  -7   7  -6 82.6969 9.35543   2
  -9  -7  -6 227.883 17.8933   4
   9  -7   6 218.005 18.8990   3
  -9   7  -6 232.582 17.8298   2
   9   7   6 222.922 18.0702   3
 -11  -7  -6 91.5684 11.9960   4
  11  -7   6 45.4545 11.1938   3
 -11   7  -6 70.1820 10.4189   2
  11   7   6 87.2510 12.7836   3
  13  -7   6 24.5032 12.0713   3
 -13  -7  -6 21.7546 9.22431   4
  13   7   6 3.61331 11.3596   3
 -13   7  -6 29.0486 9.40958   2
 -15  -7  -6 28.0078 10.1730   4
  15  -7   6 14.7863 11.4538   3
 -15   7  -6 18.8295 10.9573   2
  15   7   6 27.8225 12.6607   3
 -17  -7  -6 13.6587 10.7614   4
  17   7   6 21.0337 15.8316   3
 -17   7  -6 18.6471 12.5492   2
 -20  -8   6 11.6448 11.4659   4
  20  -8  -6 -2.7107 11.9185   3
  20   8  -6 -3.6314 13.5903   3
 -20   8   6 -0.4098 10.6232   2
 -18  -8   6 7.84347 10.4331   4
  18  -8  -6 17.2965 11.5282   3
 -18   8   6 -4.1185 9.11496   2
  18   8  -6 5.03033 11.9524   3
 -16  -8   6 44.0794 10.7898   4
  16  -8  -6 37.2254 10.2604   3
 -16   8   6 23.0704 9.36721   2
  16   8  -6 32.1405 11.4232   3
 -14  -8   6 1.71873 8.75197   4
  14  -8  -6 7.62851 9.03578   3
 -14   8   6 12.1713 8.03109   2
  14   8  -6 -8.9895 9.10015   3
 -12  -8   6 61.2678 10.8566   4
 -12   8   6 96.9436 17.9313   4
 -12   8   6 78.4923 11.0409   2
  12   8  -6 74.9503 11.6741   3
 -10  -8   6 189.734 17.4668   4
  10  -8  -6 228.538 17.0423   3
  10  -8  -6 225.413 15.2317   2
  10   8  -6 182.459 16.9068   3
 -10   8   6 224.296 17.1572   4
  -8  -8   6 182.247 15.2293   4
   8  -8  -6 173.365 12.5763   2
   8  -8  -6 165.041 13.8272   3
  -8   8   6 164.602 14.2858   4
   8   8  -6 136.696 14.3214   3
   6  -8  -6 96.5773 9.12919   2
  -6  -8   6 101.368 12.7136   4
   6  -8  -6 104.726 10.2532   4
   6  -8  -6 89.6195 10.0235   3
   6   8  -6 103.187 11.5012   3
   4  -8  -6 30.4110 7.55552   4
  -4  -8   6 36.7316 8.27151   4
   4  -8  -6 21.0211 5.58849   2
   4   8  -6 32.0266 8.02009   3
  -4   8   6 32.4507 7.52075   3
   2  -8  -6 273.418 18.9382   4
  -2  -8   6 250.614 17.8530   4
   2  -8  -6 256.628 16.3565   2
   2   8  -6 244.842 18.9388   3
  -2   8   6 264.216 18.1063   3
   2   8  -6 239.676 16.0911   2
   0  -8  -6 94.1440 8.21747   2
   0  -8  -6 80.4364 10.1158   4
   0  -8   6 93.2496 10.0625   4
   0  -8   6 84.3208 10.5499   3
   0   8  -6 100.338 9.00490   2
   0   8   6 105.254 10.3391   3
  -2  -8  -6 84.7955 7.97822   2
  -2  -8  -6 96.7860 11.1160   4
   2  -8   6 72.7785 10.4006   3
   2  -8   6 95.6025 9.84457   4
  -2   8  -6 91.4871 9.27488   2
   2   8   6 108.303 10.4622   3
  -4  -8  -6 96.4495 11.3412   4
   4  -8   6 108.676 9.85615   4
   4  -8   6 83.4714 11.3649   3
  -4  -8  -6 96.5177 8.46369   2
   4   8   6 93.8509 10.8877   3
  -4   8  -6 94.4400 10.2779   2
   6  -8   6 51.6056 9.97124   3
  -6  -8  -6 71.7104 10.3946   4
   6   8   6 48.8818 9.43890   3
  -6   8  -6 39.4788 8.77494   2
  -8  -8  -6 28.2173 9.24780   4
   8  -8   6 29.4206 9.90973   3
  -8   8  -6 28.5549 8.71011   2
   8   8   6 13.6950 8.87236   3
  10  -8   6 105.400 14.0848   3
 -10  -8  -6 86.7012 12.4848   4
  10   8   6 107.937 14.1521   3
 -10   8  -6 92.5223 12.5646   2
  12  -8   6 9.31567 11.1825   3
 -12  -8  -6 6.18413 9.33693   4
 -12   8  -6 10.4639 9.97976   2
  12   8   6 5.50423 11.6096   3
  14  -8   6 7.06039 11.4512   3
 -14  -8  -6 21.2301 11.7633   4
 -14   8  -6 17.5172 11.4817   2
  14   8   6 -1.0014 13.5553   3
 -19  -9   6 7.23539 13.4064   4
  19  -9  -6 10.2828 12.3809   3
  19   9  -6 -10.227 12.8416   3
 -17  -9   6 2.25525 12.0485   4
  17  -9  -6 5.61547 11.1829   3
 -17   9   6 3.90067 11.4555   2
  17   9  -6 -3.5483 10.9674   3
 -15  -9   6 11.8601 11.8185   4
  15  -9  -6 3.76577 9.92596   3
 -15   9   6 9.84896 9.34329   2
  15   9  -6 3.90309 11.4829   3
  13  -9  -6 44.0025 10.5036   3
 -13  -9   6 53.0828 12.0923   4
  13   9  -6 55.9833 12.7159   3
 -13   9   6 60.2887 11.3948   2
  11  -9  -6 37.8328 10.1331   3
 -11  -9   6 46.8502 10.6585   4
 -11   9   6 36.7464 9.63437   2
  11   9  -6 30.2709 10.1862   3
   9  -9  -6 5.16407 7.98243   3
  -9  -9   6 17.1405 8.91903   4
   9  -9  -6 17.1201 6.14115   2
   9   9  -6 14.3686 8.98781   3
  -9   9   6 13.1092 8.87315   4
  -9   9   6 33.5191 8.09875   2
   7  -9  -6 67.0019 8.63538   2
  -7  -9   6 98.7942 12.4482   4
   7  -9  -6 87.7510 10.5643   3
   7   9  -6 79.6971 12.0462   3
  -7   9   6 98.4219 12.1919   4
  -5  -9   6 45.5493 10.0051   4
   5  -9  -6 51.7367 9.23015   4
   5  -9  -6 45.4760 7.20622   2
   5   9  -6 33.2634 9.54115   3
  -5   9   6 38.2954 9.08150   3
   3  -9  -6 32.7934 6.42181   2
   3  -9  -6 55.6328 9.37173   4
  -3  -9   6 51.6317 9.45712   4
   3   9  -6 42.8757 10.7605   3
  -3   9   6 35.7838 9.11681   3
  -1  -9   6 40.9181 8.70237   4
   1  -9  -6 59.8959 7.20522   2
   1  -9  -6 72.8517 10.4568   4
   1   9  -6 49.6842 10.2698   3
  -1   9   6 35.4254 8.93601   3
  -1  -9  -6 28.0702 5.95646   2
  -1  -9  -6 29.4113 8.30362   4
   1  -9   6 38.7060 8.40075   4
   1  -9   6 29.2711 8.47145   3
   1   9   6 33.1668 8.50977   3
  -1   9  -6 27.8587 7.36552   2
  -3  -9  -6 30.6886 8.97523   4
   3  -9   6 31.3509 10.0007   3
   3  -9   6 24.9676 8.01966   4
   3   9   6 23.2190 8.75453   3
  -3   9  -6 43.3302 8.06532   2
  -5  -9  -6 78.9392 11.1976   4
   5  -9   6 52.7493 11.5552   3
   5   9   6 71.6298 11.2487   3
   7  -9   6 9.12609 9.87761   3
  -7  -9  -6 -1.9144 8.30924   4
   7   9   6 2.09366 9.30626   3
  -7   9  -6 -1.2592 8.78397   2
  -9  -9  -6 -2.1010 9.66454   4
   9  -9   6 -5.3998 9.27773   3
   9   9   6 1.37437 10.9553   3
  -9   9  -6 6.00601 9.60759   2
  11  -9   6 18.3164 10.8180   3
 -11  -9  -6 32.6204 10.7598   4
 -11   9  -6 18.8623 10.8741   2
  11   9   6 35.2690 13.1882   3
 -13  -9  -6 -22.871 10.9976   4
 -13   9  -6 -3.8769 11.4523   2
  13   9   6 1.14581 13.5141   3
  16 -10  -6 -6.9288 11.1453   3
 -16 -10   6 9.99039 13.3033   4
 -16  10   6 -4.6303 11.9357   2
  16  10  -6 2.42345 15.3112   3
 -14 -10   6 12.3167 12.4791   4
  14 -10  -6 13.5198 11.0876   3
  14  10  -6 10.0412 13.1843   3
 -14  10   6 -2.4559 9.47174   2
  12 -10  -6 -2.5071 9.61581   3
 -12 -10   6 -3.2212 9.87282   4
  12  10  -6 -2.4021 11.1716   3
 -12  10   6 7.60211 9.27483   2
  10 -10  -6 6.18917 9.30710   3
 -10 -10   6 -0.5080 9.56115   4
  10  10  -6 16.1248 10.2207   3
 -10  10   6 9.93300 9.34111   2
   8 -10  -6 11.0053 9.22563   3
  -8 -10   6 16.2362 9.54597   4
  -8  10   6 20.0884 9.28053   2
   8  10  -6 18.7524 10.3485   3
  -8  10   6 31.6485 10.7103   4
  -6 -10   6 9.99845 9.45852   4
   6 -10  -6 -4.6907 8.43776   4
   6 -10  -6 -2.1245 6.52285   2
  -6  10   6 -4.6494 9.31228   3
   6  10  -6 1.56421 9.63558   3
   4 -10  -6 1.61524 7.57356   4
  -4 -10   6 -3.2263 8.93478   4
   4 -10  -6 8.70765 6.93250   2
   4  10  -6 -0.6098 9.28493   3
  -4  10   6 2.89763 9.42135   3
  -2 -10   6 29.6099 9.68561   4
   2 -10  -6 35.7128 7.37350   2
   2 -10  -6 34.7776 9.23472   4
   2  10  -6 37.9701 11.9121   3
  -2  10   6 18.2317 9.57901   3
   0 -10  -6 13.8992 9.33476   4
   0 -10   6 -1.6972 8.49030   4
   0  10   6 13.7805 9.04412   3
   0  10  -6 8.13759 10.5222   3
   2 -10   6 9.72480 8.94071   3
  -2 -10  -6 24.2909 9.72534   4
   2 -10   6 11.1379 10.6966   4
   2  10   6 10.7334 9.13687   3
   4 -10   6 -11.811 8.87221   3
  -4 -10  -6 8.78745 8.88466   4
   4  10   6 5.04421 9.30498   3
  -6 -10  -6 -9.9201 9.79372   4
   6 -10   6 8.29517 11.0193   3
   6  10   6 -4.3874 10.4042   3
  -6  10  -6 21.5898 9.68832   2
  -8 -10  -6 -3.3346 9.85253   4
   8 -10   6 -2.1830 11.6682   3
  -8  10  -6 -7.8558 9.31438   2
   8  10   6 -9.3877 10.7642   3
  10  10   6 20.2450 13.4210   3
 -10  10  -6 38.3600 12.2481   2
 -11 -11   6 35.0804 12.5442   4
  11 -11  -6 43.7989 12.3623   3
  11  11  -6 19.6221 15.6616   3
 -11  11   6 34.3413 12.1766   2
   9 -11  -6 31.4580 11.9213   3
  -9 -11   6 19.7151 12.1667   4
  -9  11   6 16.5796 10.8901   2
   9  11  -6 22.4293 13.1700   3
  -7 -11   6 58.2785 13.3479   4
   7  11  -6 33.2678 12.4120   3
  -7  11   6 61.3178 13.3335   4
  -7  11   6 56.8560 13.0676   3
  -7  11   6 59.3529 11.6632   2
  -5 -11   6 2.79276 9.60257   4
   5 -11  -6 2.27456 9.76936   4
  -5  11   6 3.21380 11.6095   3
   5  11  -6 16.5643 11.5884   3
  -3 -11   6 10.7663 10.4098   4
   3 -11  -6 14.5038 10.1764   4
   3  11  -6 4.93743 10.9581   3
  -3  11   6 13.9625 11.4068   3
   1 -11  -6 44.2512 10.8802   4
  -1 -11   6 50.7892 11.7870   4
   1  11  -6 42.3457 13.7664   3
  -1  11   6 41.1579 12.3660   3
  -1 -11  -6 19.3519 9.91988   4
  -1  11  -6 24.4888 13.2193   3
   1  11   6 5.01539 10.9515   3
   3 -11   6 15.1787 10.6727   3
  -3 -11  -6 14.2595 10.0343   4
   3  11   6 14.3591 11.7777   3
  -5 -11  -6 15.8315 10.3755   4
   5 -11   6 31.4029 12.8587   3
   5  11   6 21.7728 13.0746   3
 -26   0   7 -7.3578 9.35616   2
  26   0  -7 -2.6956 13.0698   3
  24   0  -7 42.6519 11.1602   3
 -24   0   7 -9.3041 8.23242   2
 -22   0   7 -7.8067 6.88416   4
  22   0  -7 -1.1899 10.4022   3
 -22   0   7 -2.4517 6.39651   2
 -20   0   7 -5.5257 5.91480   4
 -20   0   7 -2.2184 5.90228   2
  18   0  -7 -2.4799 7.33400   3
 -18   0   7 -2.3701 5.94058   4
 -18   0   7 -3.4632 5.06569   2
 -16   0   7 -0.0071 5.92204   4
 -16   0   7 -2.8823 4.46692   2
  16   0  -7 -1.8764 6.32938   3
  14   0  -7 3.04658 3.57748   2
  14   0  -7 13.5307 6.01995   3
 -14   0   7 6.36447 5.55514   4
 -12   0   7 -6.1761 5.03650   4
  12   0  -7 6.10561 2.85244   2
  12   0  -7 4.12990 4.41194   3
 -10   0   7 0.14302 3.16908   2
 -10   0   7 0.60615 5.06679   4
 -10   0   7 2.90024 3.63293   3
  10   0  -7 5.26695 3.60476   3
  10   0  -7 0.36455 2.79923   2
   8   0  -7 4.04020 2.31864   2
  -8   0   7 -1.2216 2.39868   3
   8   0  -7 -4.2799 4.74510   4
  -8   0   7 3.70617 4.50484   4
  -8   0   7 -1.4982 2.66884   2
   8   0  -7 1.32999 2.54103   3
   6   0  -7 0.91664 4.05124   4
  -6   0   7 7.36098 4.62947   4
  -6   0   7 4.90742 2.55620   2
   6   0  -7 4.18437 2.11712   2
   6   0  -7 3.27186 1.86099   3
  -6   0   7 -0.2326 1.61428   3
   4   0  -7 0.59246 1.45278   3
   4   0  -7 1.61399 3.53862   4
  -4   0   7 5.24442 4.41572   4
   4   0  -7 -2.5876 2.21177   2
   4   0  -7 -0.1171 1.14847   3
  -4   0   7 -0.0636 2.67999   2
   2   0  -7 -1.8192 2.40875   2
  -2   0   7 5.58441 2.74492   2
  -2   0   7 -0.0155 3.62314   4
   2   0  -7 4.26213 3.43898   4
  -2   0   7 4.01976 1.57035   3
   2   0  -7 3.29373 1.72881   3
   0   0  -7 0.71476 2.13640   3
   0   0   7 -1.1947 3.12534   2
   0   0   7 -0.9882 2.10528   3
   0   0  -7 0.19568 2.99920   4
   0   0   7 3.54080 3.36619   4
   0   0  -7 -1.6126 2.52101   2
  -2   0  -7 -5.2422 2.72549   2
   2   0   7 1.05014 3.34246   4
   2   0   7 2.74354 3.01634   3
  -2   0  -7 -0.3025 2.90097   4
  -2   0  -7 3.40813 3.15578   3
   4   0   7 5.52707 3.88649   4
  -4   0  -7 1.83099 3.56782   2
   4   0   7 3.26907 4.10342   3
  -4   0  -7 0.59041 4.16611   3
   4   0   7 -1.6175 3.55788   4
   6   0   7 4.11973 5.16506   3
  -6   0  -7 0.88006 3.86756   2
   6   0   7 3.06391 4.10624   4
   6   0   7 -2.3258 3.53948   4
   8   0   7 -1.4126 6.37525   3
   8   0   7 0.00212 4.14123   4
  -8   0  -7 4.28450 4.78971   2
   8   0   7 -0.3030 4.74088   4
 -10   0  -7 -1.6357 5.42190   2
  10   0   7 -1.0784 4.65411   4
  10   0   7 1.37236 7.63370   3
 -12   0  -7 3.23467 6.93702   2
  12   0   7 4.57742 8.07331   3
  12   0   7 -1.8292 5.26347   4
 -14   0  -7 4.45323 7.39219   2
 -16   0  -7 -2.6402 7.35116   2
  16   0   7 -0.0961 11.0810   3
  18   0   7 6.72864 12.7200   3
 -18   0  -7 1.41249 9.13444   2
  20   0   7 -23.302 13.8658   3
 -20   0  -7 0.37769 9.68760   2
  27  -1  -7 8.74421 15.9946   3
 -27   1   7 37.1091 12.0776   2
 -25  -1   7 21.5106 9.63007   2
  25  -1  -7 8.70635 12.5865   3
  25   1  -7 25.6689 12.9008   3
 -25   1   7 25.0132 9.82950   2
  23  -1  -7 67.8874 13.4842   3
 -23  -1   7 76.7391 10.2549   2
 -23  -1   7 91.7616 10.9102   4
  23   1  -7 109.487 14.5306   3
 -23   1   7 83.2163 11.2292   2
  21  -1  -7 3.39405 9.28976   3
 -21  -1   7 15.2594 7.06522   4
 -21  -1   7 6.90908 6.48354   2
  21   1  -7 15.9214 9.64520   3
 -21   1   7 13.0489 7.74267   2
  19  -1  -7 88.9550 11.7387   3
 -19  -1   7 83.8019 10.1388   4
 -19  -1   7 103.382 9.25178   2
 -19   1   7 93.2069 9.61809   4
  19   1  -7 115.239 12.6564   3
 -19   1   7 104.100 9.96940   2
  17  -1  -7 137.524 12.9799   3
 -17  -1   7 137.064 12.4229   4
 -17  -1   7 138.804 10.9036   2
 -17   1   7 125.453 11.9163   4
 -17   1   7 187.790 12.4769   2
  17   1  -7 161.515 14.5482   3
  15  -1  -7 13.1989 6.96831   3
  15  -1  -7 10.8653 4.40547   2
 -15  -1   7 9.38361 4.16756   2
 -15  -1   7 9.31976 6.02420   4
  15   1  -7 5.66001 5.98905   3
 -15   1   7 10.8366 6.02046   4
  13  -1  -7 272.407 17.1232   2
 -13  -1   7 272.484 17.1733   2
 -13  -1   7 303.596 18.9242   4
  13  -1  -7 284.211 18.6953   3
 -13   1   7 326.769 18.8489   4
  13   1  -7 311.003 18.8437   3
  13   1  -7 269.758 16.7996   2
  11  -1  -7 553.167 30.5219   2
 -11  -1   7 529.502 30.1937   2
 -11  -1   7 565.702 31.7628   4
  11  -1  -7 530.930 31.6641   4
 -11   1   7 560.460 31.5399   4
  11   1  -7 544.941 31.0440   3
 -11   1   7 536.826 31.1023   3
  11   1  -7 532.379 30.0651   2
   9  -1  -7 238.396 15.2571   3
  -9  -1   7 250.907 16.2778   4
   9  -1  -7 225.731 16.3087   4
   9  -1  -7 256.036 14.8883   2
  -9  -1   7 252.011 15.3082   3
  -9  -1   7 242.249 14.9875   2
   9   1  -7 262.278 14.5661   2
  -9   1   7 248.514 15.1339   3
   9   1  -7 273.045 15.4436   3
  -9   1   7 265.134 16.7644   4
  -7  -1   7 409.268 23.0072   2
   7  -1  -7 385.942 24.2545   4
  -7  -1   7 421.693 23.2290   3
   7  -1  -7 433.991 23.3078   2
   7  -1  -7 416.054 23.0370   3
   7   1  -7 405.305 24.6982   4
  -7   1   7 406.091 22.9385   3
  -7   1   7 417.986 24.3616   4
   7   1  -7 411.375 22.9693   2
  -7   1   7 397.518 23.3928   2
   7   1  -7 425.223 23.2849   3
   5  -1  -7 1178.27 65.9572   2
  -5  -1   7 1240.57 65.8532   2
   5  -1  -7 1179.27 66.6325   4
  -5  -1   7 1261.66 66.9902   4
   5   1  -7 1200.50 66.8985   4
  -5   1   7 1227.31 65.2895   3
   5   1  -7 1223.99 65.7873   3
   5   1  -7 1255.48 65.8396   3
  -5   1   7 1218.36 66.9050   4
   5   1  -7 1193.80 65.7926   2
  -5   1   7 1200.74 66.0303   2
   3  -1  -7 41.7433 4.51989   2
  -3  -1   7 59.9856 4.45174   3
   3  -1  -7 50.3309 5.73100   4
  -3  -1   7 65.4056 6.73967   4
   3   1  -7 43.7232 5.96120   4
   3   1  -7 60.9841 4.63979   3
  -3   1   7 60.7165 5.09838   2
  -3   1   7 58.2536 6.11687   4
   3   1  -7 58.6829 4.73529   2
  -1  -1   7 0.67278 2.38168   3
   1  -1  -7 0.82721 1.20778   3
  -1  -1   7 0.54927 3.01030   2
   1  -1  -7 4.80419 2.44664   2
  -1  -1   7 9.12473 4.30454   4
   1  -1  -7 1.36267 3.05916   4
   1   1  -7 1.68175 2.45424   2
  -1   1   7 -0.2698 3.72968   4
  -1   1   7 1.57796 2.84675   2
   1   1  -7 3.11626 2.73775   3
  -1   1   7 1.86038 1.45080   3
   1   1  -7 -2.3179 3.30758   4
  -1  -1  -7 602.584 33.4116   2
   1  -1   7 610.385 33.4789   2
   1  -1   7 600.761 33.8949   4
  -1  -1  -7 601.468 32.8952   3
   1  -1   7 596.709 33.3695   3
  -1   1  -7 607.314 33.4902   3
  -1   1  -7 613.219 33.5296   2
   1   1   7 600.350 32.9625   3
   1   1   7 577.261 33.7601   4
   1   1   7 624.712 34.0443   4
  -1   1  -7 570.828 34.0366   4
   1   1   7 593.164 33.5561   2
   3  -1   7 581.480 32.6147   4
   3  -1   7 610.142 32.7671   3
  -3  -1  -7 593.145 32.2342   3
  -3  -1  -7 587.813 32.4312   2
  -3   1  -7 549.117 32.7562   3
   3   1   7 585.435 32.3444   3
   3   1   7 558.084 32.6939   4
  -3   1  -7 549.804 32.4323   2
   5  -1   7 3.70651 3.78596   4
  -5  -1  -7 -3.8254 4.17798   3
   5  -1   7 -4.6881 4.58287   3
   5  -1   7 1.46973 3.59206   4
  -5  -1  -7 -2.4110 3.49774   2
  -5   1  -7 -3.1995 3.82370   2
   5   1   7 1.09689 4.69230   4
   5   1   7 3.61626 3.85369   4
   5   1   7 6.69764 4.45377   3
   7  -1   7 135.372 10.2784   4
   7  -1   7 164.936 12.6768   3
  -7  -1  -7 137.089 10.9558   2
   7  -1   7 154.781 10.7713   4
   7   1   7 150.466 11.2547   4
  -7   1  -7 164.626 11.3978   2
   7   1   7 155.027 12.2466   3
   9  -1   7 367.857 20.7383   4
  -9  -1  -7 301.622 20.9700   2
   9  -1   7 372.069 23.3909   3
  -9   1  -7 311.636 21.3060   2
   9   1   7 365.065 21.1966   4
   9   1   7 337.325 22.4363   3
  11  -1   7 -4.1277 8.54056   3
 -11  -1  -7 -7.4657 5.93576   2
  11  -1   7 -0.4598 4.72600   4
  11   1   7 -8.7267 7.88595   3
 -11   1  -7 9.05639 6.40783   2
  11   1   7 5.76931 5.27079   4
 -13  -1  -7 123.278 12.2734   2
  13  -1   7 163.713 15.7068   3
  13   1   7 162.057 12.4396   4
  13   1   7 146.701 14.6149   3
  15  -1   7 74.3164 12.8150   3
 -15  -1  -7 101.382 11.2604   2
  15   1   7 108.742 14.0554   3
 -15   1  -7 87.9286 11.0063   2
 -17  -1  -7 0.49106 8.82455   2
  17  -1   7 12.8344 12.5803   3
 -17   1  -7 10.9177 9.26398   2
  17   1   7 13.7375 12.7897   3
  19  -1   7 63.7079 15.7235   3
 -19  -1  -7 59.8941 11.4143   2
 -19   1  -7 57.3191 11.4150   2
  19   1   7 35.7981 15.0875   3
  21  -1   7 51.4555 15.7534   3
 -21  -1  -7 61.2979 12.2176   2
 -21   1  -7 66.7113 12.8994   2
  21   1   7 50.0525 17.9755   3
  26  -2  -7 24.5240 14.8218   3
  26   2  -7 10.3286 13.2209   3
 -26   2   7 4.00625 10.9677   2
  24  -2  -7 8.78873 11.6023   3
 -24  -2   7 9.34909 8.81770   4
 -24   2   7 20.2728 9.79356   2
  24   2  -7 25.4569 12.2555   3
 -22  -2   7 182.049 14.1894   2
 -22  -2   7 193.412 15.8734   4
  22  -2  -7 197.708 18.3631   3
  22   2  -7 178.163 18.3409   3
 -22   2   7 185.574 15.8124   2
  20  -2  -7 19.7309 11.2734   3
 -20  -2   7 24.4981 7.81330   4
 -20  -2   7 27.3396 6.51900   2
  20   2  -7 35.1997 9.94957   3
 -20   2   7 28.9893 7.75114   2
 -18  -2   7 26.7956 7.78501   4
 -18  -2   7 29.2178 5.56784   2
  18  -2  -7 29.7235 9.68150   3
 -18   2   7 32.7447 7.04045   4
 -18   2   7 22.9133 6.38925   2
  18   2  -7 18.4244 8.71710   3
 -16  -2   7 24.4445 7.43957   4
 -16  -2   7 30.6609 4.96591   2
  16  -2  -7 42.6389 8.94760   3
 -16   2   7 32.7004 6.62806   2
 -16   2   7 27.2914 7.05902   4
  16   2  -7 36.7731 8.21251   3
  14  -2  -7 68.2055 7.08997   2
 -14  -2   7 67.4530 5.98835   2
  14  -2  -7 60.9725 8.63798   3
 -14  -2   7 41.2785 7.40185   4
 -14  -2   7 65.3802 5.88504   2
 -14   2   7 73.8628 8.57216   4
  14   2  -7 78.9381 8.69949   3
  12  -2  -7 92.7950 7.34124   2
 -12  -2   7 100.313 9.13770   4
  12  -2  -7 80.0080 8.44676   3
  12  -2  -7 80.7024 9.05153   4
 -12   2   7 86.1673 9.01984   4
  12   2  -7 86.9453 6.39296   2
  12   2  -7 85.6266 8.14867   3
 -10  -2   7 886.925 48.5878   4
  10  -2  -7 890.406 47.9115   3
  10  -2  -7 824.839 48.2181   4
  10  -2  -7 845.009 47.5833   2
 -10   2   7 858.233 47.9729   3
  10   2  -7 880.242 46.9679   2
  10   2  -7 866.154 48.1207   3
  -8  -2   7 442.028 25.8781   4
   8  -2  -7 406.558 25.1817   4
   8  -2  -7 442.542 24.5215   3
   8  -2  -7 441.970 24.5597   2
  -8  -2   7 422.873 24.9294   3
  -8   2   7 433.241 24.6110   3
  -8   2   7 434.642 26.2756   4
   8   2  -7 441.386 23.9588   2
   6  -2  -7 462.254 25.3504   3
  -6  -2   7 479.648 26.9185   4
   6  -2  -7 439.021 26.5440   4
   6  -2  -7 445.608 25.8355   2
  -6  -2   7 459.607 25.4584   2
   6   2  -7 440.707 25.3956   2
   6   2  -7 472.353 26.0873   3
   6   2  -7 482.639 26.0018   3
  -6   2   7 457.993 25.4069   3
  -6   2   7 472.382 27.0262   4
  -4  -2   7 109.906 8.77603   4
  -4  -2   7 111.734 7.33685   2
   4  -2  -7 114.291 7.99071   2
   4  -2  -7 107.098 8.46309   4
   4   2  -7 98.8301 7.31280   3
   4   2  -7 100.722 7.05790   2
  -4   2   7 108.190 6.23382   3
  -4   2   7 96.6721 7.73606   2
   4   2  -7 111.174 9.29346   4
  -2  -2   7 853.240 45.5991   3
  -2  -2   7 802.735 45.3810   2
  -2  -2   7 895.037 46.3604   4
  -2   2   7 829.544 44.6004   3
   2   2  -7 838.981 46.4808   4
  -2   2   7 834.357 46.3370   4
   2   2  -7 816.344 45.3785   2
  -2   2   7 821.245 45.6339   2
  -2   2   7 781.905 45.9498   4
  -2   2   7 837.753 44.5875   3
   0  -2   7 9.09368 4.36311   4
   0  -2  -7 2.57458 1.58470   3
   0  -2  -7 1.01105 2.50595   2
   0  -2   7 6.38201 3.02608   3
   0  -2   7 0.35994 2.97479   2
   0   2  -7 2.52991 2.71441   2
   0   2   7 2.79426 2.02882   3
   0   2  -7 -0.0057 3.87047   3
   0   2   7 3.52177 3.54645   2
   0   2  -7 1.99703 4.11653   4
   0   2   7 1.44499 3.67888   4
   2  -2   7 1094.93 61.5028   4
  -2  -2  -7 1124.06 61.2664   2
  -2   2  -7 1088.11 61.7799   4
  -2   2  -7 1103.79 61.7579   3
   2   2   7 1162.20 61.0015   3
   2   2   7 1152.16 61.9271   4
  -2   2  -7 1117.46 61.3376   2
  -4  -2  -7 483.953 28.4452   3
   4  -2   7 520.190 28.7558   4
  -4  -2  -7 485.686 28.5783   2
   4  -2   7 519.287 29.5287   3
  -4  -2  -7 523.245 29.0138   4
   4   2   7 513.459 28.8607   3
  -4   2  -7 521.368 28.9312   2
  -4   2  -7 475.004 28.3701   4
   6  -2   7 20.5485 3.91991   4
   6  -2   7 1.57534 5.17424   3
   6  -2   7 19.4589 4.56044   4
  -6  -2  -7 21.3692 4.83344   2
  -6  -2  -7 23.2435 4.60120   4
   6   2   7 12.0917 5.24942   3
  -6   2  -7 15.6200 5.24026   2
   8  -2   7 281.078 17.8830   4
  -8  -2  -7 301.706 18.5237   4
   8  -2   7 286.977 17.1973   4
   8  -2   7 302.553 20.4284   3
  -8  -2  -7 296.509 18.6223   2
   8   2   7 312.871 19.2517   3
  -8   2  -7 277.578 18.7362   2
  10  -2   7 438.915 24.4004   4
 -10  -2  -7 425.401 25.3139   4
 -10  -2  -7 443.794 25.7573   2
  10  -2   7 413.399 26.9234   3
 -10   2  -7 390.811 25.7275   2
  10   2   7 388.967 26.9149   3
  12  -2   7 43.0815 9.45886   3
 -12  -2  -7 42.6325 7.70711   2
 -12  -2  -7 40.3836 6.85029   4
  12   2   7 50.1940 10.0940   3
 -12   2  -7 27.3342 8.57451   2
  14  -2   7 50.8158 10.4587   3
 -14  -2  -7 55.2387 7.93357   4
 -14  -2  -7 47.8003 8.24122   2
 -14   2  -7 52.9623 9.05212   2
 -16  -2  -7 92.0706 11.6811   2
  16  -2   7 97.2325 13.8746   3
  16   2   7 100.937 15.4432   3
 -16   2  -7 93.1664 11.9287   2
 -18  -2  -7 25.5595 9.69478   2
  18  -2   7 46.1356 13.6873   3
  18   2   7 18.6147 12.3781   3
 -18   2  -7 22.5025 9.83446   2
  20  -2   7 15.4516 13.4248   3
 -20  -2  -7 11.0281 11.0718   2
 -20   2  -7 32.7506 11.4577   2
  20   2   7 15.8235 14.7263   3
  27  -3  -7 -5.6942 15.1284   3
 -27   3   7 12.9966 12.6740   2
  27   3  -7 22.9228 17.1655   3
 -25  -3   7 30.1333 10.8181   4
  25  -3  -7 47.8296 14.8953   3
  25   3  -7 22.6093 13.6552   3
 -25   3   7 25.6008 11.2968   2
  23  -3  -7 43.9499 12.9450   3
 -23  -3   7 25.4227 9.32406   4
  23   3  -7 28.6652 13.3292   3
 -23   3   7 18.9837 9.16711   2
  21  -3  -7 28.4857 10.3347   3
 -21   3   7 10.9726 8.15969   2
  21   3  -7 31.0615 10.5283   3
  19  -3  -7 39.8220 10.1072   3
 -19  -3   7 46.6010 6.29858   2
 -19  -3   7 34.3340 8.63271   4
 -19   3   7 47.3506 7.91295   2
  19   3  -7 45.2509 10.0432   3
  17  -3  -7 52.8374 10.5943   3
 -17  -3   7 85.6324 10.7681   4
 -17  -3   7 87.3870 7.34692   2
 -17   3   7 86.0710 9.38849   2
  17   3  -7 98.2736 11.3590   3
 -17   3   7 110.474 10.0223   4
  15  -3  -7 14.8374 5.34524   2
 -15  -3   7 4.39109 6.85047   4
  15  -3  -7 7.49227 7.21094   3
 -15  -3   7 13.1698 3.58099   2
 -15   3   7 10.0511 6.87439   4
  15   3  -7 13.8823 7.00934   3
  13  -3  -7 167.244 11.8022   2
  13  -3  -7 163.245 13.2499   3
 -13  -3   7 173.365 10.5148   2
 -13  -3   7 173.348 13.9645   4
 -13  -3   7 161.878 10.6028   2
  13   3  -7 180.332 13.7389   3
 -13   3   7 179.277 13.6723   4
  11  -3  -7 272.878 16.8878   2
  11  -3  -7 272.124 17.6170   3
 -11  -3   7 279.731 15.7873   2
 -11  -3   7 259.503 18.0826   4
  11   3  -7 284.181 15.6577   2
  11   3  -7 280.805 17.6800   3
 -11   3   7 289.743 18.6273   4
   9  -3  -7 201.894 12.4531   2
  -9  -3   7 184.334 11.3988   2
  -9  -3   7 220.992 14.3486   4
   9  -3  -7 202.177 12.7473   3
  -9   3   7 198.975 13.9127   4
   9   3  -7 202.749 11.2773   2
  -9   3   7 181.719 13.3411   3
   9   3  -7 184.170 13.0624   3
  -7  -3   7 670.734 36.7011   2
   7  -3  -7 650.302 37.1224   3
   7  -3  -7 671.778 37.4760   2
  -7  -3   7 696.925 38.4184   4
   7   3  -7 671.510 36.6327   2
  -7   3   7 638.096 37.2231   3
   7   3  -7 713.539 37.9477   3
  -7   3   7 696.086 38.4442   4
   5  -3  -7 52.7200 5.17411   2
   5  -3  -7 43.7566 3.85513   3
  -5  -3   7 33.7148 6.00207   4
  -5   3   7 45.1738 5.85936   4
   5   3  -7 44.3253 5.18059   3
   5   3  -7 34.9975 5.59375   3
  -5   3   7 43.0745 4.21304   3
   5   3  -7 45.4115 3.91768   2
  -3  -3   7 225.319 14.3891   4
   3  -3  -7 215.234 13.1440   2
  -3  -3   7 207.089 13.5826   3
  -3  -3   7 227.021 13.2320   2
   3   3  -7 211.099 15.5126   4
  -3   3   7 215.797 14.4986   4
  -3   3   7 221.587 12.2494   3
   3   3  -7 203.433 13.8980   3
  -3   3   7 210.961 12.4598   3
   3   3  -7 212.338 12.7852   2
  -1  -3   7 266.111 16.1859   2
   1  -3  -7 268.959 16.1718   2
  -1  -3   7 275.541 16.8466   4
  -1  -3   7 273.628 16.5697   3
   1   3  -7 284.338 17.8786   4
   1   3  -7 304.830 17.9474   3
  -1   3   7 258.132 15.3822   3
  -1   3   7 273.537 15.3776   3
   1   3  -7 267.904 16.0824   2
  -1   3   7 268.798 17.2267   4
   1  -3   7 75.6106 7.32111   3
  -1  -3  -7 84.7454 7.31192   4
  -1  -3  -7 71.6668 5.97961   3
  -1  -3  -7 79.1155 6.76424   2
   1  -3   7 78.8750 7.17600   4
   1   3   7 82.8215 6.16386   3
  -1   3  -7 89.5246 7.17283   2
  -1   3  -7 78.3574 7.87200   4
  -3  -3  -7 230.795 13.5166   2
   3  -3   7 194.355 13.3369   4
   3  -3   7 240.187 14.9645   3
  -3  -3  -7 223.246 13.9857   4
  -3  -3  -7 192.995 13.0453   3
  -3   3  -7 203.378 13.5979   2
   3   3   7 208.686 13.3797   3
  -5  -3  -7 222.348 15.2663   4
   5  -3   7 240.622 14.2772   4
  -5  -3  -7 235.367 14.6388   2
   5  -3   7 237.307 15.9439   3
  -5   3  -7 203.355 14.8379   2
  -5   3  -7 210.776 14.2600   4
   5   3   7 245.318 15.0917   3
   7  -3   7 74.8516 6.44257   4
   7  -3   7 63.3615 9.17119   3
   7  -3   7 82.6860 6.38728   4
  -7  -3  -7 86.5917 7.82242   2
  -7  -3  -7 90.9134 8.54943   4
  -7   3  -7 75.4064 8.49243   2
   7   3   7 63.0928 8.38206   3
  -9  -3  -7 33.1626 6.72301   4
   9  -3   7 35.7314 3.86685   4
   9  -3   7 30.2812 8.47161   3
  -9  -3  -7 21.2732 5.94611   2
  -9   3  -7 28.5523 6.65681   2
   9   3   7 30.7568 8.08945   3
 -11  -3  -7 108.313 10.4487   4
 -11  -3  -7 136.777 11.0756   2
  11  -3   7 114.244 13.3571   3
  11   3   7 128.243 13.2014   3
 -11   3  -7 112.164 11.1504   2
  13  -3   7 4.79298 9.49560   3
 -13  -3  -7 15.6350 6.70299   4
 -13  -3  -7 15.4837 6.61718   2
 -13   3  -7 16.1507 7.35269   2
  13   3   7 5.92469 8.56125   3
 -15  -3  -7 34.5533 7.83766   4
  15  -3   7 19.3921 10.3722   3
 -15   3  -7 29.0000 8.64618   2
  15   3   7 45.2872 11.3071   3
 -17  -3  -7 31.4301 9.26430   2
  17  -3   7 16.7539 12.9337   3
 -17   3  -7 34.9467 9.77619   2
 -19  -3  -7 35.5919 10.9611   2
  19  -3   7 40.6255 13.5861   3
  19   3   7 35.5279 14.8309   3
 -19   3  -7 37.5989 11.5103   2
  26  -4  -7 -8.8532 13.5018   3
 -26  -4   7 -4.0596 11.2997   4
 -26   4   7 -3.1517 10.8526   2
 -24  -4   7 10.4185 9.61356   4
  24  -4  -7 -1.4837 12.1820   3
 -24   4   7 -9.3876 8.83582   2
  24   4  -7 2.01060 13.9720   3
 -22  -4   7 11.9431 9.24379   4
  22  -4  -7 -5.1136 9.58176   3
 -22   4   7 -5.8803 8.90109   2
  22   4  -7 -10.664 10.2375   3
  20  -4  -7 4.55746 8.77576   3
 -20  -4   7 -1.8110 8.04147   4
  20   4  -7 2.04307 9.88092   3
 -20   4   7 3.46275 7.91463   2
 -18  -4   7 43.9716 9.53967   4
  18  -4  -7 28.3311 9.56317   3
 -18   4   7 43.0746 7.93714   2
  18   4  -7 52.4726 10.3351   3
  16  -4  -7 79.9324 10.4673   3
 -16  -4   7 48.0622 9.36376   4
 -16   4   7 67.2024 9.45741   2
 -16   4   7 47.8365 8.71085   4
  16   4  -7 55.2789 9.51458   3
 -14  -4   7 25.7164 7.25070   4
  14  -4  -7 23.5682 5.87254   2
  14  -4  -7 18.6199 7.33493   3
 -14  -4   7 26.2415 3.21732   2
 -14   4   7 25.6481 7.61537   4
  14   4  -7 37.2822 7.04803   3
 -12  -4   7 38.1016 3.05939   2
  12  -4  -7 28.0662 5.23146   2
 -12  -4   7 35.9752 7.19821   4
  12  -4  -7 27.2085 6.54572   3
 -12  -4   7 38.8489 3.21104   2
  12   4  -7 33.6339 6.83381   3
 -12   4   7 27.5743 7.17439   4
  10  -4  -7 31.8251 5.73561   3
 -10  -4   7 29.3438 6.51472   4
 -10  -4   7 35.4034 2.91800   2
  10  -4  -7 21.4209 4.61598   2
  10   4  -7 35.2616 2.65233   2
  10   4  -7 34.1641 5.62393   3
 -10   4   7 35.1613 6.49193   4
  -8  -4   7 21.1193 2.64787   2
   8  -4  -7 34.1674 4.76135   3
   8  -4  -7 26.7827 4.22947   2
  -8  -4   7 22.0989 5.89847   4
  -8   4   7 22.8836 5.79427   4
  -8   4   7 23.9870 5.59609   3
   8   4  -7 23.4891 5.03076   3
   8   4  -7 25.2111 2.46387   2
  -6  -4   7 20.9174 5.27738   4
  -6  -4   7 33.9931 3.37523   2
   6  -4  -7 22.1064 4.12764   2
   6  -4  -7 39.2574 4.34924   3
   6   4  -7 37.5972 5.28421   3
  -6   4   7 37.2172 5.70918   4
  -6   4   7 38.7814 5.56113   3
   6   4  -7 36.8354 3.33287   2
  -4  -4   7 11.9227 4.44525   4
   4  -4  -7 16.5689 2.94541   3
   4  -4  -7 9.96542 3.40559   2
  -4  -4   7 -2.2128 2.32954   2
   4   4  -7 8.11657 2.72802   2
   4   4  -7 16.9101 4.20891   3
  -4   4   7 8.54842 3.64362   3
  -4   4   7 13.3831 4.48279   4
  -2  -4   7 2.77453 3.95408   3
   2  -4  -7 4.65145 3.96991   4
   2  -4  -7 9.65485 3.49848   2
  -2  -4   7 4.72861 3.92696   4
  -2  -4   7 7.15663 3.45366   2
   2   4  -7 10.9069 3.22205   2
  -2   4   7 3.56359 2.34705   3
  -2   4   7 4.92757 3.28933   3
   0  -4   7 81.1930 7.88058   3
   0  -4  -7 76.7121 7.65023   4
   0  -4  -7 81.7691 6.74660   2
   0  -4   7 81.1921 7.32439   4
   0   4  -7 69.8837 8.61200   4
   0   4  -7 75.1591 6.75078   2
   0   4   7 70.9057 6.32927   3
   0   4   7 78.5292 6.11735   3
  -2  -4  -7 32.6633 5.68343   4
   2  -4   7 24.4055 5.77669   3
  -2  -4  -7 33.9773 4.80850   3
   2  -4   7 37.1810 5.05569   4
  -2  -4  -7 32.6036 4.78285   2
  -2   4  -7 32.7076 4.95630   2
  -2   4  -7 20.7947 6.55972   4
   2   4   7 28.9685 4.42213   3
  -4  -4  -7 48.4544 5.58129   2
  -4  -4  -7 45.0597 6.52512   4
   4  -4   7 42.3060 4.93020   4
   4  -4   7 31.8873 7.18796   3
   4   4   7 35.3764 5.49263   3
  -4   4  -7 19.3538 5.68798   2
  -4   4  -7 26.8741 5.98397   4
   6  -4   7 21.3810 7.15930   3
   6  -4   7 30.0932 4.17288   4
  -6  -4  -7 28.1672 5.39897   2
  -6  -4  -7 25.0010 5.97835   4
  -6   4  -7 26.0043 6.12614   2
   6   4   7 29.2044 6.51695   3
   8  -4   7 21.8845 4.14284   4
  -8  -4  -7 26.7326 5.92519   2
   8  -4   7 27.7934 8.76059   3
  -8  -4  -7 10.6459 5.81435   4
   8   4   7 20.3243 7.55872   3
  -8   4  -7 25.7236 7.16398   2
  10  -4   7 2.99281 7.73696   3
 -10  -4  -7 4.71353 5.57008   2
 -10  -4  -7 2.51684 5.53760   4
 -10   4  -7 -8.7539 6.61541   2
  10   4   7 -3.2591 7.70901   3
 -12  -4  -7 16.0681 6.41020   2
  12  -4   7 0.88559 8.68527   3
 -12  -4  -7 14.8224 6.81569   4
  12   4   7 4.50293 9.18001   3
 -12   4  -7 21.9635 8.22918   2
 -14  -4  -7 27.2745 7.65471   2
  14  -4   7 31.8824 10.6461   3
 -14   4  -7 38.1160 9.05568   2
  14   4   7 15.4066 9.91463   3
 -16  -4  -7 11.6494 8.11742   2
 -16  -4  -7 0.74784 8.25382   4
  16  -4   7 17.1479 11.7496   3
  16   4   7 6.71124 11.9569   3
 -16   4  -7 -6.2907 9.53314   2
 -18  -4  -7 -6.9098 9.41645   2
  18  -4   7 12.5955 12.8362   3
 -18   4  -7 -0.6118 9.67238   2
  18   4   7 -22.660 13.6665   3
 -20   4  -7 -16.282 10.8514   2
 -25  -5   7 10.5869 11.9366   4
  25  -5  -7 1.86012 13.0442   3
  25   5  -7 15.3657 16.0604   3
 -25   5   7 9.69582 12.4789   2
  23  -5  -7 66.0357 14.7154   3
 -23  -5   7 40.6934 11.7254   4
  23   5  -7 57.8420 15.3297   3
 -23   5   7 99.8135 13.6808   2
  21  -5  -7 131.030 15.9123   3
 -21  -5   7 143.777 14.9744   4
 -21   5   7 100.581 13.2864   2
  21   5  -7 107.479 15.4148   3
 -19  -5   7 -3.8762 7.77892   4
  19  -5  -7 -13.501 9.26640   3
  19   5  -7 -13.836 8.14520   3
 -19   5   7 2.78398 7.19121   2
  17  -5  -7 56.6184 9.58989   3
 -17  -5   7 49.8261 9.43477   4
 -17   5   7 42.2646 8.61277   2
  17   5  -7 39.4282 9.12985   3
  15  -5  -7 330.673 21.5956   3
 -15  -5   7 290.398 21.8184   4
  15   5  -7 289.710 21.5105   3
 -15   5   7 291.316 20.9876   4
 -13  -5   7 77.0033 9.89192   4
  13  -5  -7 67.7873 7.67039   2
  13  -5  -7 87.3393 9.66026   3
  13   5  -7 58.1827 8.95608   3
 -13   5   7 69.6330 9.29731   4
  11  -5  -7 116.495 9.13406   2
 -11  -5   7 94.3110 10.8472   4
  11  -5  -7 97.1405 9.66009   3
  11   5  -7 114.795 10.9618   3
 -11   5   7 96.3619 10.3040   4
  -9  -5   7 449.375 28.4288   4
   9  -5  -7 468.281 27.4818   3
   9  -5  -7 478.963 27.4092   2
   9   5  -7 459.615 28.2892   3
  -9   5   7 481.750 28.3159   4
  -7  -5   7 766.746 41.2977   2
   7  -5  -7 743.548 42.6013   3
   7  -5  -7 795.261 42.7644   2
  -7  -5   7 794.458 43.8237   4
   7   5  -7 754.555 41.2841   2
  -7   5   7 757.126 45.8772   3
   7   5  -7 728.778 43.4437   3
  -7   5   7 775.757 43.5181   4
  -5  -5   7 25.6853 3.35562   2
   5  -5  -7 18.5184 4.52015   2
   5  -5  -7 16.6704 4.01470   3
  -5  -5   7 13.8196 5.52431   4
   5   5  -7 16.3275 3.08466   2
   5   5  -7 26.0583 5.81317   3
  -5   5   7 16.9923 5.27840   4
  -5   5   7 18.2175 5.57668   3
   3  -5  -7 262.453 16.6989   4
  -3  -5   7 235.155 15.2166   2
  -3  -5   7 249.753 17.0733   4
  -3  -5   7 267.025 16.8061   3
   3  -5  -7 264.240 15.8392   2
  -3   5   7 263.296 15.5428   3
  -3   5   7 245.787 16.3129   3
   3   5  -7 262.970 15.2999   2
  -1  -5   7 107.649 9.18556   3
   1  -5  -7 65.5826 6.87785   2
  -1  -5   7 82.8878 8.37070   4
   1  -5  -7 86.4775 8.35709   4
   1   5  -7 100.670 7.49917   2
  -1   5   7 73.6546 6.73657   3
  -1   5   7 83.1916 7.68117   3
  -1  -5  -7 9.42311 5.49876   4
  -1  -5  -7 10.7548 4.16427   2
   1  -5   7 14.9226 4.89936   4
   1  -5   7 10.9182 5.72049   3
   1   5   7 11.9467 5.06049   3
   1   5   7 9.55950 5.40092   3
  -1   5  -7 23.6514 5.01862   2
  -3  -5  -7 1032.66 57.5652   4
  -3  -5  -7 1078.65 56.5119   2
   3  -5   7 1019.76 57.8905   3
  -3   5  -7 1029.41 56.9811   2
  -3   5  -7 941.720 57.2865   4
   3   5   7 1048.82 56.8246   3
   5  -5   7 61.7522 9.40729   3
   5  -5   7 79.5474 6.85831   4
  -5  -5  -7 83.8246 7.38705   2
  -5  -5  -7 64.9084 8.37356   4
  -5   5  -7 72.6031 8.04265   2
   5   5   7 99.1077 8.79975   3
  -7  -5  -7 -0.9771 4.79125   2
   7  -5   7 2.11517 3.44459   4
  -7  -5  -7 -3.6638 5.37616   4
   7  -5   7 8.07513 7.84477   3
  -7   5  -7 -7.1714 6.30344   2
   7   5   7 0.33316 6.32363   3
  -9  -5  -7 278.966 18.6283   4
  -9  -5  -7 251.033 17.0912   2
   9   5   7 260.358 19.3025   3
  -9   5  -7 232.598 17.9587   2
  11  -5   7 211.353 19.1723   3
 -11  -5  -7 234.258 15.8064   2
 -11  -5  -7 220.061 16.6746   4
 -11   5  -7 222.382 17.2772   2
  11   5   7 241.915 18.9982   3
 -13  -5  -7 3.30427 6.54329   2
  13  -5   7 1.73137 10.4221   3
 -13  -5  -7 -2.8936 7.34935   4
 -13   5  -7 -4.1427 8.37046   2
  13   5   7 8.53868 10.2784   3
  15  -5   7 41.1552 12.8910   3
 -15  -5  -7 24.3628 9.30498   2
 -15  -5  -7 36.4848 9.83093   4
  15   5   7 54.5370 12.6972   3
 -15   5  -7 43.6766 11.0781   2
  17  -5   7 64.4922 14.3718   3
 -17  -5  -7 53.4888 11.3785   4
 -17   5  -7 96.4951 12.7639   2
  17   5   7 70.1911 16.0684   3
  19  -5   7 46.8653 16.4629   3
 -19   5  -7 36.5338 12.0429   2
  19   5   7 22.1589 16.7246   3
  24  -6  -7 11.6529 14.2868   3
 -24  -6   7 6.71422 12.1787   4
  22  -6  -7 60.6122 13.2999   3
 -22  -6   7 67.5805 13.3641   4
 -22   6   7 67.2189 13.4307   2
  22   6  -7 43.5313 13.8888   3
  20  -6  -7 32.1185 11.5806   3
 -20  -6   7 8.75642 10.3723   4
 -20   6   7 32.4922 10.4935   2
  20   6  -7 23.2501 10.9456   3
  18  -6  -7 111.938 14.0341   3
 -18  -6   7 146.823 14.3124   4
 -18   6   7 108.150 13.2979   2
  18   6  -7 125.999 14.5748   3
  16  -6  -7 -0.8244 7.68458   3
 -16  -6   7 9.34439 7.83879   4
 -16   6   7 16.4624 7.57069   2
  16   6  -7 9.89083 9.04820   3
  14  -6  -7 37.2207 8.66105   3
  14  -6  -7 42.1250 6.93375   2
 -14  -6   7 44.8680 9.80154   4
 -14   6   7 65.2103 9.26957   4
  14   6  -7 43.4092 8.99465   3
  12  -6  -7 284.884 19.9260   3
  12  -6  -7 307.694 19.0039   2
 -12  -6   7 297.288 20.4943   4
 -12   6   7 256.314 20.0709   4
  12   6  -7 289.142 20.1694   3
  10  -6  -7 269.316 19.8962   3
 -10  -6   7 295.444 20.8264   4
  10  -6  -7 295.714 19.1379   2
  10   6  -7 335.948 20.9137   3
 -10   6   7 311.115 20.3312   4
   8  -6  -7 473.386 27.3080   3
  -8  -6   7 461.398 28.7956   4
   8  -6  -7 443.791 27.0425   2
   8   6  -7 447.970 28.1383   3
  -8   6   7 469.620 28.2212   4
  -6  -6   7 261.366 18.6825   4
   6  -6  -7 275.052 17.2273   2
   6  -6  -7 270.525 17.5440   3
   6   6  -7 287.763 15.8457   2
  -6   6   7 300.458 19.1252   4
   6   6  -7 258.956 18.5193   3
  -4  -6   7 60.9072 7.77860   4
   4  -6  -7 57.0006 6.41245   2
   4  -6  -7 48.0808 7.60237   4
   4   6  -7 50.4943 7.42669   3
   4   6  -7 54.9966 5.26455   2
  -4   6   7 50.8622 6.21516   3
  -2  -6   7 619.445 36.0306   3
   2  -6  -7 660.412 34.8873   2
  -2  -6   7 613.097 35.7956   4
   2  -6  -7 620.054 36.0099   4
  -2  -6   7 589.236 34.8092   2
  -2   6   7 628.831 34.9299   3
   2   6  -7 577.939 34.3899   2
   0  -6  -7 111.090 10.5393   4
   0  -6   7 145.696 10.8812   4
   0  -6  -7 114.325 9.10374   2
   0  -6   7 115.022 11.2641   3
   0   6  -7 111.900 9.39919   2
   0   6   7 120.913 9.53004   3
   2  -6   7 201.884 16.1511   3
   2  -6   7 221.224 14.1438   4
  -2  -6  -7 202.856 15.5147   4
  -2  -6  -7 204.444 13.1925   2
   2   6   7 172.676 13.5096   3
  -2   6  -7 182.252 13.8385   2
  -4  -6  -7 285.567 18.1588   2
  -4  -6  -7 266.290 20.1586   4
   4  -6   7 319.694 21.5969   3
   4  -6   7 306.156 18.5105   4
   4   6   7 296.752 19.1813   3
  -4   6  -7 311.341 19.5321   2
   6  -6   7 142.358 10.2763   4
  -6  -6  -7 143.814 10.5684   2
   6  -6   7 134.506 13.7024   3
  -6  -6  -7 121.226 12.5654   4
  -6   6  -7 135.848 12.0710   2
   6   6   7 137.696 12.2707   3
   8  -6   7 57.0701 10.5114   3
  -8  -6  -7 63.8951 9.52975   4
  -8  -6  -7 61.4250 7.15444   2
  -8   6  -7 49.4638 9.26890   2
   8   6   7 43.5009 9.20562   3
 -10  -6  -7 285.492 17.9888   2
  10  -6   7 251.588 21.1909   3
 -10  -6  -7 230.079 19.1232   4
  10   6   7 267.481 20.8795   3
 -10   6  -7 299.575 20.2661   2
 -12  -6  -7 9.17137 7.18256   4
  12  -6   7 2.90827 9.23106   3
 -12  -6  -7 0.62232 9.79633   2
 -12   6  -7 0.88654 8.03241   2
  12   6   7 0.56653 10.4295   3
  14  -6   7 15.3709 10.9830   3
 -14  -6  -7 45.7866 9.40780   4
  14   6   7 19.4135 12.7289   3
 -14   6  -7 34.6301 9.89268   2
  16  -6   7 97.9965 16.6544   3
 -16  -6  -7 100.297 13.3143   4
  16   6   7 91.7877 16.6265   3
 -16   6  -7 99.1164 13.8565   2
 -18   6  -7 9.19441 11.5812   2
  23  -7  -7 8.28928 14.3084   3
  23   7  -7 -10.940 13.6026   3
 -23   7   7 -2.2094 12.3721   2
 -21  -7   7 14.2389 12.2494   4
  21  -7  -7 1.62959 12.0127   3
 -21   7   7 0.29095 11.5711   2
  21   7  -7 9.59941 13.7131   3
  19  -7  -7 9.49785 10.4764   3
 -19  -7   7 18.6227 11.0499   4
 -19   7   7 -2.4258 8.51892   2
  19   7  -7 -2.1122 11.1721   3
  17  -7  -7 6.48487 9.51620   3
 -17  -7   7 4.02865 8.52897   4
 -17   7   7 0.02949 7.66566   2
  17   7  -7 -7.8118 9.45556   3
 -15  -7   7 14.8264 8.50342   4
  15   7  -7 23.0018 8.81005   3
 -15   7   7 38.9125 9.57384   2
  13  -7  -7 39.3898 8.46586   3
  13  -7  -7 35.3562 6.91549   2
 -13  -7   7 28.7213 9.12656   4
 -13   7   7 34.1480 9.10808   4
  13   7  -7 40.2490 8.88914   3
 -11  -7   7 71.8503 10.3559   4
  11  -7  -7 60.4012 8.79195   3
 -11   7   7 64.3034 9.46055   4
  11   7  -7 39.7060 8.66197   3
  -9  -7   7 16.0916 8.07782   4
   9  -7  -7 8.26266 4.87516   2
   9  -7  -7 24.2006 6.52055   3
  -9   7   7 27.1339 7.68715   4
   9   7  -7 11.2897 11.1284   3
   7  -7  -7 73.6918 7.87072   2
  -7  -7   7 70.9713 9.70655   4
   7  -7  -7 72.4593 8.35746   3
   7   7  -7 61.6824 8.94110   3
  -7   7   7 79.6887 9.64348   4
   5  -7  -7 165.091 13.7416   4
   5  -7  -7 171.537 12.4009   2
   5  -7  -7 180.888 13.5440   3
  -5  -7   7 184.329 14.8312   4
   5   7  -7 172.338 14.7398   3
   5   7  -7 192.699 13.4254   2
   3  -7  -7 10.2290 4.68414   2
  -3  -7   7 12.9685 6.71497   4
   3  -7  -7 11.2625 6.72311   4
  -3   7   7 4.91252 5.27588   3
   3   7  -7 6.00379 6.59325   3
  -1  -7   7 26.3773 6.87267   4
   1  -7  -7 27.5262 7.49778   4
   1  -7  -7 16.6326 4.93703   2
  -1  -7   7 23.1947 7.61737   3
   1   7  -7 28.3842 5.51940   2
  -1   7   7 33.3052 6.09616   3
   1  -7   7 71.6313 9.15034   4
  -1  -7  -7 127.661 11.7909   4
  -1  -7  -7 107.708 8.58536   2
   1  -7   7 108.035 11.5320   3
  -1   7  -7 93.2851 9.14965   2
   1   7   7 85.9502 9.06666   3
  -3  -7  -7 116.808 8.95072   2
  -3  -7  -7 81.7874 11.0320   4
   3  -7   7 90.3162 9.05622   4
   3   7   7 90.9855 9.78977   3
  -3   7  -7 105.671 9.79757   2
  -5  -7  -7 3.09836 6.85836   4
   5  -7   7 -0.3530 7.70034   3
  -5  -7  -7 -2.9537 4.47219   2
   5  -7   7 -3.0495 4.87370   4
   5   7   7 -5.7673 6.02747   3
  -5   7  -7 13.4547 6.83792   2
  -7  -7  -7 36.7590 6.22306   2
   7  -7   7 26.4033 8.80631   3
  -7  -7  -7 25.6310 8.54194   4
   7   7   7 40.2559 8.87219   3
  -7   7  -7 18.5666 11.4971   2
  -9  -7  -7 75.4511 10.4887   4
   9  -7   7 59.3153 11.4551   3
   9   7   7 68.4770 11.0706   3
  -9   7  -7 77.1252 10.9094   2
 -11  -7  -7 -2.8156 7.93085   4
  11  -7   7 -1.7959 9.37111   3
  11   7   7 -1.4573 9.66042   3
 -11   7  -7 1.48794 8.94350   2
 -13  -7  -7 30.2087 10.0736   4
  13  -7   7 36.9593 11.7832   3
 -13   7  -7 33.4852 10.1857   2
  13   7   7 16.4039 12.7373   3
  15  -7   7 -8.2515 12.2895   3
 -15  -7  -7 3.28164 10.3748   4
 -15   7  -7 -6.4605 9.72662   2
  15   7   7 -0.5027 13.6763   3
  20  -8  -7 14.8625 12.5554   3
 -20  -8   7 3.23794 11.1440   4
  20   8  -7 -9.2877 12.2382   3
 -20   8   7 8.75780 12.1937   2
 -18  -8   7 31.8552 11.5724   4
  18  -8  -7 20.9762 11.1056   3
  18   8  -7 16.5414 12.6734   3
 -18   8   7 48.5810 11.9563   2
  16  -8  -7 9.62544 9.85879   3
 -16  -8   7 -0.8730 9.54214   4
 -16   8   7 2.62542 8.36832   2
  16   8  -7 -6.9561 9.02166   3
 -14  -8   7 15.4611 8.92836   4
  14  -8  -7 25.3772 9.10526   3
  14   8  -7 16.1654 10.3631   3
 -14   8   7 21.3142 8.47479   2
 -12  -8   7 6.43343 9.06169   4
  12  -8  -7 -1.1877 7.44770   3
  12  -8  -7 9.18076 6.13318   2
 -12   8   7 9.61073 9.05124   4
  12   8  -7 17.0355 8.63204   3
 -10  -8   7 0.74859 8.22718   4
  10  -8  -7 0.85343 7.13015   3
  10  -8  -7 -0.6271 5.28446   2
  10   8  -7 0.72816 7.89864   3
 -10   8   7 -5.0497 7.77709   4
   8  -8  -7 70.2730 9.02660   3
  -8  -8   7 62.8979 10.5682   4
   8  -8  -7 64.9503 7.73883   2
   8   8  -7 70.1170 10.9031   3
  -8   8   7 60.2512 9.86937   4
   6  -8  -7 16.0699 6.45074   3
   6  -8  -7 7.31465 5.33772   2
   6   8  -7 11.6497 7.28556   3
  -6   8   7 6.54327 7.63461   4
   4  -8  -7 43.2074 8.47694   4
  -4  -8   7 43.3988 8.50931   4
   4  -8  -7 44.5708 6.67322   2
  -4   8   7 61.7805 8.55883   3
   4   8  -7 54.3698 9.60349   3
   2  -8  -7 62.6828 7.50595   2
  -2  -8   7 60.1926 9.32863   4
   2  -8  -7 74.7269 13.0428   4
   2   8  -7 91.2331 11.0793   3
   2   8  -7 79.3319 7.62673   2
  -2   8   7 83.1765 9.30821   3
   0  -8   7 -3.6129 7.66119   3
   0  -8  -7 -2.5613 4.51801   2
   0  -8  -7 6.99654 7.41192   4
   0  -8   7 5.18998 6.26143   4
   0   8   7 -3.8522 5.87719   3
   0   8  -7 -1.6621 5.45295   2
   2  -8   7 16.0536 8.51699   3
  -2  -8  -7 17.1646 7.14861   4
  -2  -8  -7 19.7070 5.21829   2
   2  -8   7 15.3849 6.87357   4
   2   8   7 15.1757 6.75907   3
  -2   8  -7 17.2495 6.43531   2
   4  -8   7 16.8047 6.40401   4
  -4  -8  -7 15.6127 7.32980   4
   4  -8   7 29.6284 9.47285   3
  -4  -8  -7 21.4140 5.76498   2
  -4   8  -7 10.3117 7.18150   2
   4   8   7 21.4782 7.75305   3
  -6  -8  -7 -5.6256 7.64377   4
   6  -8   7 1.26011 7.85394   3
   6   8   7 -4.0779 7.63523   3
  -6   8  -7 -3.8351 7.26116   2
  -8  -8  -7 -3.7058 7.76154   4
   8  -8   7 6.14279 9.96896   3
  -8   8  -7 -11.041 7.77796   2
   8   8   7 -0.1596 9.10813   3
 -10  -8  -7 4.69667 8.70373   4
  10  -8   7 27.8462 11.5294   3
  10   8   7 26.4527 11.3825   3
 -10   8  -7 18.1780 9.77427   2
 -12  -8  -7 -9.6537 8.75638   4
  12  -8   7 6.49931 12.1588   3
 -12   8  -7 1.82678 10.2616   2
  12   8   7 -3.0820 12.4060   3
 -14  -8  -7 1.43803 10.7108   4
  14  -8   7 5.42670 13.1242   3
 -14   8  -7 0.66177 11.5429   2
  14   8   7 13.3734 14.9505   3
 -19  -9   7 30.9271 14.4883   4
  19  -9  -7 52.1991 14.3427   3
  19   9  -7 31.6908 15.5674   3
  17  -9  -7 27.8714 11.9361   3
 -17  -9   7 53.1589 12.5373   4
 -17   9   7 28.5663 11.1901   2
  17   9  -7 55.7857 12.7710   3
  15  -9  -7 6.65550 9.69337   3
 -15  -9   7 11.6690 10.4645   4
 -15   9   7 -9.2131 9.64804   2
  15   9  -7 3.28655 11.3965   3
 -13  -9   7 98.3386 14.0794   4
  13  -9  -7 91.3095 12.4285   3
 -13   9   7 104.642 13.0059   2
  13   9  -7 54.1791 12.1523   3
 -11  -9   7 124.907 14.7040   4
  11  -9  -7 121.556 13.3431   3
 -11   9   7 119.694 13.5569   2
  11   9  -7 121.553 14.9744   3
 -11   9   7 111.996 13.8788   4
  -9  -9   7 119.751 14.0797   4
   9  -9  -7 142.970 12.4017   2
  -9   9   7 121.795 14.3321   4
   9   9  -7 158.187 15.3602   3
   7  -9  -7 92.6047 11.0182   3
  -7  -9   7 100.328 12.4032   4
   7  -9  -7 106.159 9.93550   2
   7   9  -7 95.5943 12.7323   3
  -7   9   7 112.207 13.2688   4
  -5  -9   7 95.7989 11.9876   4
   5  -9  -7 77.6514 10.5713   4
   5  -9  -7 78.0686 8.81090   2
  -5   9   7 80.2676 10.9808   3
   5   9  -7 94.8150 12.1177   3
   3  -9  -7 65.0065 9.72804   4
   3  -9  -7 64.8385 8.04626   2
  -3  -9   7 71.3736 10.7333   4
   3   9  -7 71.4924 11.7132   3
  -3   9   7 74.8292 10.3793   3
   1  -9  -7 72.7282 8.21869   2
  -1  -9   7 69.6079 10.0435   4
   1  -9  -7 65.7453 10.8784   4
  -1   9   7 76.0363 10.5019   3
   1   9  -7 89.0899 12.3805   3
  -1  -9  -7 64.4353 10.8882   4
   1  -9   7 54.9101 9.24470   4
   1  -9   7 65.8807 10.7110   3
  -1  -9  -7 63.4924 7.57725   2
   1   9   7 54.2965 9.56489   3
  -1   9  -7 39.7574 8.26336   2
   3  -9   7 151.073 14.7318   3
  -3  -9  -7 123.145 13.8981   4
   3   9   7 119.545 13.0948   3
  -3   9  -7 120.961 12.1078   2
   5  -9   7 54.2276 11.1592   3
  -5  -9  -7 79.1118 12.1674   4
  -5   9  -7 71.2373 10.6946   2
   5   9   7 72.6751 11.3879   3
   7  -9   7 25.6149 10.8514   3
  -7  -9  -7 17.8139 8.71771   4
  -7   9  -7 20.4923 9.35513   2
   7   9   7 15.4008 10.3229   3
   9  -9   7 73.4591 13.1163   3
  -9  -9  -7 89.2140 12.5967   4
   9   9   7 82.3444 13.7059   3
  -9   9  -7 102.880 12.9946   2
  11  -9   7 8.94950 10.7186   3
 -11  -9  -7 12.3028 10.8682   4
  11   9   7 1.82489 12.8423   3
 -11   9  -7 4.49746 9.76470   2
 -16 -10   7 9.75938 13.1238   4
  16 -10  -7 11.8872 12.3680   3
 -16  10   7 -4.2601 12.1915   2
  16  10  -7 12.3946 12.8019   3
 -14 -10   7 15.5579 11.2422   4
  14 -10  -7 17.5774 11.4859   3
  14  10  -7 22.4360 12.5230   3
 -14  10   7 58.9885 12.7781   2
 -12 -10   7 72.5537 14.0865   4
  12 -10  -7 65.1850 12.2479   3
  12  10  -7 60.5794 13.9226   3
 -12  10   7 43.2215 11.8369   2
  10 -10  -7 76.3905 11.8808   3
 -10 -10   7 95.7287 14.1813   4
 -10  10   7 79.5479 22.8350   4
 -10  10   7 62.8370 11.7680   2
  10  10  -7 70.3444 13.6539   3
   8 -10  -7 25.0515 7.90844   2
   8 -10  -7 33.5934 9.76577   3
  -8 -10   7 30.4158 11.2186   4
   8  10  -7 19.7093 10.5718   3
  -8  10   7 36.4600 11.4734   4
   6 -10  -7 233.113 17.5418   2
  -6 -10   7 224.347 20.0462   4
   6  10  -7 227.459 20.7741   3
  -6  10   7 255.546 20.1423   3
  -6  10   7 254.754 21.2567   4
   4 -10  -7 33.9088 9.98203   4
   4 -10  -7 26.6008 7.38793   2
  -4 -10   7 57.4395 10.9124   4
  -4  10   7 31.4944 10.5268   3
   4  10  -7 33.2156 10.9495   3
   2 -10  -7 -9.1937 8.60844   4
  -2 -10   7 -1.4762 8.64474   4
   2 -10  -7 -0.7229 5.95844   2
   2  10  -7 -1.8950 9.81516   3
  -2  10   7 -3.5919 8.88392   3
   0 -10  -7 48.1453 10.1784   4
   0 -10   7 39.0715 10.1437   4
   0  10   7 37.0375 10.4107   3
   0  10  -7 48.1403 11.8166   3
   2 -10   7 202.245 18.3659   3
  -2 -10  -7 210.731 18.9181   4
   2  10   7 201.556 18.2585   3
  -4 -10  -7 24.4241 9.81892   4
   4 -10   7 10.8941 11.3284   3
   4  10   7 18.2041 10.8025   3
  -6 -10  -7 -3.1767 9.52916   4
   6 -10   7 16.3817 11.0788   3
  -6  10  -7 1.29193 9.49232   2
   6  10   7 3.57518 10.7164   3
  -8 -10  -7 97.0898 14.3069   4
   8 -10   7 160.341 18.5991   3
   8  10   7 121.748 16.7600   3
  -8  10  -7 155.490 15.8752   2
  11 -11  -7 35.0992 12.3225   3
 -11 -11   7 47.8219 13.2101   4
 -11  11   7 34.3633 12.1274   2
  -9 -11   7 29.5595 12.4318   4
  -9  11   7 6.67927 10.5946   2
  -9  11   7 26.2676 12.3639   3
   9  11  -7 5.58178 12.1028   3
  -7 -11   7 2.98770 11.3544   4
  -7  11   7 14.3252 11.7976   4
  -7  11   7 13.5684 10.5196   2
  -7  11   7 5.17074 11.9619   3
   7  11  -7 -5.0050 10.9441   3
   5 -11  -7 2.62363 12.2930   2
   5 -11  -7 1.82427 10.0874   4
  -5 -11   7 8.19360 9.84544   4
   5  11  -7 -0.9109 11.0552   3
  -5  11   7 12.2902 11.8523   3
  -3 -11   7 76.6963 12.7031   4
   3 -11  -7 51.6783 12.2039   4
  -3  11   7 77.8863 13.5613   3
   3  11  -7 45.8781 14.2123   3
   1 -11  -7 -5.2452 10.2603   4
  -1 -11   7 3.49980 10.0627   4
   1  11  -7 10.7009 12.2867   3
  -1  11   7 -6.4565 10.8034   3
  -1 -11  -7 -13.298 10.2205   4
  -1  11  -7 6.65353 12.7235   3
   1  11   7 -4.5861 11.2051   3
   3 -11   7 8.90647 11.8439   3
  -3 -11  -7 4.16493 10.3246   4
   5 -11   7 16.1691 11.6735   3
 -28   0   8 214.822 20.5254   2
  26   0  -8 58.5180 16.4787   3
 -26   0   8 78.8781 12.2185   2
 -24   0   8 15.7546 8.46198   2
  22   0  -8 316.162 26.3666   3
 -22   0   8 336.023 23.4948   4
 -22   0   8 387.368 23.2554   2
  20   0  -8 604.086 38.7537   3
 -20   0   8 624.032 37.2363   4
 -20   0   8 663.048 36.8488   2
  18   0  -8 91.4518 11.0208   3
 -18   0   8 80.5761 8.64165   2
 -18   0   8 80.3712 9.71065   4
  16   0  -8 139.487 13.2495   3
  16   0  -8 166.273 11.5097   2
 -16   0   8 168.426 13.3737   4
 -14   0   8 453.452 27.5772   4
  14   0  -8 443.493 26.9859   3
  14   0  -8 452.427 25.7830   2
  12   0  -8 125.624 10.0753   3
  12   0  -8 119.103 8.80970   2
 -12   0   8 139.470 11.4393   4
 -10   0   8 1043.43 58.1359   4
 -10   0   8 1032.54 57.0433   3
 -10   0   8 1013.44 57.1782   2
  10   0  -8 1043.43 56.7947   2
  10   0  -8 1077.73 57.2693   3
  -8   0   8 1071.21 58.1790   3
   8   0  -8 1077.33 58.3398   2
   8   0  -8 1058.36 58.2986   3
  -8   0   8 1083.10 59.6165   4
  -8   0   8 1070.45 58.4063   2
  -6   0   8 529.354 28.6690   2
   6   0  -8 519.422 28.1051   3
   6   0  -8 506.831 28.5161   2
  -6   0   8 505.821 28.0450   3
   6   0  -8 503.710 29.7413   4
  -6   0   8 504.166 29.8630   4
   4   0  -8 586.020 33.4261   4
   4   0  -8 581.486 32.3252   2
  -4   0   8 572.505 34.1454   4
  -4   0   8 583.045 32.4621   2
   4   0  -8 587.689 31.6820   3
   4   0  -8 582.212 31.6133   3
  -2   0   8 2184.90 114.186   3
  -2   0   8 2069.39 114.812   2
  -2   0   8 2183.01 115.677   4
   2   0  -8 2054.33 115.345   4
   2   0  -8 2145.65 114.242   3
   0   0  -8 111.117 7.97419   3
   0   0   8 133.821 9.54690   4
   0   0  -8 127.094 9.57429   4
   0   0   8 122.117 7.96405   3
   0   0  -8 118.446 8.49751   2
  -2   0  -8 2569.67 141.999   4
  -2   0  -8 2666.31 141.915   2
  -2   0  -8 2541.97 141.604   3
   2   0   8 2691.60 142.368   4
   2   0   8 2682.77 141.644   3
   4   0   8 2127.30 116.713   4
   4   0   8 2221.60 116.909   3
  -4   0  -8 2171.49 116.899   2
  -4   0  -8 2106.94 116.803   3
   6   0   8 230.623 15.1810   4
   6   0   8 216.734 15.6386   3
  -6   0  -8 238.361 15.0173   2
   6   0   8 219.386 14.9084   4
   8   0   8 632.640 36.9075   3
  -8   0  -8 632.757 36.0240   2
   8   0   8 608.756 35.7079   4
 -10   0  -8 660.992 39.4792   2
  10   0   8 704.719 40.5304   3
  10   0   8 684.373 39.0226   4
  12   0   8 147.089 11.8310   4
  12   0   8 106.941 13.8100   3
 -12   0  -8 174.359 13.8567   2
 -14   0  -8 264.152 19.0946   2
  14   0   8 259.376 21.8080   3
  16   0   8 53.0374 12.2973   3
 -16   0  -8 73.2448 11.3442   2
 -18   0  -8 33.5705 10.0608   2
  18   0   8 40.2545 14.5736   3
  20   0   8 109.015 18.8804   3
 -20   0  -8 83.7009 13.7074   2
  27  -1  -8 4.53328 15.6734   3
  27   1  -8 0.48783 14.5620   3
 -27   1   8 8.08991 11.0458   2
  25  -1  -8 84.5235 15.4189   3
 -25  -1   8 86.8095 11.5812   2
 -25   1   8 92.0159 12.4483   2
  25   1  -8 80.3099 15.9878   3
  23  -1  -8 122.804 16.1015   3
 -23  -1   8 94.4346 11.6819   4
 -23  -1   8 116.378 11.7101   2
 -23   1   8 120.673 12.4517   2
  23   1  -8 108.281 14.6517   3
 -21  -1   8 3.62447 7.14836   4
 -21  -1   8 5.69758 6.06753   2
  21  -1  -8 -3.6645 9.82675   3
 -21   1   8 3.07244 6.72689   4
 -21   1   8 -10.348 6.76410   2
  21   1  -8 1.93201 8.69418   3
  19  -1  -8 151.305 12.5794   3
 -19  -1   8 115.792 9.90906   2
 -19  -1   8 110.976 11.3088   4
  19   1  -8 98.1284 12.2971   3
 -19   1   8 75.2427 9.39320   2
 -19   1   8 99.1901 10.7213   4
  17  -1  -8 231.641 15.3781   2
 -17  -1   8 232.392 16.9763   4
  17  -1  -8 210.290 17.1768   3
 -17  -1   8 232.747 15.2185   2
  17   1  -8 207.768 17.1506   3
 -17   1   8 238.825 17.2474   4
 -15  -1   8 30.4152 7.11255   4
  15  -1  -8 35.3396 5.56623   2
  15  -1  -8 33.2702 7.32851   3
  15   1  -8 32.3593 4.68834   2
 -15   1   8 41.2358 7.55646   4
  15   1  -8 15.2352 6.12490   3
  13  -1  -8 239.929 15.2691   2
 -13  -1   8 245.318 17.2144   4
  13  -1  -8 255.864 16.4116   3
  13   1  -8 234.086 14.6643   2
  13   1  -8 257.579 16.6157   3
 -13   1   8 242.194 17.3239   4
  11  -1  -8 40.9989 5.56284   3
  11  -1  -8 35.8001 4.66472   2
 -11  -1   8 37.5135 4.65337   2
 -11  -1   8 43.1688 7.48558   4
  11   1  -8 50.1554 4.40065   2
  11   1  -8 47.9908 5.77478   3
 -11   1   8 34.6460 5.50869   3
 -11   1   8 39.9756 7.48722   4
  -9  -1   8 151.958 11.2041   3
  -9  -1   8 181.997 10.8705   2
   9  -1  -8 179.340 11.1171   3
  -9  -1   8 166.063 13.3568   4
   9  -1  -8 163.435 10.9915   2
   9   1  -8 171.738 11.1440   3
  -9   1   8 173.543 12.9693   4
  -9   1   8 170.085 10.9070   3
   9   1  -8 180.600 10.5986   2
  -7  -1   8 1913.30 103.875   4
   7  -1  -8 1921.39 102.410   3
   7  -1  -8 1916.69 102.889   2
  -7  -1   8 1912.67 102.696   3
  -7  -1   8 1895.62 102.637   2
  -7   1   8 1850.34 102.292   3
   7   1  -8 1891.83 102.753   3
   7   1  -8 1925.92 102.619   2
  -7   1   8 1916.91 103.894   4
   5  -1  -8 2.92673 4.07181   4
   5  -1  -8 2.39773 2.60855   2
  -5  -1   8 8.27113 5.02112   4
   5  -1  -8 4.53633 1.35129   3
  -5  -1   8 2.32663 2.91949   2
  -5   1   8 7.08060 4.71259   4
   5   1  -8 6.48581 2.06533   3
   5   1  -8 -0.3680 5.29405   4
   5   1  -8 -0.1720 2.18338   2
  -5   1   8 2.51883 3.07066   2
   5   1  -8 7.60720 2.60990   3
   3  -1  -8 -0.4333 2.52414   2
  -3  -1   8 6.32164 5.16653   4
  -3  -1   8 1.45514 2.13393   3
   3  -1  -8 1.97948 3.82090   4
  -3  -1   8 3.15550 3.09728   2
   3   1  -8 0.32773 2.50470   3
   3   1  -8 0.27537 2.41713   2
  -3   1   8 7.73670 4.35632   4
  -3   1   8 -4.5004 2.98044   2
   3   1  -8 -5.8367 4.17811   4
  -1  -1   8 98.0610 8.85017   4
  -1  -1   8 117.129 8.42307   2
  -1  -1   8 117.981 7.71947   3
   1  -1  -8 103.150 7.77457   2
   1  -1  -8 112.202 6.56609   3
   1  -1  -8 97.7225 9.13635   4
  -1   1   8 109.253 6.65905   3
   1   1  -8 101.818 7.93095   3
   1   1  -8 109.719 7.74342   2
  -1   1   8 102.830 8.94731   4
   1   1  -8 120.994 9.35213   4
   1  -1   8 495.378 27.7910   4
  -1  -1  -8 477.051 26.4602   3
  -1  -1  -8 464.758 27.0438   2
   1  -1   8 477.126 26.9658   3
  -1   1  -8 448.058 26.9933   2
   1   1   8 486.332 27.6791   4
   1   1   8 493.234 26.5354   3
  -1   1  -8 464.526 27.4048   4
  -1   1  -8 472.500 27.6525   3
   3  -1   8 43.8968 6.10154   4
   3  -1   8 42.7652 5.76072   3
  -3  -1  -8 51.7267 5.57457   2
   3   1   8 48.5264 6.22799   4
   3   1   8 53.0876 5.68599   3
  -3   1  -8 46.8321 6.57855   3
  -3   1  -8 63.4898 6.44894   2
  -3   1  -8 56.4713 5.82425   4
  -5  -1  -8 181.420 12.1744   2
   5  -1   8 181.437 12.6830   4
   5  -1   8 158.261 12.1445   4
  -5  -1  -8 165.963 12.9704   3
   5  -1   8 170.825 12.9875   3
  -5   1  -8 192.700 12.4969   2
   5   1   8 196.162 12.8233   4
   5   1   8 172.384 12.7075   3
   7  -1   8 361.886 21.0172   4
  -7  -1  -8 319.760 21.2130   2
   7  -1   8 366.140 22.3557   3
   7   1   8 345.412 21.5018   4
   7   1   8 349.974 22.2533   3
  -7   1  -8 313.748 21.1118   2
  -9  -1  -8 130.289 11.0207   2
   9  -1   8 120.676 10.0385   4
   9  -1   8 113.221 11.7792   3
  -9   1  -8 120.619 10.9963   2
   9   1   8 159.026 12.9732   3
   9   1   8 98.5975 10.1986   4
  11  -1   8 73.2574 11.3612   3
 -11  -1  -8 88.4125 9.48701   2
  11  -1   8 93.7612 8.81842   4
  11   1   8 96.6821 11.4702   3
  11   1   8 77.1366 9.30318   4
 -11   1  -8 97.7689 11.0497   2
  13   1   8 48.2233 8.30543   4
 -13   1  -8 68.6632 9.13966   2
  13   1   8 51.3734 11.5165   3
 -15  -1  -8 84.2226 10.4070   2
  15  -1   8 72.5159 13.1010   3
 -15   1  -8 61.9948 10.3662   2
  15   1   8 61.2231 12.7640   3
 -17  -1  -8 112.702 12.7966   2
  17  -1   8 78.5414 14.9173   3
 -17   1  -8 63.9856 12.1803   2
  17   1   8 80.3674 15.3925   3
  19  -1   8 23.8864 12.9699   3
 -19  -1  -8 2.88600 10.2751   2
 -19   1  -8 20.0839 11.8373   2
  19   1   8 44.5054 14.9095   3
  26  -2  -8 3.07212 13.8215   3
 -26   2   8 -7.9609 10.6539   2
  26   2  -8 2.77239 12.5189   3
 -24  -2   8 15.2474 9.28506   4
  24  -2  -8 12.1088 10.9825   3
  24   2  -8 5.82264 11.5581   3
 -24   2   8 4.27684 8.90290   2
 -22  -2   8 -1.1769 7.91640   4
  22  -2  -8 -5.6692 9.16580   3
 -22  -2   8 -9.6531 6.42588   2
  22   2  -8 11.7752 11.0827   3
 -22   2   8 5.26485 7.67844   2
 -20  -2   8 27.2765 7.63054   4
  20  -2  -8 39.0812 10.6292   3
 -20  -2   8 31.9346 6.50087   2
 -20   2   8 48.0874 7.86885   4
 -20   2   8 43.4702 9.18005   2
  20   2  -8 29.5140 10.5074   3
 -18  -2   8 -6.2048 6.85893   4
 -18  -2   8 1.18340 4.60955   2
 -18   2   8 6.46757 7.00752   4
 -18   2   8 8.19334 5.79117   2
  18   2  -8 -1.6883 7.92866   3
 -16  -2   8 65.9388 9.38278   4
  16  -2  -8 69.8735 9.84816   3
  16  -2  -8 55.5479 6.85480   2
 -16  -2   8 74.3718 6.61777   2
 -16   2   8 69.1084 9.06013   4
  16   2  -8 52.7685 8.63091   3
  14  -2  -8 25.2032 5.17982   2
 -14  -2   8 30.5810 7.01802   4
  14  -2  -8 14.7290 6.20280   3
 -14  -2   8 15.4493 4.40383   2
  14   2  -8 19.3722 6.04422   3
  14   2  -8 14.2300 4.10360   2
 -14   2   8 26.4834 7.46553   4
  12  -2  -8 72.1489 7.57292   3
  12  -2  -8 59.5719 6.40587   2
 -12  -2   8 70.0534 5.88920   2
 -12  -2   8 65.2403 8.26084   4
  12   2  -8 69.5992 5.57464   2
 -12   2   8 73.4832 9.05897   4
  12   2  -8 86.1520 8.10236   3
 -10  -2   8 -4.1499 5.41830   4
  10  -2  -8 6.06172 3.61312   3
  10  -2  -8 7.66713 3.13375   2
  10   2  -8 3.63618 2.32270   2
  10   2  -8 -0.4111 3.48705   3
 -10   2   8 -5.0480 5.57315   4
 -10   2   8 -1.8819 3.99862   3
  -8  -2   8 418.227 24.3253   4
   8  -2  -8 402.363 22.5742   3
  -8  -2   8 375.324 22.9701   3
  -8  -2   8 396.502 22.4412   2
   8  -2  -8 398.147 22.8923   2
   8   2  -8 412.663 22.3781   2
  -8   2   8 406.695 22.5945   3
  -8   2   8 385.840 24.0741   4
  -6  -2   8 94.2504 6.82429   2
   6  -2  -8 74.1877 5.49072   3
  -6  -2   8 109.943 8.97425   4
   6  -2  -8 98.5888 7.30352   2
  -6   2   8 85.3721 8.15433   4
   6   2  -8 88.3703 6.84337   3
   6   2  -8 86.8311 6.59770   3
  -6   2   8 81.9643 5.62520   3
   6   2  -8 71.9863 5.97692   2
   4  -2  -8 267.617 16.2411   2
  -4  -2   8 262.977 16.1329   2
  -4  -2   8 283.811 17.5628   4
   4   2  -8 279.080 16.2381   3
   4   2  -8 285.760 16.5404   3
   4   2  -8 272.891 16.0525   2
  -4   2   8 280.859 17.4640   4
   2  -2  -8 347.610 19.9267   2
  -2  -2   8 331.316 19.8554   2
  -2  -2   8 363.649 20.0236   3
   2   2  -8 312.842 21.3337   4
  -2   2   8 371.593 21.2574   4
   2   2  -8 330.559 20.2198   3
   2   2  -8 350.120 19.8120   2
   0  -2  -8 -0.2847 2.94259   2
   0  -2   8 -4.8449 3.27594   3
   0  -2   8 12.3784 4.89860   4
   0  -2  -8 0.80524 1.70486   3
   0   2  -8 -0.2033 2.92456   2
   0   2  -8 3.35099 4.27160   3
   0   2   8 4.08083 2.37196   3
   0   2  -8 -2.3509 4.40051   4
   0   2   8 -1.3971 4.08311   4
  -2  -2  -8 2.90896 2.73437   3
  -2  -2  -8 6.56433 3.47508   2
   2  -2   8 15.5434 5.10452   4
   2  -2   8 8.04527 4.53787   3
  -2   2  -8 8.01604 4.42175   4
  -2   2  -8 8.56088 4.01224   2
   2   2   8 7.13826 3.52529   3
   2   2   8 6.34363 4.55146   4
   4  -2   8 11.3685 5.34501   3
  -4  -2  -8 0.66518 3.88760   3
   4  -2   8 8.34611 4.81953   4
  -4  -2  -8 9.16253 4.08608   2
  -4   2  -8 3.34234 4.35057   2
  -4   2  -8 5.12524 4.06907   4
   4   2   8 3.96684 4.57971   4
   4   2   8 12.2780 4.39213   3
   6  -2   8 23.6310 7.00091   3
  -6  -2  -8 17.3161 5.05556   2
   6  -2   8 27.5780 5.66475   4
   6   2   8 26.0644 5.77710   4
  -6   2  -8 27.6546 5.74317   2
   6   2   8 23.8572 6.08579   3
   8  -2   8 6.72293 6.80000   3
  -8  -2  -8 -1.5862 4.83606   2
   8  -2   8 9.06085 5.20956   4
   8   2   8 -1.5415 6.58663   3
   8   2   8 -11.406 5.27697   4
  -8   2  -8 -8.7861 5.09158   2
 -10  -2  -8 58.2053 7.90127   2
  10  -2   8 34.3414 6.87906   4
  10  -2   8 40.7717 9.79982   3
  10   2   8 52.3173 7.99300   4
 -10   2  -8 47.4622 8.40546   2
  10   2   8 100.028 9.55417   3
  12  -2   8 1.99307 7.93850   3
 -12  -2  -8 16.1042 7.15759   2
  12   2   8 13.8435 9.60546   3
  12   2   8 18.1574 7.17142   4
 -12   2  -8 5.82235 7.91688   2
 -14  -2  -8 22.0340 8.14721   2
  14  -2   8 40.6723 11.0394   3
  14   2   8 28.8853 7.92616   4
  14   2   8 30.4051 11.6986   3
 -14   2  -8 5.84442 7.70530   2
  16  -2   8 51.0492 12.6298   3
 -16  -2  -8 36.0605 9.77062   2
  16   2   8 32.0276 13.1571   3
 -16   2  -8 40.9344 10.7865   2
 -18  -2  -8 -4.3112 9.63205   2
  18  -2   8 -5.3584 11.4005   3
 -18   2  -8 8.76611 10.5453   2
  18   2   8 -3.8196 12.4935   3
 -20  -2  -8 14.4731 11.3564   2
  20  -2   8 6.92259 14.7172   3
  20   2   8 -17.099 15.8327   3
 -20   2  -8 -13.741 12.1581   2
  27  -3  -8 34.4381 14.8915   3
 -27   3   8 37.1857 13.2599   2
  25  -3  -8 10.9884 13.2820   3
 -25  -3   8 -2.5920 10.0041   4
  25   3  -8 -10.706 12.5209   3
 -25   3   8 0.55356 10.2285   2
 -23  -3   8 14.3849 9.38041   4
  23  -3  -8 7.33910 11.3068   3
  23   3  -8 1.22654 10.9170   3
 -23   3   8 10.4052 9.30148   2
  21  -3  -8 186.644 17.8216   3
 -21  -3   8 162.702 15.4843   4
 -21   3   8 165.958 15.0648   2
  21   3  -8 217.125 18.8858   3
 -19  -3   8 151.930 11.5020   2
  19  -3  -8 160.890 14.7465   3
 -19  -3   8 146.272 14.0716   4
 -19   3   8 155.995 12.9031   2
 -19   3   8 145.478 12.6378   4
  19   3  -8 129.438 14.6993   3
  17  -3  -8 3.87103 4.89230   2
  17  -3  -8 0.50539 7.67186   3
 -17  -3   8 1.57607 3.85637   2
 -17  -3   8 3.28552 6.68896   4
 -17   3   8 3.06807 7.16923   4
  17   3  -8 6.88474 7.04857   3
 -15  -3   8 148.110 13.6745   4
 -15  -3   8 176.742 10.9598   2
  15  -3  -8 163.038 13.6633   3
  15  -3  -8 176.847 12.9287   2
  15   3  -8 169.663 14.2148   3
 -15   3   8 156.906 13.8815   4
 -13  -3   8 292.648 17.2621   2
  13  -3  -8 293.144 19.5571   3
 -13  -3   8 294.754 19.8429   4
  13  -3  -8 291.936 18.5426   2
 -13   3   8 302.358 20.2986   4
  13   3  -8 288.765 16.9813   2
  13   3  -8 327.739 19.4078   3
  11  -3  -8 193.515 13.3971   3
  11  -3  -8 181.732 12.5766   2
 -11  -3   8 189.076 11.6447   2
 -11  -3   8 197.482 14.2807   4
 -11   3   8 163.669 13.9033   3
  11   3  -8 203.205 11.4548   2
 -11   3   8 209.310 14.9271   4
  11   3  -8 202.265 13.3932   3
  -9  -3   8 75.1487 5.62429   2
  -9  -3   8 73.0193 8.40865   4
   9  -3  -8 74.9952 6.51045   3
   9  -3  -8 65.9603 6.83008   2
   9   3  -8 73.4695 5.47586   2
  -9   3   8 85.5825 8.00383   3
  -9   3   8 79.6310 8.45668   4
   9   3  -8 80.8555 7.45632   3
   7  -3  -8 574.174 32.2744   2
   7  -3  -8 576.898 31.6376   3
  -7  -3   8 561.822 33.1831   4
  -7   3   8 572.127 33.4231   4
   7   3  -8 577.074 32.6057   3
  -7   3   8 564.294 31.7878   3
   7   3  -8 582.111 31.5138   2
   5  -3  -8 339.455 19.0158   3
   5  -3  -8 365.788 20.1548   2
  -5  -3   8 349.922 20.0031   2
  -5  -3   8 330.130 21.0443   4
   5   3  -8 340.229 19.5001   2
   5   3  -8 343.000 20.4227   3
  -5   3   8 328.248 19.2476   3
  -5   3   8 375.278 21.5515   4
  -3  -3   8 232.657 14.3634   2
  -3  -3   8 254.828 15.0027   3
   3  -3  -8 254.993 14.5628   2
  -3  -3   8 240.077 15.4879   4
  -3   3   8 247.544 13.3257   3
  -3   3   8 219.596 13.4419   3
  -3   3   8 237.894 15.6534   4
   3   3  -8 226.144 14.3028   2
  -1  -3   8 36.4616 5.00691   3
  -1  -3   8 29.5274 5.68862   4
   1  -3  -8 25.2148 4.16211   2
  -1   3   8 26.0807 3.00476   3
  -1   3   8 29.4378 3.08333   3
  -1   3   8 39.7382 5.93291   4
   1   3  -8 19.3160 6.06675   4
   1   3  -8 25.8482 4.44103   2
   1  -3   8 3.79007 4.45620   4
  -1  -3  -8 1.02641 2.56594   3
   1  -3   8 8.41750 4.66268   3
  -1  -3  -8 1.17661 3.15485   2
  -1   3  -8 -6.5752 5.15248   4
  -1   3  -8 0.88901 3.94265   2
   1   3   8 2.96873 3.04916   3
   1   3   8 -4.0195 4.09968   4
   3  -3   8 892.261 49.3048   3
  -3  -3  -8 898.910 48.5691   2
   3  -3   8 855.909 48.5711   4
  -3  -3  -8 882.305 48.1993   3
  -3  -3  -8 876.572 49.0520   4
   3   3   8 862.658 48.4700   3
  -3   3  -8 866.184 48.7787   4
  -3   3  -8 882.995 48.8294   2
  -5  -3  -8 341.535 20.6018   4
   5  -3   8 333.090 21.2478   3
  -5  -3  -8 304.460 19.8971   2
   5  -3   8 352.895 19.9519   4
   5   3   8 320.746 20.5979   3
  -5   3  -8 359.280 20.7923   2
  -5   3  -8 309.413 20.3457   4
  -7  -3  -8 16.6694 5.58752   4
   7  -3   8 6.75014 7.48879   3
   7  -3   8 21.3138 4.82265   4
  -7  -3  -8 33.6058 6.11644   2
   7   3   8 16.4173 6.67786   3
  -7   3  -8 15.6742 6.61075   2
  -9  -3  -8 74.3229 8.60351   2
  -9  -3  -8 76.6096 8.38894   4
   9  -3   8 81.5843 10.4738   3
   9   3   8 81.9631 10.5864   3
  -9   3  -8 57.8447 8.60207   2
 -11  -3  -8 120.743 11.7233   4
  11  -3   8 131.024 14.3817   3
 -11  -3  -8 127.945 11.4203   2
 -11   3  -8 126.893 12.4308   2
  11   3   8 128.150 13.6258   3
 -13  -3  -8 243.469 17.8644   4
  13  -3   8 233.397 20.4115   3
 -13  -3  -8 240.054 17.2531   2
 -13   3  -8 262.793 19.7511   2
  13   3   8 238.072 19.9257   3
  15  -3   8 27.3153 10.5759   3
 -15  -3  -8 23.9550 8.22473   2
 -15  -3  -8 9.78243 8.00895   4
 -15   3  -8 27.0004 9.11508   2
 -17  -3  -8 1.00875 9.02578   2
  17  -3   8 -10.611 11.9076   3
 -17   3  -8 -4.5592 9.31738   2
  17   3   8 31.7928 14.0316   3
 -19  -3  -8 33.4004 11.5769   2
  19  -3   8 43.0137 14.1095   3
  19   3   8 16.0872 14.2519   3
 -19   3  -8 42.2285 13.2378   2
 -26  -4   8 82.9368 14.7427   4
  26  -4  -8 69.9191 16.8711   3
  26   4  -8 87.1896 19.0827   3
 -26   4   8 125.597 15.8538   2
  24  -4  -8 114.608 16.7882   3
 -24  -4   8 112.793 14.8898   4
  24   4  -8 120.647 17.3776   3
 -24   4   8 145.879 14.8594   2
 -22  -4   8 90.7361 13.0296   4
  22  -4  -8 77.7149 13.8425   3
  22   4  -8 87.5621 15.4242   3
 -22   4   8 114.201 12.8996   2
  20  -4  -8 36.3292 10.9521   3
 -20  -4   8 51.6868 9.78314   4
  20   4  -8 44.5713 10.8206   3
 -20   4   8 36.1067 8.49074   2
  18  -4  -8 486.681 31.6901   3
 -18   4   8 544.817 31.2717   2
  18   4  -8 465.157 31.6116   3
  16  -4  -8 34.7046 6.06949   2
  16  -4  -8 35.9858 8.60238   3
 -16  -4   8 21.6431 7.76431   4
  16   4  -8 25.0644 8.46956   3
 -16   4   8 37.0205 8.76327   4
  14  -4  -8 143.874 11.0643   2
 -14  -4   8 138.476 8.76948   2
  14  -4  -8 131.046 12.3372   3
 -14  -4   8 132.462 12.7229   4
 -14   4   8 133.902 12.8392   4
  14   4  -8 155.931 13.2148   3
 -12  -4   8 124.240 12.1051   4
  12  -4  -8 120.491 11.0988   3
  12  -4  -8 139.210 10.6154   2
 -12   4   8 169.081 12.9325   4
  12   4  -8 138.203 11.8440   3
  12   4  -8 141.722 8.35279   2
 -10  -4   8 101.829 10.8019   4
  10  -4  -8 134.491 9.64969   2
  10  -4  -8 121.108 9.52395   3
 -10  -4   8 110.527 7.53975   2
  10   4  -8 114.460 10.3496   3
 -10   4   8 102.745 10.7687   3
  10   4  -8 114.699 7.21243   2
 -10   4   8 144.952 11.5048   4
   8  -4  -8 882.207 49.8275   2
   8  -4  -8 907.559 49.5857   3
  -8  -4   8 908.739 48.8472   2
  -8  -4   8 895.586 51.0274   4
  -8   4   8 916.612 51.0147   4
   8   4  -8 887.007 48.7546   2
   8   4  -8 923.696 50.4834   3
  -8   4   8 890.732 49.8321   3
   6  -4  -8 633.120 34.5128   2
  -6  -4   8 647.762 35.7015   4
  -6  -4   8 594.888 33.7307   2
   6  -4  -8 635.362 33.9345   3
   6   4  -8 633.374 33.7224   2
  -6   4   8 548.587 34.1611   3
  -6   4   8 628.055 35.7675   4
   6   4  -8 598.443 35.0203   3
   4  -4  -8 5.04068 3.57442   2
  -4  -4   8 2.35860 3.18343   2
  -4  -4   8 2.20979 5.11731   4
   4   4  -8 -1.1726 2.81043   2
  -4   4   8 3.22326 3.31868   3
  -4   4   8 2.56626 2.28873   3
   4   4  -8 -0.5532 3.94105   3
  -4   4   8 -0.5536 5.00008   4
  -2  -4   8 64.2357 7.64570   4
  -2  -4   8 75.8610 7.79830   3
   2  -4  -8 107.330 7.54623   2
  -2  -4   8 60.9958 6.56242   2
   2   4  -8 90.4062 7.37664   2
  -2   4   8 71.6295 5.76110   3
  -2   4   8 84.4468 6.26493   3
  -2   4   8 78.7637 8.48225   4
   0  -4  -8 529.048 30.8935   4
   0  -4   8 534.264 30.6792   4
   0  -4  -8 538.232 30.2193   2
   0  -4   8 546.569 30.9653   3
   0   4   8 509.663 29.6418   3
   0   4   8 514.163 29.6195   3
   0   4  -8 562.489 30.3299   2
  -2  -4  -8 885.641 47.7290   2
   2  -4   8 834.425 48.7295   3
  -2  -4  -8 904.349 48.6224   4
  -2  -4  -8 789.653 47.2877   3
   2   4   8 892.626 47.5707   3
  -2   4  -8 874.290 48.0441   2
  -2   4  -8 847.613 48.5767   4
  -4  -4  -8 54.5685 6.13808   2
  -4  -4  -8 55.0558 7.73088   4
   4  -4   8 42.7042 8.26963   3
   4  -4   8 57.4874 6.15256   4
   4   4   8 63.5496 7.03523   3
  -4   4  -8 36.6772 7.13686   4
  -4   4  -8 57.1141 6.98326   2
   6  -4   8 314.063 21.7313   3
  -6  -4  -8 311.470 20.6938   4
   6  -4   8 335.345 19.1904   4
  -6  -4  -8 305.301 20.0150   2
  -6   4  -8 331.769 21.1880   2
   6   4   8 342.489 20.9417   3
  -8  -4  -8 737.856 42.0347   2
  -8  -4  -8 753.395 42.7607   4
   8  -4   8 709.206 44.0349   3
  -8   4  -8 749.322 42.8057   2
   8   4   8 748.914 43.1349   3
 -10  -4  -8 219.866 16.2802   4
 -10  -4  -8 225.006 15.9094   2
  10   4   8 211.799 17.5272   3
 -10   4  -8 249.389 17.9706   2
 -12  -4  -8 -2.7859 6.49445   4
  12  -4   8 0.63842 9.45117   3
 -12  -4  -8 4.32865 6.51243   2
  12   4   8 -9.0665 9.29205   3
 -12   4  -8 -2.7987 7.00091   2
  14  -4   8 192.379 19.6001   3
 -14  -4  -8 209.223 16.8497   4
 -14   4  -8 201.564 17.8168   2
  14   4   8 230.184 19.7081   3
 -16  -4  -8 111.356 12.1859   2
 -16  -4  -8 87.5757 11.8453   4
  16  -4   8 93.0143 14.7757   3
  16   4   8 106.106 16.2561   3
 -16   4  -8 61.8309 12.3307   2
  18  -4   8 55.3787 15.6284   3
 -18  -4  -8 35.4554 16.2285   2
 -18   4  -8 51.8581 12.5896   2
 -25  -5   8 17.5360 12.0421   4
  25  -5  -8 0.11876 12.8259   3
  25   5  -8 18.6549 16.1774   3
 -25   5   8 6.04045 10.8435   2
  23  -5  -8 10.1431 11.5008   3
 -23  -5   8 2.56319 9.59104   4
  23   5  -8 10.3086 12.2752   3
 -23   5   8 4.97055 9.39623   2
  21  -5  -8 42.5493 12.0068   3
 -21  -5   8 51.9495 11.2521   4
 -21   5   8 39.2088 10.4414   2
  21   5  -8 39.8990 12.8405   3
 -19  -5   8 169.477 16.5176   4
  19  -5  -8 185.005 17.8031   3
  19   5  -8 225.971 19.0718   3
 -19   5   8 206.813 16.5905   2
  17  -5  -8 1.51687 8.17950   3
 -17  -5   8 -4.7579 7.24526   4
 -17   5   8 -5.1795 7.34828   2
  17   5  -8 -0.9182 8.47821   3
  15  -5  -8 -10.068 6.92237   3
 -15  -5   8 -4.2289 6.76542   4
  15  -5  -8 3.91500 6.08387   2
 -15   5   8 -3.9541 7.89934   4
  15   5  -8 4.21268 7.15647   3
  13  -5  -8 253.467 17.1343   2
  13  -5  -8 271.894 18.4893   3
 -13  -5   8 253.704 19.0168   4
 -13   5   8 255.966 19.2430   4
  13   5  -8 280.362 18.6839   3
  11  -5  -8 220.889 15.4242   3
  11  -5  -8 208.907 15.0443   2
 -11  -5   8 221.396 16.6450   4
 -11   5   8 211.284 16.5884   4
  11   5  -8 232.592 16.3876   3
   9  -5  -8 15.4482 5.29335   2
  -9  -5   8 8.85465 7.05351   4
   9  -5  -8 28.8561 5.27457   3
   9   5  -8 22.8865 5.65427   3
  -9   5   8 19.7692 6.87419   4
   9   5  -8 14.9854 2.10518   2
  -7  -5   8 96.9364 7.08844   2
  -7  -5   8 113.260 10.3617   4
   7  -5  -8 108.582 8.90697   2
   7  -5  -8 119.339 9.52135   3
  -7   5   8 97.4091 9.30102   3
   7   5  -8 97.0565 9.32543   3
  -7   5   8 104.792 9.98268   4
   7   5  -8 90.4809 6.84071   2
   5  -5  -8 589.042 31.9848   3
   5  -5  -8 595.655 32.6288   2
  -5  -5   8 579.348 33.5705   4
  -5  -5   8 544.573 32.0026   2
  -5   5   8 582.078 33.9950   4
   5   5  -8 565.492 33.4035   3
   5   5  -8 581.280 31.7046   2
  -5   5   8 539.256 32.5483   3
  -3  -5   8 2.55105 3.91954   2
  -3  -5   8 1.43462 5.45932   4
  -3  -5   8 4.01482 4.85267   3
   3  -5  -8 -0.7198 3.89985   2
   3   5  -8 -4.7037 3.33363   2
  -3   5   8 -4.6797 4.42119   3
  -3   5   8 -3.4734 5.18107   4
  -3   5   8 1.23098 2.98059   3
  -1  -5   8 1.49833 4.99189   4
   1  -5  -8 10.9603 5.92000   4
   1  -5  -8 10.6765 4.38383   2
  -1  -5   8 8.00859 5.68605   3
  -1   5   8 5.55087 4.61318   3
   1   5  -8 6.41643 4.18937   2
  -1   5   8 11.6881 3.42225   3
  -1  -5  -8 236.728 14.1971   2
   1  -5   8 212.028 15.4359   3
  -1  -5  -8 228.124 15.7835   4
   1  -5   8 221.641 14.8856   4
   1   5   8 201.595 14.4426   3
   1   5   8 203.127 14.3617   3
  -1   5  -8 204.879 14.0889   2
  -3  -5  -8 65.9351 8.77501   4
   3  -5   8 81.9306 7.86284   4
  -3  -5  -8 84.8570 7.68879   2
   3  -5   8 68.1392 9.11922   3
   3   5   8 90.5594 8.16428   3
  -3   5  -8 76.8755 8.42853   2
  -5  -5  -8 116.182 11.3037   4
   5  -5   8 115.581 9.02878   4
   5  -5   8 118.838 11.9825   3
  -5  -5  -8 104.230 9.44001   2
  -5   5  -8 121.557 10.6259   2
   5   5   8 110.845 10.3096   3
  -7  -5  -8 192.691 13.6989   2
   7  -5   8 197.220 16.4772   3
  -7  -5  -8 195.942 14.8459   4
   7   5   8 184.692 14.9866   3
  -7   5  -8 173.058 14.4167   2
   9  -5   8 18.2315 8.58086   3
  -9  -5  -8 4.20181 7.13825   4
  -9  -5  -8 14.3491 5.83979   2
  -9   5  -8 10.4899 6.77403   2
   9   5   8 10.2224 8.21433   3
 -11  -5  -8 23.4539 8.00270   4
  11  -5   8 9.02707 9.89490   3
 -11  -5  -8 18.0016 6.80433   2
 -11   5  -8 10.0992 8.60946   2
  11   5   8 31.4664 10.3197   3
 -13  -5  -8 176.308 16.3348   4
  13  -5   8 227.990 20.4434   3
 -13  -5  -8 242.016 16.5672   2
  13   5   8 213.780 19.6991   3
 -13   5  -8 197.682 17.2451   2
 -15  -5  -8 4.95695 8.39433   2
 -15  -5  -8 8.22747 8.99263   4
  15  -5   8 4.30477 11.0608   3
  15   5   8 -6.9013 10.9451   3
 -15   5  -8 -0.8597 9.86421   2
  17  -5   8 -1.1854 12.1069   3
 -17  -5  -8 -10.360 9.94313   4
 -17   5  -8 -4.0759 10.1158   2
  17   5   8 -0.7399 12.7790   3
  24  -6  -8 6.38697 13.9556   3
 -24  -6   8 -6.1740 10.7811   4
 -22  -6   8 2.86574 10.7471   4
  22  -6  -8 11.3008 12.4930   3
 -22   6   8 -3.7619 9.31149   2
  22   6  -8 -16.097 12.5245   3
 -20  -6   8 54.1058 11.2562   4
  20  -6  -8 41.8507 11.7364   3
  20   6  -8 47.7511 13.0111   3
 -20   6   8 50.7349 10.3006   2
 -18  -6   8 22.4358 9.79292   4
  18  -6  -8 9.41203 9.42489   3
 -18   6   8 6.07395 8.71707   2
  18   6  -8 16.7657 9.54278   3
  16  -6  -8 82.2530 11.3608   3
 -16  -6   8 99.9067 12.6877   4
  16  -6  -8 88.1378 9.82706   2
  16   6  -8 75.6443 11.6733   3
 -14  -6   8 14.6027 7.68885   4
  14  -6  -8 23.2488 5.83666   2
  14  -6  -8 22.0085 7.87698   3
  14   6  -8 8.10034 7.90857   3
 -14   6   8 3.76582 7.98904   4
  12  -6  -8 31.3135 6.60872   2
  12  -6  -8 35.8920 7.52114   3
 -12  -6   8 52.2017 9.24004   4
  12   6  -8 24.5930 7.23081   3
 -12   6   8 35.2377 8.75926   4
  10  -6  -8 -5.0091 5.25943   3
  10  -6  -8 5.19377 4.72042   2
 -10  -6   8 2.53116 6.60424   4
  10   6  -8 4.13386 5.83106   3
 -10   6   8 -0.1261 7.04772   4
   8  -6  -8 22.2950 5.71405   3
  -8  -6   8 27.0848 8.36696   4
   8  -6  -8 33.5665 5.53800   2
   8   6  -8 30.2130 7.35529   3
  -8   6   8 24.6579 6.80385   4
   6  -6  -8 120.761 9.90773   2
  -6  -6   8 137.406 12.2199   4
   6  -6  -8 128.014 9.85544   3
   6   6  -8 106.930 8.19498   2
   6   6  -8 98.3611 10.8125   3
  -6   6   8 131.750 12.1416   4
   4  -6  -8 -1.5933 3.86079   2
  -4  -6   8 -4.6261 6.04421   4
   4   6  -8 -5.9597 5.09346   3
   4   6  -8 -5.8394 3.56353   2
  -4   6   8 -0.0451 3.99042   3
  -4   6   8 -5.6895 5.73896   4
  -2  -6   8 12.7772 6.12434   4
  -2  -6   8 7.42348 6.54834   3
   2  -6  -8 12.8695 6.55281   4
   2  -6  -8 19.3752 4.96775   2
  -2   6   8 10.5384 4.24994   3
   2   6  -8 9.56367 4.68946   2
   0  -6  -8 40.4616 7.81566   4
   0  -6  -8 50.1082 6.19333   2
   0  -6   8 20.1325 7.04258   3
   0  -6   8 48.7773 7.30548   4
   0   6   8 38.9015 5.73251   3
   0   6  -8 52.4100 6.64259   2
  -2  -6  -8 5.85357 6.04651   4
  -2  -6  -8 4.94603 4.49790   2
   2  -6   8 1.21305 6.30535   3
   2  -6   8 8.14104 5.46946   4
   2   6   8 7.19876 4.78223   3
  -2   6  -8 0.57712 5.49074   2
   4  -6   8 14.2012 5.22340   4
  -4  -6  -8 13.0435 6.46377   4
  -4  -6  -8 15.0037 5.07599   2
   4  -6   8 8.46283 7.25161   3
  -4   6  -8 35.9270 6.99671   2
   4   6   8 17.1192 6.22839   3
  -6  -6  -8 34.6563 7.64935   4
  -6  -6  -8 53.8064 6.84031   2
   6  -6   8 24.2532 10.0339   3
   6   6   8 42.4706 8.28269   3
  -6   6  -8 53.0271 8.45365   2
  -8  -6  -8 -6.0521 7.01479   4
  -8  -6  -8 -5.0128 5.36361   2
   8  -6   8 5.84497 8.80799   3
   8   6   8 -3.7150 7.82853   3
  -8   6  -8 0.82486 7.22411   2
  10  -6   8 0.82219 9.52996   3
 -10  -6  -8 6.36548 6.50535   2
 -10  -6  -8 -0.9857 7.61551   4
 -10   6  -8 -13.232 7.92585   2
  10   6   8 -9.6708 9.02122   3
 -12  -6  -8 30.5891 8.50022   2
  12  -6   8 26.4157 11.5705   3
 -12  -6  -8 33.6254 8.86566   4
 -12   6  -8 17.6205 8.94680   2
  12   6   8 21.9036 11.5510   3
  14  -6   8 2.32541 10.7907   3
 -14  -6  -8 2.33824 8.77222   4
  14   6   8 10.6939 12.7136   3
 -14   6  -8 7.98748 9.35749   2
  16  -6   8 18.9539 14.1516   3
 -16  -6  -8 42.4548 11.9353   4
  16   6   8 25.5255 15.3315   3
 -16   6  -8 27.2763 11.2672   2
  23  -7  -8 41.5472 14.7431   3
 -23  -7   8 34.5994 14.3160   4
  23   7  -8 49.5685 16.9003   3
 -23   7   8 51.5361 14.1580   2
  21  -7  -8 0.81510 11.1386   3
 -21  -7   8 -4.3499 10.3380   4
 -21   7   8 8.95829 9.79204   2
  21   7  -8 -9.6151 11.6402   3
  19  -7  -8 76.7735 13.1234   3
 -19  -7   8 37.1674 11.0461   4
  19   7  -8 56.1142 12.9026   3
 -19   7   8 43.8239 11.5246   2
  17  -7  -8 30.8983 10.5091   3
 -17  -7   8 36.2076 11.0661   4
 -17   7   8 37.6036 10.1546   2
  17   7  -8 25.8612 9.92761   3
  15  -7  -8 12.6751 6.42723   2
  15  -7  -8 14.5497 8.37958   3
 -15  -7   8 25.6167 10.0643   4
  15   7  -8 10.1611 9.26398   3
 -13  -7   8 50.0548 10.3740   4
  13  -7  -8 63.4799 8.88085   2
  13  -7  -8 54.0462 9.41302   3
 -13   7   8 72.3429 10.7223   4
  13   7  -8 71.9611 11.1357   3
  11  -7  -8 9.92947 5.90808   2
 -11  -7   8 9.58529 7.58601   4
  11  -7  -8 5.93767 6.71161   3
 -11   7   8 -2.5070 7.67560   4
  11   7  -8 11.6127 7.83883   3
   9  -7  -8 41.8331 6.57405   2
   9  -7  -8 41.5109 7.46536   3
  -9   7   8 59.7165 9.41246   4
   9   7  -8 54.7887 10.3512   3
  -7  -7   8 278.931 20.3420   4
   7  -7  -8 281.417 18.2707   3
   7  -7  -8 264.294 17.6040   2
   7   7  -8 284.480 19.7045   3
  -7   7   8 275.701 20.1997   4
   5  -7  -8 62.3229 7.10505   2
  -5  -7   8 50.2041 8.98261   4
  -5   7   8 40.9963 8.44049   4
  -5   7   8 51.5471 7.13340   3
   5   7  -8 55.4586 8.93668   3
   5   7  -8 53.0440 6.02084   2
  -3  -7   8 3.22057 6.67597   4
   3  -7  -8 1.75447 6.00126   4
   3  -7  -8 8.42271 4.77639   2
  -3   7   8 -3.2007 4.82208   3
   3   7  -8 1.21048 4.48329   2
   3   7  -8 3.79059 6.18233   3
  -1  -7   8 5.58044 6.32503   4
  -1  -7   8 -2.2981 6.36117   3
   1  -7  -8 -3.6552 4.56805   2
   1  -7  -8 -2.2165 6.17418   4
  -1   7   8 0.59529 4.83008   3
   1   7  -8 -5.0712 4.90288   2
   1  -7   8 162.149 16.7758   3
   1  -7   8 191.320 13.9829   4
  -1  -7  -8 176.996 12.8676   2
  -1   7  -8 191.057 13.5793   2
   1   7   8 166.552 13.3461   3
  -3  -7  -8 53.2684 9.08942   4
   3  -7   8 73.0272 10.4749   3
  -3  -7  -8 69.5664 7.33535   2
   3  -7   8 59.3965 7.87570   4
   3   7   8 51.1682 8.05140   3
  -3   7  -8 58.2578 8.31642   2
   5  -7   8 15.0529 8.06756   3
  -5  -7  -8 3.22223 6.73318   4
  -5  -7  -8 5.07565 4.94056   2
  -5   7  -8 13.2628 6.93693   2
   5   7   8 4.97423 7.13622   3
  -7  -7  -8 76.8414 11.3366   4
   7  -7   8 96.1411 12.3749   3
  -7  -7  -8 104.049 9.29734   2
   7   7   8 107.158 12.0224   3
  -7   7  -8 106.992 11.5817   2
   9  -7   8 79.2835 12.8618   3
  -9  -7  -8 110.690 12.8098   4
  -9   7  -8 78.0250 11.6515   2
   9   7   8 104.860 13.1903   3
 -11  -7  -8 13.5795 8.16361   4
  11  -7   8 -2.5880 10.6401   3
 -11   7  -8 6.66954 8.50497   2
  11   7   8 -14.483 10.5864   3
 -13  -7  -8 22.4197 10.5497   4
  13  -7   8 48.5418 12.3622   3
 -13   7  -8 40.1620 10.6205   2
  13   7   8 5.47791 12.9114   3
 -15  -7  -8 36.8459 10.8490   4
  15  -7   8 34.1178 13.6175   3
  15   7   8 44.2999 16.0033   3
 -15   7  -8 40.8638 11.9352   2
 -20  -8   8 87.5924 14.7445   4
  20  -8  -8 71.8199 14.7486   3
 -20   8   8 70.2792 13.6378   2
  20   8  -8 76.7981 16.3151   3
  18  -8  -8 47.5796 12.3986   3
 -18  -8   8 57.7716 12.3557   4
 -18   8   8 68.4572 11.8404   2
  18   8  -8 47.7644 12.3678   3
 -16  -8   8 -10.290 8.78569   4
  16  -8  -8 4.97439 9.07646   3
 -16   8   8 2.79949 9.28034   2
  16   8  -8 5.08944 10.8336   3
  14  -8  -8 60.9274 8.55112   2
 -14  -8   8 49.0666 10.6591   4
  14  -8  -8 36.6469 9.97014   3
  14   8  -8 29.0120 10.6693   3
 -14   8   8 50.0077 9.90978   2
  12  -8  -8 92.2064 11.5384   3
 -12  -8   8 116.849 13.7610   4
  12  -8  -8 93.3892 10.2576   2
  12   8  -8 115.123 14.0385   3
 -12   8   8 131.784 13.9383   4
 -10  -8   8 30.4231 9.58953   4
  10  -8  -8 27.4262 7.77074   3
  10  -8  -8 32.3883 7.29253   2
  10   8  -8 24.3363 8.54020   3
 -10   8   8 21.1940 9.13202   4
   8  -8  -8 56.8774 8.21906   2
   8  -8  -8 65.2467 8.89253   3
  -8  -8   8 64.7754 10.6356   4
   8   8  -8 74.0176 11.0995   3
  -8   8   8 80.5261 11.2297   4
   6  -8  -8 154.632 12.5987   2
  -6  -8   8 153.514 14.2856   4
   6   8  -8 163.860 15.0075   3
  -6   8   8 173.193 14.9459   4
  -6   8   8 157.580 13.2435   3
  -4  -8   8 26.7815 7.49243   4
   4  -8  -8 27.9236 6.17371   2
   4  -8  -8 18.1040 7.66568   4
   4   8  -8 30.0400 8.42474   3
  -4   8   8 45.3272 7.83129   3
   2  -8  -8 40.7117 6.40396   2
  -2  -8   8 49.6660 8.69524   3
  -2  -8   8 40.2454 8.04676   4
   2  -8  -8 48.5998 8.48996   4
   2   8  -8 49.7677 9.24581   3
   2   8  -8 35.7585 6.39017   2
  -2   8   8 34.6584 7.46523   3
   0  -8  -8 -4.7311 6.60908   4
   0  -8   8 1.76589 6.67169   4
   0  -8   8 -7.8552 7.42469   3
   0  -8  -8 2.59731 4.93115   2
   0   8  -8 -4.4599 5.79926   2
   0   8   8 -0.7283 5.91838   3
   2  -8   8 167.373 16.4251   3
  -2  -8  -8 223.831 17.7464   4
   2  -8   8 203.125 15.5791   4
  -2  -8  -8 199.849 14.3204   2
   2   8   8 187.192 15.6203   3
  -2   8  -8 196.237 14.9044   2
  -4  -8  -8 87.4661 11.8898   4
  -4  -8  -8 89.8863 9.48182   2
   4  -8   8 115.730 13.9425   3
   4   8   8 112.968 11.7313   3
  -4   8  -8 109.980 11.2722   2
  -6  -8  -8 76.8313 11.0413   4
   6  -8   8 45.4305 10.4196   3
   6   8   8 65.8089 11.0876   3
  -6   8  -8 57.4564 9.93264   2
   8  -8   8 80.7764 12.8037   3
  -8  -8  -8 78.0569 12.3956   4
   8   8   8 62.4195 12.0852   3
  -8   8  -8 90.0349 11.9233   2
 -10  -8  -8 38.0116 10.3409   4
  10  -8   8 37.7382 12.2446   3
  10   8   8 24.8704 11.9636   3
 -10   8  -8 42.6344 11.0876   2
 -12  -8  -8 35.2588 11.0384   4
  12  -8   8 45.9769 14.0013   3
  12   8   8 46.2177 14.8084   3
 -12   8  -8 41.8589 12.2347   2
 -14   8  -8 51.6360 12.7016   2
 -19  -9   8 -14.435 11.2784   4
  19  -9  -8 -8.0472 12.2368   3
  19   9  -8 -8.1195 12.5802   3
 -17  -9   8 28.2666 12.7924   4
  17  -9  -8 25.0765 11.9326   3
  17   9  -8 32.3855 12.6195   3
 -17   9   8 33.7792 12.5560   2
  15  -9  -8 14.8390 10.0196   3
 -15  -9   8 16.3749 11.3404   4
 -15   9   8 22.9591 9.95373   2
  15   9  -8 20.2290 12.2712   3
 -13  -9   8 1.99560 9.31828   4
  13  -9  -8 7.58697 9.04049   3
 -13   9   8 -6.6101 9.28251   2
  13   9  -8 -14.464 10.1704   3
  11  -9  -8 24.5262 7.73615   2
  11  -9  -8 5.89782 8.40384   3
 -11  -9   8 1.14569 10.0038   4
 -11   9   8 7.87902 9.90350   4
  11   9  -8 14.1181 9.36502   3
   9  -9  -8 64.6871 8.64956   2
   9  -9  -8 83.2312 10.2171   3
  -9  -9   8 61.9314 11.6638   4
  -9   9   8 66.9622 11.8069   4
   9   9  -8 59.7680 12.0261   3
  -7  -9   8 17.8865 8.90584   4
   7  -9  -8 21.5112 6.85646   2
  -7   9   8 25.9328 8.43919   3
  -7   9   8 36.0669 10.3038   4
   7   9  -8 8.66642 8.76029   3
   5  -9  -8 2.20864 5.97591   2
  -5  -9   8 -13.240 6.85620   4
   5   9  -8 -2.8369 8.99254   3
  -5   9   8 0.23289 9.37980   4
  -5   9   8 3.91405 8.30188   3
   3  -9  -8 70.4827 8.52248   2
   3  -9  -8 80.6554 11.2789   4
  -3  -9   8 81.8712 10.3024   4
  -3   9   8 91.9746 10.6426   3
   3   9  -8 49.7544 10.8554   3
  -1  -9   8 22.7824 8.51021   4
  -1  -9   8 4.55397 8.81404   3
   1  -9  -8 9.89943 8.60390   4
   1  -9  -8 30.2461 6.59013   2
  -1   9   8 14.1216 7.77614   3
  -1  -9  -8 10.6614 6.03907   2
   1  -9   8 15.0495 7.80789   4
   1  -9   8 11.6108 9.71481   3
  -1  -9  -8 15.4572 9.00608   4
   1   9   8 21.1808 8.29824   3
  -1   9  -8 21.0356 12.5389   2
  -3  -9  -8 63.5128 11.2306   4
   3  -9   8 59.2985 11.8813   3
   3   9   8 47.0518 10.1593   3
  -3   9  -8 45.4301 9.24404   2
  -5  -9  -8 16.9307 8.88113   4
   5  -9   8 3.08440 9.27828   3
   5   9   8 16.5634 9.65330   3
  -5   9  -8 4.87448 8.82996   2
   7  -9   8 28.2828 11.3025   3
  -7  -9  -8 55.7410 10.9776   4
  -7   9  -8 45.7923 10.0776   2
   7   9   8 39.0153 11.8272   3
  -9  -9  -8 46.9785 12.3650   4
   9  -9   8 42.8434 12.5705   3
   9   9   8 33.9556 13.0289   3
  -9   9  -8 32.6058 11.4016   2
 -11  -9  -8 11.4677 10.9581   4
 -11   9  -8 9.16499 10.3149   2
  11   9   8 15.1155 14.7955   3
 -16 -10   8 -6.5514 11.7195   4
  16 -10  -8 12.1328 12.1510   3
 -16  10   8 1.75497 12.2020   2
  16  10  -8 -2.3303 12.4593   3
  14 -10  -8 -14.238 10.7328   3
 -14 -10   8 -6.7562 10.9328   4
 -14  10   8 -0.1337 10.2621   2
  14  10  -8 4.73367 13.1957   3
  12 -10  -8 -0.2073 9.59749   3
 -12 -10   8 10.3694 11.8334   4
 -12  10   8 -3.2012 10.3270   2
  12  10  -8 13.3994 11.2433   3
  10 -10  -8 11.1370 9.29899   3
 -10 -10   8 12.7556 11.5374   4
  10 -10  -8 7.51482 7.77260   2
 -10  10   8 14.6407 11.6395   4
  10  10  -8 4.00406 11.1797   3
   8 -10  -8 14.2037 7.77362   2
  -8 -10   8 16.3082 10.7748   4
  -8  10   8 13.9206 11.1007   4
  -8  10   8 4.54448 9.97286   3
   8  10  -8 19.0483 10.5270   3
  -6 -10   8 12.5281 9.76884   4
   6 -10  -8 6.36059 6.68757   2
  -6  10   8 -4.6127 9.75698   3
  -6  10   8 12.7899 10.9723   4
   6  10  -8 6.66183 9.85266   3
  -4 -10   8 7.21210 8.70792   4
   4 -10  -8 -0.2662 9.23495   4
   4 -10  -8 12.0474 6.73223   2
  -4  10   8 12.2573 9.07947   3
   4  10  -8 4.32657 9.83459   3
   2 -10  -8 3.02214 8.33544   4
   2 -10  -8 5.11778 6.62788   2
  -2 -10   8 3.38227 8.68685   4
  -2  10   8 0.10330 9.00726   3
   2  10  -8 7.10039 9.86240   3
   0 -10   8 1.80284 8.98398   3
   0 -10  -8 11.8233 9.75992   4
   0 -10   8 0.23892 8.41199   4
   0  10  -8 -2.2073 10.0763   3
   0  10   8 -4.6101 8.88378   3
   2 -10   8 27.2059 11.5995   3
  -2 -10  -8 34.3879 11.3358   4
   2  10   8 34.4290 12.3104   3
   4 -10   8 -6.1188 10.6775   3
  -4 -10  -8 2.25719 9.20311   4
   6 -10   8 22.9992 11.1220   3
  -6 -10  -8 11.8559 10.6393   4
  -6  10  -8 2.02009 9.79158   2
  -8  10  -8 10.0474 11.5423   2
 -11 -11   8 -6.5692 11.2550   4
  11  11  -8 -9.9315 13.0688   3
 -11  11   8 -2.7584 11.4851   2
  -9 -11   8 4.25988 10.6549   4
  -9  11   8 24.7466 11.5569   2
   9  11  -8 8.61222 13.2138   3
  -9  11   8 23.1025 15.6362   4
   7 -11  -8 42.9755 9.90535   2
  -7 -11   8 56.5731 13.0450   4
  -7  11   8 47.0234 14.1530   4
   7  11  -8 35.7098 14.1288   3
  -5 -11   8 2.07060 11.0437   4
   5 -11  -8 7.55555 12.5004   2
   5  11  -8 -1.9905 12.1964   3
  -5  11   8 20.1695 12.6870   4
   3 -11  -8 22.6135 11.2715   4
  -3 -11   8 26.0156 11.5366   4
   3  11  -8 36.2232 12.8309   3
   1 -11  -8 -3.8427 10.6558   4
  -1 -11   8 -4.4951 10.3516   4
   1  11  -8 1.89439 11.3961   3
  -1 -11  -8 -0.1189 9.90978   4
  -1  11  -8 9.24765 12.0316   3
  -3 -11  -8 78.8573 16.7314   4
 -28   0   9 -14.585 12.6552   2
  28   0  -9 -15.356 16.5070   3
 -26   0   9 -9.6822 9.53039   2
  26   0  -9 11.4402 12.6802   3
  24   0  -9 -19.137 10.3854   3
 -24   0   9 -5.4606 7.99177   2
 -22   0   9 -5.6816 6.48546   2
 -22   0   9 6.96377 7.71243   4
  22   0  -9 7.01546 10.0431   3
  20   0  -9 7.60614 9.07180   3
 -20   0   9 5.88223 7.34444   4
 -20   0   9 -4.6095 5.84740   2
 -18   0   9 0.56757 7.45058   4
 -18   0   9 -6.6351 5.25894   2
  18   0  -9 5.71835 8.00871   3
  16   0  -9 -3.2919 4.25350   2
 -16   0   9 -1.6442 7.06912   4
  16   0  -9 -0.1799 5.98081   3
 -14   0   9 -15.390 6.40556   4
  14   0  -9 -3.0258 3.49542   2
  14   0  -9 -0.5432 5.17991   3
 -12   0   9 1.47850 6.04377   4
  12   0  -9 2.07832 3.27014   2
  12   0  -9 1.31020 4.23078   3
 -10   0   9 -0.0312 3.31192   3
 -10   0   9 1.72543 6.15101   4
  10   0  -9 -1.0004 3.11669   3
  10   0  -9 -2.0194 2.53759   2
  -8   0   9 5.22955 5.87804   4
  -8   0   9 -1.5549 2.25856   3
   8   0  -9 5.07949 2.59380   3
   8   0  -9 7.95891 2.88738   2
  -6   0   9 -1.0853 3.40468   2
   6   0  -9 2.45549 1.95797   3
   6   0  -9 2.42224 2.62357   2
  -6   0   9 2.04007 4.94994   4
   6   0  -9 0.39529 1.73595   3
  -4   0   9 3.89758 4.91568   4
   4   0  -9 1.17938 1.39565   3
   4   0  -9 -1.9257 2.59239   2
   4   0  -9 -0.5064 1.92003   3
   2   0  -9 7.31436 3.31328   2
   2   0  -9 0.48467 2.30244   3
  -2   0   9 4.16763 5.28264   4
  -2   0   9 -3.3138 1.87839   3
   0   0   9 1.56822 4.80026   4
   0   0  -9 6.31486 3.53101   2
   0   0   9 -2.7981 2.61323   3
  -2   0  -9 -2.8355 3.33923   2
   2   0   9 1.19967 3.65572   3
  -2   0  -9 -0.5018 4.01797   3
   2   0   9 2.51073 4.29179   4
   4   0   9 0.29722 4.69359   3
  -4   0  -9 -4.5618 4.36763   2
   4   0   9 -0.8710 4.73817   4
  -4   0  -9 -9.4189 4.95973   3
   6   0   9 0.78023 5.06598   4
  -6   0  -9 -1.8510 5.53993   2
   6   0   9 -3.7023 5.87672   3
  -8   0  -9 -0.7449 6.21279   2
   8   0   9 -9.2295 6.89231   3
   8   0   9 -2.2347 5.47367   4
  10   0   9 -0.0396 6.09894   4
  10   0   9 -6.7764 8.34793   3
 -10   0  -9 4.95066 6.91698   2
  12   0   9 -0.4822 8.96827   3
 -12   0  -9 0.86092 6.76616   2
  12   0   9 -4.3230 6.42749   4
 -14   0  -9 -10.018 8.09341   2
  14   0   9 -2.1233 9.27740   3
 -16   0  -9 13.6839 8.85815   2
  16   0   9 4.84327 12.4203   3
 -18   0  -9 13.1612 9.82273   2
  18   0   9 -7.7611 13.5972   3
  27  -1  -9 27.2219 16.4242   3
 -27   1   9 50.0860 12.2053   2
  27   1  -9 55.6560 14.8948   3
  25  -1  -9 42.6141 13.5275   3
 -25  -1   9 43.6728 10.2571   2
  25   1  -9 60.7675 14.9600   3
 -25   1   9 49.4497 9.83923   2
 -23  -1   9 40.7230 9.68327   4
  23  -1  -9 34.3317 12.3099   3
 -23  -1   9 35.6842 8.24698   2
  23   1  -9 1.80476 10.1128   3
 -23   1   9 40.3704 8.83030   2
  21  -1  -9 47.9722 11.5901   3
 -21  -1   9 57.7851 8.27792   2
 -21  -1   9 73.1030 10.3712   4
  21   1  -9 79.4852 12.9617   3
 -21   1   9 59.0072 9.61829   2
 -21   1   9 85.6013 9.90428   4
 -19  -1   9 300.378 19.5645   2
  19  -1  -9 366.303 21.5579   3
 -19  -1   9 283.022 21.2967   4
 -19   1   9 273.831 21.1693   4
 -19   1   9 310.853 20.0569   2
  19   1  -9 333.162 22.2478   3
  17  -1  -9 9.47378 7.51916   3
 -17  -1   9 -4.9050 6.51718   4
  17  -1  -9 6.73632 4.63327   2
 -17   1   9 -4.5827 7.32060   4
  17   1  -9 5.95473 6.75181   3
  17   1  -9 12.6947 4.65855   2
  15  -1  -9 24.8198 6.52514   3
  15  -1  -9 26.3566 4.91277   2
 -15  -1   9 17.8327 7.73784   4
  15   1  -9 21.6887 4.33965   2
 -15   1   9 14.2457 7.83183   4
  15   1  -9 42.1156 7.44141   3
 -13  -1   9 776.880 45.7488   4
  13  -1  -9 814.490 45.1071   3
  13  -1  -9 817.300 44.5186   2
  13   1  -9 815.059 44.1623   2
  13   1  -9 818.428 45.3323   3
 -13   1   9 750.558 45.9467   4
  11  -1  -9 0.90565 3.42245   2
 -11  -1   9 1.71505 5.52911   4
  11  -1  -9 -1.2731 3.81754   3
 -11  -1   9 -1.3423 3.74457   2
  11   1  -9 -1.4515 3.58911   3
 -11   1   9 -0.8680 3.78078   3
  11   1  -9 0.00645 2.76044   2
 -11   1   9 3.78383 6.03594   4
   9  -1  -9 13.7307 3.34401   3
  -9  -1   9 8.40626 6.16176   4
  -9  -1   9 7.74508 3.33855   3
   9  -1  -9 9.31157 3.14639   2
  -9  -1   9 8.91176 3.62145   2
   9   1  -9 9.37946 2.97673   2
   9   1  -9 7.66780 3.08681   3
  -9   1   9 4.27224 2.75729   3
  -9   1   9 13.0372 6.08167   4
  -7  -1   9 1296.06 71.1171   2
   7  -1  -9 1288.14 71.2517   2
  -7  -1   9 1274.61 72.4298   4
   7  -1  -9 1309.04 70.5923   3
  -7   1   9 1279.67 70.4660   3
  -7   1   9 1358.36 72.6053   4
   7   1  -9 1320.14 71.0828   2
   7   1  -9 1358.73 71.0782   3
  -5  -1   9 301.359 19.1798   4
   5  -1  -9 290.973 17.4104   2
  -5  -1   9 296.943 17.5628   2
  -5   1   9 320.916 19.1161   4
   5   1  -9 298.893 16.9339   3
   5   1  -9 276.935 17.7503   2
   3  -1  -9 0.68054 3.06798   2
  -3  -1   9 2.72659 5.35220   4
  -3  -1   9 3.76274 2.46707   3
   3   1  -9 2.85303 2.88864   2
   3   1  -9 1.29061 2.52867   3
  -3   1   9 8.63582 4.72327   4
  -1  -1   9 86.1638 8.38773   4
  -1  -1   9 86.6849 6.76186   3
   1  -1  -9 80.0910 6.81706   2
   1  -1  -9 85.2459 5.54290   3
   1   1  -9 76.8415 6.77894   2
  -1   1   9 84.0246 5.63319   3
   1   1  -9 84.2241 6.78892   3
  -1   1   9 69.9193 8.18033   4
  -1  -1  -9 262.333 16.0634   3
   1  -1   9 261.750 16.7675   3
  -1  -1  -9 295.553 16.8862   2
   1  -1   9 286.327 17.9931   4
  -1   1  -9 283.670 17.5422   4
  -1   1  -9 259.871 16.7577   2
   1   1   9 287.768 18.0296   4
   1   1   9 285.630 16.2765   3
  -1   1  -9 267.626 17.1571   3
   3  -1   9 34.5619 5.55881   3
   3  -1   9 17.1499 5.63629   4
  -3  -1  -9 21.9839 4.79407   3
  -3  -1  -9 30.4812 4.91610   2
  -3   1  -9 24.5868 4.87729   2
   3   1   9 29.7503 6.04800   4
  -3   1  -9 21.8552 6.37804   3
  -3   1  -9 28.8024 5.32138   4
   3   1   9 20.1851 4.72286   3
  -5  -1  -9 817.692 44.7884   2
   5  -1   9 774.670 44.9630   4
   5  -1   9 795.258 45.1354   3
   5  -1   9 789.532 44.5645   4
   5   1   9 798.052 45.2018   4
  -5   1  -9 811.900 44.8945   2
   5   1   9 789.136 44.7632   3
  -7  -1  -9 161.104 12.8569   2
   7  -1   9 165.000 13.4462   4
   7  -1   9 155.662 13.6971   3
  -7   1  -9 184.809 13.2708   2
   7   1   9 157.712 13.0455   4
   7   1   9 200.421 14.1705   3
   9  -1   9 28.1569 6.85258   4
  -9  -1  -9 27.7205 7.11842   2
   9  -1   9 15.8735 8.14293   3
   9   1   9 15.6752 6.46187   4
   9   1   9 20.6584 8.12547   3
  -9   1  -9 29.8020 7.32231   2
  11  -1   9 170.478 17.1364   4
 -11  -1  -9 159.452 13.6019   2
  11  -1   9 140.654 14.9913   3
  11   1   9 157.701 13.3588   4
  11   1   9 160.345 14.7288   3
 -11   1  -9 180.419 14.6939   2
  13  -1   9 173.786 17.6979   3
 -13  -1  -9 187.254 16.3219   2
  13   1   9 224.606 20.8330   3
  13   1   9 212.788 16.7796   4
 -13   1  -9 207.492 16.4119   2
 -15  -1  -9 8.60282 8.10235   2
  15  -1   9 15.6753 11.5105   3
 -15   1  -9 -4.3728 9.02530   2
  15   1   9 -6.9566 10.9087   3
 -17  -1  -9 50.8358 11.5798   2
  17  -1   9 66.8680 14.7631   3
 -17   1  -9 42.3395 11.7450   2
  17   1   9 56.3330 13.5552   3
  19  -1   9 13.2799 12.8670   3
 -19  -1  -9 16.8796 11.8479   2
  19   1   9 11.8832 15.6700   3
 -19   1  -9 41.4497 12.5352   2
  26  -2  -9 110.368 18.2435   3
 -26   2   9 119.343 14.7548   2
  26   2  -9 136.162 18.9784   3
  24  -2  -9 47.4995 13.6724   3
 -24  -2   9 45.7739 10.7745   4
 -24   2   9 48.3207 9.46443   2
  24   2  -9 32.7139 12.3871   3
 -22  -2   9 111.460 18.0589   4
 -22  -2   9 106.339 10.6311   2
  22  -2  -9 141.362 15.8836   3
 -22   2   9 106.139 11.4636   2
  22   2  -9 111.505 15.0443   3
 -20  -2   9 345.803 20.4350   2
 -20  -2   9 307.080 22.7132   4
  20  -2  -9 338.791 24.4412   3
 -20   2   9 323.633 21.2524   2
 -20   2   9 313.957 21.8722   4
  20   2  -9 292.949 23.9977   3
  18  -2  -9 125.379 11.0985   2
 -18  -2   9 124.137 12.6328   4
 -18  -2   9 143.167 10.3790   2
  18  -2  -9 151.648 14.0126   3
  18   2  -9 137.335 13.7115   3
 -18   2   9 112.069 12.2506   4
 -16  -2   9 51.1986 8.34281   4
  16  -2  -9 49.0377 6.84136   2
  16  -2  -9 48.7676 8.96452   3
 -16   2   9 38.8100 9.04793   4
  16   2  -9 44.5320 7.94214   3
  16   2  -9 45.9651 5.47679   2
 -14  -2   9 318.040 18.6523   2
  14  -2  -9 306.221 18.9467   2
  14  -2  -9 317.695 20.2851   3
 -14  -2   9 271.507 21.1993   4
 -14   2   9 324.953 21.3998   4
  14   2  -9 312.729 18.1697   2
  14   2  -9 312.641 20.3873   3
  12  -2  -9 -1.9266 3.70626   2
 -12  -2   9 10.0600 3.87797   2
 -12  -2   9 13.6948 6.50214   4
  12  -2  -9 7.44841 4.89691   3
 -12   2   9 4.67458 5.35079   3
  12   2  -9 6.31820 4.21191   3
  12   2  -9 6.80519 3.00184   2
 -12   2   9 21.1365 7.44149   4
 -10  -2   9 85.7745 8.66196   4
  10  -2  -9 61.6298 6.26683   3
 -10  -2   9 79.9340 6.14527   2
  10  -2  -9 67.8100 6.48192   2
 -10   2   9 58.5830 6.78018   3
 -10   2   9 78.3780 9.27259   4
  10   2  -9 82.8318 7.20454   3
  10   2  -9 67.3430 5.64847   2
  -8  -2   9 617.024 34.4215   3
   8  -2  -9 604.177 34.3013   2
  -8  -2   9 608.092 33.9243   2
   8  -2  -9 613.495 33.6662   3
  -8  -2   9 631.530 35.8910   4
   8   2  -9 606.550 34.9830   3
  -8   2   9 621.333 35.6861   4
  -8   2   9 607.314 33.6362   3
   8   2  -9 612.710 33.8092   2
  -6  -2   9 137.898 11.4870   4
  -6  -2   9 140.808 9.36254   2
   6  -2  -9 139.826 9.21415   2
  -6   2   9 130.524 7.48848   3
   6   2  -9 132.462 8.99115   3
   6   2  -9 117.827 8.70230   2
   6   2  -9 129.577 9.77594   3
  -6   2   9 144.956 11.1009   4
  -4  -2   9 0.54287 5.16155   4
  -4  -2   9 -0.2010 3.67847   2
   4  -2  -9 6.58505 3.41191   2
   4   2  -9 4.28076 3.76540   3
  -4   2   9 10.6712 5.42873   4
   4   2  -9 8.87662 2.88044   3
   4   2  -9 7.12841 3.22302   2
  -2  -2   9 20.4959 5.57247   4
  -2  -2   9 10.9459 3.55708   3
   2  -2  -9 3.41534 3.19680   2
   2   2  -9 12.3189 4.31999   3
   2   2  -9 8.06523 3.75745   2
  -2   2   9 1.18338 4.46409   4
   0  -2   9 124.789 10.7582   4
   0  -2   9 109.569 9.74240   3
   0  -2  -9 130.610 8.99120   2
   0  -2  -9 110.566 7.50741   3
   0   2  -9 130.767 9.81413   3
   0   2  -9 106.178 10.9863   4
   0   2  -9 117.791 8.91924   2
   0   2   9 130.388 8.01027   3
   0   2   9 133.253 10.5429   4
  -2  -2  -9 687.329 38.4706   3
  -2  -2  -9 698.441 39.1300   2
   2  -2   9 707.223 39.4993   3
   2   2   9 687.333 38.5269   3
   2   2   9 726.379 40.1335   4
  -2   2  -9 687.628 39.4671   4
  -2   2  -9 700.431 39.3834   2
  -4  -2  -9 126.548 10.1841   2
  -4  -2  -9 128.612 9.68256   3
   4  -2   9 114.022 10.7099   3
   4  -2   9 115.432 10.3653   4
  -4   2  -9 128.331 10.1207   4
   4   2   9 121.594 11.0605   4
   4   2   9 167.302 9.82439   3
  -4   2  -9 92.4688 9.84348   2
  -6  -2  -9 448.675 26.7170   2
   6  -2   9 469.118 26.7488   4
   6  -2   9 361.789 26.2066   4
   6  -2   9 468.287 27.4091   3
   6   2   9 481.319 26.6243   3
  -6   2  -9 469.959 26.9461   2
   6   2   9 448.618 26.9897   4
   8  -2   9 560.439 32.4834   4
   8  -2   9 527.798 33.5511   3
  -8  -2  -9 571.319 32.7978   2
   8   2   9 579.322 33.7483   3
   8   2   9 534.768 33.0218   4
  -8   2  -9 558.688 32.9718   2
  10  -2   9 213.964 16.8967   3
 -10  -2  -9 163.662 13.7728   2
  10   2   9 181.008 16.1189   3
  10   2   9 176.123 14.5342   4
  12  -2   9 71.7825 11.9761   3
 -12   2  -9 89.8833 11.6546   2
  12   2   9 81.9397 12.4806   3
  12   2   9 85.3793 10.4020   4
 -14  -2  -9 229.724 17.5981   2
  14  -2   9 216.437 19.5998   3
  14   2   9 239.241 19.7663   3
  14   2   9 196.789 17.2747   4
 -14   2  -9 209.337 17.6693   2
  16  -2   9 28.0441 11.5239   3
 -16  -2  -9 21.5109 9.76958   2
 -16   2  -9 46.1323 10.3511   2
  16   2   9 42.1970 13.5194   3
 -18  -2  -9 7.57264 10.4491   2
  18  -2   9 17.0253 13.8513   3
  18   2   9 32.4407 14.7788   3
 -18   2  -9 5.00700 10.3385   2
  27  -3  -9 5.96768 14.7111   3
 -27   3   9 13.2116 11.6246   2
  27   3  -9 8.72871 17.6767   3
  25  -3  -9 62.3494 14.8032   3
 -25  -3   9 53.7421 11.6459   4
 -25   3   9 30.5912 11.0658   2
  25   3  -9 32.2774 13.9481   3
 -23  -3   9 35.0997 10.4558   4
  23  -3  -9 11.3288 11.5585   3
 -23   3   9 31.7998 9.84200   2
  23   3  -9 14.9008 11.3572   3
  21  -3  -9 75.7153 12.5490   3
 -21  -3   9 59.2471 10.3329   4
  21   3  -9 61.9290 12.6351   3
 -21   3   9 108.352 11.4933   2
 -19  -3   9 158.071 13.8935   2
 -19  -3   9 148.719 14.0988   4
  19  -3  -9 129.647 13.7917   3
  19   3  -9 130.250 13.9929   3
 -19   3   9 138.747 12.8329   4
 -19   3   9 123.047 12.1649   2
 -17  -3   9 -1.6805 6.76697   4
  17  -3  -9 -0.7470 4.91495   2
  17  -3  -9 0.48790 7.34823   3
 -17  -3   9 -1.0601 4.01036   2
 -17   3   9 4.06125 8.12897   4
  17   3  -9 -3.5704 7.28115   3
  15  -3  -9 36.9320 6.09441   2
 -15  -3   9 39.6401 8.35576   4
  15  -3  -9 34.8381 7.84661   3
  15   3  -9 53.1564 8.45294   3
 -15   3   9 67.4043 9.86449   4
  15   3  -9 44.2378 4.82029   2
 -13  -3   9 194.923 15.8032   4
  13  -3  -9 215.835 14.5164   2
 -13  -3   9 253.903 15.5051   2
  13  -3  -9 199.312 15.1759   3
 -13   3   9 211.853 16.5417   4
  13   3  -9 210.797 12.7117   2
  13   3  -9 198.135 14.7353   3
 -11  -3   9 30.0943 7.67817   4
  11  -3  -9 28.6321 5.22601   3
  11  -3  -9 24.5408 4.87799   2
 -11  -3   9 25.3081 4.08634   2
 -11   3   9 21.3825 6.79573   4
  11   3  -9 36.2095 3.65122   2
  11   3  -9 41.1283 6.14635   3
 -11   3   9 20.5060 6.05831   3
   9  -3  -9 5.04131 3.33553   3
  -9  -3   9 1.63675 2.79837   2
   9  -3  -9 8.12444 3.63137   2
  -9  -3   9 4.87681 5.59916   4
   9   3  -9 6.51657 3.66448   3
  -9   3   9 6.77119 5.82536   4
  -9   3   9 2.22069 4.06824   3
   9   3  -9 9.79306 2.71197   2
  -7  -3   9 638.789 37.0459   4
   7  -3  -9 644.736 35.9490   2
  -7  -3   9 625.593 35.3672   2
   7  -3  -9 661.750 35.0482   3
   7   3  -9 649.029 35.3378   2
  -7   3   9 631.417 35.1924   3
  -7   3   9 634.244 37.1762   4
   7   3  -9 635.411 36.1268   3
  -5  -3   9 37.6739 6.81124   4
  -5  -3   9 26.0301 4.54256   2
   5  -3  -9 33.2015 4.52069   2
  -5   3   9 39.5772 6.82331   4
  -5   3   9 33.5105 2.68961   3
  -5   3   9 37.1496 2.90425   3
   5   3  -9 27.9617 4.04770   2
   5   3  -9 39.9548 4.98294   3
  -3  -3   9 63.4162 6.59758   3
  -3  -3   9 78.6631 8.55697   4
   3  -3  -9 74.4573 6.43908   2
  -3  -3   9 61.1887 6.44831   2
  -3   3   9 72.0366 4.81088   3
   3   3  -9 72.2035 6.20154   2
  -3   3   9 70.7262 4.61959   3
  -3   3   9 74.5238 7.98062   4
  -1  -3   9 47.0052 6.12375   3
  -1  -3   9 54.4547 7.07813   4
   1  -3  -9 47.0249 5.30888   2
  -1   3   9 33.5732 6.50387   4
  -1   3   9 49.7186 4.17197   3
   1   3  -9 54.1179 5.89321   2
  -1   3   9 43.6794 3.82250   3
  -1  -3  -9 65.9103 5.33395   3
  -1  -3  -9 48.5813 5.99153   2
   1  -3   9 55.2196 7.21460   4
   1  -3   9 59.0299 7.16692   3
   1   3   9 65.6913 7.82446   4
   1   3   9 73.7089 5.90463   3
  -1   3  -9 68.4508 7.09433   2
   3  -3   9 226.637 15.1056   3
  -3  -3  -9 209.618 13.9984   2
   3  -3   9 215.125 15.2860   4
  -3   3  -9 209.522 15.1159   4
  -3   3  -9 224.728 14.4881   2
   3   3   9 181.874 15.3787   4
   3   3   9 222.021 14.2483   3
   5  -3   9 368.047 23.0032   3
   5  -3   9 339.386 21.3514   4
  -5  -3  -9 353.815 21.5193   2
  -5   3  -9 339.910 21.7451   2
   5   3   9 354.446 21.7545   3
   5   3   9 338.553 22.2481   4
  -7  -3  -9 155.241 12.3572   2
   7  -3   9 145.848 12.2238   4
   7  -3   9 182.786 14.9069   3
  -7  -3  -9 172.925 12.9885   4
   7   3   9 152.576 13.3097   3
  -7   3  -9 175.546 13.5852   2
   9  -3   9 -3.0116 7.60560   3
  -9  -3  -9 3.95413 6.26763   4
  -9  -3  -9 16.5450 6.47568   2
  -9   3  -9 11.5172 7.01855   2
   9   3   9 -0.4663 7.96867   3
 -11  -3  -9 231.251 17.4338   4
  11  -3   9 213.569 19.1323   3
 -11  -3  -9 254.718 17.3494   2
  11   3   9 265.366 19.9299   3
 -11   3  -9 215.199 17.6580   2
  13  -3   9 110.787 14.4300   3
 -13  -3  -9 132.983 12.8084   2
  13   3   9 181.955 15.9513   3
 -13   3  -9 120.441 13.9834   2
  13   3   9 132.490 13.7195   4
 -15  -3  -9 -4.8233 7.33630   2
  15  -3   9 -4.5589 11.4235   3
  15   3   9 12.5961 11.2918   4
  15   3   9 8.78978 12.4167   3
 -15   3  -9 3.26659 8.83578   2
 -17  -3  -9 49.3027 11.1310   2
  17  -3   9 48.8679 13.6204   3
 -17   3  -9 53.5969 12.8374   2
  17   3   9 47.2523 14.5491   3
 -19   3  -9 16.7731 12.1192   2
  26  -4  -9 13.8040 14.7038   3
 -26  -4   9 -7.7900 11.2158   4
  26   4  -9 -6.6347 16.0914   3
 -26   4   9 8.59971 11.2040   2
 -24  -4   9 2.26841 9.14608   4
  24  -4  -9 6.97352 12.1196   3
  24   4  -9 -5.6232 11.9617   3
 -24   4   9 0.61364 10.0742   2
 -22  -4   9 1.29603 9.08865   4
  22  -4  -9 -11.076 9.85301   3
 -22   4   9 8.95550 9.02610   2
  22   4  -9 -12.462 10.1571   3
 -20  -4   9 17.3867 9.31941   4
  20  -4  -9 14.9091 9.18105   3
 -20   4   9 14.2904 7.58355   2
  20   4  -9 11.0866 10.3646   3
 -18  -4   9 46.9185 9.66257   4
  18  -4  -9 31.1477 8.98966   3
  18  -4  -9 36.9483 6.73788   2
  18   4  -9 23.3002 8.57338   3
 -18   4   9 7.35439 8.37140   4
 -16  -4   9 49.8918 9.73795   4
  16  -4  -9 47.1820 8.51311   3
  16  -4  -9 35.9702 6.60145   2
 -16   4   9 54.9542 10.0832   4
  16   4  -9 69.5221 10.2546   3
  14  -4  -9 17.8586 7.00783   3
 -14  -4   9 8.98785 7.26366   4
  14  -4  -9 11.6572 5.40809   2
 -14  -4   9 16.0114 3.29696   2
 -14   4   9 1.09493 8.16949   4
  14   4  -9 19.0547 6.86747   3
  12  -4  -9 26.7468 5.35872   2
  12  -4  -9 29.4232 6.35144   3
 -12  -4   9 40.5353 8.60033   4
  12   4  -9 42.5670 3.69490   2
  12   4  -9 31.7770 6.66457   3
 -12   4   9 34.5580 8.27530   4
  10  -4  -9 137.536 9.83264   2
 -10  -4   9 115.728 8.49334   2
  10  -4  -9 148.223 10.1197   3
 -10  -4   9 130.392 12.0666   4
  10   4  -9 136.024 11.1620   3
  10   4  -9 115.504 7.92019   2
 -10   4   9 128.130 11.8373   4
 -10   4   9 97.8199 9.99102   3
  -8  -4   9 10.5080 3.50901   2
  -8  -4   9 13.4430 6.05570   4
   8  -4  -9 13.0745 3.68033   3
   8  -4  -9 15.4016 4.59778   2
  -8   4   9 3.62309 5.54872   4
   8   4  -9 10.4537 2.83479   2
   8   4  -9 9.63015 4.31995   3
  -8   4   9 11.1910 5.04841   3
   6  -4  -9 60.2159 6.84016   2
  -6  -4   9 56.5713 7.99074   4
   6  -4  -9 69.6925 5.39866   3
  -6   4   9 88.8008 9.51632   4
  -6   4   9 60.0300 6.00625   3
   6   4  -9 66.8121 7.04599   3
   6   4  -9 79.7270 5.87624   2
  -4  -4   9 76.0365 8.28873   4
  -4  -4   9 66.0267 6.57913   2
   4  -4  -9 67.5996 6.71852   2
   4   4  -9 85.8040 8.00957   3
  -4   4   9 77.8472 8.78833   4
  -4   4   9 84.1191 5.58878   3
  -4   4   9 68.4134 5.91577   3
   4   4  -9 69.5104 6.37413   2
  -2  -4   9 6.22288 5.43088   4
   2  -4  -9 4.72158 3.93974   2
  -2  -4   9 5.56857 4.99670   3
  -2   4   9 1.23723 3.11625   3
   2   4  -9 4.52117 3.84998   2
  -2   4   9 5.92072 5.07326   4
  -2   4   9 2.56189 2.46900   3
   0  -4  -9 23.9061 4.94121   2
   0  -4   9 -0.0385 5.19985   4
   0  -4   9 22.1180 5.53731   3
   0   4  -9 16.4130 4.58475   2
   0   4   9 18.1382 3.75961   3
   0   4   9 18.0378 3.68397   3
   0   4   9 7.16784 5.46585   4
  -2  -4  -9 -0.7874 4.04754   2
  -2  -4  -9 -0.2064 3.94464   3
   2  -4   9 -0.0821 4.85226   4
   2  -4   9 5.58700 5.54552   3
  -2  -4  -9 1.88686 5.49317   4
  -2   4  -9 5.19191 4.63515   2
   2   4   9 -0.8347 4.09213   3
  -4  -4  -9 27.8641 6.27085   4
  -4  -4  -9 20.1199 5.58949   2
   4  -4   9 20.5139 6.80313   3
  -4   4  -9 31.9156 6.44258   2
   4   4   9 35.1748 6.28979   3
   6  -4   9 40.0826 8.76285   3
   6  -4   9 62.7509 6.66982   4
  -6  -4  -9 63.9585 7.73254   2
  -6  -4  -9 55.3217 8.41722   4
  -6   4  -9 60.5984 8.74380   2
   6   4   9 59.0624 8.39751   3
  -8  -4  -9 40.0423 7.03477   2
  -8  -4  -9 16.0682 7.09759   4
   8  -4   9 34.8008 8.68469   3
  -8   4  -9 20.8138 7.45255   2
   8   4   9 21.0498 8.15858   3
  10  -4   9 -8.0703 8.03072   3
 -10  -4  -9 22.4400 6.82284   2
 -10  -4  -9 25.2734 7.75241   4
 -10   4  -9 30.5914 7.78707   2
  10   4   9 0.92316 8.70165   3
 -12  -4  -9 50.1645 9.08409   2
 -12  -4  -9 36.3611 8.97058   4
  12  -4   9 58.4412 11.4565   3
 -12   4  -9 66.2328 9.93076   2
  12   4   9 47.1583 11.2421   3
  14  -4   9 6.13168 11.3896   3
 -14  -4  -9 -4.0483 8.08028   2
 -14  -4  -9 4.78752 8.21159   4
  14   4   9 10.0351 11.6616   3
 -14   4  -9 -0.3636 8.31798   2
  16  -4   9 5.23999 11.8300   3
 -16  -4  -9 -6.6180 9.26541   4
 -16  -4  -9 14.3379 9.54238   2
  16   4   9 43.3290 11.2149   3
 -16   4  -9 10.1706 10.4012   2
  18  -4   9 16.3345 14.9406   3
  18   4   9 17.1513 16.1926   3
  25  -5  -9 19.2003 14.4360   3
 -25  -5   9 5.63356 12.2196   4
 -25   5   9 22.6439 11.3977   2
  25   5  -9 3.24942 15.6250   3
  23  -5  -9 66.1763 14.2818   3
 -23  -5   9 25.4293 11.6664   4
 -23   5   9 59.6287 12.1101   2
  23   5  -9 33.7518 13.1194   3
 -21  -5   9 107.715 14.5658   4
  21  -5  -9 106.692 14.0520   3
 -21   5   9 132.201 13.3805   2
  21   5  -9 105.337 14.6639   3
 -19  -5   9 84.6416 12.1937   4
  19   5  -9 99.6343 12.9097   3
 -19   5   9 93.8824 11.8001   2
 -17  -5   9 6.57393 7.68457   4
  17  -5  -9 4.77607 5.67204   2
  17  -5  -9 0.37652 7.98252   3
 -17   5   9 -0.2369 8.54613   4
  17   5  -9 -4.0920 7.49288   3
  15  -5  -9 286.275 17.3764   2
  15  -5  -9 237.811 18.2870   3
 -15  -5   9 249.287 21.6293   4
  15   5  -9 232.127 19.7687   3
 -15   5   9 248.270 19.9248   4
  13  -5  -9 52.7421 7.63885   3
 -13  -5   9 40.5363 8.70773   4
  13  -5  -9 23.5476 6.11330   2
 -13   5   9 36.4578 8.96424   4
  13   5  -9 43.6244 8.23752   3
  11  -5  -9 49.6163 6.89850   3
  11  -5  -9 58.7544 7.37017   2
 -11  -5   9 30.4741 8.11397   4
  11   5  -9 32.8754 7.44284   3
 -11   5   9 28.7682 8.43523   4
   9  -5  -9 175.165 11.8779   3
   9  -5  -9 158.325 11.7751   2
  -9  -5   9 142.934 13.8330   4
  -9   5   9 153.509 13.9916   4
   9   5  -9 158.768 9.77472   2
   9   5  -9 182.198 13.4208   3
   7  -5  -9 382.404 22.7385   2
   7  -5  -9 381.785 21.9226   3
  -7  -5   9 378.580 23.9484   4
   7   5  -9 378.932 23.6269   3
  -7   5   9 331.647 23.8942   3
   7   5  -9 386.473 21.3899   2
  -7   5   9 388.658 24.0462   4
  -5  -5   9 79.5096 9.56685   4
   5  -5  -9 104.563 8.52638   2
   5   5  -9 99.9796 9.52216   3
  -5   5   9 90.9097 10.4824   4
   5   5  -9 113.389 7.87485   2
  -5   5   9 100.201 8.58685   3
  -5   5   9 103.234 7.71934   3
  -3  -5   9 113.845 10.3525   3
   3  -5  -9 111.737 8.88597   2
  -3  -5   9 90.0075 9.53622   4
  -3   5   9 106.936 7.83809   3
  -3   5   9 103.709 10.7212   4
   3   5  -9 104.990 8.35518   2
  -3   5   9 105.500 10.4871   3
   1  -5  -9 14.5940 4.98913   2
  -1  -5   9 16.9617 5.79552   3
  -1  -5   9 21.2333 5.99741   4
  -1   5   9 20.8956 4.06793   3
   1   5  -9 20.6813 5.06612   2
  -1   5   9 19.6631 7.50075   4
   1  -5   9 188.592 14.3092   4
  -1  -5  -9 174.949 14.5043   4
  -1  -5  -9 203.703 13.6483   2
   1  -5   9 194.485 14.8907   3
  -1   5  -9 208.199 14.1573   2
   1   5   9 213.756 13.4151   3
  -3  -5  -9 190.083 13.5508   2
   3  -5   9 192.998 13.7638   4
   3  -5   9 191.814 15.3266   3
  -3  -5  -9 190.182 14.7593   4
   3   5   9 196.371 13.8947   3
  -3   5  -9 198.517 14.7182   2
   5  -5   9 175.320 15.1119   3
  -5  -5  -9 165.783 12.7051   2
  -5  -5  -9 177.912 14.5338   4
  -5   5  -9 156.881 13.3122   2
   5   5   9 165.581 13.3056   3
   7  -5   9 322.391 24.4102   3
  -7  -5  -9 355.389 22.7848   4
  -7  -5  -9 380.346 21.8781   2
   7   5   9 343.493 22.9936   3
  -7   5  -9 318.485 22.4100   2
  -9  -5  -9 131.743 12.7780   4
  -9  -5  -9 150.890 12.0334   2
   9  -5   9 121.238 14.5957   3
   9   5   9 175.189 14.8784   3
  -9   5  -9 121.061 12.5912   2
 -11  -5  -9 7.98064 7.01458   2
 -11  -5  -9 31.4407 8.79388   4
  11  -5   9 18.6355 10.6564   3
  11   5   9 20.0735 10.2568   3
 -11   5  -9 6.65106 7.96826   2
  13  -5   9 123.648 15.9194   3
 -13  -5  -9 116.045 13.4069   4
 -13  -5  -9 135.339 12.6853   2
 -13   5  -9 157.466 14.8516   2
  13   5   9 105.345 15.4351   3
 -15  -5  -9 102.134 13.5192   4
  15  -5   9 145.152 17.7432   3
 -15  -5  -9 115.039 12.9815   2
  15   5   9 98.3568 16.2731   3
 -15   5  -9 109.190 15.3483   2
  17  -5   9 37.6183 14.2275   3
 -17  -5  -9 26.3396 11.7511   4
  17   5   9 36.0385 16.7886   3
  24  -6  -9 53.8533 13.9816   3
 -24  -6   9 30.2608 13.4604   4
  24   6  -9 29.0322 17.5376   3
 -24   6   9 27.9121 14.0878   2
  22  -6  -9 69.0085 14.2153   3
 -22  -6   9 59.9782 13.5726   4
  22   6  -9 78.2869 14.4110   3
 -22   6   9 71.0377 12.8573   2
 -20  -6   9 192.491 18.4333   4
  20  -6  -9 185.488 17.7981   3
  20   6  -9 181.328 18.6518   3
 -20   6   9 182.022 16.5198   2
  18  -6  -9 81.7349 13.0975   3
 -18  -6   9 84.3617 12.1105   4
  18   6  -9 96.3376 13.8089   3
 -18   6   9 58.4290 11.5065   2
 -16  -6   9 20.4357 8.66625   4
  16  -6  -9 14.7261 6.91956   2
  16  -6  -9 27.1109 8.55167   3
  16   6  -9 11.6884 7.94626   3
 -16   6   9 21.5810 9.58670   4
 -14  -6   9 233.114 18.3814   4
  14  -6  -9 235.529 17.7319   3
  14  -6  -9 212.573 16.0870   2
 -14   6   9 231.020 18.4334   4
  14   6  -9 239.704 18.2486   3
  12  -6  -9 55.3872 8.72219   2
  12  -6  -9 60.4227 8.28678   3
  12   6  -9 65.1889 9.79640   3
 -12   6   9 62.3255 10.0761   4
 -10  -6   9 23.7392 8.59372   4
  10  -6  -9 30.6220 6.42852   3
  10  -6  -9 24.5352 6.34421   2
  10   6  -9 31.1678 6.99332   3
 -10   6   9 19.5997 7.86579   4
   8  -6  -9 391.867 23.0550   3
  -8  -6   9 397.139 24.9385   4
   8  -6  -9 379.730 23.1441   2
   8   6  -9 365.892 24.3411   3
  -8   6   9 384.947 25.3140   4
  -6  -6   9 165.805 14.0865   4
   6  -6  -9 161.714 12.2288   2
   6  -6  -9 149.157 11.2346   3
  -6   6   9 121.028 13.0465   4
   6   6  -9 181.075 13.4393   3
   6   6  -9 165.927 10.6089   2
   4  -6  -9 90.3603 8.53256   2
  -4  -6   9 70.0954 9.76385   4
  -4   6   9 62.7641 10.1640   4
  -4   6   9 85.8327 7.46057   3
   4   6  -9 84.0041 9.87516   3
   4   6  -9 87.1401 7.48975   2
   2  -6  -9 116.161 11.0608   4
  -2  -6   9 130.302 11.4455   4
   2  -6  -9 124.621 9.93738   2
  -2  -6   9 119.892 11.7043   3
   2   6  -9 109.295 9.23940   2
  -2   6   9 92.2941 11.6705   4
  -2   6   9 105.768 8.81260   3
   0  -6   9 -3.1881 5.67365   4
   0  -6  -9 0.60481 5.94975   4
   0  -6  -9 -1.1043 4.75332   2
   0  -6   9 2.01608 6.48138   3
   0   6   9 1.97888 4.47515   3
   0   6  -9 3.71622 5.29760   2
  -2  -6  -9 475.843 28.1948   2
   2  -6   9 464.146 30.2222   3
  -2  -6  -9 501.688 29.9378   4
   2  -6   9 505.793 28.7402   4
  -2   6  -9 481.824 28.7611   2
   2   6   9 452.842 28.2379   3
   4  -6   9 308.289 22.3112   3
  -4  -6  -9 310.248 22.6958   4
  -4  -6  -9 329.031 19.8703   2
   4  -6   9 321.328 19.6327   4
  -4   6  -9 295.354 20.5912   2
   4   6   9 288.872 20.3610   3
  -6  -6  -9 243.933 16.6959   2
  -6  -6  -9 260.478 18.4085   4
   6  -6   9 233.605 19.7421   3
   6   6   9 250.510 18.8066   3
  -6   6  -9 248.854 18.4030   2
  -8  -6  -9 132.462 11.1438   2
  -8  -6  -9 117.467 12.5022   4
   8  -6   9 140.740 14.4105   3
   8   6   9 126.954 13.5965   3
  -8   6  -9 112.965 12.0867   2
  10  -6   9 146.564 16.5441   3
 -10  -6  -9 183.925 13.9728   2
 -10  -6  -9 167.646 15.6609   4
 -10   6  -9 144.036 14.8072   2
  10   6   9 211.314 17.4312   3
 -12  -6  -9 241.226 18.4631   2
 -12  -6  -9 224.848 18.8263   4
  12  -6   9 222.557 20.6634   3
  12   6   9 166.491 19.4653   3
 -12   6  -9 231.541 19.3616   2
 -14  -6  -9 40.8539 11.4221   4
  14  -6   9 45.8769 12.8806   3
  14   6   9 40.8050 14.3283   3
 -14   6  -9 51.9103 12.4785   2
 -16  -6  -9 20.3674 11.5162   4
  16  -6   9 22.3976 16.8989   3
  16   6   9 3.14933 15.4864   3
  23  -7  -9 -4.0602 13.3114   3
 -23  -7   9 -6.8255 12.7989   4
 -23   7   9 13.3537 12.4846   2
  23   7  -9 -9.6119 14.8580   3
 -21  -7   9 19.3408 10.9890   4
  21  -7  -9 10.7739 12.0811   3
 -21   7   9 4.31839 9.82394   2
  21   7  -9 6.47459 13.3998   3
  19  -7  -9 66.7705 12.5297   3
 -19  -7   9 65.9800 12.5784   4
  19   7  -9 74.4036 14.3120   3
 -19   7   9 68.1271 11.6780   2
  17  -7  -9 14.3438 9.45568   3
 -17  -7   9 11.1144 10.3293   4
 -17   7   9 13.1473 8.94446   2
  17   7  -9 16.6055 10.2982   3
  15  -7  -9 16.5605 6.52834   2
 -15  -7   9 15.2338 9.59558   4
  15  -7  -9 8.53678 8.20854   3
 -15   7   9 25.0452 10.3137   4
  15   7  -9 7.71316 8.66969   3
 -13  -7   9 29.5864 8.80290   4
  13  -7  -9 18.0255 7.62133   3
  13  -7  -9 33.3937 7.61956   2
  13   7  -9 17.6938 8.27525   3
 -13   7   9 28.6778 9.63104   4
  11  -7  -9 -2.6934 5.79977   3
  11  -7  -9 5.98776 5.33905   2
 -11  -7   9 -5.1813 7.06873   4
 -11   7   9 -4.0721 8.19841   4
  11   7  -9 -7.7007 6.38917   3
  -9  -7   9 49.1645 9.94815   4
   9  -7  -9 60.8019 7.97645   2
   9  -7  -9 58.5020 7.64095   3
   9   7  -9 45.6218 8.83890   3
  -9   7   9 67.9581 9.73873   4
   7  -7  -9 48.9235 7.19992   2
   7  -7  -9 47.6436 7.02988   3
  -7  -7   9 44.8049 8.61298   4
  -7   7   9 53.4379 10.0865   4
  -5  -7   9 31.8971 8.29423   4
   5  -7  -9 13.5640 5.00947   2
  -5   7   9 12.3821 8.27153   4
   5   7  -9 12.0138 4.89340   2
   5   7  -9 20.1048 7.11059   3
  -5   7   9 16.8227 5.60837   3
  -3  -7   9 12.5728 6.89250   4
   3  -7  -9 10.3377 5.39807   2
   3   7  -9 16.0692 5.16013   2
  -3   7   9 18.2150 5.40712   3
  -3   7   9 2.71720 8.03872   4
   3   7  -9 16.7973 6.95187   3
  -1  -7   9 76.2812 11.5727   3
  -1  -7   9 86.8726 9.80393   4
   1  -7  -9 89.0434 8.38716   2
   1   7  -9 75.1428 8.35981   2
  -1   7   9 94.7994 8.78498   3
  -1  -7  -9 128.504 12.5361   4
  -1  -7  -9 124.012 10.3865   2
   1  -7   9 151.826 11.8630   4
   1  -7   9 105.313 11.9795   3
   1   7   9 106.981 10.5779   3
  -1   7  -9 127.881 11.0692   2
  -3  -7  -9 0.25240 5.32873   2
  -3  -7  -9 6.79610 6.47316   4
   3  -7   9 3.95787 5.69066   4
   3  -7   9 1.01854 7.02244   3
   3   7   9 3.62149 6.57807   3
  -3   7  -9 7.38319 6.60209   2
  -5  -7  -9 61.3570 9.71368   4
  -5  -7  -9 82.5003 8.65762   2
   5  -7   9 85.1113 12.1421   3
   5   7   9 80.6985 10.3498   3
  -5   7  -9 80.2172 11.3461   2
  -7  -7  -9 129.269 10.7124   2
   7  -7   9 108.566 14.0381   3
  -7  -7  -9 97.1984 12.2854   4
   7   7   9 112.789 12.8361   3
  -7   7  -9 118.527 12.7884   2
   9  -7   9 28.9086 10.7392   3
  -9  -7  -9 36.1190 9.58943   4
   9   7   9 43.4585 12.2874   3
  -9   7  -9 38.4927 9.82961   2
 -11  -7  -9 -1.0159 9.34194   4
  11  -7   9 -9.2527 9.61074   3
 -11   7  -9 6.60133 9.06295   2
  11   7   9 -14.753 11.4340   3
 -13  -7  -9 24.8310 10.1431   4
  13  -7   9 26.7368 12.1436   3
 -13   7  -9 36.8326 11.1342   2
  13   7   9 29.8200 14.6517   3
 -20  -8   9 7.47462 12.9952   4
  20  -8  -9 16.1278 12.3193   3
 -20   8   9 26.2960 11.0931   2
  20   8  -9 9.73396 12.3263   3
  18  -8  -9 1.45136 10.4949   3
 -18  -8   9 13.0037 11.4038   4
 -18   8   9 -1.8930 9.28056   2
  18   8  -9 1.01992 10.1352   3
 -16  -8   9 14.0726 10.5606   4
  16  -8  -9 12.2367 9.80199   3
  16   8  -9 7.41724 10.1036   3
 -16   8   9 21.6407 9.50181   2
 -14  -8   9 1.59626 10.0565   4
  14  -8  -9 -0.4682 6.14199   2
  14  -8  -9 4.26619 9.45680   3
  14   8  -9 0.85815 9.31422   3
 -12  -8   9 22.5648 9.52354   4
  12  -8  -9 23.8989 6.88662   2
  12  -8  -9 32.2556 8.41431   3
  12   8  -9 16.7758 8.97215   3
 -12   8   9 22.1433 10.3389   4
  10  -8  -9 8.38305 7.24487   3
  10  -8  -9 10.2533 6.41420   2
 -10  -8   9 28.2770 8.86836   4
 -10   8   9 9.63650 8.96423   4
  10   8  -9 5.18475 7.85758   3
  -8  -8   9 8.48438 8.57991   4
   8  -8  -9 13.6447 5.68005   2
   8  -8  -9 11.0971 6.42397   3
   8   8  -9 13.1450 8.47537   3
  -8   8   9 9.17118 8.66457   4
  -6  -8   9 6.13739 7.97470   4
   6  -8  -9 -4.7012 4.89894   2
   6   8  -9 5.40724 7.44921   3
  -6   8   9 4.39188 6.63639   3
  -6   8   9 2.06355 8.49676   4
   4  -8  -9 22.1946 5.96232   2
  -4  -8   9 31.0329 7.76705   4
  -4   8   9 25.0826 8.88694   4
  -4   8   9 29.1736 7.02319   3
   4   8  -9 15.1054 7.80788   3
   2  -8  -9 5.42115 6.93747   4
   2  -8  -9 3.55218 5.36276   2
  -2  -8   9 1.90057 7.00122   3
  -2  -8   9 5.57523 6.66379   4
  -2   8   9 -2.6589 6.11282   3
   2   8  -9 3.59051 5.69499   2
   0  -8  -9 6.08689 6.79469   4
   0  -8   9 0.49280 7.38296   3
   0  -8  -9 7.54251 5.71806   2
   0  -8   9 9.14916 6.95355   4
   0   8   9 5.65379 6.53631   3
   0   8  -9 6.44369 6.43505   2
  -2  -8  -9 4.49265 7.27430   4
   2  -8   9 12.9961 8.37387   3
  -2  -8  -9 -2.1458 5.30159   2
   2  -8   9 3.41442 6.68791   4
  -2   8  -9 6.69117 6.93054   2
   2   8   9 4.90692 7.06432   3
  -4  -8  -9 0.48724 5.69276   2
  -4  -8  -9 7.04917 8.20707   4
   4  -8   9 2.95995 8.49517   3
   4   8   9 6.06640 7.99012   3
  -6  -8  -9 11.7199 8.56350   4
   6  -8   9 -0.2330 8.63816   3
  -6   8  -9 6.83738 8.53869   2
   6   8   9 7.58482 9.05427   3
   8  -8   9 30.2557 10.7398   3
  -8  -8  -9 32.8674 10.3159   4
   8   8   9 9.03371 10.9984   3
  -8   8  -9 19.0356 8.75705   2
  10  -8   9 5.01095 11.9542   3
 -10  -8  -9 -3.8115 10.0574   4
 -10   8  -9 1.67269 9.76317   2
  10   8   9 -3.1527 12.0043   3
 -12  -8  -9 2.54774 10.8821   4
  12  -8   9 -6.2330 11.5757   3
 -12   8  -9 -3.5362 11.4084   2
 -19   9   9 97.9926 18.6527   2
  17  -9  -9 2.43857 11.0997   3
 -17  -9   9 -0.6570 10.9592   4
  17   9  -9 -4.3246 12.5356   3
 -17   9   9 13.1499 11.5708   2
 -15  -9   9 51.4906 12.0608   4
  15  -9  -9 31.1310 10.9453   3
 -15   9   9 69.9482 12.8119   2
  15   9  -9 37.6500 12.7031   3
  13  -9  -9 116.187 13.5705   3
  13  -9  -9 141.761 12.6767   2
 -13  -9   9 105.835 14.3322   4
  13   9  -9 126.791 15.9619   3
  11  -9  -9 8.42480 9.54358   3
 -11  -9   9 4.70184 9.24084   4
  11  -9  -9 1.33819 7.01072   2
 -11   9   9 -0.7348 10.6865   4
  11   9  -9 1.34804 8.67148   3
   9  -9  -9 22.2141 8.08485   3
  -9  -9   9 24.1775 9.59145   4
   9  -9  -9 29.3980 7.47000   2
   9   9  -9 44.7925 10.8039   3
  -9   9   9 44.8440 11.3211   4
   7  -9  -9 175.287 14.0587   2
  -7  -9   9 187.620 16.3664   4
  -7   9   9 144.445 16.4348   4
   7   9  -9 163.909 17.0458   3
  -7   9   9 172.594 15.3183   3
  -5  -9   9 35.3019 10.3310   4
   5  -9  -9 43.9273 7.90056   2
  -5   9   9 57.0665 11.9756   4
   5   9  -9 27.4325 9.93666   3
  -5   9   9 48.8833 9.14680   3
   3  -9  -9 100.350 12.0080   4
  -3  -9   9 81.7818 11.5726   4
   3   9  -9 72.5990 12.1043   3
  -3   9   9 70.9434 10.4227   3
  -1  -9   9 -1.5058 8.15137   3
   1  -9  -9 -5.0259 8.20649   4
   1  -9  -9 4.26312 6.06562   2
  -1   9   9 0.03188 8.38349   3
   1  -9   9 62.4888 9.89984   4
  -1  -9  -9 51.2233 10.7837   4
   1  -9   9 40.5836 10.5522   3
  -1  -9  -9 54.1567 7.83700   2
   3  -9   9 173.958 16.4422   3
  -3  -9  -9 147.468 15.4970   4
  -3   9  -9 148.451 14.1533   2
  -5  -9  -9 144.446 15.0649   4
   5  -9   9 126.317 16.3728   3
  -5   9  -9 138.267 14.0419   2
   7  -9   9 46.7675 12.7146   3
  -7  -9  -9 21.0929 9.90830   4
  -7   9  -9 49.2775 11.2174   2
  -9  -9  -9 26.6376 11.3305   4
   9  -9   9 37.7218 13.2848   3
  -9   9  -9 58.7634 12.3566   2
 -14 -10   9 108.042 15.7573   4
  14  10  -9 73.2311 16.6268   3
 -14  10   9 86.1718 13.6538   2
  12 -10  -9 11.8123 8.27110   2
 -12 -10   9 11.2482 12.2517   4
  12  10  -9 16.0097 11.8079   3
 -10 -10   9 13.0589 11.5539   4
  10 -10  -9 5.60770 7.77868   2
  10  10  -9 4.83296 11.6036   3
 -10  10   9 2.72216 11.9604   4
  -8 -10   9 107.052 14.7794   4
   8 -10  -9 115.389 11.1574   2
  -8  10   9 99.2646 14.9073   4
   8  10  -9 85.3548 14.5903   3
  -6 -10   9 73.7535 12.2677   4
   6 -10  -9 77.5400 9.71822   2
   6  10  -9 64.1931 13.0795   3
  -6  10   9 76.3169 13.8003   4
  -4 -10   9 -1.9637 8.41510   4
   4 -10  -9 -4.8829 6.85459   2
  -4  10   9 11.3170 11.3396   4
   4  10  -9 4.34729 11.4221   3
  -2 -10   9 6.32448 9.37246   4
   2 -10  -9 18.8155 7.46110   2
   2 -10  -9 7.91856 9.91339   4
   2  10  -9 3.28166 10.4265   3
   0 -10   9 176.074 15.7510   4
   0 -10   9 185.559 18.2421   3
   0 -10  -9 127.017 15.8130   4
   2 -10   9 9.26374 10.0576   3
  -2 -10  -9 16.2000 9.37848   4
  -4 -10  -9 17.3634 10.2056   4
   4 -10   9 26.6549 12.2113   3
   6 -10   9 187.419 18.8845   3
  -6 -10  -9 150.028 17.5106   4
  -6  10  -9 114.934 15.0913   2
 -11  11   9 -13.757 11.8024   2
   9 -11  -9 -5.2514 8.76614   2
  -9 -11   9 13.8031 12.6152   4
  -9  11   9 3.96054 13.0186   4
   7 -11  -9 7.25830 8.29072   2
  -7 -11   9 2.31637 10.7952   4
  -7  11   9 16.0828 13.8591   4
   7  11  -9 14.9466 12.1613   3
   5 -11  -9 8.31053 9.13453   2
  -5 -11   9 9.07043 11.1254   4
   5  11  -9 5.58228 12.9198   3
  -5  11   9 13.4616 12.2176   4
  -3 -11   9 -1.4794 11.0124   4
   3  11  -9 11.6433 12.3105   3
  -3  11   9 20.1883 14.1558   4
   1 -11  -9 -3.9010 9.87011   4
   1  11  -9 4.25599 13.2325   3
  -1 -11  -9 31.2468 12.4372   4
  28   0 -10 33.0530 17.0895   3
  26   0 -10 31.6661 13.1346   3
 -26   0  10 63.0060 11.6075   2
 -24   0  10 139.658 13.1144   2
  24   0 -10 100.400 15.7740   3
 -22   0  10 386.207 24.5346   4
 -22   0  10 349.225 22.8644   2
  22   0 -10 308.664 25.0261   3
  20   0 -10 309.407 21.4367   3
 -20   0  10 256.873 19.5258   4
 -20   0  10 241.993 17.9861   2
  18   0 -10 13.8683 5.29062   2
  18   0 -10 -5.6383 7.55737   3
 -18   0  10 0.18767 7.91202   4
  16   0 -10 653.105 37.1118   2
  16   0 -10 672.591 38.6744   3
 -16   0  10 645.127 39.1791   4
  14   0 -10 907.992 49.9834   2
 -14   0  10 920.957 51.8822   4
  14   0 -10 884.450 50.8079   3
  12   0 -10 8.54419 4.45083   3
  12   0 -10 12.1201 3.85022   2
 -12   0  10 4.27238 7.42445   4
 -10   0  10 714.586 41.1437   4
  10   0 -10 713.873 39.3074   3
  10   0 -10 695.625 39.1846   2
 -10   0  10 705.358 39.0999   3
   8   0 -10 772.345 42.5332   3
  -8   0  10 781.246 42.4287   3
  -8   0  10 785.114 44.6632   4
   8   0 -10 770.631 42.9972   2
   6   0 -10 1439.70 77.8445   3
   6   0 -10 1433.50 77.8250   3
   6   0 -10 1461.17 78.5892   2
  -6   0  10 1452.05 80.1348   4
   4   0 -10 279.486 17.4681   2
   4   0 -10 288.072 16.4225   3
   4   0 -10 296.839 16.2267   3
  -4   0  10 300.495 19.2205   4
   2   0 -10 22.2329 4.25793   2
   2   0 -10 22.1914 3.30676   3
  -2   0  10 5.48235 5.52625   4
  -2   0  10 20.4149 2.86761   3
   0   0  10 1293.13 70.1888   4
   0   0 -10 1230.63 68.6331   3
   0   0  10 1248.94 68.5899   3
   0   0 -10 1293.18 69.3020   2
  -2   0 -10 1632.44 91.6486   3
  -2   0 -10 1686.49 92.0272   2
   2   0  10 1727.18 92.6163   4
   2   0  10 1708.03 91.6282   3
  -4   0 -10 86.6291 9.12044   2
   4   0  10 112.670 9.39402   3
   4   0  10 102.611 10.0225   4
   6   0  10 431.206 24.9876   3
   6   0  10 385.282 24.6454   4
  -6   0 -10 376.865 24.6010   2
   8   0  10 1051.39 58.4770   3
  -8   0 -10 1000.38 57.8547   2
   8   0  10 1036.30 57.9579   4
  10   0  10 544.257 32.7766   4
  10   0  10 545.999 34.1724   3
  12   0  10 282.983 21.9969   3
 -12   0 -10 263.686 19.5168   2
  14   0  10 284.872 22.6500   3
 -14   0 -10 247.087 20.2614   2
 -16   0 -10 76.7647 11.5911   2
  16   0  10 47.9037 14.4402   3
 -18   0 -10 62.1019 12.2177   2
  18   0  10 37.4864 15.6154   3
  27  -1 -10 48.9710 16.9060   3
 -27   1  10 65.1997 12.3939   2
  27   1 -10 58.2624 17.0450   3
 -25  -1  10 45.9408 12.8271   4
  25  -1 -10 48.1445 13.3745   3
 -25  -1  10 53.3511 9.98139   2
 -25   1  10 52.3536 10.7833   2
  25   1 -10 48.4549 14.5032   3
 -23  -1  10 2.34545 7.13727   2
  23  -1 -10 -1.3589 10.8497   3
 -23  -1  10 2.29272 8.64586   4
  23   1 -10 -8.3463 10.4695   3
 -23   1  10 -9.7568 6.50239   2
 -21  -1  10 138.371 14.2149   4
 -21  -1  10 160.537 12.8647   2
 -21   1  10 181.801 14.8286   4
  21   1 -10 143.284 15.9327   3
 -19  -1  10 315.682 22.3197   4
 -19  -1  10 324.827 20.3741   2
  19  -1 -10 258.998 20.2569   2
  19  -1 -10 402.135 22.2232   3
  19   1 -10 327.485 23.4011   3
 -19   1  10 333.156 22.9218   4
  17  -1 -10 39.4493 8.17361   3
 -17  -1  10 29.4874 8.23662   4
  17  -1 -10 45.2188 6.63038   2
 -17   1  10 33.2087 8.88454   4
  17   1 -10 27.8598 7.62081   3
  17   1 -10 42.6421 5.77829   2
 -15  -1  10 9.64313 7.07710   4
  15  -1 -10 22.1328 5.36202   2
  15  -1 -10 13.6180 6.40293   3
  15   1 -10 6.43707 6.23090   3
  15   1 -10 9.72586 4.20127   2
 -15   1  10 11.1744 8.28556   4
  13  -1 -10 328.241 20.1169   2
 -13  -1  10 324.964 22.2203   4
  13  -1 -10 354.250 21.0837   3
  13   1 -10 339.624 19.8523   2
  13   1 -10 333.426 20.9639   3
 -13   1  10 360.421 23.2703   4
  11  -1 -10 125.011 9.24989   3
  11  -1 -10 116.267 8.96315   2
 -11  -1  10 106.580 11.5524   4
  11   1 -10 127.139 9.33875   3
  11   1 -10 116.882 8.48412   2
 -11   1  10 105.495 8.59784   3
 -11   1  10 132.492 12.1379   4
  -9  -1  10 78.4180 9.06476   4
   9  -1 -10 62.4168 6.20220   2
  -9  -1  10 70.8828 6.30487   3
   9  -1 -10 71.2197 5.86439   3
  -9   1  10 58.5807 8.60697   4
  -9   1  10 69.0929 5.49014   3
   9   1 -10 76.9354 6.12673   2
   9   1 -10 80.4921 6.35039   3
   7  -1 -10 521.707 28.0229   3
  -7  -1  10 514.795 30.7709   4
   7  -1 -10 511.932 29.0279   2
  -7   1  10 505.020 27.8777   3
   7   1 -10 498.271 28.5958   3
   7   1 -10 509.882 28.6539   3
   7   1 -10 529.055 28.8993   2
  -7   1  10 517.932 30.7817   4
  -5  -1  10 6.90031 5.74884   4
   5  -1 -10 10.1370 3.76669   2
  -5   1  10 10.6545 5.45835   4
   5   1 -10 11.6309 2.58307   3
   5   1 -10 18.9197 3.75451   2
   5   1 -10 1.15124 2.53542   3
  -3  -1  10 699.497 37.3394   3
   3  -1 -10 662.572 37.8877   2
  -3  -1  10 656.122 39.1229   4
   3   1 -10 698.689 37.8693   2
  -3   1  10 665.745 39.0791   4
   1  -1 -10 488.819 29.3865   2
  -1  -1  10 564.467 31.0681   4
  -1  -1  10 529.286 29.0633   3
   1  -1 -10 521.432 28.3125   3
  -1   1  10 501.823 28.2905   3
  -1   1  10 472.071 30.6107   4
   1   1 -10 530.044 29.6438   3
   1   1 -10 533.702 29.4944   2
  -1  -1 -10 18.1045 3.75981   3
  -1  -1 -10 19.9780 4.97946   2
   1  -1  10 30.8260 6.09926   4
   1  -1  10 15.8673 4.41742   3
   1   1  10 21.0534 6.29249   4
   1   1  10 20.5036 3.84631   3
  -1   1 -10 20.8153 4.70735   2
  -1   1 -10 22.6670 5.30876   3
   3  -1  10 68.8864 8.66485   4
  -3  -1 -10 79.9338 7.56303   3
  -3  -1 -10 94.9345 8.29003   2
   3  -1  10 84.4620 8.12208   3
   3   1  10 87.3781 9.16036   4
  -3   1 -10 80.0534 8.17129   2
   3   1  10 74.1886 7.51507   3
   5  -1  10 983.467 55.4683   3
  -5  -1 -10 1022.17 55.2401   2
   5  -1  10 1007.38 55.4462   4
   5   1  10 930.568 55.0598   3
  -5   1 -10 1005.37 55.4607   2
   5   1  10 983.265 55.7052   4
   7  -1  10 99.0094 11.0222   3
   7  -1  10 118.652 10.8949   4
  -7  -1 -10 114.059 10.8996   2
   7   1  10 110.750 11.2195   3
  -7   1 -10 117.974 10.7563   2
   7   1  10 92.6207 10.4789   4
   9  -1  10 8.68178 7.84766   3
  -9  -1 -10 1.81292 6.18665   2
   9  -1  10 -5.8584 6.59156   4
   9   1  10 5.15775 8.21297   3
   9   1  10 3.77610 6.64318   4
  -9   1 -10 4.30526 6.54422   2
 -11  -1 -10 251.175 18.6188   2
  11  -1  10 261.158 20.7189   3
  11   1  10 254.968 19.0502   4
  11   1  10 270.494 21.0752   3
 -11   1 -10 284.735 19.2473   2
  13  -1  10 170.376 17.3813   3
 -13  -1 -10 176.600 16.1378   2
 -13   1 -10 228.428 17.5769   2
  13   1  10 213.227 21.8766   4
  13   1  10 162.372 17.4170   3
  15  -1  10 9.10280 11.3637   3
 -15  -1 -10 -4.8828 7.82143   2
  15   1  10 7.07585 11.9358   3
 -15   1 -10 13.7023 9.20085   2
  17  -1  10 28.6646 13.7449   3
 -17  -1 -10 14.0835 10.9738   2
 -17   1 -10 15.9110 10.4601   2
  17   1  10 18.5487 12.8640   3
 -26  -2  10 -1.4809 11.4435   4
  26  -2 -10 14.7505 12.6540   3
  26   2 -10 30.0000 13.6330   3
 -26   2  10 1.15909 9.81519   2
  24  -2 -10 0.37350 11.4139   3
 -24  -2  10 15.7620 10.1004   4
  24   2 -10 -0.5497 12.3218   3
 -24   2  10 12.7414 8.80877   2
  22  -2 -10 5.36962 10.4368   3
 -22  -2  10 26.4992 9.32966   4
 -22  -2  10 16.5738 6.77331   2
  22   2 -10 14.0586 10.0755   3
 -22   2  10 32.3535 8.61734   2
 -20  -2  10 61.8606 10.2690   4
 -20  -2  10 56.6308 7.49547   2
  20  -2 -10 54.6670 10.5645   3
 -20   2  10 67.1862 10.3279   4
 -20   2  10 58.4759 8.65535   2
  20   2 -10 68.1264 11.7784   3
 -18  -2  10 1.54918 6.95376   4
 -18  -2  10 13.0085 5.10312   2
  18  -2 -10 15.7857 8.28941   3
  18  -2 -10 -2.4757 4.79405   2
 -18   2  10 2.03592 8.27138   4
  18   2 -10 16.4423 8.28926   3
  16  -2 -10 15.6380 5.13304   2
 -16  -2  10 18.8298 8.53996   4
  16  -2 -10 26.6984 7.51790   3
  16   2 -10 16.7745 4.42286   2
  16   2 -10 23.4205 6.91194   3
 -16   2  10 18.9034 8.87084   4
 -14  -2  10 7.20780 7.59591   4
  14  -2 -10 5.88085 5.77063   3
  14  -2 -10 -0.1263 4.57180   2
  14   2 -10 0.07381 3.31688   2
 -14   2  10 14.8706 8.52299   4
  14   2 -10 9.82490 5.75296   3
  12  -2 -10 70.4529 6.78127   2
 -12  -2  10 54.9626 8.61246   4
  12  -2 -10 66.9022 6.97988   3
 -12  -2  10 63.3914 6.41608   2
 -12   2  10 65.7635 7.19808   3
  12   2 -10 64.4407 7.26851   3
  12   2 -10 60.9103 5.73196   2
 -12   2  10 90.4595 10.8188   4
  10  -2 -10 2.16847 3.33858   3
 -10  -2  10 2.27843 3.76125   2
  10  -2 -10 7.53031 3.78017   2
 -10  -2  10 12.5315 6.78315   4
 -10   2  10 15.2624 6.75816   4
  10   2 -10 0.99963 3.40135   2
 -10   2  10 -0.0514 3.44089   3
  10   2 -10 0.14013 3.58131   3
  -8  -2  10 0.02901 3.56963   2
   8  -2 -10 -0.0533 2.24856   3
   8  -2 -10 4.00070 3.65779   2
  -8  -2  10 5.37273 5.68362   4
   8   2 -10 3.36733 3.09228   3
  -8   2  10 4.83532 6.25728   4
   8   2 -10 -1.4963 4.15395   3
  -8   2  10 2.16433 2.10807   3
   8   2 -10 4.39029 3.40482   2
   6  -2 -10 3.86674 3.24369   2
  -6  -2  10 1.70433 3.94775   2
  -6  -2  10 1.78222 5.71282   4
  -6   2  10 -2.8404 5.38866   4
   6   2 -10 4.51165 2.81988   3
   6   2 -10 -0.6048 3.92531   3
   6   2 -10 -0.1491 3.05722   2
   4  -2 -10 54.9303 5.56447   2
  -4  -2  10 49.2503 7.42269   4
   4   2 -10 46.5513 5.03802   3
   4   2 -10 54.7538 6.04587   3
  -4   2  10 48.5806 7.21523   4
   4   2 -10 44.4096 5.33856   2
  -2  -2  10 241.066 15.5359   3
   2  -2 -10 251.213 15.8911   2
  -2  -2  10 269.092 17.7052   4
   2   2 -10 256.512 15.6874   2
  -2   2  10 251.308 16.9995   4
   2   2 -10 249.335 16.0504   3
   0  -2  10 95.5993 9.69652   4
   0  -2 -10 108.205 8.80185   2
   0  -2  10 97.2338 8.51094   3
   0  -2 -10 81.1828 6.46571   3
   0   2 -10 103.754 9.51228   3
   0   2  10 111.030 10.2551   4
   0   2  10 102.471 7.08735   3
   0   2 -10 107.546 8.59286   2
  -2  -2 -10 33.0693 4.55064   3
   2  -2  10 28.9842 6.99232   4
  -2  -2 -10 27.0954 5.51062   2
   2  -2  10 42.3525 6.35223   3
   2   2  10 27.0581 4.94490   3
  -2   2 -10 39.6177 5.79816   2
   2   2  10 55.3038 7.38651   4
  -4  -2 -10 18.2682 5.90800   2
  -4  -2 -10 18.9719 5.24769   3
   4  -2  10 26.3058 6.92320   4
   4  -2  10 8.25014 6.00136   3
   4   2  10 12.1779 6.18094   3
  -4   2 -10 13.7336 5.50510   2
   4   2  10 10.6553 6.40070   4
  -6  -2 -10 96.9899 9.36524   2
   6  -2  10 84.8921 10.1414   3
   6  -2  10 69.6150 9.21480   4
   6   2  10 85.4357 9.45451   3
  -6   2 -10 78.4788 9.17163   2
   6   2  10 88.6818 9.98213   4
   8  -2  10 16.1783 7.47510   3
   8  -2  10 9.34988 7.61469   4
  -8  -2 -10 19.7691 7.04077   2
  -8   2 -10 10.5937 6.94122   2
   8   2  10 7.15596 7.07982   4
   8   2  10 9.82066 7.69939   3
  10  -2  10 37.0651 9.93610   3
 -10  -2 -10 31.2105 7.11964   2
  10   2  10 19.5706 8.95173   3
 -10   2 -10 44.3144 8.20924   2
  10   2  10 23.7198 8.31760   4
 -12  -2 -10 94.8893 11.1377   2
  12  -2  10 92.6806 13.5639   3
  12   2  10 95.4240 13.5874   3
 -12   2 -10 108.427 12.5851   2
  12   2  10 104.894 12.0419   4
  14  -2  10 -2.4577 9.09783   3
 -14  -2 -10 0.70703 8.61906   2
  14   2  10 12.8153 11.7662   3
  14   2  10 -1.3488 9.43113   4
 -14   2 -10 9.38301 9.40246   2
  16  -2  10 20.2860 12.1729   3
 -16  -2 -10 -0.4183 8.36231   2
  16   2  10 5.85964 13.1550   3
 -16   2 -10 21.9653 11.0511   2
 -18  -2 -10 -3.8291 10.9318   2
  18  -2  10 -8.8002 13.5738   3
  18   2  10 -14.666 14.3396   3
 -18   2 -10 18.3712 12.4549   2
  27  -3 -10 16.0506 15.6228   3
  27   3 -10 -4.0463 14.6965   3
 -27   3  10 19.9260 12.1936   2
 -25  -3  10 8.19595 10.7274   4
  25  -3 -10 17.1205 12.6365   3
  25   3 -10 19.0872 14.3852   3
 -25   3  10 17.9591 9.59692   2
 -23  -3  10 81.4095 12.7876   4
  23  -3 -10 106.283 14.7488   3
 -23   3  10 88.1522 12.1280   2
  23   3 -10 88.2652 14.2362   3
 -21  -3  10 131.840 14.1216   4
  21  -3 -10 130.586 14.6539   3
 -21   3  10 140.250 13.3959   2
  21   3 -10 97.2404 14.6393   3
  19  -3 -10 26.6059 6.99846   2
  19  -3 -10 40.1872 9.53288   3
 -19   3  10 28.7454 8.89562   4
  19   3 -10 9.58042 8.92839   3
  17  -3 -10 47.8363 8.79558   3
 -17  -3  10 28.0733 8.39421   4
  17  -3 -10 36.8056 6.77216   2
 -17  -3  10 55.4936 5.88715   2
 -17   3  10 38.3750 10.0826   4
  17   3 -10 52.8240 8.78324   3
  15  -3 -10 339.136 22.9129   3
  15  -3 -10 374.909 22.4813   2
 -15  -3  10 367.324 23.8910   4
  15   3 -10 345.550 21.0446   2
  15   3 -10 351.870 23.1307   3
 -15   3  10 406.894 25.1145   4
  13  -3 -10 111.431 9.77182   2
  13  -3 -10 121.609 10.3973   3
 -13  -3  10 129.410 12.1732   4
  13   3 -10 121.822 10.8554   3
  13   3 -10 126.721 8.79466   2
 -13   3  10 161.172 13.7915   4
  11  -3 -10 -5.0747 4.16840   2
 -11  -3  10 0.60958 3.28525   2
 -11  -3  10 -4.5504 6.33820   4
  11  -3 -10 1.20738 4.07682   3
  11   3 -10 7.53858 2.90692   2
 -11   3  10 -2.0020 5.11183   3
  11   3 -10 6.83707 4.61513   3
 -11   3  10 11.8905 7.44056   4
   9  -3 -10 83.4909 6.13194   3
   9  -3 -10 73.5889 6.85854   2
  -9  -3  10 72.6333 6.38105   2
  -9  -3  10 52.4057 8.89843   4
  -9   3  10 69.5758 6.30794   3
  -9   3  10 61.1511 8.68232   4
   9   3 -10 78.3918 7.31862   3
   9   3 -10 76.5715 5.94738   2
   7  -3 -10 584.696 33.7255   2
  -7  -3  10 620.070 35.1437   4
   7  -3 -10 586.914 32.4149   3
  -7  -3  10 575.878 33.3468   2
  -7   3  10 613.423 35.6183   4
  -7   3  10 594.670 32.5507   3
   7   3 -10 608.226 33.9600   3
   7   3 -10 604.533 33.2322   2
  -5  -3  10 305.334 19.4815   2
  -5  -3  10 340.255 21.2029   4
   5  -3 -10 323.809 19.2434   2
   5   3 -10 345.265 19.4760   3
  -5   3  10 292.866 20.5552   4
   5   3 -10 313.169 18.8090   2
   3  -3 -10 8.46776 4.19042   2
  -3  -3  10 13.0023 6.27178   4
  -3  -3  10 11.6695 4.34556   3
   3   3 -10 9.18344 3.85116   2
  -3   3  10 9.80223 6.22640   4
  -1  -3  10 130.165 10.0330   3
   1  -3 -10 128.073 9.69986   2
  -1  -3  10 127.336 10.7807   4
  -1   3  10 135.851 11.7473   4
   1   3 -10 106.788 9.14448   2
  -1   3  10 114.089 7.73683   3
  -1   3  10 108.593 7.35030   3
  -1  -3 -10 619.398 34.2774   3
   1  -3  10 593.563 35.8390   3
  -1  -3 -10 599.526 35.2588   2
   1  -3  10 641.262 36.2077   4
   1   3  10 617.150 34.5651   3
   1   3  10 639.280 36.6139   4
  -1   3 -10 647.506 35.6718   2
   3  -3  10 28.5966 6.65654   3
  -3  -3 -10 18.1393 4.93216   3
  -3  -3 -10 28.9018 6.08009   2
   3  -3  10 38.1656 6.97400   4
  -3   3 -10 41.4613 6.80094   2
   3   3  10 37.7318 7.60574   4
   3   3  10 43.0634 5.99297   3
  -5  -3 -10 154.724 12.1693   2
   5  -3  10 169.400 12.5402   4
   5  -3  10 146.894 13.7974   3
   5   3  10 167.852 12.5310   3
   5   3  10 131.658 12.9112   4
  -5   3 -10 170.573 13.1286   2
  -7  -3 -10 126.725 11.5464   2
   7  -3  10 140.452 11.1216   4
   7  -3  10 142.535 13.7199   3
   7   3  10 124.553 12.4402   3
  -7   3 -10 129.877 12.1725   2
   7   3  10 140.879 12.7752   4
  -9  -3 -10 315.056 20.4356   2
   9  -3  10 349.886 22.8076   3
   9   3  10 301.183 21.3506   4
   9   3  10 264.659 20.8969   3
  -9   3 -10 277.865 20.4611   2
  11  -3  10 63.1062 11.0675   3
 -11  -3 -10 75.8128 9.48225   2
  11   3  10 56.1332 9.89336   4
  11   3  10 56.3217 11.4579   3
 -11   3 -10 41.9067 9.14968   2
  13  -3  10 27.7303 11.7609   3
 -13  -3 -10 27.4235 8.93125   2
  13   3  10 29.1923 12.5695   3
 -13   3 -10 37.2415 10.2037   2
 -15  -3 -10 44.8000 10.3838   2
  15  -3  10 19.5286 12.5578   3
  15   3  10 50.7243 11.6889   4
 -15   3 -10 32.6997 11.2164   2
  15   3  10 31.9850 12.6179   3
 -17  -3 -10 35.5890 11.1325   2
  17  -3  10 29.1007 14.4680   3
  17   3  10 23.2076 15.7302   3
 -17   3 -10 12.9461 11.1808   2
 -26  -4  10 110.939 16.0791   4
  26  -4 -10 135.187 18.6696   3
 -26   4  10 110.485 14.6783   2
  26   4 -10 114.657 19.9796   3
  24  -4 -10 12.0716 11.8782   3
 -24  -4  10 24.0903 10.1688   4
  24   4 -10 -0.2291 11.8350   3
 -24   4  10 22.2877 9.77458   2
  22  -4 -10 92.0091 13.7128   3
 -22  -4  10 90.1408 13.1097   4
  22   4 -10 83.2003 13.8129   3
 -22   4  10 100.399 12.5544   2
  20  -4 -10 282.963 22.7624   3
 -20  -4  10 305.793 23.3585   4
  20   4 -10 315.803 24.1834   3
 -18  -4  10 100.365 12.3233   4
  18  -4 -10 80.7158 9.25635   2
  18  -4 -10 93.9098 11.2749   3
 -18   4  10 69.3471 11.2489   4
  18   4 -10 56.1483 10.4553   3
 -16  -4  10 64.2934 10.3460   4
  16  -4 -10 50.4792 8.62337   3
 -16   4  10 48.8315 10.3430   4
  16   4 -10 21.3846 7.85173   3
 -14  -4  10 221.902 18.7249   4
  14  -4 -10 260.916 16.9353   2
  14  -4 -10 259.739 18.0234   3
  14   4 -10 262.672 17.9451   3
  14   4 -10 250.653 14.9493   2
 -14   4  10 296.923 20.3224   4
  12  -4 -10 106.126 9.35068   3
 -12  -4  10 110.231 12.1210   4
  12  -4 -10 111.367 9.54877   2
  12   4 -10 112.804 7.62052   2
  12   4 -10 116.546 10.8980   3
 -12   4  10 95.8412 11.7182   4
  10  -4 -10 343.129 20.9186   3
 -10  -4  10 345.678 23.0573   4
  10  -4 -10 357.553 21.4614   2
  10   4 -10 357.462 21.9540   3
  10   4 -10 351.833 20.1320   2
 -10   4  10 386.771 23.9547   4
  -8  -4  10 477.758 29.3986   2
   8  -4 -10 514.761 29.2454   3
  -8  -4  10 532.633 31.7193   4
   8  -4 -10 540.389 30.2982   2
   8   4 -10 547.981 30.9314   3
   8   4 -10 525.465 29.2988   2
  -8   4  10 587.410 32.4311   4
  -8   4  10 518.871 29.6670   3
  -6  -4  10 14.3873 4.49554   2
  -6  -4  10 13.4385 6.88611   4
   6  -4 -10 24.7047 5.35951   2
  -6   4  10 19.2277 6.50429   4
   6   4 -10 22.6906 4.96383   3
   6   4 -10 22.8610 4.06781   2
  -6   4  10 25.2053 4.00173   3
  -6   4  10 19.3802 2.82701   3
  -4  -4  10 341.843 22.0563   4
  -4  -4  10 328.153 20.7734   3
   4  -4 -10 318.620 20.4145   2
  -4   4  10 347.285 19.0113   3
   4   4 -10 356.692 20.1523   2
  -4   4  10 368.197 22.7302   4
  -4   4  10 333.808 19.2734   3
  -2  -4  10 438.987 25.0188   4
  -2  -4  10 430.343 24.8284   3
   2  -4 -10 436.875 24.3195   2
   2   4 -10 389.186 23.8875   2
  -2   4  10 379.199 25.8202   4
  -2   4  10 401.397 22.8250   3
  -2   4  10 396.609 22.9144   3
   0  -4 -10 61.1145 6.52913   2
   0  -4  10 54.5830 7.67554   4
   0  -4  10 43.5426 7.42739   3
   0   4  10 47.5309 7.91448   4
   0   4  10 55.9622 5.52966   3
   0   4 -10 58.0344 7.08031   2
   0   4  10 49.7539 5.59670   3
  -2  -4 -10 179.151 13.1365   2
   2  -4  10 146.775 13.5839   3
   2  -4  10 188.166 13.7738   4
  -2   4 -10 194.056 13.0820   2
   2   4  10 171.515 12.4848   3
   2   4  10 176.617 14.6693   4
   4  -4  10 572.550 33.3094   3
  -4  -4 -10 549.934 32.0111   2
   4  -4  10 564.917 32.1611   4
   4   4  10 565.380 32.2439   3
   4   4  10 533.893 33.5770   4
  -4   4 -10 521.825 32.3857   2
   6  -4  10 468.511 30.1033   3
  -6  -4 -10 464.343 28.8137   2
   6  -4  10 504.139 28.8853   4
  -6   4 -10 464.032 29.7630   2
   6   4  10 457.199 29.4102   3
   6   4  10 539.827 31.1252   4
  -8  -4 -10 65.0033 8.21997   2
  -8  -4 -10 87.0494 10.0770   4
   8  -4  10 84.4392 11.6965   3
   8   4  10 45.3476 9.75808   3
  -8   4 -10 59.1887 8.94006   2
 -10  -4 -10 295.621 19.5823   2
  10  -4  10 259.514 21.1634   3
 -10  -4 -10 265.747 20.3967   4
  10   4  10 279.528 21.3247   3
 -10   4 -10 267.312 20.0144   2
  12  -4  10 347.765 26.0554   3
 -12  -4 -10 366.337 23.9468   2
  12   4  10 353.748 25.7046   4
 -12   4 -10 341.964 24.5435   2
 -14  -4 -10 153.046 15.0943   2
  14  -4  10 139.291 18.2757   3
  14   4  10 190.449 17.3811   4
 -14   4 -10 163.610 16.0748   2
 -16  -4 -10 34.1753 10.7979   2
  16  -4  10 14.9294 12.9995   3
  16   4  10 30.3008 12.4418   4
 -16   4 -10 12.3124 11.6023   2
  16   4  10 19.0384 15.3040   3
 -25  -5  10 24.1655 12.4674   4
  25  -5 -10 11.5380 13.8850   3
 -25   5  10 23.1070 11.4211   2
  25   5 -10 19.1834 15.9214   3
  23  -5 -10 20.7215 12.6792   3
 -23  -5  10 46.2169 12.1340   4
  23   5 -10 26.5618 13.6239   3
 -23   5  10 38.9193 10.6187   2
  21  -5 -10 27.5998 11.5080   3
 -21  -5  10 49.5016 11.0167   4
 -21   5  10 30.9371 9.70258   2
  21   5 -10 56.6991 12.2551   3
  19  -5 -10 63.5917 10.8666   3
  19  -5 -10 45.5337 8.07065   2
 -19  -5  10 40.9719 11.1329   4
  19   5 -10 27.6364 10.1722   3
  17  -5 -10 -2.6474 5.49369   2
  17  -5 -10 3.62988 7.88078   3
 -17  -5  10 -3.8465 8.53557   4
  17   5 -10 5.24497 8.43304   3
 -17   5  10 -9.9878 9.01081   4
 -15  -5  10 134.689 13.8629   4
  15  -5 -10 126.321 12.1996   3
  15  -5 -10 145.670 12.1791   2
  15   5 -10 92.8922 16.6047   3
 -15   5  10 162.909 14.4579   4
 -13  -5  10 116.908 13.0489   4
  13  -5 -10 131.735 11.3527   3
  13  -5 -10 136.331 11.7169   2
 -13   5  10 140.619 13.9293   4
  13   5 -10 130.880 12.3291   3
  11  -5 -10 14.0130 5.43805   2
 -11  -5  10 26.7806 8.29489   4
  11  -5 -10 13.3064 5.28576   3
 -11   5  10 27.0168 7.84048   4
  11   5 -10 11.0979 5.94798   3
   9  -5 -10 100.247 8.44906   3
   9  -5 -10 108.703 9.28534   2
  -9  -5  10 111.757 11.5685   4
   9   5 -10 99.7956 7.53013   2
  -9   5  10 104.196 11.1782   4
   9   5 -10 119.007 10.6458   3
  -7  -5  10 378.316 23.8176   4
   7  -5 -10 363.796 21.7397   2
   7  -5 -10 361.268 20.7185   3
   7   5 -10 345.935 22.7854   3
  -7   5  10 329.086 23.7861   4
   7   5 -10 364.162 20.7105   2
   5  -5 -10 27.1175 5.36654   2
  -5  -5  10 23.3809 7.25709   4
   5   5 -10 17.0804 6.15139   3
   5   5 -10 19.1386 4.49398   2
  -5   5  10 25.7921 7.30635   4
  -5   5  10 18.3195 3.52000   3
  -3  -5  10 7.41451 6.35261   4
   3  -5 -10 10.0662 4.57354   2
  -3  -5  10 16.6894 6.45943   3
   3   5 -10 5.60298 4.41534   2
  -3   5  10 10.4653 3.32050   3
  -3   5  10 22.5663 7.36657   4
  -1  -5  10 205.822 15.0665   4
   1  -5 -10 176.279 13.9440   2
  -1  -5  10 202.685 15.6481   3
  -1   5  10 207.405 12.9177   3
  -1   5  10 211.083 16.8945   4
   1   5 -10 214.594 14.1545   2
   1  -5  10 209.265 14.9798   4
   1  -5  10 218.305 16.2582   3
  -1  -5 -10 202.868 13.8054   2
  -1   5 -10 191.861 14.6200   2
   1   5  10 199.574 13.7990   3
   1   5  10 185.977 16.4296   4
   3  -5  10 3.57118 6.68971   3
   3  -5  10 16.9705 5.83860   4
  -3  -5 -10 19.5376 5.70076   2
  -3  -5 -10 31.2035 7.08172   4
   3   5  10 14.7271 6.00264   3
  -3   5 -10 18.6015 6.78044   2
   5  -5  10 157.560 15.0653   3
   5  -5  10 185.639 12.7910   4
  -5  -5 -10 162.344 14.5602   4
  -5  -5 -10 152.911 13.0216   2
  -5   5 -10 168.023 13.7885   2
   5   5  10 189.928 14.1889   3
  -7  -5 -10 21.5837 7.24277   4
  -7  -5 -10 14.8773 6.39086   2
   7  -5  10 18.3382 9.13154   3
   7   5  10 15.7760 8.09676   3
  -7   5 -10 2.60253 7.48043   2
   9  -5  10 147.819 15.4330   3
  -9  -5 -10 192.539 13.6907   2
  -9  -5 -10 120.418 13.5032   4
   9   5  10 141.175 14.8181   3
  -9   5 -10 168.624 14.6899   2
 -11  -5 -10 152.564 14.7291   4
  11  -5  10 103.490 15.0156   3
 -11  -5 -10 140.804 13.0354   2
  11   5  10 156.325 15.7231   3
 -11   5 -10 142.762 14.1655   2
 -13  -5 -10 4.57119 8.46299   2
 -13  -5 -10 -4.5214 8.92934   4
  13  -5  10 11.6055 11.7831   3
 -13   5 -10 -2.0750 10.0738   2
  13   5  10 0.61120 12.1278   3
 -15  -5 -10 24.7698 11.0278   4
 -15  -5 -10 24.6360 11.7057   2
  15  -5  10 21.1728 12.7416   3
 -15   5 -10 19.6759 10.8533   2
  15   5  10 19.4646 14.7912   3
  24  -6 -10 7.33095 13.0164   3
 -24  -6  10 2.66545 12.4467   4
  24   6 -10 5.78242 15.4737   3
  22  -6 -10 5.82885 11.4550   3
 -22  -6  10 13.9373 11.2377   4
 -22   6  10 7.22717 10.6164   2
  22   6 -10 10.6033 11.7004   3
  20  -6 -10 9.65402 10.1812   3
 -20  -6  10 1.78193 10.4049   4
  20   6 -10 -0.4014 10.1429   3
 -20   6  10 8.43389 8.80194   2
  18  -6 -10 -10.371 5.84167   2
  18  -6 -10 -2.3589 8.78699   3
 -18  -6  10 18.2917 9.40046   4
  18   6 -10 -5.2383 9.64975   3
 -16  -6  10 0.01700 8.17076   4
  16  -6 -10 -2.9338 7.74341   3
  16  -6 -10 -10.688 6.23428   2
 -16   6  10 -5.6467 9.63146   4
  16   6 -10 -4.2869 7.46772   3
 -14  -6  10 68.3925 11.3742   4
  14  -6 -10 113.716 10.9305   3
  14  -6 -10 97.4276 10.0150   2
 -14   6  10 117.155 12.9820   4
  14   6 -10 111.677 12.6918   3
  12  -6 -10 17.8323 5.89838   2
 -12  -6  10 5.57291 7.37372   4
  12  -6 -10 18.0840 6.32700   3
  12   6 -10 8.93645 7.41615   3
 -12   6  10 -7.2171 8.26074   4
  10  -6 -10 19.1996 5.94381   2
  10  -6 -10 31.1417 6.22027   3
 -10  -6  10 29.7362 8.77434   4
  10   6 -10 34.7568 7.32847   3
 -10   6  10 30.4930 9.15569   4
  -8  -6  10 71.0620 10.6696   4
   8  -6 -10 90.7319 7.69648   3
   8  -6 -10 73.7307 8.00371   2
   8   6 -10 77.0086 9.87020   3
  -8   6  10 66.7852 10.0333   4
   6  -6 -10 46.9083 6.80812   2
  -6  -6  10 40.7890 8.92111   4
   6   6 -10 35.5633 5.17776   2
  -6   6  10 42.5716 9.23146   4
   6   6 -10 32.1136 7.88762   3
  -4  -6  10 33.0464 7.55680   4
   4  -6 -10 34.7323 5.93876   2
  -4   6  10 56.4118 8.86369   4
   4   6 -10 24.4060 7.43598   3
   4   6 -10 27.6353 5.41985   2
  -4   6  10 42.1326 5.32577   3
  -2  -6  10 22.1226 7.10460   3
   2  -6 -10 9.65989 5.45917   2
  -2  -6  10 17.2161 6.92775   4
   2   6 -10 14.9075 5.43977   2
  -2   6  10 20.7578 7.49070   4
   0  -6 -10 53.1141 6.76097   2
   0  -6  10 36.7430 8.71553   3
   0  -6  10 41.0910 7.97262   4
   0   6 -10 52.0998 7.42163   2
   0   6  10 55.9481 6.57789   3
   0   6  10 52.2475 10.1200   4
   2  -6  10 3.33027 6.62762   3
  -2  -6 -10 0.84573 7.75002   4
  -2  -6 -10 1.84711 5.23918   2
   2  -6  10 6.71270 5.98852   4
  -2   6 -10 -5.8513 5.24640   2
   2   6  10 -2.4714 5.45017   3
  -4  -6 -10 1.49627 5.53754   2
   4  -6  10 -5.9325 5.21777   4
   4  -6  10 0.58776 8.23115   3
  -4  -6 -10 0.03737 6.58209   4
   4   6  10 2.71716 6.54051   3
  -4   6 -10 4.42701 6.09566   2
  -6  -6 -10 10.4101 6.89739   4
  -6  -6 -10 3.39407 5.95342   2
   6  -6  10 -0.8949 7.90579   3
  -6   6 -10 -7.4960 6.61416   2
   6   6  10 4.61221 7.96504   3
   8  -6  10 4.00728 9.69506   3
  -8  -6 -10 0.87394 7.99283   4
  -8  -6 -10 -1.9807 6.16357   2
   8   6  10 6.86473 8.97350   3
  -8   6 -10 4.41256 8.48771   2
  10  -6  10 106.913 14.1142   3
 -10  -6 -10 77.0836 11.3835   4
  10   6  10 99.1624 13.7075   3
 -10   6 -10 84.9435 12.0415   2
  12  -6  10 3.51277 12.0792   3
 -12  -6 -10 -1.1772 8.19084   4
 -12  -6 -10 4.46759 8.66464   2
  12   6  10 -15.870 11.9896   3
 -12   6 -10 -7.6396 10.0764   2
 -14  -6 -10 -6.2119 9.23301   4
  14  -6  10 14.2456 12.9652   3
 -14   6 -10 -5.1708 11.5888   2
  14   6  10 -14.570 13.4542   3
 -23   7  10 13.2589 11.3844   2
  21  -7 -10 59.1224 14.0597   3
 -21  -7  10 75.7355 14.6715   4
 -21   7  10 88.5361 13.1969   2
  21   7 -10 111.349 17.3818   3
 -19  -7  10 35.5429 12.2113   4
  19  -7 -10 41.5888 11.7066   3
 -19   7  10 42.7178 10.9340   2
  19   7 -10 42.2283 12.9991   3
 -17  -7  10 4.32820 9.10106   4
  17  -7 -10 16.2688 6.89224   2
  17   7 -10 13.3875 10.5919   3
 -15  -7  10 43.2854 10.2652   4
  15  -7 -10 29.7694 8.68323   3
  15  -7 -10 38.6318 8.19753   2
 -15   7  10 31.5983 11.1736   4
  15   7 -10 44.3861 10.1494   3
  13  -7 -10 49.5004 8.37276   3
  13  -7 -10 66.0427 8.59886   2
 -13  -7  10 42.9845 9.91685   4
 -13   7  10 46.3204 10.9101   4
  13   7 -10 39.0599 9.40288   3
  11  -7 -10 15.7519 6.87225   3
  11  -7 -10 22.8911 6.09075   2
 -11  -7  10 32.7275 8.95052   4
  11   7 -10 8.81909 7.22814   3
 -11   7  10 19.8235 9.38444   4
   9  -7 -10 46.2867 6.97071   3
  -9  -7  10 55.9132 9.49964   4
   9  -7 -10 58.3615 7.82990   2
  -9   7  10 38.9809 9.65079   4
   9   7 -10 41.9141 8.64460   3
  -7  -7  10 39.5698 8.43002   4
   7  -7 -10 35.5255 6.75643   2
  -7   7  10 42.0200 6.53082   3
   7   7 -10 21.8869 8.21923   3
  -7   7  10 20.6507 8.96737   4
   5  -7 -10 13.3279 5.80146   2
  -5  -7  10 11.6950 7.81880   4
  -5   7  10 8.76347 5.08848   3
   5   7 -10 0.62353 4.96733   2
  -5   7  10 3.40725 7.43459   4
   3  -7 -10 202.500 14.6596   2
  -3  -7  10 200.116 16.5921   4
  -3   7  10 238.711 20.9306   4
   3   7 -10 214.196 14.7176   2
  -3   7  10 217.703 14.8199   3
   3   7 -10 232.136 19.6616   3
   1  -7 -10 7.19561 5.56403   2
   1  -7 -10 12.4237 6.97438   4
  -1  -7  10 3.86422 6.75596   4
  -1  -7  10 30.1163 8.52901   3
  -1   7  10 8.45302 8.03184   4
  -1   7  10 15.3948 5.69976   3
   1   7 -10 19.4213 6.06724   2
  -1  -7 -10 1.88797 5.49413   2
   1  -7  10 6.33985 8.11125   3
   1  -7  10 6.21721 6.38969   4
  -1  -7 -10 12.8289 6.84616   4
   1   7  10 4.87903 5.89152   3
  -1   7 -10 -1.4940 6.22844   2
  -3  -7 -10 41.3453 7.04453   2
  -3  -7 -10 17.6402 7.70302   4
   3  -7  10 27.9762 9.08574   3
   3  -7  10 40.9619 7.43013   4
  -3   7 -10 43.5504 8.44899   2
   3   7  10 33.5340 7.84708   3
  -5  -7 -10 267.821 16.6125   2
  -5  -7 -10 185.768 17.5639   4
   5  -7  10 207.655 18.9182   3
  -5   7 -10 267.761 17.7710   2
   5   7  10 220.294 17.7621   3
   7  -7  10 15.4430 9.48178   3
  -7  -7 -10 18.5154 8.41214   4
  -7  -7 -10 20.0995 7.25783   2
   7   7  10 19.1732 10.1696   3
  -7   7 -10 21.9677 8.49632   2
   9  -7  10 12.3469 11.2047   3
  -9  -7 -10 34.7999 9.45332   4
  -9  -7 -10 23.7938 11.6159   2
  -9   7 -10 30.6783 9.58320   2
  11  -7  10 36.9227 13.3601   3
 -11  -7 -10 79.6159 12.7663   4
 -11   7 -10 50.6200 11.4630   2
 -13  -7 -10 51.7106 11.7891   4
  13  -7  10 64.5985 14.1698   3
 -13   7 -10 46.5016 12.6930   2
  20  -8 -10 99.1219 15.6420   3
 -20  -8  10 117.296 16.1111   4
  20   8 -10 96.3823 16.4460   3
 -20   8  10 131.693 16.1886   2
  18  -8 -10 -2.6250 9.98012   3
 -18  -8  10 2.64592 10.2939   4
 -18   8  10 3.71191 10.5826   2
  18   8 -10 1.51327 10.7808   3
 -16  -8  10 11.8818 10.2199   4
  16  -8 -10 12.5560 9.61944   3
  16  -8 -10 10.9789 7.62897   2
  16   8 -10 15.6287 10.6532   3
  14  -8 -10 159.304 13.5215   2
  14  -8 -10 140.346 13.4170   3
 -14  -8  10 123.101 14.9924   4
  14   8 -10 120.762 15.2078   3
 -14   8  10 143.938 16.3321   4
 -12  -8  10 15.1609 10.1137   4
  12  -8 -10 2.63601 6.79259   2
  12  -8 -10 11.8084 7.76350   3
  12   8 -10 4.04138 8.45990   3
 -12   8  10 -3.8701 9.72721   4
  10  -8 -10 19.9507 7.51312   3
 -10  -8  10 16.8751 9.44543   4
  10  -8 -10 17.8156 6.42074   2
  10   8 -10 17.0731 8.52872   3
  -8  -8  10 171.932 15.4468   4
   8  -8 -10 157.137 13.2349   2
  -8   8  10 173.862 13.9391   3
   8   8 -10 153.466 15.5065   3
  -8   8  10 171.112 16.4971   4
   6  -8 -10 125.605 11.7276   2
  -6  -8  10 152.054 14.3487   4
  -6   8  10 145.488 15.1527   3
  -6   8  10 145.096 15.4115   4
   6   8 -10 133.197 14.3862   3
   4  -8 -10 -0.6719 5.71048   2
  -4   8  10 0.65530 9.21050   4
   4   8 -10 -1.4868 7.55889   3
   2  -8 -10 27.8945 6.66973   2
  -2  -8  10 29.0256 8.44936   4
  -2  -8  10 21.8220 8.80890   3
   2   8 -10 30.9227 11.0878   2
  -2   8  10 47.9178 10.3056   4
   0  -8 -10 192.073 16.6471   4
   0  -8 -10 180.681 13.3338   2
   0  -8  10 136.726 13.7078   4
   0  -8  10 153.914 15.0535   3
   0   8 -10 178.854 13.7204   2
  -2  -8 -10 68.3630 8.60863   2
   2  -8  10 69.2307 9.23973   4
   2  -8  10 53.8846 10.7266   3
  -2  -8 -10 47.4349 10.2574   4
  -2   8 -10 80.4494 9.84707   2
  -4  -8 -10 29.0780 7.40672   2
  -4  -8 -10 33.6083 9.10639   4
   4  -8  10 32.9489 10.3954   3
  -4   8 -10 58.7895 9.98376   2
   6  -8  10 94.7825 14.5881   3
  -6  -8 -10 108.537 14.0016   4
  -6   8 -10 130.334 13.6980   2
   8  -8  10 76.9885 12.8666   3
  -8  -8 -10 42.7282 10.5846   4
  -8   8 -10 44.4649 11.2853   2
  10  -8  10 68.5251 15.0044   3
 -10  -8 -10 90.5307 14.0996   4
 -10   8 -10 79.8664 13.2773   2
 -12   8 -10 73.7394 14.8570   2
 -17  -9  10 -8.6386 10.6296   4
 -17   9  10 7.54330 11.7007   2
  17   9 -10 16.6910 13.0351   3
  15  -9 -10 -0.4435 8.50796   2
 -15  -9  10 10.0619 10.6493   4
  15   9 -10 7.77662 12.2377   3
 -13  -9  10 -3.5916 10.5750   4
  13  -9 -10 0.06257 6.70853   2
 -13   9  10 8.97010 13.1000   4
  13   9 -10 0.15752 11.1119   3
  11  -9 -10 63.5390 9.43920   2
 -11  -9  10 41.1423 11.0166   4
 -11   9  10 48.1659 12.6254   4
  11   9 -10 39.9304 11.9504   3
   9  -9 -10 17.2562 7.47479   2
  -9  -9  10 26.8824 9.88614   4
   9   9 -10 36.6527 10.3662   3
  -9   9  10 20.2379 11.3691   4
  -7  -9  10 16.0338 9.75913   4
   7  -9 -10 14.5253 6.40848   2
   7   9 -10 4.51205 8.90386   3
  -7   9  10 9.43176 10.3731   4
   5  -9 -10 13.6207 6.63305   2
  -5  -9  10 17.5979 9.66494   4
   5   9 -10 29.4097 10.5695   3
  -5   9  10 23.7330 11.0172   4
   3  -9 -10 12.6486 6.46965   2
  -3  -9  10 12.5836 9.07013   4
  -3   9  10 21.1163 10.2542   4
   3   9 -10 5.61812 10.0817   3
   1  -9 -10 10.3090 8.39564   4
  -1  -9  10 6.94058 9.48538   3
   1  -9 -10 30.0237 7.12677   2
  -1  -9  10 23.0387 8.77869   4
   1  -9  10 25.0534 15.5835   4
   1  -9  10 37.7837 10.3205   3
  -1  -9 -10 55.2281 11.3321   4
   3  -9  10 52.9257 12.4292   3
  -3  -9 -10 56.2269 10.8376   4
  -3   9 -10 48.4981 9.93807   2
  -5  -9 -10 13.6352 9.18101   4
   5  -9  10 16.1570 10.4620   3
  -5   9 -10 28.0940 10.3702   2
   7  -9  10 51.7604 12.6579   3
  -7  -9 -10 18.3068 11.4180   4
  -7   9 -10 22.4955 11.1714   2
  -9   9 -10 2.04657 11.5508   2
 -14 -10  10 8.90083 11.8867   4
 -14  10  10 14.0160 11.0026   2
  14  10 -10 26.8572 13.2294   3
 -12 -10  10 1.71137 11.8992   4
  12 -10 -10 -9.6785 8.24542   2
  12  10 -10 -2.3377 12.5575   3
 -10 -10  10 0.97285 11.0796   4
  10 -10 -10 -1.4702 8.08803   2
 -10  10  10 -0.4995 12.1129   4
  10  10 -10 3.88753 10.8636   3
   8 -10 -10 3.96749 7.45250   2
  -8 -10  10 -1.2881 10.4797   4
  -8  10  10 4.10235 12.0373   4
   8  10 -10 5.36690 10.5233   3
  -6 -10  10 23.8856 10.7521   4
   6 -10 -10 21.5165 7.61884   2
   6  10 -10 22.1775 12.0978   3
  -6  10  10 16.2241 11.3405   4
   4 -10 -10 4.61208 7.46343   2
  -4 -10  10 -4.3917 9.47515   4
   4  10 -10 3.56889 11.6077   3
  -4  10  10 -0.4380 11.3202   4
   2 -10 -10 4.20523 7.37166   2
  -2 -10  10 7.23337 10.0309   4
   2  10 -10 -3.7041 10.3605   3
  -2  10  10 4.91897 11.1562   4
   0 -10  10 -17.252 10.0137   3
   0 -10 -10 -7.2905 8.98427   4
  -2 -10 -10 -2.1826 9.40216   4
   2 -10  10 11.9250 10.5718   3
  -4 -10 -10 -4.1283 9.71508   4
   4 -10  10 10.3181 12.6136   3
   6 -10  10 17.7319 12.1939   3
  -6 -10 -10 -7.1970 11.2186   4
  -6  10 -10 11.3412 12.8208   2
   9 -11 -10 -0.4913 8.87847   2
  -9 -11  10 9.58374 12.4673   4
  -9  11  10 10.5343 14.3827   4
   9  11 -10 -4.6372 13.7570   3
   7 -11 -10 47.8949 9.99693   2
  -7 -11  10 24.7393 12.9445   4
  -7  11  10 30.6292 13.9542   4
   5 -11 -10 -0.0400 8.66718   2
  -5 -11  10 6.10377 11.8371   4
   5  11 -10 -8.5124 20.6656   3
  -5  11  10 5.73788 14.3320   4
  -3 -11  10 -1.4966 11.1138   4
  -3  11  10 27.2683 14.5677   4
   1 -11 -10 2.04413 10.6407   4
   1  11 -10 -1.4847 14.3604   3
  -1  11  10 29.6692 14.0539   4
  28   0 -11 -6.1192 15.6575   3
 -26   0  11 -8.6401 9.04572   2
  26   0 -11 0.00356 11.4701   3
 -24   0  11 5.58957 9.77981   4
 -24   0  11 2.04402 7.81666   2
  24   0 -11 -3.1462 11.2332   3
  22   0 -11 -5.8763 8.78439   3
 -22   0  11 -2.7698 6.67544   2
 -22   0  11 0.70506 8.30014   4
  20   0 -11 -5.3774 5.21061   2
  20   0 -11 -0.6970 8.64103   3
 -20   0  11 -0.7819 8.52397   4
  18   0 -11 -2.7722 7.28094   3
  18   0 -11 2.98852 4.93901   2
 -18   0  11 2.89717 8.52584   4
 -16   0  11 -8.9324 8.18768   4
  16   0 -11 -4.4616 6.41120   3
  16   0 -11 1.81846 4.46519   2
  14   0 -11 2.53466 4.28218   2
  14   0 -11 -0.3977 5.16911   3
 -14   0  11 1.02165 8.28149   4
  12   0 -11 -1.4513 3.33781   2
 -12   0  11 -1.3255 7.71538   4
 -12   0  11 -0.3655 4.38593   3
  12   0 -11 1.02647 4.27987   3
 -10   0  11 -2.7119 3.10751   3
  10   0 -11 -5.2116 3.38316   2
 -10   0  11 7.35442 7.03888   4
  10   0 -11 1.84986 3.42601   3
   8   0 -11 0.72861 2.41739   3
   8   0 -11 0.20602 3.61720   2
  -8   0  11 0.49070 6.59927   4
   8   0 -11 -4.2771 2.64602   3
  -6   0  11 -6.4005 6.14705   4
   6   0 -11 1.12532 1.91935   3
   6   0 -11 2.45646 2.44990   3
   6   0 -11 -1.6427 3.11093   2
  -4   0  11 3.47711 5.99366   4
   4   0 -11 0.57543 1.72822   3
   4   0 -11 -0.6017 2.39365   3
   4   0 -11 2.83722 3.40890   2
   2   0 -11 -0.0446 3.02227   3
   2   0 -11 10.3965 3.92069   2
  -2   0  11 1.78608 2.44598   3
  -2   0  11 1.46855 6.25577   4
   0   0  11 6.43348 5.85263   4
   0   0 -11 1.69621 3.98413   3
   0   0 -11 4.75007 4.54596   2
   0   0  11 -4.8513 3.25076   3
   2   0  11 -2.8488 4.29384   3
   2   0  11 5.35183 6.30271   4
  -2   0 -11 -3.7775 4.95601   3
  -2   0 -11 1.45222 5.10488   2
   4   0  11 -3.9125 5.42935   3
  -4   0 -11 8.39863 5.19358   2
   4   0  11 7.72644 6.34896   4
   6   0  11 3.98536 6.69222   4
  -6   0 -11 -10.527 5.33765   2
   6   0  11 -1.7387 6.28384   3
   8   0  11 7.26123 7.28675   3
   8   0  11 -11.055 6.69738   4
  -8   0 -11 6.81725 6.41184   2
  10   0  11 -1.6189 8.27671   3
  10   0  11 -11.841 7.21977   4
 -10   0 -11 -2.2039 6.68672   2
 -12   0 -11 -1.4329 7.42138   2
  12   0  11 2.97605 9.73578   3
  14   0  11 9.52583 10.9077   3
 -14   0 -11 -9.4940 9.22385   2
 -16   0 -11 -4.2545 9.14806   2
  16   0  11 -6.1885 11.8031   3
 -18   0 -11 12.1507 11.2541   2
  27  -1 -11 40.0225 15.7514   3
 -27   1  11 24.4702 10.5060   2
  27   1 -11 28.6346 15.5697   3
  25  -1 -11 7.46475 13.0048   3
 -25  -1  11 18.0755 10.0189   4
 -25  -1  11 8.68576 8.51238   2
 -25   1  11 12.1085 9.29320   2
  25   1 -11 13.5582 11.8243   3
 -23  -1  11 50.1257 8.58999   2
  23  -1 -11 30.7595 12.0436   3
 -23  -1  11 46.4217 10.3322   4
 -23   1  11 34.2096 9.27620   2
 -23   1  11 72.5901 10.5790   4
  23   1 -11 15.3000 11.7118   3
  21  -1 -11 143.299 15.1166   3
 -21  -1  11 147.834 14.7256   4
 -21  -1  11 154.777 12.6840   2
 -21   1  11 142.534 14.5694   4
 -21   1  11 159.031 15.0894   2
  21   1 -11 206.884 17.1940   3
  19  -1 -11 15.9124 5.92607   2
 -19  -1  11 11.9377 8.65291   4
  19   1 -11 19.7292 5.44029   2
  19   1 -11 24.0788 8.63714   3
 -19   1  11 16.4122 8.85523   4
 -17  -1  11 6.60835 7.67207   4
  17  -1 -11 6.91646 7.27791   3
  17  -1 -11 -5.0757 4.80340   2
  17   1 -11 10.4125 4.74955   2
  17   1 -11 2.11774 6.96293   3
 -17   1  11 -5.4722 8.27536   4
  15  -1 -11 124.129 11.2412   3
  15  -1 -11 133.159 10.4801   2
 -15  -1  11 117.879 13.1976   4
  15   1 -11 143.847 11.9181   3
 -15   1  11 133.848 13.8235   4
  15   1 -11 126.745 9.67445   2
 -13  -1  11 173.621 15.0996   4
  13  -1 -11 167.024 12.1856   2
  13  -1 -11 184.499 13.1253   3
  13   1 -11 194.369 13.2261   3
  13   1 -11 186.895 12.2181   2
 -13   1  11 176.707 15.9561   4
 -11  -1  11 82.6507 10.0981   4
  11  -1 -11 83.6745 7.25428   3
  11  -1 -11 81.0803 7.25104   2
  11   1 -11 106.677 7.54429   2
  11   1 -11 72.9572 7.36680   3
 -11   1  11 78.4517 10.4908   4
 -11   1  11 83.6663 6.97068   3
  -9  -1  11 287.877 20.4999   4
   9  -1 -11 289.461 17.3289   3
   9  -1 -11 302.575 18.3161   2
  -9  -1  11 288.918 17.7617   3
  -9   1  11 312.848 20.7769   4
   9   1 -11 299.292 17.8070   3
   9   1 -11 327.276 17.8780   2
  -9   1  11 302.180 17.0780   3
   7  -1 -11 161.222 11.3035   2
  -7  -1  11 167.784 14.2058   4
   7  -1 -11 162.605 9.27105   3
   7   1 -11 170.277 10.7676   2
  -7   1  11 131.541 12.9920   4
   7   1 -11 168.157 10.3988   3
  -5  -1  11 42.5898 8.25770   4
   5  -1 -11 20.5399 4.21229   2
   5   1 -11 20.4819 3.24285   3
   5   1 -11 25.3775 4.29208   2
   5   1 -11 28.3057 3.98880   3
  -5   1  11 22.4011 6.74185   4
  -3  -1  11 946.199 51.4128   3
  -3  -1  11 917.222 53.4079   4
   3  -1 -11 938.167 52.1697   2
  -3   1  11 965.243 53.4515   4
   3   1 -11 941.512 52.0992   2
  -1  -1  11 287.299 17.4799   3
  -1  -1  11 313.034 20.2646   4
   1  -1 -11 317.639 18.1349   2
   1  -1 -11 268.681 16.5930   3
  -1   1  11 288.109 19.4467   4
   1   1 -11 302.097 18.0783   2
  -1   1  11 312.271 16.6575   3
   1   1 -11 271.898 17.9273   3
  -1  -1 -11 95.5532 8.46588   2
   1  -1  11 89.2294 9.87664   4
  -1  -1 -11 86.2712 7.03422   3
  -1   1 -11 73.1339 8.31304   3
   1   1  11 94.5813 7.13919   3
  -1   1 -11 65.2887 7.56028   2
   1   1  11 90.5712 10.0443   4
   3  -1  11 101.904 9.57736   3
   3  -1  11 109.674 10.6978   4
  -3  -1 -11 96.2371 9.21896   2
  -3   1 -11 99.9459 9.49229   2
   3   1  11 107.329 9.05595   3
   3   1  11 103.215 10.7150   4
   5  -1  11 183.341 14.6867   3
   5  -1  11 210.461 15.2042   4
  -5  -1 -11 185.361 14.0570   2
  -5   1 -11 169.322 14.0857   2
   5   1  11 195.066 15.2554   4
   5   1  11 173.894 13.8940   3
   7  -1  11 -0.2402 6.96779   4
   7  -1  11 -7.9106 6.90712   3
  -7  -1 -11 3.55088 6.62564   2
   7   1  11 5.40777 7.19901   4
  -7   1 -11 2.81088 6.09276   2
   7   1  11 -2.2309 6.99849   3
   9  -1  11 407.800 26.0123   4
  -9  -1 -11 426.749 27.5745   2
   9  -1  11 381.972 26.9727   3
   9   1  11 352.015 26.9948   3
   9   1  11 441.620 26.6750   4
  -9   1 -11 445.591 26.2067   2
 -11  -1 -11 107.081 12.2841   2
  11  -1  11 120.602 15.2388   3
  11   1  11 102.754 13.1683   3
 -11   1 -11 94.1111 12.3351   2
  11   1  11 113.288 12.4686   4
 -13  -1 -11 19.0662 8.41026   2
  13  -1  11 20.9847 10.9571   3
  13   1  11 28.3512 11.0628   3
 -13   1 -11 16.8962 9.08069   2
 -15  -1 -11 58.1691 11.9255   2
  15  -1  11 44.1886 12.1001   3
 -15   1 -11 77.3908 11.6910   2
  15   1  11 74.2638 15.1151   3
 -17  -1 -11 24.9104 11.6392   2
  17  -1  11 24.1511 14.2650   3
 -17   1 -11 23.2608 11.2014   2
  17   1  11 33.9418 15.5219   3
 -26  -2  11 20.2096 11.2860   4
  26  -2 -11 23.7527 13.8989   3
 -26   2  11 27.6457 9.72229   2
  26   2 -11 16.6190 14.9586   3
 -24  -2  11 20.8518 9.80577   4
  24  -2 -11 5.65176 12.0827   3
  24   2 -11 8.11507 11.3824   3
 -24   2  11 26.6996 9.15546   2
 -22  -2  11 114.607 14.0262   4
  22  -2 -11 123.904 14.9304   3
 -22  -2  11 152.402 12.2675   2
 -22   2  11 131.547 13.5652   4
 -22   2  11 137.881 12.7953   2
  22   2 -11 110.678 15.2930   3
  20  -2 -11 72.1883 8.46135   2
 -20  -2  11 74.7411 12.2262   4
 -20  -2  11 51.4212 7.20759   2
  20  -2 -11 34.2981 9.91243   3
 -20   2  11 36.6123 10.1641   4
  20   2 -11 41.0197 9.76910   3
  18  -2 -11 -2.0411 4.90409   2
  18  -2 -11 5.94883 7.45178   3
 -18  -2  11 -0.5113 7.13008   4
  18   2 -11 1.94593 7.84771   3
 -18   2  11 -4.8653 8.43896   4
  18   2 -11 3.31299 4.54007   2
  16  -2 -11 192.094 14.8857   3
 -16  -2  11 171.248 15.5957   4
  16  -2 -11 184.934 13.6836   2
  16   2 -11 181.203 12.4626   2
  16   2 -11 167.791 14.7553   3
 -16   2  11 209.462 17.0785   4
  14  -2 -11 148.844 11.7611   2
 -14  -2  11 139.990 13.8833   4
  14  -2 -11 154.178 12.2245   3
  14   2 -11 180.329 13.0237   3
 -14   2  11 144.425 14.4378   4
  14   2 -11 147.463 10.6814   2
  12  -2 -11 290.181 18.1705   3
 -12  -2  11 267.204 20.3697   4
  12  -2 -11 300.542 18.1455   2
  12   2 -11 295.839 18.5967   3
 -12   2  11 287.308 18.1502   3
 -12   2  11 332.065 22.1374   4
  12   2 -11 295.755 17.5485   2
  10  -2 -11 571.394 33.6568   2
 -10  -2  11 601.889 35.8240   4
  10  -2 -11 593.587 32.8840   3
 -10   2  11 589.214 35.6298   4
  10   2 -11 627.575 33.1622   2
 -10   2  11 567.305 32.7327   3
  10   2 -11 601.229 33.7306   3
  -8  -2  11 30.8334 7.39461   4
   8  -2 -11 37.2580 3.43726   3
   8  -2 -11 33.2917 5.21999   2
  -8   2  11 35.1718 7.55700   4
   8   2 -11 30.0583 5.58900   3
  -8   2  11 36.4084 2.84084   3
   8   2 -11 34.8907 4.67705   3
   8   2 -11 27.8154 4.49031   2
   6  -2 -11 245.346 15.6926   2
  -6  -2  11 277.431 18.0434   4
   6   2 -11 239.062 15.6688   3
  -6   2  11 243.597 17.5397   4
   6   2 -11 253.550 15.1047   3
   6   2 -11 238.136 15.2621   2
  -4  -2  11 822.325 43.4584   3
   4  -2 -11 747.071 43.6529   2
  -4  -2  11 785.230 45.1075   4
   4   2 -11 782.751 43.6299   2
  -4   2  11 779.494 45.1686   4
   4   2 -11 781.676 43.7161   3
   2  -2 -11 69.0831 6.68271   2
  -2  -2  11 46.5600 8.69849   4
   2   2 -11 43.1951 6.40816   3
   2   2 -11 41.9008 5.70876   2
  -2   2  11 34.5946 7.72425   4
   0  -2  11 135.140 10.8782   3
   0  -2 -11 144.782 11.0985   2
   0  -2 -11 141.031 8.92651   3
   0  -2  11 166.297 13.1473   4
   0   2 -11 150.429 10.8876   2
   0   2  11 156.607 13.0570   4
   0   2  11 134.811 9.33915   3
   2  -2  11 190.560 13.4168   3
  -2  -2 -11 186.358 12.8001   2
   2  -2  11 178.225 14.2542   4
  -2  -2 -11 182.448 11.8237   3
  -2   2 -11 195.306 13.5631   2
   2   2  11 154.320 12.0130   3
   2   2  11 155.615 13.8540   4
   4  -2  11 69.4913 9.42008   4
  -4  -2 -11 61.7297 7.75239   2
   4  -2  11 60.6104 8.64210   3
   4   2  11 63.4474 7.54453   3
  -4   2 -11 64.0037 8.30456   2
   4   2  11 58.4892 8.68189   4
  -6  -2 -11 -0.0872 6.58753   2
   6  -2  11 22.0701 7.61679   4
   6  -2  11 9.21763 7.37699   3
   6   2  11 20.2404 7.28972   3
   6   2  11 -2.8352 7.10993   4
  -6   2 -11 21.4081 7.12507   2
   8  -2  11 111.346 11.3867   4
   8  -2  11 121.905 12.1251   3
  -8  -2 -11 101.138 10.6919   2
   8   2  11 116.801 12.3072   3
   8   2  11 126.993 12.2333   4
  -8   2 -11 102.888 11.6235   2
  10  -2  11 287.977 22.3284   3
 -10  -2 -11 272.457 19.8338   2
  10   2  11 278.042 22.5855   3
 -10   2 -11 323.411 21.5913   2
  10   2  11 296.026 21.9991   4
  12  -2  11 193.197 17.9921   3
 -12  -2 -11 158.111 15.1865   2
  12   2  11 182.984 19.6268   3
  12   2  11 177.236 16.5266   4
 -12   2 -11 185.323 16.2712   2
 -14  -2 -11 113.321 13.7284   2
  14  -2  11 123.810 15.4063   3
 -14   2 -11 159.841 15.2755   2
  14   2  11 119.613 16.6016   3
  16  -2  11 -0.2074 12.8906   3
 -16  -2 -11 -1.7968 10.2282   2
 -16   2 -11 -0.3816 10.4869   2
  16   2  11 3.07811 13.6849   3
 -27  -3  11 28.9320 12.8496   4
  27  -3 -11 3.98966 14.8759   3
  27   3 -11 -0.0526 16.5832   3
 -27   3  11 23.2418 10.8831   2
  25  -3 -11 36.2868 13.7849   3
 -25  -3  11 24.2288 11.3596   4
  25   3 -11 32.6886 14.3691   3
 -25   3  11 32.8271 11.0561   2
  23  -3 -11 16.5063 11.0463   3
 -23  -3  11 -1.8020 10.2331   4
  23   3 -11 -0.9608 11.6441   3
 -23   3  11 10.0995 9.23479   2
  21  -3 -11 118.718 11.2979   2
 -21  -3  11 115.853 13.8034   4
 -21   3  11 109.782 13.1932   4
  21   3 -11 113.410 15.0179   3
 -21   3  11 130.542 12.4727   2
 -19  -3  11 55.1341 10.7335   4
  19  -3 -11 96.8895 11.2502   3
  19  -3 -11 50.9302 7.92215   2
 -19   3  11 73.6908 11.4542   4
  19   3 -11 83.2856 11.0934   3
  17  -3 -11 68.4980 9.46347   3
 -17  -3  11 42.3534 9.97809   4
  17  -3 -11 56.8214 7.22143   2
  17   3 -11 55.1027 5.82174   2
 -17   3  11 26.7864 10.0941   4
  17   3 -11 62.6028 9.13035   3
 -15  -3  11 254.062 19.6702   4
  15  -3 -11 236.129 17.1031   3
  15   3 -11 248.602 17.7380   3
  15   3 -11 213.989 14.6752   2
 -15   3  11 285.701 20.4988   4
  13  -3 -11 232.036 15.8133   2
 -13  -3  11 238.389 18.4515   4
  13  -3 -11 236.622 15.9799   3
  13   3 -11 260.800 16.9492   3
 -13   3  11 246.703 19.7753   4
 -11  -3  11 13.5098 4.68406   2
  11  -3 -11 9.32935 4.18615   3
  11  -3 -11 4.65973 4.29440   2
 -11  -3  11 13.4354 7.60424   4
  11   3 -11 7.39063 4.92977   3
 -11   3  11 19.8555 7.46837   4
  -9  -3  11 90.7498 7.50862   2
   9  -3 -11 74.4414 7.36355   2
   9  -3 -11 83.7942 6.45919   3
  -9  -3  11 84.9590 10.2017   4
   9   3 -11 73.6693 6.68004   2
  -9   3  11 107.093 11.0516   4
  -9   3  11 78.2228 6.21429   3
   9   3 -11 88.6269 8.07117   3
  -7  -3  11 744.284 44.1707   4
   7  -3 -11 755.006 42.8080   2
  -7   3  11 769.687 44.3966   4
   7   3 -11 757.053 42.8150   3
   7   3 -11 786.867 42.2976   2
   5  -3 -11 4.44430 4.05514   2
  -5  -3  11 8.90743 6.39979   4
   5   3 -11 3.20475 3.80941   2
  -5   3  11 12.4997 6.43220   4
   5   3 -11 -0.9080 3.53367   3
   3  -3 -11 49.8478 6.75754   2
  -3  -3  11 68.5818 9.18445   4
  -3  -3  11 74.7495 7.07505   3
   3   3 -11 69.4048 6.95441   2
  -3   3  11 63.4997 8.92809   4
  -1  -3  11 843.280 46.7782   4
  -1  -3  11 813.496 45.7826   3
   1  -3 -11 834.789 45.6474   2
  -1   3  11 814.526 46.9879   4
  -1   3  11 803.934 44.1733   3
  -1   3  11 795.335 44.0208   3
   1   3 -11 815.827 45.7133   2
   1  -3  11 32.1147 7.89430   4
  -1  -3 -11 35.9797 6.13352   2
   1  -3  11 35.2412 6.71426   3
   1   3  11 56.7310 5.03416   3
   1   3  11 42.6183 8.16607   4
  -1   3 -11 43.2333 6.43492   2
   3  -3  11 16.9241 6.81886   3
  -3  -3 -11 5.03938 5.64324   2
   3  -3  11 7.24024 7.03327   4
   3   3  11 16.9443 7.10228   4
  -3   3 -11 9.01150 6.32009   2
  -5  -3 -11 103.058 10.1025   2
   5  -3  11 95.7821 11.0188   3
   5  -3  11 76.6491 9.85951   4
  -5   3 -11 102.593 10.8544   2
   5   3  11 86.9706 10.6808   4
   7  -3  11 49.6332 8.27625   4
  -7  -3 -11 55.7092 8.52744   2
   7  -3  11 71.8469 9.90359   3
   7   3  11 62.9426 10.2347   4
  -7   3 -11 62.2519 9.93352   2
   7   3  11 58.5097 9.40459   3
   9  -3  11 95.6828 14.1165   3
   9   3  11 75.3681 11.3825   4
  -9   3 -11 94.8372 10.8285   2
   9   3  11 75.9532 11.5609   3
 -11  -3 -11 78.1514 11.1384   2
  11  -3  11 115.422 14.4687   3
 -11   3 -11 96.0656 11.6059   2
  11   3  11 102.201 14.8153   4
  11   3  11 76.7187 12.7523   3
 -13  -3 -11 54.6186 9.54994   2
  13  -3  11 39.3155 11.9741   3
  13   3  11 47.4066 12.5808   3
 -13   3 -11 43.2336 10.5019   2
  13   3  11 62.2575 12.1227   4
 -15  -3 -11 29.0507 10.7581   2
  15  -3  11 15.9351 13.4438   3
  15   3  11 27.4730 13.9792   3
 -15   3 -11 1.05394 9.78174   2
  17  -3  11 6.03245 14.4405   3
 -17  -3 -11 23.5009 10.9628   2
 -17   3 -11 19.5918 13.2258   2
  17   3  11 25.1553 15.5760   3
 -26  -4  11 14.2750 12.4256   4
  26  -4 -11 12.7315 12.7133   3
 -26   4  11 14.1383 10.6060   2
  26   4 -11 3.41895 14.3093   3
 -24  -4  11 -13.618 10.7775   4
  24  -4 -11 5.34420 12.1068   3
  24   4 -11 -6.5107 13.1386   3
 -24   4  11 -4.8340 9.68573   2
 -22  -4  11 -8.3872 9.76956   4
  22  -4 -11 -7.0402 9.85848   3
  22   4 -11 -15.248 10.6618   3
 -22   4  11 -2.1351 8.04488   2
  20  -4 -11 8.08729 6.45709   2
 -20  -4  11 7.01766 8.51416   4
  20  -4 -11 6.59494 8.68512   3
  20   4 -11 -2.5989 9.69181   3
 -18  -4  11 -1.9357 7.86891   4
  18  -4 -11 8.29712 7.86139   3
  18  -4 -11 12.5050 6.70849   2
  18   4 -11 7.40606 7.74826   3
 -18   4  11 13.6886 10.2261   4
  16  -4 -11 21.4156 5.88978   2
  16  -4 -11 2.39656 6.77877   3
 -16  -4  11 3.36349 8.67216   4
  16   4 -11 6.96051 6.82254   3
 -16   4  11 0.09392 9.50575   4
  14  -4 -11 101.287 9.57541   2
  14  -4 -11 99.6050 9.62587   3
 -14  -4  11 95.1054 12.5216   4
  14   4 -11 90.6405 10.2076   3
 -14   4  11 87.5994 12.0549   4
  14   4 -11 106.025 7.34733   2
  12  -4 -11 8.67331 4.79967   3
 -12  -4  11 0.47883 7.64911   4
  12  -4 -11 12.0022 5.26113   2
 -12   4  11 15.9304 8.52771   4
  12   4 -11 7.27682 3.36141   2
  12   4 -11 3.50529 5.21844   3
  10  -4 -11 34.5918 5.93515   2
  10  -4 -11 29.4393 4.69997   3
 -10  -4  11 35.9522 8.26686   4
  10   4 -11 34.9394 6.34670   3
  10   4 -11 27.7840 4.26360   2
 -10   4  11 29.3286 8.32590   4
  -8  -4  11 201.854 16.0248   4
  -8  -4  11 178.656 13.1123   2
   8  -4 -11 189.422 11.6869   3
   8  -4 -11 188.670 13.2856   2
  -8   4  11 220.484 16.1155   4
   8   4 -11 207.264 14.0877   3
   6  -4 -11 5.99359 4.36778   2
  -6  -4  11 0.07634 6.98678   4
  -6   4  11 4.65423 6.90414   4
  -6   4  11 -1.2345 1.83580   3
   6   4 -11 -1.0068 4.54337   3
  -6   4  11 -6.5472 2.97404   3
   6   4 -11 4.87260 3.77022   2
  -4  -4  11 38.5197 6.64994   3
   4  -4 -11 54.7162 6.68237   2
  -4  -4  11 59.1121 8.99916   4
  -4   4  11 41.4580 3.51626   3
  -4   4  11 47.1375 3.88342   3
   4   4 -11 41.6878 5.78596   2
  -4   4  11 37.3027 7.79152   4
  -2  -4  11 31.6941 7.83444   4
  -2  -4  11 52.2253 7.17184   3
   2  -4 -11 43.9709 6.25542   2
   2   4 -11 30.7048 5.90420   2
  -2   4  11 44.2826 4.25180   3
  -2   4  11 34.6788 7.87414   4
   0  -4 -11 0.59301 4.53478   2
   0  -4  11 7.99074 5.52464   3
   0  -4  11 -6.2470 6.23411   4
   0   4  11 -0.8989 6.69354   4
   0   4  11 -0.6203 3.88408   3
   0   4 -11 -4.1473 5.18424   2
   2  -4  11 -0.4888 6.77745   3
   2  -4  11 -0.1169 6.41530   4
  -2  -4 -11 7.73662 5.12825   2
   2   4  11 11.6097 5.32968   3
  -2   4 -11 13.9423 5.93279   2
   2   4  11 17.3629 7.71433   4
   4  -4  11 5.46090 6.05135   4
  -4  -4 -11 2.24695 5.57459   2
   4  -4  11 -8.5176 6.36778   3
   4   4  11 0.71651 6.15173   3
   4   4  11 1.77952 7.60000   4
  -4   4 -11 4.56767 6.79831   2
  -6  -4 -11 10.6943 6.24722   2
   6  -4  11 9.42204 8.28762   3
   6  -4  11 -3.6427 5.80321   4
   6   4  11 0.27172 7.74981   4
   6   4  11 -1.3013 7.09371   3
   8  -4  11 -0.8075 8.73633   3
  -8  -4 -11 -2.2625 6.73559   2
   8   4  11 4.69260 9.88908   4
  -8   4 -11 -2.5618 6.87523   2
   8   4  11 3.48254 8.39460   3
 -10  -4 -11 30.0546 8.53334   2
  10  -4  11 33.7171 10.1894   3
  10   4  11 2.52735 9.91139   3
  10   4  11 40.9943 10.2604   4
 -10   4 -11 34.8894 8.76427   2
  12  -4  11 12.0195 10.2894   3
 -12  -4 -11 -0.7297 7.29129   2
  12   4  11 -4.0024 9.39366   4
 -12   4 -11 1.37421 8.58534   2
 -14  -4 -11 6.87975 9.59658   2
  14  -4  11 18.2657 12.9520   3
 -14   4 -11 13.4690 10.6565   2
  14   4  11 -10.660 13.3926   3
  14   4  11 6.48261 11.4528   4
  16  -4  11 -1.0597 12.8602   3
 -16  -4 -11 3.68536 10.5285   2
  16   4  11 25.1052 15.8489   3
  25  -5 -11 22.9399 14.6319   3
 -25  -5  11 12.2401 12.5429   4
 -25   5  11 6.69968 10.8252   2
  25   5 -11 8.84732 13.7581   3
  23  -5 -11 22.1317 12.8069   3
 -23  -5  11 32.3619 12.4074   4
 -23   5  11 2.60538 9.60287   2
  23   5 -11 31.4653 12.8341   3
 -21  -5  11 132.866 14.9957   4
  21  -5 -11 137.228 15.6118   3
 -21   5  11 125.869 14.0556   2
  21   5 -11 107.049 15.5049   3
  19  -5 -11 71.8192 11.3625   3
  19  -5 -11 75.4502 9.44247   2
 -19  -5  11 63.6265 12.4257   4
  19   5 -11 102.421 12.6582   3
 -17  -5  11 19.4195 8.64209   4
  17  -5 -11 15.4240 6.26282   2
  17  -5 -11 22.2503 8.26902   3
 -17   5  11 16.2737 10.6549   4
  17   5 -11 26.8019 9.44155   3
  15  -5 -11 70.4755 9.14467   3
 -15  -5  11 66.1958 11.4496   4
  15  -5 -11 93.0059 9.30251   2
 -15   5  11 53.3860 11.4934   4
  13  -5 -11 185.583 13.6834   3
 -13   5  11 143.067 15.4333   4
  13   5 -11 181.911 14.8536   3
  11  -5 -11 361.107 21.8535   3
  11  -5 -11 358.058 22.3049   2
 -11  -5  11 347.872 24.7753   4
  11   5 -11 390.916 23.3142   3
 -11   5  11 338.466 24.9429   4
  -9  -5  11 22.2287 7.59789   4
   9  -5 -11 18.3626 4.36078   3
   9  -5 -11 26.4834 5.48010   2
   9   5 -11 13.3833 6.23129   3
   9   5 -11 18.5604 3.93542   2
  -9   5  11 15.0152 8.46767   4
  -7  -5  11 88.0302 10.5445   4
   7  -5 -11 85.8670 8.45040   2
   7   5 -11 75.4493 7.20486   2
  -7   5  11 74.9231 6.29886   3
  -7   5  11 75.4614 10.7264   4
   7   5 -11 91.2327 9.11251   3
  -5  -5  11 324.611 22.7116   4
   5  -5 -11 345.941 20.9966   2
  -5   5  11 348.598 19.3966   3
  -5   5  11 334.323 23.5336   4
   5   5 -11 356.628 22.1490   3
   5   5 -11 322.077 20.4597   2
  -3  -5  11 277.508 18.2022   3
   3  -5 -11 257.394 17.2891   2
  -3  -5  11 264.991 19.0867   4
   3   5 -11 273.076 17.2236   2
  -3   5  11 269.274 19.5192   4
  -3   5  11 271.759 15.9233   3
  -1  -5  11 214.540 15.6230   4
   1  -5 -11 205.562 13.8241   2
  -1  -5  11 200.359 15.6779   3
   1   5 -11 188.683 14.2167   2
  -1   5  11 196.924 12.9730   3
  -1   5  11 179.619 15.9293   4
   1  -5  11 132.795 13.0113   3
   1  -5  11 167.115 13.0199   4
  -1  -5 -11 129.412 11.7016   2
  -1   5 -11 178.859 12.5343   2
   1   5  11 147.503 11.8724   3
   1   5  11 178.088 15.0126   4
   3  -5  11 34.1309 6.81709   4
   3  -5  11 38.2447 8.52368   3
  -3  -5 -11 21.0653 6.32952   2
   3   5  11 28.2483 6.67212   3
  -3   5 -11 35.7484 7.67637   2
   3   5  11 34.3113 8.57967   4
   5  -5  11 131.121 11.2257   4
  -5  -5 -11 124.724 11.0182   2
   5  -5  11 119.940 13.3159   3
   5   5  11 108.827 11.6051   3
   5   5  11 128.246 13.7487   4
  -5   5 -11 153.300 18.3083   2
  -7  -5 -11 73.6804 9.31774   2
   7  -5  11 74.6056 11.8314   3
   7   5  11 70.1517 11.9842   4
   7   5  11 68.0738 10.7813   3
  -7   5 -11 64.7392 9.83845   2
  -9  -5 -11 146.902 13.1291   2
   9  -5  11 128.436 15.5506   3
   9   5  11 159.749 16.2252   4
  -9   5 -11 144.722 14.8416   2
   9   5  11 134.873 14.8445   3
 -11  -5 -11 96.1857 11.5519   2
  11  -5  11 102.237 14.9857   3
 -11   5 -11 91.0961 12.6183   2
  11   5  11 94.0675 13.8564   4
 -13  -5 -11 116.844 13.3404   2
  13  -5  11 95.8168 15.3399   3
 -13   5 -11 108.412 14.7993   2
  13   5  11 98.2926 16.3859   3
  13   5  11 129.076 16.1353   4
  15  -5  11 9.93685 13.8626   3
 -15  -5 -11 11.3271 14.2056   2
  15   5  11 26.5058 13.6260   4
 -24  -6  11 23.8672 13.4007   4
  24  -6 -11 27.4845 14.2119   3
  24   6 -11 22.2232 15.7848   3
  22  -6 -11 86.0134 14.0567   3
 -22  -6  11 47.9484 13.4476   4
 -22   6  11 78.4456 13.4143   2
  22   6 -11 41.2425 14.2562   3
  20  -6 -11 94.2083 13.4657   3
 -20  -6  11 101.371 15.0127   4
 -20   6  11 109.955 13.5329   2
  20   6 -11 97.7790 14.1840   3
  18  -6 -11 6.09825 7.02556   2
 -18  -6  11 -5.4169 8.51138   4
  18  -6 -11 10.6645 8.80086   3
  18   6 -11 3.57702 9.79645   3
 -16  -6  11 112.619 13.1312   4
  16  -6 -11 97.9141 10.4805   2
  16  -6 -11 129.731 11.9339   3
  16   6 -11 93.7966 12.3741   3
 -16   6  11 86.6863 13.9820   4
  14  -6 -11 256.234 17.6191   3
  14  -6 -11 217.050 16.6319   2
 -14  -6  11 256.310 20.1426   4
  14   6 -11 235.390 19.3908   3
 -14   6  11 236.441 20.0948   4
  12  -6 -11 112.519 10.2886   2
  12  -6 -11 118.693 10.1593   3
 -12  -6  11 96.7967 12.0992   4
  12   6 -11 94.1939 13.4990   3
 -12   6  11 110.615 13.0625   4
  10  -6 -11 159.417 13.9231   2
  10  -6 -11 145.889 11.2985   3
  10   6 -11 123.231 12.9054   3
 -10   6  11 123.218 13.5844   4
   8  -6 -11 314.143 19.9152   2
  -8  -6  11 306.698 21.4402   4
   8  -6 -11 307.443 18.7100   3
   8   6 -11 299.487 20.6024   3
  -8   6  11 284.599 22.2961   4
   6  -6 -11 282.459 20.4168   2
  -6  -6  11 340.811 22.6599   4
  -6   6  11 343.849 23.4560   4
   6   6 -11 316.880 19.4298   2
  -6   6  11 342.075 19.2467   3
   6   6 -11 305.684 21.4916   3
   4  -6 -11 37.9175 6.48922   2
  -4  -6  11 49.5797 8.97465   4
   4   6 -11 37.1529 8.23868   3
   4   6 -11 42.4212 6.28507   2
  -4   6  11 32.3968 9.00378   4
  -4   6  11 43.2968 5.32239   3
  -2  -6  11 255.682 18.8746   4
  -2  -6  11 216.018 18.2989   3
   2  -6 -11 273.917 17.4308   2
  -2   6  11 289.180 16.7697   3
  -2   6  11 285.977 20.2091   4
   2   6 -11 268.118 17.7020   2
   0  -6  11 399.798 25.0825   3
   0  -6  11 375.330 24.4560   4
   0  -6 -11 397.488 23.9445   2
   0   6  11 406.245 26.2438   4
   0   6  11 380.898 23.2559   3
   0   6 -11 367.461 23.8872   2
  -2  -6 -11 69.2968 8.43873   2
   2  -6  11 67.8240 16.1564   3
   2  -6  11 80.2077 9.16986   4
   2   6  11 76.0591 8.70377   3
   2   6  11 55.5499 11.0996   4
  -2   6 -11 80.6825 9.61294   2
   4  -6  11 32.5863 9.35924   3
  -4  -6 -11 30.3696 6.80703   2
  -4  -6 -11 21.5400 7.69453   4
   4   6  11 18.6160 7.67156   3
   4   6  11 23.7756 9.37761   4
  -4   6 -11 13.5528 8.63839   2
  -6  -6 -11 88.1946 9.62072   2
   6  -6  11 105.398 12.9223   3
  -6  -6 -11 79.0068 11.3341   4
  -6   6 -11 60.7472 10.5593   2
   6   6  11 58.7397 11.6564   3
   8  -6  11 170.586 17.5830   3
  -8  -6 -11 160.893 13.9943   2
  -8  -6 -11 150.726 15.1076   4
  -8   6 -11 171.391 15.6550   2
 -10  -6 -11 113.610 13.9819   4
  10  -6  11 111.227 15.1073   3
 -10  -6 -11 146.099 13.2082   2
 -10   6 -11 122.198 13.8927   2
  12  -6  11 170.098 18.6458   3
 -12  -6 -11 134.104 16.0215   4
 -12  -6 -11 146.548 15.2991   2
 -12   6 -11 133.453 15.2643   2
  14  -6  11 57.5469 16.0171   3
  14   6  11 77.0859 16.1378   4
 -21  -7  11 32.1615 12.2735   4
  21  -7 -11 18.7872 12.3691   3
  21   7 -11 16.1055 13.5804   3
 -21   7  11 28.8256 10.7920   2
  19  -7 -11 3.32166 10.0503   3
  19  -7 -11 -5.0729 7.76052   2
 -19  -7  11 8.04612 10.4354   4
  19   7 -11 8.07722 11.7219   3
  17  -7 -11 9.08621 9.10414   3
 -17  -7  11 17.8076 11.0118   4
  17  -7 -11 7.74533 6.69334   2
  17   7 -11 13.2011 10.4630   3
  15  -7 -11 12.6611 6.56535   2
  15  -7 -11 19.0018 7.88118   3
 -15  -7  11 24.2554 9.42806   4
  15   7 -11 -6.2457 8.39457   3
 -15   7  11 -13.083 10.0709   4
 -13  -7  11 36.3606 10.3932   4
  13  -7 -11 50.2666 8.44472   3
  13  -7 -11 33.9543 7.38901   2
  13   7 -11 36.6843 9.44553   3
 -13   7  11 35.5939 11.1511   4
  11  -7 -11 70.1811 8.83590   2
  11  -7 -11 83.1617 8.73505   3
 -11  -7  11 98.1988 12.3413   4
 -11   7  11 43.1711 10.9714   4
  11   7 -11 51.9491 10.5760   3
  -9  -7  11 68.5372 10.6426   4
   9  -7 -11 72.8143 8.51673   3
   9  -7 -11 68.9720 8.30909   2
  -9   7  11 72.2994 11.6329   4
   9   7 -11 77.4192 10.8684   3
  -7  -7  11 4.34824 12.4559   4
   7   7 -11 6.06480 7.06214   3
  -5  -7  11 80.1016 10.1092   4
   5  -7 -11 61.9311 8.11756   2
   5   7 -11 69.6263 9.05076   2
  -5   7  11 62.8082 11.5348   4
   5   7 -11 66.7876 9.95240   3
  -3  -7  11 125.632 12.5715   4
   3  -7 -11 125.052 11.0185   2
  -3  -7  11 128.294 12.9560   3
  -3   7  11 120.552 14.2775   4
   3   7 -11 135.289 10.8641   2
  -1  -7  11 -3.4509 7.60945   3
   1  -7 -11 2.78416 5.86672   2
  -1  -7  11 1.04777 6.98282   4
   1   7 -11 -2.7055 5.85477   2
  -1   7  11 5.86123 8.18732   4
   1  -7  11 9.12943 8.61547   3
   1  -7  11 15.3652 7.35799   4
  -1  -7 -11 16.2542 6.18194   2
   1   7  11 5.39098 9.49127   4
  -1   7 -11 17.8788 6.88651   2
   3  -7  11 63.0434 10.8113   3
  -3  -7 -11 78.6670 9.08960   2
  -3  -7 -11 74.6803 11.4180   4
   5  -7  11 60.6981 11.7530   3
  -5  -7 -11 32.5631 9.28342   4
  -5  -7 -11 54.3240 8.33399   2
  -5   7 -11 60.1818 10.2793   2
  -7  -7 -11 12.9059 7.62656   2
   7  -7  11 18.6661 10.7065   3
  -7  -7 -11 18.0852 8.83562   4
  -7   7 -11 20.3912 8.78737   2
   9  -7  11 22.5468 12.2898   3
  -9  -7 -11 55.5470 10.3191   2
  -9  -7 -11 44.1661 10.7329   4
  -9   7 -11 48.8323 10.6255   2
 -11  -7 -11 59.4161 12.7468   4
  11  -7  11 55.4500 14.9621   3
 -11   7 -11 94.4263 13.5430   2
 -20  -8  11 51.6044 13.3361   4
  20   8 -11 9.84536 14.1264   3
 -20   8  11 37.9695 13.2222   2
 -18  -8  11 -12.617 9.54319   4
  18  -8 -11 -3.1084 7.49741   2
 -18   8  11 -8.3529 9.72688   2
  18   8 -11 -3.2889 10.5615   3
 -16  -8  11 20.2120 10.6631   4
  16  -8 -11 17.1309 7.67469   2
  16   8 -11 23.6413 12.1302   3
  14  -8 -11 44.9221 9.17258   2
 -14  -8  11 46.6396 10.8614   4
  14   8 -11 39.2912 10.6799   3
 -14   8  11 33.2230 12.3142   4
  12  -8 -11 31.8307 7.43844   2
 -12  -8  11 29.8358 10.2567   4
  12   8 -11 41.4393 11.0088   3
 -12   8  11 29.0463 11.7551   4
  10  -8 -11 8.75191 6.92069   2
 -10  -8  11 3.78325 8.54695   4
 -10   8  11 1.93327 10.3551   4
  10   8 -11 21.1444 8.82638   3
  -8  -8  11 -3.1708 7.79797   4
   8  -8 -11 -2.9431 5.66835   2
   8   8 -11 8.83391 8.09023   3
  -8   8  11 3.83044 9.91500   4
  -6  -8  11 56.4149 10.6861   4
   6  -8 -11 41.4857 7.28934   2
  -6   8  11 68.8899 12.6330   4
   6   8 -11 42.4199 10.1083   3
   4  -8 -11 7.06341 6.16659   2
  -4  -8  11 6.47601 8.00253   4
   4   8 -11 1.04681 7.80053   3
  -4   8  11 2.37997 9.03718   4
   2  -8 -11 1.24813 6.20495   2
  -2  -8  11 3.99234 7.90739   4
  -2  -8  11 1.15281 7.65924   3
  -2   8  11 16.4741 9.44255   4
   0  -8  11 8.35508 8.16100   3
   0  -8  11 -6.4535 7.29382   4
   0   8  11 19.1882 10.9427   4
   0   8 -11 11.8400 7.33724   2
  -2  -8 -11 -0.5506 8.66964   4
   2  -8  11 1.16750 9.26461   3
  -4  -8 -11 -0.8109 9.05482   4
  -4  -8 -11 0.31449 7.02686   2
   4  -8  11 0.43095 9.38669   3
  -4   8 -11 5.68135 8.64203   2
  -6  -8 -11 -2.2557 8.78491   4
   6  -8  11 -4.2576 10.4462   3
  -6   8 -11 1.20969 9.21550   2
   8  -8  11 1.66777 11.2703   3
  -8  -8 -11 -4.3852 10.3423   4
  -8   8 -11 -2.5058 9.87742   2
  10  -8  11 11.6352 11.9122   3
 -10  -8 -11 1.60172 10.2084   4
 -10   8 -11 -3.4922 11.5044   2
 -17  -9  11 14.7460 12.0773   4
  17   9 -11 -8.2592 11.7603   3
 -17   9  11 9.48591 10.9090   2
  15  -9 -11 85.3707 12.1854   2
 -15  -9  11 102.709 14.9377   4
  15   9 -11 88.2050 15.9131   3
 -13  -9  11 32.7832 10.9868   4
  13  -9 -11 21.1676 7.91005   2
 -13   9  11 31.3970 13.6486   4
  13   9 -11 40.4602 12.0512   3
  11  -9 -11 76.6563 10.3684   2
 -11  -9  11 66.3769 12.0485   4
  11   9 -11 66.3254 12.6855   3
 -11   9  11 69.0385 13.5987   4
  -9  -9  11 69.1908 12.0146   4
   9  -9 -11 71.0830 10.2602   2
  -9   9  11 88.2426 14.9140   4
   9   9 -11 97.8766 13.5546   3
   7  -9 -11 77.9761 9.96576   2
  -7  -9  11 100.167 13.0522   4
  -7   9  11 94.2921 14.4730   4
   7   9 -11 89.3635 13.2134   3
  -5  -9  11 38.0981 10.3852   4
   5  -9 -11 32.2895 7.77425   2
   5   9 -11 27.7722 10.4175   3
  -5   9  11 36.3372 11.3473   4
  -3  -9  11 108.653 13.0740   4
   3  -9 -11 102.452 10.7806   2
   3   9 -11 100.443 14.0900   3
  -3   9  11 109.763 15.5840   4
   1  -9 -11 89.5892 10.3203   2
  -1  -9  11 73.8216 12.1078   3
  -1  -9  11 80.3873 11.7616   4
  -1   9  11 117.773 15.2187   4
   1  -9  11 111.100 13.9303   3
  -1  -9 -11 96.6878 10.5019   2
  -1  -9 -11 96.8559 13.5531   4
   3  -9  11 13.2202 9.95164   3
  -3  -9 -11 11.0926 9.07565   4
  -3   9 -11 5.94401 9.15442   2
   5  -9  11 16.1798 12.0514   3
  -5  -9 -11 13.0319 10.7920   4
  -5   9 -11 -4.2661 9.65420   2
  -7  -9 -11 31.7921 12.2224   4
   7  -9  11 32.3663 12.9871   3
  -7   9 -11 38.7794 12.0322   2
 -14 -10  11 41.7968 21.3516   4
  14 -10 -11 38.8589 10.5020   2
  12 -10 -11 71.6647 11.1025   2
 -12 -10  11 48.1724 12.7768   4
 -12  10  11 32.7859 15.3155   4
  12  10 -11 43.9954 13.4664   3
 -10 -10  11 69.8541 13.3780   4
  10 -10 -11 113.311 12.3939   2
 -10  10  11 70.0729 15.4940   4
  10  10 -11 111.300 16.0494   3
   8 -10 -11 27.1427 8.74050   2
  -8 -10  11 17.6575 10.3927   4
   8  10 -11 25.4655 11.5470   3
  -8  10  11 32.8769 13.9321   4
   6 -10 -11 1.25841 7.34025   2
  -6 -10  11 2.30804 10.0842   4
  -6  10  11 18.5754 13.3811   4
   6  10 -11 10.8751 10.8068   3
  -4 -10  11 192.828 18.5696   4
   4 -10 -11 203.865 15.9465   2
  -4  10  11 214.625 20.7916   4
   4  10 -11 183.189 19.9915   3
  -2 -10  11 61.9005 12.0328   4
   2 -10 -11 42.1141 9.22887   2
   2  10 -11 75.9347 14.0962   3
  -2  10  11 63.8061 13.9557   4
   0 -10  11 8.62445 10.0570   3
   0  10  11 43.2133 14.9119   4
  -2 -10 -11 20.4625 11.7573   4
   2 -10  11 29.8079 11.5382   3
  -4 -10 -11 82.6669 16.2347   4
  -5 -11  11 13.6859 11.6123   4
   5 -11 -11 -1.3840 9.35828   2
   5  11 -11 4.99830 14.0045   3
  28   0 -12 37.6567 17.1969   3
 -26   0  12 59.0576 10.9796   2
  24   0 -12 71.1098 13.9147   3
 -24   0  12 125.643 13.7093   4
 -24   0  12 88.1668 10.8376   2
 -22   0  12 31.5712 10.0173   4
  22   0 -12 21.3578 10.7599   3
 -20   0  12 77.3117 11.3347   4
  20   0 -12 60.1363 11.0086   3
  20   0 -12 58.1777 7.74188   2
 -18   0  12 310.259 22.2599   4
  18   0 -12 308.158 19.6609   2
  18   0 -12 318.544 21.9955   3
  16   0 -12 146.793 11.6226   2
  16   0 -12 178.559 13.8458   3
 -16   0  12 189.795 16.1417   4
  14   0 -12 117.981 9.25713   2
  14   0 -12 85.0697 9.50284   3
 -14   0  12 130.488 13.6307   4
  12   0 -12 1658.74 90.2536   2
 -12   0  12 1697.89 92.5314   4
 -12   0  12 1627.28 90.0245   3
 -10   0  12 1058.25 59.8814   4
  10   0 -12 1063.98 57.3684   3
  10   0 -12 1023.02 57.7429   2
   8   0 -12 88.5129 7.43109   2
   8   0 -12 77.8434 6.24508   3
   8   0 -12 79.5233 6.11243   3
  -8   0  12 94.0944 10.9485   4
  -6   0  12 1167.19 66.0673   4
   6   0 -12 1165.71 64.1086   2
   6   0 -12 1154.93 62.9308   3
   6   0 -12 1176.78 63.0198   3
  -4   0  12 1534.42 87.6030   4
   4   0 -12 1546.57 85.1268   3
   4   0 -12 1628.62 86.3049   2
   4   0 -12 1606.45 85.0177   3
  -2   0  12 886.093 48.9807   3
   2   0 -12 919.504 50.1530   2
   2   0 -12 905.969 49.1568   3
  -2   0  12 888.084 51.4849   4
   0   0 -12 754.837 43.5268   2
   0   0 -12 762.745 43.1857   3
   0   0  12 787.435 42.6704   3
   0   0  12 777.814 45.0772   4
   2   0  12 52.2559 8.32451   3
   2   0  12 50.9667 9.11904   4
  -2   0 -12 61.3077 7.41929   2
  -2   0 -12 30.3305 7.48867   3
   4   0  12 28.3074 6.58389   3
   4   0  12 13.5790 8.00223   4
  -4   0 -12 23.2774 6.22588   2
  -6   0 -12 172.569 13.8723   2
   6   0  12 165.361 14.5566   4
   6   0  12 152.519 13.3950   3
   8   0  12 227.749 17.7403   4
  -8   0 -12 216.009 17.3702   2
   8   0  12 236.514 17.9241   3
  10   0  12 117.984 13.1438   4
 -10   0 -12 126.791 13.0367   2
  10   0  12 130.218 13.7132   3
  12   0  12 362.532 27.4480   3
 -12   0 -12 402.477 26.1100   2
  14   0  12 211.476 20.6807   3
 -14   0 -12 262.493 20.4837   2
 -16   0 -12 31.5097 12.4807   2
  16   0  12 22.2541 13.5479   3
  27  -1 -12 4.75855 14.9728   3
  27   1 -12 16.4445 14.9815   3
 -27   1  12 16.3647 10.6585   2
 -25  -1  12 0.30741 10.1031   4
 -25  -1  12 6.64825 10.1439   2
  25  -1 -12 -14.590 11.3003   3
 -25   1  12 -8.2120 8.71083   2
  25   1 -12 -11.429 10.7690   3
 -23  -1  12 39.6879 10.6849   4
  23  -1 -12 28.9691 11.0346   3
 -23  -1  12 17.4842 7.66654   2
 -23   1  12 30.4554 10.0192   4
  23   1 -12 4.26162 11.3997   3
 -23   1  12 15.6615 7.42669   2
  21  -1 -12 294.770 22.9723   3
  21  -1 -12 319.566 19.7889   2
 -21  -1  12 273.050 19.8388   2
  21   1 -12 282.337 22.7433   3
 -21   1  12 291.180 22.1752   4
 -19  -1  12 10.6144 8.94563   4
  19  -1 -12 6.97553 5.97498   2
  19   1 -12 12.6614 5.45431   2
 -19   1  12 21.2668 9.14930   4
  19   1 -12 -5.8353 7.87017   3
  17  -1 -12 78.3698 9.69989   3
  17  -1 -12 68.5295 8.27011   2
 -17  -1  12 58.0783 10.5779   4
 -17   1  12 77.1560 12.0365   4
  17   1 -12 67.2163 9.33486   3
  17   1 -12 93.5179 8.06418   2
 -15  -1  12 605.651 37.2850   4
  15  -1 -12 603.666 35.1151   2
  15  -1 -12 633.321 35.6238   3
  15   1 -12 631.378 34.8355   2
 -15   1  12 576.395 37.3052   4
  15   1 -12 611.725 35.9868   3
 -13  -1  12 314.739 22.4141   4
  13  -1 -12 323.974 19.5684   2
 -13   1  12 312.961 23.7316   4
  13   1 -12 341.691 20.3220   3
  13   1 -12 310.149 19.3455   2
  11  -1 -12 3.31102 3.80566   3
 -11  -1  12 3.24069 8.96453   4
  11  -1 -12 -3.8439 4.26756   2
 -11   1  12 3.95024 3.45903   3
 -11   1  12 10.7408 8.05002   4
  11   1 -12 0.73614 3.80212   2
  11   1 -12 5.73315 4.04834   3
   9  -1 -12 101.224 7.03028   3
  -9  -1  12 106.641 11.2998   4
   9  -1 -12 77.3293 7.71361   2
   9   1 -12 103.972 8.21332   2
  -9   1  12 95.4614 11.2354   4
   9   1 -12 95.7926 7.63919   3
  -9   1  12 92.3556 6.53066   3
  -7  -1  12 622.932 37.3385   4
   7  -1 -12 645.279 35.3414   2
   7   1 -12 635.384 34.4762   3
   7   1 -12 598.450 34.5808   3
  -7   1  12 631.349 37.2834   4
   7   1 -12 604.048 34.9617   2
   5  -1 -12 59.6874 6.76913   2
  -5  -1  12 70.4899 10.0219   4
  -5   1  12 77.7693 9.91082   4
   5   1 -12 76.6882 7.10878   2
   5   1 -12 74.8069 6.53105   3
   5   1 -12 76.3255 5.87483   3
   3  -1 -12 307.729 17.8628   2
  -3  -1  12 270.080 19.9123   4
  -3  -1  12 285.654 16.8615   3
   3   1 -12 297.010 17.7579   2
   3   1 -12 266.861 17.5861   3
  -3   1  12 285.104 19.7804   4
  -1  -1  12 389.841 24.4395   4
   1  -1 -12 363.343 20.4819   3
  -1  -1  12 373.577 21.4137   3
   1  -1 -12 343.103 22.1816   2
   1   1 -12 376.515 22.2997   2
  -1   1  12 354.447 20.4022   3
  -1   1  12 351.747 23.5272   4
   1  -1  12 103.639 8.98627   3
  -1  -1 -12 77.7130 8.76504   2
  -1  -1 -12 100.958 8.07575   3
   1  -1  12 127.620 11.9455   4
   1   1  12 108.160 11.1326   4
   1   1  12 99.0403 7.94666   3
  -1   1 -12 103.639 9.18570   2
  -3  -1 -12 106.981 10.7187   2
   3  -1  12 136.236 11.3104   3
   3  -1  12 145.716 12.9869   4
   3   1  12 146.606 13.1621   4
  -3   1 -12 141.909 11.8903   2
  -5  -1 -12 6.34699 5.89428   2
   5  -1  12 3.66079 6.75467   3
   5  -1  12 11.8146 7.69585   4
   5   1  12 7.28147 7.58549   4
  -5   1 -12 -1.1115 6.49492   2
   5   1  12 -4.1805 6.19537   3
   7  -1  12 4.67352 7.37886   3
   7  -1  12 -2.9514 8.04767   4
  -7  -1 -12 -3.0485 7.55599   2
   7   1  12 4.15831 7.78885   4
  -7   1 -12 11.3401 6.49190   2
   7   1  12 4.40850 7.42478   3
   9  -1  12 309.785 25.9824   3
   9  -1  12 417.982 26.3563   4
  -9  -1 -12 416.450 25.8260   2
   9   1  12 413.373 26.5060   3
   9   1  12 391.378 26.7633   4
  -9   1 -12 399.446 25.4745   2
  11  -1  12 84.0110 12.9765   3
 -11  -1 -12 89.9190 11.1545   2
  11   1  12 89.3973 13.5413   3
 -11   1 -12 93.8521 12.5355   2
  11   1  12 96.1916 12.5396   4
 -13  -1 -12 55.1346 10.9611   2
  13  -1  12 38.0307 11.6785   3
 -13   1 -12 42.3213 10.3704   2
  13   1  12 46.5339 13.4730   3
 -15  -1 -12 14.1179 10.0343   2
  15  -1  12 7.82945 12.4276   3
 -15   1 -12 19.1207 10.3741   2
  15   1  12 7.44191 13.0487   3
 -26  -2  12 10.5778 11.2581   4
  26  -2 -12 5.68463 13.1608   3
 -26   2  12 5.68291 10.0582   2
  26   2 -12 -15.889 13.5409   3
  24  -2 -12 15.3746 11.5760   3
 -24  -2  12 -1.9219 9.33626   4
  24   2 -12 7.61588 11.2315   3
 -24   2  12 7.06863 8.12369   2
  22  -2 -12 0.91874 10.0894   3
 -22  -2  12 2.53634 9.99473   2
 -22  -2  12 -7.2473 8.88387   4
  22  -2 -12 -2.4260 6.15706   2
 -22   2  12 5.83168 9.59363   4
  22   2 -12 -4.1419 9.11044   3
 -20  -2  12 59.5580 10.2973   4
  20  -2 -12 70.1287 8.41356   2
  20  -2 -12 67.4873 11.3440   3
  20   2 -12 53.5315 7.43640   2
  20   2 -12 77.2083 17.8793   3
 -20   2  12 91.1831 12.1356   4
  18  -2 -12 200.328 15.2651   3
  18  -2 -12 184.204 13.7174   2
 -18  -2  12 154.473 15.3469   4
  18   2 -12 150.957 14.5283   3
  18   2 -12 189.579 12.6417   2
 -18   2  12 155.837 16.2500   4
  16  -2 -12 -1.4454 4.90948   2
  16  -2 -12 -7.2709 6.33159   3
 -16  -2  12 22.4727 8.55289   4
  16   2 -12 -1.2412 4.23374   2
  16   2 -12 0.75499 6.39411   3
 -16   2  12 -7.6435 9.37161   4
 -14  -2  12 366.608 24.7703   4
  14  -2 -12 363.811 22.5427   2
  14  -2 -12 380.970 22.5925   3
  14   2 -12 364.287 21.6930   2
  14   2 -12 361.108 23.0278   3
 -14   2  12 365.333 26.2037   4
  12  -2 -12 27.2419 5.07972   3
 -12  -2  12 17.1045 8.39641   4
  12  -2 -12 24.7802 5.54233   2
  12   2 -12 25.6757 5.43685   3
 -12   2  12 33.5490 9.37250   4
  12   2 -12 36.3616 4.82470   2
  10  -2 -12 122.384 8.45454   3
 -10  -2  12 116.501 12.6119   4
  10  -2 -12 117.386 9.62553   2
 -10   2  12 121.410 12.7206   4
 -10   2  12 123.291 8.20113   3
  10   2 -12 124.894 9.52127   2
  10   2 -12 134.391 9.99159   3
   8  -2 -12 68.0531 6.99580   2
  -8  -2  12 67.7970 9.75713   4
  -8   2  12 59.0178 9.63560   4
   8   2 -12 80.2015 6.79523   3
   8   2 -12 70.8430 6.69094   2
   8   2 -12 63.1719 7.79207   3
   6  -2 -12 241.363 15.8046   2
  -6  -2  12 274.913 19.4203   4
  -6   2  12 246.840 18.2230   4
   6   2 -12 258.172 15.7920   2
   6   2 -12 242.304 16.2282   3
   6   2 -12 243.192 15.9802   3
  -4  -2  12 134.663 12.8419   4
   4  -2 -12 142.969 10.6073   2
  -4   2  12 156.487 13.2875   4
   4   2 -12 141.041 10.8012   2
   4   2 -12 134.422 10.7840   3
  -2  -2  12 13.4956 7.41684   4
   2  -2 -12 5.17520 4.50479   2
  -2  -2  12 2.20420 4.14465   3
  -2   2  12 1.37675 6.69798   4
   2   2 -12 2.63161 4.50010   2
   0  -2 -12 7.61443 4.84660   2
   0  -2 -12 15.0272 3.46500   3
   0  -2  12 18.3792 5.29112   3
   0  -2  12 27.4481 8.21594   4
   0   2  12 13.8992 3.50940   3
   0   2 -12 17.9657 5.44624   2
   0   2  12 12.8207 7.70244   4
   2  -2  12 4.63025 7.87208   4
   2  -2  12 4.20524 5.70752   3
  -2  -2 -12 -4.5358 4.86466   2
  -2   2 -12 -3.5460 5.85299   2
   2   2  12 -5.3454 7.19932   4
   2   2  12 3.99203 4.68105   3
   4  -2  12 1.62545 6.62931   3
   4  -2  12 -0.9211 7.56534   4
  -4  -2 -12 8.04739 5.84188   2
   4   2  12 -2.6764 5.68075   3
   4   2  12 7.92789 6.98807   4
  -4   2 -12 1.38388 6.16780   2
   6  -2  12 20.4170 8.00308   3
  -6  -2 -12 35.1527 7.96826   2
   6  -2  12 32.2880 8.82906   4
   6   2  12 37.1872 9.08068   4
   6   2  12 52.0814 8.26637   3
  -8  -2 -12 16.8647 7.57588   2
   8  -2  12 -8.5858 8.56033   4
   8  -2  12 14.3217 8.41996   3
  -8   2 -12 10.8606 6.90026   2
   8   2  12 2.44173 7.84773   3
   8   2  12 2.58912 8.25045   4
 -10  -2 -12 -1.1040 7.68689   2
  10  -2  12 5.62541 9.76754   3
  10   2  12 -3.1336 9.28352   3
 -10   2 -12 10.6189 7.89196   2
  10   2  12 4.38395 9.01953   4
  12  -2  12 13.1875 10.9869   3
 -12  -2 -12 22.0843 9.01316   2
  12   2  12 15.7576 11.4120   3
 -12   2 -12 28.4685 9.44492   2
  12   2  12 10.5475 10.0322   4
  14  -2  12 5.58423 11.9965   3
 -14  -2 -12 -1.8657 9.45977   2
 -14   2 -12 -5.3597 9.31139   2
  14   2  12 19.7131 12.9222   3
 -16  -2 -12 1.21594 11.2404   2
  16  -2  12 6.44037 14.2433   3
  16   2  12 -6.8893 14.0334   3
 -16   2 -12 -4.5174 10.6933   2
 -27  -3  12 68.4383 15.0255   4
  27  -3 -12 85.6793 16.8259   3
  27   3 -12 51.0722 17.5421   3
 -27   3  12 64.2680 12.7516   2
  25  -3 -12 17.8654 12.8075   3
 -25  -3  12 15.8448 11.3880   4
  25   3 -12 4.80654 13.8471   3
 -25   3  12 38.3463 10.8198   2
 -23  -3  12 15.1414 9.91486   4
  23  -3 -12 -0.5864 10.7151   3
 -23   3  12 7.45781 8.41726   2
  23   3 -12 2.69491 10.3185   3
  21  -3 -12 38.3514 10.3138   3
  21  -3 -12 33.7251 7.93948   2
 -21  -3  12 26.1982 10.4689   4
 -21   3  12 32.0625 10.3959   4
  21   3 -12 25.4961 9.88605   3
  19  -3 -12 141.032 13.9447   3
  19  -3 -12 142.901 12.3519   2
 -19  -3  12 168.738 15.0175   4
  19   3 -12 142.248 14.7188   3
 -19   3  12 132.962 15.1567   4
  17  -3 -12 59.0038 8.75764   3
  17  -3 -12 50.9657 8.14583   2
 -17   3  12 49.6097 11.5326   4
  17   3 -12 53.4879 9.35444   3
  17   3 -12 41.9333 5.64762   2
  15  -3 -12 4.27499 6.11038   3
  15  -3 -12 9.42950 5.90295   2
 -15  -3  12 -10.253 8.43207   4
  15   3 -12 15.0892 6.72033   3
  15   3 -12 1.89584 4.05194   2
 -15   3  12 0.64959 9.62920   4
  13  -3 -12 116.225 9.47979   3
 -13  -3  12 112.971 12.3560   4
  13  -3 -12 107.168 9.80318   2
 -13   3  12 130.853 14.0536   4
  13   3 -12 106.454 8.44658   2
  13   3 -12 110.918 10.5892   3
  11  -3 -12 557.889 31.9744   3
  11  -3 -12 567.547 32.9836   2
 -11  -3  12 580.545 34.9519   4
 -11   3  12 619.193 35.4150   4
  11   3 -12 574.956 33.3113   3
  11   3 -12 559.471 32.1817   2
   9  -3 -12 137.285 11.0137   2
   9  -3 -12 139.084 8.50701   3
  -9  -3  12 156.397 14.4047   4
   9   3 -12 143.442 10.8728   3
  -9   3  12 137.115 13.6383   4
   9   3 -12 136.663 9.99295   2
   7  -3 -12 22.0166 5.24869   2
  -7  -3  12 17.6156 7.55388   4
   7   3 -12 18.5565 4.70715   2
   7   3 -12 19.8664 4.84347   3
  -7   3  12 31.4009 8.71843   4
  -5  -3  12 68.6728 10.0734   4
   5  -3 -12 61.2821 7.04519   2
   5   3 -12 56.7285 6.71477   2
   5   3 -12 81.6752 7.44371   3
  -5   3  12 80.0320 10.0140   4
  -3  -3  12 732.625 44.4865   4
  -3  -3  12 752.278 42.9671   3
   3  -3 -12 765.128 43.0999   2
   3   3 -12 758.331 43.0376   2
  -3   3  12 825.503 45.2675   4
  -1  -3  12 416.078 25.7709   4
   1  -3 -12 376.843 23.6820   2
  -1  -3  12 387.484 23.9693   3
   1   3 -12 404.583 23.8068   2
  -1   3  12 370.001 25.3371   4
  -1   3  12 402.485 21.8243   3
   1  -3  12 70.5249 9.93945   4
  -1  -3 -12 75.6653 8.11020   2
   1  -3  12 60.2976 8.21043   3
  -1   3 -12 68.4560 8.54268   2
   1   3  12 68.1444 9.72242   4
   1   3  12 82.0609 6.82157   3
   3  -3  12 5.09109 6.75223   3
   3  -3  12 -10.286 7.46975   4
  -3  -3 -12 3.65988 5.99694   2
   3   3  12 10.9475 7.30692   4
  -3   3 -12 2.23346 5.95868   2
   3   3  12 -1.4205 5.40473   3
  -5  -3 -12 50.2244 8.11229   2
   5  -3  12 48.8737 8.74869   4
   5  -3  12 34.0619 8.79135   3
   5   3  12 51.1771 9.87682   4
   5   3  12 36.7169 7.73421   3
  -5   3 -12 44.4363 7.88786   2
   7  -3  12 75.8365 11.0396   3
   7   3  12 74.9613 10.6424   4
   7   3  12 78.7392 10.2617   3
  -7   3 -12 59.8017 10.1038   2
  -9  -3 -12 178.921 15.2644   2
   9  -3  12 165.358 17.0967   3
  -9   3 -12 219.665 17.3615   2
   9   3  12 190.817 16.7789   3
 -11  -3 -12 34.4926 9.56019   2
  11  -3  12 21.5077 10.8491   3
  11   3  12 49.7951 11.9258   3
  11   3  12 38.3648 11.1752   4
 -11   3 -12 30.7315 10.7699   2
  13  -3  12 106.685 15.9084   3
 -13  -3 -12 105.975 13.2736   2
  13   3  12 111.271 14.9116   4
  13   3  12 87.0633 15.5275   3
 -13   3 -12 82.5027 13.7156   2
  15  -3  12 25.4596 13.0151   3
 -15  -3 -12 20.7325 10.6899   2
 -15   3 -12 19.0859 11.1841   2
  15   3  12 19.9979 14.5326   3
  26  -4 -12 11.3932 13.6879   3
 -26  -4  12 -3.6618 12.0149   4
 -26   4  12 19.0268 11.1978   2
  26   4 -12 -3.6026 15.8242   3
  24  -4 -12 59.3237 13.9634   3
 -24  -4  12 50.8564 12.7015   4
  24   4 -12 49.6482 13.5866   3
 -24   4  12 46.0261 11.8412   2
 -22  -4  12 176.679 18.1226   4
  22  -4 -12 178.606 17.2205   3
 -22   4  12 172.723 16.6116   2
  22   4 -12 184.363 18.4971   3
 -20  -4  12 23.1808 9.59302   4
  20  -4 -12 29.1707 7.76323   2
  20  -4 -12 36.5867 9.65400   3
 -20   4  12 36.0731 11.8232   4
  20   4 -12 11.4985 9.30144   3
  18  -4 -12 -2.0199 7.47967   3
 -18  -4  12 3.12431 7.86427   4
  18  -4 -12 0.12711 6.40643   2
  18   4 -12 10.4324 7.81072   3
 -18   4  12 -3.1679 9.98780   4
 -16  -4  12 220.259 18.5306   4
  16  -4 -12 205.768 15.6180   2
  16  -4 -12 247.327 17.0959   3
 -16   4  12 224.082 19.3846   4
  16   4 -12 221.547 17.6627   3
  14  -4 -12 288.382 18.3874   3
 -14  -4  12 254.113 20.4107   4
  14  -4 -12 293.787 18.8761   2
  14   4 -12 274.186 19.0822   3
 -14   4  12 256.617 21.5123   4
  14   4 -12 282.603 16.6175   2
 -12  -4  12 582.576 35.6481   4
  12  -4 -12 531.451 33.5897   2
  12  -4 -12 566.230 32.9711   3
  12   4 -12 605.088 34.5760   3
 -12   4  12 618.607 36.6114   4
  12   4 -12 598.326 33.0774   2
  10  -4 -12 155.569 10.2764   3
 -10  -4  12 127.423 13.8078   4
  10  -4 -12 155.519 11.8354   2
  10   4 -12 162.751 12.5520   3
 -10   4  12 153.658 15.2392   4
  10   4 -12 156.168 10.6926   2
   8  -4 -12 123.440 10.0778   2
  -8  -4  12 123.686 12.2237   4
  -8   4  12 103.622 12.3204   4
  -8   4  12 127.498 7.45491   3
   8   4 -12 95.0046 9.78447   3
   8   4 -12 122.935 9.25301   2
   6  -4 -12 714.334 39.8488   2
  -6  -4  12 646.557 41.3609   4
   6   4 -12 712.127 40.2994   3
   6   4 -12 699.385 39.3299   2
  -6   4  12 726.641 42.1213   4
  -4  -4  12 912.307 49.9494   4
   4  -4 -12 804.936 48.2819   2
  -4  -4  12 848.048 48.6258   3
  -4   4  12 861.139 50.4514   4
   4   4 -12 895.037 48.2380   2
  -2  -4  12 135.636 13.0116   4
   2  -4 -12 130.586 11.0934   2
  -2  -4  12 144.217 11.7795   3
  -2   4  12 160.221 14.3483   4
   2   4 -12 152.716 11.5754   2
   0  -4  12 205.755 15.8168   3
   0  -4  12 208.101 16.5363   4
   0  -4 -12 205.023 15.1396   2
   0   4 -12 227.883 15.4847   2
   0   4  12 215.443 17.6661   4
   0   4  12 202.904 13.3892   3
   2  -4  12 335.752 22.8593   4
   2  -4  12 370.462 23.0991   3
  -2  -4 -12 362.861 22.1980   2
   2   4  12 341.086 21.0485   3
  -2   4 -12 325.267 21.7993   2
   2   4  12 328.558 24.2208   4
  -4  -4 -12 3.28119 6.17557   2
   4  -4  12 6.28902 6.91781   4
   4  -4  12 -3.9094 6.99354   3
   4   4  12 6.49827 8.46116   4
   4   4  12 9.42508 6.68034   3
  -4   4 -12 -1.9388 6.06940   2
  -6  -4 -12 15.4076 7.33731   2
   6  -4  12 21.3182 8.52181   3
   6   4  12 11.8497 8.40017   4
  -6   4 -12 17.7803 8.08902   2
   6   4  12 12.3501 7.85014   3
   8  -4  12 227.458 20.1690   3
  -8  -4 -12 257.132 19.3132   2
   8   4  12 250.826 20.6063   4
   8   4  12 325.449 19.4000   3
  -8   4 -12 244.795 19.5135   2
  10  -4  12 286.058 22.3854   3
 -10  -4 -12 279.485 19.8228   2
 -10   4 -12 276.983 21.1677   2
  10   4  12 267.056 21.6646   3
  10   4  12 265.566 22.4307   4
 -12  -4 -12 156.232 14.6400   2
  12  -4  12 138.264 16.8744   3
  12   4  12 99.8455 16.1283   3
 -12   4 -12 110.981 14.9109   2
  12   4  12 138.371 16.7380   4
  14  -4  12 77.0485 15.6859   3
 -14  -4 -12 89.7121 13.2887   2
  14   4  12 66.8790 15.8130   4
 -14   4 -12 92.3266 14.0888   2
  25  -5 -12 24.5192 14.7271   3
 -25  -5  12 21.9885 13.1438   4
  25   5 -12 -5.3791 14.8645   3
 -25   5  12 16.3497 11.1584   2
  23  -5 -12 9.63383 12.2318   3
 -23  -5  12 15.1426 11.9646   4
  23   5 -12 -6.6839 13.2237   3
 -23   5  12 13.4830 9.78817   2
  21  -5 -12 13.3696 10.6384   3
 -21  -5  12 -3.5541 9.35387   4
  21  -5 -12 10.4106 7.82632   2
  21   5 -12 -8.7026 10.7405   3
  19  -5 -12 19.5677 9.26576   3
 -19  -5  12 11.4000 10.2639   4
  19  -5 -12 21.4056 7.21965   2
  19   5 -12 35.8663 9.89145   3
 -19   5  12 12.2744 11.5164   4
  17  -5 -12 65.4829 8.91564   2
 -17  -5  12 69.3997 12.0630   4
  17  -5 -12 76.2801 9.87802   3
  17   5 -12 48.9676 10.5216   3
 -17   5  12 55.7109 12.8680   4
  15  -5 -12 18.1438 6.12603   2
  15  -5 -12 30.5999 7.13428   3
 -15  -5  12 28.2763 9.21777   4
  15   5 -12 27.1439 10.0046   3
 -15   5  12 31.6261 11.0425   4
  13  -5 -12 45.3131 7.05081   2
 -13  -5  12 43.7295 9.50893   4
  13  -5 -12 54.9368 7.07002   3
  13   5 -12 42.4776 8.00243   3
 -13   5  12 41.8738 10.5696   4
 -11  -5  12 153.840 14.2140   4
  11  -5 -12 142.189 12.2821   2
  11  -5 -12 176.713 11.4365   3
 -11   5  12 119.777 14.2727   4
  11   5 -12 144.548 10.8567   2
  11   5 -12 168.500 13.6714   3
   9  -5 -12 264.659 15.5603   3
   9  -5 -12 275.711 17.3097   2
  -9  -5  12 216.506 19.1405   4
   9   5 -12 256.973 17.8805   3
   9   5 -12 267.912 16.2233   2
  -9   5  12 265.281 20.9652   4
   7  -5 -12 14.3262 5.14523   2
  -7  -5  12 -3.5586 6.81069   4
  -7   5  12 -3.4073 7.73329   4
   7   5 -12 3.65576 5.83501   3
   7   5 -12 2.79323 4.39861   2
  -5  -5  12 52.1074 8.96900   4
   5  -5 -12 17.8856 5.65263   2
   5   5 -12 11.7128 6.43067   3
  -5   5  12 33.1228 8.93933   4
   5   5 -12 16.2110 5.25390   2
   3  -5 -12 584.630 33.8184   2
  -3  -5  12 564.862 34.0474   3
  -3  -5  12 635.994 35.2802   4
  -3   5  12 555.088 35.5874   4
   3   5 -12 555.781 33.3098   2
   1  -5 -12 90.7759 9.49043   2
  -1  -5  12 107.696 11.1268   4
  -1  -5  12 94.9269 10.5986   3
   1   5 -12 92.8873 9.58569   2
  -1   5  12 110.814 12.5626   4
  -1  -5 -12 -6.3488 4.93515   2
   1  -5  12 0.07319 6.70416   4
   1  -5  12 -3.1412 6.86704   3
  -1   5 -12 2.75581 5.64073   2
  -3  -5 -12 23.1773 6.27513   2
   3  -5  12 21.0879 7.56045   3
   3  -5  12 40.8751 7.58133   4
  -3   5 -12 25.6757 7.73420   2
   3   5  12 26.3193 9.06301   4
  -5  -5 -12 26.5232 6.76872   2
   5  -5  12 28.0614 9.39230   3
  -5   5 -12 15.9523 8.24776   2
   5   5  12 33.0616 9.53558   4
   7  -5  12 11.3242 8.70879   3
  -7  -5 -12 17.1993 7.41123   2
  -7   5 -12 9.72995 8.56024   2
   7   5  12 12.7061 9.11477   4
  -9  -5 -12 99.0289 11.2538   2
   9  -5  12 94.9871 13.9152   3
  -9   5 -12 92.6836 12.3311   2
   9   5  12 112.045 14.6147   4
  11  -5  12 10.9845 11.7554   3
 -11  -5 -12 17.1189 9.39625   2
  11   5  12 33.9346 12.3101   4
 -11   5 -12 34.9087 11.2961   2
 -13  -5 -12 31.4597 11.0435   2
  13  -5  12 25.7701 12.8208   3
 -13   5 -12 27.3927 11.3972   2
  13   5  12 23.1890 13.1213   4
 -24  -6  12 -0.8926 11.8191   4
 -24   6  12 2.60213 12.5763   2
  24   6 -12 10.5738 13.7853   3
  22  -6 -12 18.5761 12.6208   3
 -22  -6  12 -4.2019 10.3549   4
  22   6 -12 -7.0549 12.8743   3
 -22   6  12 15.0068 11.2999   2
  20  -6 -12 4.17943 9.76868   3
 -20  -6  12 5.23018 10.1826   4
  20  -6 -12 1.49569 7.58335   2
  20   6 -12 9.02313 11.5059   3
  18  -6 -12 3.67381 7.30508   2
 -18  -6  12 2.73804 10.2973   4
  18  -6 -12 1.37089 8.73858   3
 -18   6  12 -3.5738 12.8655   4
  18   6 -12 0.99053 9.66811   3
 -16  -6  12 11.8711 10.1991   4
  16  -6 -12 1.01635 5.91263   2
  16  -6 -12 1.36766 7.43358   3
 -16   6  12 0.74446 10.9048   4
  16   6 -12 4.10730 7.96609   3
  14  -6 -12 3.93632 6.90111   3
  14  -6 -12 -1.7013 5.69604   2
 -14  -6  12 17.8337 9.13147   4
 -14   6  12 2.28945 9.85187   4
  14   6 -12 2.15559 7.38512   3
  12  -6 -12 20.7623 6.35212   2
 -12  -6  12 13.8611 8.49533   4
  12   6 -12 25.5697 8.19576   3
 -12   6  12 11.8077 9.94983   4
  10  -6 -12 30.8102 6.35042   2
 -10  -6  12 15.7143 8.82467   4
  10   6 -12 10.1473 6.61586   3
 -10   6  12 17.6641 9.65079   4
  -8  -6  12 31.4573 9.34402   4
   8  -6 -12 37.3967 8.17715   2
   8   6 -12 41.8753 8.57505   2
   8   6 -12 31.4151 7.95575   3
  -8   6  12 28.0195 9.21197   4
  -6  -6  12 40.6841 9.05426   4
   6  -6 -12 28.8668 6.07979   2
  -6   6  12 25.8575 9.62934   4
   6   6 -12 34.0128 8.26391   3
   6   6 -12 24.3859 5.37779   2
   4  -6 -12 82.7909 8.75280   2
  -4  -6  12 96.1837 10.6250   4
   4   6 -12 76.6590 8.27466   2
   4   6 -12 82.7796 10.3517   3
  -2  -6  12 45.0751 7.99068   4
  -2  -6  12 28.5887 7.58160   3
   2  -6 -12 43.8947 7.19699   2
  -2   6  12 13.5281 8.82041   4
   2   6 -12 32.4741 6.75798   2
   0  -6  12 7.92396 6.94285   4
   0  -6 -12 5.82973 6.01226   2
   0  -6  12 11.2426 7.64809   3
   0   6 -12 5.69967 6.33660   2
   0   6  12 6.30922 8.93010   4
   2  -6  12 10.5270 8.49737   3
   2  -6  12 5.91122 6.94580   4
  -2  -6 -12 13.4149 6.40172   2
   2   6  12 10.2981 9.09978   4
  -2   6 -12 -9.1980 6.65370   2
   4  -6  12 12.8989 8.02622   3
  -4  -6 -12 1.02154 7.48593   2
  -4   6 -12 -0.3547 7.55752   2
   4   6  12 3.32881 9.63147   4
  -6  -6 -12 -11.979 6.62401   2
   6  -6  12 -4.5670 8.44950   3
  -6   6 -12 5.12820 8.58989   2
   6   6  12 1.34498 10.2036   4
   8  -6  12 -9.4890 10.4048   3
  -8  -6 -12 3.21249 7.50265   2
  -8   6 -12 -1.7955 9.29017   2
   8   6  12 1.81994 9.87547   4
 -10  -6 -12 13.9574 8.91171   2
  10  -6  12 17.6829 11.8531   3
  10   6  12 16.7800 12.0534   4
 -10   6 -12 13.9782 10.7587   2
 -12  -6 -12 -0.8451 11.3817   2
  12  -6  12 -11.938 12.0960   3
  12   6  12 5.32682 13.4230   4
 -12   6 -12 -2.4302 11.3578   2
 -21  -7  12 60.1628 14.5126   4
 -21   7  12 47.7159 13.3812   2
  21   7 -12 33.1203 13.0218   3
 -19  -7  12 2.49367 11.4303   4
  19  -7 -12 5.24779 7.86990   2
  19   7 -12 7.77727 10.5211   3
 -17  -7  12 9.23945 9.96556   4
  17  -7 -12 6.34067 7.08525   2
  17   7 -12 9.57108 9.95653   3
 -15  -7  12 44.5206 10.6358   4
  15  -7 -12 52.8964 8.19886   2
  15   7 -12 33.7753 11.1057   3
 -15   7  12 29.5104 12.1227   4
  13  -7 -12 50.6643 7.93338   2
 -13  -7  12 26.0587 10.5894   4
  13   7 -12 27.9092 9.95704   3
 -11  -7  12 176.522 16.5138   4
  11  -7 -12 172.773 13.8500   2
 -11   7  12 160.525 16.9522   4
  11   7 -12 156.568 15.2983   3
   9  -7 -12 -0.1794 5.59254   2
  -9  -7  12 -4.6530 7.69241   4
   9   7 -12 -6.3607 6.80779   3
  -9   7  12 -2.2136 9.68508   4
   7  -7 -12 14.4227 6.48519   2
  -7  -7  12 29.7955 9.30314   4
  -7   7  12 25.5808 9.41584   4
   7   7 -12 11.2618 8.19568   3
  -5  -7  12 115.167 13.3095   4
   5  -7 -12 131.620 11.1987   2
  -5   7  12 112.509 14.0516   4
   5   7 -12 149.072 14.3908   3
  -3  -7  12 145.060 13.7000   4
  -3  -7  12 133.391 13.7333   3
  -3   7  12 141.269 15.3382   4
   3   7 -12 151.528 12.1579   2
  -1  -7  12 12.7573 7.66342   3
  -1  -7  12 8.72763 7.60967   4
  -1   7  12 9.90076 9.22546   4
   1   7 -12 15.1089 6.83087   2
   1  -7  12 117.103 12.0245   4
   1  -7  12 125.915 13.7174   3
   1   7  12 158.318 16.3121   4
  -1   7 -12 97.1551 11.5714   2
  -3  -7 -12 16.6502 6.83045   2
   3  -7  12 22.8703 9.21744   3
  -3   7 -12 5.62832 7.97059   2
   3   7  12 11.2312 10.2268   4
   5  -7  12 41.4125 10.4630   3
  -5  -7 -12 40.0244 8.49513   2
   5   7  12 66.1633 13.4969   4
  -5   7 -12 43.6529 10.1066   2
  -7  -7 -12 3.88389 7.75755   2
   7  -7  12 0.05150 9.38087   3
   7   7  12 11.4857 12.2845   4
  -7   7 -12 -8.6572 8.20884   2
   9  -7  12 158.635 20.1693   3
  -9  -7 -12 282.791 23.1270   2
  -9   7 -12 224.132 19.8877   2
   9   7  12 274.908 23.5837   4
  11  -7  12 14.3147 13.9423   3
  11   7  12 34.1642 15.1630   4
 -11   7 -12 14.8910 12.5956   2
  20   8 -12 26.6761 15.0105   3
  18  -8 -12 17.2133 8.20384   2
 -18  -8  12 5.32357 10.6530   4
  18   8 -12 7.38562 12.1233   3
 -16  -8  12 35.8062 11.3384   4
  16  -8 -12 22.3148 8.29891   2
  16   8 -12 16.5317 11.2239   3
 -14  -8  12 73.8762 12.6843   4
  14  -8 -12 54.5877 9.09802   2
 -14   8  12 47.3365 13.8233   4
  14   8 -12 54.8573 12.2929   3
  12  -8 -12 112.932 11.7335   2
 -12   8  12 90.6499 15.0650   4
  12   8 -12 115.529 14.3831   3
 -10  -8  12 96.9251 13.6903   4
  10  -8 -12 106.990 10.7876   2
  10   8 -12 113.586 14.0695   3
 -10   8  12 93.0254 14.8046   4
  -8  -8  12 57.1159 10.6064   4
   8  -8 -12 38.7852 7.60643   2
  -8   8  12 47.4741 12.1978   4
   8   8 -12 54.9147 10.7374   3
  -6  -8  12 33.4610 10.2867   4
   6  -8 -12 40.4889 8.14472   2
  -6   8  12 25.1863 11.4194   4
   6   8 -12 48.8957 10.3125   3
   4  -8 -12 136.764 12.1400   2
  -4  -8  12 146.858 14.4955   4
  -4   8  12 135.984 16.6464   4
   4   8 -12 122.313 14.4123   3
  -2  -8  12 271.518 20.5623   3
   2  -8 -12 270.595 18.9219   2
  -2   8  12 259.584 22.9418   4
   0  -8 -12 52.2697 8.69471   2
   0  -8  12 43.9583 10.4428   3
   0  -8  12 85.9815 10.8758   4
   0   8 -12 56.1613 9.44212   2
   0   8  12 57.9836 13.4540   4
  -2  -8 -12 3.05872 7.23035   2
   2  -8  12 14.8600 9.25552   3
  -2   8 -12 -1.5390 8.43753   2
   2   8  12 15.8300 11.6936   4
   4  -8  12 23.9474 10.4212   3
  -4  -8 -12 17.5354 8.06523   2
  -4   8 -12 15.5308 9.25518   2
   4   8  12 31.8597 13.4785   4
   6  -8  12 -4.8598 9.70998   3
   6   8  12 9.69463 13.5537   4
  -6   8 -12 6.39758 9.98193   2
   8  -8  12 31.9652 12.4030   3
  -8  -8 -12 34.2582 11.5473   4
   8   8  12 61.6298 14.9003   4
  -8   8 -12 27.5989 10.8536   2
  17  -9 -12 0.62787 9.44556   2
  17   9 -12 7.65308 14.1672   3
  15  -9 -12 46.2872 9.81133   2
 -15  -9  12 82.8402 14.8843   4
  15   9 -12 51.3011 13.2581   3
 -13  -9  12 52.3256 12.3710   4
  13  -9 -12 44.7756 9.81813   2
 -13   9  12 17.8363 13.8178   4
  13   9 -12 32.0476 13.2862   3
 -11  -9  12 8.15919 11.0529   4
  11  -9 -12 1.92752 7.64366   2
  11   9 -12 -1.3564 9.81881   3
 -11   9  12 10.7214 13.1393   4
   9  -9 -12 0.27596 6.71658   2
  -9  -9  12 15.9374 10.9251   4
   9   9 -12 16.5109 10.1897   3
  -9   9  12 -2.2804 11.9440   4
  -7  -9  12 80.1486 12.9710   4
   7  -9 -12 70.4859 10.0290   2
   7   9 -12 84.4525 13.0238   3
  -7   9  12 74.0305 13.6934   4
   5  -9 -12 40.9568 8.68773   2
  -5  -9  12 53.8569 10.5438   4
   5   9 -12 32.0915 12.0608   3
  -5   9  12 42.4323 12.4314   4
  -3  -9  12 24.7092 9.71922   4
   3  -9 -12 8.62536 7.06692   2
  -3   9  12 4.24271 12.0939   4
   3   9 -12 13.0589 11.1960   3
   1  -9 -12 66.7942 9.61352   2
  -1  -9  12 60.2740 11.2190   4
  -1  -9  12 64.8324 11.8946   3
  -1   9  12 81.4010 15.5572   4
  -1  -9 -12 23.4076 8.07757   2
   1  -9  12 8.16208 10.7876   3
   1   9  12 2.43686 11.9803   4
   3  -9  12 27.1634 12.2605   3
   3   9  12 52.9425 13.9229   4
  -3   9 -12 9.47401 10.0409   2
   5  -9  12 -7.4054 12.0531   3
   5   9  12 37.6745 15.7847   4
  -5   9 -12 -11.011 10.1976   2
 -12 -10  12 17.4550 13.0407   4
  12 -10 -12 9.47633 8.35428   2
  12  10 -12 -3.8696 11.6948   3
 -12  10  12 -8.4779 13.8131   4
  10 -10 -12 1.44532 7.55271   2
 -10 -10  12 3.86137 10.7898   4
 -10  10  12 5.61917 13.9569   4
  10  10 -12 -6.5074 11.4389   3
  -8 -10  12 20.0682 11.9406   4
   8 -10 -12 5.76175 7.98079   2
   8  10 -12 6.30832 10.9786   3
  -8  10  12 19.4160 13.6648   4
  -6 -10  12 29.8059 12.0900   4
   6 -10 -12 8.99613 8.46836   2
  -6  10  12 3.74060 13.3040   4
   6  10 -12 7.77064 11.5072   3
   4 -10 -12 5.01972 8.34117   2
  -4 -10  12 11.2625 11.1241   4
  -4  10  12 22.0182 13.1494   4
   4  10 -12 13.2977 13.2508   3
   2 -10 -12 14.3237 8.40187   2
  -2 -10  12 7.83682 10.6794   4
   2  10 -12 9.42772 12.6425   3
  -2  10  12 2.82490 13.9238   4
   0 -10  12 6.98326 11.8243   3
   0  10  12 12.2444 13.3909   4
   2 -10  12 4.98070 14.0773   3
 -26   0  13 -9.6175 8.88453   2
  24   0 -13 -15.287 11.0643   3
 -24   0  13 -3.5119 9.97714   4
 -24   0  13 2.15430 8.07097   2
  22   0 -13 -0.4357 9.25304   3
  22   0 -13 6.48599 6.87540   2
 -22   0  13 3.75833 9.46939   4
  20   0 -13 -10.155 5.24684   2
  20   0 -13 -1.8809 8.30655   3
 -20   0  13 2.77148 9.52113   4
 -18   0  13 1.61073 9.28476   4
  18   0 -13 -8.1652 7.21997   3
  18   0 -13 -0.4672 4.94438   2
 -16   0  13 -3.0156 9.61950   4
  16   0 -13 2.41700 4.93895   2
  16   0 -13 1.68911 6.23608   3
  14   0 -13 -9.7559 4.44546   2
 -14   0  13 -0.4295 8.51403   4
  14   0 -13 -2.6341 5.36215   3
  12   0 -13 3.07145 4.29219   3
 -12   0  13 0.01156 8.59397   4
  12   0 -13 -3.7733 4.32044   2
  10   0 -13 -3.7559 4.33382   2
  10   0 -13 2.03958 3.60051   3
 -10   0  13 -0.9470 8.55371   4
  10   0 -13 4.06184 3.61969   3
   8   0 -13 -1.4433 4.41513   2
   8   0 -13 -1.7775 3.11567   3
   8   0 -13 -2.8307 2.58656   3
  -8   0  13 6.29933 8.00922   4
   6   0 -13 -1.0552 2.08849   3
  -6   0  13 -1.6154 8.22255   4
   6   0 -13 -2.9397 2.82307   3
   6   0 -13 -1.2871 4.27338   2
   4   0 -13 -5.7090 3.16010   3
   4   0 -13 -1.0382 4.68603   2
  -4   0  13 3.65214 7.29443   4
   4   0 -13 2.32893 2.16596   3
   2   0 -13 -0.0302 4.62583   2
  -2   0  13 -1.4550 3.00927   3
  -2   0  13 6.16851 7.36348   4
   2   0 -13 -1.9083 3.99693   3
   0   0 -13 4.65532 5.39962   2
   0   0  13 5.24177 4.07086   3
   0   0  13 0.75225 7.97936   4
  -2   0 -13 -4.1526 5.37613   2
   2   0  13 -3.4410 7.14898   4
   2   0  13 -2.0021 5.08288   3
   4   0  13 -0.6102 6.22654   3
   4   0  13 -2.6305 8.25087   4
  -4   0 -13 1.19025 5.84236   2
   6   0  13 -2.8095 6.87363   3
   6   0  13 14.9481 8.52870   4
  -6   0 -13 4.39232 6.38735   2
   8   0  13 -4.2767 7.69832   3
  -8   0 -13 -1.2307 6.77247   2
   8   0  13 -7.9210 8.64792   4
  10   0  13 10.2864 9.28986   3
 -10   0 -13 13.2533 7.97008   2
 -12   0 -13 -6.5966 9.21313   2
  12   0  13 -9.5462 10.0678   3
 -14   0 -13 4.79747 9.95806   2
  14   0  13 -16.303 10.7114   3
  27  -1 -13 56.3982 16.5110   3
 -27   1  13 27.4748 11.2323   2
  27   1 -13 58.4620 16.3882   3
  25  -1 -13 20.7335 12.9099   3
 -25  -1  13 16.7651 10.9469   4
  25   1 -13 4.32251 12.8556   3
 -25   1  13 28.8088 10.0179   2
 -23  -1  13 17.9445 9.83372   4
 -23  -1  13 10.4656 7.40740   2
  23  -1 -13 -0.0846 10.6571   3
 -23   1  13 15.5167 11.5812   4
  23   1 -13 0.64567 10.8654   3
 -23   1  13 1.71815 7.99185   2
  21  -1 -13 111.130 13.1173   3
  21  -1 -13 113.102 11.1381   2
 -21  -1  13 121.422 14.5200   4
 -21   1  13 135.766 14.2650   4
  21   1 -13 99.3562 10.1347   2
  19  -1 -13 120.229 10.0881   3
  19  -1 -13 64.7695 8.08093   2
 -19  -1  13 64.0553 11.9068   4
  19   1 -13 76.6690 11.0428   3
 -19   1  13 92.8880 12.7438   4
  19   1 -13 56.4290 7.71602   2
  17  -1 -13 136.160 11.9070   3
  17  -1 -13 112.101 10.0192   2
 -17  -1  13 125.737 14.1980   4
 -17   1  13 89.9065 13.5732   4
  17   1 -13 114.322 9.72577   2
  17   1 -13 104.131 11.3541   3
 -15  -1  13 104.515 12.6994   4
  15  -1 -13 111.506 10.0215   2
  15  -1 -13 106.796 10.2591   3
  15   1 -13 113.340 10.7597   3
 -15   1  13 99.4303 13.3487   4
  15   1 -13 127.145 9.53288   2
 -13  -1  13 72.4488 11.8921   4
  13  -1 -13 89.8966 8.29077   3
  13  -1 -13 81.0391 8.45159   2
  13   1 -13 102.826 8.99446   3
 -13   1  13 104.956 13.7459   4
  13   1 -13 101.922 8.47321   2
 -11  -1  13 149.656 15.0162   4
  11  -1 -13 155.690 10.5019   3
  11  -1 -13 148.263 11.5528   2
 -11   1  13 168.655 15.2354   4
  11   1 -13 151.126 11.1235   2
  11   1 -13 152.704 11.2179   3
  11   1 -13 137.833 10.9405   3
   9  -1 -13 137.884 10.7541   2
   9  -1 -13 150.351 8.84230   3
  -9  -1  13 131.583 13.6049   4
   9  -1 -13 149.893 8.85119   3
   9   1 -13 154.753 10.1183   3
   9   1 -13 153.284 10.9494   2
   9   1 -13 109.769 9.74600   3
  -9   1  13 156.904 14.5789   4
   7  -1 -13 67.3453 7.44038   2
  -7  -1  13 60.7413 10.5544   4
   7   1 -13 68.0496 7.00177   2
   7   1 -13 67.7267 5.81050   3
  -7   1  13 88.5091 11.8678   4
   5  -1 -13 84.2521 8.39540   2
  -5  -1  13 107.078 12.5503   4
   5   1 -13 104.213 8.10090   3
   5   1 -13 95.7305 8.54644   2
   5   1 -13 99.9758 7.44445   3
  -5   1  13 93.2626 11.3438   4
   3  -1 -13 712.067 40.5719   2
  -3  -1  13 731.711 39.4356   3
  -3  -1  13 698.865 42.2342   4
   3   1 -13 719.761 39.9078   3
  -3   1  13 717.881 42.6164   4
   3   1 -13 682.255 40.4345   2
   1  -1 -13 37.0275 6.64429   2
  -1  -1  13 48.9980 8.98318   4
  -1  -1  13 40.4223 5.54249   3
  -1   1  13 52.5478 9.03251   4
   1   1 -13 43.5494 6.72211   2
  -1   1  13 45.2421 4.31403   3
   1   1 -13 -1.0094 6.29062   3
   1  -1  13 123.770 13.7508   4
   1  -1  13 150.135 11.2509   3
  -1  -1 -13 137.346 11.4507   2
  -1   1 -13 137.441 12.2497   2
   1   1  13 135.240 13.2841   4
   1   1  13 149.854 10.6071   3
  -3  -1 -13 24.1399 6.79001   2
   3  -1  13 32.4275 7.14074   3
   3  -1  13 29.0025 9.21484   4
   3   1  13 34.2819 6.51331   3
   3   1  13 25.4246 8.82411   4
  -3   1 -13 21.2769 6.58341   2
   5  -1  13 0.94445 6.84534   3
  -5  -1 -13 1.78975 6.10023   2
   5  -1  13 10.7715 8.31894   4
   5   1  13 -4.4945 8.05270   4
   5   1  13 2.43041 6.32245   3
  -7  -1 -13 70.7627 9.43440   2
   7  -1  13 68.6391 11.2942   4
   7  -1  13 68.4843 10.5642   3
   7   1  13 71.3222 9.91532   3
  -7   1 -13 87.7168 10.1014   2
   7   1  13 75.5000 11.1373   4
   9  -1  13 191.582 16.9856   3
  -9  -1 -13 252.365 17.7755   2
   9   1  13 175.332 17.0908   4
   9   1  13 195.636 16.8601   3
  -9   1 -13 178.636 15.7904   2
  11  -1  13 75.2587 12.8704   3
 -11  -1 -13 66.6303 10.6805   2
  11   1  13 59.9950 13.6136   4
 -11   1 -13 89.7935 12.2711   2
 -13  -1 -13 95.1689 13.3021   2
  13  -1  13 86.1663 15.1508   3
 -13   1 -13 74.5231 13.4677   2
  13   1  13 97.5686 14.8105   3
 -15  -1 -13 3.69856 10.7436   2
  15  -1  13 25.7991 14.1155   3
 -15   1 -13 34.1336 12.3970   2
  15   1  13 -4.2397 13.2271   3
 -26  -2  13 1.58749 11.4463   4
  26  -2 -13 20.5225 12.8464   3
 -26   2  13 5.59524 9.00095   2
  26   2 -13 -6.5798 13.9107   3
  24  -2 -13 89.0210 14.4680   3
 -24  -2  13 73.9388 13.2598   4
 -24   2  13 105.472 12.5715   2
  24   2 -13 46.2287 12.9739   3
 -22  -2  13 31.9479 10.5602   4
  22  -2 -13 27.1534 7.20707   2
 -22   2  13 40.2211 11.2321   4
  22   2 -13 8.77209 9.74799   3
 -20  -2  13 36.4731 9.51672   4
  20  -2 -13 16.9481 8.81414   3
  20  -2 -13 10.8184 6.13087   2
  20   2 -13 20.4339 5.79304   2
 -20   2  13 8.58882 9.85533   4
 -18  -2  13 114.493 15.2467   4
  18  -2 -13 88.6887 11.4167   3
  18   2 -13 122.268 12.7978   3
 -18   2  13 126.841 14.8272   4
  18   2 -13 132.236 9.88126   2
  16  -2 -13 62.3109 7.74616   2
  16  -2 -13 60.2002 8.35168   3
 -16  -2  13 42.0217 10.9841   4
  16   2 -13 65.5278 6.99805   2
  16   2 -13 57.1876 8.90682   3
 -16   2  13 66.5566 11.6152   4
 -14  -2  13 36.1294 9.87522   4
  14  -2 -13 57.2867 7.31067   2
  14  -2 -13 41.9175 6.59594   3
  14   2 -13 57.9550 6.26168   2
  14   2 -13 36.0690 6.99867   3
 -14   2  13 44.6819 11.5649   4
 -12  -2  13 767.715 44.6388   4
  12  -2 -13 732.053 41.5179   3
  12  -2 -13 761.854 42.4603   2
  12   2 -13 757.945 41.9381   2
 -12   2  13 731.068 45.0046   4
  12   2 -13 754.598 42.4493   3
 -10  -2  13 12.4968 8.88395   4
  10  -2 -13 2.94276 2.61252   3
  10  -2 -13 3.70102 4.38019   2
 -10   2  13 23.3111 9.91244   4
  10   2 -13 3.65727 4.19776   2
  10   2 -13 5.03613 4.29946   3
   8  -2 -13 25.0944 5.45343   2
  -8  -2  13 35.1941 9.46551   4
   8   2 -13 27.5516 4.67565   3
   8   2 -13 28.2633 4.82852   2
  -8   2  13 35.7445 9.35472   4
   6  -2 -13 598.284 35.3919   2
  -6  -2  13 650.882 38.1426   4
   6   2 -13 623.724 35.2757   2
  -6   2  13 617.878 38.0183   4
   6   2 -13 607.776 35.4373   3
   6   2 -13 625.928 34.9115   3
  -4  -2  13 951.608 52.8993   3
  -4  -2  13 960.772 55.5864   4
   4  -2 -13 968.487 53.5894   2
   4   2 -13 969.554 53.4148   2
   4   2 -13 956.540 53.7937   3
  -4   2  13 956.450 55.6176   4
   2  -2 -13 127.103 10.5215   2
  -2  -2  13 125.984 9.84362   3
  -2  -2  13 138.774 13.1257   4
   2   2 -13 111.279 10.4223   2
  -2   2  13 128.706 12.8207   4
   0  -2  13 170.171 13.4726   3
   0  -2 -13 167.808 13.3181   2
   0  -2  13 241.742 16.8471   4
   0   2 -13 176.657 13.3003   2
   0   2  13 173.868 11.3376   3
   0   2  13 173.535 15.3310   4
  -2  -2 -13 101.186 10.0128   2
   2  -2  13 76.1714 11.4408   4
   2  -2  13 91.4873 9.61916   3
   2   2  13 85.5887 11.0311   4
  -2   2 -13 82.3593 9.41059   2
   2   2  13 93.2554 8.04527   3
  -4  -2 -13 -8.3180 6.18729   2
   4  -2  13 0.88926 6.79163   3
   4  -2  13 16.9534 8.58896   4
   4   2  13 1.87403 8.33396   4
   4   2  13 0.25482 6.11874   3
  -4   2 -13 2.72462 6.81383   2
  -6  -2 -13 7.74138 7.24173   2
   6  -2  13 10.9189 7.57645   3
   6  -2  13 -5.4343 8.49059   4
   6   2  13 -0.9498 7.37798   3
  -6   2 -13 0.19657 6.47729   2
   6   2  13 5.61764 8.51306   4
   8  -2  13 143.652 15.1894   3
  -8  -2 -13 153.633 13.8537   2
   8   2  13 164.532 15.5764   4
  -8   2 -13 179.519 14.9608   2
   8   2  13 147.855 14.3804   3
  10  -2  13 42.3708 11.3389   3
 -10  -2 -13 56.6360 10.5056   2
  10   2  13 40.2360 11.4046   4
  10   2  13 45.5308 11.1481   3
 -10   2 -13 57.9713 10.2990   2
 -12  -2 -13 163.209 15.4951   2
  12  -2  13 165.674 17.2263   3
  12   2  13 187.272 18.0869   4
 -12   2 -13 170.469 16.2788   2
  12   2  13 148.471 17.5806   3
  14  -2  13 40.4239 14.6947   3
 -14  -2 -13 31.6507 11.6991   2
  14   2  13 54.6350 14.9930   3
 -14   2 -13 31.3073 10.7847   2
 -27   3  13 42.3858 11.7290   2
  25  -3 -13 27.3251 13.0075   3
 -25  -3  13 10.6591 11.9439   4
  25   3 -13 -7.2115 12.9620   3
 -25   3  13 2.58141 9.10562   2
 -23  -3  13 2.94192 10.3239   4
  23  -3 -13 2.76844 7.65754   2
  23  -3 -13 -0.4248 10.4934   3
  23   3 -13 -9.9511 10.6417   3
  21  -3 -13 92.4180 12.2866   3
 -21  -3  13 66.3182 12.3210   4
  21  -3 -13 72.8762 10.0042   2
  21   3 -13 95.3071 13.2794   3
 -21   3  13 80.2063 13.1202   4
 -19  -3  13 65.8023 12.1834   4
  19  -3 -13 93.2724 10.9370   3
  19  -3 -13 59.0345 8.92019   2
 -19   3  13 60.8959 12.3019   4
  19   3 -13 72.5842 12.1562   3
  17  -3 -13 7.02940 5.38746   2
  17  -3 -13 0.80073 6.71269   3
 -17  -3  13 -5.0864 7.90401   4
 -17   3  13 -8.4758 10.4439   4
  17   3 -13 6.67444 7.44158   3
  17   3 -13 -1.8071 4.31884   2
  15  -3 -13 285.905 19.1111   2
 -15  -3  13 312.478 21.6622   4
  15  -3 -13 284.217 18.6557   3
  15   3 -13 293.281 20.0250   3
 -15   3  13 304.224 23.8289   4
  15   3 -13 273.259 17.5931   2
  13  -3 -13 72.4994 8.70369   2
  13  -3 -13 72.1007 7.17050   3
 -13  -3  13 81.7859 10.7803   4
  13   3 -13 71.0435 6.89851   2
  13   3 -13 68.5224 8.32098   3
 -13   3  13 59.8903 11.3822   4
  11  -3 -13 38.2958 6.44053   2
 -11  -3  13 53.9649 10.5415   4
  11  -3 -13 33.7451 4.31882   3
  11   3 -13 34.5056 6.20593   3
  11   3 -13 40.4160 5.58736   2
 -11   3  13 26.4893 9.40227   4
  -9  -3  13 226.370 18.3421   4
   9  -3 -13 241.335 15.4961   2
   9   3 -13 209.109 15.1313   3
   9   3 -13 222.976 14.8844   2
  -9   3  13 276.649 20.0284   4
   7  -3 -13 63.7793 7.42140   2
  -7  -3  13 55.7899 9.96497   4
   7   3 -13 56.3773 6.61205   3
  -7   3  13 47.3377 10.1035   4
   7   3 -13 68.7948 7.07234   2
   5  -3 -13 51.2712 6.94916   2
  -5  -3  13 70.5942 10.1705   4
  -5   3  13 64.1436 10.0271   4
   5   3 -13 66.6203 7.19793   3
   5   3 -13 73.3961 7.56078   2
   3  -3 -13 465.007 28.0794   2
  -3  -3  13 482.043 30.2178   4
  -3  -3  13 461.636 27.8016   3
  -3   3  13 460.273 29.9275   4
   3   3 -13 484.197 28.0355   2
   1  -3 -13 186.287 13.5605   2
  -1  -3  13 165.598 13.6595   3
  -1  -3  13 198.104 15.8974   4
   1   3 -13 193.132 13.5458   2
  -1   3  13 169.538 15.9104   4
   1  -3  13 3.60371 6.51697   3
  -1  -3 -13 -0.8796 5.28446   2
   1  -3  13 -2.4669 8.27316   4
   1   3  13 -8.0472 7.31817   4
  -1   3 -13 -6.0722 5.58514   2
  -3  -3 -13 90.8413 9.64942   2
   3  -3  13 70.0063 10.4776   4
   3  -3  13 65.3700 9.13880   3
  -3   3 -13 69.0169 8.90943   2
   3   3  13 57.2003 7.56848   3
   3   3  13 59.7500 11.0257   4
   5  -3  13 10.0829 8.27053   4
   5  -3  13 5.57533 7.80266   3
   5   3  13 14.1054 6.84966   3
  -5   3 -13 13.9697 7.91672   2
   5   3  13 8.64745 8.86345   4
   7  -3  13 30.1621 9.35454   3
  -7  -3 -13 33.3229 8.44181   2
   7   3  13 19.0632 8.53547   3
  -7   3 -13 16.0287 7.84041   2
  -9  -3 -13 116.018 12.0815   2
   9  -3  13 137.399 14.2128   3
   9   3  13 118.449 13.8371   3
  -9   3 -13 113.958 12.8586   2
   9   3  13 108.901 14.3222   4
 -11  -3 -13 8.53161 8.17017   2
  11  -3  13 26.6927 10.7639   3
  11   3  13 4.76458 10.6302   4
 -11   3 -13 31.4548 9.60297   2
 -13  -3 -13 77.2329 12.6802   2
  13  -3  13 68.3849 14.8533   3
 -13   3 -13 102.712 14.4700   2
  13   3  13 48.1547 14.5371   4
  15  -3  13 20.9208 14.9808   3
 -15  -3 -13 7.96665 11.7812   2
 -15   3 -13 10.6680 11.4730   2
  26  -4 -13 1.06276 13.0009   3
 -26  -4  13 4.25764 12.7245   4
  26   4 -13 -19.468 14.6868   3
 -26   4  13 -4.7167 10.1344   2
  24  -4 -13 3.25320 11.2324   3
 -24  -4  13 3.80829 11.7908   4
  24   4 -13 -1.9284 13.0892   3
 -24   4  13 8.05361 10.5648   2
 -22  -4  13 -4.4580 9.16725   4
  22  -4 -13 -6.1020 9.84252   3
  22  -4 -13 7.58563 7.72132   2
  22   4 -13 8.19287 11.7096   3
  20  -4 -13 19.0400 8.98663   3
  20  -4 -13 27.3723 7.50658   2
 -20  -4  13 25.9363 10.8384   4
  20   4 -13 26.3265 10.6313   3
 -20   4  13 14.6504 11.7118   4
  18  -4 -13 27.8481 8.29200   3
  18  -4 -13 6.27312 6.07545   2
 -18  -4  13 10.2574 9.87254   4
 -18   4  13 21.0066 11.6669   4
  18   4 -13 18.2881 8.90064   3
 -16  -4  13 11.1949 8.18848   4
  16  -4 -13 5.42215 5.62571   2
  16  -4 -13 14.8979 6.53553   3
 -16   4  13 -7.7903 10.4886   4
  16   4 -13 1.03493 7.28518   3
  14  -4 -13 4.95869 5.24945   3
  14  -4 -13 5.19708 5.36279   2
 -14  -4  13 -2.5887 7.62219   4
  14   4 -13 4.26918 3.96625   2
 -14   4  13 -0.5031 8.92827   4
  14   4 -13 -2.2637 6.37855   3
  12  -4 -13 5.85473 5.09890   3
 -12  -4  13 -3.9676 8.36104   4
  12  -4 -13 0.85506 4.96490   2
 -12   4  13 -2.2814 8.48590   4
  12   4 -13 -1.6296 5.69230   3
  12   4 -13 -4.2298 3.78727   2
  10  -4 -13 14.4619 5.74533   2
 -10  -4  13 16.6914 9.00069   4
  10   4 -13 16.0516 4.53074   2
 -10   4  13 17.6873 8.91707   4
  10   4 -13 22.0476 6.30643   3
  -8  -4  13 12.8822 8.87810   4
   8  -4 -13 13.3294 5.36651   2
   8   4 -13 8.71931 5.19946   3
  -8   4  13 11.6274 9.27232   4
   8   4 -13 6.54508 4.72340   2
   6  -4 -13 9.14094 5.71471   2
  -6  -4  13 3.69822 7.37729   4
   6   4 -13 9.46813 5.07195   2
  -6   4  13 18.4693 8.29645   4
   6   4 -13 7.67134 5.36216   3
   4  -4 -13 96.6318 9.18533   2
  -4  -4  13 102.944 11.8422   4
  -4  -4  13 64.7264 8.67097   3
  -4   4  13 82.7864 11.9066   4
   4   4 -13 101.660 9.02904   2
  -2  -4  13 17.5558 8.86460   4
   2  -4 -13 15.2962 5.68736   2
  -2  -4  13 28.9671 6.86617   3
  -2   4  13 23.6652 8.33711   4
   2   4 -13 22.9557 6.53104   2
   0  -4  13 -1.3524 7.31705   4
   0  -4  13 11.8639 6.84639   3
   0  -4 -13 15.6907 6.58391   2
   0   4  13 -4.4090 7.66118   4
   0   4 -13 14.8216 6.60255   2
  -2  -4 -13 -1.5837 6.36564   2
   2  -4  13 -0.6224 7.23701   4
   2  -4  13 -3.2093 6.89234   3
   2   4  13 7.16328 8.37497   4
  -2   4 -13 1.39148 5.94239   2
   4  -4  13 10.8533 7.71180   4
   4  -4  13 4.69271 7.84604   3
   4   4  13 14.1343 9.49995   4
  -4   4 -13 11.3638 7.51123   2
   6  -4  13 -0.0167 8.46600   3
  -6  -4 -13 -6.0140 6.01624   2
  -6   4 -13 -1.8305 7.24084   2
   6   4  13 -2.8355 8.46257   4
   8  -4  13 7.84707 9.77801   3
  -8  -4 -13 -3.5691 7.81541   2
   8   4  13 9.15471 10.5481   4
  -8   4 -13 -5.9865 8.75095   2
 -10  -4 -13 4.74572 8.80170   2
  10  -4  13 2.15683 11.0020   3
  10   4  13 10.1214 11.1020   4
 -10   4 -13 -5.6591 8.61395   2
 -12  -4 -13 -4.6500 9.90713   2
  12  -4  13 -2.3255 12.2559   3
  12   4  13 2.75792 12.6462   4
 -12   4 -13 -9.9865 9.85074   2
 -14  -4 -13 6.08370 11.1575   2
  14  -4  13 10.0757 13.9427   3
  14   4  13 11.2070 16.3826   4
 -25  -5  13 14.8208 12.2941   4
 -25   5  13 25.2655 19.5001   2
  25   5 -13 16.5034 14.2050   3
 -23  -5  13 43.2499 12.4819   4
 -23   5  13 39.4774 11.2508   2
  23   5 -13 42.2888 13.3655   3
 -21  -5  13 13.0000 11.4088   4
  21  -5 -13 7.60729 7.86417   2
  21   5 -13 3.46204 10.2385   3
 -19  -5  13 98.6341 13.7770   4
  19  -5 -13 112.517 11.8007   2
  19   5 -13 109.630 14.3476   3
 -19   5  13 88.7974 15.2372   4
 -17  -5  13 93.6457 13.4908   4
  17  -5 -13 117.266 11.6531   2
  17   5 -13 91.4085 12.3307   3
 -17   5  13 98.3705 14.8645   4
 -15  -5  13 54.4271 10.2140   4
  15  -5 -13 54.3060 7.92840   2
  15   5 -13 64.1908 9.61361   3
 -15   5  13 64.9734 12.7074   4
 -13  -5  13 119.422 13.0502   4
  13  -5 -13 107.949 10.4700   2
  13   5 -13 129.975 12.3956   3
 -13   5  13 115.059 13.7882   4
 -11  -5  13 117.089 15.1419   4
  11  -5 -13 160.947 12.0844   2
 -11   5  13 122.051 14.3691   4
  11   5 -13 126.139 12.0383   3
  11   5 -13 140.926 10.6203   2
  -9  -5  13 30.1744 8.88908   4
   9  -5 -13 35.9073 6.51525   2
   9   5 -13 40.0013 5.69188   2
  -9   5  13 43.1974 10.3840   4
   9   5 -13 36.2141 7.46950   3
   7  -5 -13 137.721 12.1959   2
  -7  -5  13 167.217 15.2643   4
   7   5 -13 152.808 13.0237   3
  -7   5  13 172.094 15.7257   4
   7   5 -13 166.510 11.6296   2
  -5  -5  13 218.413 18.0567   4
   5  -5 -13 195.553 15.9105   2
   5   5 -13 223.939 16.6827   3
  -5   5  13 266.759 19.0564   4
   5   5 -13 218.181 15.1947   2
  -3  -5  13 201.490 15.3180   3
   3  -5 -13 186.860 14.3456   2
  -3  -5  13 182.257 15.6545   4
   3   5 -13 181.286 13.8849   2
  -3   5  13 179.190 17.1136   4
  -1  -5  13 96.1855 10.7723   4
  -1  -5  13 86.0449 10.1397   3
   1  -5 -13 68.9217 9.02628   2
   1   5 -13 89.3961 9.64192   2
  -1   5  13 100.525 13.2797   4
   1  -5  13 193.715 16.1667   3
   1  -5  13 195.132 15.4268   4
  -1  -5 -13 192.108 14.4324   2
   1   5  13 183.419 17.7184   4
  -1   5 -13 213.082 15.5860   2
   3  -5  13 58.5437 8.68898   4
   3  -5  13 37.9096 9.22273   3
  -3  -5 -13 28.2182 11.3092   2
  -3   5 -13 50.6769 9.12025   2
   3   5  13 42.7063 11.5379   4
  -5  -5 -13 13.2628 7.64717   2
   5  -5  13 18.1902 9.47544   3
  -5   5 -13 22.9476 8.01653   2
   5   5  13 15.2206 9.69701   4
   7  -5  13 36.4275 11.1889   3
  -7  -5 -13 57.8032 9.53018   2
  -7   5 -13 52.3513 10.7608   2
   7   5  13 46.9281 11.6895   4
  -9  -5 -13 237.651 17.6392   2
   9  -5  13 192.524 19.7168   3
   9   5  13 187.728 19.5676   4
  -9   5 -13 239.909 19.4902   2
 -11  -5 -13 64.8699 11.6239   2
  11  -5  13 52.9826 13.0488   3
  11   5  13 94.9319 15.5147   4
 -11   5 -13 91.0748 13.1282   2
  13  -5  13 55.6511 14.6397   3
 -13  -5 -13 61.8787 12.6483   2
  13   5  13 84.1281 17.0112   4
 -24   6  13 20.5789 12.7451   2
  22  -6 -13 17.0560 8.33352   2
 -22  -6  13 14.2537 12.6666   4
 -22   6  13 8.53833 10.4500   2
  22   6 -13 11.9749 13.1906   3
  20  -6 -13 148.166 14.2027   2
 -20  -6  13 172.677 17.5017   4
  20   6 -13 136.093 16.4661   3
 -18  -6  13 35.4843 11.6230   4
  18  -6 -13 47.2238 9.28872   2
 -18   6  13 -0.8802 12.9599   4
  18   6 -13 32.1272 11.1884   3
  16  -6 -13 35.6147 7.67335   2
 -16  -6  13 47.3716 11.2890   4
  16   6 -13 36.7450 10.4789   3
 -16   6  13 33.9382 12.5497   4
 -14  -6  13 127.633 14.3594   4
  14  -6 -13 131.506 11.9751   2
  14   6 -13 148.079 14.6286   3
 -14   6  13 137.631 16.1980   4
  12  -6 -13 195.571 14.7346   2
 -12  -6  13 171.661 16.7265   4
  12   6 -13 226.155 17.3195   3
 -12   6  13 181.372 19.5308   4
  10  -6 -13 86.4221 9.61843   2
 -10  -6  13 72.6883 11.3975   4
  -8  -6  13 83.0545 11.1499   4
   8  -6 -13 80.8307 8.92488   2
  -8   6  13 60.9046 11.5134   4
   8   6 -13 83.9120 9.95239   3
   6  -6 -13 172.588 13.3518   2
  -6  -6  13 181.797 15.7294   4
   6   6 -13 176.188 15.1897   3
   6   6 -13 179.523 13.1681   2
  -6   6  13 178.852 17.2806   4
  -4  -6  13 402.561 26.4734   4
  -4   6  13 420.722 27.7726   4
   4   6 -13 372.014 24.4269   2
   4   6 -13 421.836 26.5297   3
  -2  -6  13 393.084 24.8377   3
  -2  -6  13 347.664 24.3797   4
   2   6 -13 374.149 23.3581   2
  -2   6  13 361.321 26.0925   4
   0  -6 -13 80.4285 10.4327   2
   0  -6  13 82.2351 11.2112   3
   0  -6  13 104.327 10.8956   4
   0   6  13 107.744 13.9547   4
   0   6 -13 67.1740 9.36684   2
   2  -6  13 2.70587 7.63651   3
   2  -6  13 14.9705 7.49942   4
  -2  -6 -13 4.97354 6.57402   2
  -2   6 -13 9.34710 7.50255   2
   2   6  13 9.73919 10.5212   4
  -4  -6 -13 80.3943 9.93588   2
   4  -6  13 82.9785 12.1309   3
  -4   6 -13 71.3260 11.1605   2
   4   6  13 64.3606 13.2755   4
   6  -6  13 4.96113 9.14036   3
  -6  -6 -13 18.8477 7.81496   2
  -6   6 -13 23.9971 8.88167   2
   6   6  13 6.73431 10.4579   4
   8  -6  13 128.687 16.1773   3
  -8  -6 -13 110.093 12.6925   2
  -8   6 -13 114.718 13.6747   2
   8   6  13 144.483 17.1476   4
  10  -6  13 32.5911 13.3719   3
 -10  -6 -13 47.0862 11.0012   2
  10   6  13 38.5381 14.2850   4
 -10   6 -13 44.3859 11.3231   2
  12  -6  13 114.309 17.6319   3
  21  -7 -13 -1.9613 8.06712   2
 -21  -7  13 14.9928 13.4695   4
  21   7 -13 -14.133 12.6556   3
  19  -7 -13 9.12912 7.67797   2
 -19  -7  13 3.53575 10.7513   4
  19   7 -13 -9.5766 11.6521   3
  17  -7 -13 29.8137 8.92507   2
 -17  -7  13 43.1553 11.3025   4
  17   7 -13 54.5117 12.9541   3
 -17   7  13 68.1790 14.7889   4
  15  -7 -13 62.7956 9.40477   2
 -15  -7  13 54.0590 11.9267   4
  15   7 -13 44.2691 10.6949   3
 -15   7  13 19.9892 12.5689   4
 -13  -7  13 42.9936 10.4879   4
  13  -7 -13 53.9338 9.25525   2
  13   7 -13 66.1398 11.5654   3
 -13   7  13 40.4387 12.2562   4
  11  -7 -13 9.72789 6.42135   2
 -11  -7  13 4.23021 8.53408   4
 -11   7  13 4.85730 10.6990   4
  11   7 -13 -3.4514 7.66672   3
   9  -7 -13 20.2058 6.79662   2
  -9  -7  13 29.8930 10.2447   4
   9   7 -13 22.0086 9.13538   3
  -9   7  13 43.4113 12.1845   4
  -7  -7  13 66.2781 10.6261   4
   7  -7 -13 62.0234 8.74786   2
   7   7 -13 54.8510 10.6479   3
  -7   7  13 56.5504 12.4048   4
   5  -7 -13 41.3054 7.36749   2
  -5  -7  13 41.7761 9.89079   4
   5   7 -13 47.6179 9.96924   3
  -5   7  13 34.7117 10.8365   4
  -3  -7  13 84.7438 11.9637   3
   3  -7 -13 105.839 10.8429   2
  -3  -7  13 126.078 13.1196   4
  -3   7  13 95.7694 14.1761   4
   3   7 -13 113.279 10.3280   2
   1  -7 -13 7.27231 6.19362   2
  -1  -7  13 1.57115 7.99030   4
  -1  -7  13 12.5360 8.75175   3
  -1   7  13 10.6726 9.85646   4
   1   7 -13 21.3539 7.44093   2
   1  -7  13 46.3973 9.31386   4
   1  -7  13 25.1550 9.00669   3
  -1  -7 -13 27.0200 7.76120   2
  -1   7 -13 33.5995 8.61895   2
   1   7  13 35.3484 11.1630   4
   3  -7  13 9.81853 8.89196   3
  -3  -7 -13 -3.7151 6.98432   2
   3   7  13 17.1484 11.2845   4
  -3   7 -13 2.86801 7.47560   2
  -5  -7 -13 3.00088 7.67223   2
   5  -7  13 5.44182 10.3121   3
   5   7  13 -1.8358 10.5595   4
  -5   7 -13 18.7404 9.59425   2
  -7  -7 -13 33.9584 9.33948   2
   7  -7  13 23.9865 11.7469   3
  -7   7 -13 10.8189 10.3689   2
   7   7  13 6.09910 11.4767   4
   9  -7  13 10.3110 12.8133   3
  -9   7 -13 23.9420 12.1621   2
   9   7  13 44.8416 15.1235   4
 -20  -8  13 -6.7244 11.8611   4
  20  -8 -13 3.20663 9.49065   2
  20   8 -13 1.27232 20.9425   3
 -18  -8  13 2.44560 11.3613   4
  18  -8 -13 4.87718 8.63197   2
  18   8 -13 -4.9618 11.1914   3
  16  -8 -13 9.04927 8.52119   2
 -16  -8  13 2.88700 11.9161   4
  16   8 -13 -3.8487 11.7256   3
 -16   8  13 -0.6263 14.8099   4
 -14  -8  13 9.89499 11.0211   4
  14  -8 -13 7.67999 7.82291   2
 -14   8  13 -3.6860 12.1589   4
  14   8 -13 -0.0671 10.5922   3
 -12  -8  13 10.3347 9.69810   4
  12  -8 -13 -6.9769 6.67566   2
 -12   8  13 -12.144 11.6971   4
  12   8 -13 2.32940 8.87418   3
 -10  -8  13 -4.8608 8.80441   4
  10  -8 -13 -8.7429 7.03100   2
 -10   8  13 -11.392 10.8803   4
  10   8 -13 -3.1067 9.34743   3
  -8  -8  13 19.6851 10.3865   4
   8  -8 -13 13.6496 6.87269   2
  -8   8  13 17.9238 10.8725   4
   8   8 -13 12.9521 8.93362   3
  -6  -8  13 12.5971 9.58318   4
   6  -8 -13 -4.2805 6.82236   2
  -6   8  13 1.71779 11.1720   4
   6   8 -13 -0.7128 9.42981   3
   4  -8 -13 12.0250 6.55863   2
  -4  -8  13 32.1384 10.0833   4
  -4   8  13 22.7126 11.7972   4
   4   8 -13 8.71295 9.84295   3
  -2  -8  13 -1.0868 9.03487   3
   2  -8 -13 -9.0847 5.83147   2
  -2  -8  13 -0.9435 8.74988   4
  -2   8  13 -8.6292 10.4559   4
   0  -8  13 3.90334 9.67822   3
   0  -8  13 8.42550 8.94074   4
   0  -8 -13 -3.4350 7.04682   2
   0   8 -13 -4.9801 8.25828   2
   0   8  13 -7.1047 11.3942   4
  -2  -8 -13 14.1743 7.79201   2
   2  -8  13 11.6933 9.65950   3
  -2   8 -13 7.00690 8.71717   2
   2   8  13 15.9669 13.0716   4
   4  -8  13 -3.4291 9.79943   3
  -4  -8 -13 5.31460 8.19167   2
  -4   8 -13 7.29434 9.91202   2
   4   8  13 1.13257 11.3676   4
   6  -8  13 11.4649 12.0711   3
  -6   8 -13 40.0053 11.7739   2
   6   8  13 46.6727 15.0357   4
   8  -8  13 10.7206 13.1678   3
  -8   8 -13 7.82255 12.0103   2
   8   8  13 10.7155 22.0002   4
 -17  -9  13 24.1267 12.6583   4
 -15  -9  13 20.1254 12.1040   4
  15  -9 -13 15.9453 9.68125   2
  15   9 -13 25.9557 12.6930   3
 -13  -9  13 48.7896 12.4586   4
  13  -9 -13 52.4352 9.62734   2
 -13   9  13 61.8445 16.4347   4
  13   9 -13 50.0234 14.1990   3
 -11  -9  13 86.2052 14.0586   4
  11  -9 -13 134.218 13.0935   2
 -11   9  13 92.0422 15.6879   4
  11   9 -13 133.340 15.8230   3
   9  -9 -13 17.5900 8.20260   2
  -9  -9  13 12.5197 10.2158   4
   9   9 -13 9.41702 10.4466   3
  -9   9  13 16.0451 13.1883   4
  -7  -9  13 50.6986 11.1147   4
   7  -9 -13 52.9299 8.92625   2
   7   9 -13 41.0797 12.4294   3
  -7   9  13 49.4047 14.3753   4
  -5  -9  13 89.9682 13.3620   4
   5  -9 -13 89.7740 10.9973   2
   5   9 -13 74.2121 14.4020   3
  -5   9  13 93.2164 15.8803   4
  -3  -9  13 164.163 16.4215   4
   3  -9 -13 146.213 13.7661   2
  -3   9  13 152.616 18.5834   4
   3   9 -13 184.525 18.8124   3
  -1  -9  13 51.0699 12.2712   3
   1  -9 -13 57.5042 9.76511   2
  -1   9  13 48.4492 14.1618   4
  -1  -9 -13 39.8105 9.48093   2
   1  -9  13 46.4058 11.7716   3
   1   9  13 32.4431 13.5067   4
   3  -9  13 7.09208 12.0157   3
  -3   9 -13 7.65459 10.4821   2
   3   9  13 8.15027 13.1325   4
   5  -9  13 9.86078 12.9008   3
   5   9  13 19.5794 15.7700   4
  -5   9 -13 -5.6788 11.3038   2
 -12 -10  13 70.1070 15.5882   4
  12 -10 -13 57.5982 11.0612   2
 -12  10  13 35.4634 16.5227   4
 -10 -10  13 2.95935 12.3194   4
  10 -10 -13 15.5395 8.85307   2
 -10  10  13 25.3204 15.9185   4
  10  10 -13 3.75357 12.2629   3
   8 -10 -13 54.1273 9.90717   2
  -8 -10  13 79.7559 14.6238   4
  -8  10  13 39.2689 14.3961   4
   8  10 -13 44.9464 14.4823   3
  -6 -10  13 31.4064 12.8475   4
   6 -10 -13 30.2551 9.34173   2
  -6  10  13 39.8544 14.3560   4
   6  10 -13 21.7128 13.4534   3
   4 -10 -13 121.316 12.9950   2
  -4 -10  13 99.8947 15.0520   4
   4  10 -13 129.585 17.9190   3
  -4  10  13 82.2273 18.2692   4
   2 -10 -13 37.0834 9.57794   2
  -2  10  13 62.5251 17.2475   4
   2  10 -13 33.4342 14.1029   3
   0 -10  13 17.4201 14.3269   3
   0  10  13 13.3413 16.6828   4
 -26   0  14 27.9167 11.9600   4
 -26   0  14 14.3941 9.62663   2
 -24   0  14 176.093 14.7360   2
  24   0 -14 133.001 16.7546   3
 -24   0  14 119.648 15.7206   4
  22   0 -14 93.1677 9.98701   2
 -22   0  14 85.6657 12.9336   4
  22   0 -14 52.4157 11.7304   3
 -20   0  14 187.201 18.3443   4
  20   0 -14 208.978 15.1589   2
  20   0 -14 208.785 17.4051   3
 -18   0  14 298.827 25.4191   4
  18   0 -14 356.694 21.8623   2
  18   0 -14 378.375 23.9070   3
  16   0 -14 36.8522 7.82757   3
  16   0 -14 49.0914 7.10417   2
 -16   0  14 57.9239 11.9936   4
  14   0 -14 199.208 14.3491   2
 -14   0  14 219.030 18.8984   4
  14   0 -14 196.376 14.5753   3
  12   0 -14 603.241 35.1558   2
 -12   0  14 607.143 38.2873   4
  12   0 -14 622.978 34.7083   3
  10   0 -14 0.54555 4.95564   2
 -10   0  14 -6.7689 8.70251   4
  10   0 -14 3.66157 3.58126   3
   8   0 -14 121.121 8.25807   3
  -8   0  14 127.569 13.7418   4
   8   0 -14 125.018 9.96909   2
   6   0 -14 948.478 52.5294   3
   6   0 -14 1027.59 54.3379   2
  -6   0  14 943.753 56.3265   4
   4   0 -14 1695.48 89.9902   3
  -4   0  14 1627.54 93.2178   4
   4   0 -14 1678.27 91.5337   2
  -2   0  14 218.012 18.6567   4
  -2   0  14 241.641 14.2540   3
   2   0 -14 230.801 16.0525   2
   0   0 -14 172.662 13.6219   2
   0   0  14 161.562 12.0319   3
   0   0  14 181.553 16.0265   4
  -2   0 -14 465.781 28.3558   2
   2   0  14 465.551 27.6273   3
   2   0  14 461.126 30.5136   4
   4   0  14 400.918 25.9165   3
   4   0  14 441.931 28.3934   4
  -4   0 -14 422.530 26.3265   2
  -6   0 -14 152.365 13.4432   2
   6   0  14 141.527 14.9867   4
   6   0  14 145.666 13.4287   3
   8   0  14 208.320 18.3105   4
   8   0  14 207.069 17.2516   3
  -8   0 -14 196.212 16.5868   2
 -10   0 -14 101.902 13.1792   2
 -12   0 -14 257.050 21.1949   2
  12   0  14 284.174 23.1288   3
  14   0  14 39.6634 14.0800   3
 -14   0 -14 13.9807 12.0585   2
  27  -1 -14 109.027 18.2002   3
 -27  -1  14 74.7742 14.7549   4
 -27   1  14 64.2932 12.4950   2
  27   1 -14 64.7554 16.6479   3
 -25  -1  14 31.7830 11.6718   4
  25  -1 -14 36.9904 13.5155   3
 -25   1  14 52.7713 12.9591   4
  25   1 -14 24.9276 12.9965   3
 -25   1  14 50.0180 10.3896   2
 -23  -1  14 15.8443 10.4633   4
  23  -1 -14 -1.6859 10.7914   3
  23  -1 -14 5.11299 6.45939   2
  23   1 -14 -5.7929 10.7956   3
 -23   1  14 -0.4922 10.6453   4
  21  -1 -14 27.0331 9.92730   3
 -21  -1  14 22.8273 10.0596   4
  21  -1 -14 43.5319 7.97314   2
  21   1 -14 33.9607 15.7288   3
  21   1 -14 31.5845 7.18882   2
 -21   1  14 33.4702 11.6387   4
 -19  -1  14 116.228 13.9356   4
  19  -1 -14 107.384 11.1187   2
 -19   1  14 83.8485 13.4864   4
  19   1 -14 100.947 12.1314   3
  19   1 -14 104.057 9.68492   2
  17  -1 -14 193.173 14.0534   2
 -17  -1  14 161.843 16.5318   4
  17  -1 -14 165.365 14.0171   3
 -17   1  14 187.787 17.9049   4
  17   1 -14 213.697 15.4139   3
  17   1 -14 167.426 13.0591   2
 -15  -1  14 290.158 22.1760   4
  15  -1 -14 247.514 17.9232   3
  15  -1 -14 275.491 17.4959   2
  15   1 -14 289.089 17.3902   2
  15   1 -14 231.887 17.9593   3
 -15   1  14 297.795 22.7127   4
 -13  -1  14 32.3340 10.4220   4
  13  -1 -14 24.0648 5.34028   3
  13  -1 -14 31.1915 6.15725   2
  13   1 -14 19.4666 5.46397   2
  13   1 -14 22.6436 5.89850   3
 -13   1  14 35.2903 10.4536   4
  11  -1 -14 26.7154 3.98168   3
  11  -1 -14 14.1552 5.15709   2
 -11  -1  14 18.6628 9.96313   4
 -11   1  14 22.9820 9.84620   4
  11   1 -14 25.8054 5.06988   3
  11   1 -14 32.1892 5.59956   2
  -9  -1  14 523.221 33.1359   4
   9  -1 -14 505.402 29.2537   2
   9   1 -14 478.113 29.1007   2
  -9   1  14 497.151 32.4040   4
   9   1 -14 500.364 28.3282   3
  -7  -1  14 14.2209 9.26553   4
   7  -1 -14 0.12753 4.62255   2
   7   1 -14 5.32533 5.17666   2
   7   1 -14 4.52077 3.14677   3
  -7   1  14 8.09580 9.42861   4
  -5  -1  14 201.794 16.3788   4
   5  -1 -14 153.280 11.6163   2
   5   1 -14 135.234 9.59381   3
   5   1 -14 127.708 10.8665   2
  -5   1  14 122.011 13.4907   4
   3  -1 -14 358.093 22.8671   2
  -3  -1  14 386.640 26.5508   4
  -3  -1  14 381.158 21.7445   3
  -3   1  14 361.190 25.4026   4
   3   1 -14 378.636 22.9376   2
   1  -1 -14 69.7582 8.07543   2
  -1  -1  14 92.6630 12.1531   4
   1   1 -14 64.9608 8.23146   2
  -1   1  14 62.7290 5.56584   3
  -1   1  14 69.5719 11.4145   4
  -1  -1 -14 67.3156 8.67299   2
   1  -1  14 68.2136 7.96712   3
   1  -1  14 84.3697 12.1861   4
  -1   1 -14 70.0176 8.69049   2
   1   1  14 75.0526 7.10155   3
   1   1  14 70.8652 10.8778   4
   3  -1  14 77.3782 11.7207   4
  -3  -1 -14 58.7240 9.53334   2
   3  -1  14 85.3050 9.08846   3
  -3   1 -14 64.6942 9.89167   2
   3   1  14 63.5767 7.95171   3
   3   1  14 74.3655 11.3479   4
   5  -1  14 20.5382 7.87990   3
  -5  -1 -14 30.2055 8.28892   2
   5  -1  14 4.81994 9.34650   4
  -5   1 -14 11.7543 7.75652   2
   5   1  14 36.5067 9.92440   4
   5   1  14 28.8004 7.51409   3
   7  -1  14 103.124 13.0528   4
   7  -1  14 98.6443 12.1671   3
  -7  -1 -14 112.784 11.7707   2
   7   1  14 108.481 13.4058   4
   7   1  14 108.998 11.6770   3
  -7   1 -14 87.6610 12.0008   2
   9  -1  14 140.382 15.2366   3
  -9  -1 -14 155.259 14.7264   2
   9   1  14 155.969 14.9392   3
   9   1  14 139.596 15.9631   4
  -9   1 -14 146.387 14.2503   2
  11  -1  14 41.7435 12.1001   3
 -11  -1 -14 20.5573 9.29678   2
 -11   1 -14 16.3199 9.17913   2
  11   1  14 20.7255 10.8177   3
 -13  -1 -14 23.6404 10.2625   2
  13  -1  14 29.3115 13.5393   3
 -13   1 -14 40.1854 12.3826   2
  13   1  14 28.7472 15.4303   3
 -26  -2  14 17.5618 12.1007   4
  26  -2 -14 4.98940 13.3801   3
 -26   2  14 22.6433 10.5626   2
  26   2 -14 -6.7654 14.3769   3
 -24  -2  14 3.32907 10.8030   4
  24  -2 -14 5.95311 7.28020   2
  24  -2 -14 -2.3112 11.0665   3
  24   2 -14 -8.8732 11.6821   3
 -22  -2  14 21.0046 10.6970   4
  22  -2 -14 14.3220 7.75096   2
  22  -2 -14 31.7923 10.9526   3
 -22   2  14 25.5585 11.5469   4
  22   2 -14 13.0323 10.7070   3
  20  -2 -14 5.93975 6.69014   2
  20  -2 -14 -0.5369 8.57928   3
 -20  -2  14 12.7758 10.3583   4
 -20   2  14 -0.7510 10.1700   4
  20   2 -14 3.57198 5.76895   2
  20   2 -14 1.00759 10.0628   3
  18  -2 -14 0.43098 5.98520   2
  18  -2 -14 2.87450 7.28366   3
 -18  -2  14 -8.0104 8.20825   4
  18   2 -14 -8.8870 7.36432   3
 -18   2  14 0.16176 10.5436   4
  18   2 -14 9.88251 5.44227   2
  16  -2 -14 2.71114 6.13850   3
  16  -2 -14 6.82758 5.35912   2
 -16   2  14 18.2527 11.0556   4
  16   2 -14 -0.9941 6.41448   3
  16   2 -14 2.42988 5.02708   2
  14  -2 -14 2.47946 5.01622   3
 -14  -2  14 0.70177 9.07965   4
  14  -2 -14 -5.2672 5.36989   2
 -14   2  14 12.0460 11.3029   4
  14   2 -14 4.41883 4.73183   2
  14   2 -14 5.26714 5.81052   3
  12  -2 -14 62.5863 7.51318   2
  12  -2 -14 54.6827 5.83947   3
 -12  -2  14 76.5919 11.0412   4
  12   2 -14 62.0328 7.06138   2
 -12   2  14 69.2083 12.0130   4
  12   2 -14 73.5907 7.48052   3
 -10  -2  14 144.827 14.9419   4
  10  -2 -14 167.721 12.3282   2
  10   2 -14 148.503 11.3216   2
 -10   2  14 160.054 15.3908   4
  10   2 -14 130.907 11.0748   3
   8  -2 -14 -6.1368 5.41028   2
  -8  -2  14 -5.7653 8.24972   4
   8   2 -14 -3.7179 4.45896   2
   8   2 -14 4.62376 3.97437   3
  -8   2  14 2.33043 8.54126   4
  -6  -2  14 14.6249 8.93928   4
   6  -2 -14 21.3169 5.66115   2
   6   2 -14 25.8133 4.75867   3
   6   2 -14 16.7808 5.52584   2
  -6   2  14 33.0592 9.76978   4
   4  -2 -14 31.1223 6.08465   2
  -4  -2  14 45.7932 10.9273   4
  -4  -2  14 40.8054 5.78519   3
  -4   2  14 44.7077 10.0590   4
   4   2 -14 34.5387 6.65283   2
   2  -2 -14 1.28549 5.19969   2
  -2  -2  14 11.4204 9.89217   4
  -2  -2  14 5.01690 4.80859   3
   2   2 -14 8.83355 6.17190   2
  -2   2  14 14.2479 9.32253   4
   0  -2  14 13.6546 9.31214   4
   0  -2 -14 7.14064 5.85719   2
   0  -2  14 11.9233 5.81350   3
   0   2 -14 11.9748 5.98025   2
   0   2  14 -2.1859 8.82417   4
  -2  -2 -14 -0.7826 6.03583   2
   2  -2  14 5.02058 9.11174   4
   2  -2  14 -5.5411 6.05119   3
   2   2  14 0.97007 8.75751   4
  -2   2 -14 -1.6574 5.98549   2
   4  -2  14 0.63050 8.77541   4
   4  -2  14 4.81440 7.11637   3
  -4  -2 -14 -0.4118 6.08972   2
   4   2  14 0.78093 8.10975   4
  -4   2 -14 -4.9210 6.21807   2
   6  -2  14 1.06283 9.25111   4
  -6  -2 -14 14.3151 7.80751   2
   6  -2  14 12.3029 8.37876   3
   6   2  14 5.82994 9.94404   4
  -6   2 -14 9.18042 7.58055   2
  -8  -2 -14 58.0719 9.65410   2
   8  -2  14 47.7325 10.8728   3
  -8   2 -14 58.5823 10.0294   2
 -10  -2 -14 -1.2088 8.19685   2
  10  -2  14 -2.6517 10.3057   3
 -10   2 -14 6.03272 9.06972   2
  10   2  14 2.56505 10.8538   4
  12  -2  14 23.8554 12.7259   3
 -12  -2 -14 28.6597 11.1705   2
 -12   2 -14 27.2799 10.3210   2
 -14  -2 -14 8.40954 11.4623   2
  14  -2  14 20.5393 14.4392   3
 -25  -3  14 5.13262 11.8515   4
  25  -3 -14 7.58403 12.4691   3
  25   3 -14 -4.9107 13.5003   3
 -25   3  14 7.05123 9.58321   2
 -23  -3  14 36.2054 11.6246   4
  23  -3 -14 30.4627 8.82417   2
  23  -3 -14 22.0089 11.3557   3
  23   3 -14 15.6686 11.5026   3
  21  -3 -14 73.6548 10.1896   2
 -21  -3  14 86.3429 12.4736   4
  21  -3 -14 66.0643 11.8364   3
  21   3 -14 54.7538 12.1101   3
 -21   3  14 63.8414 14.7951   4
  19  -3 -14 103.820 11.6177   3
  19  -3 -14 117.159 10.8374   2
 -19  -3  14 77.1227 13.0767   4
  19   3 -14 120.532 15.1197   3
 -19   3  14 104.459 14.4858   4
  17  -3 -14 106.170 10.7373   2
  17  -3 -14 126.941 11.4691   3
 -17  -3  14 122.990 13.9194   4
 -17   3  14 111.349 15.4854   4
  17   3 -14 123.404 12.8135   3
  17   3 -14 125.226 9.69950   2
  15  -3 -14 89.1088 8.77125   3
 -15  -3  14 87.1910 12.8203   4
  15  -3 -14 87.5242 10.0141   2
  15   3 -14 74.1237 9.45255   3
  15   3 -14 81.2130 7.66376   2
 -15   3  14 70.7570 13.9400   4
 -13  -3  14 95.1919 12.4538   4
  13  -3 -14 99.5442 9.59835   2
 -13   3  14 131.652 14.1682   4
  13   3 -14 89.8938 8.29018   2
  13   3 -14 79.3609 9.37247   3
  11  -3 -14 9.15819 5.70537   2
 -11  -3  14 11.5461 8.79779   4
  11   3 -14 16.2830 4.88337   2
  11   3 -14 16.4300 5.52295   3
 -11   3  14 16.6014 10.4064   4
  -9  -3  14 15.1356 8.84678   4
   9  -3 -14 21.5193 5.66996   2
   9   3 -14 30.4585 5.67259   2
  -9   3  14 28.1036 9.83362   4
   9   3 -14 27.1871 5.68076   3
   7  -3 -14 145.578 11.1184   2
  -7  -3  14 122.562 13.1623   4
   7   3 -14 116.667 10.0988   3
  -7   3  14 105.494 13.8167   4
   7   3 -14 121.393 10.2146   2
  -5  -3  14 347.932 23.9736   4
   5  -3 -14 340.657 21.6422   2
   5   3 -14 353.979 21.2773   2
  -5   3  14 320.015 24.2152   4
   5   3 -14 358.181 21.5536   3
  -3  -3  14 304.867 18.9121   3
  -3  -3  14 263.583 21.0604   4
   3  -3 -14 284.841 19.2782   2
  -3   3  14 297.995 21.8224   4
   3   3 -14 285.463 19.1587   2
  -1  -3  14 10.9952 9.38882   4
   1  -3 -14 13.1904 6.02726   2
  -1  -3  14 6.53272 5.93641   3
   1   3 -14 11.3686 5.90609   2
  -1   3  14 15.1837 9.41946   4
   1  -3  14 108.868 12.7198   4
   1  -3  14 96.0420 10.4574   3
  -1  -3 -14 105.423 10.2726   2
   1   3  14 112.084 13.0555   4
  -1   3 -14 99.7281 10.9044   2
  -3  -3 -14 252.201 17.9640   2
   3  -3  14 277.180 20.0925   4
   3  -3  14 240.413 18.7896   3
   3   3  14 249.776 20.1048   4
  -3   3 -14 275.120 18.4752   2
   5  -3  14 24.5287 8.58402   3
  -5  -3 -14 21.0704 7.80915   2
   5  -3  14 17.2009 9.13890   4
  -5   3 -14 11.3771 8.24416   2
   5   3  14 17.9433 9.72726   4
  -7  -3 -14 17.3031 7.80721   2
   7  -3  14 39.4292 11.5459   3
   7   3  14 18.9288 10.5089   4
  -7   3 -14 18.8390 8.62205   2
   9  -3  14 63.5201 12.3829   3
  -9  -3 -14 49.2251 9.98404   2
  -9   3 -14 77.2982 11.6418   2
   9   3  14 64.0304 13.1500   4
 -11  -3 -14 97.0342 13.0096   2
  11  -3  14 146.929 16.7221   3
 -11   3 -14 132.126 15.3443   2
  11   3  14 154.565 17.4707   4
  13  -3  14 33.4502 14.0157   3
 -13  -3 -14 37.8072 11.1570   2
 -13   3 -14 67.6725 13.9781   2
 -26   4  14 35.8245 13.1642   2
 -24  -4  14 56.4287 12.8704   4
  24   4 -14 70.8737 15.7182   3
 -24   4  14 60.9211 12.7876   2
  22  -4 -14 -2.7235 7.43610   2
 -22  -4  14 15.6577 11.5846   4
  22   4 -14 17.6320 12.0716   3
  20  -4 -14 110.097 11.8840   2
 -20  -4  14 146.031 16.1590   4
 -20   4  14 133.848 16.7850   4
  20   4 -14 152.937 15.8214   3
  18  -4 -14 181.584 15.2387   2
 -18  -4  14 172.344 17.8862   4
 -18   4  14 212.624 19.7263   4
  18   4 -14 218.423 17.7363   3
  16  -4 -14 153.213 13.8049   2
 -16  -4  14 191.656 16.9902   4
  16   4 -14 182.793 15.6111   3
 -16   4  14 181.511 18.6528   4
  14  -4 -14 28.3266 6.39742   2
 -14  -4  14 31.7455 9.81303   4
  14   4 -14 35.3860 5.35779   2
 -14   4  14 40.0405 10.8433   4
  14   4 -14 24.7307 7.50969   3
 -12  -4  14 61.2248 12.7829   4
  12  -4 -14 43.0676 8.14493   2
  12   4 -14 60.3971 8.46321   3
 -12   4  14 57.7440 11.2400   4
  12   4 -14 55.8355 6.32989   2
 -10  -4  14 41.2292 9.91656   4
  10  -4 -14 35.8227 6.33577   2
 -10   4  14 35.5704 10.1820   4
  10   4 -14 40.7718 7.16236   3
  10   4 -14 35.8913 5.74207   2
   8  -4 -14 227.862 15.7619   2
  -8  -4  14 253.472 19.4208   4
   8   4 -14 233.112 15.1922   2
  -8   4  14 219.885 19.0353   4
   8   4 -14 204.226 15.8617   3
  -6  -4  14 143.289 15.0863   4
   6  -4 -14 162.131 12.9156   2
   6   4 -14 146.905 12.0247   2
  -6   4  14 163.578 16.4370   4
   6   4 -14 167.870 13.0276   3
   4  -4 -14 498.899 30.5658   2
  -4  -4  14 554.330 30.9570   3
  -4  -4  14 521.725 32.4366   4
   4   4 -14 518.374 30.6439   2
  -4   4  14 484.905 32.9756   4
  -2  -4  14 278.532 19.9771   3
   2  -4 -14 281.794 19.1814   2
  -2  -4  14 325.532 22.0363   4
  -2   4  14 294.489 22.1928   4
   2   4 -14 299.981 19.5599   2
   0  -4  14 211.571 16.6381   4
   0  -4 -14 165.068 14.4623   2
   0  -4  14 215.075 16.0145   3
   0   4 -14 215.420 15.6165   2
   0   4  14 193.175 17.5645   4
   2  -4  14 58.0620 9.26632   3
  -2  -4 -14 67.3782 9.11530   2
   2  -4  14 74.9637 10.6355   4
  -2   4 -14 52.8093 9.46814   2
   2   4  14 67.9756 12.4717   4
  -4  -4 -14 104.718 11.3551   2
   4  -4  14 103.036 12.4778   3
   4  -4  14 109.940 11.6895   4
   4   4  14 95.1583 13.0584   4
  -4   4 -14 86.1156 10.9090   2
  -6  -4 -14 193.795 16.6547   2
   6  -4  14 219.611 18.0597   3
  -6   4 -14 207.759 17.1417   2
   6   4  14 224.162 19.4302   4
  -8  -4 -14 168.191 15.5108   2
   8  -4  14 162.713 17.0810   3
   8   4  14 176.812 18.4425   4
  -8   4 -14 163.154 15.8822   2
 -10  -4 -14 38.3152 10.3858   2
  10  -4  14 46.6293 12.9094   3
 -10   4 -14 32.9749 11.6013   2
  10   4  14 28.0500 12.8463   4
 -12  -4 -14 86.9330 12.9636   2
  12  -4  14 86.9561 15.6390   3
  12   4  14 98.8317 17.1341   4
 -12   4 -14 78.6082 13.5055   2
  23  -5 -14 15.8950 9.37828   2
 -23  -5  14 27.0738 12.0238   4
  23   5 -14 8.95255 13.5919   3
 -21  -5  14 114.819 15.5305   4
  21  -5 -14 79.4671 11.1456   2
  21   5 -14 108.533 14.7584   3
 -19  -5  14 9.16396 9.67386   4
  19  -5 -14 3.28418 6.69250   2
  19   5 -14 1.69991 10.0917   3
 -19   5  14 -4.0001 14.4919   4
  17  -5 -14 20.6856 7.55775   2
 -17  -5  14 41.5465 11.1489   4
  17   5 -14 18.7955 8.40570   3
  15  -5 -14 107.028 10.1059   2
 -15  -5  14 80.2733 11.9633   4
 -15   5  14 45.1743 14.2810   4
  15   5 -14 61.4920 10.7070   3
  13  -5 -14 61.6161 8.62140   2
 -13  -5  14 57.1442 10.4828   4
 -13   5  14 62.6624 11.8851   4
  13   5 -14 57.4361 9.54834   3
 -11  -5  14 4.93976 8.96961   4
  11  -5 -14 1.71159 5.89287   2
  11   5 -14 -6.0595 4.74364   2
 -11   5  14 7.43334 9.38665   4
  11   5 -14 0.92007 6.18356   3
   9  -5 -14 20.0076 5.94959   2
   9   5 -14 25.1752 5.53320   2
   9   5 -14 18.1640 6.80371   3
  -9   5  14 20.8959 16.0047   4
  -7  -5  14 89.6326 11.7011   4
   7  -5 -14 64.0098 9.62149   2
   7   5 -14 73.5451 9.44362   3
  -7   5  14 50.4180 17.9027   4
   7   5 -14 62.4027 7.59995   2
  -5  -5  14 131.259 13.6215   4
   5   5 -14 113.919 10.3623   2
  -5   5  14 115.347 13.7408   4
   5   5 -14 120.120 11.8796   3
  -3  -5  14 287.431 19.8948   4
  -3  -5  14 252.912 18.3951   3
  -3   5  14 268.012 20.8218   4
   3   5 -14 226.598 17.3642   2
  -1  -5  14 -4.9274 7.21954   4
   1  -5 -14 -7.1614 5.14417   2
  -1  -5  14 1.68254 7.06709   3
   1   5 -14 -10.142 6.16996   2
  -1   5  14 -21.701 8.67627   4
  -1  -5 -14 34.9330 7.77795   2
   1  -5  14 43.8756 8.76834   4
   1  -5  14 26.3355 8.61234   3
   1   5  14 27.3127 10.0668   4
  -3  -5 -14 117.233 12.1014   2
   3  -5  14 134.805 12.6120   4
   3  -5  14 126.862 13.2308   3
  -3   5 -14 136.297 13.1301   2
   3   5  14 102.856 14.4208   4
  -5  -5 -14 39.1825 8.54208   2
   5  -5  14 52.5972 10.8631   3
   5   5  14 35.6908 12.3050   4
  -5   5 -14 54.3401 10.5927   2
  -7  -5 -14 33.7145 9.38361   2
   7  -5  14 23.3303 10.6994   3
   7   5  14 45.8006 12.5168   4
  -7   5 -14 24.8414 9.95123   2
   9  -5  14 10.1386 11.9201   3
  -9  -5 -14 24.6695 9.22904   2
  -9   5 -14 2.82362 9.66925   2
   9   5  14 8.33191 11.5226   4
  11  -5  14 74.3479 15.5170   3
 -11  -5 -14 103.499 13.6666   2
 -11   5 -14 89.7682 13.9842   2
  11   5  14 96.1727 16.0811   4
  22  -6 -14 23.5246 9.85218   2
 -22  -6  14 20.9677 13.0515   4
  22   6 -14 25.8499 12.7984   3
  20  -6 -14 -3.5696 8.00016   2
 -20  -6  14 12.7917 10.8695   4
  20   6 -14 -4.2411 10.1495   3
 -18  -6  14 32.4679 10.4877   4
  18  -6 -14 8.32421 7.06777   2
  18   6 -14 34.3007 10.2943   3
 -18   6  14 -3.2164 13.7499   4
 -16  -6  14 5.96647 9.69892   4
  16  -6 -14 -5.1189 6.98462   2
  16   6 -14 3.43387 9.21190   3
 -16   6  14 0.72524 11.8752   4
  14  -6 -14 2.16230 6.66925   2
 -14  -6  14 2.95053 9.88605   4
 -14   6  14 -13.947 11.0357   4
  14   6 -14 7.67579 8.64361   3
  12  -6 -14 1.08488 6.48016   2
 -12  -6  14 10.3737 9.63933   4
 -12   6  14 -10.994 9.51966   4
  12   6 -14 -0.1202 7.74781   3
 -10  -6  14 6.10367 8.21107   4
  10  -6 -14 18.7893 7.16635   2
  10   6 -14 5.12579 6.69701   3
 -10   6  14 14.9195 11.2082   4
   8  -6 -14 7.95436 6.64131   2
  -8  -6  14 7.78820 8.82530   4
  -8   6  14 7.36259 10.6773   4
   6  -6 -14 16.7255 6.74328   2
   6   6 -14 12.3877 7.81368   3
   6   6 -14 -4.4660 5.41566   2
  -6   6  14 2.90708 10.0896   4
   4  -6 -14 105.710 10.5795   2
  -4  -6  14 99.6530 12.2344   4
   4   6 -14 116.014 10.5246   2
  -4   6  14 107.633 14.3636   4
  -2  -6  14 2.88294 6.93590   3
   2  -6 -14 -0.4228 6.36169   2
  -2  -6  14 5.31340 7.51572   4
   2   6 -14 -3.2420 6.18260   2
  -2   6  14 6.94789 10.1462   4
   0  -6  14 15.7885 8.72325   3
   0  -6 -14 12.2296 6.32926   2
   0  -6  14 26.7752 8.28725   4
   0   6 -14 12.2489 7.55755   2
   0   6  14 9.09262 10.8703   4
   2  -6  14 41.5625 10.5332   3
   2  -6  14 23.8771 8.72164   4
  -2  -6 -14 39.9167 8.35846   2
   2   6  14 41.3600 11.2644   4
  -2   6 -14 44.2952 9.42652   2
   4  -6  14 11.4631 9.94986   3
  -4  -6 -14 24.1956 8.39887   2
   4   6  14 12.5026 11.1442   4
  -4   6 -14 11.1124 8.11444   2
   6  -6  14 2.49264 10.2202   3
  -6  -6 -14 1.09174 8.20881   2
   6   6  14 9.04907 12.5525   4
  -6   6 -14 -2.2414 9.45238   2
  -8  -6 -14 0.79895 8.74832   2
   8  -6  14 5.92662 11.7044   3
  -8   6 -14 -2.2688 10.6180   2
   8   6  14 22.0197 14.5657   4
 -10  -6 -14 14.8457 10.3580   2
  10  -6  14 10.7880 13.4317   3
  10   6  14 10.8129 14.6684   4
 -10   6 -14 -4.5987 11.8090   2
 -21  -7  14 -11.494 11.2578   4
  21   7 -14 -17.086 13.4367   3
 -19  -7  14 64.1923 13.5024   4
  19  -7 -14 72.6811 10.4725   2
  19   7 -14 77.2348 14.6054   3
 -17  -7  14 138.086 16.4437   4
  17  -7 -14 109.796 11.9974   2
 -17   7  14 86.8764 17.1082   4
  17   7 -14 112.910 15.6193   3
 -15  -7  14 13.3410 9.74724   4
  15  -7 -14 2.10512 6.82199   2
 -15   7  14 1.51637 12.5814   4
  15   7 -14 6.96584 9.34031   3
  13  -7 -14 -2.1335 6.67506   2
 -13  -7  14 4.19774 10.0446   4
 -13   7  14 -7.0460 12.0721   4
  13   7 -14 4.24050 9.56159   3
 -11  -7  14 19.9979 10.6266   4
  11  -7 -14 6.80168 6.62951   2
  11   7 -14 16.4785 8.36916   3
 -11   7  14 11.2439 10.6530   4
   9  -7 -14 35.9849 7.54543   2
  -9  -7  14 34.3113 9.78401   4
  -9   7  14 23.9497 11.9629   4
   9   7 -14 19.5465 9.16158   3
   7  -7 -14 37.5682 8.24453   2
  -7  -7  14 51.0130 11.0271   4
   7   7 -14 41.7067 10.2644   3
  -7   7  14 31.8617 12.1675   4
   5  -7 -14 61.1654 8.92210   2
  -5  -7  14 39.9893 10.1184   4
  -5   7  14 77.3703 12.9692   4
   5   7 -14 48.8928 10.6078   3
  -3  -7  14 79.9507 11.5852   4
   3  -7 -14 75.2283 9.23188   2
  -3  -7  14 45.5902 9.74886   3
  -3   7  14 56.4745 12.4882   4
   3   7 -14 75.8786 9.30410   2
   1  -7 -14 30.3105 7.95478   2
  -1  -7  14 19.5664 8.55420   3
  -1  -7  14 16.2386 9.08504   4
  -1   7  14 7.96094 10.5418   4
   1   7 -14 21.6672 7.87950   2
   1  -7  14 51.0652 11.2864   3
  -1  -7 -14 41.4317 8.07670   2
   1   7  14 68.5196 13.7300   4
  -1   7 -14 41.7510 9.57740   2
  -3  -7 -14 -4.2926 6.92226   2
   3  -7  14 -10.487 9.70652   3
  -3   7 -14 7.51662 9.14708   2
   3   7  14 20.6798 13.4246   4
   5  -7  14 9.13425 9.88030   3
  -5  -7 -14 11.4472 8.42692   2
  -5   7 -14 19.2308 10.3118   2
   5   7  14 19.6234 12.8423   4
  -7  -7 -14 58.8523 10.8326   2
   7  -7  14 51.3037 13.4052   3
   7   7  14 51.5783 15.8974   4
  -7   7 -14 34.3026 10.7941   2
  -9   7 -14 3.34205 12.4613   2
  18  -8 -14 14.5802 9.72578   2
 -18  -8  14 28.7566 14.0847   4
  18   8 -14 29.4283 12.6701   3
  16  -8 -14 29.7636 9.61839   2
 -16  -8  14 37.2561 12.5811   4
 -16   8  14 18.6460 14.7891   4
  16   8 -14 33.9262 13.5275   3
 -14  -8  14 75.8298 13.3767   4
  14  -8 -14 44.2371 9.02153   2
 -14   8  14 19.5858 14.8640   4
  14   8 -14 46.7341 12.8201   3
  12  -8 -14 9.83095 7.50693   2
 -12  -8  14 0.34631 10.9052   4
  12   8 -14 3.08496 10.3339   3
 -12   8  14 7.65207 13.1065   4
 -10  -8  14 7.72477 10.9012   4
  10  -8 -14 1.61645 7.60790   2
  10   8 -14 -1.3849 9.04119   3
 -10   8  14 7.30786 11.2354   4
  -8  -8  14 26.1999 11.2772   4
   8  -8 -14 25.5522 7.66421   2
  -8   8  14 33.0397 13.3772   4
   8   8 -14 39.7494 11.3291   3
   6  -8 -14 67.9293 8.96196   2
  -6  -8  14 50.9728 10.8554   4
  -6   8  14 39.0617 12.8148   4
   6   8 -14 55.0884 12.3033   3
  -4  -8  14 288.283 21.9243   4
   4  -8 -14 243.897 19.2805   2
  -4   8  14 273.975 23.7264   4
   4   8 -14 254.239 21.6381   3
  -2  -8  14 33.8823 10.7075   4
   2  -8 -14 28.8287 7.65266   2
  -2  -8  14 28.2724 9.55080   3
  -2   8  14 52.9091 13.8579   4
   0  -8 -14 2.44303 7.99017   2
   0  -8  14 1.84255 10.2090   3
   0   8  14 19.1486 12.7793   4
   0   8 -14 0.45474 8.44598   2
   2  -8  14 72.6698 12.6046   3
  -2  -8 -14 82.8279 11.0884   2
   2   8  14 101.263 17.6568   4
  -2   8 -14 78.2667 12.2475   2
  -4  -8 -14 74.9497 11.2689   2
   4  -8  14 22.4196 12.6152   3
   4   8  14 89.9775 16.2145   4
  -4   8 -14 77.8944 12.0623   2
   6  -8  14 11.0753 11.7101   3
   6   8  14 12.8283 14.4908   4
  -6   8 -14 -3.4543 10.7452   2
 -15  -9  14 10.8705 12.1362   4
  15  -9 -14 9.87221 9.46334   2
 -15   9  14 8.04220 15.6341   4
  15   9 -14 35.8040 13.2142   3
  13  -9 -14 4.81623 7.74530   2
 -13  -9  14 -7.2846 11.9800   4
 -13   9  14 -10.183 14.8019   4
  13   9 -14 -4.6033 12.1209   3
  11  -9 -14 0.23023 8.62362   2
 -11  -9  14 1.15257 10.7555   4
 -11   9  14 -6.4859 13.6508   4
  11   9 -14 13.1708 11.8202   3
  -9  -9  14 33.7761 11.4243   4
   9  -9 -14 25.1215 8.94948   2
  -9   9  14 39.7019 14.0671   4
   9   9 -14 37.4085 12.9517   3
  -7  -9  14 1.21641 9.69569   4
   7  -9 -14 2.45307 7.95297   2
   7   9 -14 4.85908 11.5410   3
  -7   9  14 1.15326 13.4270   4
  -5  -9  14 34.2311 11.5526   4
   5  -9 -14 29.6021 8.13049   2
  -5   9  14 26.9739 14.7860   4
   5   9 -14 42.2895 13.4153   3
  -3  -9  14 46.4121 12.0092   4
   3  -9 -14 57.8707 9.99494   2
  -3   9  14 60.9112 14.9205   4
   3   9 -14 64.8551 13.2242   3
   1  -9 -14 50.5164 9.80459   2
  -1  -9  14 16.5842 10.5196   3
  -1   9  14 20.4107 15.3280   4
   1  -9  14 7.23657 10.5891   3
  -1  -9 -14 9.90347 8.99960   2
   1   9  14 8.82650 15.5685   4
   3  -9  14 -5.1119 12.4216   3
   3   9  14 -1.3434 15.8494   4
 -10 -10  14 9.67893 12.4680   4
  10 -10 -14 16.4349 8.79975   2
 -10  10  14 5.49811 15.8583   4
  10  10 -14 8.18977 21.0959   3
  -8 -10  14 2.18062 11.8018   4
   8 -10 -14 0.36805 9.03960   2
   8  10 -14 5.35443 12.1309   3
  -8  10  14 5.81801 15.8382   4
   6 -10 -14 -14.663 8.79953   2
  -6 -10  14 0.55892 11.7581   4
   6  10 -14 0.67637 13.3335   3
  -6  10  14 -5.2526 15.2912   4
  -4 -10  14 38.7168 13.0973   4
   4 -10 -14 60.5663 10.7389   2
  -4  10  14 45.1439 17.5038   4
   4  10 -14 27.5003 15.2197   3
 -26   0  15 2.73835 10.0930   2
 -26   0  15 -2.6959 11.6977   4
  24   0 -15 -9.9825 11.1671   3
 -24   0  15 14.0995 12.3810   4
  24   0 -15 7.76610 8.01169   2
  22   0 -15 0.20859 6.91655   2
 -22   0  15 5.31238 10.1152   4
  20   0 -15 -1.5226 6.89711   2
 -20   0  15 9.14658 11.0037   4
  20   0 -15 -2.0308 8.35117   3
  18   0 -15 5.39282 7.62946   3
  18   0 -15 -1.9804 5.70052   2
 -18   0  15 -2.4872 10.1602   4
  16   0 -15 2.05638 6.20957   3
 -16   0  15 12.6287 9.74515   4
  16   0 -15 -0.8009 5.44696   2
 -14   0  15 -0.4122 10.8341   4
  14   0 -15 -5.9412 5.18272   2
  14   0 -15 -2.9005 5.30386   3
  12   0 -15 -0.0391 4.44288   3
  12   0 -15 1.48324 5.27331   2
 -12   0  15 4.09639 10.3881   4
  10   0 -15 -3.6587 3.52684   3
 -10   0  15 0.66055 10.3645   4
  10   0 -15 -3.8365 5.16671   2
   8   0 -15 0.82118 2.78330   3
   8   0 -15 5.57908 4.85321   2
  -8   0  15 25.7371 10.1976   4
  -6   0  15 -0.3733 9.10428   4
   6   0 -15 1.81305 4.90644   2
   6   0 -15 -0.3097 2.45390   3
  -4   0  15 -17.227 9.58942   4
   4   0 -15 -0.6389 2.57345   3
   4   0 -15 -1.2103 5.14512   2
  -2   0  15 0.75198 3.53145   3
  -2   0  15 1.95909 9.87627   4
   2   0 -15 -3.2807 5.23062   2
   0   0  15 -0.9122 4.66709   3
   0   0 -15 3.15933 5.81601   2
   0   0  15 8.25259 8.98841   4
   2   0  15 -0.2105 9.04936   4
   2   0  15 -6.4928 5.50876   3
  -2   0 -15 6.67703 7.27986   2
   4   0  15 -4.4934 6.40593   3
  -4   0 -15 -3.8009 6.86330   2
   4   0  15 -0.8589 9.49349   4
  -6   0 -15 2.57726 8.11154   2
   6   0  15 -6.2684 7.69761   3
   6   0  15 5.62139 10.4190   4
  -8   0 -15 -2.2729 7.96191   2
   8   0  15 -9.6418 10.7139   4
   8   0  15 17.6535 9.78865   3
  10   0  15 2.69758 11.6589   3
 -10   0 -15 -1.9493 9.57707   2
 -12   0 -15 -4.6555 10.7436   2
  27  -1 -15 49.1465 15.6997   3
 -27  -1  15 33.7634 13.1997   4
  27   1 -15 30.6022 14.8053   3
 -27   1  15 25.1863 11.1695   2
 -25  -1  15 24.8376 12.2503   4
  25  -1 -15 -2.7280 11.9419   3
  25   1 -15 8.16007 12.7108   3
 -25   1  15 26.3925 12.7759   4
 -25   1  15 2.39591 9.63484   2
 -23  -1  15 2.47727 11.3964   4
  23  -1 -15 12.2008 7.88430   2
  23  -1 -15 -10.432 10.6509   3
 -23   1  15 -2.4429 11.3892   4
  23   1 -15 9.99164 7.26359   2
  23   1 -15 -2.6100 11.0245   3
  21  -1 -15 104.281 10.8512   2
  21  -1 -15 87.3128 13.0834   3
 -21  -1  15 105.935 13.7774   4
  21   1 -15 91.0120 9.97729   2
 -21   1  15 118.665 15.3013   4
  21   1 -15 111.437 13.8615   3
 -19  -1  15 22.7226 11.1813   4
  19  -1 -15 19.2023 6.84632   2
 -19   1  15 39.5729 11.8552   4
  19   1 -15 23.5358 6.69413   2
  19   1 -15 18.3795 8.95099   3
  17  -1 -15 189.070 15.2042   2
  17  -1 -15 254.181 15.3030   3
 -17  -1  15 174.753 18.3258   4
  17   1 -15 204.804 14.6898   2
 -17   1  15 187.370 18.6220   4
  17   1 -15 204.761 16.2398   3
  15  -1 -15 181.358 13.4609   3
  15  -1 -15 195.861 14.2195   2
 -15  -1  15 147.853 16.5796   4
  15   1 -15 187.692 13.7120   2
  15   1 -15 201.718 14.6581   3
 -15   1  15 203.634 19.0957   4
  13  -1 -15 3.73506 5.04800   2
 -13  -1  15 11.0762 10.5039   4
  13   1 -15 11.2002 5.29035   3
  13   1 -15 5.91075 5.16174   2
 -13   1  15 8.52345 10.5540   4
 -11  -1  15 12.0500 9.64044   4
  11  -1 -15 7.20778 5.20310   2
  11   1 -15 3.40867 4.74892   2
  11   1 -15 -0.5277 4.24923   3
 -11   1  15 -0.3310 10.1709   4
   9  -1 -15 175.986 13.6351   2
  -9  -1  15 167.524 17.9254   4
   9   1 -15 184.226 13.3674   2
   9   1 -15 175.887 11.9950   3
  -9   1  15 194.027 18.3217   4
  -7  -1  15 52.3886 12.1363   4
   7  -1 -15 67.7535 8.15255   2
   7   1 -15 73.3044 8.13036   2
   7   1 -15 62.6965 5.84474   3
  -7   1  15 84.1868 11.9592   4
  -5  -1  15 275.234 21.0219   4
   5  -1 -15 241.252 16.4421   2
  -5   1  15 229.657 20.0807   4
   5   1 -15 225.780 16.3441   2
   5   1 -15 251.631 14.9353   3
   3  -1 -15 315.817 19.4158   2
  -3  -1  15 274.765 17.7632   3
  -3  -1  15 281.432 22.8909   4
   3   1 -15 300.577 19.7224   2
  -3   1  15 321.418 22.6898   4
  -1  -1  15 0.60774 4.90422   3
  -1  -1  15 6.15625 9.29101   4
   1  -1 -15 12.3644 6.07770   2
  -1   1  15 -3.9899 8.47133   4
   1   1 -15 17.1026 6.76833   2
   1  -1  15 83.7356 12.9963   4
   1  -1  15 98.9590 9.31070   3
  -1   1 -15 85.6273 11.1753   2
   1   1  15 99.7125 12.5643   4
   3  -1  15 306.534 21.1195   3
   3  -1  15 291.512 23.8137   4
  -3  -1 -15 342.117 22.1128   2
   3   1  15 350.496 24.4200   4
  -3   1 -15 311.183 21.3442   2
   5  -1  15 164.488 16.3241   4
  -5  -1 -15 137.457 13.6226   2
   5  -1  15 178.576 14.2709   3
   5   1  15 160.910 16.6074   4
  -5   1 -15 141.401 14.3642   2
   7  -1  15 29.4913 9.37621   3
  -7  -1 -15 40.3928 9.81698   2
   7  -1  15 12.3439 11.1906   4
   7   1  15 17.8426 10.6670   4
  -7   1 -15 42.0091 9.22635   2
   9  -1  15 25.4946 10.9368   3
  -9  -1 -15 19.2115 9.00602   2
  -9   1 -15 36.5049 9.56968   2
  11  -1  15 95.6957 14.8696   3
 -11  -1 -15 82.4084 12.5654   2
 -11   1 -15 76.2086 13.6991   2
  13  -1  15 4.22206 13.9703   3
 -13  -1 -15 -0.9394 9.97371   2
 -13   1 -15 8.89506 11.3402   2
  26  -2 -15 29.4192 22.4142   3
 -26  -2  15 25.6998 13.1177   4
  26   2 -15 19.1878 14.7736   3
 -26   2  15 28.1183 11.3240   2
 -24  -2  15 36.8866 12.4919   4
  24  -2 -15 53.3390 9.85646   2
  24  -2 -15 50.5382 13.0988   3
  24   2 -15 43.8475 13.5598   3
 -24   2  15 68.2898 13.8659   4
  22  -2 -15 15.4734 10.6537   3
 -22  -2  15 20.5681 11.5394   4
  22  -2 -15 11.3512 7.03839   2
 -22   2  15 -2.3347 11.2694   4
  22   2 -15 -7.1538 10.2210   3
  20  -2 -15 154.305 15.1692   3
  20  -2 -15 174.484 14.1220   2
 -20  -2  15 198.846 17.9140   4
  20   2 -15 195.703 13.8827   2
 -20   2  15 157.485 17.8620   4
  20   2 -15 160.102 16.1902   3
  18  -2 -15 224.257 17.8703   3
 -18  -2  15 261.730 21.1411   4
  18  -2 -15 267.359 17.8528   2
  18   2 -15 234.136 19.0171   3
  18   2 -15 241.112 16.7323   2
 -16  -2  15 72.1341 12.9163   4
  16  -2 -15 104.483 10.5878   2
 -16   2  15 64.3572 12.9386   4
  16   2 -15 96.2079 8.76813   2
  16   2 -15 83.9815 10.1197   3
  14  -2 -15 3.60691 5.19500   2
 -14   2  15 3.21453 11.0445   4
  14   2 -15 -3.2480 4.70972   2
  14   2 -15 1.64078 5.86281   3
  12  -2 -15 -0.2930 5.05203   2
 -12  -2  15 -4.3801 9.13717   4
  12   2 -15 11.5663 5.33664   3
  12   2 -15 4.41444 4.90092   2
 -12   2  15 10.7129 10.3436   4
  10  -2 -15 6.76160 5.58189   2
 -10  -2  15 -10.313 8.81218   4
  10   2 -15 3.62261 5.37276   2
 -10   2  15 24.0020 10.2381   4
  10   2 -15 0.39143 4.28702   3
  -8  -2  15 106.000 13.9733   4
   8  -2 -15 78.8062 8.57521   2
   8   2 -15 86.3562 7.71007   3
   8   2 -15 78.0154 8.37675   2
  -8   2  15 103.271 14.0519   4
   6  -2 -15 65.9582 8.23443   2
  -6  -2  15 86.5370 12.1682   4
   6   2 -15 72.8390 8.38219   2
  -6   2  15 77.4094 11.8493   4
   6   2 -15 62.1806 6.80596   3
   4  -2 -15 518.676 29.8420   2
  -4  -2  15 468.706 32.1440   4
  -4   2  15 460.046 32.1835   4
   4   2 -15 531.860 30.0193   2
  -2  -2  15 130.358 10.3736   3
   2  -2 -15 115.884 11.3090   2
  -2  -2  15 146.810 15.1301   4
   2   2 -15 131.415 11.6457   2
  -2   2  15 101.537 13.2996   4
   0  -2  15 147.358 11.1226   3
   0  -2  15 136.522 14.8625   4
   0  -2 -15 99.6480 12.4803   2
   0   2  15 105.624 13.4430   4
   0   2 -15 106.413 11.4261   2
   2  -2  15 151.138 13.0833   3
  -2  -2 -15 162.523 13.6133   2
   2  -2  15 151.865 15.8973   4
  -2   2 -15 140.816 13.0118   2
   2   2  15 201.864 17.3397   4
   4  -2  15 332.149 24.4481   3
   4  -2  15 376.661 26.2437   4
  -4  -2 -15 353.645 24.5270   2
  -4   2 -15 421.877 25.0860   2
   4   2  15 376.163 33.2730   4
  -6  -2 -15 256.276 19.0652   2
   6  -2  15 278.989 20.9124   4
   6  -2  15 210.660 18.9720   3
   6   2  15 251.023 20.7943   4
  -6   2 -15 275.843 20.3584   2
  -8  -2 -15 83.7255 11.3259   2
   8  -2  15 82.1608 12.5958   3
  -8   2 -15 84.2590 12.3360   2
   8   2  15 70.1123 13.8875   4
 -10  -2 -15 16.4421 9.99961   2
  10  -2  15 6.90269 11.0766   3
 -10   2 -15 7.88746 9.40372   2
  10   2  15 18.9293 12.9802   4
 -12  -2 -15 33.3909 12.0001   2
  12  -2  15 38.6841 13.4397   3
 -12   2 -15 11.9508 10.8566   2
 -25  -3  15 5.88461 12.1693   4
 -25   3  15 10.7007 10.9133   2
  25   3 -15 -20.928 13.2006   3
 -23  -3  15 11.9445 10.3284   4
  23  -3 -15 26.2771 8.91840   2
 -23   3  15 32.2161 13.2970   4
  23   3 -15 9.64526 11.8166   3
 -21  -3  15 30.1365 10.5682   4
  21  -3 -15 27.1280 8.44198   2
 -21   3  15 18.5577 12.8173   4
  21   3 -15 43.4814 11.0227   3
  19  -3 -15 46.8182 8.13410   2
 -19  -3  15 49.6090 12.2104   4
  19   3 -15 43.5865 11.1817   3
 -19   3  15 30.2167 13.1008   4
 -17  -3  15 99.2500 12.8190   4
  17  -3 -15 69.8977 9.04216   2
  17   3 -15 99.7746 11.2909   3
  17   3 -15 79.8818 8.17765   2
 -15  -3  15 96.1694 12.8016   4
  15  -3 -15 81.8246 8.91273   2
  15   3 -15 77.5087 9.63052   3
  15   3 -15 72.4044 7.89717   2
 -15   3  15 62.7605 13.7351   4
  13  -3 -15 7.50858 6.51932   2
 -13  -3  15 -8.1329 8.33603   4
 -13   3  15 37.2615 11.9859   4
  13   3 -15 2.29870 5.96348   3
  13   3 -15 -1.2598 4.84222   2
 -11  -3  15 13.2830 9.35068   4
  11  -3 -15 24.8827 6.17250   2
  11   3 -15 30.8854 5.91720   2
  11   3 -15 37.1699 6.56005   3
 -11   3  15 31.4815 10.8083   4
   9  -3 -15 98.4894 9.60840   2
  -9  -3  15 107.308 12.9626   4
   9   3 -15 95.5810 9.17511   2
   9   3 -15 104.057 9.26595   3
  -9   3  15 74.9069 13.0287   4
   7  -3 -15 10.1805 5.68333   2
  -7  -3  15 13.1025 9.22364   4
   7   3 -15 14.8851 5.24725   3
   7   3 -15 17.8354 5.66616   2
  -7   3  15 31.6216 9.65781   4
   5  -3 -15 592.665 34.7153   2
  -5  -3  15 586.742 37.1303   4
   5   3 -15 583.662 34.2886   2
   5   3 -15 597.920 34.0240   3
  -5   3  15 564.825 37.6609   4
  -3  -3  15 162.083 12.4620   3
  -3  -3  15 171.460 16.0709   4
   3  -3 -15 149.108 12.9257   2
   3   3 -15 164.095 13.2971   2
  -3   3  15 150.152 16.2494   4
  -1  -3  15 9.07305 6.26750   3
  -1  -3  15 9.64768 8.60436   4
   1   3 -15 5.33366 6.70292   2
  -1   3  15 21.3908 10.3982   4
   1  -3  15 122.546 11.8065   3
   1  -3  15 113.439 13.7736   4
  -1  -3 -15 134.086 12.0655   2
  -1   3 -15 133.187 12.3703   2
   1   3  15 116.995 14.1760   4
  -3  -3 -15 370.208 23.2280   2
   3  -3  15 320.539 24.4813   4
   3  -3  15 355.099 23.3393   3
   3   3  15 341.895 25.8604   4
  -3   3 -15 314.399 23.1853   2
  -5  -3 -15 43.1995 9.43784   2
   5  -3  15 54.9720 12.1141   4
   5  -3  15 32.1705 9.24019   3
  -5   3 -15 49.0622 9.38854   2
   5   3  15 54.3756 12.2690   4
  -7  -3 -15 0.64175 8.62568   2
   7  -3  15 15.6902 10.0904   3
   7   3  15 5.40877 10.1372   4
  -7   3 -15 9.70494 8.46115   2
  -9  -3 -15 96.8914 13.5704   2
   9  -3  15 135.043 15.5873   3
   9   3  15 96.0039 16.1657   4
  -9   3 -15 136.528 14.1236   2
 -11  -3 -15 23.9851 10.3584   2
  11  -3  15 7.84195 12.4254   3
  11   3  15 14.2112 14.1987   4
 -11   3 -15 26.6388 11.9997   2
  24  -4 -15 -3.8759 8.04605   2
 -24  -4  15 -5.1775 11.5936   4
  24   4 -15 -12.364 12.7729   3
 -22  -4  15 27.9772 12.1728   4
  22  -4 -15 19.8090 8.29085   2
 -22   4  15 17.7461 13.4418   4
  22   4 -15 0.93880 12.0228   3
  20  -4 -15 -0.1681 7.39602   2
 -20  -4  15 19.4402 11.1416   4
 -20   4  15 7.95557 13.5378   4
  20   4 -15 3.26225 10.2541   3
 -18  -4  15 17.7490 9.85326   4
  18  -4 -15 12.9755 7.39690   2
 -18   4  15 -1.7984 12.1311   4
  18   4 -15 18.8175 9.40837   3
 -16  -4  15 26.4059 9.78399   4
  16  -4 -15 18.4854 7.10893   2
  16   4 -15 12.8756 7.74275   3
 -16   4  15 -0.5158 11.8501   4
  14  -4 -15 -0.3297 5.80078   2
 -14  -4  15 4.98372 8.65783   4
  14   4 -15 3.26583 4.72670   2
  14   4 -15 -3.5934 6.61354   3
  12  -4 -15 7.14137 6.10173   2
 -12  -4  15 4.28621 9.70759   4
  12   4 -15 10.8473 6.39504   3
  12   4 -15 12.3651 5.32144   2
 -10  -4  15 -10.752 10.6220   4
  10  -4 -15 1.69662 5.54082   2
 -10   4  15 -6.5913 9.84043   4
  10   4 -15 -5.3221 5.60350   3
  10   4 -15 3.17322 5.07310   2
  -8  -4  15 6.91243 8.52457   4
   8  -4 -15 -1.8133 5.95866   2
   8   4 -15 1.98791 5.51864   3
   8   4 -15 7.15480 5.43563   2
  -6  -4  15 5.04627 8.50494   4
   6   4 -15 3.67142 5.85673   3
   6   4 -15 1.61261 5.35460   2
  -6   4  15 6.45839 11.2037   4
  -4  -4  15 94.1993 11.7561   4
  -4  -4  15 105.873 10.0379   3
   4  -4 -15 75.1756 10.3700   2
  -4   4  15 97.5444 12.9475   4
   4   4 -15 76.5623 9.06621   2
  -2  -4  15 -2.5346 6.21549   3
   2  -4 -15 0.21057 5.59162   2
  -2  -4  15 -5.8812 8.30505   4
  -2   4  15 3.51490 9.04399   4
   2   4 -15 3.14985 6.21215   2
   0  -4 -15 10.3928 6.36686   2
   0  -4  15 5.54356 7.13861   3
   0  -4  15 11.3732 9.10299   4
   0   4  15 3.61180 9.89334   4
  -2  -4 -15 22.7220 7.93302   2
   2  -4  15 14.8356 9.30967   4
   2  -4  15 29.3432 8.59592   3
  -2   4 -15 16.3887 7.52239   2
   2   4  15 42.6272 11.7807   4
  -4  -4 -15 39.2265 8.94670   2
   4   4  15 43.6372 12.2446   4
  -4   4 -15 15.2879 8.00891   2
   6  -4  15 6.71356 9.68812   3
  -6  -4 -15 -4.4426 7.37591   2
  -6   4 -15 -3.7018 8.84254   2
   6   4  15 -1.3946 11.3168   4
   8  -4  15 1.21404 10.2546   3
  -8  -4 -15 -1.3361 9.13032   2
  -8   4 -15 0.04029 9.12403   2
   8   4  15 3.72117 12.3884   4
  10  -4  15 24.8121 12.6119   3
 -10  -4 -15 22.8247 10.7047   2
  10   4  15 22.6034 14.1292   4
 -10   4 -15 19.6952 11.5979   2
  23  -5 -15 16.3881 8.55703   2
 -23  -5  15 21.0801 12.0771   4
  23   5 -15 11.5177 13.2800   3
  21  -5 -15 -4.5582 8.05643   2
 -21  -5  15 -10.627 11.1537   4
  21   5 -15 -15.121 9.87021   3
 -19  -5  15 136.709 16.5908   4
  19  -5 -15 143.398 13.6865   2
 -19   5  15 147.827 19.0727   4
  19   5 -15 130.532 15.9482   3
 -17  -5  15 251.058 21.7235   4
  17  -5 -15 275.981 19.2109   2
 -17   5  15 237.022 23.2486   4
  17   5 -15 298.098 20.8374   3
  15  -5 -15 15.2637 6.92561   2
 -15  -5  15 2.72873 8.76815   4
  15   5 -15 13.4739 8.19873   3
 -15   5  15 4.84825 12.2782   4
  13  -5 -15 -4.0021 5.90579   2
 -13  -5  15 -5.8876 8.17651   4
 -13   5  15 -2.9650 10.6838   4
  13   5 -15 0.24510 7.32875   3
 -11  -5  15 31.6156 10.2163   4
  11  -5 -15 36.4095 7.70377   2
 -11   5  15 22.4362 10.6160   4
  11   5 -15 31.1796 8.07913   3
  11   5 -15 29.5609 9.60609   2
   9  -5 -15 92.4700 9.61616   2
  -9  -5  15 87.5256 12.2445   4
   9   5 -15 88.2976 10.3606   3
   9   5 -15 87.9696 8.69440   2
  -9   5  15 81.8869 14.0585   4
   7  -5 -15 29.8400 7.23810   2
   7   5 -15 23.1998 6.38505   2
  -7   5  15 25.8864 10.3831   4
   7   5 -15 31.1611 7.70157   3
  -5  -5  15 346.634 23.2844   4
   5  -5 -15 327.422 21.9367   2
  -5   5  15 327.222 24.7918   4
   5   5 -15 307.181 22.0645   3
   5   5 -15 341.956 21.3199   2
  -3  -5  15 132.537 13.8655   4
  -3  -5  15 149.655 12.8017   3
   3  -5 -15 103.153 11.1152   2
   3   5 -15 128.313 12.0011   2
  -3   5  15 155.189 16.3884   4
  -1  -5  15 17.6031 8.90670   4
   1  -5 -15 22.6001 6.91544   2
  -1  -5  15 35.6570 8.47539   3
  -1   5  15 17.8998 10.2552   4
   1   5 -15 22.5712 7.49365   2
   1  -5  15 129.104 13.3629   4
  -1  -5 -15 139.106 12.2435   2
   1   5  15 101.037 14.7168   4
  -1   5 -15 131.400 12.9956   2
  -3  -5 -15 187.026 15.3319   2
   3  -5  15 176.998 16.3674   3
   3   5  15 186.872 19.5330   4
  -3   5 -15 196.260 16.4471   2
   5  -5  15 86.1079 12.7803   3
  -5  -5 -15 78.3420 11.2056   2
   5   5  15 78.0675 13.9695   4
  -5   5 -15 87.0616 12.3271   2
   7  -5  15 103.804 13.7491   3
  -7  -5 -15 95.5355 12.5219   2
  -7   5 -15 81.4924 12.2317   2
   7   5  15 82.4093 16.0893   4
  -9  -5 -15 14.7684 10.3782   2
   9  -5  15 45.8493 13.6045   3
   9   5  15 36.8248 14.8519   4
  -9   5 -15 12.0436 10.4023   2
 -22  -6  15 23.6003 12.9602   4
  22  -6 -15 42.5667 10.7727   2
  22   6 -15 13.0071 12.6198   3
  20  -6 -15 105.453 12.0553   2
 -20  -6  15 118.094 16.6729   4
  20   6 -15 110.620 15.3120   3
 -18  -6  15 102.834 14.8285   4
  18  -6 -15 83.8241 10.8871   2
 -18   6  15 71.2951 16.7875   4
  18   6 -15 107.547 13.5664   3
 -16  -6  15 93.1528 14.4374   4
  16  -6 -15 113.224 11.5149   2
  16   6 -15 79.5945 13.0706   3
 -16   6  15 89.2594 16.3188   4
  14  -6 -15 17.4166 7.72953   2
 -14  -6  15 36.2966 10.8381   4
 -14   6  15 27.8645 13.0318   4
  14   6 -15 38.8542 10.1161   3
  12  -6 -15 -1.8294 6.04075   2
 -12  -6  15 11.6944 9.98047   4
 -12   6  15 9.12444 10.7477   4
  12   6 -15 -1.6313 7.56207   3
  10  -6 -15 61.4817 8.71520   2
 -10  -6  15 46.4009 10.5329   4
  10   6 -15 76.6694 10.7780   3
 -10   6  15 44.3855 13.2844   4
   8  -6 -15 3.57805 6.00035   2
  -8  -6  15 21.3806 9.69962   4
   8   6 -15 4.70636 7.64794   3
  -8   6  15 20.4685 11.5490   4
   6  -6 -15 156.733 13.1247   2
  -6  -6  15 127.129 14.2817   4
   6   6 -15 122.139 11.2080   2
  -6   6  15 129.180 15.8462   4
   6   6 -15 130.853 13.2538   3
   4  -6 -15 717.029 40.4347   2
  -4  -6  15 666.826 43.1561   4
   4   6 -15 629.021 39.5808   2
   4   6 -15 717.464 41.4536   3
  -4   6  15 698.269 44.0656   4
   2  -6 -15 -3.1412 6.17373   2
  -2  -6  15 15.2453 8.81433   4
  -2  -6  15 5.24707 7.84012   3
   2   6 -15 1.18701 6.80538   2
  -2   6  15 9.09591 10.5318   4
   0  -6 -15 26.0275 7.67859   2
   0  -6  15 58.9161 9.88285   4
   0  -6  15 57.9541 10.0259   3
   0   6 -15 34.7046 8.53343   2
   0   6  15 50.6152 13.5232   4
  -2  -6 -15 380.267 24.6858   2
   2  -6  15 336.060 26.1366   3
   2   6  15 387.294 28.5326   4
  -2   6 -15 360.131 25.1006   2
   4  -6  15 257.606 22.6773   3
  -4  -6 -15 299.907 21.5786   2
   4   6  15 268.493 24.7173   4
  -4   6 -15 335.902 21.9095   2
  -6  -6 -15 28.2779 9.84230   2
   6  -6  15 37.1638 11.7755   3
   6   6  15 25.8973 13.0515   4
  -6   6 -15 18.3464 10.4664   2
  -8  -6 -15 89.1723 12.5794   2
   8  -6  15 77.9202 15.1458   3
   8   6  15 97.9506 16.6449   4
  -8   6 -15 104.536 14.7641   2
 -21  -7  15 7.06674 15.5003   4
  21  -7 -15 22.8210 10.3776   2
  21   7 -15 15.2735 14.7401   3
 -19  -7  15 1.20656 12.2735   4
  19  -7 -15 6.08876 8.06956   2
  19   7 -15 9.66845 12.3064   3
  17  -7 -15 49.1848 9.70331   2
 -17  -7  15 58.8697 13.6058   4
  17   7 -15 74.9671 13.9732   3
 -17   7  15 55.2362 16.4154   4
 -15  -7  15 29.6706 11.9171   4
  15  -7 -15 6.42600 7.13032   2
  15   7 -15 12.2619 10.7292   3
 -15   7  15 11.8120 13.6159   4
 -13  -7  15 8.13645 9.73115   4
  13  -7 -15 2.62534 7.85899   2
  13   7 -15 0.09203 9.76972   3
 -13   7  15 -8.0895 12.6465   4
  11  -7 -15 1.52842 7.37332   2
 -11  -7  15 -13.973 10.2897   4
 -11   7  15 0.63161 12.7938   4
  11   7 -15 -3.3806 8.89464   3
  -9  -7  15 41.2352 10.5126   4
   9  -7 -15 47.9958 8.83692   2
  -9   7  15 22.7635 12.9847   4
   9   7 -15 33.4697 10.2860   3
   7  -7 -15 21.9921 8.03520   2
  -7  -7  15 8.17401 9.79033   4
  -7   7  15 0.19616 10.9883   4
   7   7 -15 38.1682 10.3083   3
  -5  -7  15 10.3009 9.40286   4
   5  -7 -15 -3.7032 6.35274   2
   5   7 -15 -1.1764 8.93954   3
  -5   7  15 10.1857 11.0445   4
   3  -7 -15 134.185 12.6669   2
  -3  -7  15 122.910 13.9635   4
   3   7 -15 113.275 11.7942   2
   3   7 -15 103.362 14.0840   3
  -3   7  15 119.032 17.2490   4
   1  -7 -15 46.0266 8.97455   2
  -1  -7  15 62.4305 12.6502   4
  -1  -7  15 41.0946 10.5363   3
  -1   7  15 19.3528 12.9230   4
   1   7 -15 54.2735 9.81661   2
  -1  -7 -15 -3.8426 8.01147   2
   1  -7  15 2.99408 10.0991   3
  -1   7 -15 8.29182 8.47876   2
   1   7  15 4.05058 13.1059   4
   3  -7  15 4.54057 10.7215   3
  -3  -7 -15 8.33544 8.17786   2
  -3   7 -15 16.4558 9.65529   2
   3   7  15 22.1404 14.1024   4
   5  -7  15 66.0284 13.0048   3
  -5  -7 -15 80.2465 11.7691   2
   5   7  15 94.4332 17.8009   4
  -5   7 -15 79.8990 12.3456   2
  -7  -7 -15 77.1035 12.2373   2
   7  -7  15 45.6426 13.0888   3
  -7   7 -15 62.1272 13.7102   2
   7   7  15 87.7308 17.4921   4
  18  -8 -15 8.91239 17.7225   2
  18   8 -15 8.75600 12.0919   3
 -16  -8  15 15.3104 11.7211   4
  16  -8 -15 -1.3249 8.87259   2
  16   8 -15 -1.5844 12.4746   3
 -16   8  15 -18.934 14.6724   4
  14  -8 -15 39.0851 9.71922   2
 -14  -8  15 59.1288 12.8035   4
 -14   8  15 12.2412 14.7559   4
  14   8 -15 23.9912 11.4704   3
 -12  -8  15 2.85724 11.8119   4
  12  -8 -15 4.63550 7.44729   2
 -12   8  15 -2.9443 12.1579   4
  12   8 -15 -1.6724 9.70549   3
  10  -8 -15 18.3614 7.90834   2
 -10  -8  15 13.1669 11.3253   4
  10   8 -15 8.53888 10.5066   3
 -10   8  15 0.25703 11.7430   4
   8  -8 -15 11.9414 8.02928   2
  -8  -8  15 8.73399 10.9561   4
   8   8 -15 8.40463 10.4440   3
  -8   8  15 12.5024 12.5831   4
   6  -8 -15 11.4851 7.96100   2
  -6  -8  15 5.26071 10.2934   4
   6   8 -15 17.8531 10.7294   3
  -6   8  15 5.67130 12.1868   4
  -4  -8  15 71.1770 12.0338   4
   4  -8 -15 51.2476 8.93602   2
   4   8 -15 49.3086 12.3310   3
  -4   8  15 53.9775 14.2149   4
  -2  -8  15 -1.7485 9.98739   3
   2  -8 -15 -4.8871 8.06519   2
  -2  -8  15 -5.2483 9.90051   4
  -2   8  15 4.41852 12.2620   4
   0  -8  15 -7.9153 10.3290   3
   0  -8 -15 4.57534 8.55034   2
   0   8 -15 -3.4765 9.20496   2
   0   8  15 -3.9015 13.8840   4
   2  -8  15 4.24061 11.5320   3
  -2  -8 -15 0.27622 8.89586   2
  -2   8 -15 -3.0823 9.50955   2
   2   8  15 -0.0454 14.3577   4
   4  -8  15 11.2577 11.3976   3
  -4  -8 -15 7.19273 9.63704   2
  -4   8 -15 -4.7370 10.6482   2
   4   8  15 12.1311 14.8844   4
 -15  -9  15 21.3552 15.1689   4
  15   9 -15 27.2913 14.6612   3
 -13  -9  15 -6.3345 12.4041   4
  13  -9 -15 2.46411 9.17816   2
  13   9 -15 1.31873 11.7098   3
 -13   9  15 -12.254 15.3332   4
 -11  -9  15 2.34956 10.9039   4
  11  -9 -15 11.4129 8.76389   2
 -11   9  15 0.04131 14.6897   4
  11   9 -15 2.50500 12.0354   3
   9  -9 -15 22.6766 9.42164   2
  -9  -9  15 15.5135 12.0898   4
  -9   9  15 20.0818 14.0466   4
   9   9 -15 27.9417 13.0350   3
   7  -9 -15 16.7435 8.19030   2
  -7  -9  15 22.6239 11.9273   4
  -7   9  15 20.9658 15.0381   4
   7   9 -15 -0.9447 11.9130   3
  -5  -9  15 227.618 20.4203   4
   5  -9 -15 215.098 18.0208   2
   5   9 -15 248.453 22.6207   3
  -5   9  15 211.866 24.0604   4
   3  -9 -15 61.1800 10.1697   2
  -3  -9  15 63.4799 13.3282   4
  -3   9  15 67.1957 16.4363   4
   3   9 -15 105.410 16.0336   3
  -1  -9  15 -2.3022 9.96099   3
   1  -9 -15 -3.8748 8.93287   2
  -1   9  15 2.93366 15.1626   4
  -1  -9 -15 87.2500 12.1676   2
   1  -9  15 87.8763 14.5372   3
   1   9  15 56.8109 17.4839   4
 -26   0  16 76.7963 12.9262   2
 -26   0  16 78.4883 14.8971   4
 -24   0  16 132.449 17.2962   4
  24   0 -16 161.436 13.6054   2
  24   0 -16 124.959 16.7380   3
  22   0 -16 0.88003 10.3255   3
  22   0 -16 4.47128 7.34497   2
 -22   0  16 15.0985 12.0989   4
  20   0 -16 220.752 15.7852   2
 -20   0  16 164.431 19.2975   4
  20   0 -16 202.648 16.9751   3
 -18   0  16 449.820 30.4205   4
  18   0 -16 422.110 28.0676   3
  18   0 -16 451.159 27.0757   2
  16   0 -16 249.281 16.9302   2
  16   0 -16 251.427 17.6992   3
 -16   0  16 217.780 20.6125   4
  14   0 -16 46.4687 6.95064   3
  14   0 -16 45.4249 7.33370   2
  12   0 -16 72.1439 8.15391   2
 -12   0  16 85.1788 13.2661   4
  10   0 -16 161.530 12.8264   2
 -10   0  16 181.520 17.6864   4
   8   0 -16 185.045 13.8428   2
  -8   0  16 194.055 18.4874   4
  -6   0  16 382.387 27.6577   4
   6   0 -16 381.184 23.7263   2
  -4   0  16 354.173 26.9090   4
   4   0 -16 345.125 22.1741   2
   2   0 -16 121.447 11.2627   2
  -2   0  16 105.865 14.7162   4
   0   0 -16 712.258 41.6058   2
   0   0  16 703.594 43.3228   4
   2   0  16 453.828 31.1682   4
  -2   0 -16 455.453 28.8685   2
  -4   0 -16 344.637 23.7534   2
   4   0  16 363.874 26.6007   4
   6   0  16 217.355 19.6961   4
  -6   0 -16 226.062 18.0943   2
  -8   0 -16 340.930 24.3760   2
 -10   0 -16 34.6592 10.5869   2
 -12   0 -16 17.6787 13.5129   2
 -27   1  16 19.9579 10.9456   2
  25  -1 -16 1.83398 8.84845   2
 -25  -1  16 11.4686 12.2828   4
  25   1 -16 -2.7920 12.3525   3
 -25   1  16 3.38507 12.5402   4
  23  -1 -16 27.2833 8.57845   2
 -23  -1  16 38.1215 12.9729   4
  23   1 -16 22.3131 11.4513   3
  23   1 -16 25.0079 8.19334   2
 -23   1  16 46.5704 13.5699   4
  21  -1 -16 47.6464 8.95313   2
 -21  -1  16 50.9453 13.0784   4
  21   1 -16 50.3415 11.3338   3
 -21   1  16 65.9187 13.9454   4
  21   1 -16 54.3861 8.58188   2
  19  -1 -16 28.5070 6.95841   2
 -19  -1  16 29.4660 12.0561   4
 -19   1  16 32.5509 11.5746   4
  19   1 -16 27.5075 7.20612   2
  19   1 -16 14.9761 8.46164   3
 -17  -1  16 125.091 15.4841   4
  17  -1 -16 142.200 12.6949   2
  17   1 -16 159.705 13.4855   3
  17   1 -16 152.052 12.0995   2
 -17   1  16 145.900 16.6133   4
  15  -1 -16 13.1208 6.12696   2
 -15  -1  16 21.9498 10.0878   4
  15   1 -16 14.8074 6.56804   3
 -15   1  16 26.5924 12.5129   4
  15   1 -16 12.4869 5.86919   2
  13  -1 -16 2.94596 5.16803   2
  13   1 -16 1.49466 5.30070   3
 -13   1  16 -9.1400 11.1923   4
  13   1 -16 9.37942 5.66439   2
 -11  -1  16 211.112 20.6523   4
  11  -1 -16 239.952 15.5303   2
  11   1 -16 220.348 15.5179   2
  11   1 -16 203.782 15.0531   3
 -11   1  16 212.345 20.3008   4
   9  -1 -16 55.7456 7.65021   2
  -9  -1  16 53.4503 12.2160   4
  -9   1  16 43.8165 11.7871   4
   9   1 -16 68.6855 8.06034   2
   9   1 -16 64.5935 6.22654   3
  -7  -1  16 68.6831 13.4622   4
   7  -1 -16 49.6106 7.56874   2
   7   1 -16 29.9261 7.18071   2
   7   1 -16 39.5238 4.97970   3
  -7   1  16 36.4829 11.3795   4
  -5  -1  16 799.230 47.6680   4
   5  -1 -16 749.745 44.9476   2
   5   1 -16 814.900 43.4537   3
   5   1 -16 807.983 45.1175   2
  -5   1  16 731.196 47.4393   4
  -3  -1  16 259.604 22.3340   4
  -3  -1  16 281.587 16.9686   3
   3  -1 -16 265.147 18.5577   2
  -3   1  16 299.569 23.5201   4
   3   1 -16 268.735 19.2160   2
  -1  -1  16 11.3419 11.0541   4
  -1  -1  16 9.40523 5.20815   3
   1  -1 -16 28.2571 7.64818   2
  -1   1  16 6.92290 10.5172   4
   1  -1  16 116.253 10.1585   3
   1  -1  16 104.181 14.5558   4
  -1  -1 -16 110.690 11.2175   2
  -1   1 -16 105.945 11.6339   2
   1   1  16 73.1492 12.5144   4
   3  -1  16 432.837 27.4994   3
  -3  -1 -16 429.591 27.9300   2
   3  -1  16 451.278 30.8888   4
  -3   1 -16 455.445 28.6875   2
   3   1  16 450.995 30.9787   4
   5  -1  16 153.061 13.5372   3
   5  -1  16 137.832 15.8819   4
  -5  -1 -16 114.734 12.8042   2
  -5   1 -16 117.283 13.1790   2
   5   1  16 136.849 17.8515   4
  -7  -1 -16 3.14739 8.23591   2
   7  -1  16 13.4633 10.6906   3
   7   1  16 -9.5097 11.3914   4
  -7   1 -16 6.46532 8.32896   2
  -9  -1 -16 29.6876 10.0704   2
  -9   1 -16 23.9990 10.6475   2
 -11  -1 -16 57.1650 11.7324   2
 -11   1 -16 21.8349 11.0469   2
 -26  -2  16 14.5469 12.9356   4
 -26   2  16 8.47986 9.99419   2
  26   2 -16 2.01155 13.6259   3
 -24  -2  16 10.8671 11.9707   4
  24  -2 -16 -15.482 7.51787   2
  24   2 -16 -9.4516 12.2155   3
 -24   2  16 11.3187 12.8772   4
  22  -2 -16 8.28751 7.67058   2
 -22  -2  16 15.0420 11.4019   4
 -22   2  16 -11.272 12.3445   4
  22   2 -16 2.92993 10.7970   3
  20  -2 -16 -1.5040 6.29279   2
 -20  -2  16 6.53414 11.1496   4
 -20   2  16 -5.2003 11.4820   4
  20   2 -16 -0.5021 6.33441   2
  20   2 -16 -3.3879 8.72628   3
  18  -2 -16 24.4861 7.54288   2
 -18  -2  16 15.8357 11.3264   4
  18   2 -16 12.6169 8.67351   3
 -18   2  16 17.7348 12.4965   4
  18   2 -16 6.17420 5.89345   2
 -16  -2  16 8.03722 9.70765   4
  16  -2 -16 13.2830 6.02092   2
 -16   2  16 22.5879 11.3757   4
  16   2 -16 5.07895 6.99030   3
  16   2 -16 16.0427 5.94581   2
 -14  -2  16 5.37700 10.0723   4
  14  -2 -16 4.65813 6.11982   2
  14   2 -16 2.68618 5.90952   3
 -14   2  16 7.24342 12.8800   4
  14   2 -16 14.3699 5.55767   2
  12  -2 -16 18.2147 6.75399   2
 -12  -2  16 10.8602 9.57100   4
  12   2 -16 19.8766 5.75667   3
 -12   2  16 27.8020 11.5385   4
  12   2 -16 29.9017 6.20814   2
  10  -2 -16 27.2249 6.74798   2
 -10  -2  16 18.3535 11.2801   4
 -10   2  16 24.3305 10.7678   4
  10   2 -16 33.3006 6.56728   2
  10   2 -16 28.2014 5.71746   3
  -8  -2  16 136.924 15.8212   4
   8  -2 -16 118.202 11.0502   2
   8   2 -16 131.402 10.2817   3
   8   2 -16 134.572 11.3216   2
  -8   2  16 139.923 15.6084   4
  -6  -2  16 -4.2848 10.7170   4
   6  -2 -16 2.52995 5.47430   2
  -6   2  16 -4.3618 10.2611   4
   6   2 -16 6.78606 4.44210   3
   6   2 -16 16.3835 6.42482   2
   4  -2 -16 237.190 18.4527   2
  -4  -2  16 227.565 19.0878   4
   4   2 -16 196.279 15.7725   2
   4   2 -16 205.044 14.3506   3
  -4   2  16 220.094 19.1978   4
   2  -2 -16 33.8844 7.42433   2
  -2  -2  16 33.3145 6.51536   3
  -2  -2  16 33.7866 11.5197   4
   2   2 -16 40.6429 7.41967   2
  -2   2  16 55.9844 12.1666   4
   0  -2 -16 15.6164 6.76579   2
   0  -2  16 8.08184 6.09588   3
   0  -2  16 17.1296 11.0128   4
   0   2  16 10.4009 11.0910   4
   0   2 -16 19.7151 7.18545   2
   2  -2  16 1.07068 10.5133   4
   2  -2  16 7.55950 7.11262   3
  -2  -2 -16 7.70115 6.93570   2
  -2   2 -16 -1.7889 6.80264   2
   2   2  16 7.96421 9.40634   4
  -4  -2 -16 29.8602 8.51518   2
   4  -2  16 18.7799 11.4486   4
   4  -2  16 52.9945 9.27314   3
   4   2  16 23.5584 10.4976   4
  -4   2 -16 11.8771 8.03095   2
   6  -2  16 6.69318 9.10097   3
  -6  -2 -16 5.90690 7.90939   2
   6   2  16 -8.7823 11.0526   4
  -6   2 -16 -2.5205 7.96336   2
  -8  -2 -16 -0.0103 9.54082   2
   8  -2  16 -4.0216 10.5296   3
  -8   2 -16 -5.9194 8.92384   2
   8   2  16 8.92811 12.6469   4
  10  -2  16 7.94692 12.0758   3
 -10  -2 -16 -1.9169 10.6484   2
 -10   2 -16 1.58198 10.7474   2
  10   2  16 1.69121 14.9570   4
 -25  -3  16 60.8779 14.4140   4
  25  -3 -16 34.4499 10.3674   2
  25   3 -16 19.5590 14.5466   3
  23  -3 -16 29.0889 8.19778   2
 -23  -3  16 27.3055 12.4894   4
  23   3 -16 4.93964 11.8782   3
 -23   3  16 18.1342 13.5131   4
 -21  -3  16 -5.2139 10.9196   4
  21  -3 -16 -2.0160 6.86207   2
  21   3 -16 -11.659 10.0019   3
 -21   3  16 -0.9159 12.9731   4
 -19  -3  16 18.8540 11.7533   4
  19  -3 -16 17.8463 7.84552   2
 -19   3  16 4.35842 12.8549   4
  19   3 -16 18.7330 11.0745   3
  17  -3 -16 228.979 17.4726   2
 -17  -3  16 291.873 21.4659   4
  17   3 -16 233.957 16.7221   2
 -17   3  16 223.768 22.1895   4
  17   3 -16 271.600 19.3855   3
  15  -3 -16 79.2590 9.03357   2
 -15  -3  16 60.2528 12.4166   4
 -15   3  16 59.0576 14.3994   4
  15   3 -16 67.3286 7.95405   2
  15   3 -16 86.2261 9.86664   3
  13  -3 -16 -4.3228 5.93834   2
 -13  -3  16 4.30285 9.94289   4
  13   3 -16 2.49879 5.15934   2
  13   3 -16 1.08218 6.00524   3
 -13   3  16 -14.107 9.94015   4
  11  -3 -16 23.0470 7.13168   2
 -11  -3  16 29.4634 11.3774   4
  11   3 -16 16.1960 5.83255   3
  11   3 -16 22.3746 5.93755   2
 -11   3  16 19.7300 10.7322   4
  -9  -3  16 103.159 14.7542   4
   9  -3 -16 81.2877 9.78121   2
   9   3 -16 101.659 9.25508   3
  -9   3  16 50.2154 13.9811   4
   9   3 -16 102.834 9.40533   2
   7  -3 -16 102.101 10.2987   2
  -7  -3  16 100.927 13.6111   4
  -7   3  16 88.5696 13.5446   4
   7   3 -16 102.697 9.26763   3
   7   3 -16 74.6104 8.85138   2
  -5  -3  16 294.403 24.4931   4
   5  -3 -16 332.471 21.4585   2
   5   3 -16 339.539 20.5814   3
   5   3 -16 326.759 20.9953   2
  -5   3  16 273.702 24.3932   4
   3  -3 -16 33.3137 7.90188   2
  -3  -3  16 49.5414 11.0781   4
  -3  -3  16 49.7139 7.46032   3
  -3   3  16 57.7132 12.4020   4
   3   3 -16 39.2840 7.84621   2
   1  -3 -16 43.2195 8.66366   2
  -1  -3  16 47.9468 7.89762   3
  -1  -3  16 77.4781 12.3018   4
   1   3 -16 49.3074 8.17435   2
  -1   3  16 44.7602 11.4388   4
  -1  -3 -16 215.989 16.1486   2
   1  -3  16 205.862 18.2528   4
   1  -3  16 194.176 15.7844   3
   1   3  16 211.407 19.6134   4
  -1   3 -16 204.059 16.2671   2
   3  -3  16 228.490 19.9456   4
  -3  -3 -16 211.812 17.4175   2
   3  -3  16 256.609 18.4068   3
   3   3  16 232.898 21.1199   4
  -3   3 -16 210.800 17.6497   2
  -5  -3 -16 27.8179 9.49976   2
   5  -3  16 42.6015 11.2727   3
   5   3  16 17.7289 11.1487   4
  -5   3 -16 40.2385 9.37938   2
  -7  -3 -16 92.3208 11.8792   2
   7  -3  16 76.1441 13.3037   3
  -7   3 -16 68.5344 12.4529   2
   7   3  16 86.2068 15.7407   4
  -9  -3 -16 21.9511 10.6365   2
   9  -3  16 13.8787 12.2214   3
  -9   3 -16 25.2881 11.4500   2
   9   3  16 7.66933 13.7892   4
 -11  -3 -16 7.93499 10.2011   2
  11  -3  16 3.04030 12.8191   3
 -11   3 -16 6.94561 19.6272   2
 -24  -4  16 -4.0399 11.2796   4
  24  -4 -16 0.24811 9.02403   2
  24   4 -16 12.8520 13.8344   3
 -22  -4  16 62.6419 12.8611   4
  22  -4 -16 49.9420 10.3844   2
 -22   4  16 37.8799 15.6521   4
  22   4 -16 65.9795 13.7550   3
  20  -4 -16 240.248 17.7165   2
 -20  -4  16 226.790 20.2847   4
 -20   4  16 225.309 22.9819   4
  20   4 -16 211.029 19.5109   3
  18  -4 -16 149.467 13.2780   2
 -18  -4  16 155.618 16.2775   4
 -18   4  16 140.292 17.9357   4
  18   4 -16 116.936 13.9968   3
 -16  -4  16 109.027 14.2658   4
  16  -4 -16 112.648 11.5110   2
  16   4 -16 114.307 12.4849   3
 -16   4  16 101.154 15.6792   4
 -14  -4  16 7.25493 9.21814   4
  14  -4 -16 0.94421 5.87086   2
  14   4 -16 10.1090 7.11412   3
  14   4 -16 1.34226 5.20391   2
 -14   4  16 -19.622 10.2102   4
 -12  -4  16 107.387 12.9246   4
  12  -4 -16 88.4274 9.71221   2
  12   4 -16 106.748 10.7319   3
  12   4 -16 87.1785 8.75512   2
 -12   4  16 67.0427 14.4353   4
  10  -4 -16 176.583 13.9151   2
 -10  -4  16 118.257 14.8369   4
  10   4 -16 149.689 11.9885   2
  10   4 -16 190.453 13.6969   3
 -10   4  16 146.455 16.5479   4
  -8  -4  16 -8.6846 8.59496   4
   8  -4 -16 7.80980 6.22807   2
   8   4 -16 17.4541 6.16464   2
  -8   4  16 -6.1758 9.14067   4
   8   4 -16 10.7223 6.29470   3
  -6  -4  16 120.471 14.4599   4
   6  -4 -16 109.274 11.7532   2
   6   4 -16 136.181 11.3820   2
   6   4 -16 144.017 11.8603   3
  -6   4  16 77.8391 13.6503   4
   4  -4 -16 667.028 38.2144   2
  -4  -4  16 647.143 40.1462   4
  -4   4  16 651.883 41.7039   4
   4   4 -16 652.624 37.9892   3
   4   4 -16 610.751 37.3909   2
   2  -4 -16 71.7848 9.75322   2
  -2  -4  16 85.8533 12.3507   4
  -2  -4  16 75.0188 9.65147   3
  -2   4  16 81.7647 13.4433   4
   2   4 -16 79.7987 11.0977   2
   0  -4  16 78.4130 11.9144   4
   0  -4 -16 65.8967 9.65271   2
   0  -4  16 52.8572 9.56997   3
   0   4 -16 69.7878 9.84438   2
   0   4  16 56.0955 13.1511   4
   2  -4  16 382.414 26.2620   4
  -2  -4 -16 361.610 23.8671   2
   2  -4  16 372.691 24.7256   3
  -2   4 -16 317.243 24.3635   2
   2   4  16 368.910 28.4767   4
   4  -4  16 437.380 30.3757   3
  -4  -4 -16 428.436 29.1162   2
  -4   4 -16 496.726 30.6678   2
   4   4  16 498.788 32.6412   4
  -6  -4 -16 113.182 12.8120   2
   6  -4  16 112.920 14.7220   3
  -6   4 -16 143.382 14.1926   2
   6   4  16 105.802 15.5754   4
   8  -4  16 34.6484 12.5206   3
  -8  -4 -16 34.5584 10.8913   2
   8   4  16 38.9630 14.4938   4
  -8   4 -16 42.6976 10.8886   2
 -10  -4 -16 45.5515 12.5972   2
  10  -4  16 48.8202 14.4416   3
 -10   4 -16 52.5981 20.8043   2
  10   4  16 65.0610 16.6090   4
 -23  -5  16 22.1638 13.8176   4
  23  -5 -16 17.3769 9.06225   2
  23   5 -16 14.7081 13.5843   3
  21  -5 -16 39.6085 9.10200   2
 -21  -5  16 39.5557 13.2098   4
  21   5 -16 43.4126 13.3684   3
 -21   5  16 35.3081 16.0154   4
  19  -5 -16 3.57501 7.92550   2
 -19  -5  16 5.10825 11.1483   4
 -19   5  16 -13.923 14.2166   4
  19   5 -16 -0.7547 10.2842   3
  17  -5 -16 100.075 11.3339   2
 -17  -5  16 105.140 13.8073   4
  17   5 -16 93.6698 13.1264   3
 -17   5  16 97.3076 16.6906   4
  15  -5 -16 60.8662 8.77079   2
 -15  -5  16 52.3784 11.5873   4
  15   5 -16 54.2131 10.2852   3
 -15   5  16 28.0614 13.8738   4
 -13  -5  16 16.3510 9.91827   4
  13  -5 -16 8.55357 7.16210   2
 -13   5  16 17.2592 12.5906   4
 -11  -5  16 24.9928 10.1368   4
  11  -5 -16 16.8731 7.55593   2
  11   5 -16 15.1316 7.67183   3
 -11   5  16 22.1382 11.2370   4
  -9  -5  16 93.4250 13.3103   4
   9  -5 -16 97.1711 10.0979   2
   9   5 -16 80.7807 9.27615   2
  -9   5  16 89.4724 14.1130   4
   9   5 -16 80.7296 10.3693   3
   7  -5 -16 41.9846 7.86668   2
  -7  -5  16 47.7996 11.0336   4
   7   5 -16 57.9855 8.98285   3
   7   5 -16 45.7061 7.55950   2
  -7   5  16 46.1632 13.2757   4
   5  -5 -16 30.7652 7.84860   2
  -5  -5  16 31.1113 9.36038   4
   5   5 -16 29.0716 7.96496   3
   5   5 -16 35.4311 7.42008   2
  -5   5  16 21.5617 12.4515   4
   3  -5 -16 44.3000 8.61244   2
  -3  -5  16 67.3934 11.3603   4
  -3  -5  16 52.0791 9.18454   3
  -3   5  16 48.0185 13.1755   4
   3   5 -16 54.3128 8.61284   2
   1  -5 -16 64.1943 9.78102   2
  -1  -5  16 69.3927 10.2685   3
  -1  -5  16 49.5352 10.4754   4
   1   5 -16 65.1268 9.34241   2
  -1   5  16 54.2872 13.6382   4
   1  -5  16 103.305 12.5492   3
   1  -5  16 90.8887 12.2191   4
  -1  -5 -16 64.5537 9.99707   2
  -1   5 -16 79.3785 10.6041   2
   1   5  16 96.1130 15.5709   4
   3  -5  16 102.051 13.1193   3
  -3  -5 -16 105.628 12.2972   2
  -3   5 -16 102.689 13.0588   2
   3   5  16 116.489 16.7590   4
  -5  -5 -16 33.1408 9.77300   2
   5  -5  16 49.7100 11.7727   3
  -5   5 -16 37.8898 11.1165   2
   5   5  16 36.9662 14.4149   4
   7  -5  16 29.1527 12.0543   3
  -7  -5 -16 39.8902 10.9239   2
  -7   5 -16 65.3452 11.8416   2
   7   5  16 70.5779 15.3523   4
  -9  -5 -16 22.9719 11.5147   2
   9  -5  16 8.40183 12.9947   3
  -9   5 -16 26.8321 11.6598   2
   9   5  16 22.7229 16.3718   4
 -22  -6  16 -5.6085 14.4053   4
  22   6 -16 -6.5072 13.8012   3
  20  -6 -16 -2.3140 7.77891   2
 -20  -6  16 11.1830 11.3618   4
  20   6 -16 7.14806 12.2228   3
 -20   6  16 -15.641 15.7348   4
 -18  -6  16 -3.7927 10.3244   4
  18  -6 -16 -4.3373 7.46706   2
 -18   6  16 -14.631 14.1781   4
  18   6 -16 5.09662 10.9988   3
 -16  -6  16 66.8893 13.4367   4
  16  -6 -16 62.2065 10.4255   2
 -16   6  16 59.2598 14.4873   4
  16   6 -16 61.8326 11.4103   3
 -14  -6  16 29.1898 11.7269   4
  14  -6 -16 17.0429 7.46668   2
 -14   6  16 1.52631 11.5658   4
  14   6 -16 24.8141 9.62146   3
  12  -6 -16 14.9585 7.61439   2
 -12  -6  16 -1.2733 10.1317   4
 -12   6  16 0.90030 11.2659   4
  12   6 -16 12.2059 8.88050   3
  10  -6 -16 4.38874 6.52882   2
 -10  -6  16 5.72599 10.0779   4
 -10   6  16 16.7171 11.3654   4
  10   6 -16 7.18199 8.22755   3
  -8  -6  16 12.6740 9.08569   4
   8  -6 -16 16.8911 7.54558   2
  -8   6  16 0.91075 10.9168   4
   8   6 -16 3.08156 8.02038   3
  -6  -6  16 7.94904 9.84222   4
   6  -6 -16 2.35741 7.33694   2
   6   6 -16 14.9429 7.00561   2
  -6   6  16 8.90286 11.2294   4
   6   6 -16 14.7866 8.85857   3
   4  -6 -16 13.8588 7.55904   2
  -4  -6  16 -2.7364 9.29877   4
   4   6 -16 6.06518 8.10186   3
  -4   6  16 12.9772 12.3041   4
   4   6 -16 4.23686 7.14675   2
  -2  -6  16 12.8403 8.98696   3
   2  -6 -16 6.10277 7.85801   2
  -2  -6  16 32.7859 10.3411   4
  -2   6  16 14.8716 12.5811   4
   2   6 -16 19.6131 8.20352   2
   0  -6  16 5.07494 9.16342   4
   0  -6 -16 -0.3797 6.87033   2
   0  -6  16 4.18888 9.03885   3
   0   6  16 2.92346 11.4713   4
   0   6 -16 5.42096 8.26260   2
  -2  -6 -16 8.33118 8.49243   2
   2  -6  16 1.76372 9.75852   3
  -2   6 -16 5.69603 9.14062   2
   2   6  16 4.23732 11.8286   4
  -4  -6 -16 18.4774 9.47197   2
   4  -6  16 -5.9541 10.2553   3
  -4   6 -16 12.8467 8.96700   2
   4   6  16 18.1040 13.9548   4
  -6  -6 -16 1.47444 9.67477   2
   6  -6  16 3.58125 11.6614   3
   6   6  16 -10.655 14.8094   4
  -6   6 -16 5.64336 9.68908   2
  -8   6 -16 12.6215 12.4353   2
 -19  -7  16 17.8206 13.3915   4
  19  -7 -16 31.6933 9.53040   2
  19   7 -16 30.3940 13.6864   3
  17  -7 -16 51.6892 10.6661   2
 -17  -7  16 33.5500 13.4912   4
 -17   7  16 32.5625 15.7865   4
  17   7 -16 36.1311 11.5771   3
  15  -7 -16 7.81179 8.24951   2
 -15  -7  16 0.90924 11.9948   4
  15   7 -16 0.45520 10.3379   3
 -15   7  16 -2.9444 14.2513   4
  13  -7 -16 6.90688 7.66159   2
 -13  -7  16 6.31461 11.4585   4
 -13   7  16 7.11256 13.5454   4
  13   7 -16 4.99264 10.3698   3
  11  -7 -16 13.4249 7.43923   2
 -11  -7  16 10.4477 11.1553   4
 -11   7  16 3.09813 11.9420   4
  11   7 -16 29.6217 10.8326   3
  -9  -7  16 -6.9860 10.3380   4
   9  -7 -16 1.54721 7.47194   2
   9   7 -16 14.3097 9.92278   3
  -9   7  16 -2.1110 11.4703   4
  -7  -7  16 -2.7885 9.76099   4
   7  -7 -16 -4.3017 6.49868   2
   7   7 -16 4.60169 9.12403   3
  -7   7  16 7.67854 13.3923   4
  -5  -7  16 217.799 19.4870   4
   5  -7 -16 230.273 17.9247   2
   5   7 -16 212.350 19.4572   3
  -5   7  16 237.506 22.5230   4
   3  -7 -16 76.3476 10.8004   2
  -3  -7  16 76.9008 12.3368   4
   3   7 -16 81.5807 12.8566   3
  -3   7  16 78.2499 16.1207   4
   3   7 -16 67.4693 10.3114   2
  -1  -7  16 -3.1401 9.52157   3
   1  -7 -16 2.78557 8.40462   2
  -1  -7  16 3.69808 9.82479   4
   1   7 -16 -1.3089 8.09278   2
  -1   7  16 -11.410 12.1070   4
  -1  -7 -16 34.8499 9.56564   2
   1  -7  16 24.1000 11.1624   3
  -1   7 -16 31.9757 9.56521   2
   1   7  16 21.5042 14.6414   4
  -3  -7 -16 201.392 17.6166   2
   3  -7  16 184.423 19.0539   3
   3   7  16 201.273 23.0176   4
  -3   7 -16 209.505 18.1336   2
   5  -7  16 59.1700 14.4123   3
  -5  -7 -16 46.3515 11.3575   2
   5   7  16 103.892 19.4875   4
  -5   7 -16 46.2973 11.5754   2
 -16  -8  16 91.2832 15.3026   4
  16  -8 -16 94.4018 12.3752   2
  16   8 -16 73.1175 14.3946   3
 -16   8  16 70.3205 18.4114   4
 -14  -8  16 -0.9985 11.0974   4
  14  -8 -16 2.92986 8.06070   2
  14   8 -16 0.23894 12.0088   3
 -14   8  16 -9.8796 13.3097   4
  12  -8 -16 -3.0678 8.56405   2
 -12  -8  16 2.86539 10.4961   4
  12   8 -16 2.74427 11.2413   3
 -12   8  16 -8.8729 14.1639   4
 -10  -8  16 75.0213 13.5973   4
  10  -8 -16 89.7033 11.6115   2
  10   8 -16 70.4827 13.9295   3
 -10   8  16 85.5790 16.9423   4
   8  -8 -16 10.3476 8.45401   2
  -8  -8  16 27.7300 10.7173   4
  -8   8  16 15.0975 13.1057   4
   8   8 -16 11.4947 10.9770   3
   6  -8 -16 31.6016 8.49463   2
  -6  -8  16 24.6214 11.2000   4
   6   8 -16 20.1923 11.6692   3
  -6   8  16 15.9770 15.1293   4
   4  -8 -16 145.624 13.4987   2
  -4  -8  16 106.670 14.8857   4
  -4   8  16 107.392 17.6376   4
   4   8 -16 103.838 14.6323   3
   2  -8 -16 17.6092 9.26006   2
  -2  -8  16 19.0243 11.0466   4
  -2   8  16 1.22151 12.8947   4
   2   8 -16 2.78418 11.3574   3
   0  -8 -16 67.3222 10.3901   2
   0  -8  16 54.3622 12.9696   3
   0   8 -16 70.2627 11.8970   2
   0   8  16 60.2295 16.1713   4
   2  -8  16 119.979 15.5521   3
  -2  -8 -16 99.1607 12.9488   2
  -2   8 -16 111.245 14.5626   2
  13  -9 -16 12.7754 9.34616   2
 -13  -9  16 15.9537 12.5054   4
  13   9 -16 29.7859 14.2869   3
 -13   9  16 12.3181 16.8512   4
  11  -9 -16 32.9506 10.3832   2
 -11  -9  16 26.4936 13.7659   4
  11   9 -16 33.2355 13.7782   3
 -11   9  16 15.5584 15.2433   4
  -9  -9  16 -0.4700 12.3671   4
   9  -9 -16 -2.2748 8.93660   2
   9   9 -16 2.62556 12.9361   3
  -9   9  16 -10.368 14.0346   4
   7  -9 -16 -6.9972 8.04489   2
  -7  -9  16 18.8603 12.2870   4
   7   9 -16 6.60056 12.4360   3
  -7   9  16 2.60814 15.8533   4
   5  -9 -16 74.3443 11.6981   2
  -5  -9  16 91.2751 15.3051   4
   5   9 -16 91.7762 16.3005   3
  -5   9  16 105.962 19.8742   4
   3  -9 -16 2.11214 9.42780   2
   3   9 -16 4.84414 12.7481   3
 -26   0  17 13.8287 13.8804   4
  26   0 -17 -2.3293 10.7195   2
  24   0 -17 -4.8126 7.95375   2
 -24   0  17 12.0784 11.4631   4
  22   0 -17 -2.1618 7.35414   2
 -22   0  17 13.6048 12.6197   4
  20   0 -17 0.29138 6.99786   2
 -20   0  17 -5.8148 10.5866   4
  18   0 -17 -7.7430 5.55671   2
 -18   0  17 6.55842 10.6286   4
  16   0 -17 12.3759 6.46426   2
 -16   0  17 -6.7701 10.1505   4
  14   0 -17 -4.1847 5.55507   2
 -14   0  17 -2.3048 10.0747   4
 -12   0  17 7.16543 11.6621   4
  12   0 -17 -4.3287 5.00390   2
  10   0 -17 3.11396 5.36987   2
 -10   0  17 -7.3075 10.5177   4
   8   0 -17 3.34800 5.63666   2
   6   0 -17 5.25458 5.74782   2
  -6   0  17 8.75581 10.3543   4
  -4   0  17 -4.3536 9.88995   4
   4   0 -17 7.87495 6.76454   2
  -2   0  17 15.7594 10.2456   4
   2   0 -17 -6.6471 5.64174   2
   0   0 -17 4.37867 6.57798   2
   0   0  17 -9.7830 10.7928   4
  -2   0 -17 4.72343 7.10988   2
  -4   0 -17 -3.0448 7.36492   2
   4   0  17 -7.6829 10.8726   4
   6   0  17 -1.0601 12.1874   4
  -6   0 -17 1.61623 8.47679   2
  -8   0 -17 6.99967 9.46303   2
 -10   0 -17 6.91136 11.1945   2
 -25  -1  17 17.4128 13.5090   4
  25  -1 -17 5.71383 9.02922   2
  25   1 -17 18.4329 13.6314   3
 -25   1  17 25.6098 13.6195   4
  23  -1 -17 29.2583 8.83593   2
 -23  -1  17 20.6049 13.1046   4
  23   1 -17 35.6310 8.89085   2
  23   1 -17 23.1617 11.9228   3
 -23   1  17 35.2845 12.4737   4
 -21  -1  17 59.7071 13.8565   4
  21  -1 -17 52.2565 9.40230   2
 -21   1  17 57.9386 13.9023   4
  21   1 -17 41.1221 8.58963   2
  21   1 -17 53.3580 11.9456   3
  19  -1 -17 2.76382 7.10047   2
 -19  -1  17 -12.696 10.0494   4
 -19   1  17 -8.7014 10.9737   4
  19   1 -17 -6.9075 8.27849   3
  19   1 -17 4.49924 6.52231   2
  17  -1 -17 123.599 11.1597   2
 -17  -1  17 125.757 15.4677   4
  17   1 -17 117.317 12.0032   3
 -17   1  17 156.753 17.6752   4
  17   1 -17 106.264 10.8546   2
  15  -1 -17 55.0531 8.27821   2
 -15  -1  17 56.8288 12.1806   4
  15   1 -17 52.6870 8.32356   3
 -15   1  17 64.1218 14.7797   4
  15   1 -17 50.2401 7.63637   2
 -13  -1  17 30.8911 11.1355   4
  13   1 -17 41.1505 7.11671   2
 -13   1  17 49.2677 12.4032   4
  13   1 -17 29.0467 9.80836   3
 -11  -1  17 181.891 19.1663   4
  11  -1 -17 214.454 16.2354   2
 -11   1  17 215.292 21.0446   4
  11   1 -17 249.206 15.6044   2
   9  -1 -17 32.1096 6.70681   2
  -9   1  17 49.7136 12.1606   4
   9   1 -17 31.4280 7.18555   2
  -7  -1  17 27.6932 11.3360   4
   7  -1 -17 10.6644 10.0062   2
  -7   1  17 16.0029 12.0629   4
   7   1 -17 27.5116 7.18508   2
  -5  -1  17 220.930 20.5762   4
   5  -1 -17 248.094 17.1598   2
   5   1 -17 259.342 17.8831   2
   3  -1 -17 86.3440 10.3096   2
  -3  -1  17 128.551 15.6306   4
  -3   1  17 106.662 17.3698   4
   3   1 -17 107.411 11.1746   2
  -1  -1  17 67.7447 13.5442   4
   1  -1 -17 62.6513 8.72126   2
   1   1 -17 51.8056 8.65022   2
  -1   1  17 57.2936 13.0174   4
   1  -1  17 111.811 15.0632   4
  -1  -1 -17 106.847 11.7589   2
  -1   1 -17 126.144 12.9075   2
   1   1  17 113.662 15.6540   4
  -3  -1 -17 190.969 16.8293   2
   3  -1  17 198.216 19.8167   4
   3   1  17 238.288 20.6122   4
  -3   1 -17 193.541 17.0577   2
   5  -1  17 22.0195 12.8587   4
  -5  -1 -17 38.2025 9.21760   2
  -5   1 -17 21.7948 10.2633   2
   5   1  17 10.1780 13.0712   4
  -7  -1 -17 51.3370 10.7994   2
  -7   1 -17 62.2044 11.0570   2
   7   1  17 68.4817 15.0602   4
  -9  -1 -17 1.74713 11.0159   2
  -9   1 -17 13.2014 10.9462   2
  26  -2 -17 18.7774 10.6597   2
 -26  -2  17 31.0657 14.1260   4
  26   2 -17 6.66490 14.9965   3
 -24  -2  17 -4.5162 11.8669   4
  24  -2 -17 3.68452 8.90353   2
  24   2 -17 -3.3938 12.4315   3
 -24   2  17 11.3279 13.5158   4
 -22  -2  17 27.6304 13.1553   4
  22  -2 -17 23.3979 8.83543   2
 -22   2  17 17.4237 13.4799   4
  22   2 -17 6.37111 10.9390   3
 -20  -2  17 196.221 19.3235   4
  20  -2 -17 186.771 15.4384   2
  20   2 -17 175.572 16.8953   3
  20   2 -17 172.462 14.1484   2
 -20   2  17 185.745 19.1928   4
 -18  -2  17 136.989 15.7647   4
  18  -2 -17 121.336 12.3774   2
  18   2 -17 125.331 11.3407   2
  18   2 -17 131.895 13.5981   3
 -18   2  17 111.798 16.6720   4
  16  -2 -17 52.8831 8.11521   2
 -16  -2  17 80.4393 13.7939   4
  16   2 -17 50.5055 7.88596   2
  16   2 -17 55.5590 9.26938   3
 -16   2  17 61.7383 13.9230   4
 -14  -2  17 66.5413 12.8166   4
  14  -2 -17 66.2963 8.28647   2
  14   2 -17 63.7118 8.43729   3
  14   2 -17 54.4578 7.78973   2
 -14   2  17 63.2320 13.3874   4
  12  -2 -17 258.482 18.5113   2
 -12  -2  17 252.185 21.9917   4
  12   2 -17 289.033 17.7795   3
 -12   2  17 287.362 23.7427   4
  12   2 -17 244.764 17.8371   2
 -10  -2  17 120.262 15.1592   4
  10  -2 -17 107.093 10.9044   2
  10   2 -17 120.822 9.67406   3
  10   2 -17 98.4580 9.82086   2
 -10   2  17 110.473 15.2766   4
   8  -2 -17 22.0429 6.65180   2
  -8  -2  17 21.1993 12.7015   4
  -8   2  17 6.59182 10.1154   4
   8   2 -17 24.0639 6.78843   2
   8   2 -17 20.1242 5.24065   3
   6  -2 -17 168.408 13.1990   2
  -6  -2  17 183.493 17.7765   4
   6   2 -17 128.433 10.9923   3
  -6   2  17 139.095 16.6426   4
   6   2 -17 175.555 13.3938   2
   4  -2 -17 59.4421 8.86958   2
  -4  -2  17 64.8661 13.1704   4
  -4   2  17 65.8325 12.7834   4
   4   2 -17 68.1642 7.55087   3
   4   2 -17 63.8781 9.77823   2
  -2  -2  17 70.0033 12.5002   4
   2  -2 -17 63.2482 9.43454   2
  -2  -2  17 50.8838 7.38893   3
  -2   2  17 35.8006 12.5676   4
   2   2 -17 48.7835 8.35118   2
   0  -2  17 196.083 19.0706   4
   0  -2 -17 197.644 15.8576   2
   0  -2  17 190.666 14.8171   3
   0   2 -17 182.691 15.3657   2
   0   2  17 167.293 18.1143   4
   2  -2  17 145.298 17.0547   4
  -2  -2 -17 147.837 13.2239   2
   2  -2  17 113.226 13.3783   3
   2   2  17 135.130 16.9997   4
  -2   2 -17 141.956 13.7490   2
   4  -2  17 128.145 16.2734   4
  -4  -2 -17 83.5570 12.2648   2
   4   2  17 82.5709 14.7877   4
  -4   2 -17 111.206 12.5126   2
  -6  -2 -17 43.3763 9.83679   2
   6   2  17 21.5035 13.1425   4
  -6   2 -17 59.0553 10.7615   2
  -8  -2 -17 53.1910 11.8619   2
   8   2  17 54.2719 15.4504   4
  -8   2 -17 35.3374 11.7072   2
 -10  -2 -17 10.9452 10.8637   2
  25  -3 -17 15.3525 10.0167   2
 -25  -3  17 16.4077 13.2466   4
  25   3 -17 -11.288 13.1109   3
  23  -3 -17 75.2484 11.1243   2
 -23  -3  17 58.8007 13.1551   4
  23   3 -17 27.7762 13.3162   3
 -23   3  17 65.5487 15.4335   4
 -21  -3  17 12.6416 12.2265   4
  21  -3 -17 14.0784 8.38700   2
  21   3 -17 -3.1597 10.5519   3
 -21   3  17 -10.935 13.6372   4
  19  -3 -17 8.63010 7.93954   2
 -19  -3  17 0.65051 11.4271   4
  19   3 -17 7.34774 10.4375   3
 -19   3  17 5.15955 13.8459   4
 -17  -3  17 196.589 18.8523   4
  17  -3 -17 208.956 15.2171   2
  17   3 -17 159.945 13.6444   2
 -17   3  17 175.897 19.6640   4
  17   3 -17 204.055 16.2268   3
 -15  -3  17 11.2013 10.1236   4
  15  -3 -17 10.5493 6.35196   2
 -15   3  17 -9.9130 12.9479   4
  15   3 -17 7.69766 7.44993   3
  15   3 -17 4.03419 5.78014   2
 -13  -3  17 19.6822 11.7307   4
  13  -3 -17 10.4943 6.87916   2
  13   3 -17 15.8049 6.55542   3
 -13   3  17 18.2847 12.9980   4
  13   3 -17 25.4302 6.29827   2
  11  -3 -17 129.175 12.5527   2
 -11  -3  17 152.335 16.1379   4
 -11   3  17 189.964 18.8679   4
  11   3 -17 154.638 12.4676   2
  11   3 -17 173.239 13.0190   3
  -9  -3  17 90.8522 13.2827   4
   9  -3 -17 128.841 11.2732   2
   9   3 -17 83.3120 9.27486   3
  -9   3  17 85.9433 13.9847   4
   9   3 -17 106.825 9.79476   2
  -7  -3  17 4.83227 10.4636   4
   7  -3 -17 0.51447 5.88226   2
   7   3 -17 -2.8401 5.88019   2
   7   3 -17 -3.9842 5.14409   3
  -7   3  17 -8.1262 10.7943   4
   5  -3 -17 158.647 13.7115   2
   5   3 -17 174.305 13.2248   3
  -5   3  17 150.478 17.2656   4
   5   3 -17 179.855 14.2964   2
   3  -3 -17 48.4489 8.79769   2
  -3  -3  17 47.9880 11.4766   4
  -3  -3  17 73.0044 8.47923   3
  -3   3  17 44.4235 12.0638   4
   3   3 -17 40.7012 7.88767   2
  -1  -3  17 41.9092 11.7692   4
   1  -3 -17 38.5578 8.01926   2
  -1  -3  17 29.8577 7.54597   3
   1   3 -17 28.9994 8.50967   2
  -1   3  17 44.1896 11.7271   4
   1  -3  17 111.209 14.7577   4
  -1  -3 -17 82.9904 11.4747   2
   1  -3  17 143.279 12.3625   3
   1   3  17 108.847 15.7593   4
  -1   3 -17 135.851 13.1930   2
   3  -3  17 72.7451 11.3939   3
   3  -3  17 107.243 14.5987   4
  -3  -3 -17 79.1453 10.7301   2
   3   3  17 60.5375 14.5825   4
  -3   3 -17 84.3700 11.0965   2
  -5  -3 -17 30.0997 9.88912   2
   5  -3  17 32.1281 10.7414   3
   5   3  17 45.5931 14.1357   4
  -5   3 -17 34.4358 9.69929   2
   7  -3  17 32.1860 11.5421   3
  -7  -3 -17 33.1627 11.0362   2
   7   3  17 11.1990 13.4137   4
  -7   3 -17 17.1645 9.57220   2
  -9  -3 -17 25.1950 11.8596   2
  -9   3 -17 33.2803 11.5261   2
   9   3  17 25.8011 15.4840   4
 -24  -4  17 21.8685 14.0543   4
  24  -4 -17 6.04570 9.57821   2
  24   4 -17 -8.2424 13.2374   3
 -22  -4  17 16.6458 11.4339   4
  22  -4 -17 -6.8951 8.68234   2
  22   4 -17 4.03165 12.3877   3
 -22   4  17 -0.6002 14.8275   4
 -20  -4  17 11.7985 10.3708   4
  20  -4 -17 7.32906 7.41389   2
  20   4 -17 -7.4149 10.5743   3
 -20   4  17 -6.7867 14.0747   4
  18  -4 -17 12.8092 8.21629   2
 -18  -4  17 26.1370 10.8980   4
 -18   4  17 8.66351 14.2963   4
  18   4 -17 7.84493 9.67279   3
  16  -4 -17 66.7382 9.68359   2
 -16  -4  17 53.5275 12.2062   4
 -16   4  17 43.3744 14.0895   4
  16   4 -17 70.5421 10.5767   3
  14  -4 -17 9.87974 6.54008   2
 -14  -4  17 1.07467 9.37101   4
 -14   4  17 -7.9612 12.3727   4
  14   4 -17 14.6065 7.02814   2
  14   4 -17 21.1347 7.88462   3
  12  -4 -17 -3.7784 5.72227   2
 -12  -4  17 2.10370 9.47101   4
  12   4 -17 5.86360 6.83761   3
 -12   4  17 5.21352 11.0864   4
  12   4 -17 3.72467 5.98228   2
 -10  -4  17 46.4946 10.9168   4
  10  -4 -17 44.0594 7.71782   2
  10   4 -17 46.0057 7.42566   2
  10   4 -17 36.3863 8.17224   3
 -10   4  17 56.8504 13.7319   4
  -8  -4  17 -1.0248 10.3373   4
   8  -4 -17 7.48470 6.19983   2
   8   4 -17 -1.0907 6.23723   3
   8   4 -17 0.13800 6.16103   2
  -8   4  17 8.15213 11.9714   4
   6  -4 -17 17.8615 7.15199   2
  -6  -4  17 19.8800 10.0889   4
   6   4 -17 34.8275 7.79793   3
   6   4 -17 12.2734 6.87892   2
  -6   4  17 48.7395 13.1547   4
  -4  -4  17 -0.6644 10.3564   4
   4  -4 -17 8.28109 6.54762   2
  -4   4  17 -1.9716 11.4263   4
   4   4 -17 9.57217 6.92906   3
   2  -4 -17 9.80239 7.70184   2
  -2  -4  17 10.7154 10.0401   4
  -2  -4  17 0.07325 6.84736   3
   2   4 -17 3.53601 7.49226   2
  -2   4  17 28.0891 11.7717   4
   0  -4  17 -3.6823 7.41303   3
   0  -4  17 -2.4710 10.1500   4
   0  -4 -17 0.29040 6.92709   2
   0   4 -17 0.46126 7.99316   2
   0   4  17 -8.5550 10.6856   4
  -2  -4 -17 10.9184 7.63927   2
   2  -4  17 -2.8784 10.4382   4
   2   4  17 -0.8706 12.5681   4
  -2   4 -17 2.55999 8.66132   2
  -4  -4 -17 2.33745 8.94448   2
   4  -4  17 -0.4719 9.35837   3
   4   4  17 3.88642 11.8491   4
  -4   4 -17 3.08391 8.28914   2
   6  -4  17 13.1386 11.1768   3
  -6  -4 -17 4.04237 9.57363   2
  -6   4 -17 -15.237 9.99418   2
   6   4  17 -0.8175 14.0571   4
  -8  -4 -17 1.75748 9.84715   2
   8  -4  17 -2.2785 12.2241   3
   8   4  17 0.96638 15.5879   4
  -8   4 -17 4.12192 11.8903   2
 -23  -5  17 8.07254 13.8545   4
  23  -5 -17 2.83535 10.1093   2
  23   5 -17 8.23236 14.1848   3
  21  -5 -17 50.0978 10.9439   2
 -21  -5  17 90.9353 14.6893   4
  21   5 -17 43.8001 13.3934   3
 -21   5  17 45.7867 17.0952   4
  19  -5 -17 28.1135 9.74649   2
 -19  -5  17 31.5830 13.0417   4
 -19   5  17 37.6055 16.7138   4
  19   5 -17 63.0497 12.6715   3
  17  -5 -17 28.1362 8.89833   2
 -17  -5  17 39.5649 11.2981   4
  17   5 -17 21.9788 9.90606   3
 -17   5  17 23.2732 13.8951   4
  15  -5 -17 32.5892 8.29301   2
 -15  -5  17 24.5277 10.8446   4
  15   5 -17 36.2141 10.1019   3
 -15   5  17 7.96409 12.3118   4
  13  -5 -17 188.226 15.5777   2
 -13  -5  17 215.544 19.0483   4
  13   5 -17 159.988 15.6324   3
 -13   5  17 202.449 19.9928   4
 -11  -5  17 144.507 15.2859   4
  11  -5 -17 130.751 12.6405   2
 -11   5  17 74.3448 15.0928   4
  11   5 -17 115.429 12.3865   3
  -9  -5  17 8.64131 10.5656   4
   9  -5 -17 -4.1146 6.18253   2
   9   5 -17 9.84003 6.55454   2
  -9   5  17 28.3805 11.9562   4
   9   5 -17 2.00382 7.46739   3
  -7  -5  17 31.9748 11.2387   4
   7  -5 -17 25.6714 7.41921   2
  -7   5  17 41.3717 13.6028   4
   7   5 -17 29.1145 8.54072   3
   7   5 -17 36.9697 7.82153   2
  -5  -5  17 362.820 26.0182   4
   5  -5 -17 321.608 22.6726   2
  -5   5  17 389.042 27.6136   4
   5   5 -17 331.703 23.8121   3
   5   5 -17 333.555 22.5682   2
  -3  -5  17 42.0399 11.1771   4
   3  -5 -17 27.6531 7.92318   2
  -3  -5  17 33.6251 8.75740   3
  -3   5  17 22.4769 11.7896   4
   3   5 -17 51.0385 9.03264   2
  -1  -5  17 71.4758 10.9004   3
  -1  -5  17 52.5617 13.6004   4
   1  -5 -17 50.5282 9.02508   2
   1   5 -17 45.8082 9.49725   2
  -1   5  17 55.9928 13.6731   4
  -1  -5 -17 69.7914 10.3251   2
   1  -5  17 73.8215 11.3328   3
   1  -5  17 90.8406 12.7590   4
  -1   5 -17 75.0939 11.1644   2
   1   5  17 66.1766 15.4328   4
  -3  -5 -17 160.374 15.3748   2
   3  -5  17 191.747 17.6267   3
   3   5  17 201.175 21.4931   4
  -3   5 -17 176.889 16.2640   2
  -5  -5 -17 78.3363 11.4235   2
   5  -5  17 62.2237 12.7263   3
  -5   5 -17 54.4399 12.5898   2
   5   5  17 70.8103 17.1157   4
  -7  -5 -17 -5.8932 10.5661   2
   7  -5  17 7.08675 12.3394   3
  -7   5 -17 7.50080 11.6752   2
   7   5  17 11.2687 15.8710   4
  20  -6 -17 15.1217 9.51086   2
 -20  -6  17 16.0797 12.1073   4
 -20   6  17 -11.115 16.6816   4
  20   6 -17 -2.8875 12.7631   3
 -18  -6  17 112.468 16.8474   4
  18  -6 -17 160.475 14.4270   2
  18   6 -17 148.995 16.0311   3
 -18   6  17 106.124 19.6399   4
  16  -6 -17 129.480 13.0240   2
 -16  -6  17 136.876 16.0872   4
 -16   6  17 125.590 18.7293   4
  16   6 -17 104.973 14.5317   3
  14  -6 -17 1.98602 8.10469   2
 -14  -6  17 18.9991 10.5591   4
 -14   6  17 19.4041 14.5186   4
  14   6 -17 19.7360 9.67422   3
 -12  -6  17 140.577 15.7656   4
  12  -6 -17 106.495 12.1335   2
 -12   6  17 98.8781 16.3026   4
  12   6 -17 125.449 13.8456   3
  10  -6 -17 197.352 16.5842   2
 -10  -6  17 219.355 19.7116   4
  10   6 -17 213.299 17.9042   3
 -10   6  17 238.353 22.7441   4
   8  -6 -17 53.3365 9.18013   2
  -8  -6  17 60.2935 11.6094   4
  -8   6  17 57.1327 14.1372   4
   8   6 -17 52.7346 10.0627   3
   6  -6 -17 49.4461 9.39726   2
  -6  -6  17 60.8186 12.3594   4
   6   6 -17 45.3910 8.83473   2
   6   6 -17 49.1960 10.5967   3
  -6   6  17 61.2500 14.8431   4
  -4  -6  17 149.730 15.3136   4
   4  -6 -17 111.292 12.3715   2
  -4   6  17 69.5063 15.6005   4
   4   6 -17 114.304 12.0951   2
   4   6 -17 121.713 13.7690   3
   2  -6 -17 65.2879 10.4662   2
  -2  -6  17 51.9873 10.3390   3
  -2  -6  17 49.1429 11.6255   4
   2   6 -17 50.0235 9.97072   2
  -2   6  17 43.6956 13.8637   4
   0  -6  17 207.421 18.5136   3
   0  -6  17 218.038 19.7395   4
   0  -6 -17 192.298 17.3760   2
   0   6 -17 221.496 17.4580   2
   0   6  17 236.676 22.4515   4
  -2  -6 -17 82.4825 12.4145   2
   2  -6  17 105.857 14.1362   3
   2   6  17 127.411 18.8436   4
  -2   6 -17 107.316 13.3510   2
   4  -6  17 44.9025 12.8369   3
  -4  -6 -17 37.0605 10.2813   2
   4   6  17 35.2531 16.2632   4
  -4   6 -17 61.0050 11.6689   2
   6  -6  17 54.8870 13.8726   3
  -6  -6 -17 63.4634 12.3844   2
   6   6  17 76.9134 18.4005   4
  -6   6 -17 48.5437 13.5346   2
  19  -7 -17 26.1686 15.2558   2
 -19   7  17 22.7497 18.5019   4
  19   7 -17 42.9381 13.5819   3
  17  -7 -17 10.5829 8.75834   2
 -17  -7  17 21.8257 11.6125   4
  17   7 -17 -3.8565 11.8864   3
 -17   7  17 -12.128 15.6355   4
 -15  -7  17 19.7554 11.8272   4
  15  -7 -17 0.60431 8.83528   2
 -15   7  17 1.10801 14.2931   4
  15   7 -17 11.9972 11.6229   3
  13  -7 -17 32.0688 9.66014   2
 -13  -7  17 37.7610 11.7026   4
  13   7 -17 37.7684 11.8035   3
 -13   7  17 33.1253 15.4844   4
 -11  -7  17 83.2649 13.7062   4
  11  -7 -17 39.3731 9.31600   2
 -11   7  17 65.0088 16.6784   4
  11   7 -17 58.5775 12.4330   3
  -9  -7  17 -3.6388 11.0712   4
   9  -7 -17 -5.0400 7.87348   2
  -9   7  17 8.45424 12.7063   4
   9   7 -17 0.39949 8.53910   3
   7  -7 -17 49.5603 9.62363   2
  -7  -7  17 40.1511 10.9746   4
  -7   7  17 15.6763 13.6595   4
   7   7 -17 48.0032 11.5933   3
  -5  -7  17 36.5987 11.8578   4
   5  -7 -17 49.4066 10.0290   2
  -5   7  17 45.4452 14.3260   4
   5   7 -17 38.0846 11.7143   3
  -3  -7  17 3.58343 10.3810   4
   3  -7 -17 10.0142 8.71097   2
   3   7 -17 5.84052 8.49733   2
  -3   7  17 20.4895 13.7473   4
   3   7 -17 1.70312 9.99803   3
  -1  -7  17 13.0266 10.2300   3
   1  -7 -17 14.8309 9.19968   2
  -1   7  17 2.33749 15.2163   4
   1   7 -17 3.89232 8.99735   2
   1  -7  17 60.4253 12.8527   3
  -1  -7 -17 29.5073 9.46101   2
   1   7  17 42.4231 15.3053   4
  -1   7 -17 21.4752 10.6255   2
  -3  -7 -17 67.7006 12.0191   2
   3  -7  17 50.4001 13.8809   3
   3   7  17 78.7489 19.2321   4
  -3   7 -17 66.0312 13.5460   2
 -16  -8  17 21.4231 24.5452   4
 -16   8  17 -2.0172 16.3634   4
  16   8 -17 -3.5354 12.7341   3
 -14  -8  17 -1.3206 12.9918   4
  14  -8 -17 5.70952 9.56702   2
 -14   8  17 -5.0851 15.3372   4
  14   8 -17 4.56966 12.3485   3
  12  -8 -17 1.22400 9.01861   2
 -12  -8  17 13.3165 12.6759   4
  12   8 -17 23.4160 12.2719   3
 -12   8  17 -1.0497 15.6807   4
 -10  -8  17 -2.6083 11.8268   4
  10  -8 -17 -1.8634 8.02966   2
  10   8 -17 13.3494 11.4786   3
 -10   8  17 -5.1674 15.2496   4
  -8  -8  17 18.1977 12.1302   4
   8  -8 -17 20.9890 8.50296   2
  -8   8  17 19.5199 16.3076   4
   8   8 -17 12.4399 11.3576   3
  -6  -8  17 6.08399 11.9417   4
   6  -8 -17 -4.1769 8.65401   2
  -6   8  17 -7.7976 15.2044   4
   6   8 -17 5.70665 10.4350   3
  -4  -8  17 20.1519 12.2225   4
   4  -8 -17 5.74173 9.08296   2
   4   8 -17 19.9472 11.0732   3
  -4   8  17 19.3292 15.2581   4
   2  -8 -17 11.3947 8.71944   2
   2   8 -17 6.27766 11.6202   3
  -2   8  17 8.76949 16.7870   4
   0  -8 -17 2.07864 9.84215   2
   0  -8  17 6.49453 11.9504   3
   0   8  17 8.86136 28.2736   4
   9  -9 -17 18.2374 10.4996   2
   7  -9 -17 -3.7391 9.50422   2
   7   9 -17 15.0100 13.1627   3
 -26   0  18 104.978 18.2671   4
 -24   0  18 -11.944 11.4124   4
  24   0 -18 1.41432 8.61011   2
 -22   0  18 52.5229 14.5662   4
  22   0 -18 49.3644 9.45617   2
 -20   0  18 319.323 26.0505   4
  20   0 -18 298.386 21.2933   2
  18   0 -18 188.237 15.6665   2
 -18   0  18 231.395 20.7822   4
  16   0 -18 43.9355 8.32446   2
 -16   0  18 49.6971 12.9706   4
 -14   0  18 448.454 34.2717   4
  14   0 -18 477.879 28.7885   2
 -12   0  18 602.406 41.2227   4
  12   0 -18 661.220 38.2229   2
 -10   0  18 385.758 28.6313   4
  10   0 -18 376.702 24.7782   2
  -8   0  18 203.238 20.1909   4
   8   0 -18 217.153 16.3056   2
   6   0 -18 77.4879 9.96422   2
  -6   0  18 109.624 15.8838   4
  -4   0  18 68.5885 13.4358   4
   4   0 -18 76.4592 10.0248   2
  -2   0  18 386.739 30.1639   4
   2   0 -18 401.678 25.5887   2
   0   0  18 243.800 22.8634   4
   0   0 -18 264.136 20.0906   2
   2   0  18 20.0718 12.7455   4
  -2   0 -18 33.8772 9.03296   2
   4   0  18 179.301 19.5665   4
  -4   0 -18 169.167 15.7006   2
   6   0  18 94.2672 17.0780   4
  -6   0 -18 117.127 14.5908   2
  -8   0 -18 26.7920 11.8924   2
  25  -1 -18 -2.4805 8.60726   2
 -25  -1  18 0.77964 13.8679   4
 -25   1  18 4.80377 14.5029   4
 -23  -1  18 121.271 17.8353   4
  23  -1 -18 147.269 14.0638   2
  23   1 -18 144.863 13.6354   2
 -23   1  18 149.884 19.1528   4
 -21  -1  18 32.1255 12.2767   4
  21  -1 -18 34.5915 8.90802   2
 -21   1  18 48.6437 14.3487   4
  21   1 -18 21.9806 8.12301   2
  19  -1 -18 7.31399 7.66627   2
 -19  -1  18 -1.1666 11.0824   4
  19   1 -18 -7.7882 6.80305   2
 -19   1  18 -5.9466 12.6414   4
 -17  -1  18 166.965 18.1282   4
  17  -1 -18 191.900 14.9493   2
 -17   1  18 174.256 20.0131   4
  15  -1 -18 52.1765 8.25230   2
 -15  -1  18 56.5336 13.1492   4
  15   1 -18 71.0836 8.61428   2
 -15   1  18 67.7839 14.6298   4
  13  -1 -18 131.197 11.8583   2
 -13  -1  18 148.668 17.1913   4
 -13   1  18 128.201 16.6799   4
  13   1 -18 136.318 11.8995   2
  11  -1 -18 121.605 11.4163   2
 -11  -1  18 126.636 16.5768   4
  11   1 -18 120.024 11.3140   2
 -11   1  18 88.4560 15.1769   4
   9  -1 -18 92.2936 10.2820   2
  -9  -1  18 78.1705 14.5746   4
  -9   1  18 55.5325 14.6097   4
   9   1 -18 60.7304 8.41523   2
  -7  -1  18 40.5516 13.5686   4
   7  -1 -18 27.3981 7.60975   2
  -7   1  18 47.5340 13.9255   4
   7   1 -18 45.6237 7.54949   2
   5  -1 -18 51.3850 8.25100   2
  -5  -1  18 58.2652 13.0137   4
   5   1 -18 55.6222 8.33402   2
  -5   1  18 54.9465 13.9362   4
   3  -1 -18 28.1678 7.47576   2
  -3  -1  18 28.1871 12.7481   4
  -3   1  18 35.8962 12.8427   4
   3   1 -18 22.1421 8.06411   2
   1  -1 -18 87.1707 10.1342   2
  -1  -1  18 62.3254 14.7237   4
  -1   1  18 76.7346 13.5243   4
   1   1 -18 79.0842 10.6115   2
  -1  -1 -18 115.235 12.4129   2
   1  -1  18 132.739 17.4431   4
  -1   1 -18 139.044 13.4147   2
   1   1  18 132.080 17.0723   4
   3  -1  18 73.4400 15.4206   4
  -3  -1 -18 68.0645 11.6046   2
   3   1  18 53.6189 14.8444   4
  -3   1 -18 54.1752 11.0587   2
   5  -1  18 -3.1737 13.3611   4
  -5  -1 -18 1.45198 8.91055   2
  -5   1 -18 -3.1605 8.61813   2
   5   1  18 -9.9606 13.2981   4
  -7  -1 -18 55.7703 12.6691   2
  -7   1 -18 56.6134 11.6520   2
   7   1  18 40.1174 15.6516   4
  -9  -1 -18 9.42355 11.0186   2
 -24  -2  18 11.7667 13.5508   4
  24  -2 -18 -0.3024 8.04951   2
 -24   2  18 11.4836 14.3280   4
 -22  -2  18 46.5751 13.9047   4
  22  -2 -18 18.2661 9.13358   2
  22   2 -18 6.84469 18.7062   3
 -22   2  18 40.3316 15.3355   4
  20  -2 -18 94.5569 11.1052   2
 -20  -2  18 73.8875 13.8523   4
 -20   2  18 29.8744 15.3845   4
  20   2 -18 78.0998 13.4102   3
  20   2 -18 75.6004 9.99849   2
 -18  -2  18 2.95330 10.8949   4
  18  -2 -18 6.77730 7.57465   2
  18   2 -18 0.33298 6.63416   2
  18   2 -18 10.0452 14.7481   3
 -18   2  18 -10.598 12.2353   4
  16  -2 -18 73.3098 9.47279   2
 -16  -2  18 48.8583 12.8773   4
 -16   2  18 31.8381 13.3785   4
  16   2 -18 47.8472 7.97092   2
 -14  -2  18 -6.0753 10.7390   4
  14  -2 -18 -1.4529 6.45762   2
 -14   2  18 -6.9365 12.6170   4
  14   2 -18 -3.3741 5.85208   2
  12  -2 -18 5.57895 6.59421   2
 -12  -2  18 12.6199 10.3722   4
  12   2 -18 8.18994 6.19519   2
 -12   2  18 1.59621 12.6952   4
  10  -2 -18 11.5333 6.39460   2
 -10  -2  18 8.72796 10.8958   4
  10   2 -18 -3.3739 5.24796   2
 -10   2  18 -4.5739 12.5379   4
  -8  -2  18 49.2959 11.8608   4
   8  -2 -18 27.4138 7.45336   2
  -8   2  18 -0.3861 11.0846   4
   8   2 -18 28.9036 7.31684   2
  -6  -2  18 9.38219 12.0564   4
   6  -2 -18 12.8292 6.87705   2
  -6   2  18 9.31995 11.6050   4
   6   2 -18 5.22042 6.76568   2
  -4  -2  18 8.81196 10.7770   4
   4  -2 -18 4.89828 6.39179   2
  -4   2  18 -17.465 10.4041   4
   4   2 -18 2.48228 6.97472   2
   2  -2 -18 2.13897 7.27269   2
  -2  -2  18 -2.6309 10.6390   4
  -2   2  18 -4.8097 10.5978   4
   2   2 -18 0.29026 7.68424   2
   0  -2  18 -5.9341 11.8321   4
   0  -2 -18 0.96249 7.22755   2
   0   2  18 -0.1299 11.0222   4
   0   2 -18 2.08313 7.97150   2
   2  -2  18 -18.546 12.2259   4
  -2  -2 -18 -1.4006 7.24672   2
   2   2  18 6.32375 12.8301   4
  -2   2 -18 -10.994 8.49264   2
  -4  -2 -18 -1.1989 8.28742   2
   4  -2  18 -15.824 14.2895   4
  -4   2 -18 -1.1950 8.63772   2
   4   2  18 12.7677 13.8995   4
  -6  -2 -18 11.9099 10.3855   2
  -6   2 -18 0.72432 9.12056   2
   6   2  18 -19.355 13.5473   4
  -8  -2 -18 -4.4541 11.0975   2
  -8   2 -18 -12.989 11.0045   2
   8   2  18 3.16018 15.4584   4
 -23  -3  18 5.28139 11.8230   4
  23  -3 -18 4.31063 8.72750   2
  23   3 -18 -5.9989 11.9601   3
 -23   3  18 -15.748 14.7289   4
 -21  -3  18 84.6635 15.0597   4
  21  -3 -18 94.5848 11.8479   2
 -21   3  18 80.4008 17.4040   4
  21   3 -18 110.097 14.7878   3
  19  -3 -18 58.6742 10.2831   2
 -19  -3  18 62.2960 13.3626   4
 -19   3  18 61.7323 16.6585   4
  19   3 -18 84.3354 12.3412   3
 -17  -3  18 -0.0313 12.0285   4
  17  -3 -18 14.2378 7.87217   2
  17   3 -18 12.5076 8.01975   2
  17   3 -18 15.0434 8.86243   3
 -17   3  18 14.1360 13.0837   4
  15  -3 -18 20.3564 7.26656   2
 -15  -3  18 -6.3820 10.6873   4
  15   3 -18 12.1447 6.50796   2
  15   3 -18 5.73043 7.76508   3
 -15   3  18 3.61201 12.5557   4
  13  -3 -18 284.535 18.3054   2
 -13  -3  18 232.678 21.3256   4
 -13   3  18 282.081 24.8214   4
  13   3 -18 226.779 17.5925   2
  13   3 -18 258.432 18.5738   3
  11  -3 -18 269.252 18.3965   2
 -11  -3  18 244.413 21.5386   4
 -11   3  18 195.850 21.6040   4
  11   3 -18 232.734 17.6523   2
  11   3 -18 261.258 17.5266   3
  -9  -3  18 18.8070 10.8719   4
   9  -3 -18 20.7758 6.77029   2
  -9   3  18 36.8009 11.9387   4
   9   3 -18 16.1561 6.75002   2
   9   3 -18 36.8402 6.94670   3
   7  -3 -18 -1.2578 5.79640   2
  -7  -3  18 -2.2238 10.1338   4
  -7   3  18 -6.2319 10.4318   4
   7   3 -18 1.93901 6.33538   2
   7   3 -18 -5.1619 5.55035   3
   5  -3 -18 90.0392 10.6846   2
  -5  -3  18 92.5687 14.5794   4
   5   3 -18 91.4926 9.64046   3
  -5   3  18 88.2638 14.1192   4
   5   3 -18 78.3697 10.3578   2
  -3  -3  18 92.5892 13.9221   4
   3  -3 -18 124.400 11.4910   2
  -3   3  18 100.463 16.0057   4
   3   3 -18 69.7668 10.1787   2
  -1  -3  18 137.846 16.8630   4
   1  -3 -18 130.476 12.8761   2
   1   3 -18 135.111 13.2756   2
  -1   3  18 137.454 16.9370   4
   1  -3  18 4.57718 14.0219   4
  -1  -3 -18 4.14813 8.45273   2
   1   3  18 12.7073 13.0041   4
  -1   3 -18 6.92204 9.01354   2
  -3  -3 -18 87.8720 11.9063   2
  -3   3 -18 60.7996 11.4815   2
   3   3  18 63.1669 14.3250   4
  -5  -3 -18 54.2412 10.8690   2
  -5   3 -18 50.6061 11.9351   2
   5   3  18 35.9083 14.4564   4
  -7  -3 -18 27.1530 10.5760   2
   7   3  18 21.9541 15.4918   4
  -7   3 -18 49.8022 12.4676   2
  24  -4 -18 8.18217 9.45950   2
  24   4 -18 -1.8135 13.7732   3
 -22  -4  18 62.6197 14.1747   4
  22  -4 -18 72.9259 11.5798   2
  22   4 -18 72.6160 15.2420   3
 -22   4  18 57.1599 17.0213   4
 -20  -4  18 37.2270 13.2889   4
  20  -4 -18 34.6399 9.54745   2
 -20   4  18 34.0439 16.0697   4
  20   4 -18 23.0448 11.9401   3
  18  -4 -18 59.2982 9.94705   2
 -18  -4  18 73.3698 14.9875   4
 -18   4  18 78.0310 16.2787   4
  18   4 -18 78.4299 12.3145   3
 -16  -4  18 163.882 17.3411   4
  16  -4 -18 140.598 14.1030   2
 -16   4  18 175.028 21.1099   4
 -14  -4  18 220.805 20.5765   4
  14  -4 -18 262.536 17.6589   2
  14   4 -18 217.952 17.8228   3
 -14   4  18 191.446 22.3926   4
 -12  -4  18 276.252 23.6825   4
  12  -4 -18 298.935 21.1874   2
 -12   4  18 235.983 24.4430   4
  12   4 -18 329.128 20.4237   2
  12   4 -18 334.101 21.6288   3
  10  -4 -18 113.616 10.9443   2
 -10  -4  18 124.783 14.9302   4
  10   4 -18 95.0089 10.8634   3
  10   4 -18 84.5324 10.0294   2
 -10   4  18 121.316 17.2900   4
  -8  -4  18 200.998 18.5303   4
   8  -4 -18 191.193 15.6945   2
   8   4 -18 167.371 14.7881   3
   8   4 -18 205.627 15.1786   2
  -8   4  18 184.978 19.4497   4
  -6  -4  18 148.055 16.6437   4
   6  -4 -18 162.094 13.9262   2
   6   4 -18 151.946 13.1162   3
  -6   4  18 124.849 17.1504   4
   6   4 -18 139.695 14.0541   2
  -4  -4  18 4.13814 9.82831   4
   4  -4 -18 2.94284 7.48110   2
   4   4 -18 -0.3263 7.33168   2
  -4   4  18 10.1489 11.5519   4
   4   4 -18 -0.1563 7.18523   3
  -2  -4  18 105.751 15.1464   4
  -2  -4  18 99.2609 11.8149   3
   2  -4 -18 142.208 13.3624   2
  -2   4  18 114.213 16.3758   4
   2   4 -18 120.907 12.6514   2
   0  -4 -18 233.695 18.9756   2
   0  -4  18 256.200 18.9837   3
   0  -4  18 247.646 20.6636   4
   0   4  18 178.679 22.0452   4
   0   4 -18 253.241 19.4376   2
  -2  -4 -18 90.5477 12.3002   2
   2  -4  18 75.2146 11.8853   3
  -2   4 -18 118.283 12.8410   2
   2   4  18 101.098 16.0609   4
   4  -4  18 19.1536 10.7475   3
  -4  -4 -18 9.05684 9.20257   2
   4   4  18 17.3617 13.6426   4
  -4   4 -18 15.4387 10.8055   2
  -6  -4 -18 64.4761 12.2121   2
  -6   4 -18 59.3255 12.3032   2
   6   4  18 44.6535 16.8857   4
 -21  -5  18 36.7159 14.2004   4
  21  -5 -18 40.3615 9.83004   2
  21   5 -18 47.7726 13.8301   3
 -21   5  18 4.33056 16.4841   4
  19  -5 -18 64.7514 10.3315   2
 -19  -5  18 83.8733 14.3428   4
  19   5 -18 74.7371 13.8491   3
 -19   5  18 47.9890 17.8417   4
  17  -5 -18 22.6874 9.17617   2
 -17  -5  18 40.0960 12.4063   4
  17   5 -18 15.2569 9.88264   3
 -17   5  18 22.9841 16.2181   4
  15  -5 -18 7.78118 8.43756   2
 -15  -5  18 6.04536 10.3462   4
  15   5 -18 4.21944 8.87470   3
 -15   5  18 -0.3623 14.1684   4
  13  -5 -18 82.5994 10.4835   2
 -13  -5  18 93.8224 14.3055   4
 -13   5  18 67.3676 15.3547   4
  13   5 -18 110.336 12.3417   3
  11  -5 -18 178.377 15.7124   2
 -11  -5  18 188.171 18.6096   4
 -11   5  18 264.514 22.6858   4
  -9  -5  18 11.1098 11.2089   4
   9  -5 -18 22.7023 7.85144   2
  -9   5  18 -0.5327 13.1025   4
   9   5 -18 11.7528 8.33331   3
   9   5 -18 10.4472 7.07642   2
  -7  -5  18 11.8759 10.0622   4
   7  -5 -18 -6.7427 6.58966   2
   7   5 -18 0.05011 7.65647   3
  -7   5  18 -6.6971 11.5746   4
   7   5 -18 2.95429 6.94277   2
  -5  -5  18 43.0553 12.2481   4
   5  -5 -18 44.5043 8.82647   2
   5   5 -18 62.2638 9.63894   2
   5   5 -18 66.5538 11.5853   3
  -5   5  18 62.8854 14.0966   4
  -3  -5  18 28.0395 9.35037   3
   3  -5 -18 20.0345 8.47859   2
  -3  -5  18 41.3031 11.7324   4
  -3   5  18 16.0430 12.7296   4
   3   5 -18 46.4252 9.55613   2
   1  -5 -18 37.0603 8.74646   2
  -1  -5  18 35.0359 9.90537   3
  -1  -5  18 38.1471 11.6074   4
  -1   5  18 33.7761 14.8547   4
   1   5 -18 30.2578 9.66057   2
   1  -5  18 35.6403 10.3094   3
  -1  -5 -18 22.1196 9.59219   2
   1   5  18 7.26145 13.2705   4
  -1   5 -18 28.7164 10.1731   2
  -3  -5 -18 39.6059 9.84086   2
   3  -5  18 32.7527 11.6644   3
   3   5  18 70.4124 17.2045   4
  -3   5 -18 45.0349 11.3123   2
   5  -5  18 -8.4418 11.7469   3
  -5  -5 -18 3.27005 10.4609   2
   5   5  18 -0.5975 15.8421   4
  -5   5 -18 19.4011 10.6177   2
 -20  -6  18 8.02653 20.8526   4
  20   6 -18 12.3457 13.5870   3
 -20   6  18 -6.3892 16.9771   4
  18  -6 -18 15.4093 8.32163   2
 -18  -6  18 17.8138 11.7860   4
  18   6 -18 4.14627 11.2603   3
 -18   6  18 -13.136 16.6903   4
 -16  -6  18 -4.2331 11.9040   4
  16  -6 -18 -3.6384 7.67903   2
 -16   6  18 -7.9348 14.7634   4
  16   6 -18 7.26813 10.7635   3
  14  -6 -18 7.16936 7.41633   2
 -14  -6  18 2.23552 11.5592   4
 -14   6  18 -12.340 12.5263   4
  14   6 -18 1.67679 9.60732   3
 -12  -6  18 30.9230 12.1238   4
  12  -6 -18 28.9332 9.01741   2
  12   6 -18 38.0421 10.2905   3
 -12   6  18 30.8597 14.9358   4
  10  -6 -18 32.3621 8.64205   2
 -10  -6  18 51.6732 12.9014   4
 -10   6  18 20.0936 14.6279   4
  10   6 -18 46.0142 10.3740   3
  -8  -6  18 34.9449 11.8429   4
   8  -6 -18 8.74079 7.51671   2
  -8   6  18 20.7530 13.3026   4
   8   6 -18 16.3133 9.24981   3
   6  -6 -18 10.8692 7.70069   2
  -6  -6  18 -7.2085 10.4333   4
   6   6 -18 4.30600 7.55395   2
   6   6 -18 -1.6656 9.24382   3
  -6   6  18 7.48736 12.6447   4
   4  -6 -18 11.5093 7.73760   2
  -4  -6  18 20.0421 11.3125   4
  -4   6  18 -8.2230 13.3785   4
   4   6 -18 9.34368 8.37722   2
   4   6 -18 1.44959 9.00971   3
  -2  -6  18 -1.3646 10.8202   4
   2  -6 -18 13.3892 8.63852   2
  -2  -6  18 4.47538 9.79471   3
  -2   6  18 7.48839 13.4391   4
   2   6 -18 -8.0891 8.51077   2
   0  -6  18 4.55160 9.75027   3
   0  -6 -18 8.49600 9.14043   2
   0   6  18 -13.015 14.4709   4
   0   6 -18 -1.9564 9.26876   2
  -2  -6 -18 2.99514 9.49836   2
   2  -6  18 -10.118 10.4820   3
  -2   6 -18 26.9279 10.8691   2
   2   6  18 2.31349 15.9563   4
   4  -6  18 1.54264 12.3043   3
  -4  -6 -18 -1.3924 10.3124   2
   4   6  18 6.43266 17.0814   4
  -4   6 -18 -11.526 10.9951   2
 -17  -7  18 28.4497 14.2847   4
  17  -7 -18 8.24315 10.1483   2
  17   7 -18 8.94247 12.9670   3
 -17   7  18 8.74436 17.2902   4
 -15  -7  18 17.7691 12.2767   4
  15  -7 -18 18.8339 9.98154   2
 -15   7  18 9.36956 16.2442   4
  15   7 -18 18.4462 12.3233   3
 -13  -7  18 114.667 16.4885   4
  13  -7 -18 113.821 13.1083   2
 -13   7  18 108.390 19.4691   4
  13   7 -18 117.210 15.5285   3
 -11  -7  18 35.5716 12.8163   4
  11  -7 -18 46.8160 10.3555   2
 -11   7  18 5.33121 15.3076   4
  11   7 -18 23.9093 10.4721   3
   9  -7 -18 1.60733 8.82900   2
  -9  -7  18 18.4873 12.2030   4
  -9   7  18 -0.6271 14.4784   4
   9   7 -18 8.73211 10.7249   3
  -7  -7  18 23.8028 11.8951   4
   7  -7 -18 32.5726 9.65285   2
   7   7 -18 21.8616 11.2154   3
  -7   7  18 30.5979 16.0603   4
  -5  -7  18 11.0641 10.7505   4
   5  -7 -18 4.11293 8.26550   2
   5   7 -18 8.96308 10.8312   3
  -5   7  18 -13.943 14.3573   4
  -3  -7  18 16.3647 11.4576   4
   3  -7 -18 6.41968 8.34051   2
   3   7 -18 0.55237 11.2059   3
   3   7 -18 -6.9194 9.01465   2
  -3   7  18 -16.697 13.3563   4
  -1  -7  18 89.5703 14.2203   3
   1  -7 -18 103.910 13.4112   2
  -1   7  18 95.0747 18.0087   4
   1   7 -18 99.1855 13.3979   2
  -1  -7 -18 28.4517 10.9684   2
   1  -7  18 17.2933 12.3864   3
  -1   7 -18 20.9030 10.5707   2
   1   7  18 38.9167 27.7397   4
 -14  -8  18 51.1769 22.4947   4
  14   8 -18 13.2292 13.3470   3
 -14   8  18 15.9493 17.2078   4
  12  -8 -18 136.172 14.4752   2
 -12  -8  18 119.518 17.9001   4
 -12   8  18 126.160 21.3595   4
  12   8 -18 150.418 17.7119   3
  10  -8 -18 88.8251 12.6183   2
 -10  -8  18 75.3278 15.2680   4
 -10   8  18 54.5593 18.5937   4
  10   8 -18 71.6577 14.5420   3
  -8  -8  18 10.6072 11.6121   4
   8  -8 -18 3.51999 8.58966   2
  -8   8  18 13.8754 15.5174   4
   8   8 -18 1.30040 10.2931   3
   6  -8 -18 23.2885 9.16491   2
  -6  -8  18 29.4672 12.8178   4
   6   8 -18 16.6294 12.3573   3
  -6   8  18 -0.9315 15.1725   4
  -4  -8  18 27.4052 13.1235   4
   4  -8 -18 19.6896 9.11845   2
   4   8 -18 14.8571 12.9900   3
   2  -8 -18 25.4913 10.9391   2
 -24   0  19 -5.1679 14.6102   4
  24   0 -19 -7.1219 8.55464   2
 -22   0  19 -14.332 13.5677   4
  22   0 -19 2.85274 8.07622   2
 -20   0  19 -8.8061 11.6442   4
  20   0 -19 1.06705 7.81322   2
  18   0 -19 0.40835 7.00537   2
 -18   0  19 -15.453 10.9351   4
  16   0 -19 3.12944 7.16195   2
 -16   0  19 16.5046 12.3803   4
 -14   0  19 -0.3904 12.0144   4
  14   0 -19 -0.1479 5.96096   2
 -12   0  19 -5.7759 13.1687   4
  12   0 -19 -3.1430 5.76118   2
  10   0 -19 2.24856 6.03344   2
 -10   0  19 11.2948 13.6716   4
  -8   0  19 -10.812 11.4254   4
   8   0 -19 4.76553 6.99540   2
  -6   0  19 -14.724 11.3311   4
   6   0 -19 1.65690 6.38273   2
   4   0 -19 1.77193 6.79043   2
  -4   0  19 -7.9998 11.3521   4
   2   0 -19 -5.5746 6.92037   2
  -2   0  19 3.06558 11.5270   4
   0   0  19 8.22998 13.4511   4
   0   0 -19 -6.0669 7.19400   2
  -2   0 -19 10.7773 8.18858   2
   2   0  19 -4.5306 12.7563   4
   4   0  19 -11.878 14.0749   4
  -4   0 -19 9.84205 9.91432   2
  -6   0 -19 3.85730 9.87012   2
  -8   0 -19 5.85567 11.2162   2
 -25  -1  19 10.0720 15.3235   4
  25  -1 -19 15.3188 10.2136   2
 -25   1  19 -5.0084 14.5472   4
  23  -1 -19 32.4936 9.95321   2
 -23  -1  19 22.1496 12.5765   4
 -23   1  19 18.3906 14.6597   4
  21  -1 -19 52.5778 10.1391   2
 -21  -1  19 78.2614 14.6550   4
  21   1 -19 74.8623 10.3597   2
 -21   1  19 53.1032 14.5710   4
 -19  -1  19 42.7030 13.3769   4
  19  -1 -19 42.6847 9.33388   2
  19   1 -19 48.8542 9.16988   2
 -19   1  19 48.7714 14.3367   4
 -17  -1  19 11.1631 12.8262   4
  17  -1 -19 24.3077 7.54368   2
  17   1 -19 28.9635 8.12891   2
 -17   1  19 39.4134 14.6269   4
 -15  -1  19 16.0855 11.8470   4
  15  -1 -19 19.3873 7.57273   2
  15   1 -19 38.5650 7.88080   2
 -15   1  19 24.2809 13.2641   4
  13  -1 -19 172.855 14.1893   2
 -13  -1  19 143.681 17.7000   4
 -13   1  19 170.626 20.3953   4
  13   1 -19 174.935 14.0819   2
  11  -1 -19 150.294 13.7557   2
 -11  -1  19 177.024 19.2232   4
  11   1 -19 190.082 14.5336   2
 -11   1  19 167.986 19.5100   4
  -9  -1  19 29.1389 12.6130   4
   9  -1 -19 25.8032 7.30858   2
   9   1 -19 40.8030 7.53896   2
  -9   1  19 17.0040 12.2815   4
   7  -1 -19 22.1699 7.58976   2
  -7  -1  19 25.0494 13.3738   4
   7   1 -19 5.61528 7.30107   2
  -7   1  19 11.1843 13.4335   4
   5  -1 -19 33.2419 7.78867   2
  -5  -1  19 25.5661 13.6047   4
   5   1 -19 26.3539 8.26264   2
  -5   1  19 20.6130 12.2515   4
  -3  -1  19 24.8885 12.4796   4
   3  -1 -19 24.7440 8.67219   2
   3   1 -19 34.0039 8.86803   2
  -3   1  19 22.9022 12.4953   4
   1  -1 -19 118.071 13.0203   2
  -1  -1  19 94.0561 17.0254   4
  -1   1  19 131.205 16.7145   4
   1   1 -19 121.700 12.5378   2
  -1  -1 -19 72.7291 11.1312   2
   1  -1  19 46.8211 14.6142   4
  -1   1 -19 67.8157 10.4515   2
   1   1  19 32.4968 13.3132   4
   3  -1  19 18.0611 14.5904   4
  -3  -1 -19 11.3861 10.2166   2
  -3   1 -19 30.9374 9.52563   2
   3   1  19 30.0775 14.4375   4
  -5  -1 -19 20.7517 9.96489   2
   5   1  19 13.6922 14.9585   4
  -5   1 -19 27.4202 10.6540   2
  -7  -1 -19 107.871 14.1570   2
  -7   1 -19 73.5537 14.2535   2
 -24  -2  19 18.2643 12.9040   4
  24  -2 -19 -2.8421 8.33437   2
 -24   2  19 29.8688 15.7691   4
  22  -2 -19 36.4470 10.0712   2
 -22  -2  19 29.1181 14.0704   4
 -22   2  19 38.6760 15.6084   4
  20  -2 -19 65.4100 10.1247   2
 -20  -2  19 60.4962 14.0288   4
 -20   2  19 76.0584 17.0326   4
 -18  -2  19 4.15980 11.6410   4
  18  -2 -19 25.6537 8.40646   2
 -18   2  19 -12.994 13.1740   4
  18   2 -19 33.1283 8.00141   2
 -16  -2  19 45.8138 14.0201   4
  16  -2 -19 47.2289 9.13918   2
 -16   2  19 61.5503 15.1829   4
  14  -2 -19 298.452 21.2749   2
 -14  -2  19 345.186 26.0551   4
 -14   2  19 316.960 27.0932   4
  12  -2 -19 108.465 11.9657   2
 -12  -2  19 118.636 16.4154   4
 -12   2  19 121.597 17.1186   4
 -10  -2  19 112.856 16.8369   4
  10  -2 -19 120.315 11.9556   2
  10   2 -19 126.455 11.6211   2
 -10   2  19 84.7310 15.6669   4
   8  -2 -19 216.632 16.9679   2
  -8  -2  19 218.354 21.1028   4
   8   2 -19 261.848 16.9312   2
  -8   2  19 195.623 20.9838   4
  -6  -2  19 19.2681 12.1045   4
   6  -2 -19 27.7759 8.51891   2
  -6   2  19 -2.5948 11.2842   4
   6   2 -19 30.2640 7.67162   2
  -4  -2  19 -2.5976 12.7954   4
   4  -2 -19 -8.3469 7.32290   2
  -4   2  19 1.83085 11.5341   4
   4   2 -19 11.1407 7.79898   2
  -2  -2  19 182.091 19.7661   4
   2  -2 -19 153.234 14.7492   2
  -2   2  19 189.028 20.5425   4
   2   2 -19 190.565 15.8685   2
   0  -2  19 105.445 17.3264   4
   0  -2 -19 129.538 13.0469   2
   0   2  19 111.318 17.6371   4
   0   2 -19 121.916 13.8424   2
   2  -2  19 -2.4527 14.1205   4
  -2  -2 -19 20.8408 8.84216   2
   2   2  19 24.5658 13.8811   4
  -2   2 -19 25.6053 9.69806   2
  -4  -2 -19 22.5250 10.7768   2
  -4   2 -19 56.5005 11.9224   2
   4   2  19 19.8786 14.6613   4
  -6  -2 -19 34.1546 12.2724   2
   6   2  19 25.0262 16.0604   4
  -6   2 -19 57.5618 12.0065   2
  23  -3 -19 46.8794 10.2404   2
 -23  -3  19 42.2400 15.4120   4
 -23   3  19 85.4654 18.3635   4
 -21  -3  19 14.8671 14.0380   4
  21  -3 -19 29.9900 8.83257   2
 -21   3  19 -5.4273 15.6450   4
  19  -3 -19 13.9923 8.64240   2
 -19  -3  19 3.80134 11.7835   4
 -19   3  19 3.19706 15.4728   4
  17  -3 -19 101.982 11.3958   2
 -17  -3  19 103.304 15.8367   4
 -17   3  19 90.5392 16.9704   4
 -15  -3  19 -1.2674 10.9975   4
  15  -3 -19 17.4825 8.27388   2
  15   3 -19 6.82464 6.90795   2
 -15   3  19 5.82499 15.3126   4
  13  -3 -19 96.0171 11.7058   2
 -13  -3  19 101.354 15.7142   4
  13   3 -19 95.2052 10.4650   2
 -13   3  19 88.6255 16.2845   4
  11  -3 -19 113.384 11.6343   2
 -11  -3  19 146.118 16.3013   4
 -11   3  19 103.690 17.1478   4
  11   3 -19 106.975 11.1630   2
   9  -3 -19 70.5379 9.97007   2
  -9  -3  19 102.036 14.9487   4
   9   3 -19 63.3648 9.35159   2
  -9   3  19 36.4451 15.0526   4
  -7  -3  19 21.5945 12.2870   4
   7  -3 -19 0.30197 6.55794   2
   7   3 -19 -5.1811 6.84384   2
  -7   3  19 -2.0116 11.4902   4
  -5  -3  19 13.4720 12.4263   4
   5  -3 -19 11.1804 7.90231   2
  -5   3  19 22.6402 12.4817   4
   5   3 -19 19.4174 8.24779   2
  -3  -3  19 86.1002 15.5380   4
   3  -3 -19 85.9963 11.5234   2
   3   3 -19 108.412 11.9069   2
  -3   3  19 81.4645 15.2094   4
   1  -3 -19 23.4433 8.40921   2
  -1  -3  19 28.2744 12.7196   4
  -1   3  19 12.0958 12.5911   4
   1   3 -19 18.5620 8.39450   2
   1  -3  19 23.2825 13.5647   4
  -1  -3 -19 34.6329 9.47389   2
   1   3  19 28.6578 13.1732   4
  -1   3 -19 33.3371 9.56726   2
  -3  -3 -19 34.3044 10.6077   2
  -3   3 -19 37.4836 10.4652   2
   3   3  19 -1.4547 14.6452   4
  -5  -3 -19 16.4619 9.80389   2
  -5   3 -19 21.0200 11.5226   2
   5   3  19 28.9728 14.7313   4
  22  -4 -19 9.62572 8.70039   2
 -22  -4  19 -3.8312 13.3149   4
  22   4 -19 -8.3495 13.3121   3
 -22   4  19 7.33849 16.4104   4
 -20  -4  19 3.28421 12.2246   4
  20  -4 -19 3.48163 8.10271   2
  20   4 -19 -18.846 11.1912   3
 -20   4  19 8.66660 17.1583   4
  18  -4 -19 -0.0796 7.51442   2
 -18  -4  19 15.4685 12.9496   4
  18   4 -19 2.95510 10.3306   3
 -18   4  19 15.4484 14.7684   4
 -16  -4  19 -1.0872 10.7970   4
  16  -4 -19 -13.191 7.70732   2
 -16   4  19 -12.396 13.5439   4
  14  -4 -19 -2.1358 6.82972   2
 -14  -4  19 2.06026 10.7912   4
  14   4 -19 -4.7317 7.97305   3
 -14   4  19 -7.4809 12.8724   4
  12  -4 -19 36.7164 8.27667   2
 -12  -4  19 29.6781 12.8464   4
  12   4 -19 42.3649 9.26684   3
  12   4 -19 34.9367 7.83164   2
 -12   4  19 16.8782 14.9912   4
 -10  -4  19 26.4528 12.4167   4
  10  -4 -19 16.3691 7.87988   2
  10   4 -19 11.2588 8.05116   3
  10   4 -19 18.1631 7.39441   2
 -10   4  19 1.23219 12.5266   4
  -8  -4  19 14.2052 12.2587   4
   8  -4 -19 12.2625 7.20655   2
   8   4 -19 4.56771 7.73292   3
   8   4 -19 6.88373 7.28429   2
  -8   4  19 2.09045 11.9473   4
  -6  -4  19 -9.1887 11.3065   4
   6  -4 -19 9.26737 8.35616   2
   6   4 -19 1.35774 8.17365   3
   6   4 -19 -1.9012 7.18947   2
  -6   4  19 -1.3711 11.9900   4
   4  -4 -19 -6.6480 7.81107   2
  -4  -4  19 -1.9958 11.7034   4
   4   4 -19 0.60247 7.82085   2
  -4   4  19 9.85953 13.6457   4
  -2  -4  19 17.3060 12.3835   4
   2  -4 -19 1.00574 7.70531   2
  -2   4  19 0.61927 12.4523   4
   2   4 -19 5.36830 7.69761   2
   0  -4  19 -1.7005 12.2355   4
   0  -4 -19 0.77575 8.87420   2
   0   4  19 -1.8386 14.0184   4
   0   4 -19 -9.9542 7.89916   2
  -2  -4 -19 16.1052 9.85524   2
  -2   4 -19 3.13939 9.30323   2
   2   4  19 -18.849 14.1844   4
  -4  -4 -19 8.01437 9.49693   2
   4   4  19 -22.067 14.8384   4
  -4   4 -19 -6.6614 10.7002   2
  21  -5 -19 88.6468 14.2542   2
 -21   5  19 83.2758 20.9121   4
  21   5 -19 79.9868 16.1296   3
 -19  -5  19 -0.2573 12.8533   4
  19  -5 -19 42.3934 9.86751   2
  19   5 -19 9.18896 12.2291   3
 -19   5  19 1.60105 17.1276   4
  17  -5 -19 45.9944 10.2351   2
 -17  -5  19 43.1189 13.8343   4
 -17   5  19 10.9598 15.2553   4
  17   5 -19 36.8795 11.3961   3
 -15  -5  19 88.9599 14.9324   4
  15  -5 -19 116.108 11.7750   2
  15   5 -19 79.6005 12.6554   3
 -15   5  19 89.5686 18.7017   4
 -13  -5  19 133.251 16.7980   4
  13  -5 -19 141.643 14.1567   2
  13   5 -19 151.046 14.9578   3
 -13   5  19 146.576 20.2647   4
 -11  -5  19 61.4686 13.6108   4
  11  -5 -19 25.7616 8.05867   2
 -11   5  19 12.5681 14.7386   4
  11   5 -19 42.8168 9.97157   3
   9  -5 -19 136.571 13.9812   2
  -9  -5  19 185.566 18.7441   4
  -9   5  19 169.120 20.7110   4
  -7  -5  19 15.1048 10.8582   4
   7  -5 -19 14.1822 8.56849   2
   7   5 -19 10.5550 9.29410   3
  -7   5  19 2.86300 13.1870   4
   7   5 -19 11.0381 7.86815   2
   5  -5 -19 5.86283 8.64294   2
  -5  -5  19 5.89711 11.8099   4
  -5   5  19 9.99081 13.9763   4
   5   5 -19 -1.9733 8.59451   3
   5   5 -19 -0.2757 7.70542   2
  -3  -5  19 75.1206 13.8905   4
   3  -5 -19 38.6257 9.25760   2
   3   5 -19 38.5933 10.4386   3
  -3   5  19 22.4165 13.8216   4
   3   5 -19 51.8399 9.94635   2
  -1  -5  19 174.466 16.3496   3
  -1  -5  19 161.239 17.4823   4
   1  -5 -19 140.541 15.2165   2
  -1   5  19 154.401 20.4743   4
   1   5 -19 122.396 14.9113   2
  -1  -5 -19 45.3105 11.3282   2
   1   5  19 59.9172 17.7570   4
  -1   5 -19 24.9170 11.0170   2
  -3  -5 -19 29.9521 10.8586   2
   3   5  19 22.0185 16.7024   4
  -3   5 -19 15.8424 11.1391   2
 -18  -6  19 54.3802 15.2738   4
  18  -6 -19 60.9584 11.0392   2
 -18   6  19 59.6133 17.5533   4
  18   6 -19 40.2272 12.8112   3
  16  -6 -19 37.3650 9.58441   2
 -16  -6  19 53.7966 14.5936   4
  16   6 -19 40.3076 12.6060   3
 -16   6  19 29.3347 15.6815   4
 -14  -6  19 105.150 15.1448   4
  14  -6 -19 88.2312 11.8876   2
  14   6 -19 91.6195 13.8504   3
 -14   6  19 108.416 18.2930   4
 -12  -6  19 164.415 18.8514   4
  12  -6 -19 167.846 15.6646   2
  12   6 -19 170.588 16.7848   3
 -12   6  19 140.440 20.8370   4
  10  -6 -19 113.824 12.6237   2
 -10  -6  19 110.211 15.3048   4
  10   6 -19 120.941 13.9073   3
 -10   6  19 90.6485 17.0525   4
   8  -6 -19 89.9897 11.9126   2
  -8  -6  19 72.3076 13.4394   4
  -8   6  19 87.4854 18.3406   4
   8   6 -19 74.3556 12.3558   3
  -6  -6  19 11.3684 11.8817   4
   6  -6 -19 -0.2148 7.91531   2
   6   6 -19 8.23586 10.1439   3
  -6   6  19 3.47359 15.0632   4
   6   6 -19 2.57978 8.36558   2
  -4  -6  19 60.8450 13.0768   4
   4  -6 -19 35.3079 10.4737   2
  -4   6  19 35.9050 16.6071   4
   4   6 -19 48.4178 11.6829   3
   4   6 -19 30.8674 9.90176   2
  -2  -6  19 177.101 17.4897   4
   2  -6 -19 150.033 15.3072   2
  -2  -6  19 145.890 15.1951   3
  -2   6  19 106.851 19.0845   4
   2   6 -19 122.528 14.2571   2
   0  -6 -19 16.4364 10.2515   2
   0  -6  19 15.5882 11.3589   3
   0   6 -19 42.9052 11.4691   2
   0   6  19 15.5430 15.6523   4
  -2  -6 -19 26.8978 10.8750   2
   2  -6  19 32.7000 12.6640   3
   2   6  19 22.8855 18.4457   4
  -2   6 -19 24.8478 10.5860   2
 -15  -7  19 55.7667 14.4626   4
  15  -7 -19 55.0894 13.5470   2
  15   7 -19 62.1506 14.1190   3
 -15   7  19 22.4829 17.9235   4
 -13  -7  19 -2.9952 11.2999   4
  13  -7 -19 32.2727 10.4338   2
  13   7 -19 17.7654 11.7083   3
 -13   7  19 17.9601 16.9293   4
  11  -7 -19 14.1992 9.79288   2
 -11  -7  19 19.4499 13.1380   4
 -11   7  19 -2.9680 14.8927   4
  11   7 -19 15.0812 11.6251   3
   9  -7 -19 29.3648 10.1375   2
  -9  -7  19 16.4086 11.3619   4
   9   7 -19 14.4714 11.7734   3
  -9   7  19 9.48574 15.0280   4
   7  -7 -19 22.1150 9.31413   2
  -7  -7  19 13.0797 11.7718   4
   7   7 -19 25.0816 11.8625   3
  -7   7  19 5.18689 15.1246   4
  -5  -7  19 -0.3924 12.1281   4
   5  -7 -19 9.75210 8.99300   2
  -5   7  19 16.2989 17.0945   4
   5   7 -19 12.1968 12.0926   3
   3  -7 -19 0.12196 9.69322   2
  -3  -7  19 12.5280 12.5148   4
   3   7 -19 -1.9604 11.1789   3
  -3   7  19 -12.872 14.9223   4
   1  -7 -19 18.1826 9.84287   2
  -1  -7  19 13.2106 12.3446   3
  -1   7  19 16.4435 16.3124   4
   1   7 -19 21.3882 11.4456   2
 -24   0  20 35.5253 16.4749   4
  24   0 -20 5.93367 9.81124   2
 -22   0  20 133.003 19.1939   4
  22   0 -20 136.919 13.7714   2
  20   0 -20 58.0131 9.75997   2
 -20   0  20 16.5329 14.7901   4
 -18   0  20 2.39745 12.4130   4
  18   0 -20 12.1996 7.49443   2
  16   0 -20 112.594 11.6329   2
 -16   0  20 132.313 17.8493   4
 -14   0  20 405.568 31.9042   4
  14   0 -20 416.811 26.3011   2
  12   0 -20 31.7225 7.71659   2
 -12   0  20 19.2603 13.4608   4
 -10   0  20 207.907 22.3649   4
  10   0 -20 257.891 18.6063   2
   8   0 -20 325.801 22.1132   2
  -8   0  20 292.096 26.3355   4
  -6   0  20 72.4933 15.6254   4
   6   0 -20 74.0674 9.88804   2
   4   0 -20 203.207 16.6964   2
  -4   0  20 184.822 21.4090   4
   2   0 -20 149.666 14.4594   2
  -2   0  20 179.104 20.8925   4
   0   0  20 78.7679 17.4205   4
   0   0 -20 108.098 12.9316   2
  -2   0 -20 229.632 18.5471   2
   2   0  20 173.861 21.9552   4
   4   0  20 250.722 25.7508   4
  -4   0 -20 285.796 22.8067   2
  -6   0 -20 84.5000 15.7099   2
  23  -1 -20 6.78224 9.62153   2
 -23  -1  20 23.3058 13.6902   4
 -23   1  20 33.9815 16.2489   4
 -21  -1  20 -0.7156 12.6245   4
  21  -1 -20 12.9243 9.40351   2
 -21   1  20 21.0581 15.2098   4
  21   1 -20 8.99800 8.91878   2
  19  -1 -20 69.9879 10.6445   2
 -19  -1  20 57.2226 15.3274   4
 -19   1  20 49.1663 14.9715   4
  19   1 -20 51.7808 9.73881   2
  17  -1 -20 108.721 12.1423   2
 -17  -1  20 140.327 18.7812   4
 -17   1  20 88.9566 18.2290   4
  17   1 -20 130.210 12.4177   2
  15  -1 -20 2.98458 6.89725   2
 -15  -1  20 1.30680 12.0240   4
 -15   1  20 -8.1022 13.1621   4
  15   1 -20 0.30416 7.16271   2
  13  -1 -20 48.8434 9.11625   2
 -13  -1  20 58.0305 14.5456   4
  13   1 -20 38.8972 8.31126   2
 -13   1  20 4.97165 13.3824   4
 -11  -1  20 145.526 19.4148   4
  11  -1 -20 152.707 13.6891   2
 -11   1  20 155.854 19.0898   4
  11   1 -20 171.235 14.2299   2
  -9  -1  20 78.0080 16.1700   4
   9  -1 -20 47.2728 9.32509   2
   9   1 -20 63.5588 9.03344   2
  -9   1  20 61.0538 16.1514   4
   7  -1 -20 14.3971 7.99664   2
  -7  -1  20 -1.6236 13.6060   4
   7   1 -20 1.62217 7.37672   2
  -7   1  20 -14.460 13.8498   4
   5  -1 -20 28.6317 8.30869   2
  -5  -1  20 14.0588 14.5273   4
   5   1 -20 27.0246 8.13336   2
  -5   1  20 24.0653 15.0105   4
   3  -1 -20 37.8790 8.93418   2
  -3  -1  20 35.1721 15.0937   4
   3   1 -20 55.0215 10.2167   2
  -3   1  20 44.3434 14.0004   4
  -1  -1  20 94.8454 17.4069   4
   1  -1 -20 96.9602 11.7596   2
  -1   1  20 85.3900 17.1923   4
   1   1 -20 93.6150 12.0874   2
  -1  -1 -20 78.5012 11.5315   2
   1  -1  20 66.6668 17.1404   4
  -1   1 -20 63.4208 11.2247   2
   1   1  20 69.4190 16.8422   4
   3  -1  20 -4.7472 15.1407   4
  -3  -1 -20 13.1210 9.72978   2
  -3   1 -20 6.10281 9.43318   2
   3   1  20 19.2425 15.3211   4
  -5  -1 -20 40.3909 11.5562   2
  -5   1 -20 32.0904 12.1622   2
   5   1  20 58.5975 17.7393   4
  24  -2 -20 3.61896 9.96481   2
 -22  -2  20 0.82374 14.0668   4
  22  -2 -20 1.41521 9.15129   2
 -22   2  20 -7.3497 15.6228   4
  20  -2 -20 16.1249 8.73506   2
 -20  -2  20 6.96221 12.0691   4
 -20   2  20 -3.0882 15.6556   4
  18  -2 -20 11.6259 8.45940   2
 -18  -2  20 14.8218 14.2701   4
  18   2 -20 4.25322 7.81117   2
 -18   2  20 1.84975 14.1628   4
  16  -2 -20 11.5168 7.45429   2
 -16  -2  20 -31.564 10.6928   4
 -16   2  20 -4.8062 13.6220   4
  16   2 -20 3.76885 7.12729   2
  14  -2 -20 30.5487 8.56111   2
 -14  -2  20 2.67994 12.6103   4
 -14   2  20 21.3008 15.8620   4
  14   2 -20 10.1317 7.08665   2
  12  -2 -20 6.51749 7.20455   2
 -12  -2  20 20.7192 12.2730   4
 -12   2  20 24.2576 14.5269   4
  12   2 -20 6.25150 7.28248   2
 -10  -2  20 -3.7346 13.2826   4
  10  -2 -20 4.33055 7.73058   2
 -10   2  20 14.3211 13.9985   4
  10   2 -20 16.3542 7.71324   2
   8  -2 -20 11.6622 7.71416   2
  -8  -2  20 3.59276 11.9761   4
  -8   2  20 11.1364 14.3004   4
   8   2 -20 -3.2664 6.36711   2
  -6  -2  20 27.8696 14.1751   4
   6  -2 -20 1.52870 7.71527   2
   6   2 -20 17.9904 8.23225   2
  -6   2  20 -13.105 12.1871   4
   4  -2 -20 -3.6588 8.22776   2
  -4  -2  20 -16.821 12.5611   4
  -4   2  20 2.66180 12.6077   4
   4   2 -20 -3.9992 7.98626   2
   2  -2 -20 7.21970 8.18696   2
  -2  -2  20 -12.779 13.6814   4
  -2   2  20 0.04515 12.5923   4
   2   2 -20 13.7947 8.39643   2
   0  -2  20 -14.306 14.1022   4
   0  -2 -20 5.07957 8.46892   2
   0   2  20 -11.663 14.2705   4
   0   2 -20 -3.2091 9.15284   2
   2  -2  20 4.99619 14.9313   4
  -2  -2 -20 6.40094 9.85572   2
   2   2  20 -3.4579 13.6590   4
  -2   2 -20 7.04265 10.1224   2
  -4  -2 -20 11.8546 10.3247   2
  -4   2 -20 -6.3887 9.73773   2
   4   2  20 -28.617 15.6096   4
 -23  -3  20 22.0104 14.0013   4
  23  -3 -20 22.5795 10.5943   2
 -23   3  20 37.6002 17.8390   4
 -21  -3  20 41.1806 15.7244   4
  21  -3 -20 72.9791 10.8450   2
 -21   3  20 32.1497 17.9415   4
  19  -3 -20 15.9974 9.06420   2
 -19  -3  20 8.48932 12.3275   4
 -19   3  20 8.58515 16.9967   4
  17  -3 -20 20.0417 9.05841   2
 -17  -3  20 36.9358 12.6619   4
 -17   3  20 -12.165 14.1861   4
  15  -3 -20 58.4586 9.97101   2
 -15  -3  20 72.4743 15.3382   4
  15   3 -20 58.6229 9.47314   2
 -15   3  20 52.8071 15.9711   4
  13  -3 -20 64.5999 10.2348   2
 -13  -3  20 69.7740 15.4365   4
 -13   3  20 62.6540 16.1145   4
  13   3 -20 42.3537 9.16222   2
 -11  -3  20 38.8216 12.8266   4
  11  -3 -20 31.1588 9.37204   2
 -11   3  20 34.8210 15.7623   4
  11   3 -20 41.2850 8.64489   2
  -9  -3  20 70.8999 14.7633   4
   9  -3 -20 131.170 12.1978   2
   9   3 -20 109.938 11.6164   2
  -9   3  20 99.0516 16.6562   4
   7  -3 -20 -6.2154 7.21681   2
  -7  -3  20 8.04139 11.5971   4
   7   3 -20 11.7138 8.41293   2
  -7   3  20 14.4368 14.2814   4
   5  -3 -20 48.9731 10.0132   2
  -5  -3  20 39.4930 13.5387   4
   5   3 -20 49.2855 9.73651   2
  -5   3  20 60.2596 15.7391   4
  -3  -3  20 32.7835 14.2311   4
   3  -3 -20 25.2175 8.55108   2
   3   3 -20 30.9838 9.59932   2
  -3   3  20 9.09139 13.4527   4
  -1  -3  20 69.0011 15.2347   4
   1  -3 -20 36.4423 10.4946   2
   1   3 -20 64.4258 11.2296   2
  -1   3  20 66.2712 15.6085   4
  -1  -3 -20 75.9736 12.5357   2
   1  -3  20 58.3164 16.3920   4
   1   3  20 76.3260 16.8228   4
  -1   3 -20 95.0886 13.1252   2
  -3  -3 -20 36.4666 11.7422   2
   3   3  20 37.6194 15.8505   4
  -3   3 -20 63.1022 12.1361   2
  -5   3 -20 27.4766 14.1543   2
 -22  -4  20 16.8926 14.9896   4
  22  -4 -20 8.48631 10.5788   2
 -22   4  20 11.2253 17.6562   4
 -20  -4  20 44.5722 14.0014   4
  20  -4 -20 46.6989 10.2843   2
 -20   4  20 34.3301 18.3677   4
 -18  -4  20 75.4374 15.4888   4
  18  -4 -20 59.3633 10.5552   2
 -18   4  20 64.1864 18.9113   4
  16  -4 -20 37.2500 8.82876   2
 -16  -4  20 33.8205 13.9761   4
 -16   4  20 37.6289 16.1432   4
 -14  -4  20 102.299 15.6972   4
  14  -4 -20 78.9960 10.9627   2
 -14   4  20 79.4336 18.4556   4
 -12  -4  20 68.1816 14.8342   4
  12  -4 -20 63.1077 10.5197   2
 -12   4  20 54.4059 17.1883   4
  12   4 -20 89.1784 10.5242   2
  10  -4 -20 156.639 14.8916   2
 -10  -4  20 144.762 17.6652   4
 -10   4  20 157.478 19.6336   4
  10   4 -20 185.314 14.6952   2
   8  -4 -20 125.623 13.1171   2
  -8  -4  20 105.022 15.6919   4
   8   4 -20 115.296 12.4837   2
  -8   4  20 132.508 18.5196   4
   6  -4 -20 44.3852 9.51040   2
  -6  -4  20 41.2469 14.1972   4
  -6   4  20 40.6181 14.1207   4
   6   4 -20 54.2949 9.83778   2
   4  -4 -20 20.2876 9.58376   2
  -4  -4  20 62.2535 14.1784   4
  -4   4  20 18.4514 13.3779   4
   4   4 -20 34.9239 9.53212   2
   2  -4 -20 260.457 19.7349   2
  -2  -4  20 227.499 21.8409   4
  -2   4  20 201.025 22.5924   4
   2   4 -20 220.009 18.3525   2
   0  -4 -20 97.5461 13.2412   2
   0  -4  20 102.699 16.6611   4
   0   4 -20 103.102 13.4894   2
   0   4  20 65.9566 17.0919   4
  -2  -4 -20 58.0498 11.4810   2
   2   4  20 71.2673 18.5590   4
  -2   4 -20 81.2726 13.7251   2
 -19  -5  20 11.3464 13.3217   4
  19  -5 -20 -2.2783 8.71768   2
 -19   5  20 1.11072 17.9845   4
 -17  -5  20 11.6481 12.7496   4
  17  -5 -20 11.6041 8.70487   2
 -17   5  20 4.44546 16.9897   4
 -15  -5  20 55.1230 15.3628   4
  15  -5 -20 45.1982 10.9891   2
 -15   5  20 51.7230 16.4318   4
 -13  -5  20 58.2038 14.3895   4
  13  -5 -20 47.4125 10.2563   2
 -13   5  20 18.7315 16.5291   4
  11  -5 -20 34.2316 9.73769   2
 -11  -5  20 33.7165 13.5999   4
 -11   5  20 39.2284 14.7383   4
  -9  -5  20 34.4685 13.4556   4
   9  -5 -20 15.8992 8.09808   2
   9   5 -20 18.2317 8.78301   2
  -9   5  20 18.4572 13.8296   4
   7  -5 -20 27.1117 8.83002   2
  -7  -5  20 30.0805 13.3233   4
   7   5 -20 21.5353 8.85664   2
  -7   5  20 13.1395 13.1456   4
   5  -5 -20 90.8352 11.7989   2
  -5  -5  20 88.5978 14.2579   4
  -5   5  20 88.7589 17.4536   4
   5   5 -20 90.4049 12.2645   2
  -3  -5  20 15.8480 12.8702   4
   3  -5 -20 7.50667 8.48717   2
  -3   5  20 6.30628 15.6630   4
   3   5 -20 6.89901 9.12068   2
   1  -5 -20 14.0142 9.50120   2
  -1  -5  20 11.8456 13.4798   4
   1   5 -20 26.7724 9.95250   2
  -1   5  20 28.2495 15.1204   4
  -1  -5 -20 78.3349 12.8986   2
   1   5  20 62.1760 17.8727   4
  -1   5 -20 79.6230 13.7037   2
  18  -6 -20 -5.2722 10.3529   2
 -18  -6  20 13.9513 12.7259   4
 -18   6  20 -31.272 17.9243   4
  18   6 -20 -2.7533 12.5342   3
  16  -6 -20 0.19850 9.72911   2
 -16  -6  20 7.11320 12.5129   4
  16   6 -20 -2.5154 11.7833   3
 -16   6  20 -18.257 17.1840   4
 -14  -6  20 11.4840 11.8807   4
  14  -6 -20 1.26677 8.67705   2
  14   6 -20 1.37931 10.7624   3
 -14   6  20 -4.0267 16.3372   4
 -12  -6  20 -1.1595 11.4627   4
  12  -6 -20 16.3816 9.45868   2
 -12   6  20 -3.4973 14.9178   4
  12   6 -20 -3.7067 10.3707   3
  10  -6 -20 16.3521 9.37376   2
 -10  -6  20 25.2875 13.4564   4
 -10   6  20 15.9655 15.0835   4
  10   6 -20 8.97128 10.5348   3
   8  -6 -20 2.35098 9.52399   2
  -8  -6  20 -3.1383 12.0728   4
  -8   6  20 15.5365 16.0755   4
   8   6 -20 2.43073 10.2980   3
  -6  -6  20 50.3532 14.0011   4
   6  -6 -20 42.2370 10.2833   2
  -6   6  20 50.8718 16.6265   4
   6   6 -20 57.5516 12.5743   3
   6   6 -20 37.4487 10.5002   2
  -4  -6  20 21.7553 13.2946   4
   4  -6 -20 4.20539 8.75871   2
   4   6 -20 -0.3552 11.8362   3
  -4   6  20 0.93763 16.9591   4
   4   6 -20 -3.7874 9.51824   2
   2  -6 -20 8.69785 10.5315   2
  -2   6  20 -2.9236 17.2928   4
   2   6 -20 13.9038 10.6285   2
 -13  -7  20 7.83964 13.9229   4
  13  -7 -20 13.6567 16.3713   2
 -13   7  20 33.1685 17.4371   4
  13   7 -20 31.3230 13.4597   3
 -11  -7  20 16.5503 12.6058   4
  11  -7 -20 24.4709 10.8900   2
  11   7 -20 33.3950 12.8252   3
 -11   7  20 11.1697 17.7699   4
   9  -7 -20 68.6470 11.4733   2
  -9  -7  20 91.5168 16.2552   4
   9   7 -20 45.9996 13.2771   3
  -9   7  20 38.3824 17.6664   4
   7  -7 -20 2.96039 9.03175   2
  -7  -7  20 8.13642 13.2793   4
   7   7 -20 1.75967 11.7627   3
  -5  -7  20 5.93787 13.4194   4
   5  -7 -20 -1.7918 9.18045   2
   5   7 -20 9.31411 12.0756   3
  -5   7  20 1.92658 16.7300   4
 -22   0  21 2.42745 16.0738   4
  22   0 -21 -1.3807 9.43136   2
  20   0 -21 5.68027 8.74501   2
 -20   0  21 17.5461 15.5041   4
  18   0 -21 1.40710 8.29617   2
 -18   0  21 10.5509 14.9729   4
 -16   0  21 -1.1283 14.6772   4
  16   0 -21 -3.7487 7.79967   2
  14   0 -21 10.4444 7.99641   2
 -14   0  21 -5.2142 14.0437   4
 -12   0  21 -12.798 14.5867   4
  12   0 -21 11.2259 7.21443   2
 -10   0  21 -7.5657 13.0830   4
  10   0 -21 3.99922 7.19778   2
   8   0 -21 4.03734 7.23444   2
  -8   0  21 9.75066 14.6828   4
   6   0 -21 3.31232 7.65743   2
  -6   0  21 -12.024 12.9654   4
   4   0 -21 -3.4603 7.80028   2
  -4   0  21 13.8100 15.5971   4
  -2   0  21 -6.4859 14.9986   4
   2   0 -21 -9.0306 7.78894   2
   0   0 -21 6.71863 9.10913   2
   0   0  21 -19.563 15.0530   4
   2   0  21 -14.341 16.0207   4
  -2   0 -21 -12.212 9.04047   2
  -4   0 -21 5.75402 11.9113   2
   4   0  21 -20.044 17.4536   4
  23  -1 -21 6.74860 10.1204   2
 -23  -1  21 -0.5523 13.8321   4
 -23   1  21 6.81639 14.7507   4
 -21  -1  21 12.7531 15.0022   4
  21  -1 -21 -3.1806 9.17145   2
  21   1 -21 12.8042 9.53244   2
 -21   1  21 -8.0429 15.1989   4
  19  -1 -21 63.5602 10.9970   2
 -19  -1  21 48.5387 16.2814   4
  19   1 -21 77.0966 10.8496   2
 -19   1  21 61.7677 17.4462   4
  17  -1 -21 33.6748 8.99278   2
 -17  -1  21 36.6862 13.9248   4
 -17   1  21 36.1867 15.2782   4
  17   1 -21 29.6008 8.85104   2
  15  -1 -21 2.66979 7.90799   2
 -15  -1  21 7.16294 12.9467   4
 -15   1  21 -2.6263 15.5402   4
  15   1 -21 9.89763 8.03370   2
  13  -1 -21 35.7167 8.34741   2
 -13  -1  21 34.7184 13.8023   4
 -13   1  21 19.5895 14.3893   4
  13   1 -21 16.5753 7.60619   2
 -11  -1  21 87.2848 16.3807   4
  11  -1 -21 97.7388 12.3348   2
 -11   1  21 126.255 18.8145   4
  11   1 -21 117.016 11.9757   2
   9  -1 -21 25.8425 9.09463   2
  -9  -1  21 52.9463 16.7107   4
   9   1 -21 47.0506 9.33036   2
  -9   1  21 18.4163 14.5094   4
  -7  -1  21 78.7095 17.7032   4
   7  -1 -21 72.1002 10.2813   2
   7   1 -21 52.0948 9.92683   2
  -7   1  21 51.6796 17.1755   4
   5  -1 -21 76.6088 11.0217   2
  -5  -1  21 90.0799 17.8502   4
  -5   1  21 93.7624 17.0436   4
   5   1 -21 74.4441 11.4409   2
  -3  -1  21 -8.9591 14.4768   4
   3  -1 -21 5.19601 8.88647   2
   3   1 -21 7.67617 8.31463   2
  -3   1  21 27.3518 14.5650   4
  -1  -1  21 131.344 18.6369   4
   1  -1 -21 123.254 13.6758   2
   1   1 -21 134.913 14.9442   2
  -1   1  21 92.8344 19.1046   4
   1  -1  21 84.3738 18.4406   4
  -1  -1 -21 131.687 14.9310   2
   1   1  21 66.5614 17.7394   4
  -1   1 -21 72.2855 12.3072   2
   3  -1  21 8.07864 17.3240   4
  -3  -1 -21 29.2740 10.8459   2
   3   1  21 -2.7744 17.1433   4
  -3   1 -21 38.2807 12.4316   2
  22  -2 -21 6.47350 8.92473   2
 -22  -2  21 45.8024 16.5509   4
 -22   2  21 23.6834 17.3305   4
 -20  -2  21 15.8581 13.5309   4
  20  -2 -21 10.2911 8.86178   2
 -20   2  21 22.6083 15.9024   4
 -18  -2  21 3.10169 14.0727   4
  18  -2 -21 4.82950 8.60645   2
 -18   2  21 13.1236 15.3657   4
  18   2 -21 -2.3723 8.47280   2
  16  -2 -21 15.0264 8.03415   2
 -16  -2  21 4.29065 13.3228   4
  16   2 -21 19.8339 8.40332   2
 -16   2  21 14.2104 16.6383   4
 -14  -2  21 75.1914 14.8155   4
  14  -2 -21 59.0315 9.69346   2
  14   2 -21 57.3757 9.89376   2
 -14   2  21 31.0872 16.7675   4
 -12  -2  21 5.66106 12.4626   4
  12  -2 -21 3.64342 7.99480   2
  12   2 -21 -6.9990 7.54133   2
 -12   2  21 -11.503 15.0134   4
 -10  -2  21 155.902 20.3318   4
  10  -2 -21 169.202 15.0523   2
 -10   2  21 178.444 21.8756   4
  10   2 -21 143.277 14.2723   2
  -8  -2  21 55.3329 14.7548   4
   8  -2 -21 38.2452 9.46591   2
   8   2 -21 47.3199 8.95783   2
  -8   2  21 52.3311 15.4117   4
  -6  -2  21 54.8012 16.2126   4
   6  -2 -21 84.6380 11.1883   2
  -6   2  21 62.4313 17.3671   4
   6   2 -21 68.3746 10.9884   2
   4  -2 -21 89.0294 12.0524   2
  -4  -2  21 76.3320 16.0255   4
   4   2 -21 106.668 12.2981   2
  -4   2  21 91.8074 17.2262   4
  -2  -2  21 147.702 19.9693   4
   2  -2 -21 172.385 16.0043   2
   2   2 -21 131.806 14.7013   2
  -2   2  21 84.8894 17.8607   4
   0  -2 -21 103.761 12.9701   2
   0  -2  21 47.6607 17.1242   4
   0   2  21 37.5325 16.5627   4
   0   2 -21 73.2847 12.4504   2
   2  -2  21 56.5012 26.8743   4
  -2  -2 -21 109.864 14.3109   2
  -2   2 -21 91.2574 13.4938   2
   2   2  21 75.4552 17.7067   4
 -21  -3  21 4.31550 14.6747   4
  21  -3 -21 -7.8528 8.60046   2
 -21   3  21 9.08403 16.0010   4
 -19  -3  21 18.4347 14.6656   4
  19  -3 -21 11.6814 9.67804   2
 -19   3  21 -0.3363 17.7766   4
  17  -3 -21 36.5450 9.89202   2
 -17  -3  21 65.8947 14.6617   4
 -17   3  21 1.85955 17.1116   4
 -15  -3  21 6.20964 12.4167   4
  15  -3 -21 3.06862 8.11820   2
 -15   3  21 -6.0261 15.0393   4
  15   3 -21 -4.2898 7.81998   2
 -13  -3  21 20.5409 12.8291   4
  13  -3 -21 33.5912 8.59078   2
  13   3 -21 30.0608 8.78729   2
 -13   3  21 21.9036 16.5789   4
  11  -3 -21 51.2974 10.4171   2
 -11  -3  21 37.6816 13.4786   4
 -11   3  21 44.8354 16.8876   4
  11   3 -21 49.9592 9.76467   2
  -9  -3  21 -3.5537 11.7634   4
   9  -3 -21 10.4069 8.94102   2
   9   3 -21 7.14685 8.22894   2
  -9   3  21 -11.963 13.2117   4
   7  -3 -21 85.2545 11.0460   2
  -7  -3  21 94.7623 15.7723   4
  -7   3  21 73.9854 18.6512   4
   7   3 -21 83.0536 11.4950   2
   5  -3 -21 66.0539 10.6986   2
  -5  -3  21 42.6340 14.7630   4
   5   3 -21 68.6219 10.5548   2
  -5   3  21 62.7165 17.7456   4
  -3  -3  21 -8.6879 13.3170   4
   3  -3 -21 11.1218 8.66698   2
  -3   3  21 2.38344 15.4516   4
   3   3 -21 -8.6333 7.87973   2
  -1  -3  21 59.1611 16.7233   4
   1  -3 -21 58.7622 11.4941   2
  -1   3  21 57.5249 16.3400   4
   1   3 -21 65.4810 12.4561   2
  -1  -3 -21 123.259 15.0314   2
   1   3  21 127.370 21.0231   4
  -1   3 -21 101.755 14.1723   2
  20  -4 -21 -5.7649 10.0712   2
 -20   4  21 5.35055 18.3994   4
  18  -4 -21 13.7573 9.71642   2
 -18  -4  21 1.34429 12.8733   4
 -18   4  21 -14.520 17.1543   4
 -16  -4  21 10.4616 13.5972   4
  16  -4 -21 4.72265 8.34592   2
 -16   4  21 4.92035 15.8964   4
  14  -4 -21 -6.1132 8.58070   2
 -14  -4  21 7.23705 12.2047   4
 -14   4  21 -19.549 14.5931   4
 -12  -4  21 0.52350 11.7635   4
  12  -4 -21 4.56769 7.97060   2
  12   4 -21 1.32073 8.02764   2
 -12   4  21 -11.952 15.8027   4
 -10  -4  21 -10.115 13.2269   4
  10  -4 -21 12.5734 8.05986   2
 -10   4  21 -3.3881 15.8279   4
  10   4 -21 12.3043 8.25896   2
   8  -4 -21 10.6592 7.99761   2
  -8  -4  21 -3.4529 13.5471   4
  -8   4  21 9.12134 15.5442   4
   8   4 -21 -0.9323 8.69977   2
   6  -4 -21 54.9429 10.1466   2
  -6  -4  21 30.9526 14.8431   4
   6   4 -21 58.4509 10.6709   2
  -6   4  21 26.7605 16.7902   4
  -4  -4  21 6.16060 12.9924   4
   4  -4 -21 -12.380 8.01048   2
  -4   4  21 -1.0110 14.6748   4
   4   4 -21 -7.4671 9.07665   2
  -2  -4  21 0.00811 14.2215   4
   2  -4 -21 3.72383 9.94141   2
  -2   4  21 -4.8562 14.7730   4
   2   4 -21 3.24789 10.0060   2
   0  -4 -21 21.0346 10.6612   2
   0   4  21 17.7537 16.0911   4
   0   4 -21 19.7021 11.3547   2
  17  -5 -21 40.7692 11.3059   2
 -17  -5  21 43.4814 15.6115   4
 -17   5  21 38.4466 18.4535   4
 -15  -5  21 17.8662 14.5325   4
  15  -5 -21 -5.5257 9.15491   2
 -15   5  21 -13.697 17.5618   4
 -13  -5  21 13.3132 14.1807   4
  13  -5 -21 4.67490 8.94458   2
 -13   5  21 16.0311 17.4187   4
 -11  -5  21 51.7094 15.2413   4
  11  -5 -21 50.3910 9.98317   2
 -11   5  21 60.9273 18.1512   4
  -9  -5  21 121.715 16.6408   4
   9  -5 -21 129.147 13.7787   2
  -9   5  21 86.3714 18.5039   4
   9   5 -21 150.854 14.1188   2
  -7  -5  21 34.5791 12.6776   4
   7  -5 -21 16.0109 8.83631   2
   7   5 -21 18.1949 9.40388   2
  -7   5  21 16.4140 16.8730   4
   5  -5 -21 30.6518 10.1413   2
  -5  -5  21 32.4434 14.2614   4
   5   5 -21 17.8726 10.1216   2
  -5   5  21 41.7257 17.7415   4
  -3  -5  21 61.2302 15.5551   4
   3  -5 -21 77.5394 12.9286   2
  -3   5  21 33.0838 19.0140   4
   3   5 -21 89.1458 12.8950   2
   1  -5 -21 97.1240 14.0906   2
  -1   5  21 83.6363 21.5002   4
   1   5 -21 73.5872 13.8586   2
 -14  -6  21 44.2950 13.8743   4
 -14   6  21 6.47034 18.8611   4
 -12  -6  21 59.8736 14.7006   4
  12  -6 -21 30.4805 10.2301   2
 -12   6  21 -0.6725 17.7116   4
 -10  -6  21 35.3682 14.4010   4
  10  -6 -21 33.3126 9.86510   2
 -10   6  21 27.7791 18.1949   4
   8  -6 -21 65.0030 12.3685   2
  -8  -6  21 71.0890 15.5321   4
  -8   6  21 27.1879 16.9590   4
  -6  -6  21 126.146 18.8715   4
   6  -6 -21 174.077 17.0295   2
  -6   6  21 216.219 35.0702   4
   4  -6 -21 25.6781 10.6826   2
  -4  -6  21 28.7631 14.2380   4
   4   6 -21 26.0113 11.4229   2
  -4   6  21 32.9907 17.3758   4
 -22   0  22 77.9848 19.6543   4
  22   0 -22 111.327 13.9271   2
 -20   0  22 21.9784 14.7868   4
  20   0 -22 -1.5580 9.24642   2
  18   0 -22 34.8573 9.06711   2
 -18   0  22 31.9746 15.8366   4
  16   0 -22 120.253 12.7695   2
 -16   0  22 124.493 20.0875   4
 -14   0  22 101.547 19.2681   4
  14   0 -22 51.3685 10.3545   2
  12   0 -22 55.3573 10.4577   2
 -12   0  22 43.5920 17.1340   4
  10   0 -22 177.281 16.2186   2
 -10   0  22 200.243 24.1851   4
  -8   0  22 105.647 20.2078   4
   8   0 -22 179.452 14.9175   2
   6   0 -22 79.6635 11.9859   2
  -6   0  22 84.2120 17.8049   4
  -4   0  22 75.3648 17.9787   4
   4   0 -22 110.600 13.4477   2
  -2   0  22 280.650 27.3410   4
   2   0 -22 300.764 22.5208   2
   0   0 -22 165.198 17.8604   2
   0   0  22 191.951 24.1423   4
  -2   0 -22 90.7681 14.4257   2
   2   0  22 87.9892 20.4424   4
 -21  -1  22 -4.8369 16.0746   4
  21  -1 -22 -3.1564 9.99791   2
  21   1 -22 4.05666 9.67496   2
 -21   1  22 9.80534 15.0579   4
  19  -1 -22 51.3198 10.6849   2
 -19  -1  22 44.7093 15.2979   4
  19   1 -22 40.7716 10.5085   2
 -19   1  22 56.7487 18.1140   4
 -17  -1  22 -10.449 14.5647   4
  17  -1 -22 -2.7698 8.57776   2
 -17   1  22 6.06613 16.2435   4
  17   1 -22 3.48452 8.45724   2
 -15  -1  22 8.14824 13.7943   4
  15  -1 -22 2.86702 8.59147   2
  15   1 -22 8.32475 8.45236   2
 -15   1  22 7.61100 15.2957   4
  13  -1 -22 101.862 11.9766   2
 -13  -1  22 94.9749 18.7110   4
 -13   1  22 144.914 20.3676   4
  13   1 -22 112.783 12.8213   2
 -11  -1  22 94.6072 18.3157   4
  11  -1 -22 89.5373 11.6792   2
 -11   1  22 79.8417 19.6398   4
  11   1 -22 78.7066 10.7935   2
  -9  -1  22 12.1958 16.3931   4
   9  -1 -22 -1.9399 8.57004   2
   9   1 -22 -6.6313 7.27278   2
  -9   1  22 7.84204 15.1990   4
  -7  -1  22 138.442 19.8511   4
   7  -1 -22 135.465 14.2231   2
   7   1 -22 165.719 15.3647   2
  -7   1  22 149.747 20.8516   4
   5  -1 -22 91.1641 11.8450   2
  -5  -1  22 80.9658 17.8404   4
   5   1 -22 91.4759 12.6949   2
  -5   1  22 96.1088 19.7525   4
  -3  -1  22 15.6849 15.9946   4
   3  -1 -22 -0.0181 8.55622   2
  -3   1  22 -24.290 15.3284   4
   3   1 -22 7.60571 8.67185   2
   1  -1 -22 103.897 13.1245   2
  -1  -1  22 83.6103 19.5245   4
  -1   1  22 49.4751 18.3092   4
   1   1 -22 87.9415 12.8658   2
   1  -1  22 22.6661 17.7767   4
  -1   1 -22 67.0706 12.6294   2
   1   1  22 37.6877 18.8192   4
  20  -2 -22 -10.131 9.77651   2
 -20  -2  22 6.72792 15.3553   4
 -20   2  22 -15.930 17.1341   4
  18  -2 -22 6.77416 9.50762   2
 -18  -2  22 1.11212 14.8004   4
 -18   2  22 21.7992 16.7370   4
  18   2 -22 1.69367 8.86573   2
  16  -2 -22 17.7928 8.52537   2
 -16  -2  22 29.3045 13.6585   4
 -16   2  22 -4.8038 15.3729   4
  16   2 -22 0.79700 8.52576   2
  14  -2 -22 13.5167 8.91096   2
 -14  -2  22 14.7664 13.1827   4
 -14   2  22 7.97771 16.8280   4
  14   2 -22 3.38405 8.49392   2
  12  -2 -22 28.4954 8.67455   2
 -12  -2  22 14.0686 13.5413   4
  12   2 -22 20.0904 9.17129   2
 -12   2  22 10.8223 15.4171   4
  10  -2 -22 17.2270 9.50993   2
 -10  -2  22 24.2658 13.9922   4
 -10   2  22 19.0262 16.8062   4
  10   2 -22 42.1718 9.49294   2
  -8  -2  22 -6.5406 14.8886   4
   8  -2 -22 -1.8115 7.63123   2
  -8   2  22 9.73963 15.0020   4
   8   2 -22 4.24859 7.80058   2
   6  -2 -22 39.4790 9.75608   2
  -6  -2  22 26.5795 16.0600   4
   6   2 -22 27.1072 9.26651   2
  -6   2  22 27.8680 15.1040   4
  -4  -2  22 -27.670 15.3189   4
   4  -2 -22 1.76338 9.42941   2
  -4   2  22 1.98664 14.4369   4
   4   2 -22 -7.4038 8.17073   2
  -2  -2  22 -12.998 15.3710   4
   2  -2 -22 -1.6740 8.72823   2
  -2   2  22 -13.532 16.2645   4
   2   2 -22 21.2097 10.6890   2
   0  -2 -22 -2.6332 10.9404   2
   0  -2  22 4.96344 16.8857   4
   0   2 -22 -14.782 9.35027   2
   0   2  22 -20.699 14.8653   4
 -19  -3  22 34.5413 16.7021   4
  19  -3 -22 30.2564 10.9420   2
 -19   3  22 26.0757 19.3289   4
 -17  -3  22 49.9077 15.0348   4
  17  -3 -22 57.7684 11.4045   2
 -17   3  22 69.0405 20.0999   4
  15  -3 -22 21.7191 9.57143   2
 -15  -3  22 28.8516 14.3420   4
  15   3 -22 -5.2058 8.29058   2
 -15   3  22 24.7047 18.4347   4
 -13  -3  22 3.34078 12.9810   4
  13  -3 -22 9.37608 8.54745   2
  13   3 -22 9.26233 8.66088   2
 -13   3  22 -12.333 15.0828   4
 -11  -3  22 58.5959 15.3814   4
  11  -3 -22 58.8657 10.2826   2
 -11   3  22 52.8783 18.5806   4
  11   3 -22 54.8598 10.1367   2
  -9  -3  22 74.9947 17.1093   4
   9  -3 -22 94.2079 11.5959   2
  -9   3  22 66.7580 18.5433   4
   9   3 -22 74.1139 11.4693   2
  -7  -3  22 86.8989 17.5917   4
   7  -3 -22 94.2305 12.4601   2
  -7   3  22 109.611 18.6133   4
   7   3 -22 92.6107 12.6410   2
  -5  -3  22 10.5520 15.2459   4
   5  -3 -22 -2.1232 8.92699   2
  -5   3  22 9.95533 16.5651   4
   5   3 -22 18.0630 9.85970   2
   3  -3 -22 9.00343 9.32366   2
  -3  -3  22 13.1811 15.3797   4
  -3   3  22 10.2216 15.5118   4
   3   3 -22 28.2066 9.86767   2
   1  -3 -22 116.836 15.0097   2
  -1  -3  22 154.874 20.3115   4
   1   3 -22 157.245 16.7029   2
  -1   3  22 96.6841 21.5183   4
  18  -4 -22 4.30030 10.1512   2
 -18   4  22 -8.5945 19.0122   4
 -16  -4  22 19.8340 14.8396   4
  16  -4 -22 12.7040 9.21255   2
 -16   4  22 -0.0011 16.8625   4
 -14  -4  22 90.2903 16.4911   4
  14  -4 -22 93.9668 12.2985   2
 -14   4  22 99.6106 21.7056   4
  12  -4 -22 87.8419 11.9445   2
 -12  -4  22 70.1869 16.5854   4
  12   4 -22 78.1506 11.6104   2
 -12   4  22 70.9877 19.7646   4
 -10  -4  22 80.9958 17.5303   4
  10  -4 -22 104.218 13.4355   2
 -10   4  22 81.8311 18.3778   4
  10   4 -22 103.219 12.1655   2
   8  -4 -22 23.5323 10.2493   2
  -8  -4  22 47.6184 15.5066   4
  -8   4  22 -0.5964 16.7392   4
   8   4 -22 13.8482 9.48817   2
   6  -4 -22 271.656 20.4861   2
  -6  -4  22 257.528 24.6973   4
   6   4 -22 241.466 20.4563   2
  -6   4  22 212.320 26.5622   4
  -4  -4  22 104.555 18.1136   4
   4  -4 -22 95.2870 13.5182   2
  -4   4  22 106.097 20.8672   4
   4   4 -22 51.1567 12.4054   2
  -2  -4  22 71.3827 17.1662   4
  -2   4  22 57.8072 18.3334   4
   2   4 -22 71.1458 13.2800   2
 -15  -5  22 16.9077 16.8519   4
 -15   5  22 -11.027 17.0667   4
 -13  -5  22 24.9162 13.8686   4
  13  -5 -22 6.71044 9.68251   2
 -13   5  22 -6.8970 18.2985   4
  11  -5 -22 43.1821 10.5248   2
 -11  -5  22 57.2630 15.0201   4
 -11   5  22 35.2415 17.6078   4
   9  -5 -22 23.1676 10.6165   2
  -9  -5  22 16.7963 14.6225   4
  -9   5  22 14.3325 16.2745   4
   7  -5 -22 36.8365 10.6454   2
  -7  -5  22 48.1170 14.0835   4
  -7   5  22 17.1526 18.2674   4
   7   5 -22 21.2315 10.4661   2
  -5  -5  22 24.0920 14.4268   4
   5   5 -22 25.2543 10.6984   2
 -20   0  23 -22.021 17.7109   4
  20   0 -23 -1.3195 9.85022   2
 -18   0  23 17.7644 15.6897   4
  18   0 -23 -8.0555 8.49330   2
  16   0 -23 1.86474 9.06059   2
 -16   0  23 0.96076 15.5876   4
  14   0 -23 0.33518 8.83487   2
 -14   0  23 -17.652 15.3396   4
 -12   0  23 -15.546 16.8559   4
  12   0 -23 5.57167 9.26757   2
 -10   0  23 -29.707 14.7642   4
  10   0 -23 -4.1213 8.91696   2
  -8   0  23 14.1589 15.7266   4
   8   0 -23 3.85415 9.28147   2
   6   0 -23 -5.1888 9.23466   2
  -6   0  23 2.90380 15.2823   4
   4   0 -23 14.4361 10.4095   2
  -4   0  23 -9.1517 17.3034   4
   2   0 -23 2.34168 10.7372   2
  -2   0  23 -47.142 17.5226   4
 -19  -1  23 27.2709 17.2821   4
  19  -1 -23 43.0711 11.0045   2
 -19   1  23 29.9313 18.6263   4
  19   1 -23 33.1225 10.8185   2
  17  -1 -23 32.6161 10.2633   2
 -17  -1  23 27.2304 16.3861   4
  17   1 -23 43.6570 10.5272   2
 -17   1  23 32.2771 18.5372   4
  15  -1 -23 9.93175 9.79869   2
 -15  -1  23 25.5215 15.3301   4
  15   1 -23 17.9898 9.27999   2
 -15   1  23 24.3143 18.2736   4
  13  -1 -23 76.8055 11.9791   2
 -13  -1  23 92.3602 18.4744   4
  13   1 -23 74.7451 11.2517   2
 -13   1  23 63.9613 18.4189   4
 -11  -1  23 87.3753 19.5424   4
  11  -1 -23 84.3444 12.0015   2
  11   1 -23 119.958 13.0739   2
 -11   1  23 49.3036 18.0967   4
  -9  -1  23 41.8150 17.5536   4
   9  -1 -23 31.4433 9.75814   2
  -9   1  23 13.0772 16.1708   4
   9   1 -23 22.9050 9.80374   2
   7  -1 -23 56.0827 10.6696   2
  -7  -1  23 32.9059 18.5249   4
   7   1 -23 49.5206 10.2742   2
  -7   1  23 37.5824 17.4910   4
  -5  -1  23 32.7376 16.6599   4
   5  -1 -23 18.3522 10.4891   2
   5   1 -23 36.9546 10.9617   2
  -5   1  23 11.4295 16.1545   4
  -3  -1  23 28.9387 16.8578   4
   3  -1 -23 35.4158 10.9659   2
  -3   1  23 32.9742 19.2920   4
   3   1 -23 52.1920 12.1207   2
  -1  -1  23 68.5177 18.6756   4
  -1   1  23 64.8508 18.4183   4
 -18  -2  23 -6.2414 14.1133   4
  18  -2 -23 14.6297 10.0987   2
 -18   2  23 -7.3071 19.4833   4
  18   2 -23 27.7234 10.5567   2
 -16  -2  23 81.7608 16.7687   4
  16  -2 -23 86.0748 12.4983   2
  16   2 -23 59.1926 11.1581   2
 -16   2  23 52.6679 18.9316   4
 -14  -2  23 48.4326 15.8668   4
  14  -2 -23 71.5530 11.7092   2
  14   2 -23 67.8629 10.8871   2
 -14   2  23 59.4027 18.4838   4
  12  -2 -23 99.9554 13.0377   2
 -12  -2  23 65.2943 18.2574   4
  12   2 -23 103.497 12.6846   2
 -12   2  23 69.0784 19.9596   4
 -10  -2  23 69.7699 17.3980   4
  10  -2 -23 89.2311 13.0393   2
  10   2 -23 101.247 12.2139   2
 -10   2  23 82.9618 20.4857   4
  -8  -2  23 8.28668 16.6721   4
   8  -2 -23 21.1624 8.89497   2
  -8   2  23 21.6445 18.4690   4
   8   2 -23 -0.9333 9.28104   2
   6  -2 -23 28.4852 10.0687   2
  -6  -2  23 40.1302 16.0334   4
  -6   2  23 67.7125 17.9889   4
   6   2 -23 38.3436 10.6900   2
  -4  -2  23 55.9903 18.2845   4
   4  -2 -23 53.4730 11.1456   2
  -4   2  23 46.1311 17.7802   4
   4   2 -23 59.5285 12.3067   2
   2  -2 -23 92.9165 14.7762   2
  -2  -2  23 77.8320 19.5132   4
  -2   2  23 82.6934 19.4467   4
   2   2 -23 83.7267 13.8308   2
  17  -3 -23 -6.1004 9.82047   2
 -17   3  23 1.16517 17.4738   4
 -15  -3  23 5.97196 14.5349   4
  15  -3 -23 -0.3179 8.68157   2
 -15   3  23 19.5215 19.1055   4
  15   3 -23 14.0277 9.58194   2
  13  -3 -23 91.1153 12.1898   2
 -13  -3  23 69.0768 17.8720   4
  13   3 -23 72.7845 11.6437   2
 -13   3  23 60.8527 18.7253   4
 -11  -3  23 35.9003 15.2347   4
  11  -3 -23 26.1383 10.0789   2
 -11   3  23 45.8939 19.3659   4
  11   3 -23 29.1309 10.2596   2
  -9  -3  23 6.53682 13.7765   4
   9  -3 -23 7.48323 8.95018   2
  -9   3  23 -5.9917 15.4825   4
   9   3 -23 0.25171 8.25753   2
  -7  -3  23 67.8277 18.1385   4
   7  -3 -23 80.8322 13.0001   2
  -7   3  23 97.2371 19.7554   4
   7   3 -23 80.0288 12.8816   2
   5  -3 -23 -4.1154 10.1678   2
  -5  -3  23 6.94293 15.4369   4
  -5   3  23 -1.9017 16.4877   4
   5   3 -23 10.5261 10.6824   2
   3  -3 -23 17.9684 11.4747   2
  -3  -3  23 8.67427 16.5627   4
   3   3 -23 28.5587 11.8528   2
  -3   3  23 10.9348 18.9230   4
  16  -4 -23 21.9598 11.9806   2
 -16  -4  23 4.30104 15.5225   4
 -14  -4  23 6.00396 13.8832   4
 -14   4  23 -12.233 19.5620   4
 -12  -4  23 9.81300 15.2453   4
  12  -4 -23 11.4401 9.20386   2
 -12   4  23 -4.2364 18.5582   4
  12   4 -23 -6.2506 15.9861   2
 -10  -4  23 -16.135 15.2770   4
  10  -4 -23 1.46959 9.08092   2
  10   4 -23 -4.7163 9.47248   2
 -10   4  23 -6.2984 17.8079   4
  -8  -4  23 5.98309 14.2681   4
   8  -4 -23 21.3021 12.8457   2
   8   4 -23 25.6861 10.7330   2
  -8   4  23 -10.241 20.0156   4
  -6  -4  23 33.9121 16.7691   4
   6  -4 -23 -4.7182 15.6577   2
   6   4 -23 9.58739 10.5312   2
 -18   0  24 38.5194 17.9543   4
  18   0 -24 110.273 14.0245   2
 -16   0  24 87.6113 22.3888   4
  16   0 -24 138.216 14.8517   2
  14   0 -24 40.7312 10.4291   2
 -14   0  24 72.0028 18.0261   4
  12   0 -24 329.146 25.0034   2
 -12   0  24 317.663 32.1394   4
  10   0 -24 122.116 14.1762   2
 -10   0  24 168.185 23.5162   4
   8   0 -24 6.51531 10.0226   2
  -8   0  24 12.6074 17.0740   4
  -6   0  24 13.3327 17.2071   4
   6   0 -24 20.2700 9.95736   2
  -4   0  24 81.1772 20.3675   4
  17  -1 -24 33.3633 10.1574   2
 -17  -1  24 30.3062 29.9901   4
  17   1 -24 23.2342 10.4798   2
 -15  -1  24 23.6068 17.7894   4
  15  -1 -24 40.1707 11.3287   2
  15   1 -24 50.2801 11.6372   2
 -15   1  24 56.0313 20.5855   4
  13  -1 -24 58.8595 11.1448   2
 -13  -1  24 68.6828 19.3561   4
  13   1 -24 50.2603 11.3764   2
 -13   1  24 37.0880 20.5862   4
  11  -1 -24 18.1756 9.80112   2
 -11  -1  24 18.0819 18.1370   4
  11   1 -24 21.1341 9.84694   2
 -11   1  24 23.9291 17.9763   4
   9  -1 -24 43.6858 11.3701   2
  -9  -1  24 16.2377 16.2013   4
  -9   1  24 22.0620 17.6631   4
   9   1 -24 25.0196 10.7184   2
   7  -1 -24 36.2083 10.7601   2
  -7  -1  24 30.8776 18.9632   4
   7   1 -24 49.9398 11.9347   2
  -7   1  24 51.6278 21.0227   4
  -5  -1  24 -4.4305 16.5138   4
   5   1 -24 -13.770 10.3059   2
  -5   1  24 -10.617 18.7789   4
  16  -2 -24 -2.5266 10.4162   2
 -16  -2  24 5.01548 17.1844   4
  16   2 -24 -2.8972 9.73548   2
  14  -2 -24 11.1832 9.36985   2
 -14  -2  24 25.4071 15.4687   4
  14   2 -24 6.99630 9.90037   2
 -14   2  24 13.4119 20.6730   4
 -12  -2  24 -19.901 14.1850   4
  12  -2 -24 10.9172 9.53360   2
 -12   2  24 3.99801 17.3764   4
  12   2 -24 5.27574 9.84491   2
 -10  -2  24 -8.4503 16.4049   4
  10  -2 -24 -4.8390 9.91061   2
 -10   2  24 -35.255 15.7432   4
  10   2 -24 3.53499 9.62396   2
  -8  -2  24 9.46437 16.9964   4
   8  -2 -24 -0.8150 9.17708   2
  -8   2  24 -13.016 16.9253   4
   8   2 -24 -12.008 9.35179   2
  -6  -2  24 -16.815 17.6776   4
   6  -2 -24 3.82270 10.9631   2
  -6   2  24 12.5972 19.2969   4
   6   2 -24 2.48051 9.59531   2
 -13  -3  24 134.474 31.7127   4
 -13   3  24 87.6258 26.5726   4
  13   3 -24 66.1864 12.4347   2
 -11  -3  24 67.9191 18.5144   4
  11   3 -24 60.6887 12.2169   2
  -9  -3  24 -19.599 15.9534   4
   9  -3 -24 -1.3864 11.4846   2
   9   3 -24 6.26362 10.4057   2
  -9   3  24 -51.399 30.8093   4
  12   0 -25 -6.1010 10.8066   2
 -12   0  25 -21.216 17.5393   4
  10   0 -25 8.94955 9.51849   2
   0   0   0    0.00    0.00   0

 _exptl_absorpt_process_details
)
 SADABS 2016/2: Krause, L., Herbst-Irmer, R., Sheldrick G.M. & Stalke D.,
 J. Appl. Cryst. 48 (2015) 3-10
)
 _exptl_absorpt_correction_type   multi-scan
 _exptl_absorpt_correction_T_max  0.7456
 _exptl_absorpt_correction_T_min  0.6434
 _exptl_special_details
)
 The following wavelength and cell were deduced by SADABS from the
 direction cosines etc. They are given here for emergency use only:
 CELL 0.71083   21.655    9.447   19.288   90.002  114.069   90.075
)
;
_shelx_hkl_checksum              84475
_olex2_submission_special_instructions 'No special instructions were received'
loop_
_space_group_symop_operation_xyz
'x, y, z'
'-x, y, -z+1/2'
'x+1/2, y+1/2, z'
'-x+1/2, y+1/2, -z+1/2'
'-x, -y, -z'
'x, -y, z-1/2'
'-x+1/2, -y+1/2, -z'
'x+1/2, -y+1/2, z-1/2'
loop_
_atom_site_label
_atom_site_type_symbol
_atom_site_fract_x
_atom_site_fract_y
_atom_site_fract_z
_atom_site_U_iso_or_equiv
_atom_site_adp_type
_atom_site_occupancy
_atom_site_site_symmetry_order
_atom_site_calc_flag
_atom_site_refinement_flags_posn
_atom_site_refinement_flags_adp
_atom_site_refinement_flags_occupancy
_atom_site_disorder_assembly
_atom_site_disorder_group
Ru1 Ru 0.500000 0.37153(4) 0.750000 0.02411(10) Uani 1 2 d S T P . .
Cl02 Cl 0.87564(13) 0.5173(3) 0.56361(15) 0.0425(5) Uani 0.785(8) 1 d . . P A 1
Cl03 Cl 0.84117(16) 0.2231(3) 0.5688(2) 0.0724(8) Uani 0.785(8) 1 d . . P A 1
Cl04 Cl 0.83745(12) 0.4218(4) 0.68168(12) 0.0688(7) Uani 0.785(8) 1 d . . P A 1
N1 N 0.41421(11) 0.3705(2) 0.65057(12) 0.0227(5) Uani 1 1 d . . . . .
N2 N 0.56057(11) 0.3657(2) 0.69112(12) 0.0231(5) Uani 1 1 d . . . . .
O2 O 0.500000 0.1502(5) 0.750000 0.0415(10) Uani 0.637(8) 2 d S T P B 1
C18 C 0.500000 0.5820(5) 0.750000 0.0371(10) Uani 0.637(8) 2 d S T P B 1
C11 C 0.74841(14) 0.3576(3) 0.81971(15) 0.0265(6) Uani 1 1 d . . . . .
C3 C 0.34382(14) 0.3738(3) 0.52367(15) 0.0267(6) Uani 1 1 d . . . . .
H3 H 0.328958 0.376318 0.470031 0.032 Uiso 1 1 calc R U . . .
C10 C 0.67331(13) 0.3623(3) 0.79797(14) 0.0230(6) Uani 1 1 d . . . . .
C5 C 0.46979(14) 0.3707(3) 0.56233(14) 0.0251(6) Uani 1 1 d . . . . .
H5 H 0.461357 0.373132 0.509988 0.030 Uiso 1 1 calc R U . . .
C4 C 0.41327(13) 0.3728(3) 0.57902(14) 0.0239(6) Uani 1 1 d . . . . .
C6 C 0.53758(14) 0.3655(3) 0.61340(14) 0.0237(6) Uani 1 1 d . . . . .
C8 C 0.65094(14) 0.3547(3) 0.65860(15) 0.0250(6) Uani 1 1 d . . . . .
H8 H 0.696324 0.350096 0.663175 0.030 Uiso 1 1 calc R U . . .
C1 C 0.34806(13) 0.3681(3) 0.64259(14) 0.0228(5) Uani 1 1 d . . . . .
C17 C 0.78033(15) 0.2351(3) 0.81113(16) 0.0290(6) Uani 1 1 d . . . . .
H17 H 0.754082 0.153090 0.789471 0.035 Uiso 1 1 calc R U . . .
C12 C 0.78849(15) 0.4760(3) 0.85019(16) 0.0305(7) Uani 1 1 d . . . . .
H12 H 0.767917 0.561679 0.855715 0.037 Uiso 1 1 calc R U . . .
C2 C 0.30387(14) 0.3705(3) 0.56226(15) 0.0262(6) Uani 1 1 d . . . . .
H2 H 0.255749 0.369868 0.540758 0.031 Uiso 1 1 calc R U . . .
C16 C 0.84995(15) 0.2311(3) 0.83378(17) 0.0322(7) Uani 1 1 d . . . . .
H16 H 0.870663 0.146168 0.827579 0.039 Uiso 1 1 calc R U . . .
C9 C 0.63015(13) 0.3593(3) 0.72007(15) 0.0236(6) Uani 1 1 d . . . . .
C13 C 0.85802(15) 0.4710(3) 0.87263(17) 0.0347(7) Uani 1 1 d . . . . .
H13 H 0.884373 0.553207 0.893502 0.042 Uiso 1 1 calc R U . . .
O1 O 0.500000 0.6961(5) 0.750000 0.0412(17) Uani 0.637(8) 2 d S T P B 1
C7 C 0.59465(14) 0.3582(3) 0.59275(15) 0.0265(6) Uani 1 1 d . . . . .
H7 H 0.592994 0.356222 0.542772 0.032 Uiso 1 1 calc R U . . .
C14 C 0.88976(15) 0.3483(3) 0.86520(16) 0.0320(7) Uani 1 1 d . . . . .
C15 C 0.96589(16) 0.3435(4) 0.8905(2) 0.0474(9) Uani 1 1 d . . . . .
H15A H 0.980677 0.244784 0.893331 0.071 Uiso 1 1 calc R U . . .
H15B H 0.988020 0.387768 0.940589 0.071 Uiso 1 1 calc R U . . .
H15C H 0.978212 0.394923 0.853808 0.071 Uiso 1 1 calc R U . . .
C19 C 0.8237(2) 0.3987(4) 0.5859(2) 0.0375(13) Uani 0.785(8) 1 d . . P A 1
H19 H 0.775237 0.420353 0.553088 0.045 Uiso 0.785(8) 1 calc R U P A 1
Cl1 Cl 0.8675(6) 0.4632(17) 0.5432(7) 0.068(3) Uani 0.215(8) 1 d . . P A 2
C19A C 0.8709(8) 0.3809(15) 0.6258(9) 0.032(4) Uani 0.215(8) 1 d . . P A 2
H19A H 0.918203 0.374818 0.665823 0.039 Uiso 0.215(8) 1 calc R U P A 2
Cl3 Cl 0.8179(6) 0.4732(11) 0.6559(8) 0.072(3) Uani 0.215(8) 1 d . . P A 2
Cl4 Cl 0.8333(7) 0.2165(14) 0.6008(11) 0.100(4) Uani 0.215(8) 1 d . . P A 2
O1A O 0.500000 0.0407(8) 0.750000 0.032(3) Uani 0.363(8) 2 d S T P B 2
C18A C 0.500000 0.1502(5) 0.750000 0.0415(10) Uani 0.363(8) 2 d S T P B 2
O2A O 0.500000 0.5820(5) 0.750000 0.0371(10) Uani 0.363(8) 2 d S T P B 2
loop_
_atom_site_aniso_label
_atom_site_aniso_U_11
_atom_site_aniso_U_22
_atom_site_aniso_U_33
_atom_site_aniso_U_23
_atom_site_aniso_U_13
_atom_site_aniso_U_12
Ru1 0.02225(17) 0.03226(19) 0.01407(15) 0.000 0.00359(12) 0.000
Cl02 0.0364(7) 0.0443(10) 0.0426(10) 0.0154(7) 0.0121(7) 0.0017(7)
Cl03 0.0664(13) 0.0335(8) 0.1013(19) -0.0163(11) 0.0179(11) 0.0033(8)
Cl04 0.0502(11) 0.125(2) 0.0411(10) 0.0097(10) 0.0285(8) 0.0031(11)
N1 0.0241(11) 0.0225(11) 0.0179(10) -0.0005(10) 0.0050(9) 0.0001(10)
N2 0.0253(12) 0.0237(12) 0.0159(10) -0.0004(9) 0.0039(9) -0.0007(10)
O2 0.040(2) 0.048(3) 0.0288(19) 0.000 0.0072(16) 0.000
C18 0.034(2) 0.050(3) 0.0232(19) 0.000 0.0079(16) 0.000
C11 0.0285(14) 0.0284(15) 0.0201(13) 0.0022(12) 0.0075(11) -0.0020(12)
C3 0.0291(14) 0.0279(14) 0.0165(12) 0.0008(12) 0.0027(11) 0.0039(13)
C10 0.0244(13) 0.0184(13) 0.0220(13) 0.0017(11) 0.0051(11) 0.0002(11)
C5 0.0324(15) 0.0251(14) 0.0153(12) 0.0020(11) 0.0071(11) 0.0016(13)
C4 0.0287(14) 0.0225(13) 0.0154(12) 0.0005(11) 0.0038(11) 0.0002(12)
C6 0.0283(14) 0.0209(13) 0.0178(12) 0.0000(11) 0.0053(11) -0.0018(12)
C8 0.0262(14) 0.0242(15) 0.0251(14) -0.0001(11) 0.0108(11) -0.0006(12)
C1 0.0241(13) 0.0180(12) 0.0218(13) 0.0017(11) 0.0048(11) 0.0041(12)
C17 0.0336(16) 0.0232(14) 0.0306(16) -0.0011(12) 0.0136(13) -0.0030(12)
C12 0.0359(17) 0.0239(14) 0.0305(16) -0.0029(12) 0.0123(13) -0.0045(13)
C2 0.0255(14) 0.0247(13) 0.0214(13) -0.0006(12) 0.0025(11) 0.0031(12)
C16 0.0337(17) 0.0314(16) 0.0350(17) 0.0044(13) 0.0177(14) 0.0046(13)
C9 0.0255(14) 0.0205(13) 0.0227(13) -0.0005(11) 0.0078(11) -0.0030(12)
C13 0.0336(17) 0.0383(17) 0.0287(16) -0.0030(13) 0.0092(14) -0.0135(14)
O1 0.058(4) 0.015(3) 0.047(3) 0.000 0.018(3) 0.000
C7 0.0350(15) 0.0259(14) 0.0198(13) -0.0002(12) 0.0125(12) -0.0013(13)
C14 0.0277(15) 0.0450(19) 0.0247(15) 0.0057(13) 0.0122(12) -0.0020(13)
C15 0.0309(17) 0.066(3) 0.046(2) 0.0098(18) 0.0172(16) -0.0028(16)
C19 0.031(3) 0.041(3) 0.034(2) 0.0028(18) 0.007(2) 0.0011(19)
Cl1 0.047(4) 0.100(9) 0.067(6) 0.039(5) 0.033(4) 0.023(5)
C19A 0.030(9) 0.031(8) 0.036(8) -0.001(7) 0.014(7) -0.003(7)
Cl3 0.086(6) 0.080(5) 0.070(6) -0.007(4) 0.051(5) 0.009(4)
Cl4 0.105(6) 0.038(4) 0.166(13) -0.024(6) 0.064(8) -0.007(3)
O1A 0.048(5) 0.011(5) 0.036(5) 0.000 0.015(4) 0.000
C18A 0.040(2) 0.048(3) 0.0288(19) 0.000 0.0072(16) 0.000
O2A 0.034(2) 0.050(3) 0.0232(19) 0.000 0.0079(16) 0.000
loop_
_atom_type_symbol
_atom_type_description
_atom_type_scat_dispersion_real
_atom_type_scat_dispersion_imag
_atom_type_scat_source
C C 0.0033 0.0016 'International Tables Vol C Tables 4.2.6.8 and 6.1.1.4'
H H 0.0000 0.0000 'International Tables Vol C Tables 4.2.6.8 and 6.1.1.4'
Cl Cl 0.1484 0.1585 'International Tables Vol C Tables 4.2.6.8 and 6.1.1.4'
N N 0.0061 0.0033 'International Tables Vol C Tables 4.2.6.8 and 6.1.1.4'
O O 0.0106 0.0060 'International Tables Vol C Tables 4.2.6.8 and 6.1.1.4'
Ru Ru -1.2594 0.8363 'International Tables Vol C Tables 4.2.6.8 and 6.1.1.4'
loop_
_geom_angle_atom_site_label_1
_geom_angle_atom_site_label_2
_geom_angle_atom_site_label_3
_geom_angle
_geom_angle_site_symmetry_1
_geom_angle_site_symmetry_3
_geom_angle_publ_flag
N1 Ru1 N1 179.45(12) 2_656 . ?
N1 Ru1 N2 91.18(8) . . ?
N1 Ru1 N2 91.18(8) 2_656 2_656 ?
N1 Ru1 N2 88.80(8) 2_656 . ?
N1 Ru1 N2 88.81(8) . 2_656 ?
N1 Ru1 O2 89.73(6) 2_656 . ?
N1 Ru1 O2 89.73(6) . . ?
N1 Ru1 C18A 89.73(6) 2_656 . ?
N1 Ru1 C18A 89.73(6) . . ?
N2 Ru1 N2 176.92(12) . 2_656 ?
N2 Ru1 O2 88.46(6) 2_656 . ?
N2 Ru1 O2 88.46(6) . . ?
N2 Ru1 C18A 88.46(6) . . ?
N2 Ru1 C18A 88.46(6) 2_656 . ?
C18 Ru1 N1 90.27(6) . 2_656 ?
C18 Ru1 N1 90.27(6) . . ?
C18 Ru1 N2 91.54(6) . . ?
C18 Ru1 N2 91.54(6) . 2_656 ?
C18 Ru1 O2 180.0 . . ?
O2A Ru1 N1 90.27(6) . . ?
O2A Ru1 N2 91.54(6) . . ?
O2A Ru1 C18A 180.0 . . ?
C4 N1 Ru1 125.16(18) . . ?
C4 N1 C1 107.5(2) . . ?
C1 N1 Ru1 127.35(17) . . ?
C6 N2 Ru1 125.10(18) . . ?
C6 N2 C9 106.9(2) . . ?
C9 N2 Ru1 127.97(17) . . ?
O1 C18 Ru1 180.0 . . ?
C17 C11 C10 121.6(2) . . ?
C12 C11 C10 120.7(3) . . ?
C12 C11 C17 117.7(3) . . ?
C4 C3 H3 126.3 . . ?
C2 C3 H3 126.3 . . ?
C2 C3 C4 107.4(2) . . ?
C1 C10 C11 116.9(2) 2_656 . ?
C1 C10 C9 125.2(2) 2_656 . ?
C9 C10 C11 117.8(2) . . ?
C4 C5 H5 116.2 . . ?
C4 C5 C6 127.6(2) . . ?
C6 C5 H5 116.2 . . ?
N1 C4 C3 109.1(2) . . ?
N1 C4 C5 125.6(2) . . ?
C5 C4 C3 125.3(2) . . ?
N2 C6 C5 125.4(3) . . ?
N2 C6 C7 109.4(2) . . ?
C5 C6 C7 125.3(2) . . ?
C9 C8 H8 126.0 . . ?
C7 C8 H8 126.0 . . ?
C7 C8 C9 108.1(2) . . ?
N1 C1 C10 125.8(2) . 2_656 ?
N1 C1 C2 108.7(2) . . ?
C10 C1 C2 125.5(2) 2_656 . ?
C11 C17 H17 119.6 . . ?
C16 C17 C11 120.8(3) . . ?
C16 C17 H17 119.6 . . ?
C11 C12 H12 119.5 . . ?
C13 C12 C11 121.0(3) . . ?
C13 C12 H12 119.5 . . ?
C3 C2 C1 107.3(2) . . ?
C3 C2 H2 126.3 . . ?
C1 C2 H2 126.3 . . ?
C17 C16 H16 119.4 . . ?
C14 C16 C17 121.3(3) . . ?
C14 C16 H16 119.4 . . ?
N2 C9 C10 124.8(2) . . ?
N2 C9 C8 109.1(2) . . ?
C10 C9 C8 126.1(2) . . ?
C12 C13 H13 119.4 . . ?
C14 C13 C12 121.2(3) . . ?
C14 C13 H13 119.4 . . ?
C6 C7 H7 126.7 . . ?
C8 C7 C6 106.5(2) . . ?
C8 C7 H7 126.7 . . ?
C16 C14 C13 118.0(3) . . ?
C16 C14 C15 121.2(3) . . ?
C13 C14 C15 120.8(3) . . ?
C14 C15 H15A 109.5 . . ?
C14 C15 H15B 109.5 . . ?
C14 C15 H15C 109.5 . . ?
H15A C15 H15B 109.5 . . ?
H15A C15 H15C 109.5 . . ?
H15B C15 H15C 109.5 . . ?
Cl02 C19 Cl03 110.2(3) . . ?
Cl02 C19 Cl04 109.1(2) . . ?
Cl02 C19 H19 108.9 . . ?
Cl03 C19 H19 108.9 . . ?
Cl04 C19 Cl03 110.9(3) . . ?
Cl04 C19 H19 108.9 . . ?
Cl1 C19A H19A 112.3 . . ?
Cl3 C19A Cl1 107.3(9) . . ?
Cl3 C19A H19A 112.3 . . ?
Cl3 C19A Cl4 104.3(10) . . ?
Cl4 C19A Cl1 107.8(9) . . ?
Cl4 C19A H19A 112.3 . . ?
O1A C18A Ru1 180.0 . . ?
loop_
_geom_bond_atom_site_label_1
_geom_bond_atom_site_label_2
_geom_bond_distance
_geom_bond_site_symmetry_2
_geom_bond_publ_flag
Ru1 N1 2.053(2) 2_656 ?
Ru1 N1 2.053(2) . ?
Ru1 N2 2.055(2) . ?
Ru1 N2 2.055(2) 2_656 ?
Ru1 O2 2.090(4) . ?
Ru1 C18 1.988(5) . ?
Ru1 C18A 2.090(4) . ?
Ru1 O2A 1.988(5) . ?
Cl02 C19 1.760(5) . ?
Cl03 C19 1.762(5) . ?
Cl04 C19 1.760(5) . ?
N1 C4 1.372(3) . ?
N1 C1 1.375(3) . ?
N2 C6 1.373(3) . ?
N2 C9 1.376(3) . ?
C18 O1 1.077(5) . ?
C11 C10 1.503(4) . ?
C11 C17 1.392(4) . ?
C11 C12 1.390(4) . ?
C3 H3 0.9500 . ?
C3 C4 1.444(4) . ?
C3 C2 1.352(4) . ?
C10 C1 1.401(4) 2_656 ?
C10 C9 1.409(4) . ?
C5 H5 0.9500 . ?
C5 C4 1.385(4) . ?
C5 C6 1.394(4) . ?
C6 C7 1.445(4) . ?
C8 H8 0.9500 . ?
C8 C9 1.430(4) . ?
C8 C7 1.354(4) . ?
C1 C2 1.451(3) . ?
C17 H17 0.9500 . ?
C17 C16 1.386(4) . ?
C12 H12 0.9500 . ?
C12 C13 1.385(4) . ?
C2 H2 0.9500 . ?
C16 H16 0.9500 . ?
C16 C14 1.381(4) . ?
C13 H13 0.9500 . ?
C13 C14 1.384(4) . ?
C7 H7 0.9500 . ?
C14 C15 1.515(4) . ?
C15 H15A 0.9800 . ?
C15 H15B 0.9800 . ?
C15 H15C 0.9800 . ?
C19 H19 1.0000 . ?
Cl1 C19A 1.745(18) . ?
C19A H19A 1.0000 . ?
C19A Cl3 1.721(17) . ?
C19A Cl4 1.727(19) . ?
O1A C18A 1.034(8) . ?
loop_
_geom_torsion_atom_site_label_1
_geom_torsion_atom_site_label_2
_geom_torsion_atom_site_label_3
_geom_torsion_atom_site_label_4
_geom_torsion
_geom_torsion_site_symmetry_1
_geom_torsion_site_symmetry_2
_geom_torsion_site_symmetry_3
_geom_torsion_site_symmetry_4
_geom_torsion_publ_flag
Ru1 N1 C4 C3 -178.95(17) . . . . ?
Ru1 N1 C4 C5 2.6(4) . . . . ?
Ru1 N1 C1 C10 -1.7(4) . . . 2_656 ?
Ru1 N1 C1 C2 179.11(17) . . . . ?
Ru1 N2 C6 C5 0.7(4) . . . . ?
Ru1 N2 C6 C7 -178.96(17) . . . . ?
Ru1 N2 C9 C10 -3.2(4) . . . . ?
Ru1 N2 C9 C8 179.04(17) . . . . ?
N1 C1 C2 C3 0.2(3) . . . . ?
N2 C6 C7 C8 -0.2(3) . . . . ?
C11 C10 C9 N2 -178.6(2) . . . . ?
C11 C10 C9 C8 -1.3(4) . . . . ?
C11 C17 C16 C14 -0.3(4) . . . . ?
C11 C12 C13 C14 0.3(5) . . . . ?
C10 C11 C17 C16 -177.9(3) . . . . ?
C10 C11 C12 C13 177.9(3) . . . . ?
C10 C1 C2 C3 -179.0(3) 2_656 . . . ?
C5 C6 C7 C8 -179.9(3) . . . . ?
C4 N1 C1 C10 178.6(3) . . . 2_656 ?
C4 N1 C1 C2 -0.6(3) . . . . ?
C4 C3 C2 C1 0.3(3) . . . . ?
C4 C5 C6 N2 -2.1(5) . . . . ?
C4 C5 C6 C7 177.6(3) . . . . ?
C6 N2 C9 C10 177.6(2) . . . . ?
C6 N2 C9 C8 -0.1(3) . . . . ?
C6 C5 C4 N1 0.2(5) . . . . ?
C6 C5 C4 C3 -177.9(3) . . . . ?
C1 N1 C4 C3 0.8(3) . . . . ?
C1 N1 C4 C5 -177.6(3) . . . . ?
C1 C10 C9 N2 2.0(4) 2_656 . . . ?
C1 C10 C9 C8 179.4(3) 2_656 . . . ?
C17 C11 C10 C1 108.3(3) . . . 2_656 ?
C17 C11 C10 C9 -71.1(3) . . . . ?
C17 C11 C12 C13 -1.3(4) . . . . ?
C17 C16 C14 C13 -0.8(4) . . . . ?
C17 C16 C14 C15 179.5(3) . . . . ?
C12 C11 C10 C1 -70.9(3) . . . 2_656 ?
C12 C11 C10 C9 109.7(3) . . . . ?
C12 C11 C17 C16 1.3(4) . . . . ?
C12 C13 C14 C16 0.8(4) . . . . ?
C12 C13 C14 C15 -179.5(3) . . . . ?
C2 C3 C4 N1 -0.7(3) . . . . ?
C2 C3 C4 C5 177.8(3) . . . . ?
C9 N2 C6 C5 179.9(3) . . . . ?
C9 N2 C6 C7 0.2(3) . . . . ?
C9 C8 C7 C6 0.2(3) . . . . ?
C7 C8 C9 N2 -0.1(3) . . . . ?
C7 C8 C9 C10 -177.8(3) . . . . ?
