#------------------------------------------------------------------------------
#$Date: 2023-03-18 01:56:06 +0200 (Sat, 18 Mar 2023) $
#$Revision: 281938 $
#$URL: file:///home/coder/svn-repositories/cod/cif/7/71/26/7712651.cif $
#------------------------------------------------------------------------------
#
# This file is available in the Crystallography Open Database (COD),
# http://www.crystallography.net/
#
# All data on this site have been placed in the public domain by the
# contributors.
#
data_7712651
loop_
_publ_author_name
'Zhu, Zi-Yi'
'Wang, Zirui'
'Li, Qiao-Hong'
'Ma, Zhi-Zhou'
'Wang, Fei'
'Zhang, Jian'
_publ_section_title
;
 Porphyrin Metal-Organic Frameworks with Bilayer and Pillar-layered
 Frameworks for Third-order Nonlinear Optical Properties
;
_journal_name_full               'Dalton Transactions'
_journal_paper_doi               10.1039/D3DT00440F
_journal_year                    2023
_chemical_formula_moiety         'C64 H34 N8 O8 Zn3'
_chemical_formula_sum            'C64 H34 N8 O8 Zn3'
_chemical_formula_weight         1239.10
_space_group_crystal_system      monoclinic
_space_group_IT_number           15
_space_group_name_Hall           '-C 2yc'
_space_group_name_H-M_alt        'C 1 2/c 1'
_atom_sites_solution_hydrogens   geom
_atom_sites_solution_primary     dual
_audit_creation_date             2022-10-17
_audit_creation_method
;
Olex2 1.3-alpha
(compiled 2020.11.12 svn.r5f609507 for OlexSys, GUI svn.r6408)
;
_audit_update_record
;
2023-01-09 deposited with the CCDC.	2023-03-17 downloaded from the CCDC.
;
_cell_angle_alpha                90
_cell_angle_beta                 96.728(2)
_cell_angle_gamma                90
_cell_formula_units_Z            4
_cell_length_a                   23.5128(4)
_cell_length_b                   23.5272(3)
_cell_length_c                   18.2894(3)
_cell_measurement_reflns_used    17656
_cell_measurement_temperature    99.99(13)
_cell_measurement_theta_max      60.3780
_cell_measurement_theta_min      2.3230
_cell_volume                     10047.8(3)
_computing_cell_refinement       'CrysAlisPro 1.171.41.93a (Rigaku OD, 2020)'
_computing_data_collection       'CrysAlisPro 1.171.41.93a (Rigaku OD, 2020)'
_computing_data_reduction        'CrysAlisPro 1.171.41.93a (Rigaku OD, 2020)'
_computing_molecular_graphics    'Olex2 1.3-alpha (Dolomanov et al., 2009)'
_computing_publication_material  'Olex2 1.3-alpha (Dolomanov et al., 2009)'
_computing_structure_refinement  'SHELXL 2014/7 (Sheldrick, 2015)'
_computing_structure_solution    'SHELXT 2014/5 (Sheldrick, 2014)'
_diffrn_ambient_environment      N~2~
_diffrn_ambient_temperature      99.99(13)
_diffrn_detector                 'Hybrid Pixel Array Detector'
_diffrn_detector_area_resol_mean 10.0000
_diffrn_detector_type            HyPix
_diffrn_measured_fraction_theta_full 0.987
_diffrn_measured_fraction_theta_max 0.987
_diffrn_measurement_details
;
List of Runs (angles in degrees, time in seconds):

  # Type    Start    End  Width  t~exp~   \w     \q     \k     \f   Frames
#--------------------------------------------------------------------------
  1  \w     17.00  71.00   0.50    1.53    --   -1.25  24.00  43.00  108
  2  \w    -72.00 -30.00   0.50    1.53    --   -1.25 -24.00-120.00   84
  3  \w    -23.00   3.00   0.50    1.53    --   -1.25 -24.00-120.00   52
  4  \w     58.00 143.00   0.50    6.30    --   72.27  24.00  43.00  170
  5  \w     -4.00  73.00   0.50    6.30    --   72.27 -24.00-120.00  154
  6  \w   -140.00 -92.00   0.50    6.30    --  -74.77 -24.00-120.00   96
  7  \w    -12.00  38.00   0.50    1.53    --   -1.25  57.00-180.00  100
  8  \w      0.00  87.00   0.50    6.30    --   72.27 -57.00-180.00  174
  9  \w      1.00  81.00   0.50    6.30    --   72.27 -57.00 150.00  160
 10  \w    -75.00 -20.00   0.50    6.30    --  -74.77 125.00  60.00  110
 11  \w   -147.00 -87.00   0.50    6.30    --  -74.77-125.00   0.00  120
 12  \w   -106.00 -63.00   0.50    6.30    --  -74.77 125.00 120.00   86
 13  \w    -48.00 -22.00   0.50    6.30    --  -74.77 125.00 120.00   52
 14  \w   -104.00 -79.00   0.50    6.30    --  -74.77 125.00  60.00   50
 15  \w    -49.00 -24.00   0.50    6.30    --  -74.77  24.00  43.00   50
;
_diffrn_measurement_device       'four-circle diffractometer'
_diffrn_measurement_device_type  'ROD, Synergy Custom system, HyPix'
_diffrn_measurement_method       '\w scans'
_diffrn_orient_matrix_type
'CrysAlisPro convention (1999,Acta A55,543-557)'
_diffrn_orient_matrix_UB_11      0.0395914000
_diffrn_orient_matrix_UB_12      0.0140526000
_diffrn_orient_matrix_UB_13      0.0557581000
_diffrn_orient_matrix_UB_21      -0.0374038000
_diffrn_orient_matrix_UB_22      -0.0111399000
_diffrn_orient_matrix_UB_23      0.0479543000
_diffrn_orient_matrix_UB_31      0.0180248000
_diffrn_orient_matrix_UB_32      -0.0540410000
_diffrn_orient_matrix_UB_33      0.0046009000
_diffrn_radiation_monochromator  mirror
_diffrn_radiation_probe          x-ray
_diffrn_radiation_type           'Ga K\a'
_diffrn_radiation_wavelength     1.3405
_diffrn_reflns_av_R_equivalents  0.0361
_diffrn_reflns_av_unetI/netI     0.0302
_diffrn_reflns_Laue_measured_fraction_full 0.987
_diffrn_reflns_Laue_measured_fraction_max 0.987
_diffrn_reflns_limit_h_max       27
_diffrn_reflns_limit_h_min       -27
_diffrn_reflns_limit_k_max       16
_diffrn_reflns_limit_k_min       -28
_diffrn_reflns_limit_l_max       21
_diffrn_reflns_limit_l_min       -21
_diffrn_reflns_number            33925
_diffrn_reflns_point_group_measured_fraction_full 0.987
_diffrn_reflns_point_group_measured_fraction_max 0.987
_diffrn_reflns_theta_full        52.931
_diffrn_reflns_theta_max         52.931
_diffrn_reflns_theta_min         2.318
_diffrn_source                   'micro-focus metaljet'
_exptl_absorpt_coefficient_mu    0.743
_exptl_absorpt_correction_T_max  1.00000
_exptl_absorpt_correction_T_min  0.40375
_exptl_absorpt_correction_type   multi-scan
_exptl_absorpt_process_details
;
CrysAlisPro 1.171.41.93a (Rigaku Oxford Diffraction, 2020)
Empirical absorption correction using spherical harmonics,
implemented in SCALE3 ABSPACK scaling algorithm.
;
_exptl_crystal_colour            'metallic reddish red'
_exptl_crystal_colour_lustre     metallic
_exptl_crystal_colour_modifier   reddish
_exptl_crystal_colour_primary    red
_exptl_crystal_density_diffrn    0.819
_exptl_crystal_description       block
_exptl_crystal_F_000             2512
_exptl_crystal_size_max          0.1
_exptl_crystal_size_mid          0.1
_exptl_crystal_size_min          0.1
_refine_diff_density_max         2.219
_refine_diff_density_min         -0.682
_refine_diff_density_rms         0.112
_refine_ls_extinction_method     none
_refine_ls_goodness_of_fit_ref   1.055
_refine_ls_hydrogen_treatment    constr
_refine_ls_matrix_type           full
_refine_ls_number_parameters     379
_refine_ls_number_reflns         8770
_refine_ls_number_restraints     369
_refine_ls_restrained_S_all      1.534
_refine_ls_R_factor_all          0.0872
_refine_ls_R_factor_gt           0.0815
_refine_ls_shift/su_max          0.001
_refine_ls_shift/su_mean         0.000
_refine_ls_structure_factor_coef Fsqd
_refine_ls_weighting_details
'w=1/[\s^2^(Fo^2^)+(0.1433P)^2^+37.5876P] where P=(Fo^2^+2Fc^2^)/3'
_refine_ls_weighting_scheme      calc
_refine_ls_wR_factor_gt          0.2274
_refine_ls_wR_factor_ref         0.2327
_reflns_Friedel_coverage         0.000
_reflns_number_gt                7601
_reflns_number_total             8770
_reflns_threshold_expression     'I > 2\s(I)'
_cod_data_source_file            d3dt00440f2.cif
_cod_data_source_block           ZnTCPP-2
_cod_database_code               7712651
_shelx_shelxl_version_number     2014/7
_chemical_oxdiff_formula         'Zn C N O'
_shelx_space_group_comment
;
The symmetry employed for this shelxl refinement is uniquely defined
by the following loop, which should always be used as a source of
symmetry information in preference to the above space-group names.
They are only intended as comments.
;
_shelx_estimated_absorpt_t_max   0.929
_shelx_estimated_absorpt_t_min   0.929
_reflns_odcompleteness_completeness 99.88
_reflns_odcompleteness_iscentric 1
_reflns_odcompleteness_theta     56.82
_olex2_refinement_description
;
1. Fixed Uiso
 At 1.2 times of:
  All C(H) groups
2. Uiso/Uaniso restraints and constraints
Uanis(Zn02) \\sim Ueq: with sigma of 0.001 and sigma for terminal atoms of 0.002
3. Rigid body (RIGU) restrains
 Zn02, Zn01, N007, O003, C00M, C00U, C00C, C00K, N00A, C00T, C019, C00D, H00K,
 C01A, H019, C01B, C00Y, H01A, C01C, H01B, C00W, H00Y, H01C, C00I, H00W, C014,
 C011, N00B, C016, C015, H016, C018, N008, C010, H018, C00G, C00S, C00V, C00L,
 C00N, C00O, C00X, C013, C00E, H00N, H00O, H00X, C012, C00Z, H013, C00P, H012,
 C00Q, H00Z, H00P, C00R, C00H, C00J, H00R, O004, O005, C00F, O006
 with sigma for 1-2 distances of 0.01 and sigma for 1-3 distances of 0.02
 Zn02, C014, C00I, C00W
 with sigma for 1-2 distances of 0.001 and sigma for 1-3 distances of 0.002
4.a Aromatic/amide H refined with riding coordinates:
 C00K(H00K), C00N(H00N), C00O(H00O), C00P(H00P), C00R(H00R), C00W(H00W),
 C00X(H00X), C00Y(H00Y), C00Z(H00Z), C012(H012), C013(H013), C016(H016),
 C018(H018), C019(H019), C01A(H01A), C01B(H01B), C01C(H01C)
;
_smtbx_masks_void_probe_radius   1.2
_smtbx_masks_void_truncation_radius 1.2
_shelx_res_file
;
    hy.res created by SHELXL-2014/7

TITL hy_a.res in C2/c
REM Old TITL HY in C2/c
REM SHELXT solution in C2/c
REM R1 0.253, Rweak 0.018, Alpha 0.065, Orientation as input
REM Formula found by SHELXT: C68 N10 O14 Zn3
CELL 1.3405 23.5128 23.5272 18.2894 90 96.728 90
ZERR 4 0.0004 0.0003 0.0003 0 0.002 0
LATT 7
SYMM -X,+Y,0.5-Z
SFAC C H N O Zn
DISP C 0.0137 0.0067 57.1
DISP H 0 0 0.6
DISP N 0.0241 0.0134 109.9
DISP O 0.0389 0.0241 193.4
DISP Zn -2.7473 0.5279 4188.7
UNIT 256 136 32 32 12
RIGU 0.01 0.02 Zn02 Zn01 N007 O003 C00M C00U C00C C00K N00A C00T C019 C00D =
 H00K C01A H019 C01B C00Y H01A C01C H01B C00W H00Y H01C C00I H00W C014 C011 =
 N00B C016 C015 H016 C018 N008 C010 H018 C00G C00S C00V C00L C00N C00O C00X =
 C013 C00E H00N H00O H00X C012 C00Z H013 C00P H012 C00Q H00Z H00P C00R C00H =
 C00J H00R O004 O005 C00F O006
ISOR 0.001 0.002 Zn02
RIGU 0.001 0.002 Zn02 C014 C00I C00W

L.S. 50
PLAN  10
SIZE 0.1 0.1 0.1
TEMP -173
CONF
list 4
MORE -1
BOND $H
fmap 2 53
acta
ABIN
SHEL 999 0.84
OMIT -4 0 4
OMIT 3 7 0
OMIT -3 13 3
OMIT -3 3 4
OMIT 0 2 4
OMIT 1 3 1
OMIT -2 2 4
OMIT 6 2 7
OMIT 8 2 7
OMIT 5 7 13
OMIT -10 0 6
OMIT -1 5 5
OMIT -8 4 7
OMIT -2 2 2
OMIT -6 2 7
OMIT -2 8 4
OMIT -4 6 3
OMIT 1 1 1
OMIT -9 3 3
OMIT 7 7 13
OMIT -6 12 7
OMIT -3 1 1
OMIT -8 0 6
OMIT -2 0 8
OMIT -6 0 6
OMIT 1 1 3
OMIT 3 1 1
OMIT 0 2 0
OMIT 0 20 7
OMIT 1 1 4
OMIT -3 9 3
OMIT 7 7 0
OMIT -1 1 1
OMIT 11 3 2
OMIT -4 4 2
OMIT 9 9 7
OMIT 5 9 1
OMIT -6 22 6
OMIT 0 0 8
OMIT -3 7 6
OMIT 8 4 1
OMIT 0 2 9
OMIT 1 7 0
OMIT 2 8 0
OMIT -3 1 4
OMIT 9 1 0
OMIT 7 1 13
OMIT -13 7 1
OMIT -12 0 6
OMIT 4 6 7
OMIT 3 9 1
OMIT -6 6 2
OMIT 9 3 0
OMIT 1 9 1
OMIT 6 4 1
OMIT 0 8 4
OMIT -1 3 4
OMIT -3 3 2
OMIT 2 2 3
OMIT -3 3 1
OMIT 7 3 2
OMIT -1 1 2
OMIT 11 7 13
OMIT 2 4 0
OMIT -2 4 10
OMIT 2 4 7
OMIT 10 8 13
OMIT 0 0 2
OMIT 19 3 0
OMIT -7 5 2
OMIT -3 1 2
OMIT 9 1 7
OMIT 13 7 13
OMIT -5 1 4
OMIT 9 3 7
OMIT 0 16 7
OMIT 1 21 0
OMIT -1 5 4
OMIT 4 4 2
OMIT -6 0 10
OMIT 11 19 6
OMIT 6 8 13
OMIT 11 5 3
OMIT -4 12 6
OMIT 3 1 5
OMIT 0 4 3
OMIT 0 4 7
OMIT 2 0 2
OMIT 6 4 0
OMIT -5 7 4
OMIT 5 5 0
OMIT -9 1 3
OMIT 0 2 1
OMIT 9 1 2
OMIT 12 4 3
OMIT -7 1 1
OMIT 4 8 7
OMIT 6 6 0
OMIT 0 12 6
OMIT -6 4 7
OMIT 6 10 14
OMIT 12 12 3
OMIT 1 9 4
OMIT -8 22 6
OMIT 1 3 2
OMIT -1 3 3
OMIT 11 5 8
OMIT -1 11 5
OMIT 9 19 6
OMIT -8 12 7
OMIT -6 26 6
OMIT -6 6 4
OMIT 14 0 6
OMIT -8 16 7
OMIT 3 15 13
REM <olex2.extras>
REM <HklSrc "%.\\HY.hkl">
REM </olex2.extras>

WGHT    0.143300   37.587601
FVAR       0.12060
ZN01  5    0.510698    0.114270    0.331733    11.00000    0.02076    0.00904 =
         0.03218    0.00103    0.00445   -0.00046
ZN02  5    0.500000    0.613918    0.250000    10.50000    0.01905    0.01125 =
         0.14091    0.00000    0.00546    0.00000
O003  4    0.492456    0.197135    0.309457    11.00000    0.02859    0.01133 =
         0.04036   -0.00142    0.00670   -0.00005
O004  4    0.924426    0.598356    0.318595    11.00000    0.01776    0.01761 =
         0.04737    0.00803    0.00142   -0.00199
O005  4    0.909839    0.630921    0.203043    11.00000    0.01874    0.02070 =
         0.04119    0.00206    0.00695    0.00501
O006  4    0.522068    1.030797    0.307243    11.00000    0.02326    0.01177 =
         0.04821    0.00075    0.00022    0.00146
N007  3    0.536453    0.114067    0.440937    11.00000    0.01920    0.01542 =
         0.04287    0.00178   -0.00009   -0.00186
N008  3    0.561929    0.675563    0.259897    11.00000    0.01741    0.00946 =
         0.05772   -0.00240    0.00735   -0.00044
N00A  3    0.561856    0.086438    0.556049    11.00000    0.03409    0.02520 =
         0.03481    0.00612    0.00070   -0.00612
N00B  3    0.561640    0.552597    0.258899    11.00000    0.01698    0.01088 =
         0.07185   -0.00019    0.00204    0.00018
C00C  1    0.500000    0.222035    0.250000    10.50000    0.01685    0.01262 =
         0.03953    0.00000    0.00268    0.00000
C00D  1    0.500000    0.285299    0.250000    10.50000    0.02368    0.01247 =
         0.04261    0.00000    0.00297    0.00000
C00E  1    0.500000    0.823455    0.250000    10.50000    0.01774    0.01767 =
         0.04747    0.00000    0.00653    0.00000
C00F  1    0.500000    1.006262    0.250000    10.50000    0.01282    0.01428 =
         0.04030    0.00000    0.00338    0.00000
C00G  1    0.553084    0.732634    0.260387    11.00000    0.02191    0.01029 =
         0.04827    0.00067    0.00273   -0.00173
C00H  1    0.892816    0.615821    0.262856    11.00000    0.02228    0.01570 =
         0.04304    0.00103    0.00425    0.00337
C00I  1    0.500000    0.404049    0.250000    10.50000    0.01658    0.01822 =
         0.06633    0.00000    0.00282    0.00000
C00J  1    0.500000    0.942610    0.250000    10.50000    0.02106    0.00692 =
         0.04439    0.00000    0.00333    0.00000
C00K  1    0.500799    0.021250    0.475691    11.00000    0.05362    0.02350 =
         0.04174    0.00324    0.00332   -0.01283
AFIX  43
H00K  2    0.479108    0.017140    0.428799    11.00000   -1.20000
AFIX   0
C00L  1    0.500000    0.760680    0.250000    10.50000    0.02211    0.01074 =
         0.04531    0.00000    0.00244    0.00000
C00M  1    0.533560    0.073058    0.490237    11.00000    0.02496    0.02120 =
         0.03925    0.00429    0.00937    0.00344
C00N  1    0.608120    0.761703    0.270615    11.00000    0.02099    0.01356 =
         0.05990    0.00008    0.00402   -0.00208
AFIX  43
H00N  2    0.614206    0.801584    0.273940    11.00000   -1.20000
AFIX   0
C00O  1    0.649192    0.720606    0.274490    11.00000    0.02364    0.01795 =
         0.06104    0.00059    0.00553   -0.00172
AFIX  43
H00O  2    0.689457    0.726384    0.280515    11.00000   -1.20000
AFIX   0
C00P  1    0.521520    0.853540    0.313718    11.00000    0.03634    0.01888 =
         0.04452    0.00326    0.00171   -0.00017
AFIX  43
H00P  2    0.535235    0.833660    0.357466    11.00000   -1.20000
AFIX   0
C00Q  1    0.829119    0.616317    0.264668    11.00000    0.01923    0.02243 =
         0.04827   -0.00018    0.00290   -0.00020
C00R  1    0.522571    0.912565    0.312201    11.00000    0.02680    0.01710 =
         0.04393   -0.00118   -0.00206   -0.00131
AFIX  43
H00R  2    0.539015    0.932780    0.354440    11.00000   -1.20000
AFIX   0
C00S  1    0.620141    0.667092    0.267758    11.00000    0.02024    0.01672 =
         0.04823    0.00128   -0.00017   -0.00051
C00T  1    0.585871    0.138990    0.548945    11.00000    0.03910    0.02521 =
         0.04002   -0.00107   -0.00218   -0.00592
C00U  1    0.570409    0.156703    0.477140    11.00000    0.03857    0.01921 =
         0.03690    0.00062   -0.00093   -0.01211
C00V  1    0.711170    0.614845    0.269805    11.00000    0.02449    0.01286 =
         0.06804    0.00042    0.00939    0.00480
C00W  1    0.492252    0.374590    0.313143    11.00000    0.06059    0.01169 =
         0.06443   -0.00689    0.01599    0.00394
AFIX  43
H00W  2    0.486554    0.394902    0.356584    11.00000   -1.20000
AFIX   0
C00X  1    0.733747    0.632354    0.206203    11.00000    0.01986    0.04404 =
         0.05874    0.00782    0.00234    0.00462
AFIX  43
H00X  2    0.708898    0.643539    0.163930    11.00000   -1.20000
AFIX   0
C00Y  1    0.492663    0.315346    0.314126    11.00000    0.06408    0.01256 =
         0.04662    0.00047    0.01040    0.00429
AFIX  43
H00Y  2    0.487972    0.295472    0.358236    11.00000   -1.20000
AFIX   0
C00Z  1    0.806898    0.599795    0.329008    11.00000    0.02625    0.04344 =
         0.04862    0.01063    0.00701    0.00231
AFIX  43
H00Z  2    0.831724    0.589109    0.371534    11.00000   -1.20000
AFIX   0
C010  1    0.647393    0.614067    0.268839    11.00000    0.02124    0.01559 =
         0.06208   -0.00426    0.00409    0.00101
C011  1    0.553190    0.495325    0.257638    11.00000    0.01808    0.01325 =
         0.07966    0.00270    0.00504    0.00555
C012  1    0.792722    0.633350    0.205001    11.00000    0.02026    0.03958 =
         0.05349    0.00926    0.00406    0.00177
AFIX  43
H012  2    0.807959    0.646077    0.162002    11.00000   -1.20000
AFIX   0
C013  1    0.747746    0.599261    0.329723    11.00000    0.02107    0.03828 =
         0.06226    0.00729    0.01242   -0.00380
AFIX  43
H013  2    0.732485    0.587704    0.373221    11.00000   -1.20000
AFIX   0
C014  1    0.500000    0.467504    0.250000    10.50000    0.02237    0.01804 =
         0.05926    0.00000    0.00829    0.00000
C015  1    0.619629    0.561120    0.265368    11.00000    0.01641    0.01736 =
         0.07581    0.00044    0.00834    0.00281
C016  1    0.607592    0.466935    0.262231    11.00000    0.02798    0.01347 =
         0.11468    0.00039    0.00880    0.00815
AFIX  43
H016  2    0.613243    0.426981    0.261003    11.00000   -1.20000
AFIX   0
C018  1    0.649115    0.506458    0.268556    11.00000    0.01757    0.01458 =
         0.11336   -0.00448    0.00989    0.00378
AFIX  43
H018  2    0.689293    0.500133    0.273974    11.00000   -1.20000
AFIX   0
C019  1    0.588729    0.208734    0.451630    11.00000    0.08087    0.02574 =
         0.04944    0.00543   -0.00425   -0.02305
AFIX  43
H019  2    0.579832    0.220294    0.401835    11.00000   -1.20000
AFIX   0
C01A  1    0.617105    0.174438    0.601383    11.00000    0.06591    0.04290 =
         0.04599    0.00592   -0.01683   -0.02163
AFIX  43
H01A  2    0.626477    0.163042    0.651168    11.00000   -1.20000
AFIX   0
C01B  1    0.620383    0.242232    0.502785    11.00000    0.12661    0.04093 =
         0.05896    0.01309   -0.02630   -0.05468
AFIX  43
H01B  2    0.634161    0.277740    0.487475    11.00000   -1.20000
AFIX   0
C01C  1    0.633126    0.226167    0.576445    11.00000    0.11517    0.04939 =
         0.06116    0.00526   -0.03613   -0.04738
AFIX  43
H01C  2    0.653444    0.251838    0.610076    11.00000   -1.20000
AFIX   0
HKLF 4

REM  hy_a.res in C2/c
REM R1 =  0.0815 for    7601 Fo > 4sig(Fo)  and  0.0872 for all    8770 data
REM    379 parameters refined using    369 restraints

END

WGHT      0.1431     37.6473

REM Highest difference peak  2.219,  deepest hole -0.682,  1-sigma level  0.112
Q1    1   0.4990  0.1165  0.4792  11.00000  0.05    2.22
Q2    1   0.5004  0.6180  0.2130  11.00000  0.05    1.41
Q3    1   0.5033  0.8835  0.3663  11.00000  0.05    1.39
Q4    1   0.5218  0.1154  0.3805  11.00000  0.05    1.24
Q5    1   0.4799  0.1173  0.3309  11.00000  0.05    0.91
Q6    1   0.5056  0.3846  0.2934  11.00000  0.05    0.79
Q7    1   0.4975  0.3844  0.3607  11.00000  0.05    0.65
Q8    1   0.5015  0.1142  0.2787  11.00000  0.05    0.57
Q9    1   0.7071  0.6206  0.1485  11.00000  0.05    0.54
Q10   1   0.4964  0.8842  0.2835  11.00000  0.05    0.53
;
_shelx_res_checksum              61261
_shelx_fab_file
;
-27 1 1 -4.7671 -0.3907
-27 1 2 2.1068 0.4309
-27 1 3 0.5676 -0.1568
-27 1 4 2.4652 -0.3406
-27 1 5 2.0858 0.3455
-27 1 6 -7.2046 -0.0372
-27 1 7 2.9275 -0.0162
-27 1 8 3.4883 0.1335
-27 3 1 1.7962 0.2759
-27 3 2 -3.6642 0.0153
-27 3 3 -2.5494 -0.1738
-27 3 4 1.3205 0.2115
-27 3 5 1.8323 0.0209
-27 3 6 -11.7074 -0.1049
-27 3 7 -3.2316 -0.0168
-27 5 1 -5.7529 -0.0163
-27 5 2 0.8626 -0.0009
-27 5 3 7.3154 0.0730
-27 5 4 3.0486 -0.0939
-27 5 5 7.4670 0.1134
-27 5 6 -1.2405 0.0972
-27 7 1 -7.1600 0.3151
-27 7 2 0.4471 0.0885
-27 7 3 3.2081 -0.1542
-27 7 4 5.6874 0.0605
-26 0 2 -11.0285 0.4932
-26 0 4 -5.8219 -0.3725
-26 0 6 5.7185 0.0368
-26 0 8 -1.8353 0.3273
-26 0 10 5.5916 -0.4629
-26 2 1 6.0741 -0.0611
-26 2 2 -9.3389 -0.2523
-26 2 3 -4.6655 -0.0375
-26 2 4 6.9390 -0.1129
-26 2 5 -3.2826 0.2107
-26 2 6 7.6608 0.0880
-26 2 7 2.6886 0.0049
-26 2 8 0.4324 0.0254
-26 2 9 0.4634 -0.2263
-26 2 10 3.5196 -0.0742
-26 4 1 -2.0768 -0.0318
-26 4 2 -3.1538 0.1096
-26 4 3 -9.8863 -0.0269
-26 4 4 6.5714 -0.1488
-26 4 5 -4.5602 -0.0513
-26 4 6 4.7607 0.0558
-26 4 7 1.4855 -0.1011
-26 4 8 -7.1414 0.2432
-26 4 9 -2.5583 0.1313
-26 6 1 -0.3960 -0.0557
-26 6 2 -10.0405 -0.0208
-26 6 3 -6.4137 -0.0426
-26 6 4 -0.5183 -0.0727
-26 6 5 4.9795 0.0787
-26 6 6 3.4612 -0.0084
-26 6 7 -0.9669 0.0403
-26 6 8 1.1104 0.0083
-26 8 1 7.2110 -0.0241
-26 8 2 2.8750 -0.0546
-26 8 3 -2.5738 0.0462
-26 8 4 -7.7295 0.0874
-26 8 5 0.1321 0.1013
-26 8 6 -1.1486 0.0155
-26 8 7 4.0885 -0.1346
-26 10 1 3.8399 -0.1528
-26 10 2 1.2803 0.0357
-26 10 3 -2.9236 0.2198
-26 10 4 -4.6105 0.0897
-25 1 1 -4.6474 -0.3565
-25 1 2 9.9625 0.2134
-25 1 3 -1.3586 -0.3379
-25 1 4 -8.8793 -0.2348
-25 1 5 -1.4033 0.2596
-25 1 6 0.6226 -0.0173
-25 1 7 1.5463 0.1331
-25 1 8 4.2468 0.1811
-25 1 9 1.3379 -0.3537
-25 1 10 -5.8200 -0.1392
-25 1 11 9.7674 0.0469
-25 3 1 0.3589 -0.0025
-25 3 2 8.0533 0.0666
-25 3 3 5.1666 0.0962
-25 3 4 -3.2949 -0.0395
-25 3 5 -3.5813 -0.0210
-25 3 6 8.5267 -0.0117
-25 3 7 -3.8094 0.0080
-25 3 8 4.3394 0.0149
-25 3 9 4.4672 -0.0462
-25 3 10 -7.4511 0.1116
-25 3 11 0.3557 -0.0398
-25 5 1 -6.6104 0.0897
-25 5 2 -5.4848 -0.0363
-25 5 3 8.9566 -0.0022
-25 5 4 -3.1506 -0.0996
-25 5 5 -6.4147 0.0081
-25 5 6 2.2066 0.0439
-25 5 7 2.7168 0.0756
-25 5 8 -0.4952 -0.0437
-25 5 9 5.6681 -0.0034
-25 5 10 -7.1414 -0.0605
-25 5 11 -4.2303 -0.0260
-25 7 1 -2.1763 -0.0437
-25 7 2 5.2382 0.0292
-25 7 3 0.4582 0.1762
-25 7 4 -2.6650 0.0364
-25 7 5 -1.4415 -0.1037
-25 7 6 -6.2696 -0.0306
-25 7 7 -5.0858 -0.1515
-25 7 8 7.3655 -0.0663
-25 7 9 2.5532 0.0855
-25 7 10 7.3999 0.0943
-25 9 1 -6.5573 0.0517
-25 9 2 11.2315 0.1566
-25 9 3 1.6710 -0.0534
-25 9 4 0.6843 -0.1838
-25 9 5 -1.1329 0.0013
-25 9 6 -4.7835 0.0877
-25 9 7 0.4316 0.0348
-25 9 8 1.2954 0.0896
-25 9 9 5.1927 0.0628
-25 11 1 -5.6393 0.0009
-25 11 2 0.9972 0.0400
-25 11 3 1.4821 -0.1617
-25 11 4 -1.2163 -0.0218
-25 11 5 -2.0262 -0.0286
-25 11 6 1.9851 0.1216
-25 11 7 -1.9499 0.1018
-24 0 2 7.1734 0.6613
-24 0 4 6.3426 -0.4031
-24 0 6 -5.4648 -0.0285
-24 0 8 -2.0148 0.3583
-24 0 10 9.9248 -0.4944
-24 0 12 -4.6969 -0.0553
-24 2 1 -5.7489 -0.0654
-24 2 2 -5.4077 -0.1233
-24 2 3 -2.6412 -0.1213
-24 2 4 9.3834 -0.0767
-24 2 5 5.0236 0.2747
-24 2 6 -8.6677 0.0072
-24 2 7 0.6879 -0.0250
-24 2 8 -1.2292 -0.0031
-24 2 9 -8.7729 -0.0752
-24 2 10 8.6885 -0.0461
-24 2 11 0.9732 0.1243
-24 2 12 -4.8298 0.0708
-24 2 13 -4.7782 0.0351
-24 4 1 1.9277 -0.0100
-24 4 2 -2.9724 0.2241
-24 4 3 -0.2148 -0.0444
-24 4 4 2.7179 -0.1818
-24 4 5 -1.6314 -0.1227
-24 4 6 3.5300 0.0437
-24 4 7 -8.3159 -0.0261
-24 4 8 4.9503 0.1834
-24 4 9 2.5675 0.0605
-24 4 10 0.3571 -0.1493
-24 4 11 3.7420 0.0343
-24 4 12 0.9149 -0.2403
-24 6 1 1.0378 -0.1333
-24 6 2 -4.1289 -0.0217
-24 6 3 4.8980 -0.0146
-24 6 4 11.7560 0.0020
-24 6 5 -4.9273 0.1148
-24 6 6 2.9887 -0.0084
-24 6 7 -13.0961 -0.0238
-24 6 8 -0.4640 0.0571
-24 6 9 -0.1097 -0.0998
-24 6 10 5.9984 -0.0502
-24 6 11 1.9220 -0.0231
-24 6 12 -0.3475 -0.0173
-24 8 1 -3.8045 0.1299
-24 8 2 -1.8193 0.0077
-24 8 3 1.3767 -0.0020
-24 8 4 7.6983 0.0396
-24 8 5 6.5855 -0.0656
-24 8 6 -2.2154 -0.0260
-24 8 7 0.7258 0.1381
-24 8 8 -4.6525 -0.0098
-24 8 9 1.9447 -0.0488
-24 8 10 10.5872 -0.0212
-24 8 11 4.8120 -0.0380
-24 10 1 -3.0302 0.0828
-24 10 2 -1.5772 -0.0957
-24 10 3 -9.9828 0.1256
-24 10 4 2.3061 0.0617
-24 10 5 4.3501 -0.0971
-24 10 6 -3.0285 0.0115
-24 10 7 4.0753 -0.1360
-24 10 8 -6.2008 -0.1545
-24 10 9 -1.5072 0.1341
-24 10 10 -1.9721 0.0783
-24 12 1 -2.0495 -0.0416
-24 12 2 -3.7530 0.0349
-24 12 3 -11.6135 0.0602
-24 12 4 5.7515 -0.0481
-24 12 5 3.9588 -0.0178
-24 12 6 4.6324 -0.0898
-24 12 7 7.0320 0.0679
-24 12 8 0.2617 0.0896
-24 14 1 -2.0930 0.1736
-24 14 2 1.4378 0.1745
-24 14 3 -4.3638 -0.1114
-24 14 4 -1.3812 -0.1373
-23 1 1 -10.1203 -0.2536
-23 1 2 -12.9343 0.2588
-23 1 3 -4.2074 -0.3596
-23 1 4 -0.5974 -0.3625
-23 1 5 -2.4765 0.1419
-23 1 6 4.5293 0.0571
-23 1 7 8.1175 0.1923
-23 1 8 -4.8049 0.2890
-23 1 9 0.9927 -0.1828
-23 1 10 -5.3148 -0.1136
-23 1 11 -4.7812 0.0874
-23 1 12 8.0361 -0.2137
-23 1 13 -0.7913 0.2367
-23 1 14 -1.8895 0.1106
-23 3 1 7.6511 -0.0234
-23 3 2 0.3585 -0.0310
-23 3 3 -13.2678 0.0489
-23 3 4 4.4231 -0.0633
-23 3 5 7.7432 0.0275
-23 3 6 1.8821 0.0498
-23 3 7 11.1316 -0.0071
-23 3 8 3.1601 0.0657
-23 3 9 -0.3154 -0.0898
-23 3 10 -0.3516 -0.0055
-23 3 11 -0.2288 -0.0293
-23 3 12 4.9439 -0.0071
-23 3 13 0.5352 0.2345
-23 3 14 0.4041 -0.0636
-23 5 1 5.0081 0.0129
-23 5 2 -1.5464 -0.0746
-23 5 3 4.2333 0.0798
-23 5 4 -11.7083 -0.0831
-23 5 5 2.2112 -0.0082
-23 5 6 6.7303 0.0095
-23 5 7 -0.2085 0.0602
-23 5 8 3.1790 0.0460
-23 5 9 1.9708 0.0102
-23 5 10 -9.1443 -0.0471
-23 5 11 1.1462 -0.0088
-23 5 12 2.5170 0.1282
-23 5 13 -2.1592 -0.1458
-23 7 1 1.8889 0.0192
-23 7 2 -10.8091 0.0579
-23 7 3 4.4880 0.0390
-23 7 4 -10.0649 -0.0668
-23 7 5 -5.4343 -0.0339
-23 7 6 7.6393 -0.0268
-23 7 7 0.5848 -0.1115
-23 7 8 -3.3654 0.0768
-23 7 9 3.2061 0.0567
-23 7 10 -10.4299 0.0073
-23 7 11 1.2879 0.0843
-23 7 12 2.5946 -0.1936
-23 7 13 6.7379 -0.0701
-23 9 1 8.5840 -0.1264
-23 9 2 4.4589 -0.0811
-23 9 3 1.5632 -0.0504
-23 9 4 -7.4387 -0.0044
-23 9 5 -1.2248 0.1052
-23 9 6 -6.5195 0.0625
-23 9 7 13.5689 0.0290
-23 9 8 -5.2806 0.0916
-23 9 9 2.5970 -0.1249
-23 9 10 -4.5397 -0.1134
-23 9 11 -4.8477 -0.1344
-23 9 12 3.6965 0.0260
-23 11 1 5.7201 0.1029
-23 11 2 2.2560 0.1330
-23 11 3 -0.8844 -0.0600
-23 11 4 -6.4927 0.0241
-23 11 5 -9.0559 0.0002
-23 11 6 1.1190 -0.0013
-23 11 7 4.3783 0.0700
-23 11 8 1.8692 -0.0581
-23 11 9 1.4434 -0.1920
-23 11 10 0.1546 0.0066
-23 11 11 -9.9626 0.0328
-23 13 1 8.1828 0.0159
-23 13 2 -3.0800 -0.1565
-23 13 3 8.7185 -0.0665
-23 13 4 2.9221 0.1373
-23 13 5 -6.5432 0.0513
-23 13 6 -1.7125 -0.0647
-23 13 7 0.1012 0.0216
-23 13 8 2.8520 -0.0680
-23 13 9 5.1339 -0.0620
-23 15 1 3.6584 -0.0491
-23 15 2 -5.2732 0.0244
-23 15 3 4.6277 0.0070
-23 15 4 -2.5807 -0.0161
-23 15 5 0.7790 -0.0004
-23 15 6 -4.4882 -0.0890
-22 0 2 15.5746 0.8173
-22 0 4 -11.4266 -0.4330
-22 0 6 -0.8543 -0.0184
-22 0 8 9.4254 0.3533
-22 0 10 -4.8709 -0.4263
-22 0 12 -3.5824 0.0026
-22 0 14 5.0219 0.4696
-22 2 1 -2.1415 -0.1516
-22 2 2 2.5641 -0.1548
-22 2 3 0.5752 -0.1876
-22 2 4 -1.8725 -0.1284
-22 2 5 -5.5770 0.4023
-22 2 6 -3.6758 -0.0077
-22 2 7 2.0082 -0.0397
-22 2 8 0.6002 -0.0332
-22 2 9 7.0785 -0.2387
-22 2 10 -3.5934 0.0418
-22 2 11 -3.5095 0.2083
-22 2 12 -4.7171 0.0837
-22 2 13 2.4813 -0.0352
-22 2 14 1.4108 -0.0434
-22 2 15 6.1158 -0.2372
-22 4 1 -8.6605 0.0021
-22 4 2 10.0619 0.2592
-22 4 3 0.4206 0.0024
-22 4 4 6.8404 -0.1155
-22 4 5 3.8836 -0.1284
-22 4 6 -6.0533 -0.0477
-22 4 7 7.6989 -0.0033
-22 4 8 -4.3090 0.1215
-22 4 9 2.2931 0.0687
-22 4 10 5.6984 -0.0585
-22 4 11 -2.2412 -0.0012
-22 4 12 0.2981 -0.1850
-22 4 13 -1.8224 -0.0595
-22 4 14 8.1099 0.2045
-22 4 15 -2.8554 0.0464
-22 6 1 -4.4975 -0.0064
-22 6 2 0.7003 -0.0141
-22 6 3 6.0899 -0.0298
-22 6 4 3.3441 -0.0042
-22 6 5 5.3787 0.0627
-22 6 6 0.6593 -0.0038
-22 6 7 -4.6000 -0.0384
-22 6 8 9.6120 -0.0094
-22 6 9 -7.2983 -0.0801
-22 6 10 -5.0239 0.0283
-22 6 11 -1.4136 0.0178
-22 6 12 -5.8263 0.1062
-22 6 13 1.0030 0.1233
-22 6 14 2.2523 -0.0443
-22 8 1 -1.1206 0.1337
-22 8 2 4.1929 -0.0394
-22 8 3 1.8867 0.0452
-22 8 4 -3.3926 -0.0057
-22 8 5 0.1058 -0.0730
-22 8 6 -4.2106 -0.0144
-22 8 7 -7.0455 0.0910
-22 8 8 5.9394 -0.0201
-22 8 9 0.9492 0.1251
-22 8 10 3.8790 -0.0306
-22 8 11 0.0430 -0.0633
-22 8 12 3.4864 0.0947
-22 8 13 -4.4923 -0.0424
-22 10 1 -7.3074 0.0870
-22 10 2 15.2876 -0.0710
-22 10 3 -0.0219 -0.0033
-22 10 4 -0.9672 0.0327
-22 10 5 0.3011 -0.0927
-22 10 6 -7.5706 0.0783
-22 10 7 -15.4594 -0.0457
-22 10 8 1.5774 -0.1013
-22 10 9 2.8592 0.1198
-22 10 10 -1.5130 0.0164
-22 10 11 4.7768 0.0554
-22 10 12 1.6394 0.0712
-22 12 1 -16.0673 -0.0336
-22 12 2 0.9127 -0.0546
-22 12 3 5.8143 0.0161
-22 12 4 -0.8179 -0.0788
-22 12 5 -1.3027 0.0169
-22 12 6 3.0302 0.0574
-22 12 7 -12.9286 -0.0237
-22 12 8 -6.4117 0.1200
-22 12 9 6.2535 0.0916
-22 12 10 4.2891 -0.1086
-22 12 11 2.0478 0.0580
-22 14 1 -4.3824 -0.0620
-22 14 2 -2.5016 0.0408
-22 14 3 6.7578 0.0078
-22 14 4 3.8474 -0.0422
-22 14 5 -5.4279 -0.0157
-22 14 6 3.2590 -0.0036
-22 14 7 -9.9982 -0.0181
-22 14 8 -0.6732 0.1896
-22 14 9 0.9177 -0.0132
-22 16 1 -4.4643 0.0044
-22 16 2 -1.1545 -0.0280
-22 16 3 5.9179 -0.0310
-22 16 4 0.3419 0.0162
-22 16 5 13.0429 0.1033
-22 16 6 -0.6444 0.0229
-22 16 7 9.9134 -0.1319
-21 1 1 2.0290 -0.2214
-21 1 2 0.1428 0.4424
-21 1 3 0.0674 -0.5530
-21 1 4 0.5896 -0.3913
-21 1 5 7.1638 0.2522
-21 1 6 -1.8377 0.0972
-21 1 7 -2.4377 0.2647
-21 1 8 3.3218 0.3270
-21 1 9 6.9909 -0.1898
-21 1 10 9.2856 -0.2921
-21 1 11 10.7316 -0.0109
-21 1 12 2.0103 -0.1540
-21 1 13 5.2293 0.1473
-21 1 14 5.2799 0.3181
-21 1 15 5.2802 -0.2755
-21 1 16 5.0260 -0.0340
-21 3 1 10.0549 0.0011
-21 3 2 -8.0048 0.0314
-21 3 3 4.6678 0.1177
-21 3 4 6.2122 -0.0356
-21 3 5 -1.8496 -0.0035
-21 3 6 10.4276 0.0474
-21 3 7 -3.2850 -0.0412
-21 3 8 -14.9815 0.0221
-21 3 9 3.7394 -0.0980
-21 3 10 0.9012 -0.0086
-21 3 11 1.0466 0.0607
-21 3 12 -1.5562 -0.0159
-21 3 13 -1.7274 0.0753
-21 3 14 -2.8388 0.0408
-21 3 15 2.8143 -0.0648
-21 3 16 4.5039 0.0138
-21 5 1 4.7956 -0.0127
-21 5 2 -15.6230 -0.0052
-21 5 3 -8.8045 -0.0843
-21 5 4 9.6166 -0.1793
-21 5 5 -8.1514 0.1064
-21 5 6 -0.4359 -0.0305
-21 5 7 5.9641 0.0596
-21 5 8 -14.6480 0.1313
-21 5 9 -6.2164 -0.0198
-21 5 10 1.7892 -0.1458
-21 5 11 0.4805 0.0143
-21 5 12 1.2231 0.0744
-21 5 13 7.0199 -0.0402
-21 5 14 -3.8298 0.0786
-21 5 15 -1.8377 0.0476
-21 7 1 13.6303 -0.0176
-21 7 2 1.9510 0.0541
-21 7 3 -0.1543 -0.0079
-21 7 4 -5.5859 0.0067
-21 7 5 6.8388 -0.0295
-21 7 6 -14.1620 0.0632
-21 7 7 10.6354 -0.0865
-21 7 8 -8.8115 0.0241
-21 7 9 2.3972 0.0180
-21 7 10 3.0288 -0.0727
-21 7 11 1.4815 0.0673
-21 7 12 0.6468 -0.0069
-21 7 13 5.4548 -0.1041
-21 7 14 -3.3618 0.0432
-21 7 15 0.2329 -0.0322
-21 9 1 6.5636 -0.0393
-21 9 2 -2.3619 -0.0046
-21 9 3 6.7833 0.0260
-21 9 4 6.1461 -0.1112
-21 9 5 0.6380 0.0938
-21 9 6 -0.5647 0.0864
-21 9 7 5.2501 -0.0997
-21 9 8 -3.8106 0.0425
-21 9 9 3.4768 -0.0790
-21 9 10 5.0877 -0.0885
-21 9 11 8.0211 0.0895
-21 9 12 -1.5138 -0.0943
-21 9 13 6.4536 0.1512
-21 9 14 -3.6770 0.0327
-21 11 1 -1.4597 -0.0233
-21 11 2 -5.1317 0.0519
-21 11 3 -18.2841 0.0746
-21 11 4 12.0894 0.0749
-21 11 5 2.4685 -0.0501
-21 11 6 -1.9716 -0.0756
-21 11 7 1.0598 -0.0099
-21 11 8 -7.0740 -0.0416
-21 11 9 -7.7358 -0.0695
-21 11 10 1.3919 0.1680
-21 11 11 1.2696 0.0229
-21 11 12 5.8496 0.0813
-21 11 13 -1.3995 -0.0268
-21 13 1 0.4895 0.0258
-21 13 2 -5.0379 -0.0382
-21 13 3 -3.5419 -0.0058
-21 13 4 -2.9778 0.0621
-21 13 5 0.4504 -0.0025
-21 13 6 7.3750 -0.0400
-21 13 7 6.2402 0.0299
-21 13 8 -5.7011 -0.1331
-21 13 9 5.7068 0.0554
-21 13 10 -8.3660 0.0331
-21 13 11 4.8165 0.0947
-21 13 12 0.4453 0.0420
-21 15 1 13.1510 -0.0702
-21 15 2 3.5317 -0.0856
-21 15 3 -0.4234 0.1352
-21 15 4 -1.7921 -0.0334
-21 15 5 2.6105 0.0115
-21 15 6 -2.9204 0.0046
-21 15 7 10.8074 -0.1751
-21 15 8 6.7690 -0.0836
-21 15 9 -3.9843 0.0538
-21 15 10 -4.2922 0.0493
-21 17 1 -4.3522 -0.1129
-21 17 2 -1.8546 0.2482
-21 17 3 -2.9350 0.1038
-21 17 4 -7.8189 -0.0912
-21 17 5 3.0820 -0.0625
-21 17 6 2.3420 -0.0475
-21 17 7 6.2340 0.0319
-20 0 2 17.1816 1.3363
-20 0 4 -4.3632 -0.5567
-20 0 6 -20.8795 -0.0083
-20 0 8 4.8444 0.3992
-20 0 10 -0.1720 -0.3301
-20 0 12 2.2569 -0.1172
-20 0 14 -3.2137 0.4973
-20 0 16 -1.3784 -0.1195
-20 2 1 -7.9287 -0.2177
-20 2 2 20.5602 -0.1540
-20 2 3 -7.7070 -0.1380
-20 2 4 -15.3145 -0.1688
-20 2 5 8.0108 0.2564
-20 2 6 -8.1723 -0.0596
-20 2 7 -13.9477 0.0964
-20 2 8 5.7881 0.0133
-20 2 9 -7.3100 -0.2509
-20 2 10 -5.1190 0.1051
-20 2 11 2.9458 0.1642
-20 2 12 5.2832 0.0127
-20 2 13 1.4119 0.0270
-20 2 14 1.9256 -0.0787
-20 2 15 2.3218 -0.2054
-20 2 16 -4.5755 0.0407
-20 4 1 -0.0967 -0.0095
-20 4 2 4.9360 0.1537
-20 4 3 13.2300 0.0081
-20 4 4 -11.4530 -0.0670
-20 4 5 0.1479 -0.1484
-20 4 6 9.2798 -0.0153
-20 4 7 6.6053 -0.0177
-20 4 8 1.0182 0.1363
-20 4 9 11.1968 0.1019
-20 4 10 -14.2735 -0.1196
-20 4 11 -2.2543 -0.0124
-20 4 12 -1.5658 -0.1182
-20 4 13 -9.3065 -0.0649
-20 4 14 3.1760 0.1047
-20 4 15 -0.0657 0.0306
-20 4 16 -2.6909 0.0530
-20 6 1 2.7207 0.0332
-20 6 2 11.6915 -0.0644
-20 6 3 7.0062 0.0625
-20 6 4 -15.1162 -0.0106
-20 6 5 -4.1903 0.0789
-20 6 6 -12.4497 0.0335
-20 6 7 6.6138 -0.0798
-20 6 8 -3.0844 0.0195
-20 6 9 9.6939 -0.0955
-20 6 10 -10.6466 0.0564
-20 6 11 2.4710 0.1067
-20 6 12 1.9760 -0.0499
-20 6 13 -1.8956 0.0323
-20 6 14 0.3375 -0.0313
-20 6 15 -1.2224 -0.0787
-20 6 16 -3.5053 0.0475
-20 8 1 -16.1932 0.0312
-20 8 2 5.8608 0.1031
-20 8 3 11.5881 0.1131
-20 8 4 -19.9766 -0.1198
-20 8 5 2.2289 -0.0566
-20 8 6 -13.2305 -0.0629
-20 8 7 6.8761 -0.0159
-20 8 8 2.6526 0.0734
-20 8 9 8.5213 0.0939
-20 8 10 2.9424 0.0183
-20 8 11 -4.6965 -0.1098
-20 8 12 6.6371 -0.0250
-20 8 13 1.4646 -0.0300
-20 8 14 0.8019 -0.0084
-20 8 15 3.2394 0.1049
-20 10 1 2.3774 0.0602
-20 10 2 -3.7130 0.0339
-20 10 3 12.1958 -0.1010
-20 10 4 -0.3200 -0.0591
-20 10 5 1.9865 0.0205
-20 10 6 0.0605 0.0869
-20 10 7 -0.1062 0.0319
-20 10 8 -2.8361 -0.0024
-20 10 9 -10.3261 0.0335
-20 10 10 4.1043 -0.1041
-20 10 11 -9.6567 0.0060
-20 10 12 4.4018 0.0717
-20 10 13 4.8141 -0.1938
-20 10 14 5.8823 0.0798
-20 12 1 6.0220 -0.1247
-20 12 2 4.6626 -0.0111
-20 12 3 -8.3106 -0.0054
-20 12 4 5.9911 -0.0640
-20 12 5 -5.9382 0.0718
-20 12 6 2.6009 0.0956
-20 12 7 0.3472 0.0298
-20 12 8 4.1102 0.0441
-20 12 9 1.2893 -0.0588
-20 12 10 -6.6088 -0.0894
-20 12 11 -4.8239 0.0313
-20 12 12 -3.4634 -0.2392
-20 12 13 -2.1284 0.0110
-20 14 1 1.4597 -0.0047
-20 14 2 -0.6810 0.1502
-20 14 3 9.9631 -0.0787
-20 14 4 0.7956 0.0276
-20 14 5 -7.0448 0.0320
-20 14 6 7.1407 -0.0876
-20 14 7 4.7030 -0.0039
-20 14 8 -1.2423 0.0744
-20 14 9 12.5424 -0.1200
-20 14 10 2.3896 -0.0068
-20 14 11 -1.4619 -0.0983
-20 14 12 -0.4571 0.0654
-20 16 1 -1.8790 0.0535
-20 16 2 1.4200 -0.0322
-20 16 3 0.5206 -0.0914
-20 16 4 3.8538 0.1057
-20 16 5 3.5496 0.0715
-20 16 6 -5.4203 0.0371
-20 16 7 11.2024 0.1070
-20 16 8 5.2990 -0.1090
-20 16 9 1.3833 -0.1025
-20 16 10 3.7611 0.1014
-20 18 1 -3.2498 -0.0218
-20 18 2 2.1882 -0.0814
-20 18 3 2.3459 0.0225
-20 18 4 -0.9217 0.0612
-20 18 5 -2.5850 -0.0235
-20 18 6 -7.3574 -0.0691
-20 18 7 -2.6763 -0.0822
-19 1 1 0.1816 -0.3159
-19 1 2 0.9961 0.6259
-19 1 3 -11.5928 -0.5706
-19 1 4 10.1699 -0.3617
-19 1 5 -2.8003 0.2664
-19 1 6 -0.1593 -0.0097
-19 1 7 12.3024 0.2383
-19 1 8 -2.9635 0.2943
-19 1 9 -4.0546 -0.2022
-19 1 10 10.3775 -0.2404
-19 1 11 -8.2006 -0.0278
-19 1 12 4.2668 -0.1954
-19 1 13 -2.2006 0.1330
-19 1 14 -4.5603 0.3620
-19 1 15 -0.4993 -0.2491
-19 1 16 -2.6051 -0.0622
-19 1 17 1.0740 -0.0203
-19 3 1 -8.7297 -0.0404
-19 3 2 10.1194 0.0280
-19 3 3 -10.8268 0.0981
-19 3 4 16.9896 0.0368
-19 3 5 -7.1095 0.0894
-19 3 6 -14.4244 -0.0700
-19 3 7 -0.4267 -0.1450
-19 3 8 0.9084 0.0855
-19 3 9 -1.7813 -0.0999
-19 3 10 5.1244 0.0308
-19 3 11 -5.3763 0.0871
-19 3 12 -5.5300 -0.0537
-19 3 13 1.4514 0.0325
-19 3 14 1.4710 0.0367
-19 3 15 2.5466 -0.0176
-19 3 16 0.1178 -0.0527
-19 3 17 2.5336 0.0054
-19 5 1 3.4394 -0.0157
-19 5 2 -6.1471 0.0375
-19 5 3 -9.0647 -0.1107
-19 5 4 12.4867 -0.1905
-19 5 5 2.8469 0.1187
-19 5 6 -2.9831 -0.0596
-19 5 7 -9.8685 0.1081
-19 5 8 2.0909 0.1292
-19 5 9 -0.6779 -0.0390
-19 5 10 5.8452 -0.0330
-19 5 11 5.0835 -0.0100
-19 5 12 -5.3427 -0.0845
-19 5 13 -4.4932 0.0520
-19 5 14 6.1088 0.1546
-19 5 15 -3.4298 -0.0920
-19 5 16 4.8832 -0.1280
-19 5 17 -1.3719 0.0067
-19 7 1 -5.5663 0.0331
-19 7 2 5.3477 0.0760
-19 7 3 1.0393 -0.0151
-19 7 4 5.1245 0.0121
-19 7 5 8.2445 -0.0438
-19 7 6 -3.0118 -0.0345
-19 7 7 -11.2460 -0.0340
-19 7 8 2.8664 0.0109
-19 7 9 -7.3674 -0.0200
-19 7 10 6.7810 -0.0459
-19 7 11 5.2950 -0.0002
-19 7 12 4.0271 0.0514
-19 7 13 0.6356 -0.0334
-19 7 14 -1.0381 0.0737
-19 7 15 -2.0695 -0.0612
-19 7 16 -1.3543 0.0276
-19 9 1 1.8756 -0.0266
-19 9 2 5.6835 -0.0891
-19 9 3 -9.5482 0.0479
-19 9 4 -2.3732 0.0251
-19 9 5 16.0057 -0.0163
-19 9 6 5.0668 0.0738
-19 9 7 -4.6147 0.0293
-19 9 8 -0.3271 -0.0387
-19 9 9 -7.5993 -0.0237
-19 9 10 0.5100 -0.0690
-19 9 11 5.4263 0.0989
-19 9 12 -3.2811 -0.0399
-19 9 13 4.2807 0.1027
-19 9 14 -2.2718 0.0486
-19 9 15 -5.3289 -0.0151
-19 9 16 2.0745 0.0122
-19 11 1 -0.3507 0.0335
-19 11 2 11.2806 0.0234
-19 11 3 -0.9618 0.0569
-19 11 4 0.3005 0.0618
-19 11 5 0.1649 -0.0623
-19 11 6 -0.1079 -0.0354
-19 11 7 4.8075 -0.1527
-19 11 8 -2.7110 0.0244
-19 11 9 -8.5643 0.1051
-19 11 10 1.6280 0.0912
-19 11 11 -1.7132 0.0155
-19 11 12 4.6375 0.0554
-19 11 13 0.3792 0.0901
-19 11 14 8.2110 -0.0416
-19 11 15 -3.3679 -0.0910
-19 13 1 6.0054 0.0438
-19 13 2 -5.6083 -0.0490
-19 13 3 -0.0318 0.0231
-19 13 4 5.5499 0.0114
-19 13 5 -3.4332 -0.0639
-19 13 6 0.2464 -0.0465
-19 13 7 -8.9559 0.0282
-19 13 8 5.3058 -0.0880
-19 13 9 3.3950 0.0593
-19 13 10 -3.6031 0.1023
-19 13 11 2.4129 0.0378
-19 13 12 -1.3302 0.2150
-19 13 13 -6.0207 0.0072
-19 13 14 -1.6397 -0.1846
-19 15 1 -4.8721 0.0403
-19 15 2 -2.3720 -0.0348
-19 15 3 0.0892 0.0442
-19 15 4 -3.3164 -0.0609
-19 15 5 4.0082 0.0056
-19 15 6 -4.2210 0.0781
-19 15 7 -7.2785 -0.0906
-19 15 8 -9.1061 -0.0219
-19 15 9 -1.8272 0.2506
-19 15 10 2.3603 -0.0018
-19 15 11 9.4125 0.0223
-19 15 12 2.0261 -0.1032
-19 17 1 1.0934 -0.1179
-19 17 2 0.0650 0.1924
-19 17 3 -0.2792 0.0157
-19 17 4 2.1904 -0.1168
-19 17 5 8.0530 -0.0182
-19 17 6 1.0222 -0.0293
-19 17 7 1.5842 -0.0024
-19 17 8 -0.7849 0.1891
-19 17 9 0.5662 0.0234
-19 17 10 0.0107 -0.1654
-19 19 1 -2.8327 0.1686
-19 19 2 7.7829 0.0907
-19 19 3 4.9858 -0.0684
-19 19 4 -5.2302 -0.0373
-19 19 5 9.0516 0.0091
-19 19 6 2.0453 0.0295
-19 19 7 -3.6087 0.0184
-18 0 2 -0.4801 1.4917
-18 0 4 -21.5069 -0.4470
-18 0 6 23.2196 -0.0826
-18 0 8 -13.2349 0.4584
-18 0 10 -12.0782 -0.3698
-18 0 12 12.4851 -0.1621
-18 0 14 -0.6594 0.5114
-18 0 16 -7.1191 -0.0942
-18 0 18 3.3873 -0.2748
-18 2 1 7.3353 -0.1992
-18 2 2 -9.6692 -0.1792
-18 2 3 0.3833 -0.1865
-18 2 4 -0.8107 -0.2498
-18 2 5 -9.4732 0.2364
-18 2 6 16.0384 0.0023
-18 2 7 28.0979 0.1687
-18 2 8 -9.7805 0.0572
-18 2 9 13.8572 -0.1531
-18 2 10 -2.8760 0.0195
-18 2 11 -4.5970 -0.0447
-18 2 12 4.2987 0.0568
-18 2 13 1.2850 0.1274
-18 2 14 -2.4411 -0.0140
-18 2 15 4.7285 -0.1539
-18 2 16 -4.9178 -0.0187
-18 2 17 -0.8740 0.1179
-18 2 18 3.9498 -0.1049
-18 4 1 16.5581 -0.0549
-18 4 2 -2.1499 0.1282
-18 4 3 -13.8144 0.0137
-18 4 4 7.6882 -0.0844
-18 4 5 -10.8341 -0.0849
-18 4 6 -3.2600 0.0128
-18 4 7 -0.3104 -0.0144
-18 4 8 -6.8181 0.1108
-18 4 9 -0.3144 0.0646
-18 4 10 2.7265 -0.0805
-18 4 11 -2.7908 -0.0281
-18 4 12 6.3760 -0.0704
-18 4 13 -0.3197 0.0054
-18 4 14 -2.9662 0.0890
-18 4 15 0.2478 -0.0105
-18 4 16 -0.6703 0.1065
-18 4 17 -1.9356 0.0479
-18 6 1 8.9573 -0.0210
-18 6 2 -5.6372 -0.0389
-18 6 3 3.3274 0.0312
-18 6 4 -15.6928 -0.0345
-18 6 5 -10.4280 0.0675
-18 6 6 10.7188 0.0923
-18 6 7 -3.1833 -0.0751
-18 6 8 -7.5599 -0.0166
-18 6 9 -1.4236 -0.0805
-18 6 10 -8.0786 -0.0582
-18 6 11 7.8285 0.1408
-18 6 12 0.5746 0.0234
-18 6 13 6.6585 0.0307
-18 6 14 -0.7124 0.0076
-18 6 15 -3.9643 -0.0668
-18 6 16 -2.3983 0.0240
-18 6 17 -0.8261 -0.0450
-18 8 1 21.2910 0.0547
-18 8 2 -0.2307 0.0389
-18 8 3 -3.1506 0.0500
-18 8 4 8.7918 -0.1032
-18 8 5 -9.0026 0.0413
-18 8 6 5.9780 0.0131
-18 8 7 -1.0968 -0.0743
-18 8 8 2.6752 0.1066
-18 8 9 -6.9897 -0.0247
-18 8 10 -4.7301 0.0441
-18 8 11 1.7970 0.0371
-18 8 12 0.5726 -0.1090
-18 8 13 10.8895 -0.0501
-18 8 14 -3.4200 -0.0274
-18 8 15 1.0057 0.0148
-18 8 16 -1.0357 0.0444
-18 8 17 1.7538 -0.0188
-18 10 1 9.0179 -0.0649
-18 10 2 16.7019 -0.0175
-18 10 3 -4.9292 0.0475
-18 10 4 -4.9895 -0.0018
-18 10 5 -5.4347 0.0329
-18 10 6 2.4561 -0.0106
-18 10 7 12.9476 -0.0039
-18 10 8 -0.4891 0.0289
-18 10 9 5.7684 -0.0360
-18 10 10 2.8871 -0.0929
-18 10 11 -6.1386 0.0214
-18 10 12 1.8099 0.0758
-18 10 13 1.4818 -0.1902
-18 10 14 0.5848 -0.0650
-18 10 15 2.7548 0.0904
-18 10 16 -1.8470 -0.0487
-18 12 1 -5.6488 0.0442
-18 12 2 -4.3165 -0.0461
-18 12 3 0.9307 -0.0846
-18 12 4 11.3693 0.0032
-18 12 5 -13.0166 0.0588
-18 12 6 0.9850 0.0047
-18 12 7 3.1610 0.0575
-18 12 8 -3.9895 -0.0402
-18 12 9 1.8275 -0.0470
-18 12 10 2.4536 -0.0728
-18 12 11 0.3901 0.0298
-18 12 12 2.0377 -0.1089
-18 12 13 -2.0607 -0.0954
-18 12 14 1.2820 0.1846
-18 12 15 -3.7261 0.0873
-18 14 1 13.1838 -0.0588
-18 14 2 -7.2542 -0.0566
-18 14 3 -5.3565 0.0209
-18 14 4 3.0176 0.1432
-18 14 5 -6.0210 0.0059
-18 14 6 0.1062 -0.0134
-18 14 7 1.0407 -0.0464
-18 14 8 3.4704 -0.0268
-18 14 9 -7.5163 -0.0837
-18 14 10 -3.9641 -0.0181
-18 14 11 -1.2881 -0.0661
-18 14 12 -3.8730 0.0205
-18 14 13 0.7840 0.0904
-18 14 14 -1.7104 0.0604
-18 16 1 10.6858 0.0804
-18 16 2 6.8303 -0.0679
-18 16 3 3.3102 -0.0592
-18 16 4 3.5594 0.0158
-18 16 5 -11.9572 -0.0264
-18 16 6 2.7613 0.0297
-18 16 7 -7.7779 0.1303
-18 16 8 -0.4848 -0.1102
-18 16 9 1.8176 -0.1683
-18 16 10 -2.6860 0.0760
-18 16 11 4.4915 0.1091
-18 16 12 1.5049 0.0492
-18 18 1 6.9341 -0.0410
-18 18 2 5.8781 -0.1774
-18 18 3 -4.3684 0.1101
-18 18 4 2.9777 0.1283
-18 18 5 -3.5804 -0.0613
-18 18 6 -4.4337 -0.0108
-18 18 7 6.6052 -0.1083
-18 18 8 1.6987 -0.1806
-18 18 9 2.4555 0.0838
-18 18 10 2.2882 0.1253
-18 20 1 2.0364 -0.0765
-18 20 2 -0.8121 0.0088
-18 20 3 -1.3315 0.0617
-18 20 4 -3.7295 0.0156
-18 20 5 -6.0017 -0.0085
-18 20 6 -2.2717 -0.0153
-18 20 7 7.7345 0.1295
-17 1 1 -9.9729 -0.2471
-17 1 2 55.3319 0.8903
-17 1 3 3.4023 -0.7779
-17 1 4 -0.3840 -0.4479
-17 1 5 9.6012 0.3189
-17 1 6 -15.5115 -0.1373
-17 1 7 -2.1382 0.4034
-17 1 8 29.3873 0.4804
-17 1 9 12.3612 -0.4424
-17 1 10 6.8628 -0.4389
-17 1 11 -2.7273 0.2120
-17 1 12 -12.1406 -0.0583
-17 1 13 -6.4855 0.0385
-17 1 14 0.4445 0.3026
-17 1 15 1.0863 -0.2862
-17 1 16 2.7133 -0.0493
-17 1 17 5.9239 0.0319
-17 1 18 2.4435 -0.1651
-17 3 1 -26.7121 -0.0794
-17 3 2 -0.9639 0.0222
-17 3 3 9.4118 0.0761
-17 3 4 -5.7177 0.0753
-17 3 5 4.9112 0.1290
-17 3 6 -11.9488 -0.0861
-17 3 7 -1.3072 -0.2259
-17 3 8 -1.5537 0.0414
-17 3 9 15.1596 -0.0675
-17 3 10 -3.7713 0.1073
-17 3 11 9.5103 0.1232
-17 3 12 -0.4564 -0.0848
-17 3 13 -11.3809 -0.0052
-17 3 14 2.0226 -0.0443
-17 3 15 -1.2313 0.0171
-17 3 16 -5.2053 0.0645
-17 3 17 1.0294 -0.0138
-17 3 18 -1.5321 0.0611
-17 5 1 -19.7225 0.0645
-17 5 2 5.4616 0.0968
-17 5 3 10.2667 -0.1401
-17 5 4 1.5241 -0.3073
-17 5 5 5.8165 0.1259
-17 5 6 9.1049 -0.0264
-17 5 7 -13.1014 0.0925
-17 5 8 4.9980 0.1778
-17 5 9 2.8493 -0.0655
-17 5 10 -7.4900 -0.0718
-17 5 11 -7.3189 0.0093
-17 5 12 -1.5286 -0.0982
-17 5 13 -6.5409 0.0152
-17 5 14 2.7934 0.1235
-17 5 15 -3.1515 -0.0603
-17 5 16 0.5930 -0.0833
-17 5 17 -1.9430 0.0838
-17 5 18 -3.8257 -0.0401
-17 7 1 -8.9595 -0.0040
-17 7 2 0.6922 0.0908
-17 7 3 24.4052 0.0690
-17 7 4 1.0255 0.0090
-17 7 5 4.5188 -0.0927
-17 7 6 3.6535 -0.0745
-17 7 7 2.4155 -0.0178
-17 7 8 13.9409 -0.0269
-17 7 9 -0.8385 -0.0188
-17 7 10 8.6368 0.0794
-17 7 11 0.5033 0.0257
-17 7 12 1.0624 -0.0270
-17 7 13 -3.7524 -0.0768
-17 7 14 4.4811 0.0557
-17 7 15 -2.3966 -0.0157
-17 7 16 -0.2716 0.0418
-17 7 17 -1.4615 0.2322
-17 9 1 -15.0996 -0.0103
-17 9 2 -0.0369 -0.0369
-17 9 3 1.7635 0.0309
-17 9 4 -2.5486 -0.0387
-17 9 5 3.8629 -0.0047
-17 9 6 -14.2645 0.0648
-17 9 7 -7.1703 0.0232
-17 9 8 7.6466 0.0426
-17 9 9 6.6500 0.0441
-17 9 10 2.0854 -0.1450
-17 9 11 2.8609 0.0249
-17 9 12 -4.2801 -0.0157
-17 9 13 2.0113 0.0405
-17 9 14 -4.8201 0.0902
-17 9 15 4.6577 -0.0008
-17 9 16 -1.8757 0.0186
-17 9 17 -0.4989 -0.1368
-17 11 1 -31.0428 0.0113
-17 11 2 -2.9364 0.0064
-17 11 3 -6.8950 -0.0339
-17 11 4 9.6171 0.0034
-17 11 5 -2.2563 -0.0443
-17 11 6 -6.8845 0.0273
-17 11 7 -14.3826 -0.0946
-17 11 8 -0.6465 0.0951
-17 11 9 6.4133 0.0789
-17 11 10 5.4767 0.0337
-17 11 11 -1.0634 0.0084
-17 11 12 -1.5630 -0.0015
-17 11 13 -7.3065 0.0465
-17 11 14 0.1920 -0.0098
-17 11 15 2.5575 -0.0789
-17 11 16 2.8998 -0.0161
-17 13 1 3.0929 -0.0161
-17 13 2 -7.9279 0.0116
-17 13 3 -0.6350 0.0033
-17 13 4 0.5049 -0.0416
-17 13 5 12.8082 0.0055
-17 13 6 4.5152 0.0204
-17 13 7 -6.3621 0.0531
-17 13 8 -13.2272 -0.0390
-17 13 9 2.3668 0.0434
-17 13 10 1.4959 -0.0421
-17 13 11 0.1038 -0.0289
-17 13 12 0.8782 0.1238
-17 13 13 -6.3201 -0.0125
-17 13 14 -0.5331 -0.1248
-17 13 15 2.5074 -0.0325
-17 15 1 -3.1410 0.0372
-17 15 2 3.3398 -0.0110
-17 15 3 9.7489 -0.0199
-17 15 4 1.4620 -0.0050
-17 15 5 2.6321 0.0057
-17 15 6 15.7207 0.0340
-17 15 7 -1.8652 -0.0100
-17 15 8 0.4881 0.0534
-17 15 9 1.7196 0.0800
-17 15 10 -6.9557 -0.0424
-17 15 11 3.5084 0.0291
-17 15 12 -0.9422 -0.0335
-17 15 13 -6.4343 -0.1464
-17 15 14 0.3632 -0.0076
-17 17 1 -3.6163 0.0257
-17 17 2 -0.2394 0.0087
-17 17 3 7.7248 -0.0242
-17 17 4 -0.4229 0.0221
-17 17 5 1.2906 0.0233
-17 17 6 -1.1389 -0.0683
-17 17 7 3.8247 -0.0432
-17 17 8 -1.1997 0.1232
-17 17 9 5.3819 -0.0541
-17 17 10 4.4474 -0.0406
-17 17 11 2.2407 -0.0239
-17 17 12 -0.3150 -0.0393
-17 19 1 -7.9753 0.1344
-17 19 2 0.4996 0.0741
-17 19 3 -4.0977 -0.1329
-17 19 4 4.3389 -0.0155
-17 19 5 3.6008 0.0158
-17 19 6 -3.8349 0.0130
-17 19 7 1.5461 0.2491
-17 19 8 -0.1859 0.0521
-17 19 9 3.8315 -0.0710
-17 19 10 0.9767 -0.0576
-17 21 1 -3.0308 0.2086
-17 21 2 -3.5763 -0.1851
-17 21 3 -1.8939 -0.1672
-17 21 4 2.1143 0.1145
-17 21 5 -1.4702 -0.0020
-17 21 6 2.7156 -0.0045
-17 21 7 -3.4583 -0.1148
-16 0 2 -3.5093 1.8322
-16 0 4 21.8102 -0.3941
-16 0 6 -21.9750 -0.1595
-16 0 8 0.0598 0.4683
-16 0 10 27.2276 -0.2522
-16 0 12 1.4561 -0.3643
-16 0 14 -12.5207 0.6393
-16 0 16 7.0462 -0.0641
-16 0 18 -4.2506 -0.3816
-16 2 1 -14.6169 -0.1123
-16 2 2 -25.0379 -0.2074
-16 2 3 -12.8361 -0.3275
-16 2 4 13.1956 -0.2041
-16 2 5 16.8417 0.2960
-16 2 6 4.2054 -0.1279
-16 2 7 -1.7525 0.2322
-16 2 8 -3.2619 0.1261
-16 2 9 -12.2483 -0.1942
-16 2 10 3.8555 0.0298
-16 2 11 -0.5446 -0.0818
-16 2 12 -10.6653 0.0016
-16 2 13 -1.4984 0.1357
-16 2 14 -11.6353 0.0320
-16 2 15 -2.7442 -0.1071
-16 2 16 2.7605 -0.1090
-16 2 17 4.6680 0.0429
-16 2 18 -1.1389 -0.0133
-16 2 19 -2.9179 0.1706
-16 4 1 5.6032 -0.0648
-16 4 2 -21.5883 0.2491
-16 4 3 -20.4609 -0.0303
-16 4 4 16.9481 -0.0740
-16 4 5 -1.7087 -0.0031
-16 4 6 6.4700 -0.0401
-16 4 7 11.9509 -0.0454
-16 4 8 -12.4511 0.1347
-16 4 9 4.2122 0.0187
-16 4 10 -6.0483 -0.0080
-16 4 11 -0.9727 0.0070
-16 4 12 6.2839 -0.1476
-16 4 13 -1.5614 -0.0396
-16 4 14 2.8752 0.1234
-16 4 15 -1.1958 0.0138
-16 4 16 0.4709 0.0398
-16 4 17 5.0892 -0.0068
-16 4 18 -4.2783 -0.3122
-16 6 1 3.1312 0.0142
-16 6 2 -23.2695 -0.0034
-16 6 3 12.1385 -0.0229
-16 6 4 12.2350 -0.0121
-16 6 5 21.4521 0.0837
-16 6 6 10.1127 -0.0174
-16 6 7 1.2007 -0.0369
-16 6 8 -4.1036 0.0298
-16 6 9 -6.2561 -0.0883
-16 6 10 4.3025 -0.0479
-16 6 11 2.5939 0.1105
-16 6 12 1.3997 -0.0038
-16 6 13 0.0209 0.1045
-16 6 14 4.8197 0.0997
-16 6 15 -5.6549 -0.1351
-16 6 16 6.6870 -0.0234
-16 6 17 1.1582 -0.0624
-16 6 18 4.2474 -0.0418
-16 8 1 5.9666 -0.0047
-16 8 2 -12.0752 0.0512
-16 8 3 -11.4238 0.0655
-16 8 4 -1.8210 -0.0806
-16 8 5 5.8523 -0.0097
-16 8 6 5.1697 0.0265
-16 8 7 0.1130 -0.0159
-16 8 8 2.4147 0.1165
-16 8 9 -11.0719 -0.0429
-16 8 10 8.5277 0.0215
-16 8 11 12.8166 0.0104
-16 8 12 -0.3286 -0.1065
-16 8 13 6.5195 0.0036
-16 8 14 -8.6847 -0.0352
-16 8 15 -4.7134 0.0342
-16 8 16 -1.4886 0.0099
-16 8 17 2.8570 -0.0249
-16 8 18 1.6455 0.1224
-16 10 1 -2.6647 -0.0595
-16 10 2 -15.7493 -0.0188
-16 10 3 -11.4408 0.0088
-16 10 4 -8.5912 0.0203
-16 10 5 -1.9580 0.0504
-16 10 6 -6.2854 -0.0040
-16 10 7 6.3007 -0.0126
-16 10 8 -0.3449 -0.0617
-16 10 9 -9.8476 -0.0141
-16 10 10 2.3964 -0.0187
-16 10 11 -3.3439 0.0094
-16 10 12 2.7346 0.0202
-16 10 13 0.9471 -0.0358
-16 10 14 -2.6188 0.0060
-16 10 15 -4.0718 -0.0284
-16 10 16 -0.5639 -0.0190
-16 10 17 6.2055 0.1857
-16 12 1 23.0116 0.0401
-16 12 2 -7.0242 0.0055
-16 12 3 -9.4639 0.0950
-16 12 4 1.9176 0.0267
-16 12 5 8.9054 -0.0827
-16 12 6 -2.0309 -0.0050
-16 12 7 14.6140 -0.0563
-16 12 8 -4.2452 -0.0810
-16 12 9 -1.4557 0.0871
-16 12 10 -4.2185 -0.0185
-16 12 11 -0.2050 0.0075
-16 12 12 3.1192 0.0053
-16 12 13 5.0652 -0.0488
-16 12 14 3.9890 0.0858
-16 12 15 -1.0845 0.0420
-16 12 16 -1.6671 0.0685
-16 14 1 15.4709 -0.0291
-16 14 2 5.3646 0.0187
-16 14 3 -0.9437 0.0392
-16 14 4 -0.6376 -0.0419
-16 14 5 0.9643 -0.0015
-16 14 6 8.3705 0.0693
-16 14 7 -0.9988 -0.0500
-16 14 8 6.4749 -0.0416
-16 14 9 -4.6453 -0.0249
-16 14 10 -4.4626 0.0973
-16 14 11 -3.6623 0.0275
-16 14 12 -2.0263 -0.0570
-16 14 13 2.7367 0.1260
-16 14 14 1.4085 0.0123
-16 14 15 -1.6344 0.0344
-16 16 1 -0.0228 -0.0976
-16 16 2 3.4479 0.0202
-16 16 3 3.6644 0.0340
-16 16 4 -1.9028 -0.0343
-16 16 5 5.0361 -0.0245
-16 16 6 0.4427 -0.0658
-16 16 7 9.5473 0.0044
-16 16 8 1.2632 -0.0564
-16 16 9 -0.4420 0.0582
-16 16 10 1.6880 0.0455
-16 16 11 -1.3160 -0.0995
-16 16 12 0.9558 0.1486
-16 16 13 1.8822 -0.0010
-16 16 14 2.0194 0.0228
-16 18 1 -14.8095 0.0613
-16 18 2 1.8527 -0.0801
-16 18 3 -5.5495 0.0090
-16 18 4 -5.0596 -0.0030
-16 18 5 3.4579 -0.0709
-16 18 6 -5.0797 0.0932
-16 18 7 2.2659 -0.0016
-16 18 8 1.9438 -0.0984
-16 18 9 -3.0887 0.1524
-16 18 10 -5.0462 -0.0380
-16 18 11 -0.6823 0.0049
-16 18 12 -0.8538 -0.0468
-16 20 1 2.4554 -0.1075
-16 20 2 2.4511 -0.0061
-16 20 3 -8.2364 0.1172
-16 20 4 3.2404 -0.0637
-16 20 5 0.1158 0.0086
-16 20 6 1.8146 -0.0127
-16 20 7 4.1324 -0.1669
-16 20 8 3.6717 0.0430
-16 20 9 1.3633 0.1556
-16 20 10 1.8973 -0.0331
-16 22 1 -0.2545 -0.0092
-16 22 2 4.1591 0.0226
-16 22 3 -1.2613 -0.0006
-16 22 4 -2.4645 0.0051
-16 22 5 3.5286 0.0222
-16 22 6 7.4540 0.0730
-15 1 1 4.5890 -0.3347
-15 1 2 -6.4636 0.9564
-15 1 3 -21.8724 -0.7424
-15 1 4 -31.8451 -0.4435
-15 1 5 -11.1452 0.2823
-15 1 6 14.7801 -0.0545
-15 1 7 7.3774 0.3784
-15 1 8 -8.7087 0.2697
-15 1 9 -17.9132 -0.2647
-15 1 10 1.0974 -0.2549
-15 1 11 -11.4456 -0.0199
-15 1 12 17.4916 -0.1236
-15 1 13 7.4518 0.1716
-15 1 14 -1.4925 0.3815
-15 1 15 2.1763 -0.2542
-15 1 16 -8.6468 -0.1044
-15 1 17 -3.9841 0.0506
-15 1 18 3.2983 -0.2260
-15 1 19 -2.4115 0.2765
-15 3 1 8.1983 -0.0920
-15 3 2 6.4863 0.0514
-15 3 3 -25.4236 0.1097
-15 3 4 -16.7659 0.0664
-15 3 5 -19.2529 0.1204
-15 3 6 9.3011 -0.0784
-15 3 7 20.5755 -0.2046
-15 3 8 -2.9082 0.0387
-15 3 9 -12.5728 -0.0256
-15 3 10 -17.2490 0.0874
-15 3 11 -23.2335 0.1069
-15 3 12 2.6088 -0.0241
-15 3 13 -0.7110 0.0054
-15 3 14 6.0349 -0.0889
-15 3 15 4.5806 -0.0317
-15 3 16 -3.8661 0.0652
-15 3 17 -0.2662 0.0080
-15 3 18 -4.6642 0.0481
-15 3 19 3.2435 -0.0014
-15 5 1 27.2158 0.0215
-15 5 2 15.0151 0.0281
-15 5 3 10.4455 -0.0676
-15 5 4 -7.1890 -0.3074
-15 5 5 -18.2309 -0.0089
-15 5 6 7.8853 -0.0061
-15 5 7 7.6253 0.1047
-15 5 8 6.9884 0.1948
-15 5 9 14.0385 -0.0407
-15 5 10 -21.3164 -0.1035
-15 5 11 3.0191 0.0230
-15 5 12 -8.6712 -0.0647
-15 5 13 -1.9532 0.0303
-15 5 14 11.3121 0.0605
-15 5 15 2.8878 -0.0348
-15 5 16 -1.0262 0.0107
-15 5 17 4.6793 0.0711
-15 5 18 -0.6719 0.1404
-15 5 19 2.6737 -0.0596
-15 7 1 2.6860 0.0305
-15 7 2 23.9281 0.0961
-15 7 3 -5.2812 0.0575
-15 7 4 -10.4234 0.0284
-15 7 5 -11.3887 0.0262
-15 7 6 -0.9648 -0.0645
-15 7 7 -8.1032 -0.1214
-15 7 8 6.7746 -0.0227
-15 7 9 1.5217 0.0290
-15 7 10 0.3380 0.0536
-15 7 11 -0.2827 -0.0126
-15 7 12 7.4604 0.0176
-15 7 13 -3.4872 -0.0938
-15 7 14 5.8752 -0.0059
-15 7 15 -1.5158 0.0402
-15 7 16 0.1234 -0.0042
-15 7 17 -0.4931 0.2032
-15 7 18 0.2113 -0.1282
-15 9 1 3.5613 0.0270
-15 9 2 1.4347 -0.0275
-15 9 3 11.9342 0.0439
-15 9 4 -19.1368 -0.0413
-15 9 5 -18.8071 0.0134
-15 9 6 2.5678 0.0291
-15 9 7 -5.7597 -0.0052
-15 9 8 9.6853 0.0768
-15 9 9 0.2985 0.0249
-15 9 10 0.9017 -0.1653
-15 9 11 -6.4197 0.0425
-15 9 12 0.7535 0.0022
-15 9 13 -2.8773 0.0021
-15 9 14 0.3607 0.1014
-15 9 15 1.5216 -0.0230
-15 9 16 -5.8227 -0.0063
-15 9 17 -2.2699 -0.0836
-15 9 18 1.9551 -0.1064
-15 11 1 -5.5274 0.0480
-15 11 2 14.6953 0.0362
-15 11 3 -6.2828 -0.0833
-15 11 4 -5.3240 -0.0338
-15 11 5 -7.3419 -0.0508
-15 11 6 1.7675 0.0533
-15 11 7 9.6568 -0.0570
-15 11 8 0.8907 0.0715
-15 11 9 7.0581 0.0293
-15 11 10 -3.1834 0.0380
-15 11 11 -11.0476 0.0808
-15 11 12 -4.2473 -0.0248
-15 11 13 -0.0186 -0.1098
-15 11 14 2.0690 -0.0232
-15 11 15 6.6209 -0.0511
-15 11 16 3.6712 -0.0831
-15 11 17 -0.3265 -0.0167
-15 13 1 8.0899 -0.0333
-15 13 2 2.9300 -0.0092
-15 13 3 10.6997 -0.0232
-15 13 4 7.9605 0.0120
-15 13 5 -27.8761 0.1050
-15 13 6 6.3236 -0.0168
-15 13 7 -3.5594 0.0591
-15 13 8 4.7181 0.0402
-15 13 9 -6.2229 -0.0101
-15 13 10 5.2910 -0.0467
-15 13 11 -6.3084 -0.0644
-15 13 12 5.2165 -0.0459
-15 13 13 2.1655 -0.0773
-15 13 14 3.1903 0.0384
-15 13 15 2.7036 -0.0053
-15 13 16 -3.2163 -0.0411
-15 15 1 -7.4986 0.0158
-15 15 2 -7.4881 -0.0259
-15 15 3 0.6303 -0.0178
-15 15 4 5.4310 0.0418
-15 15 5 -12.2540 -0.0501
-15 15 6 -6.4021 -0.0067
-15 15 7 -11.1296 0.0839
-15 15 8 0.2622 -0.0019
-15 15 9 4.4729 -0.0715
-15 15 10 0.8889 -0.0843
-15 15 11 -4.6571 -0.0085
-15 15 12 -0.0796 -0.0259
-15 15 13 -0.3823 -0.1555
-15 15 14 1.9267 0.0869
-15 15 15 1.4959 0.1391
-15 17 1 0.3649 0.0313
-15 17 2 5.3791 0.0238
-15 17 3 1.5242 -0.0139
-15 17 4 -3.4926 0.0607
-15 17 5 -0.1437 0.0584
-15 17 6 -4.5246 0.0263
-15 17 7 -0.8762 -0.0702
-15 17 8 0.1000 0.0178
-15 17 9 1.0310 -0.0630
-15 17 10 4.7123 -0.0008
-15 17 11 1.2415 0.0808
-15 17 12 -5.2581 -0.1433
-15 17 13 2.0951 0.0129
-15 17 14 -2.3641 0.1061
-15 19 1 4.4355 -0.0528
-15 19 2 -3.2680 -0.0188
-15 19 3 6.8203 0.0203
-15 19 4 2.4115 0.1042
-15 19 5 -5.4828 -0.0071
-15 19 6 -2.7758 -0.1279
-15 19 7 3.2164 0.1328
-15 19 8 -5.6497 -0.0133
-15 19 9 3.3092 -0.1655
-15 19 10 3.0922 0.1381
-15 19 11 -4.2358 -0.0490
-15 19 12 2.2984 0.0708
-15 21 1 3.5398 0.1716
-15 21 2 -9.9083 -0.0973
-15 21 3 -0.3329 -0.0837
-15 21 4 8.2614 -0.0286
-15 21 5 -1.7173 -0.0963
-15 21 6 -1.8812 0.1072
-15 21 7 2.9522 0.0506
-15 21 8 -4.9336 -0.1398
-15 21 9 3.1182 -0.1035
-15 23 1 -1.9950 -0.0525
-15 23 2 -2.1727 -0.0112
-15 23 3 1.0910 -0.0264
-15 23 4 -2.6861 0.0060
-15 23 5 -3.9380 0.0132
-14 0 2 8.4291 2.2316
-14 0 4 -17.7078 -0.3897
-14 0 6 -36.8808 -0.2482
-14 0 8 1.8482 0.7002
-14 0 10 10.8971 -0.4564
-14 0 12 -8.9564 -0.2700
-14 0 14 -1.2097 0.5450
-14 0 16 -5.7038 -0.0546
-14 0 18 -4.7224 -0.3012
-14 0 20 3.1784 0.4388
-14 2 1 16.3565 -0.1072
-14 2 2 17.6988 -0.2439
-14 2 3 2.0097 -0.4202
-14 2 4 -4.3966 -0.2289
-14 2 5 -3.0357 0.3113
-14 2 6 -25.1610 -0.1223
-14 2 7 14.1181 0.3410
-14 2 8 1.0974 0.1362
-14 2 9 14.0954 -0.3362
-14 2 10 11.1775 0.0146
-14 2 11 -10.9615 0.0043
-14 2 12 -6.8344 -0.0429
-14 2 13 -2.4556 0.0805
-14 2 14 4.1218 0.0528
-14 2 15 10.5595 -0.1478
-14 2 16 6.6398 -0.0978
-14 2 17 0.4281 0.0590
-14 2 18 4.4744 0.0178
-14 2 19 0.9159 0.0793
-14 4 1 -36.5425 -0.0549
-14 4 2 -22.0053 0.3285
-14 4 3 -0.4935 -0.0216
-14 4 4 13.5585 -0.0930
-14 4 5 1.9289 0.0107
-14 4 6 -17.9343 -0.1145
-14 4 7 -10.9826 -0.0918
-14 4 8 3.5401 0.1636
-14 4 9 -1.7741 -0.0218
-14 4 10 14.0683 0.0213
-14 4 11 -6.9730 0.0352
-14 4 12 -9.3629 -0.1604
-14 4 13 -9.4588 -0.0435
-14 4 14 -1.9910 0.1107
-14 4 15 -0.6051 0.0379
-14 4 16 1.8778 0.0043
-14 4 17 6.2640 0.0354
-14 4 18 -7.5400 -0.2036
-14 4 19 6.3802 -0.0829
-14 6 1 6.4911 -0.0010
-14 6 2 4.0594 0.0446
-14 6 3 0.7860 0.0161
-14 6 4 29.9351 -0.0314
-14 6 5 16.7640 0.0691
-14 6 6 -0.7737 -0.0179
-14 6 7 -10.0618 0.0431
-14 6 8 -8.3980 0.0418
-14 6 9 -2.5216 -0.1118
-14 6 10 4.0834 -0.0944
-14 6 11 -8.2252 0.0960
-14 6 12 -1.3994 0.0121
-14 6 13 -10.1790 0.0609
-14 6 14 4.7118 0.1016
-14 6 15 -5.4794 -0.1380
-14 6 16 3.9992 -0.0485
-14 6 17 -3.6471 -0.0028
-14 6 18 -2.3603 -0.0867
-14 6 19 0.9072 0.0844
-14 8 1 -4.8628 -0.0177
-14 8 2 13.3663 0.0104
-14 8 3 -0.6240 0.0310
-14 8 4 0.7327 -0.0244
-14 8 5 12.5083 -0.0438
-14 8 6 -10.2787 0.0365
-14 8 7 -0.1242 -0.0599
-14 8 8 -3.8036 0.1038
-14 8 9 2.5215 -0.0246
-14 8 10 1.1879 -0.0056
-14 8 11 8.5391 0.0381
-14 8 12 -8.0574 -0.0924
-14 8 13 2.2893 0.0167
-14 8 14 2.5048 0.0119
-14 8 15 -2.0456 0.0308
-14 8 16 7.7887 0.0526
-14 8 17 3.4582 0.0103
-14 8 18 1.3613 0.0929
-14 10 1 -13.0900 0.0131
-14 10 2 7.0224 -0.0321
-14 10 3 -4.9597 0.0431
-14 10 4 13.3975 -0.0251
-14 10 5 18.4035 0.0454
-14 10 6 -18.7505 -0.0189
-14 10 7 3.3171 -0.0665
-14 10 8 2.9418 -0.0425
-14 10 9 0.2731 0.0290
-14 10 10 12.5075 -0.0048
-14 10 11 3.0666 0.0191
-14 10 12 -1.3910 0.0125
-14 10 13 -2.5791 0.0357
-14 10 14 -5.0956 0.0140
-14 10 15 3.5859 -0.0768
-14 10 16 5.8302 0.0174
-14 10 17 -2.1123 0.1571
-14 10 18 2.3575 0.0702
-14 12 1 -24.4250 0.0223
-14 12 2 -8.5871 -0.0053
-14 12 3 -16.1616 0.0430
-14 12 4 5.0691 0.0372
-14 12 5 20.7074 -0.0585
-14 12 6 2.7006 -0.0067
-14 12 7 1.1973 -0.0021
-14 12 8 -2.8433 -0.0440
-14 12 9 -3.2037 0.0698
-14 12 10 2.3278 -0.0044
-14 12 11 -4.6276 0.0165
-14 12 12 0.2453 0.0398
-14 12 13 -4.4408 -0.0131
-14 12 14 -8.3039 0.0632
-14 12 15 -4.1180 0.0084
-14 12 16 1.5263 0.0507
-14 12 17 3.9937 0.0917
-14 14 1 -16.1202 -0.0114
-14 14 2 -27.3207 0.0242
-14 14 3 -8.8898 -0.0017
-14 14 4 6.2910 -0.0113
-14 14 5 -0.2985 -0.0693
-14 14 6 6.2275 -0.0181
-14 14 7 -12.6015 -0.0366
-14 14 8 -7.3211 -0.0384
-14 14 9 -4.9127 0.0457
-14 14 10 -5.4263 0.0672
-14 14 11 11.8303 0.1129
-14 14 12 -1.3726 0.0410
-14 14 13 -0.2791 0.0617
-14 14 14 -2.5552 -0.0077
-14 14 15 -2.7402 -0.1337
-14 14 16 -1.4571 0.0050
-14 16 1 8.2405 -0.0365
-14 16 2 -2.7522 -0.0285
-14 16 3 -10.6150 0.0275
-14 16 4 -10.8488 -0.0161
-14 16 5 11.4118 0.0292
-14 16 6 0.8108 -0.0631
-14 16 7 -12.1965 -0.0529
-14 16 8 -0.9770 0.1178
-14 16 9 -6.8362 0.1286
-14 16 10 4.2141 0.0101
-14 16 11 6.7917 -0.0509
-14 16 12 7.2861 0.0673
-14 16 13 3.3910 0.0308
-14 16 14 -3.3005 -0.1463
-14 16 15 -0.6534 -0.0918
-14 18 1 -2.9352 0.0160
-14 18 2 9.3862 0.0830
-14 18 3 -7.8918 -0.0501
-14 18 4 -7.1873 -0.0986
-14 18 5 5.9017 -0.0045
-14 18 6 0.2734 0.0767
-14 18 7 9.5162 0.0507
-14 18 8 -6.4339 0.0188
-14 18 9 -0.0578 0.0089
-14 18 10 -2.5182 -0.0802
-14 18 11 7.0535 -0.0169
-14 18 12 3.4600 0.0060
-14 18 13 0.3879 -0.0147
-14 20 1 -5.5221 -0.1048
-14 20 2 -1.4933 0.0228
-14 20 3 -2.7590 0.1010
-14 20 4 -5.5874 -0.0547
-14 20 5 4.2343 0.0161
-14 20 6 -3.0513 -0.0011
-14 20 7 -0.3106 -0.0937
-14 20 8 -3.2746 0.0219
-14 20 9 1.1978 0.1060
-14 20 10 -1.4266 -0.0309
-14 20 11 1.9297 -0.1464
-14 22 1 0.2445 -0.0233
-14 22 2 -2.9005 0.1210
-14 22 3 -1.0512 0.0165
-14 22 4 -1.8124 0.0523
-14 22 5 -1.4687 0.0348
-14 22 6 7.6880 -0.0878
-14 22 7 -1.6720 0.0547
-14 22 8 -1.7174 0.1812
-14 22 9 -0.3598 -0.1843
-14 24 1 0.2515 0.2265
-14 24 2 -1.8504 0.0130
-14 24 3 0.7364 -0.3109
-13 1 1 7.5459 -0.1782
-13 1 2 -11.9623 1.1264
-13 1 3 -22.6655 -0.8474
-13 1 4 -33.7396 -0.4821
-13 1 5 3.7087 0.2245
-13 1 6 -33.5585 -0.1487
-13 1 7 -0.8490 0.4277
-13 1 8 6.4030 0.3482
-13 1 9 5.5420 -0.2455
-13 1 10 -0.2617 -0.2423
-13 1 11 3.9731 -0.1114
-13 1 12 -11.1840 -0.1775
-13 1 13 -7.9784 0.2356
-13 1 14 -5.8677 0.4132
-13 1 15 5.6016 -0.1907
-13 1 16 4.7073 -0.1078
-13 1 17 7.3617 0.0018
-13 1 18 3.3899 -0.2967
-13 1 19 -3.1418 0.2627
-13 1 20 4.5782 0.0866
-13 3 1 -35.0472 -0.1306
-13 3 2 -14.4742 0.0137
-13 3 3 1.3270 0.0945
-13 3 4 -14.7133 0.0315
-13 3 5 13.7408 0.1220
-13 3 6 5.0910 -0.0255
-13 3 7 7.6921 -0.0972
-13 3 8 -8.7313 -0.0099
-13 3 9 1.2493 -0.1005
-13 3 10 -1.8244 0.1226
-13 3 11 -10.0036 0.1251
-13 3 12 7.4737 -0.0199
-13 3 13 -9.7444 0.0284
-13 3 14 -8.1412 -0.0694
-13 3 15 1.0686 -0.0533
-13 3 16 -5.6470 0.0488
-13 3 17 5.5914 0.0309
-13 3 18 -2.4106 0.0024
-13 3 19 0.2373 0.0502
-13 3 20 -5.6288 -0.0598
-13 5 1 0.7820 -0.0016
-13 5 2 -41.0291 -0.0228
-13 5 3 12.3879 -0.0640
-13 5 4 -8.7931 -0.2382
-13 5 5 -3.8449 0.0039
-13 5 6 6.7732 0.0133
-13 5 7 -6.5709 0.0593
-13 5 8 -10.6311 0.1994
-13 5 9 -16.5220 0.0060
-13 5 10 -5.6905 -0.0746
-13 5 11 -1.8073 0.0232
-13 5 12 12.7726 -0.0891
-13 5 13 0.1601 0.0400
-13 5 14 -0.6354 0.0401
-13 5 15 -4.9886 -0.0528
-13 5 16 0.6297 0.0365
-13 5 17 -0.9621 -0.0381
-13 5 18 2.6714 0.0433
-13 5 19 3.1217 0.0110
-13 7 2 -3.5183 0.0381
-13 7 3 17.1202 0.1382
-13 7 4 1.8615 0.0025
-13 7 5 -2.7916 0.0387
-13 7 6 21.8704 -0.0844
-13 7 7 -4.5774 -0.1236
-13 7 8 5.4968 -0.0104
-13 7 9 -5.9234 -0.0320
-13 7 10 -1.3657 0.0700
-13 7 11 5.9003 0.0492
-13 7 12 1.3755 0.0210
-13 7 13 8.8617 -0.0822
-13 7 14 -0.6134 0.0077
-13 7 15 -4.8374 -0.0061
-13 7 16 2.5815 -0.0451
-13 7 17 -2.3885 0.1505
-13 7 18 1.9773 -0.1388
-13 7 19 4.8517 -0.0921
-13 9 1 5.1201 -0.0330
-13 9 2 -2.6691 -0.0438
-13 9 3 -12.5995 0.0225
-13 9 4 5.4067 -0.0599
-13 9 5 -12.4533 0.0657
-13 9 6 11.9050 0.1001
-13 9 7 6.9742 0.0160
-13 9 8 5.9289 0.0092
-13 9 9 -11.1379 0.0129
-13 9 10 5.4846 -0.0927
-13 9 11 -5.8458 0.0105
-13 9 12 2.8062 -0.0699
-13 9 13 -6.6144 -0.0064
-13 9 14 -5.7992 0.0472
-13 9 15 -1.6212 -0.0528
-13 9 16 3.2583 0.0827
-13 9 17 4.7930 -0.0234
-13 9 18 2.6258 -0.1344
-13 9 19 1.0877 0.1795
-13 11 1 19.0868 -0.0292
-13 11 2 -4.4621 0.0570
-13 11 3 -15.6423 0.0002
-13 11 4 -11.5667 0.0317
-13 11 5 -0.3007 -0.0671
-13 11 6 -8.4506 0.0286
-13 11 7 29.6160 -0.0273
-13 11 8 -7.0702 0.0684
-13 11 9 -1.1864 -0.0104
-13 11 10 -8.4023 -0.0171
-13 11 11 -1.7566 0.1092
-13 11 12 1.9231 -0.0441
-13 11 13 5.4010 -0.1925
-13 11 14 -5.0964 -0.0022
-13 11 15 0.1184 -0.0185
-13 11 16 -0.5595 0.0451
-13 11 17 0.7283 0.0209
-13 11 18 7.7213 0.0687
-13 13 1 7.2911 0.0016
-13 13 2 -11.1566 -0.0488
-13 13 3 -5.8531 0.0088
-13 13 4 7.4799 0.0331
-13 13 5 2.7089 0.0619
-13 13 6 12.5155 -0.0045
-13 13 7 14.1276 0.0121
-13 13 8 7.6048 -0.0455
-13 13 9 2.1361 -0.0961
-13 13 10 -4.3919 0.0171
-13 13 11 -5.5672 -0.0715
-13 13 12 -3.7991 -0.0823
-13 13 13 7.5422 0.0525
-13 13 14 0.9735 0.0439
-13 13 15 1.5402 0.0954
-13 13 16 -3.8935 0.0087
-13 13 17 -5.0335 0.0616
-13 15 1 25.6999 0.0534
-13 15 2 -4.5684 0.0220
-13 15 3 4.6616 -0.0151
-13 15 4 -5.3547 0.0432
-13 15 5 -12.6748 -0.0196
-13 15 6 6.8989 -0.0440
-13 15 7 -1.7995 0.0733
-13 15 8 6.6916 -0.0249
-13 15 9 -7.3838 -0.0569
-13 15 10 0.9752 -0.0834
-13 15 11 -2.7846 -0.0414
-13 15 12 -1.2078 0.0717
-13 15 13 -0.3712 -0.0841
-13 15 14 7.4737 0.0338
-13 15 15 -0.0430 0.1778
-13 15 16 0.9492 0.0464
-13 17 1 7.3656 0.0819
-13 17 2 13.1715 -0.0648
-13 17 3 2.8636 -0.0592
-13 17 4 -0.8478 0.0794
-13 17 5 -3.1261 0.0116
-13 17 6 -6.5052 0.0233
-13 17 7 12.1216 -0.0308
-13 17 8 6.5577 -0.0744
-13 17 9 9.5268 -0.0713
-13 17 10 4.5921 0.0559
-13 17 11 -0.1742 0.0817
-13 17 12 -4.0704 -0.0976
-13 17 13 -0.2658 0.0541
-13 17 14 0.3604 0.1481
-13 17 15 1.1472 -0.0068
-13 19 1 0.2872 0.0019
-13 19 2 -0.9815 0.0405
-13 19 3 -8.7622 -0.0220
-13 19 4 1.4681 -0.0046
-13 19 5 -0.4001 0.0279
-13 19 6 -10.9519 -0.1047
-13 19 7 5.6130 0.0426
-13 19 8 9.9213 -0.0034
-13 19 9 1.2758 -0.0701
-13 19 10 4.7052 0.1168
-13 19 11 -1.0835 -0.0378
-13 19 12 -4.3880 0.0913
-13 19 13 -0.4749 0.0669
-13 21 1 2.7341 0.0416
-13 21 2 -2.0713 -0.1121
-13 21 3 -1.7680 -0.0334
-13 21 4 -8.9475 0.0452
-13 21 5 -1.9776 -0.0583
-13 21 6 -2.2756 0.0842
-13 21 7 2.9215 0.1156
-13 21 8 0.5305 -0.2287
-13 21 9 4.5415 0.0309
-13 21 10 0.7894 0.0507
-13 21 11 -2.0079 0.1614
-13 23 1 1.8333 -0.1553
-13 23 2 1.9068 -0.2242
-13 23 3 3.1942 0.1265
-13 23 4 3.5064 0.1621
-13 23 5 -2.1117 -0.0234
-13 23 6 -1.4911 0.0202
-13 23 7 -2.4422 -0.0700
-13 23 8 5.1253 -0.0107
-12 0 2 40.3675 2.5225
-12 0 4 19.4262 -0.2768
-12 0 8 33.2921 0.7208
-12 0 10 22.5913 -0.3927
-12 0 12 -10.6629 -0.3633
-12 0 14 -0.1736 0.4905
-12 0 16 4.4800 0.0080
-12 0 18 2.1941 -0.3034
-12 0 20 3.5736 0.3773
-12 2 1 -12.9931 0.0141
-12 2 2 3.2199 -0.2756
-12 2 3 -32.4981 -0.6490
-12 2 4 -1.9938 -0.2676
-12 2 5 25.0504 0.4750
-12 2 6 -4.3797 -0.0853
-12 2 7 11.6811 0.2935
-12 2 8 15.8024 0.0880
-12 2 9 -7.0326 -0.3404
-12 2 10 -13.3391 0.0562
-12 2 11 6.7159 -0.0221
-12 2 12 -4.0723 -0.0631
-12 2 13 1.8849 0.1345
-12 2 14 1.1136 0.0083
-12 2 15 3.1670 -0.1612
-12 2 16 -0.5570 -0.0050
-12 2 17 7.9541 0.0188
-12 2 18 -4.1015 0.0184
-12 2 19 -2.6452 0.1554
-12 2 20 -1.4121 0.0306
-12 4 1 -16.6478 -0.0310
-12 4 2 23.5589 0.4427
-12 4 3 -29.5675 0.0187
-12 4 4 -11.2508 -0.1404
-12 4 5 4.0636 -0.0104
-12 4 6 10.1573 -0.1772
-12 4 7 10.3817 -0.1076
-12 4 8 -5.7425 0.2341
-12 4 9 3.4937 -0.0207
-12 4 10 -27.8860 -0.0100
-12 4 11 1.6988 0.0299
-12 4 12 -2.4176 -0.1174
-12 4 13 4.9831 -0.0418
-12 4 14 12.7165 0.0837
-12 4 15 3.7429 0.0592
-12 4 16 -9.8058 -0.0184
-12 4 17 -1.6250 0.0376
-12 4 18 -8.8794 -0.1199
-12 4 19 5.7045 -0.0228
-12 4 20 2.4945 0.0593
-12 6 1 -5.4139 0.0091
-12 6 2 69.9336 0.0680
-12 6 3 16.5047 -0.0493
-12 6 4 13.6968 -0.0434
-12 6 5 -7.6395 0.1032
-12 6 6 -5.0215 -0.0283
-12 6 7 -9.2714 0.0126
-12 6 8 26.3656 -0.0240
-12 6 9 2.9553 -0.0875
-12 6 10 -7.3516 -0.0686
-12 6 11 2.1182 0.1093
-12 6 12 -6.3618 0.0089
-12 6 13 0.0763 0.0811
-12 6 14 11.6664 0.1139
-12 6 15 2.7350 -0.1762
-12 6 16 4.6024 -0.0294
-12 6 17 3.4592 0.0068
-12 6 18 1.2581 -0.0494
-12 6 19 1.6461 0.1575
-12 6 20 6.7312 0.0075
-12 8 1 -32.5114 -0.0318
-12 8 2 18.1509 0.0446
-12 8 3 14.2198 0.0208
-12 8 4 -11.0146 -0.0371
-12 8 5 -9.9740 -0.0938
-12 8 6 -1.6393 0.0196
-12 8 7 -31.2851 -0.0934
-12 8 8 15.6716 0.1849
-12 8 9 16.2646 0.0515
-12 8 10 8.7400 -0.0253
-12 8 11 7.0735 -0.0148
-12 8 12 -5.4904 -0.0923
-12 8 13 -6.4791 -0.0029
-12 8 14 3.6952 -0.0289
-12 8 15 5.9630 0.0498
-12 8 16 2.2722 0.1362
-12 8 17 0.1384 -0.0185
-12 8 18 1.1316 0.1393
-12 8 19 2.3351 -0.0509
-12 10 1 -19.9680 0.0519
-12 10 2 9.5716 -0.0399
-12 10 3 -13.1325 0.0284
-12 10 4 -13.6964 -0.0744
-12 10 5 -2.1833 0.0406
-12 10 6 7.1503 0.0202
-12 10 7 -10.2246 -0.0153
-12 10 8 3.3512 -0.0441
-12 10 9 7.2917 -0.0263
-12 10 10 -1.2507 -0.0348
-12 10 11 6.4010 0.0810
-12 10 12 -12.0724 0.0389
-12 10 13 -3.0349 0.0224
-12 10 14 -8.8002 0.0282
-12 10 15 3.9626 -0.0251
-12 10 16 -2.3536 -0.1258
-12 10 17 4.9139 0.0964
-12 10 18 -0.5986 0.0396
-12 10 19 -3.0968 -0.1548
-12 12 1 -6.8967 -0.0135
-12 12 2 8.0642 -0.0057
-12 12 3 0.5242 -0.0249
-12 12 4 -0.0390 0.0175
-12 12 5 -21.3203 -0.0092
-12 12 6 4.7805 -0.0108
-12 12 7 3.4756 0.0087
-12 12 8 -4.9620 0.0098
-12 12 9 10.1092 0.0976
-12 12 10 -8.1552 -0.0400
-12 12 11 -2.0001 -0.0043
-12 12 12 -1.9932 0.0746
-12 12 13 -6.6804 -0.0267
-12 12 14 4.1507 0.0429
-12 12 15 4.4401 -0.1079
-12 12 16 -7.4400 0.0293
-12 12 17 -5.8737 0.0988
-12 12 18 -2.5470 -0.2724
-12 14 1 8.6881 -0.0058
-12 14 2 5.5275 -0.0052
-12 14 3 20.6335 -0.0086
-12 14 4 8.4431 0.0035
-12 14 5 -7.0693 -0.0702
-12 14 6 1.2110 0.0120
-12 14 7 -17.8763 -0.0006
-12 14 8 2.4799 0.0286
-12 14 9 9.5448 0.0454
-12 14 10 2.0378 0.0167
-12 14 11 3.3441 0.0835
-12 14 12 -0.6976 0.0404
-12 14 13 1.5848 -0.0368
-12 14 14 -0.6512 -0.0783
-12 14 15 3.6280 -0.0837
-12 14 16 5.5442 -0.0711
-12 14 17 -4.5341 -0.0705
-12 16 1 -17.7487 0.0017
-12 16 2 -3.5803 -0.0173
-12 16 3 27.1446 -0.0203
-12 16 4 -0.9615 -0.0242
-12 16 5 -3.9071 0.0874
-12 16 6 0.3817 0.0060
-12 16 7 -16.0043 -0.0036
-12 16 8 4.6133 0.0539
-12 16 9 4.9644 0.0430
-12 16 10 6.0393 -0.0038
-12 16 11 5.1859 -0.0748
-12 16 12 -7.4866 0.0250
-12 16 13 1.8481 0.0212
-12 16 14 -3.0077 -0.0958
-12 16 15 3.8048 -0.1053
-12 16 16 0.4444 -0.0959
-12 18 1 -13.6171 0.0347
-12 18 2 -12.6746 0.0805
-12 18 3 3.0231 -0.0440
-12 18 4 5.8770 0.0480
-12 18 5 1.9804 -0.0274
-12 18 6 -0.5159 -0.0435
-12 18 7 -3.1501 0.0206
-12 18 8 -4.7363 0.0078
-12 18 9 8.6975 -0.0031
-12 18 10 2.5815 -0.0433
-12 18 11 2.1521 -0.0208
-12 18 12 -2.7156 0.0887
-12 18 13 -3.5128 -0.0909
-12 18 14 -4.3215 -0.0777
-12 20 1 -2.3882 0.0176
-12 20 2 -5.9514 -0.0043
-12 20 3 -5.7626 0.0170
-12 20 4 8.7684 -0.0371
-12 20 5 -1.2614 -0.0112
-12 20 6 5.4864 0.0611
-12 20 7 6.0663 -0.0137
-12 20 8 0.8283 0.0572
-12 20 9 1.7705 -0.0164
-12 20 10 6.6007 -0.0527
-12 20 11 -1.5670 0.0288
-12 20 12 1.8619 -0.1420
-12 20 13 -4.2901 0.1009
-12 22 1 -6.4720 -0.0467
-12 22 2 -6.6835 0.0380
-12 22 3 4.4671 -0.0094
-12 22 4 9.6220 0.0483
-12 22 5 3.6639 0.0912
-12 22 6 1.9781 -0.0920
-12 22 7 -2.1546 0.0052
-12 22 8 -4.3035 0.1585
-12 22 9 -1.8861 -0.0438
-12 22 10 -3.1444 -0.1221
-12 24 1 -1.1082 0.0873
-12 24 2 -13.4598 -0.0273
-12 24 3 -2.7230 -0.1225
-12 24 4 -3.3062 -0.0362
-12 24 5 -1.3917 -0.0577
-12 24 6 -2.0832 0.0354
-12 24 7 -8.1181 -0.0080
-11 1 1 -64.3760 -0.3147
-11 1 2 -52.4548 1.0819
-11 1 3 0.5789 -0.7972
-11 1 4 8.4929 -0.3368
-11 1 5 -2.1490 0.1350
-11 1 6 31.1913 -0.2225
-11 1 7 17.3275 0.4601
-11 1 8 -13.6240 0.2914
-11 1 9 -3.9813 -0.2353
-11 1 10 10.8118 -0.1695
-11 1 11 -3.2288 -0.2095
-11 1 12 -9.7797 -0.1795
-11 1 13 13.1447 0.2618
-11 1 14 -14.5160 0.3836
-11 1 15 1.9405 -0.0915
-11 1 16 8.8115 -0.0601
-11 1 17 -6.7351 -0.1143
-11 1 18 4.1945 -0.3332
-11 1 19 -2.2927 0.1818
-11 1 20 -3.7045 0.1451
-11 3 1 42.3659 -0.1007
-11 3 2 -26.7571 0.0313
-11 3 3 -26.6050 0.0873
-11 3 4 33.3843 0.0446
-11 3 5 7.0198 0.1506
-11 3 6 -3.2774 -0.0632
-11 3 7 9.0148 -0.0622
-11 3 8 -30.6903 0.0083
-11 3 9 -17.4754 -0.0962
-11 3 10 -1.2907 0.1184
-11 3 11 -10.8225 0.1333
-11 3 12 -2.3304 -0.0421
-11 3 13 7.1044 -0.0241
-11 3 14 2.3562 -0.0397
-11 3 15 1.1464 -0.0645
-11 3 16 0.7154 0.0459
-11 3 17 0.1127 0.0908
-11 3 18 -7.6504 -0.0434
-11 3 19 -4.9679 0.0229
-11 3 20 -4.0779 0.0207
-11 5 1 14.7998 0.0077
-11 5 2 -11.3356 0.0114
-11 5 3 -1.2075 -0.1003
-11 5 4 38.1636 -0.2148
-11 5 5 4.0223 -0.0059
-11 5 6 8.5410 -0.0013
-11 5 7 5.4150 0.0577
-11 5 8 -29.9517 0.2367
-11 5 9 1.6802 -0.0310
-11 5 10 -1.9231 -0.0485
-11 5 11 3.0032 -0.0068
-11 5 12 -9.0311 -0.1844
-11 5 13 3.5431 0.1087
-11 5 14 -1.5250 0.1012
-11 5 15 -1.4807 -0.0698
-11 5 16 3.3946 0.0576
-11 5 17 4.1375 -0.1351
-11 5 18 -6.3083 -0.0817
-11 5 19 6.4212 0.0325
-11 5 20 3.7505 0.1061
-11 7 1 30.1945 -0.0380
-11 7 2 8.9032 0.0657
-11 7 3 7.2146 0.1816
-11 7 4 21.2370 -0.0064
-11 7 5 34.7634 0.0959
-11 7 6 -21.2779 -0.0674
-11 7 7 16.9715 -0.0966
-11 7 8 -13.7304 -0.0516
-11 7 9 -0.0403 -0.1017
-11 7 10 12.0563 0.0579
-11 7 11 -1.5620 0.0685
-11 7 12 3.6238 0.0192
-11 7 13 5.0919 -0.0161
-11 7 14 -5.5319 -0.0119
-11 7 15 -6.9604 0.0100
-11 7 16 -2.0802 -0.0593
-11 7 17 1.4771 0.0739
-11 7 18 2.3017 -0.0728
-11 7 19 5.3911 -0.0509
-11 7 20 -4.1706 0.0510
-11 9 1 -12.4928 0.0385
-11 9 2 5.6664 0.0089
-11 9 3 -16.7740 0.0055
-11 9 4 -6.1832 -0.0478
-11 9 5 9.3969 0.0370
-11 9 6 -11.7963 0.0686
-11 9 7 -6.4801 0.0066
-11 9 8 -9.4044 0.0232
-11 9 9 -14.2715 -0.0014
-11 9 10 10.5553 -0.0724
-11 9 11 -0.8995 0.0282
-11 9 12 -5.0108 -0.0628
-11 9 13 11.9660 -0.0093
-11 9 14 -10.3251 0.1432
-11 9 15 -0.5678 -0.0611
-11 9 16 5.2190 -0.0338
-11 9 17 0.3539 0.0219
-11 9 18 3.3252 -0.1834
-11 9 19 -1.1588 0.1323
-11 11 1 -7.3773 -0.0416
-11 11 2 6.3122 0.0303
-11 11 3 -23.2499 0.0068
-11 11 4 8.7707 0.0305
-11 11 5 14.4792 -0.0408
-11 11 6 -4.3408 0.0418
-11 11 7 13.5810 -0.0748
-11 11 8 -5.3384 0.0116
-11 11 9 -0.8861 0.0278
-11 11 10 2.9421 0.0204
-11 11 11 2.6992 0.1056
-11 11 12 0.3329 -0.0406
-11 11 13 6.1226 -0.1117
-11 11 14 5.6437 -0.0335
-11 11 15 -2.5670 -0.0755
-11 11 16 1.0041 0.0913
-11 11 17 3.9691 0.0267
-11 11 18 -0.8049 0.1126
-11 13 1 7.4363 0.0174
-11 13 2 -9.4214 0.0060
-11 13 3 -18.0302 0.0277
-11 13 4 20.1772 -0.0148
-11 13 5 -5.7488 0.0074
-11 13 6 5.7415 -0.0061
-11 13 7 5.3793 -0.0196
-11 13 8 -10.6574 -0.0649
-11 13 9 7.0934 -0.0404
-11 13 10 -13.4394 0.0125
-11 13 11 18.5647 -0.0361
-11 13 12 -4.8962 -0.0409
-11 13 13 0.6584 0.0102
-11 13 14 -3.8857 0.0680
-11 13 15 -4.2586 0.1144
-11 13 16 -1.7085 -0.0746
-11 13 17 6.1497 0.0441
-11 13 18 -0.3369 0.1314
-11 15 1 2.7986 -0.0324
-11 15 2 -9.8362 -0.0511
-11 15 3 -6.2230 0.0490
-11 15 4 4.9510 0.0194
-11 15 5 7.7681 0.0055
-11 15 6 11.2117 0.0107
-11 15 7 -11.6153 -0.0147
-11 15 8 6.7960 -0.0666
-11 15 9 -12.7295 0.0236
-11 15 10 -3.4674 0.0161
-11 15 11 4.6986 -0.0447
-11 15 12 3.2535 0.0432
-11 15 13 5.9819 0.0105
-11 15 14 -7.8690 0.0522
-11 15 15 -7.8448 0.0209
-11 15 16 0.9979 0.0347
-11 15 17 3.9577 0.1720
-11 17 1 -13.8824 0.0151
-11 17 2 -3.6160 -0.0030
-11 17 3 -14.2792 -0.0017
-11 17 4 -8.7724 -0.0207
-11 17 5 12.1886 -0.0445
-11 17 6 0.6978 0.0234
-11 17 7 7.4095 -0.0200
-11 17 8 0.9205 -0.0735
-11 17 9 3.2195 0.0258
-11 17 10 -6.1850 0.0348
-11 17 11 9.5454 0.0925
-11 17 12 3.2627 -0.0518
-11 17 13 2.0892 -0.0294
-11 17 14 -0.4743 0.0814
-11 17 15 -7.3599 0.0575
-11 19 1 5.9933 -0.0636
-11 19 2 12.2915 -0.0272
-11 19 3 -15.4169 -0.0176
-11 19 4 -6.5389 -0.0510
-11 19 5 1.0803 0.0516
-11 19 6 14.3215 0.0253
-11 19 7 11.5625 -0.0024
-11 19 8 -0.2348 0.0049
-11 19 9 -1.9492 0.0105
-11 19 10 -10.8010 0.0190
-11 19 11 -2.3854 -0.0814
-11 19 12 3.4312 0.0534
-11 19 13 7.4631 0.1064
-11 19 14 0.5375 0.1516
-11 21 1 11.4524 -0.0647
-11 21 2 0.4285 0.0094
-11 21 3 -6.5536 0.0936
-11 21 4 1.9547 -0.0140
-11 21 5 -5.7380 -0.0616
-11 21 6 6.4537 0.0564
-11 21 7 9.5702 -0.0118
-11 21 8 5.5832 -0.0913
-11 21 9 -1.1308 0.0279
-11 21 10 -10.4513 0.0343
-11 21 11 -1.8325 0.0601
-11 21 12 -8.2572 0.0591
-11 23 1 -0.0600 -0.0749
-11 23 2 -0.4400 -0.0664
-11 23 3 0.3760 0.0353
-11 23 4 -0.1659 -0.0691
-11 23 5 1.8368 0.1106
-11 23 6 12.6782 0.0436
-11 23 7 0.3880 -0.2440
-11 23 8 8.1408 0.0463
-11 23 9 -3.6767 -0.0324
-11 25 1 0.8676 -0.1934
-11 25 2 3.9516 0.2132
-11 25 3 1.2792 -0.0391
-11 25 4 -5.5652 -0.0522
-11 25 5 1.2859 0.1094
-10 0 2 55.2236 2.7720
-10 0 4 -97.1563 -0.3607
-10 0 8 34.6776 0.6673
-10 0 10 -32.0828 -0.3724
-10 0 12 -0.0715 -0.4970
-10 0 14 -1.9924 0.5466
-10 0 16 -10.7479 -0.0744
-10 0 18 4.9789 -0.2473
-10 0 20 -3.8181 0.2773
-10 2 1 -17.2031 -0.0595
-10 2 2 22.7411 -0.2742
-10 2 3 18.8457 -0.6651
-10 2 4 -22.7263 -0.3064
-10 2 5 -18.6728 0.4166
-10 2 6 15.4769 0.0078
-10 2 7 15.3591 0.4057
-10 2 8 19.0369 0.0821
-10 2 9 4.0377 -0.4467
-10 2 10 -1.4249 0.0125
-10 2 11 -23.2484 0.0644
-10 2 12 3.2377 -0.0330
-10 2 13 1.3572 0.1665
-10 2 14 6.2051 0.0039
-10 2 15 8.6666 -0.2301
-10 2 16 -0.2652 0.0562
-10 2 17 -2.3024 0.0715
-10 2 18 7.8078 -0.0085
-10 2 19 -1.9126 0.1284
-10 2 20 4.3877 0.0335
-10 2 21 -2.5071 -0.0968
-10 4 1 -2.0332 -0.0009
-10 4 2 26.5052 0.4161
-10 4 3 50.5537 0.0721
-10 4 4 -10.3525 -0.1292
-10 4 5 0.0078 -0.0646
-10 4 6 4.5077 -0.2196
-10 4 7 -4.1552 -0.1055
-10 4 8 10.0048 0.2692
-10 4 9 -3.6685 0.0100
-10 4 10 -14.1696 0.0185
-10 4 11 -2.2930 0.0190
-10 4 12 -1.9298 -0.1219
-10 4 13 -1.1803 0.0001
-10 4 14 2.8254 0.0060
-10 4 15 1.3125 0.0269
-10 4 16 -4.0282 0.0019
-10 4 17 -1.0305 0.0483
-10 4 18 -4.2830 -0.0810
-10 4 19 -6.5149 -0.0465
-10 4 20 0.3130 0.0026
-10 6 1 -8.3983 0.0142
-10 6 2 -19.1132 0.0109
-10 6 3 52.0026 -0.0417
-10 6 4 7.6880 -0.0726
-10 6 5 -36.9544 0.1144
-10 6 6 4.4762 -0.0225
-10 6 7 -26.9867 0.0499
-10 6 8 -13.7400 0.0079
-10 6 9 -8.9922 -0.0930
-10 6 10 -6.0593 -0.0787
-10 6 11 -0.0514 0.0656
-10 6 12 11.6249 0.0283
-10 6 13 4.5908 0.0586
-10 6 14 3.1512 0.1231
-10 6 15 -6.8064 -0.1576
-10 6 16 -3.0999 -0.0260
-10 6 17 -3.2200 0.1047
-10 6 18 5.2652 -0.0457
-10 6 19 3.9326 0.0963
-10 6 20 1.9625 0.0040
-10 8 1 25.0318 -0.0613
-10 8 2 -0.7861 0.0511
-10 8 3 -2.4355 -0.0222
-10 8 4 -6.4646 -0.0367
-10 8 5 -30.4928 -0.0795
-10 8 6 -2.2311 0.0280
-10 8 7 4.1705 -0.0936
-10 8 8 13.2731 0.1582
-10 8 9 -2.6404 0.0665
-10 8 10 1.4716 0.0039
-10 8 11 2.1016 -0.0060
-10 8 12 11.4762 -0.1264
-10 8 13 8.1424 -0.0127
-10 8 14 0.3638 0.0049
-10 8 15 -5.3485 -0.0151
-10 8 16 -6.5424 0.1569
-10 8 17 -5.4850 0.0342
-10 8 18 1.6834 -0.0110
-10 8 19 5.4018 0.0012
-10 8 20 -0.3456 -0.1330
-10 10 1 12.3940 0.0345
-10 10 2 22.7962 -0.0322
-10 10 3 15.0600 0.0381
-10 10 4 -10.9860 -0.0195
-10 10 5 -0.2140 0.0686
-10 10 6 -6.9953 -0.0049
-10 10 7 19.8394 -0.0013
-10 10 8 10.4634 -0.0036
-10 10 9 0.1492 -0.0820
-10 10 10 -7.1748 -0.0985
-10 10 11 -18.4751 0.1026
-10 10 12 -2.4677 0.0407
-10 10 13 -1.2792 -0.0070
-10 10 14 -3.8424 0.0219
-10 10 15 4.1257 -0.0041
-10 10 16 -2.9497 -0.0529
-10 10 17 -5.2064 0.0062
-10 10 18 2.5348 0.0419
-10 10 19 -6.5961 -0.2183
-10 12 1 -3.7141 -0.0195
-10 12 2 -5.4402 -0.0244
-10 12 3 2.4142 -0.0452
-10 12 4 10.5067 0.0129
-10 12 5 0.4275 0.0293
-10 12 6 6.9774 -0.0388
-10 12 7 7.2615 -0.0151
-10 12 8 -0.3658 0.0525
-10 12 9 6.3011 0.0576
-10 12 10 -5.2599 -0.0348
-10 12 11 -11.4063 -0.0075
-10 12 12 -4.6975 0.0201
-10 12 13 -4.3296 -0.0835
-10 12 14 6.4870 0.0611
-10 12 15 8.2880 -0.0371
-10 12 16 1.2038 -0.0825
-10 12 17 2.6518 0.1407
-10 12 18 -8.3634 -0.2426
-10 14 1 16.1761 0.0047
-10 14 2 -20.7176 0.0622
-10 14 3 11.1766 -0.0453
-10 14 4 7.8086 0.0177
-10 14 5 -19.5666 0.0024
-10 14 6 19.8563 0.0249
-10 14 7 0.9142 -0.0114
-10 14 8 -4.4409 0.0280
-10 14 9 6.1126 0.0383
-10 14 10 -6.8215 -0.0227
-10 14 11 2.9073 0.0676
-10 14 12 -0.1552 0.0444
-10 14 13 -4.6132 -0.0542
-10 14 14 4.8804 -0.0455
-10 14 15 3.1625 -0.0653
-10 14 16 -2.1928 0.0012
-10 14 17 4.0498 -0.0798
-10 16 1 6.9819 -0.0128
-10 16 2 -4.8820 0.0001
-10 16 3 3.0605 0.0386
-10 16 4 -7.7555 -0.0020
-10 16 5 -5.3859 0.0290
-10 16 6 -12.9212 -0.0012
-10 16 7 15.9114 0.0293
-10 16 8 -1.5984 0.0137
-10 16 9 8.1053 -0.0834
-10 16 10 2.1944 0.0234
-10 16 11 -3.0911 -0.0324
-10 16 12 -1.7332 -0.1046
-10 16 13 -0.6876 -0.0282
-10 16 14 -3.0116 0.0020
-10 16 15 1.3589 0.0332
-10 16 16 2.4914 -0.0185
-10 18 1 10.0784 0.0198
-10 18 2 20.9116 0.0091
-10 18 3 1.7698 -0.0281
-10 18 4 -4.2645 0.1125
-10 18 5 0.2260 -0.0262
-10 18 6 -13.1590 -0.0973
-10 18 7 7.2750 0.0441
-10 18 8 4.7474 -0.0212
-10 18 9 10.4012 -0.0736
-10 18 10 6.9209 0.0272
-10 18 11 -8.2860 0.0263
-10 18 12 -4.4710 0.0304
-10 18 13 -5.1406 -0.0324
-10 18 14 3.4036 -0.0726
-10 18 15 3.5433 -0.0220
-10 20 1 4.2572 0.1647
-10 20 2 4.6614 0.0316
-10 20 3 11.9867 -0.0626
-10 20 4 4.1034 -0.0146
-10 20 5 -1.5235 0.0367
-10 20 6 4.0540 0.0035
-10 20 7 9.1861 -0.0005
-10 20 8 1.6880 0.0584
-10 20 9 13.6571 -0.0418
-10 20 10 0.7736 -0.0499
-10 20 11 -7.4731 0.1379
-10 20 12 -6.1792 -0.1234
-10 20 13 -4.6344 -0.0958
-10 22 1 4.1293 -0.0328
-10 22 2 -8.0774 0.0216
-10 22 3 3.4384 -0.0651
-10 22 4 11.9078 0.0164
-10 22 5 -4.9288 0.0389
-10 22 6 8.0410 -0.0745
-10 22 7 -1.5711 0.0839
-10 22 8 -5.3233 -0.0285
-10 22 9 3.5904 -0.0565
-10 22 10 3.1321 0.1254
-10 22 11 -6.3448 -0.1021
-10 24 1 -5.6446 0.1106
-10 24 2 4.1903 -0.0598
-10 24 3 3.5739 -0.1032
-10 24 4 7.8357 -0.0541
-10 24 5 -3.5774 -0.1408
-10 24 6 5.5072 0.0831
-10 24 7 -2.1210 0.2403
-10 24 8 6.7185 -0.0412
-10 26 1 1.6149 0.0339
-10 26 2 -0.2557 -0.1430
-10 26 3 9.0081 0.0827
-9 1 1 29.6402 -0.0627
-9 1 2 13.9600 1.3069
-9 1 4 30.7813 -0.3650
-9 1 5 48.1359 0.1813
-9 1 6 -43.2925 -0.2953
-9 1 7 31.0711 0.4368
-9 1 8 11.4572 0.3418
-9 1 9 25.5825 -0.2948
-9 1 10 -10.5605 -0.1146
-9 1 11 7.3592 -0.1873
-9 1 12 -24.1583 -0.1812
-9 1 13 -4.2354 0.2804
-9 1 14 6.9590 0.3077
-9 1 15 5.2781 -0.0387
-9 1 16 2.3625 0.0320
-9 1 17 2.6144 -0.2081
-9 1 18 -5.4006 -0.3917
-9 1 19 0.4939 0.2022
-9 1 20 -2.3591 0.1895
-9 1 21 -3.2374 -0.1002
-9 3 1 -2.3771 -0.0380
-9 3 2 36.5375 0.0146
-9 3 4 51.5271 0.0438
-9 3 5 60.1944 0.1890
-9 3 6 -14.7624 -0.1389
-9 3 7 -0.6379 0.0042
-9 3 8 0.5387 0.0473
-9 3 9 -16.2640 -0.1240
-9 3 10 14.5391 0.1379
-9 3 11 -0.9260 0.0797
-9 3 12 -4.8584 -0.0666
-9 3 13 -11.2647 -0.0325
-9 3 14 -2.4612 -0.0250
-9 3 15 1.7753 -0.0875
-9 3 16 5.2513 0.0140
-9 3 17 0.6272 0.0984
-9 3 18 -5.0941 -0.0268
-9 3 19 -6.7723 0.0290
-9 3 20 -2.1440 0.0117
-9 3 21 -1.2920 -0.0667
-9 5 1 -58.4648 -0.0136
-9 5 2 19.3801 0.1256
-9 5 3 -33.7281 -0.1727
-9 5 4 18.9430 -0.1509
-9 5 5 10.7766 -0.0552
-9 5 6 -5.4874 -0.0689
-9 5 7 -28.0957 0.0308
-9 5 8 12.7845 0.2422
-9 5 9 -10.4092 -0.0190
-9 5 10 2.1477 -0.0527
-9 5 11 16.3935 -0.0055
-9 5 12 8.9566 -0.2306
-9 5 13 4.9980 0.1313
-9 5 14 11.7085 0.1803
-9 5 15 -2.3312 -0.0657
-9 5 16 1.6454 0.0480
-9 5 17 0.5806 -0.1164
-9 5 18 0.3066 -0.1343
-9 5 19 -0.9234 0.0557
-9 5 20 6.6093 0.1589
-9 7 1 1.5941 0.0447
-9 7 2 -3.8452 0.0478
-9 7 3 27.4111 0.1733
-9 7 4 -17.2530 -0.0087
-9 7 5 0.7201 0.0947
-9 7 6 -13.9399 -0.1025
-9 7 7 -22.7923 -0.0653
-9 7 8 0.4767 -0.0127
-9 7 9 7.0405 -0.1359
-9 7 10 1.0051 0.0239
-9 7 11 26.7710 0.0821
-9 7 12 -12.5789 0.0069
-9 7 13 8.4699 0.0580
-9 7 14 2.4226 -0.0404
-9 7 15 -3.2976 -0.0776
-9 7 16 4.5911 -0.0035
-9 7 17 0.1014 -0.0200
-9 7 18 -4.3569 0.0216
-9 7 19 6.0530 0.0306
-9 7 20 -1.9693 0.0262
-9 9 1 10.3202 0.0099
-9 9 2 6.6641 -0.0255
-9 9 3 -13.1634 0.0245
-9 9 4 -7.9112 -0.0147
-9 9 5 4.1101 -0.0099
-9 9 6 -15.8933 0.0630
-9 9 7 -13.5279 -0.0003
-9 9 8 19.0755 0.0396
-9 9 9 -0.2153 0.0251
-9 9 10 9.2028 -0.0360
-9 9 11 9.6197 0.0085
-9 9 12 -3.8726 -0.0608
-9 9 13 -7.4898 0.0013
-9 9 14 -3.7224 0.0937
-9 9 15 3.9417 -0.0108
-9 9 16 -0.0740 -0.0569
-9 9 17 8.5342 0.0763
-9 9 18 2.8033 -0.0980
-9 9 19 3.2666 0.0592
-9 9 20 -1.5308 0.0930
-9 11 1 -29.2675 -0.0082
-9 11 2 -2.6248 0.0045
-9 11 3 -20.6609 -0.0386
-9 11 4 7.8826 0.0209
-9 11 5 12.9788 -0.0296
-9 11 6 4.3947 -0.0097
-9 11 7 -11.0812 -0.0477
-9 11 8 -6.1133 0.0203
-9 11 9 -1.1455 0.0452
-9 11 10 4.6428 0.0045
-9 11 11 -6.1709 0.0648
-9 11 12 7.8523 -0.0134
-9 11 13 -18.9831 -0.0476
-9 11 14 -0.0478 -0.0303
-9 11 15 4.6435 -0.1084
-9 11 16 1.8661 0.1288
-9 11 17 2.3115 0.0535
-9 11 18 -0.5239 0.1276
-9 11 19 -3.4254 0.1530
-9 13 1 -9.3006 -0.0200
-9 13 2 -24.8217 -0.0001
-9 13 3 -8.5973 0.0622
-9 13 4 1.3523 -0.0008
-9 13 5 9.5302 0.0092
-9 13 6 8.9678 -0.0050
-9 13 7 -16.2951 -0.0190
-9 13 8 -8.6280 -0.0410
-9 13 9 -12.7085 -0.0030
-9 13 10 -5.5546 -0.0095
-9 13 11 -2.7345 0.0014
-9 13 12 -2.0198 0.0503
-9 13 13 -5.6613 0.0091
-9 13 14 -2.6737 0.0461
-9 13 15 -5.5247 0.0814
-9 13 16 -1.3181 -0.0483
-9 13 17 -0.4148 0.0228
-9 13 18 -8.5261 0.0690
-9 15 1 2.2945 -0.0552
-9 15 2 -7.5414 -0.0224
-9 15 3 16.7224 -0.0166
-9 15 4 -6.9459 -0.0115
-9 15 5 -1.8649 0.0292
-9 15 6 -5.3036 -0.0001
-9 15 7 -11.3038 -0.0462
-9 15 8 -6.0798 -0.0485
-9 15 9 4.2307 0.0529
-9 15 10 -0.5597 0.0431
-9 15 11 11.4828 -0.0100
-9 15 12 -3.7454 0.0241
-9 15 13 1.3744 -0.0058
-9 15 14 -0.4307 -0.0013
-9 15 15 -2.5351 -0.0115
-9 15 16 -0.0968 0.0140
-9 15 17 -2.6127 0.1793
-9 17 1 -1.3117 -0.0185
-9 17 2 7.1265 -0.0200
-9 17 3 1.8166 0.0191
-9 17 4 -2.1279 -0.0142
-9 17 5 6.8320 -0.0570
-9 17 6 -6.2293 0.0158
-9 17 7 -5.4914 -0.0120
-9 17 8 1.6304 0.0084
-9 17 9 -2.2455 0.0860
-9 17 10 11.4275 -0.0184
-9 17 11 -0.8728 0.0672
-9 17 12 1.5798 0.0679
-9 17 13 -3.6734 -0.0227
-9 17 14 -1.3536 -0.0456
-9 17 15 1.9882 -0.0207
-9 17 16 6.7281 0.0420
-9 19 1 -23.2093 -0.0765
-9 19 2 11.4845 -0.0573
-9 19 3 -1.1094 0.0417
-9 19 4 8.1146 -0.0207
-9 19 5 8.6221 0.0597
-9 19 6 -5.7021 0.0533
-9 19 7 1.5951 -0.0140
-9 19 8 -4.9100 0.0704
-9 19 9 -3.7897 -0.0327
-9 19 10 6.4794 0.0233
-9 19 11 2.6445 -0.0628
-9 19 12 1.4173 -0.0313
-9 19 13 -2.7894 0.0863
-9 19 14 3.3117 0.0552
-9 19 15 -0.0405 0.0481
-9 21 1 -9.9408 -0.0356
-9 21 2 -18.6059 0.0139
-9 21 3 -5.9405 -0.0442
-9 21 4 7.0489 0.0390
-9 21 5 10.2984 0.0353
-9 21 6 13.0201 -0.0769
-9 21 7 5.1647 -0.0358
-9 21 8 -1.8550 0.0019
-9 21 9 0.6653 -0.0157
-9 21 10 -0.9282 -0.0599
-9 21 11 2.6096 -0.0778
-9 21 12 7.9871 0.1124
-9 21 13 1.8772 0.1919
-9 23 1 -4.9658 0.0880
-9 23 2 -13.7029 0.0522
-9 23 3 -3.1026 0.0109
-9 23 4 0.8506 -0.0330
-9 23 5 4.1136 -0.0165
-9 23 6 12.0369 0.0717
-9 23 7 -0.2583 -0.1114
-9 23 8 -2.0363 -0.0639
-9 23 9 -0.8068 0.1161
-9 23 10 -0.4241 -0.0026
-9 23 11 9.4695 0.0181
-9 25 1 1.0419 -0.2709
-9 25 2 1.1092 0.1438
-9 25 3 3.1082 0.2059
-9 25 4 -1.6780 -0.0330
-9 25 5 -1.6555 0.0706
-9 25 6 4.3365 -0.0361
-9 25 7 -5.0912 -0.0761
-8 0 2 -13.1082 2.9595
-8 0 4 16.3830 -0.2423
-8 0 8 -33.4134 0.5646
-8 0 10 13.6493 -0.3187
-8 0 12 -3.4553 -0.5324
-8 0 14 -8.4838 0.4277
-8 0 16 9.7683 0.0753
-8 0 18 4.8064 -0.3061
-8 0 20 1.8046 0.2932
-8 2 1 -41.6807 -0.3116
-8 2 2 -87.0604 -0.2639
-8 2 3 -27.9099 -0.5598
-8 2 4 0.1019 -0.2795
-8 2 5 47.7962 0.3387
-8 2 6 53.5136 0.0538
-8 2 7 19.8330 0.3767
-8 2 8 -1.9720 0.0831
-8 2 9 -4.2635 -0.3259
-8 2 10 6.1370 -0.0258
-8 2 11 -0.9308 -0.0064
-8 2 12 15.6034 -0.0133
-8 2 13 -5.0214 0.1681
-8 2 14 5.0329 0.0268
-8 2 15 -4.4582 -0.1800
-8 2 16 8.9686 0.0442
-8 2 17 2.3669 0.0475
-8 2 18 -4.0277 -0.0008
-8 2 19 -0.2900 0.0776
-8 2 20 -7.4679 -0.0114
-8 2 21 -3.2469 -0.0449
-8 4 1 52.8368 0.0125
-8 4 2 -84.5344 0.3478
-8 4 3 -3.6113 0.1232
-8 4 4 0.7456 -0.1222
-8 4 5 8.0830 -0.0559
-8 4 6 23.5968 -0.2621
-8 4 8 -57.4894 0.2471
-8 4 9 -30.0828 0.0065
-8 4 10 -9.0494 0.0866
-8 4 11 -11.3856 0.0436
-8 4 12 13.7857 -0.1462
-8 4 13 -4.5036 0.0150
-8 4 14 -4.9118 0.0147
-8 4 15 -8.6512 0.0310
-8 4 16 -11.3601 0.0332
-8 4 17 -0.0477 0.0231
-8 4 18 -6.5139 -0.1006
-8 4 19 -1.1885 -0.0434
-8 4 20 -1.5522 0.0366
-8 4 21 -2.8551 -0.0291
-8 6 1 46.1204 0.0056
-8 6 2 2.8932 -0.0382
-8 6 3 -12.6914 -0.0122
-8 6 4 -31.8777 -0.0395
-8 6 5 -14.6003 0.1499
-8 6 6 11.6094 0.0299
-8 6 7 -19.1043 0.0584
-8 6 8 5.3107 -0.0161
-8 6 9 -24.7299 -0.0901
-8 6 10 2.0966 -0.0448
-8 6 11 1.0661 0.0368
-8 6 12 6.0890 0.0196
-8 6 13 10.8347 0.0202
-8 6 14 2.6582 0.0589
-8 6 15 2.1437 -0.0928
-8 6 16 1.3647 -0.0595
-8 6 17 -2.0431 0.0766
-8 6 18 -0.1715 -0.0474
-8 6 19 5.5191 0.1229
-8 6 20 1.0613 -0.0186
-8 8 1 17.7025 -0.0653
-8 8 2 16.4691 0.1038
-8 8 3 20.7677 0.0052
-8 8 4 -29.3185 -0.0764
-8 8 5 -15.8034 -0.0874
-8 8 6 19.6592 0.0312
-8 8 7 10.5350 -0.0672
-8 8 8 14.4314 0.1300
-8 8 9 -2.2017 0.0496
-8 8 10 3.2049 0.0358
-8 8 11 -4.3420 0.0453
-8 8 12 1.1749 -0.1224
-8 8 13 4.3661 -0.0643
-8 8 14 -11.8755 0.0561
-8 8 15 -6.9200 -0.0397
-8 8 16 4.4420 0.1400
-8 8 17 2.5758 0.0698
-8 8 18 7.8700 -0.1211
-8 8 19 5.3680 -0.0338
-8 8 20 -5.0511 -0.0601
-8 10 1 -25.4508 -0.0039
-8 10 2 -15.7257 -0.0277
-8 10 3 -20.4062 0.0629
-8 10 4 -10.2736 0.0107
-8 10 5 -1.5822 0.0544
-8 10 6 -1.5265 0.0092
-8 10 7 6.6629 -0.0302
-8 10 8 -3.6553 -0.0410
-8 10 9 -0.7112 -0.0858
-8 10 10 2.0309 -0.0816
-8 10 11 -8.8191 0.0547
-8 10 12 -4.6309 0.0072
-8 10 13 -3.8034 0.0116
-8 10 14 -4.5185 0.0281
-8 10 15 -4.1069 0.0064
-8 10 16 0.6034 -0.0333
-8 10 17 -1.0638 -0.0457
-8 10 18 6.5929 -0.0199
-8 10 19 3.4942 -0.0682
-8 12 1 13.3243 0.0237
-8 12 2 -24.9297 -0.0023
-8 12 3 -33.0396 -0.0337
-8 12 4 8.6348 0.0011
-8 12 5 -12.0385 0.0084
-8 12 6 11.6944 0.0056
-8 12 8 -17.5079 0.0088
-8 12 9 -2.4930 0.0186
-8 12 10 -8.9363 0.0343
-8 12 11 -2.9119 0.0190
-8 12 12 9.8264 -0.0525
-8 12 13 3.6638 -0.1158
-8 12 14 -2.2322 0.0409
-8 12 15 -1.9887 0.0110
-8 12 16 -5.1572 -0.0706
-8 12 17 -0.4996 0.0888
-8 12 18 -3.9378 -0.1565
-8 12 19 0.3449 -0.0409
-8 14 1 25.5427 0.0135
-8 14 2 1.2770 0.0096
-8 14 3 -0.9737 -0.0319
-8 14 4 -3.3682 0.0522
-8 14 5 -14.3771 -0.0130
-8 14 6 -7.7866 -0.0033
-8 14 7 -8.6381 -0.0353
-8 14 8 8.0828 -0.0087
-8 14 9 -11.9257 0.0407
-8 14 10 -2.9225 -0.0311
-8 14 11 -1.6944 -0.0076
-8 14 12 -1.7577 0.0042
-8 14 13 6.9082 -0.0139
-8 14 14 7.7625 0.0058
-8 14 15 -7.4400 -0.0394
-8 14 16 -0.7260 0.0391
-8 14 17 -1.4594 -0.0999
-8 14 18 -1.4385 -0.0598
-8 16 1 10.1616 0.0289
-8 16 2 -1.3608 0.0132
-8 16 3 7.5073 0.0462
-8 16 4 -4.3579 -0.0213
-8 16 5 -3.3234 0.0230
-8 16 6 -1.2664 0.0251
-8 16 8 5.5044 -0.0230
-8 16 9 -4.3144 -0.1262
-8 16 10 -4.4911 0.0177
-8 16 11 7.9080 -0.0098
-8 16 12 -2.7753 -0.0946
-8 16 13 2.0806 0.0051
-8 16 14 -5.2215 0.0125
-8 16 15 -3.7284 0.1381
-8 16 16 -5.9569 0.0115
-8 16 17 -1.9855 -0.0811
-8 18 1 0.9590 -0.0301
-8 18 2 0.6187 -0.0294
-8 18 3 -8.7136 -0.0436
-8 18 4 -3.3561 0.0990
-8 18 5 0.2850 0.0333
-8 18 6 -2.4100 -0.1140
-8 18 7 11.0363 0.0154
-8 18 8 -1.8169 -0.0474
-8 18 9 -5.0777 0.0067
-8 18 10 -1.3830 0.0330
-8 18 11 -7.4674 -0.0367
-8 18 12 1.9293 0.0635
-8 18 13 4.9733 -0.0488
-8 18 14 -1.6975 0.0195
-8 18 15 3.1229 0.0195
-8 18 16 3.1257 -0.0678
-8 20 1 12.6642 0.1414
-8 20 2 4.0242 -0.0301
-8 20 3 -23.2847 -0.0332
-8 20 4 6.5484 -0.0046
-8 20 5 4.0928 -0.0669
-8 20 6 -6.4503 0.0082
-8 20 7 24.9660 0.0808
-8 20 8 3.4541 0.0128
-8 20 9 3.1035 -0.0417
-8 20 10 -4.7732 -0.0861
-8 20 11 -1.1367 0.0365
-8 20 12 -1.4013 0.0194
-8 20 13 3.5436 -0.0172
-8 20 14 -0.6428 0.0449
-8 22 1 11.9767 -0.0068
-8 22 2 1.2089 -0.0535
-8 22 3 -8.2026 -0.0223
-8 22 4 -3.5888 0.0557
-8 22 5 -3.3290 0.0343
-8 22 7 3.8249 0.0217
-8 22 8 6.9748 -0.0599
-8 22 9 6.0059 -0.0571
-8 22 10 -5.4837 0.1253
-8 22 11 -1.4701 -0.0212
-8 22 12 0.4557 0.0170
-8 24 1 1.3644 0.0825
-8 24 2 8.2860 0.0090
-8 24 3 0.1122 0.0088
-8 24 4 2.5158 0.0519
-8 24 5 -7.2569 -0.1845
-8 24 6 0.6349 -0.0580
-8 24 7 -1.2942 0.2343
-8 24 8 6.7716 0.0385
-8 24 9 -4.4436 -0.0414
-8 24 10 0.4469 0.0076
-8 26 1 3.2431 -0.0293
-8 26 2 8.3787 -0.1664
-8 26 3 3.5688 0.1115
-8 26 4 0.4728 0.0809
-8 26 5 -0.0424 -0.1702
-7 1 2 94.7278 1.4249
-7 1 3 2.2668 -0.9269
-7 1 4 -72.7763 -0.3700
-7 1 5 -6.2583 0.1690
-7 1 6 3.2066 -0.3877
-7 1 7 -16.3751 0.4857
-7 1 8 59.5288 0.4339
-7 1 9 -11.2987 -0.3754
-7 1 10 1.7668 -0.1006
-7 1 11 8.0003 -0.0579
-7 1 12 -8.2724 -0.2260
-7 1 13 -0.3292 0.2877
-7 1 14 0.9142 0.2653
-7 1 15 -10.1392 -0.1022
-7 1 16 -5.7256 0.0122
-7 1 17 -7.5310 -0.1532
-7 1 18 -3.1023 -0.3286
-7 1 19 -3.3804 0.1789
-7 1 20 0.6192 0.1323
-7 1 21 -3.2834 -0.0363
-7 3 1 -51.1554 0.0026
-7 3 2 43.2662 -0.0033
-7 3 3 44.4445 -0.0336
-7 3 4 -12.9395 0.0097
-7 3 5 -35.1518 0.2377
-7 3 6 29.3379 -0.1477
-7 3 7 12.1399 -0.0149
-7 3 8 41.9165 0.0547
-7 3 9 26.5248 -0.1016
-7 3 10 -14.6542 0.1413
-7 3 11 -14.3097 0.0387
-7 3 12 4.0491 -0.0535
-7 3 13 1.4246 -0.0322
-7 3 14 21.2903 -0.0388
-7 3 15 -0.5518 -0.0895
-7 3 16 -5.7248 0.0406
-7 3 17 -7.2674 0.1049
-7 3 18 -4.9549 -0.0183
-7 3 19 -2.6591 0.0561
-7 3 20 2.5633 -0.0159
-7 3 21 -1.5350 -0.0849
-7 5 1 29.3090 -0.0021
-7 5 3 64.1703 -0.2644
-7 5 4 52.4622 -0.1172
-7 5 5 -24.5457 -0.0656
-7 5 6 3.0988 -0.0721
-7 5 7 -27.3206 0.0667
-7 5 8 12.7272 0.2530
-7 5 9 6.0399 -0.0878
-7 5 10 12.5504 -0.1082
-7 5 11 -4.0870 0.0481
-7 5 12 -3.7358 -0.2291
-7 5 13 -6.2081 0.0721
-7 5 14 10.6479 0.2064
-7 5 15 5.2431 -0.0617
-7 5 16 -3.6087 0.0474
-7 5 17 -2.4418 -0.0789
-7 5 18 -5.4356 -0.1248
-7 5 19 1.5373 0.0180
-7 5 20 5.1744 0.1092
-7 5 21 8.6851 0.0072
-7 7 1 34.0857 0.0902
-7 7 2 48.2446 0.0172
-7 7 3 29.9987 0.1439
-7 7 4 -18.0817 -0.0731
-7 7 5 -38.6792 0.1133
-7 7 6 -17.7720 -0.0890
-7 7 7 -42.1195 -0.1125
-7 7 8 15.5392 -0.0181
-7 7 9 2.9331 -0.0802
-7 7 10 -4.5329 0.0598
-7 7 11 7.3702 0.0843
-7 7 12 -2.1891 0.0063
-7 7 13 -5.0461 0.0921
-7 7 14 -0.4146 -0.0615
-7 7 15 1.4912 -0.0831
-7 7 16 1.8052 0.0596
-7 7 17 5.6253 -0.0294
-7 7 18 0.7244 0.0386
-7 7 19 4.8877 0.0300
-7 7 20 -2.8786 -0.0142
-7 9 1 -29.4756 -0.0182
-7 9 2 21.7538 0.0246
-7 9 3 22.5060 -0.0106
-7 9 4 -29.7974 -0.0370
-7 9 5 1.4821 -0.0018
-7 9 6 -8.8373 0.0450
-7 9 7 4.3890 0.0219
-7 9 8 22.7124 0.0709
-7 9 9 9.0683 -0.0000
-7 9 10 13.3477 -0.1093
-7 9 11 -8.4991 0.0088
-7 9 12 -7.1445 -0.0073
-7 9 13 4.1311 -0.0218
-7 9 14 -5.5988 0.0591
-7 9 15 -2.1336 0.0204
-7 9 16 2.3111 -0.0415
-7 9 17 -4.0588 0.0669
-7 9 18 4.9042 -0.0437
-7 9 19 4.0928 0.0228
-7 9 20 -5.0935 0.0692
-7 11 1 -42.8913 -0.0328
-7 11 2 8.3452 -0.0162
-7 11 3 -3.3461 -0.0328
-7 11 4 0.4280 0.0335
-7 11 5 5.4070 -0.0211
-7 11 6 -0.7123 -0.0037
-7 11 7 20.9472 -0.0316
-7 11 8 7.7331 0.0044
-7 11 9 14.0217 0.0715
-7 11 10 -1.3331 0.0290
-7 11 11 -10.0728 0.0502
-7 11 12 -2.4987 -0.0183
-7 11 13 -11.5340 -0.0246
-7 11 14 6.6045 0.0184
-7 11 15 9.8544 -0.1437
-7 11 16 -1.1415 0.0912
-7 11 17 2.1608 0.0889
-7 11 18 -6.0506 0.0813
-7 11 19 -5.3558 0.0641
-7 13 1 -6.4736 -0.0174
-7 13 2 3.7862 -0.0290
-7 13 3 27.7039 0.0466
-7 13 4 20.4643 -0.0015
-7 13 5 -8.0696 -0.0004
-7 13 6 6.2020 -0.0188
-7 13 7 -6.8511 -0.0235
-7 13 8 0.3187 0.0097
-7 13 9 19.5166 -0.0121
-7 13 10 -0.6633 -0.0453
-7 13 11 -10.6337 0.0119
-7 13 12 5.4467 0.0867
-7 13 13 -10.4555 0.0518
-7 13 14 12.7204 -0.0114
-7 13 15 6.6955 0.0582
-7 13 16 0.3515 -0.0779
-7 13 17 4.0458 0.0017
-7 13 18 -4.0177 0.0109
-7 13 19 2.7799 -0.0630
-7 15 1 -5.1890 -0.0195
-7 15 2 -3.6253 0.0339
-7 15 3 29.8909 -0.0480
-7 15 4 0.7724 -0.0145
-7 15 5 3.3921 0.0237
-7 15 6 -11.0351 -0.0093
-7 15 7 -16.9471 -0.0085
-7 15 8 -14.7300 -0.0234
-7 15 9 5.8187 0.0520
-7 15 10 4.1169 0.0726
-7 15 11 9.8374 -0.0110
-7 15 12 -4.4121 0.0417
-7 15 13 -3.7928 -0.0617
-7 15 14 -3.2877 -0.0362
-7 15 15 3.2363 -0.0472
-7 15 16 1.4172 -0.0356
-7 15 17 0.0165 0.2003
-7 15 18 -1.2093 -0.0396
-7 17 1 -16.9889 -0.0678
-7 17 2 -3.6644 0.0081
-7 17 3 18.4058 0.0425
-7 17 4 -9.7219 -0.0144
-7 17 5 1.7885 -0.0550
-7 17 6 -0.9549 0.0124
-7 17 7 -8.3022 0.0015
-7 17 8 1.3372 0.0739
-7 17 9 1.7324 0.1015
-7 17 10 7.9149 -0.0469
-7 17 11 0.3976 0.0103
-7 17 12 5.1909 0.0191
-7 17 13 -2.6519 0.0313
-7 17 14 -4.9248 -0.0640
-7 17 15 0.4521 -0.0526
-7 17 16 3.1154 0.0148
-7 19 1 2.1256 -0.0148
-7 19 2 -2.2116 0.0231
-7 19 3 -3.4261 0.0144
-7 19 4 -0.3941 -0.0283
-7 19 5 -7.4280 0.0429
-7 19 6 -10.3116 0.0630
-7 19 7 3.7998 -0.0317
-7 19 8 -8.7070 0.0300
-7 19 9 11.3328 -0.0570
-7 19 10 0.6255 -0.0029
-7 19 11 -6.0910 0.0229
-7 19 12 -1.0692 -0.0177
-7 19 13 -0.6217 0.0461
-7 19 14 0.2627 -0.0584
-7 19 15 3.0449 -0.0934
-7 21 1 2.3227 0.0085
-7 21 2 2.5398 0.0574
-7 21 3 -4.1628 -0.0589
-7 21 4 9.7515 -0.0188
-7 21 5 -5.1905 0.0264
-7 21 6 1.2868 -0.0690
-7 21 7 3.0634 -0.0215
-7 21 8 -2.8828 -0.0137
-7 21 9 9.8929 0.0683
-7 21 10 4.5194 -0.0155
-7 21 11 -4.8698 -0.0868
-7 21 12 -1.2417 0.0623
-7 21 13 -6.4560 0.0086
-7 23 1 2.7897 0.0359
-7 23 2 -4.7968 0.0148
-7 23 3 13.5572 0.0221
-7 23 4 8.1488 -0.0344
-7 23 5 -1.5040 -0.0259
-7 23 6 -1.6882 0.1224
-7 23 7 -8.8713 0.0587
-7 23 8 -6.2986 0.0246
-7 23 9 2.4590 0.0426
-7 23 10 5.9388 -0.0960
-7 23 11 -5.2614 -0.0437
-7 25 1 5.0303 -0.0668
-7 25 2 -5.9782 -0.0309
-7 25 3 3.9989 -0.0229
-7 25 4 6.3190 0.0567
-7 25 5 -0.4443 0.1619
-7 25 6 -2.8945 -0.1220
-7 25 7 -7.9055 -0.0765
-7 25 8 -3.3563 -0.0318
-7 27 1 -4.2470 0.0183
-7 27 2 1.1865 -0.1385
-6 0 2 -179.8853 2.9751
-6 0 4 -97.3255 -0.0746
-6 0 8 -37.5788 0.5134
-6 0 12 -32.1017 -0.5331
-6 0 14 -18.1657 0.3979
-6 0 16 1.8261 0.2175
-6 0 18 -4.0880 -0.3980
-6 0 20 0.9165 0.3197
-6 2 1 19.8900 -0.2470
-6 2 2 49.9232 -0.2835
-6 2 3 -39.6819 -0.6048
-6 2 4 78.0222 -0.2350
-6 2 5 -7.6788 0.3223
-6 2 6 17.8004 0.0283
-6 2 8 10.6263 0.0830
-6 2 9 -27.7548 -0.1736
-6 2 10 5.4589 -0.0576
-6 2 11 -13.5592 -0.0907
-6 2 12 -12.1220 0.0046
-6 2 13 2.1159 0.2262
-6 2 14 -12.5344 0.0622
-6 2 15 0.3030 -0.1321
-6 2 16 5.2578 0.0051
-6 2 17 -8.3804 -0.0472
-6 2 18 3.0409 -0.0383
-6 2 19 -6.8645 0.1157
-6 2 20 -1.7123 0.0170
-6 2 21 -3.5267 -0.0975
-6 4 1 9.3164 0.0291
-6 4 2 0.4855 0.2916
-6 4 3 15.0608 0.2059
-6 4 4 79.2380 -0.1289
-6 4 5 22.3750 0.0088
-6 4 6 -13.6615 -0.2293
-6 4 8 -18.8361 0.1420
-6 4 9 9.6308 -0.0346
-6 4 10 11.1501 0.2214
-6 4 11 -1.6664 0.0516
-6 4 12 0.8936 -0.2661
-6 4 13 -0.3678 0.0021
-6 4 14 -6.1643 0.0490
-6 4 15 4.8136 0.0163
-6 4 16 -0.1818 0.0772
-6 4 17 -0.4796 0.0199
-6 4 18 -4.5250 -0.1192
-6 4 19 1.0208 -0.0314
-6 4 20 -1.2152 0.0188
-6 4 21 4.9920 -0.0189
-6 6 1 2.6103 -0.0034
-6 6 3 4.8822 -0.0468
-6 6 5 18.7867 0.1256
-6 6 6 -3.3599 0.0066
-6 6 7 -20.2202 0.1085
-6 6 8 -28.7794 0.0066
-6 6 9 3.5167 -0.0862
-6 6 10 7.5050 -0.0348
-6 6 11 31.6195 0.0239
-6 6 12 0.3159 0.0386
-6 6 13 4.7402 0.0648
-6 6 14 -11.7127 0.0110
-6 6 15 -8.0611 -0.0636
-6 6 16 2.7235 -0.0500
-6 6 17 6.1240 0.0019
-6 6 18 0.4311 -0.0643
-6 6 19 7.9317 0.1462
-6 6 20 -2.7779 0.0516
-6 6 21 1.3798 -0.0520
-6 8 1 22.5137 -0.0462
-6 8 2 -31.8916 0.0908
-6 8 3 -39.9842 0.0321
-6 8 4 -6.4801 -0.0471
-6 8 5 4.6974 -0.0704
-6 8 6 -16.6789 0.0091
-6 8 7 -8.8007 -0.0811
-6 8 8 -0.4043 0.1193
-6 8 9 -7.5485 0.0221
-6 8 10 24.7511 0.0064
-6 8 11 1.7186 0.0499
-6 8 12 -0.7101 -0.0983
-6 8 13 -4.6846 -0.0913
-6 8 14 -16.6843 0.0681
-6 8 15 -12.3966 -0.0453
-6 8 16 1.1096 0.0728
-6 8 17 0.4968 0.0650
-6 8 18 4.4633 -0.0987
-6 8 19 4.0688 -0.0018
-6 8 20 -3.8754 -0.0319
-6 10 1 1.9736 0.0089
-6 10 2 10.8896 0.0050
-6 10 3 -49.3821 0.0422
-6 10 4 -13.4039 0.0195
-6 10 5 42.6484 0.0424
-6 10 6 -1.5587 0.0440
-6 10 7 35.3341 -0.0608
-6 10 8 7.6799 -0.0513
-6 10 9 -18.6097 -0.0245
-6 10 10 9.3059 -0.0680
-6 10 11 -6.3439 0.0202
-6 10 12 1.6848 -0.0027
-6 10 13 1.2966 0.0628
-6 10 14 1.4539 -0.0003
-6 10 15 2.7998 -0.0305
-6 10 16 9.8328 -0.0309
-6 10 17 5.4342 -0.0284
-6 10 18 2.6518 0.0007
-6 10 19 -3.7220 -0.0174
-6 10 20 -3.1150 0.0473
-6 12 1 -0.3604 0.0274
-6 12 2 14.2012 -0.0054
-6 12 3 -27.2506 0.0266
-6 12 4 20.9897 -0.0231
-6 12 5 14.2410 -0.0358
-6 12 6 -3.9044 0.0040
-6 12 8 1.3797 0.0277
-6 12 9 -10.6280 0.0098
-6 12 10 3.9926 0.0328
-6 12 11 -1.4710 0.0233
-6 12 12 10.3996 -0.0514
-6 12 13 2.3885 -0.1350
-6 12 14 6.4778 0.0448
-6 12 15 8.7549 0.0168
-6 12 16 -0.4413 -0.0104
-6 12 17 11.0010 0.0627
-6 12 18 1.3462 -0.0697
-6 12 19 -4.1226 -0.0154
-6 14 1 2.9655 0.0021
-6 14 2 -26.6703 -0.0297
-6 14 3 -12.4949 0.0089
-6 14 4 4.0482 0.0546
-6 14 5 1.9045 -0.0259
-6 14 6 11.6183 -0.0031
-6 14 7 -8.0942 -0.0003
-6 14 8 -20.1627 -0.0501
-6 14 9 -4.9622 -0.0146
-6 14 10 -5.1432 -0.0113
-6 14 11 2.2399 -0.0029
-6 14 12 9.4084 -0.0456
-6 14 13 1.2140 0.0227
-6 14 14 -3.6442 0.0581
-6 14 15 -6.2585 -0.0025
-6 14 16 -5.6804 0.0165
-6 14 17 -0.9033 -0.0194
-6 14 18 2.0883 -0.0223
-6 16 1 11.1019 0.0370
-6 16 2 13.4665 -0.0161
-6 16 3 -17.3075 0.0153
-6 16 4 -8.7200 0.0221
-6 16 5 -3.3691 0.0472
-6 16 6 4.0959 0.0086
-6 16 7 9.1074 -0.0057
-6 16 8 9.8689 -0.0399
-6 16 9 -20.8579 -0.0935
-6 16 10 4.6233 -0.0233
-6 16 11 1.5864 -0.0106
-6 16 12 -2.5324 0.0209
-6 16 13 2.6020 -0.0073
-6 16 14 -4.1312 0.0490
-6 16 15 -12.7368 0.1171
-6 16 16 -3.1458 0.0119
-6 16 17 -1.5797 -0.0640
-6 18 1 -4.8001 -0.0070
-6 18 2 22.6696 0.0228
-6 18 3 -5.0682 -0.0006
-6 18 4 -4.0758 -0.0271
-6 18 5 3.6613 -0.0039
-6 18 6 -9.6685 -0.0073
-6 18 7 8.7287 0.0038
-6 18 8 9.3121 -0.1067
-6 18 9 0.2558 0.0306
-6 18 10 -2.6541 0.0953
-6 18 11 -0.5244 -0.0258
-6 18 12 1.1009 0.0219
-6 18 13 3.2644 -0.0508
-6 18 14 6.6431 0.0548
-6 18 15 3.1938 0.0620
-6 18 16 0.9607 -0.0963
-6 20 1 -5.1933 0.0044
-6 20 2 6.3268 -0.0547
-6 20 3 -5.2805 0.0314
-6 20 4 -3.9049 0.0155
-6 20 5 3.9301 -0.0979
-6 20 6 8.3638 0.0446
-6 20 7 4.5333 0.0210
-6 20 8 4.8992 -0.0436
-6 20 9 1.0366 -0.0471
-6 20 10 5.1609 0.0054
-6 20 11 0.2732 0.0422
-6 20 12 0.9251 0.0071
-6 20 13 0.8657 0.0813
-6 20 14 -4.4451 0.0908
-6 22 1 -4.2948 0.0100
-6 22 2 -13.7784 -0.0556
-6 22 3 3.3387 0.0253
-6 22 4 1.7757 -0.0356
-6 22 5 2.8458 0.0069
-6 22 7 4.5780 0.0046
-6 22 8 -3.8646 -0.0768
-6 22 9 -8.8524 0.0164
-6 22 10 -1.4840 0.0847
-6 22 11 -0.0542 0.0623
-6 22 12 5.7913 0.0022
-6 22 13 6.2771 0.0383
-6 24 1 -2.5217 -0.0859
-6 24 2 -12.3990 0.0540
-6 24 3 -0.2973 0.0022
-6 24 4 -9.8345 0.0052
-6 24 5 5.2338 -0.0638
-6 24 6 4.1797 -0.1209
-6 24 7 -3.2050 -0.0315
-6 24 8 -0.0119 -0.0171
-6 24 9 -3.0744 -0.0326
-6 24 10 -0.6666 0.0720
-6 26 1 4.3684 -0.0057
-6 26 2 7.9176 0.0504
-6 26 3 -2.2939 0.0610
-6 26 4 -6.4288 0.0087
-6 26 5 -1.9538 -0.0357
-6 26 7 6.4414 -0.1347
-5 1 1 110.4884 -0.0084
-5 1 2 -95.2420 1.5208
-5 1 3 0.2219 -0.9751
-5 1 5 -18.8927 0.0737
-5 1 6 10.1754 -0.4811
-5 1 7 25.2206 0.5504
-5 1 8 -17.4994 0.5646
-5 1 9 8.3067 -0.3839
-5 1 10 1.6584 -0.1559
-5 1 11 -17.7211 0.0044
-5 1 12 13.9830 -0.2689
-5 1 13 3.9052 0.3046
-5 1 14 1.7340 0.3065
-5 1 15 6.6849 -0.1673
-5 1 16 3.8793 -0.0374
-5 1 17 6.0024 -0.1191
-5 1 18 -0.8238 -0.2633
-5 1 19 1.9077 0.1444
-5 1 20 -3.4592 0.0708
-5 1 21 1.7510 0.0157
-5 3 1 -40.9504 0.0205
-5 3 2 -109.9008 -0.0111
-5 3 3 -16.3315 0.0156
-5 3 4 -14.4552 0.0050
-5 3 5 85.5238 0.2405
-5 3 6 -3.3827 -0.1240
-5 3 7 45.8957 0.0205
-5 3 8 -9.3481 0.0087
-5 3 9 -7.4310 -0.1378
-5 3 10 -1.4482 0.1224
-5 3 11 0.1821 0.0243
-5 3 12 6.2140 -0.0524
-5 3 13 14.8361 -0.0082
-5 3 14 -6.9541 -0.0640
-5 3 15 13.4964 -0.0960
-5 3 16 -5.9939 0.0565
-5 3 17 1.7018 0.1208
-5 3 18 8.0311 -0.0086
-5 3 19 2.0039 0.0965
-5 3 20 -0.6953 -0.0313
-5 3 21 -0.5591 -0.0649
-5 5 1 -15.2613 -0.0690
-5 5 2 -34.9653 0.2368
-5 5 3 2.5513 -0.2627
-5 5 4 -38.5229 -0.0630
-5 5 5 -22.6912 -0.1228
-5 5 6 51.8253 -0.0845
-5 5 7 -25.4640 0.0896
-5 5 8 -20.2118 0.2896
-5 5 9 -20.9036 -0.0596
-5 5 10 -24.3883 -0.0998
-5 5 11 -9.0910 0.0235
-5 5 12 14.1116 -0.1746
-5 5 13 -1.4833 0.0522
-5 5 14 -2.4995 0.1859
-5 5 15 -11.4063 -0.0611
-5 5 16 -8.0046 0.0481
-5 5 17 -9.6355 -0.0474
-5 5 18 8.2351 -0.1105
-5 5 19 -0.7854 0.0092
-5 5 20 -0.0037 0.0442
-5 5 21 -0.3132 -0.0148
-5 7 1 -21.2500 0.0842
-5 7 2 3.1442 0.0328
-5 7 3 6.5959 0.1710
-5 7 5 -52.9544 0.0858
-5 7 6 18.5365 -0.1023
-5 7 7 8.5155 -0.0823
-5 7 8 7.1362 -0.0140
-5 7 9 6.9170 -0.0904
-5 7 10 -12.6789 0.0389
-5 7 11 -4.5453 0.1069
-5 7 12 1.2587 -0.0460
-5 7 13 8.7181 0.0773
-5 7 14 -6.9845 -0.0347
-5 7 15 -4.1884 -0.1032
-5 7 16 -12.5092 0.0883
-5 7 17 -11.2155 0.0364
-5 7 18 3.6328 0.0169
-5 7 19 3.5011 -0.0121
-5 7 20 -0.9148 -0.0526
-5 7 21 0.0732 -0.1553
-5 9 1 24.7156 -0.0237
-5 9 2 -26.1052 0.0113
-5 9 3 31.2898 0.0039
-5 9 4 -55.8611 -0.0554
-5 9 5 -8.4809 -0.0011
-5 9 6 -1.1401 0.0019
-5 9 7 16.3542 0.0235
-5 9 8 11.1754 0.1411
-5 9 9 19.5241 0.0016
-5 9 10 -9.5254 -0.1183
-5 9 11 5.1692 -0.0367
-5 9 12 -11.0948 0.0225
-5 9 13 -1.5574 0.0148
-5 9 14 -4.6855 0.0596
-5 9 15 6.2785 0.0282
-5 9 16 5.9722 -0.0305
-5 9 17 -0.9746 0.0245
-5 9 18 3.9928 -0.0632
-5 9 19 0.4602 -0.0023
-5 9 20 -4.1236 0.0048
-5 11 1 -0.4954 -0.0515
-5 11 2 -2.0285 0.0209
-5 11 3 0.9035 -0.0604
-5 11 4 1.4614 0.0104
-5 11 5 -4.1457 -0.0062
-5 11 6 -6.8907 0.0125
-5 11 7 27.5994 -0.0238
-5 11 8 -5.0104 -0.0096
-5 11 9 -5.6717 0.0528
-5 11 10 -4.7967 0.0141
-5 11 11 -26.5782 0.0802
-5 11 12 4.7348 0.0095
-5 11 13 12.6578 -0.0481
-5 11 14 1.2832 0.0273
-5 11 15 14.9381 -0.0894
-5 11 16 -0.3560 -0.0168
-5 11 17 2.8475 0.1166
-5 11 18 1.6042 0.0085
-5 11 19 -4.8322 0.0414
-5 13 1 10.8814 0.0175
-5 13 2 -5.4088 -0.0396
-5 13 3 -11.9277 -0.0056
-5 13 4 26.1262 -0.0182
-5 13 5 -27.1372 0.0313
-5 13 6 18.7736 -0.0176
-5 13 7 -13.1058 -0.0239
-5 13 8 0.8216 0.0335
-5 13 9 -8.2887 -0.0280
-5 13 10 -3.9780 -0.0553
-5 13 11 -0.1093 -0.0060
-5 13 12 4.9330 0.0413
-5 13 13 -6.2189 0.0344
-5 13 14 -5.2358 0.0010
-5 13 15 -4.5483 -0.0159
-5 13 16 -12.9325 -0.0128
-5 13 17 -2.3030 -0.0333
-5 13 18 -1.8479 -0.0574
-5 13 19 5.3466 -0.1288
-5 15 1 22.6353 0.0198
-5 15 2 0.0471 0.0378
-5 15 3 -3.8530 -0.0461
-5 15 4 -3.5028 0.0164
-5 15 5 -32.6595 -0.0012
-5 15 6 9.0565 -0.0182
-5 15 7 -0.4585 0.0139
-5 15 8 -1.3401 0.0143
-5 15 9 10.1244 0.0378
-5 15 10 -13.8011 0.0312
-5 15 11 5.6815 0.0110
-5 15 12 -3.3380 0.0247
-5 15 13 17.2772 -0.0447
-5 15 14 0.6537 -0.0388
-5 15 15 -2.2103 -0.0133
-5 15 16 -7.0392 -0.1023
-5 15 17 -5.3403 0.0471
-5 15 18 -1.2045 -0.0712
-5 17 1 13.7645 -0.0095
-5 17 2 11.0639 0.0099
-5 17 3 -9.3505 -0.0416
-5 17 4 1.5694 0.0121
-5 17 5 -15.9255 0.0297
-5 17 6 -20.0811 -0.0299
-5 17 7 9.3818 0.0098
-5 17 8 4.5136 0.0895
-5 17 9 6.7040 0.0520
-5 17 10 5.9529 -0.0451
-5 17 11 -6.5861 0.0170
-5 17 12 -10.2581 -0.0466
-5 17 13 -10.9519 0.0146
-5 17 14 -2.3198 -0.0448
-5 17 15 -2.0992 -0.1415
-5 17 16 -2.6651 0.0001
-5 17 17 -5.4979 -0.0901
-5 19 1 2.6103 0.0326
-5 19 2 8.9311 -0.0305
-5 19 3 0.5678 -0.0191
-5 19 4 7.3832 0.0391
-5 19 5 7.0801 0.0376
-5 19 6 -12.1091 -0.0183
-5 19 7 0.8256 -0.0269
-5 19 8 -4.7755 0.0009
-5 19 9 -1.2076 -0.0610
-5 19 10 7.2746 -0.0157
-5 19 11 -7.4880 0.0264
-5 19 12 0.8402 -0.0191
-5 19 13 -6.2148 0.0043
-5 19 14 4.9015 -0.0427
-5 19 15 6.6551 -0.0367
-5 21 1 -1.1183 0.0208
-5 21 2 -8.6142 0.0324
-5 21 3 -3.0388 -0.0322
-5 21 4 11.3039 0.0529
-5 21 5 -1.2880 0.0249
-5 21 6 9.8372 -0.0628
-5 21 7 5.3185 0.0598
-5 21 8 1.9524 0.0018
-5 21 9 0.4608 -0.0177
-5 21 10 -4.4011 0.0240
-5 21 11 0.3880 -0.1266
-5 21 12 -4.7160 -0.0010
-5 21 13 0.0155 -0.0448
-5 21 14 -1.9267 -0.0998
-5 23 1 2.9737 0.0019
-5 23 2 -1.3719 -0.0566
-5 23 3 1.7063 0.0105
-5 23 4 11.5838 0.0434
-5 23 5 0.0826 -0.0273
-5 23 6 -2.3146 0.0294
-5 23 7 -7.3448 0.0652
-5 23 8 3.8269 -0.0394
-5 23 9 -4.6406 -0.0178
-5 23 10 3.3730 -0.1264
-5 23 11 -2.9086 0.0905
-5 23 12 -0.5803 0.0139
-5 25 1 0.4892 0.0011
-5 25 2 7.0163 -0.0599
-5 25 3 6.5189 -0.0629
-5 25 4 -4.3496 0.0972
-5 25 5 -4.7276 0.0596
-5 25 6 -10.2682 -0.0976
-5 25 7 -1.8833 0.0434
-5 25 8 2.4821 0.1159
-5 25 9 0.3477 -0.1276
-5 27 1 2.2726 -0.0120
-5 27 2 5.4924 -0.0559
-5 27 3 3.8155 0.0117
-5 27 4 5.7757 -0.0421
-4 0 2 41.7554 2.8556
-4 0 6 -2.2485 -0.8464
-4 0 8 46.5582 0.8706
-4 0 10 18.5985 -0.0091
-4 0 12 5.7936 -0.5409
-4 0 14 11.9578 0.4364
-4 0 16 21.0586 0.2626
-4 0 18 0.3425 -0.4603
-4 0 20 4.1286 0.2344
-4 2 1 29.0313 -0.0664
-4 2 2 125.6528 -0.0979
-4 2 3 36.7087 -0.7287
-4 2 4 25.2275 -0.1379
-4 2 5 -10.4414 0.2271
-4 2 6 -41.5570 -0.0501
-4 2 7 40.0974 0.3384
-4 2 8 7.6161 0.0831
-4 2 9 36.9813 -0.1896
-4 2 10 28.3502 -0.0733
-4 2 11 -10.8274 -0.1211
-4 2 12 -21.1004 -0.0279
-4 2 13 -4.7481 0.2394
-4 2 14 6.9965 0.1074
-4 2 15 5.6716 -0.0527
-4 2 16 -0.3209 0.0132
-4 2 17 -4.3533 -0.1996
-4 2 18 -4.7992 -0.0677
-4 2 19 -3.0120 0.1754
-4 2 20 0.7869 0.0268
-4 2 21 2.0925 -0.1163
-4 4 1 31.7542 0.0581
-4 4 3 33.3173 0.2661
-4 4 4 2.5009 -0.1115
-4 4 5 26.3103 0.0458
-4 4 6 -20.7197 -0.2753
-4 4 7 14.7919 -0.1590
-4 4 8 7.8349 0.1249
-4 4 9 -18.2857 -0.0477
-4 4 10 2.6106 0.2287
-4 4 11 1.6072 0.0868
-4 4 12 6.3995 -0.2552
-4 4 13 1.6075 0.0026
-4 4 14 -0.0623 -0.0028
-4 4 15 -0.5956 -0.0138
-4 4 16 -4.5091 0.1228
-4 4 17 -6.6428 0.0141
-4 4 18 -2.5710 -0.1332
-4 4 19 -0.2202 -0.0521
-4 4 20 0.7169 0.0430
-4 4 21 -3.1678 -0.0243
-4 6 1 -13.1190 -0.0281
-4 6 2 51.5370 0.0358
-4 6 4 18.4368 0.0014
-4 6 5 -48.5427 0.0397
-4 6 6 -46.0816 -0.0407
-4 6 7 -11.7639 0.1289
-4 6 8 5.1527 0.0607
-4 6 9 24.5210 -0.0961
-4 6 10 7.4431 -0.0134
-4 6 11 10.7215 -0.0153
-4 6 12 -8.1267 -0.0249
-4 6 13 8.0586 0.1003
-4 6 14 4.6240 0.0502
-4 6 15 1.8575 -0.0698
-4 6 16 -3.0584 -0.0485
-4 6 17 -7.5754 -0.0299
-4 6 18 -8.2166 -0.0640
-4 6 19 -2.8152 0.1731
-4 6 20 0.5874 0.1160
-4 6 21 7.1278 -0.0173
-4 8 1 16.9532 0.0030
-4 8 2 29.3655 0.0072
-4 8 3 37.4394 0.0139
-4 8 4 -13.7176 -0.0130
-4 8 5 14.3137 -0.0518
-4 8 6 -16.6965 0.0070
-4 8 7 -38.7142 -0.0630
-4 8 8 18.5696 0.0552
-4 8 9 17.2678 -0.0063
-4 8 10 5.8842 0.0245
-4 8 11 27.2682 0.0712
-4 8 12 -24.6521 -0.1055
-4 8 13 -9.8652 -0.0614
-4 8 14 -2.6474 0.0486
-4 8 15 -2.8365 -0.0490
-4 8 16 8.9326 0.0679
-4 8 17 0.6428 0.0519
-4 8 18 -0.0684 -0.0575
-4 8 19 -2.7451 0.0702
-4 8 20 -0.5512 -0.0366
-4 10 1 -22.2940 0.0361
-4 10 2 32.0148 0.0252
-4 10 3 37.2017 0.0446
-4 10 4 -19.1039 0.0046
-4 10 5 -2.8892 0.0737
-4 10 6 -24.5731 0.0317
-4 10 7 -2.7507 -0.0843
-4 10 8 -9.9485 -0.0296
-4 10 9 18.4938 -0.0308
-4 10 10 9.4925 -0.0504
-4 10 11 8.0664 0.0305
-4 10 12 -1.0642 -0.0137
-4 10 13 -7.4130 0.0617
-4 10 14 -8.5288 0.0303
-4 10 15 8.3023 -0.0771
-4 10 16 4.3697 0.0101
-4 10 17 6.1512 -0.0502
-4 10 18 2.2737 0.0654
-4 10 19 -6.5025 0.0487
-4 10 20 -1.2721 0.0923
-4 12 1 -57.6602 -0.0222
-4 12 2 -6.1396 -0.0010
-4 12 3 1.3096 0.0090
-4 12 4 25.3650 -0.0377
-4 12 5 23.3569 -0.0328
-4 12 7 -1.3946 0.0446
-4 12 8 -14.0077 -0.0068
-4 12 9 -9.1931 0.0274
-4 12 10 7.9627 0.0641
-4 12 11 -1.2476 0.0043
-4 12 12 10.4587 -0.0485
-4 12 13 -6.7184 -0.1050
-4 12 14 6.7483 0.0062
-4 12 15 2.4793 0.0296
-4 12 16 -3.4923 -0.0134
-4 12 17 5.8254 0.1133
-4 12 18 -4.1759 -0.0532
-4 12 19 -1.4682 0.0253
-4 14 1 -18.2967 -0.0046
-4 14 2 -4.1253 -0.0097
-4 14 3 3.5316 0.0130
-4 14 4 2.6213 0.0474
-4 14 5 13.3731 -0.0092
-4 14 6 -0.8141 -0.0088
-4 14 7 -14.3528 -0.0187
-4 14 8 1.7995 -0.0695
-4 14 9 11.0451 0.0145
-4 14 10 -7.7689 0.0189
-4 14 11 19.8892 0.0335
-4 14 12 1.5822 0.0106
-4 14 13 -8.5101 0.0131
-4 14 14 -1.8956 0.0563
-4 14 15 -3.4291 -0.0052
-4 14 16 5.3395 0.0437
-4 14 17 4.2038 0.0273
-4 14 18 2.2493 0.0103
-4 16 1 -15.7549 0.0045
-4 16 2 3.1985 -0.0550
-4 16 3 23.0592 0.0210
-4 16 4 2.1803 0.0414
-4 16 5 8.0959 0.0015
-4 16 6 2.7927 0.0407
-4 16 7 -40.2405 -0.0155
-4 16 8 -5.8075 0.0078
-4 16 9 10.9959 -0.0349
-4 16 10 2.2932 -0.0488
-4 16 11 14.3252 -0.0505
-4 16 12 -1.3425 0.0365
-4 16 13 -1.0787 0.0143
-4 16 14 -5.8267 0.0267
-4 16 15 0.6261 0.0860
-4 16 16 1.0039 0.0106
-4 16 17 2.0633 -0.0061
-4 18 1 -17.4976 -0.0291
-4 18 2 -6.3109 -0.0009
-4 18 3 -8.2992 0.0148
-4 18 4 2.3454 -0.0633
-4 18 5 16.6242 -0.0271
-4 18 6 3.2913 -0.0182
-4 18 7 -10.1321 -0.0184
-4 18 8 -10.3221 -0.0191
-4 18 9 -3.5571 0.0443
-4 18 10 13.1208 0.0627
-4 18 11 5.0272 -0.0066
-4 18 12 4.5893 0.0428
-4 18 13 -7.6793 0.0210
-4 18 14 -6.9791 0.0066
-4 18 15 -5.1537 0.0235
-4 18 16 3.1722 -0.0920
-4 20 1 -9.6818 0.0159
-4 20 2 -15.7355 -0.0273
-4 20 3 -6.0176 -0.0014
-4 20 4 -6.3799 0.0437
-4 20 5 4.2088 -0.0212
-4 20 6 5.6985 0.0708
-4 20 7 3.6778 0.0226
-4 20 8 -9.7630 -0.0190
-4 20 9 -5.9509 -0.0027
-4 20 10 -7.4287 -0.0487
-4 20 11 -0.9207 0.0244
-4 20 12 8.9016 0.0045
-4 20 13 0.2570 0.0632
-4 20 14 8.3214 0.0596
-4 20 15 -5.7220 -0.0528
-4 22 1 8.2083 -0.0143
-4 22 2 -10.4352 -0.0575
-4 22 3 2.0987 0.0481
-4 22 4 -2.3710 -0.0107
-4 22 5 -1.1613 0.0061
-4 22 6 -8.9607 0.0247
-4 22 7 -6.9598 -0.0584
-4 22 8 -8.5144 0.0061
-4 22 9 -4.2561 0.0271
-4 22 10 -5.6617 0.0597
-4 22 11 -1.2239 0.0796
-4 22 12 6.4173 0.0765
-4 22 13 -0.6437 -0.0448
-4 24 1 6.4271 0.0864
-4 24 2 5.6550 0.0363
-4 24 3 1.5294 -0.0909
-4 24 4 4.7045 -0.0244
-4 24 5 -3.2008 0.0258
-4 24 6 -0.7991 -0.0973
-4 24 7 -6.4711 -0.0273
-4 24 8 -1.8955 -0.0612
-4 24 9 -0.0417 0.0333
-4 24 10 -0.8317 -0.0718
-4 24 11 2.3304 -0.0273
-4 26 1 -1.3255 0.0800
-4 26 2 3.1290 0.0207
-4 26 3 0.5970 -0.0702
-4 26 4 -4.1386 -0.0501
-4 26 5 -1.2224 0.0748
-4 26 6 -0.0285 0.2222
-4 26 7 -1.0936 -0.1570
-3 1 3 -170.1743 -0.9234
-3 1 5 -48.0432 -0.0399
-3 1 6 24.2174 -0.4618
-3 1 7 4.6063 0.4941
-3 1 8 -3.7559 0.4769
-3 1 9 33.2421 -0.2103
-3 1 10 17.8121 0.0001
-3 1 11 -12.6774 -0.1576
-3 1 12 6.7242 -0.4045
-3 1 13 -2.9837 0.3084
-3 1 14 -14.9379 0.2661
-3 1 15 7.4936 -0.1298
-3 1 16 17.7894 0.0462
-3 1 17 3.0432 -0.1753
-3 1 18 17.6146 -0.2488
-3 1 19 4.4084 0.1265
-3 1 20 -1.3041 0.0106
-3 1 21 1.6286 0.0959
-3 3 3 9.1384 0.0510
-3 3 5 -52.4979 0.3564
-3 3 6 58.1091 -0.1065
-3 3 7 37.7795 -0.0108
-3 3 8 -27.2088 0.0208
-3 3 9 12.7530 -0.1489
-3 3 10 -7.5439 0.0661
-3 3 11 -10.8507 -0.0092
-3 3 12 12.6885 -0.0110
-3 3 13 -5.5484 0.0309
-3 3 14 -5.3989 -0.0889
-3 3 15 -1.4056 -0.0667
-3 3 16 -3.4777 0.0424
-3 3 17 -6.9358 0.1121
-3 3 18 1.6655 0.0135
-3 3 19 1.5219 0.1093
-3 3 20 -2.0081 -0.0395
-3 3 21 2.4492 -0.0511
-3 5 1 110.7530 -0.0515
-3 5 2 7.6194 0.2269
-3 5 3 -2.5315 -0.2674
-3 5 4 28.4687 -0.0766
-3 5 5 -16.9260 -0.1213
-3 5 6 -31.1643 -0.0719
-3 5 7 7.9192 0.0963
-3 5 8 -36.2363 0.2070
-3 5 9 13.9159 -0.0135
-3 5 10 -10.1713 0.0108
-3 5 11 2.2458 -0.0147
-3 5 12 15.0698 -0.1409
-3 5 13 12.1542 0.0542
-3 5 14 -7.0332 0.1073
-3 5 15 4.7319 -0.0099
-3 5 16 -1.9957 0.0763
-3 5 17 2.4057 -0.0345
-3 5 18 0.2347 -0.1202
-3 5 19 2.7197 0.0174
-3 5 20 -3.0013 -0.0031
-3 5 21 -1.1275 -0.0343
-3 7 1 56.5757 0.0352
-3 7 2 -35.5027 0.0312
-3 7 3 -1.9803 0.1377
-3 7 4 10.3452 -0.0072
-3 7 5 -9.5671 0.1256
-3 7 7 -36.9301 -0.1057
-3 7 8 -23.0488 -0.0153
-3 7 9 -0.5296 -0.0567
-3 7 10 30.7983 0.0247
-3 7 11 15.4586 0.0575
-3 7 12 11.5106 -0.0267
-3 7 13 -2.4155 0.0619
-3 7 14 -5.8512 0.0026
-3 7 15 -8.6728 -0.1332
-3 7 16 5.3493 0.0358
-3 7 17 -0.2382 0.0487
-3 7 18 0.5896 -0.0103
-3 7 19 3.5174 -0.0118
-3 7 20 -3.8247 -0.0363
-3 7 21 3.0615 -0.1669
-3 9 1 33.5720 0.0173
-3 9 2 -6.5874 -0.0066
-3 9 4 -8.2619 -0.0524
-3 9 5 17.1928 0.0210
-3 9 6 19.9404 0.0256
-3 9 7 14.0211 0.0498
-3 9 8 -10.2024 0.1214
-3 9 9 -1.3902 -0.0023
-3 9 10 -9.0396 -0.0554
-3 9 11 3.0875 -0.0214
-3 9 12 -10.5343 -0.0416
-3 9 13 -1.4507 0.0070
-3 9 14 -22.6169 0.0239
-3 9 15 -5.6579 0.0445
-3 9 16 -3.0701 -0.0316
-3 9 17 0.0974 0.0341
-3 9 18 7.0062 -0.0913
-3 9 19 1.7576 0.0206
-3 9 20 -3.7150 -0.0221
-3 11 1 13.0018 -0.0555
-3 11 2 -16.9234 0.0059
-3 11 3 -27.3365 -0.0780
-3 11 4 -16.0699 0.0410
-3 11 5 27.3158 0.0151
-3 11 6 -3.1008 0.0271
-3 11 7 35.5668 -0.0328
-3 11 8 -16.9200 -0.0433
-3 11 9 -4.5531 0.0161
-3 11 10 -4.9684 -0.0189
-3 11 11 -8.9716 0.0898
-3 11 12 2.6041 0.0207
-3 11 13 1.8730 -0.0715
-3 11 14 -5.7402 0.0450
-3 11 15 -1.4632 -0.0845
-3 11 16 -5.4424 0.0220
-3 11 17 -0.4713 0.0546
-3 11 18 3.6647 -0.0375
-3 11 19 2.8871 -0.0140
-3 11 20 -1.7929 -0.0690
-3 13 1 50.3678 0.0505
-3 13 2 -8.5800 -0.0102
-3 13 4 0.6657 -0.0097
-3 13 5 5.6022 -0.0031
-3 13 6 8.6519 -0.0161
-3 13 7 20.9642 -0.0383
-3 13 8 -10.1273 0.0186
-3 13 9 -9.1179 -0.0502
-3 13 10 7.1640 -0.0336
-3 13 11 -11.7241 0.0209
-3 13 12 21.2135 -0.0021
-3 13 13 3.7666 0.0534
-3 13 14 11.7645 0.0106
-3 13 15 -2.7998 -0.0233
-3 13 16 2.6428 -0.0085
-3 13 17 -9.5595 -0.0961
-3 13 18 -0.6842 -0.0738
-3 13 19 -1.7017 -0.1273
-3 15 1 4.2406 -0.0203
-3 15 2 -17.1343 0.0149
-3 15 3 -9.0401 0.0168
-3 15 4 -6.8118 -0.0039
-3 15 5 -8.6809 -0.0421
-3 15 6 -2.6732 -0.0236
-3 15 7 -6.9224 0.0589
-3 15 8 19.3371 0.0179
-3 15 9 -12.9506 0.0098
-3 15 10 -5.6805 -0.0087
-3 15 11 4.5552 0.0016
-3 15 12 -8.2419 -0.0093
-3 15 13 -0.4231 -0.0566
-3 15 14 -1.8489 -0.0373
-3 15 15 -3.2317 0.0029
-3 15 16 0.6816 -0.0796
-3 15 17 -0.2875 0.0113
-3 15 18 -0.0681 -0.0954
-3 17 1 1.2701 0.0315
-3 17 2 7.5208 -0.0308
-3 17 3 -3.5020 -0.0731
-3 17 4 -16.7014 0.0106
-3 17 5 -3.0058 0.0236
-3 17 6 1.4843 0.0150
-3 17 7 -5.3231 0.0469
-3 17 8 8.7799 -0.0191
-3 17 9 -6.7908 -0.0102
-3 17 10 -4.2620 -0.0140
-3 17 11 0.4903 -0.0187
-3 17 12 -6.5860 0.0309
-3 17 13 11.3872 0.0011
-3 17 14 -4.3603 0.0002
-3 17 15 1.0672 -0.0871
-3 17 16 -1.2708 -0.0843
-3 17 17 -0.2095 -0.0882
-3 19 1 11.9818 0.0454
-3 19 2 10.6274 0.0072
-3 19 3 -12.3590 0.1405
-3 19 4 -17.2641 0.0248
-3 19 5 -3.7353 -0.0503
-3 19 6 -3.0826 -0.0345
-3 19 7 26.0114 -0.0280
-3 19 8 13.7729 -0.0227
-3 19 9 1.1044 -0.0701
-3 19 10 -8.0875 0.0026
-3 19 11 -10.9543 0.0355
-3 19 12 0.3184 -0.0170
-3 19 13 -1.0542 0.0188
-3 19 14 8.0319 -0.0619
-3 19 15 -2.7456 -0.0384
-3 21 1 1.9285 0.0075
-3 21 2 4.2363 0.0182
-3 21 3 -0.1478 -0.1075
-3 21 4 -8.5288 0.0011
-3 21 5 -8.4202 -0.0032
-3 21 6 -1.1594 -0.0047
-3 21 7 9.7424 0.0646
-3 21 8 5.9901 -0.0378
-3 21 9 -1.9425 0.0043
-3 21 10 0.4380 0.0527
-3 21 11 -10.7384 -0.0650
-3 21 12 -2.5695 0.0117
-3 21 13 1.1804 -0.0425
-3 21 14 5.5409 -0.0976
-3 23 1 6.3047 -0.0313
-3 23 2 5.1904 -0.0622
-3 23 3 5.6536 -0.0147
-3 23 4 -5.2128 0.0339
-3 23 5 -8.0406 0.0052
-3 23 6 -3.2982 0.0377
-3 23 7 -3.6640 0.0038
-3 23 8 2.6870 -0.0210
-3 23 9 -3.0522 0.0227
-3 23 10 -1.5895 -0.0950
-3 23 11 2.7623 -0.0084
-3 23 12 -0.9691 0.0692
-3 25 1 5.1528 0.0038
-3 25 2 5.3563 0.0321
-3 25 3 0.0304 -0.0022
-3 25 4 -4.3261 0.0084
-3 25 5 -0.6959 0.0772
-3 25 6 -2.4991 -0.0284
-3 25 7 3.4378 -0.0015
-3 25 8 6.4168 0.1201
-3 25 9 -0.4219 -0.0476
-3 27 1 -3.8172 -0.0213
-3 27 2 5.4841 0.1076
-3 27 3 -3.3487 -0.1285
-3 27 4 -7.0359 -0.0658
-3 27 5 0.7367 -0.0626
-2 0 2 84.2891 2.7089
-2 0 4 96.2231 -0.4278
-2 0 6 -116.6007 -0.7042
-2 0 10 33.1318 0.3776
-2 0 12 -17.1421 -0.6437
-2 0 14 -15.1898 0.3223
-2 0 16 0.6018 0.2769
-2 0 18 6.3399 -0.4649
-2 0 20 -9.0776 0.0833
-2 2 1 -226.6935 0.1340
-2 2 3 -159.0699 -0.8456
-2 2 5 9.7019 -0.0626
-2 2 6 13.2743 -0.1096
-2 2 7 11.5800 0.5184
-2 2 8 13.4933 0.0110
-2 2 9 33.4381 -0.2549
-2 2 10 -20.0911 -0.0503
-2 2 11 2.7129 -0.0849
-2 2 12 5.3536 -0.0068
-2 2 13 1.5856 0.1603
-2 2 14 11.2557 0.1184
-2 2 15 14.9354 0.0345
-2 2 16 10.5625 0.0439
-2 2 17 -5.5455 -0.2575
-2 2 18 1.5140 -0.0805
-2 2 19 -4.5398 0.1789
-2 2 20 2.1899 -0.0156
-2 2 21 -0.5674 -0.0759
-2 4 1 13.8214 0.1961
-2 4 2 24.6038 0.1079
-2 4 3 0.1037 0.1608
-2 4 4 -0.4604 -0.0905
-2 4 5 -34.6486 0.0437
-2 4 6 25.7303 -0.2814
-2 4 7 13.9767 -0.1308
-2 4 8 9.6786 0.1617
-2 4 9 27.0671 -0.0024
-2 4 11 0.0296 0.0941
-2 4 12 23.1066 -0.1648
-2 4 13 6.0979 -0.0106
-2 4 14 16.3972 -0.0264
-2 4 15 3.5573 -0.0496
-2 4 16 -5.0988 0.1306
-2 4 17 0.8012 0.0085
-2 4 18 6.2213 -0.0752
-2 4 19 -5.4408 -0.0323
-2 4 20 3.8941 -0.0073
-2 4 21 -0.9106 -0.0329
-2 6 1 -45.6990 -0.0392
-2 6 2 -26.8232 0.0631
-2 6 3 23.8533 -0.0581
-2 6 4 10.0375 -0.0205
-2 6 5 12.6653 0.0824
-2 6 6 11.8182 -0.0047
-2 6 7 -30.8201 0.0755
-2 6 8 -8.3187 0.0428
-2 6 9 2.8483 -0.1113
-2 6 10 -10.9267 -0.0306
-2 6 11 -2.9895 -0.0390
-2 6 12 -3.7884 -0.0817
-2 6 13 -10.1369 0.1480
-2 6 14 -5.8473 0.0475
-2 6 15 -2.4121 -0.0709
-2 6 16 -7.3668 0.0030
-2 6 17 5.0778 -0.0693
-2 6 18 -6.2465 -0.0761
-2 6 19 2.6810 0.1169
-2 6 20 -7.4342 0.0542
-2 6 21 1.2211 0.0587
-2 8 1 -8.6205 -0.0684
-2 8 2 -22.2390 0.0502
-2 8 3 58.7182 0.0255
-2 8 5 -0.8113 -0.0345
-2 8 6 11.1802 -0.0402
-2 8 7 25.7186 -0.0633
-2 8 8 -7.2190 0.0471
-2 8 9 14.4158 0.0066
-2 8 10 -18.7989 0.0391
-2 8 11 1.4460 0.0729
-2 8 12 -10.0443 -0.0370
-2 8 13 3.7426 -0.0669
-2 8 14 -3.5688 0.0421
-2 8 15 -2.3729 -0.0444
-2 8 16 -9.7644 0.0634
-2 8 17 -6.5773 0.0312
-2 8 18 2.5905 0.0302
-2 8 19 6.7547 0.0587
-2 8 20 3.3087 -0.0327
-2 10 1 -17.7869 0.0393
-2 10 2 -19.0338 -0.0089
-2 10 3 23.2378 0.0431
-2 10 4 -12.5343 -0.0394
-2 10 5 29.9028 0.0250
-2 10 6 -10.4401 0.0266
-2 10 7 9.3923 -0.0380
-2 10 8 31.9861 0.0070
-2 10 9 11.9313 -0.0741
-2 10 10 -6.7454 -0.0743
-2 10 11 -12.1411 0.0708
-2 10 12 -17.9995 -0.0110
-2 10 13 11.5221 0.0925
-2 10 14 2.4543 0.0238
-2 10 15 18.9130 -0.0894
-2 10 16 2.4965 -0.0172
-2 10 17 -4.8064 -0.0157
-2 10 18 -1.5192 0.0501
-2 10 19 -3.2977 0.0704
-2 10 20 -2.8220 0.0761
-2 12 1 -2.3489 -0.0451
-2 12 2 2.9309 0.0176
-2 12 3 8.8349 -0.0297
-2 12 4 6.0750 -0.0291
-2 12 5 -13.8322 0.0123
-2 12 6 18.8959 0.0117
-2 12 7 -6.3736 0.0128
-2 12 8 -7.2559 0.0456
-2 12 9 9.8668 0.0562
-2 12 10 -1.9653 0.0190
-2 12 11 -14.9188 -0.0163
-2 12 12 15.3641 0.0261
-2 12 13 -0.0628 -0.0876
-2 12 14 8.1279 -0.0499
-2 12 15 8.8520 0.0186
-2 12 16 1.0945 -0.0085
-2 12 17 -2.4950 0.1281
-2 12 18 -2.5677 -0.0188
-2 12 19 -5.2805 0.0500
-2 14 1 8.1889 -0.0025
-2 14 2 -10.8742 0.0274
-2 14 3 42.5385 0.0131
-2 14 4 27.0663 -0.0320
-2 14 5 -24.3206 0.0238
-2 14 6 7.8707 0.0413
-2 14 7 5.0690 -0.0323
-2 14 8 -18.1435 -0.0304
-2 14 9 13.2375 -0.0149
-2 14 10 -2.8714 -0.0195
-2 14 11 -7.5187 0.0484
-2 14 12 -5.9567 0.0356
-2 14 13 -5.5933 0.0155
-2 14 14 3.6603 0.0562
-2 14 15 -2.7004 -0.0037
-2 14 16 -3.6802 -0.0029
-2 14 17 -6.5588 0.0739
-2 14 18 -2.0583 0.0690
-2 16 1 -3.0762 -0.0415
-2 16 2 -10.6901 -0.0059
-2 16 3 12.8996 0.0067
-2 16 4 7.7158 -0.0017
-2 16 5 -6.8073 -0.0049
-2 16 6 4.4150 0.0403
-2 16 7 -15.3174 -0.0178
-2 16 8 5.5687 0.0341
-2 16 9 0.7787 0.0173
-2 16 10 0.0023 -0.0542
-2 16 11 9.6410 -0.0285
-2 16 12 -8.5219 0.0182
-2 16 13 1.6584 0.0409
-2 16 14 -7.1989 -0.0013
-2 16 15 2.5055 0.0136
-2 16 16 -4.1299 0.0393
-2 16 17 -2.8510 -0.0292
-2 18 1 -8.2988 -0.0218
-2 18 2 4.7941 0.0246
-2 18 3 -0.2921 -0.0295
-2 18 4 -20.2972 -0.0794
-2 18 5 -9.7118 0.0035
-2 18 6 -19.0575 -0.0053
-2 18 7 15.7231 0.0015
-2 18 8 -0.7513 0.0243
-2 18 9 6.6040 0.0100
-2 18 10 6.3656 0.0126
-2 18 11 -1.9478 0.0437
-2 18 12 -3.0403 0.0794
-2 18 13 -2.6160 -0.0270
-2 18 14 2.3466 -0.0077
-2 18 15 7.6048 -0.0086
-2 18 16 0.0137 -0.1692
-2 20 1 -9.4110 -0.0288
-2 20 2 2.9447 -0.0458
-2 20 3 -4.5949 -0.0245
-2 20 4 18.2619 0.0489
-2 20 5 -2.3005 0.0547
-2 20 6 -12.2970 0.0547
-2 20 7 -0.4950 0.0097
-2 20 8 -5.4369 -0.0194
-2 20 9 14.6784 0.0418
-2 20 10 1.1846 -0.0327
-2 20 11 -2.9467 -0.0035
-2 20 12 -7.7931 -0.0419
-2 20 13 -8.3813 0.0241
-2 20 14 -5.0871 0.0507
-2 20 15 5.2158 -0.1340
-2 22 1 -3.7774 -0.0444
-2 22 2 -6.3467 0.0308
-2 22 3 7.7151 0.0696
-2 22 4 13.4667 -0.0186
-2 22 5 11.8453 0.0089
-2 22 6 3.3633 0.0123
-2 22 7 -9.6819 -0.0834
-2 22 8 -14.7287 0.0237
-2 22 9 -5.2390 0.0012
-2 22 10 2.1410 -0.0218
-2 22 11 0.9792 0.0745
-2 22 12 0.3429 0.0654
-2 22 13 -2.7539 -0.0380
-2 24 1 -1.5627 -0.0153
-2 24 2 -12.6924 -0.0171
-2 24 3 12.0914 -0.0717
-2 24 4 -4.5775 -0.0098
-2 24 5 2.4786 0.1597
-2 24 6 -8.0891 -0.0625
-2 24 7 -4.9121 -0.0364
-2 24 8 -1.3666 -0.0899
-2 24 9 1.9304 -0.0694
-2 24 10 2.8187 0.0152
-2 24 11 0.9815 -0.0075
-2 26 1 6.0762 -0.0007
-2 26 2 1.6826 0.0385
-2 26 3 -2.1225 -0.0353
-2 26 4 1.6066 0.0252
-2 26 5 -0.1824 0.0031
-2 26 6 -9.3194 0.1321
-2 26 7 -0.5445 0.0356
-2 26 8 2.0844 0.0274
-1 1 6 -58.3520 -0.5131
-1 1 7 1.3530 0.4396
-1 1 8 -48.9026 0.4284
-1 1 9 -0.4081 -0.1137
-1 1 10 60.5946 0.0327
-1 1 11 0.1222 -0.2534
-1 1 12 -1.8648 -0.4071
-1 1 13 -14.7855 0.2794
-1 1 14 -4.4825 0.2170
-1 1 15 17.5542 -0.0778
-1 1 16 13.8258 0.0695
-1 1 17 0.4294 -0.1779
-1 1 18 -2.4693 -0.1721
-1 1 19 -4.3985 0.0807
-1 1 20 0.4335 0.0049
-1 1 21 -3.1479 0.1255
-1 3 1 15.2089 -0.4171
-1 3 2 -149.6952 -0.0200
-1 3 5 22.2731 0.3831
-1 3 6 -10.0770 -0.0593
-1 3 7 14.2596 0.0327
-1 3 8 -12.0194 -0.0413
-1 3 9 -8.9074 -0.2133
-1 3 10 6.1264 0.1163
-1 3 11 -18.1260 0.0503
-1 3 12 -0.6632 -0.0012
-1 3 13 7.6349 0.0232
-1 3 14 -7.0582 -0.1166
-1 3 15 11.9323 -0.0429
-1 3 16 6.8399 0.0413
-1 3 17 2.9374 0.1050
-1 3 18 -4.1471 0.0098
-1 3 19 -5.9417 0.1104
-1 3 20 -2.5317 -0.0131
-1 3 21 0.5890 -0.0413
-1 5 1 -107.3694 -0.0112
-1 5 2 -32.0192 0.2320
-1 5 3 -0.4424 -0.1089
-1 5 6 -42.7857 -0.1454
-1 5 7 -20.7455 0.0496
-1 5 8 -42.4292 0.1711
-1 5 9 -21.0131 0.0343
-1 5 10 6.3939 0.0444
-1 5 11 28.5239 -0.0779
-1 5 12 -5.5041 -0.1092
-1 5 13 -4.4934 0.0616
-1 5 14 -7.3221 0.0430
-1 5 15 -13.3072 0.0012
-1 5 16 5.0524 0.0620
-1 5 17 4.7572 -0.0300
-1 5 18 1.6964 -0.0850
-1 5 19 -0.8258 -0.0022
-1 5 20 -3.3826 -0.0216
-1 5 21 -1.4096 -0.0332
-1 7 1 -2.7999 -0.0645
-1 7 2 2.7920 0.0606
-1 7 3 -31.2708 0.1038
-1 7 4 9.8554 -0.0281
-1 7 5 -7.4520 0.0865
-1 7 6 15.1615 -0.0152
-1 7 7 -2.0829 -0.0258
-1 7 8 5.9471 -0.0229
-1 7 9 -2.8745 -0.1061
-1 7 10 -2.4229 0.0053
-1 7 11 7.1327 0.1084
-1 7 12 0.5942 -0.0056
-1 7 13 -12.2096 0.0457
-1 7 14 2.9051 -0.0041
-1 7 15 -17.9352 -0.0879
-1 7 16 3.4671 0.0063
-1 7 17 -2.3298 0.0502
-1 7 18 -5.2218 0.0047
-1 7 19 1.0034 0.0346
-1 7 20 -3.1149 0.0024
-1 7 21 -0.8039 -0.0427
-1 9 1 -3.1533 0.0556
-1 9 2 15.9611 0.0140
-1 9 3 44.4926 -0.0353
-1 9 4 -3.8522 -0.0639
-1 9 5 9.0749 0.0177
-1 9 6 -41.3427 0.0289
-1 9 7 5.9861 0.0369
-1 9 8 14.3140 0.0841
-1 9 9 -4.6363 -0.0192
-1 9 10 5.1963 0.0195
-1 9 11 -3.9636 -0.0293
-1 9 12 -20.1739 -0.1025
-1 9 13 4.6801 -0.0051
-1 9 14 -3.4617 0.0230
-1 9 15 1.6729 0.0245
-1 9 16 4.4098 0.0165
-1 9 17 0.8137 0.0058
-1 9 18 -2.3103 -0.1070
-1 9 19 2.2160 -0.0123
-1 9 20 -3.1532 0.0089
-1 11 1 14.2753 -0.0452
-1 11 2 44.3667 0.0288
-1 11 3 -27.8745 -0.0077
-1 11 4 3.4452 -0.0100
-1 11 6 -16.4520 0.0227
-1 11 7 -2.9399 0.0056
-1 11 8 -1.3652 -0.0010
-1 11 9 -19.1242 -0.0051
-1 11 10 8.8173 -0.0736
-1 11 11 3.5795 0.0890
-1 11 12 3.9322 0.0161
-1 11 13 5.7250 -0.0634
-1 11 14 -2.1457 0.0545
-1 11 15 8.7894 -0.0886
-1 11 16 1.7522 0.0199
-1 11 17 7.5465 0.0145
-1 11 18 3.9788 -0.0412
-1 11 19 -5.5505 0.0341
-1 13 1 -33.9653 0.0445
-1 13 2 16.2907 -0.0036
-1 13 3 -7.9467 -0.0131
-1 13 4 17.5795 -0.0066
-1 13 5 12.9281 0.0169
-1 13 6 0.9074 -0.0039
-1 13 7 -15.0780 -0.0281
-1 13 8 -16.7002 -0.0319
-1 13 9 -7.8291 -0.0608
-1 13 10 -6.0152 0.0326
-1 13 11 6.4693 0.0009
-1 13 12 17.6146 -0.0579
-1 13 13 -8.0911 0.0419
-1 13 14 10.3830 0.0409
-1 13 15 -10.4048 0.0026
-1 13 16 -1.0735 0.0270
-1 13 17 2.9321 -0.0992
-1 13 18 -0.0132 -0.0804
-1 13 19 -4.5638 -0.1329
-1 15 1 -0.8351 -0.0014
-1 15 2 -14.3904 -0.0290
-1 15 3 -1.5465 0.0350
-1 15 4 14.6626 0.0273
-1 15 5 -4.0750 0.0293
-1 15 6 22.5812 -0.0279
-1 15 7 -30.4327 -0.0054
-1 15 8 -7.6639 0.0006
-1 15 9 0.9264 0.0287
-1 15 10 -4.7475 -0.0072
-1 15 11 20.0788 -0.0355
-1 15 12 8.7975 -0.0006
-1 15 13 1.6876 -0.0595
-1 15 14 -5.0501 0.0053
-1 15 15 2.0114 0.0579
-1 15 16 -0.3722 -0.1151
-1 15 17 1.9671 0.0008
-1 15 18 4.7279 -0.1186
-1 17 1 -1.7150 0.0501
-1 17 2 24.5174 0.0018
-1 17 3 -0.4634 -0.0648
-1 17 4 -17.6209 0.0235
-1 17 5 21.5120 -0.0122
-1 17 6 -14.8915 0.0137
-1 17 7 -6.9809 0.0597
-1 17 8 -1.8101 -0.0725
-1 17 9 -5.7031 -0.0338
-1 17 10 8.6154 0.0064
-1 17 11 10.6351 -0.0163
-1 17 12 2.4533 0.0245
-1 17 13 1.8198 -0.0036
-1 17 14 -9.1460 0.0875
-1 17 15 -9.7996 -0.0328
-1 17 16 -3.2739 -0.0902
-1 17 17 3.4742 -0.0907
-1 19 1 -11.4583 0.0875
-1 19 2 -2.6492 0.0227
-1 19 3 -10.5184 0.0745
-1 19 4 -2.2749 0.0267
-1 19 5 14.4980 -0.0433
-1 19 6 -13.6786 -0.0177
-1 19 7 5.9557 -0.0682
-1 19 8 -9.3444 -0.0210
-1 19 9 0.9506 -0.0286
-1 19 10 2.2046 0.0233
-1 19 11 0.0679 0.0147
-1 19 12 5.1600 -0.0478
-1 19 13 -8.8442 0.0449
-1 19 14 -2.5555 -0.0461
-1 19 15 -0.0259 0.0424
-1 21 1 -1.3126 0.0046
-1 21 2 -11.7040 -0.0391
-1 21 3 -18.2298 -0.0264
-1 21 4 5.7177 0.0027
-1 21 5 16.9409 -0.0981
-1 21 6 10.4489 0.0318
-1 21 7 -5.0832 0.1016
-1 21 8 -9.9889 -0.0709
-1 21 9 -8.5050 0.0021
-1 21 10 -9.4632 0.0449
-1 21 11 3.0742 -0.0096
-1 21 12 9.7244 0.0397
-1 21 13 0.0542 -0.0455
-1 21 14 5.8863 0.0361
-1 23 1 4.4122 -0.0698
-1 23 2 5.4494 -0.0341
-1 23 3 -0.3241 0.0071
-1 23 4 -9.7750 0.0141
-1 23 5 -1.6059 -0.0008
-1 23 6 9.0626 0.0447
-1 23 7 2.7732 -0.0508
-1 23 8 -0.3443 -0.0242
-1 23 9 -1.9902 0.0473
-1 23 10 -6.4455 -0.0068
-1 23 11 1.4446 0.0092
-1 23 12 5.0342 0.1168
-1 25 1 5.4184 0.1088
-1 25 2 2.5875 -0.0016
-1 25 3 2.9292 0.0078
-1 25 4 -9.4144 -0.0460
-1 25 5 -7.2350 -0.0558
-1 25 6 -2.0153 -0.0265
-1 25 7 4.1161 0.0984
-1 25 8 1.4847 0.0609
-1 25 9 2.6107 -0.0680
-1 27 1 0.1805 -0.1862
-1 27 2 4.0599 -0.0283
-1 27 3 -0.8764 -0.0566
-1 27 4 -12.2506 -0.0747
-1 27 5 -4.2190 -0.0801
0 0 4 110.0630 -0.1283
0 0 6 21.9417 -0.7501
0 0 10 41.1236 0.3530
0 0 12 35.6639 -0.5924
0 0 14 -17.0823 0.1427
0 0 16 -6.6297 0.2702
0 0 18 2.3428 -0.4739
0 0 20 -10.4739 0.0253
0 2 2 40.3278 0.2128
0 2 3 -27.3017 -0.7267
0 2 5 -89.7894 -0.2213
0 2 6 2.3071 -0.1306
0 2 7 37.9945 0.5267
0 2 8 4.9183 -0.0314
0 2 10 -9.4990 0.0280
0 2 11 -27.6403 -0.1509
0 2 12 19.6752 -0.0409
0 2 13 1.5824 0.2609
0 2 14 -0.1410 0.1457
0 2 15 8.1595 -0.1023
0 2 16 1.7226 0.0557
0 2 17 -2.4491 -0.1318
0 2 18 9.0792 -0.0553
0 2 19 3.1934 0.1128
0 2 20 -5.9352 -0.0539
0 2 21 -2.7470 -0.0233
0 4 0 62.4099 -0.1418
0 4 1 19.9776 0.2212
0 4 2 44.4743 0.1647
0 4 4 -30.9848 -0.0036
0 4 5 -1.8610 0.0604
0 4 6 24.0404 -0.3065
0 4 8 -28.0668 0.1609
0 4 9 17.4648 -0.0302
0 4 10 -34.1622 0.0865
0 4 11 -4.0699 0.0687
0 4 12 -5.9557 -0.1120
0 4 13 9.7689 -0.0147
0 4 14 -15.0228 -0.0444
0 4 15 1.4767 -0.0519
0 4 16 -13.0946 0.1077
0 4 17 -2.4486 -0.0136
0 4 18 7.8704 -0.0626
0 4 19 0.8146 0.0029
0 4 20 1.6858 -0.0706
0 4 21 -6.8689 -0.0410
0 6 0 15.1840 -0.0520
0 6 1 92.2096 0.1539
0 6 2 9.1108 0.0605
0 6 3 -7.3440 -0.1396
0 6 4 -22.1476 -0.0492
0 6 5 -74.2807 0.0941
0 6 6 30.4407 -0.0088
0 6 7 -40.3935 0.1423
0 6 8 4.7677 0.0658
0 6 9 -15.2143 -0.1316
0 6 10 -2.1080 -0.0144
0 6 11 0.0424 -0.0446
0 6 12 16.8735 -0.1126
0 6 13 -2.6046 0.1465
0 6 14 13.8660 0.0762
0 6 15 -3.0755 -0.0447
0 6 16 1.2092 0.0432
0 6 17 -5.3684 -0.0615
0 6 18 2.2058 -0.0390
0 6 19 5.1664 0.0246
0 6 20 4.7006 -0.0141
0 6 21 5.9299 0.0993
0 8 0 120.0832 -0.0064
0 8 1 47.1882 -0.1076
0 8 2 51.8983 0.0723
0 8 3 30.0524 0.0183
0 8 5 -24.9075 -0.0144
0 8 6 -8.9019 -0.0892
0 8 7 14.6408 -0.0847
0 8 8 16.2556 0.0580
0 8 9 27.4778 0.0299
0 8 10 0.1445 0.0180
0 8 11 -2.6898 -0.0044
0 8 12 -0.8510 -0.0155
0 8 13 1.0279 -0.0163
0 8 14 -7.9141 0.0235
0 8 15 6.3530 -0.0472
0 8 16 2.6038 0.0375
0 8 17 -2.4999 0.0566
0 8 18 0.4100 -0.0303
0 8 19 6.7674 -0.0037
0 8 20 -4.6794 -0.0278
0 10 0 44.8541 0.0023
0 10 1 61.7729 0.0547
0 10 2 -8.6606 -0.0369
0 10 3 -20.1319 0.0187
0 10 4 -29.7523 -0.0054
0 10 5 -18.6018 0.0128
0 10 6 -13.5293 -0.0083
0 10 7 30.9463 0.0269
0 10 8 -32.4688 0.0604
0 10 9 -4.2607 -0.1294
0 10 10 -15.7431 -0.0639
0 10 11 -14.3901 0.0862
0 10 12 -3.9473 -0.0188
0 10 13 12.2969 0.1071
0 10 14 -11.0017 0.0111
0 10 15 9.8556 -0.0459
0 10 16 -7.2927 -0.0194
0 10 17 3.5843 -0.0464
0 10 18 5.3058 0.0244
0 10 19 0.7360 0.0245
0 10 20 -2.6977 0.0587
0 12 0 -46.5652 0.0693
0 12 1 10.7254 0.0062
0 12 2 0.2143 -0.0628
0 12 3 -8.9583 -0.0661
0 12 4 -0.0644 0.0344
0 12 5 1.4417 0.0271
0 12 7 21.6604 -0.0268
0 12 8 5.7727 0.0357
0 12 9 -17.5646 0.1029
0 12 10 -3.6217 0.0321
0 12 11 -28.6738 -0.0331
0 12 12 2.5044 0.0455
0 12 13 -2.1323 -0.0288
0 12 14 -4.3723 -0.0192
0 12 15 -3.0412 -0.0529
0 12 16 -6.2283 -0.0313
0 12 17 -7.5218 0.1399
0 12 18 2.5543 -0.0335
0 12 19 4.1340 0.0351
0 14 0 14.0246 -0.0362
0 14 1 8.2741 -0.0365
0 14 2 2.2397 0.0252
0 14 3 -5.2406 0.0049
0 14 4 7.0636 0.0025
0 14 5 -9.2101 -0.0149
0 14 6 12.1146 0.0121
0 14 7 -10.4632 -0.0013
0 14 8 3.7981 0.0313
0 14 9 5.1427 0.0111
0 14 10 -3.8267 -0.0810
0 14 11 -3.2588 0.0263
0 14 12 4.1667 0.0417
0 14 13 -3.7856 0.0351
0 14 14 9.6948 0.0196
0 14 15 -2.1178 -0.0189
0 14 16 -2.3187 0.0165
0 14 17 -11.4146 0.0098
0 14 18 -5.9987 0.0071
0 16 0 31.0882 0.0392
0 16 1 30.7279 -0.0079
0 16 2 13.1777 -0.0551
0 16 3 12.9958 -0.0187
0 16 4 -18.3391 -0.0052
0 16 5 -31.2761 -0.0049
0 16 6 -4.6077 0.0395
0 16 8 11.7185 0.0231
0 16 9 7.1251 0.0668
0 16 10 6.7581 -0.0270
0 16 11 -3.5930 0.0068
0 16 12 -4.5587 -0.0399
0 16 13 4.9398 -0.0271
0 16 14 -4.5913 -0.0081
0 16 15 1.4729 -0.0449
0 16 16 4.4728 0.0506
0 16 17 -4.8147 0.0018
0 18 0 11.6457 0.0616
0 18 1 3.3006 0.0042
0 18 2 17.4050 0.0059
0 18 3 4.9257 -0.0216
0 18 4 -13.9326 -0.0359
0 18 5 -7.5756 -0.0021
0 18 6 -28.2222 -0.0479
0 18 7 5.8282 0.0342
0 18 8 10.4295 0.0800
0 18 9 7.6968 -0.0209
0 18 10 4.1258 -0.0025
0 18 11 -14.8491 -0.0025
0 18 12 -4.7304 0.0570
0 18 13 -12.9223 -0.0112
0 18 14 3.0312 -0.0635
0 18 15 -3.8480 -0.0249
0 18 16 0.6908 -0.0794
0 20 0 -4.4198 -0.0438
0 20 1 -0.8284 -0.0105
0 20 2 -0.5877 -0.0104
0 20 3 -7.4374 -0.0032
0 20 4 4.0073 0.0130
0 20 5 -11.4589 0.0570
0 20 6 11.3121 0.0442
0 20 8 11.9023 -0.0138
0 20 9 -6.9738 0.0115
0 20 10 -1.0644 -0.0353
0 20 11 -11.2555 0.0250
0 20 12 -9.6122 -0.0204
0 20 13 1.5198 0.0042
0 20 14 -0.2683 -0.0534
0 20 15 0.8876 -0.1492
0 22 0 -27.2579 0.0544
0 22 1 10.9854 -0.0499
0 22 2 -0.8262 0.0159
0 22 3 6.0351 -0.0006
0 22 4 0.9824 -0.0211
0 22 5 -16.6655 0.0618
0 22 6 -2.4880 0.0217
0 22 7 1.0022 -0.0552
0 22 8 2.2260 -0.0254
0 22 9 2.4199 0.0022
0 22 10 -5.9330 -0.0599
0 22 11 -2.9892 -0.0050
0 22 12 -5.2342 0.0778
0 22 13 5.2290 -0.0325
0 24 0 -12.4262 0.0546
0 24 1 5.9015 -0.1649
0 24 2 5.2484 -0.0325
0 24 3 6.0270 0.0221
0 24 4 1.1318 -0.0342
0 24 5 -6.0041 0.1534
0 24 6 -7.4053 0.0278
0 24 7 9.5858 -0.0655
0 24 8 7.7064 -0.0344
0 24 9 11.8541 -0.1037
0 24 10 6.8109 -0.0118
0 24 11 -0.5161 -0.1184
0 26 0 0.1420 -0.0405
0 26 1 1.3833 0.0575
0 26 2 10.0614 -0.0875
0 26 3 4.5103 -0.0416
0 26 4 5.0448 0.1200
0 26 5 -1.6244 0.0287
0 26 6 9.5506 0.0411
0 26 7 -5.7035 0.1244
0 26 8 10.3830 0.0974
0 28 0 0.0102 -0.0009
1 1 0 90.2185 -0.0857
1 1 2 98.0170 0.7250
1 1 5 -43.7912 -0.3602
1 1 6 -72.0896 -0.4081
1 1 7 11.5519 0.2348
1 1 8 41.5964 0.1237
1 1 9 17.3420 0.1056
1 1 10 10.1270 0.2110
1 1 11 -18.7112 -0.2481
1 1 12 -31.1665 -0.2897
1 1 13 -13.2708 0.1293
1 1 14 0.4973 -0.0203
1 1 15 -6.6929 0.1818
1 1 16 8.6611 0.3412
1 1 17 -6.9947 -0.3472
1 1 18 -1.6882 -0.3183
1 1 19 -6.2890 0.1400
1 1 20 -4.9647 0.0571
1 1 21 -0.7133 0.1118
1 3 0 -138.2429 0.1718
1 3 3 -105.0781 -0.1107
1 3 4 29.0087 0.0786
1 3 5 -0.4266 0.2715
1 3 6 -30.0234 -0.0731
1 3 7 2.3036 0.0947
1 3 8 12.6126 -0.0465
1 3 9 22.5792 -0.1644
1 3 10 -19.9824 0.1189
1 3 11 -3.8454 0.0194
1 3 12 -13.9700 -0.0237
1 3 13 -4.3619 0.0063
1 3 14 6.6955 -0.0738
1 3 15 -0.6589 0.0036
1 3 16 -13.3011 -0.0074
1 3 17 -7.6167 0.0166
1 3 18 -5.2890 0.0208
1 3 19 0.0819 0.0794
1 3 20 6.2806 0.0025
1 3 21 0.4028 -0.0246
1 5 0 -51.4917 0.0143
1 5 1 67.3046 -0.0110
1 5 2 -63.8315 0.1674
1 5 3 15.6058 -0.0972
1 5 4 -6.3807 0.0002
1 5 5 21.8301 -0.0908
1 5 6 41.4360 -0.0847
1 5 7 -35.9525 -0.0256
1 5 8 18.4398 0.0470
1 5 9 13.3158 0.0415
1 5 10 12.4222 0.1658
1 5 11 17.7876 -0.0648
1 5 12 1.9520 -0.1182
1 5 13 1.1217 0.0684
1 5 14 -0.0589 -0.0128
1 5 15 5.0487 0.0173
1 5 16 -1.1444 0.0899
1 5 17 3.7984 -0.0419
1 5 18 -10.2720 -0.1168
1 5 19 -6.5046 0.0490
1 5 20 1.3806 0.0274
1 5 21 -1.4612 -0.0436
1 7 1 -22.2434 -0.0879
1 7 2 12.5326 0.0072
1 7 3 47.2000 0.1052
1 7 4 13.9257 0.0273
1 7 5 4.4561 0.0816
1 7 6 -44.9246 -0.0508
1 7 7 -24.0798 -0.0367
1 7 8 18.1434 -0.0517
1 7 9 18.0156 -0.0698
1 7 10 17.7213 0.0085
1 7 11 20.0214 0.1089
1 7 12 -24.4470 -0.0278
1 7 13 -1.2840 -0.0128
1 7 14 -2.9364 -0.0072
1 7 15 -3.5766 -0.0435
1 7 16 4.5223 0.0233
1 7 17 -7.6361 -0.0403
1 7 18 2.0337 0.0443
1 7 19 -5.3595 0.0833
1 7 20 2.6917 0.0108
1 9 0 16.7641 0.0261
1 9 2 -2.2917 0.0153
1 9 3 6.4742 0.0100
1 9 5 34.4953 -0.0057
1 9 6 1.2765 0.0352
1 9 7 0.4654 0.0374
1 9 8 -3.8143 0.0825
1 9 9 14.6075 0.0098
1 9 10 -2.2221 0.0792
1 9 11 11.0049 -0.0568
1 9 12 -15.0947 -0.1317
1 9 13 -3.0497 -0.0235
1 9 14 -12.4148 0.0419
1 9 15 5.4767 0.0065
1 9 16 1.6746 0.0362
1 9 17 5.3454 0.0341
1 9 18 9.5565 -0.0579
1 9 19 -0.2274 0.0544
1 9 20 1.5530 0.0273
1 11 0 9.1884 -0.0136
1 11 1 -76.9188 -0.0380
1 11 2 -17.5690 0.0099
1 11 3 6.6831 0.0498
1 11 4 11.8163 0.0078
1 11 5 19.3390 -0.0254
1 11 6 10.3973 0.0056
1 11 7 5.4061 -0.0263
1 11 8 -2.0102 -0.0208
1 11 9 -5.5851 0.0144
1 11 10 -3.2237 -0.0702
1 11 11 -7.8603 0.0552
1 11 12 3.3717 -0.0092
1 11 13 2.6175 -0.0006
1 11 14 1.7223 0.0399
1 11 15 10.7875 -0.0568
1 11 16 1.1796 0.0333
1 11 17 -0.4383 0.0128
1 11 18 -3.5125 -0.0307
1 11 19 -5.4232 0.0745
1 13 0 -23.4247 0.0284
1 13 1 -11.3190 0.0192
1 13 2 -33.4932 0.0198
1 13 3 6.0858 0.0524
1 13 4 23.4288 -0.0215
1 13 5 16.0680 -0.0198
1 13 6 -4.1695 0.0323
1 13 7 17.9941 -0.0415
1 13 8 -5.1378 -0.0659
1 13 9 15.5250 -0.0361
1 13 10 12.6751 0.0674
1 13 11 2.5344 -0.0209
1 13 12 -2.0902 -0.0608
1 13 13 -1.7747 -0.0303
1 13 14 0.0814 0.0628
1 13 15 -2.4519 0.0202
1 13 16 7.3468 0.0561
1 13 17 1.7521 -0.0383
1 13 18 -6.6830 -0.0538
1 13 19 -5.6608 -0.0465
1 15 0 -1.4454 -0.0044
1 15 1 -2.9072 -0.0115
1 15 2 4.2249 -0.0183
1 15 3 13.4214 0.0626
1 15 4 -0.3063 -0.0046
1 15 5 -6.8713 -0.0116
1 15 6 7.4925 0.0211
1 15 7 -28.3039 -0.0174
1 15 8 -2.9090 0.0076
1 15 9 -6.2811 0.0290
1 15 10 -1.5985 0.0190
1 15 11 14.1372 -0.0287
1 15 12 -6.8987 -0.0193
1 15 13 6.0211 -0.0084
1 15 14 -3.0379 -0.0270
1 15 15 -5.4567 0.0867
1 15 16 -3.5243 -0.0550
1 15 17 0.1428 0.0194
1 15 18 2.9804 -0.0432
1 17 0 37.3953 -0.0085
1 17 1 2.3463 0.0305
1 17 2 7.4836 0.0098
1 17 3 18.5694 -0.0252
1 17 4 -5.1426 0.0162
1 17 5 -6.8435 -0.0053
1 17 6 1.8047 0.0264
1 17 7 -6.8326 0.0398
1 17 8 4.9289 -0.0813
1 17 9 3.0528 -0.0201
1 17 10 0.7494 -0.0362
1 17 11 9.4850 0.0264
1 17 12 -4.3624 0.0621
1 17 13 -7.9173 -0.0286
1 17 14 0.3091 0.1184
1 17 15 0.7401 0.0127
1 17 16 0.8796 0.0192
1 17 17 4.0885 0.0047
1 19 0 19.4453 -0.0439
1 19 1 -21.3076 0.0423
1 19 2 7.4699 0.0172
1 19 3 -7.4267 0.0474
1 19 4 -9.5097 0.0051
1 19 5 15.5851 -0.0203
1 19 6 7.0264 -0.0003
1 19 7 11.4885 -0.0691
1 19 8 -5.5147 0.0088
1 19 9 5.2813 -0.0219
1 19 10 -5.3198 0.0336
1 19 11 1.1430 -0.0005
1 19 12 -0.2592 -0.0230
1 19 13 -1.0898 0.0583
1 19 14 -2.1273 0.0037
1 19 15 0.3931 0.0721
1 21 1 -7.6707 0.0227
1 21 2 -12.5376 -0.0262
1 21 3 4.6897 -0.0244
1 21 4 6.2992 -0.0175
1 21 5 -2.4930 -0.0337
1 21 6 6.6109 0.0387
1 21 7 8.9175 0.0705
1 21 8 -4.3030 -0.0400
1 21 9 6.5397 -0.0154
1 21 10 -1.2023 0.0012
1 21 11 -0.8272 0.0131
1 21 12 -1.9647 0.0624
1 21 13 -0.0374 0.0505
1 21 14 -1.1880 0.0348
1 23 0 10.2599 0.0447
1 23 1 0.4283 -0.0527
1 23 2 -6.9640 0.0124
1 23 3 8.8010 -0.0336
1 23 4 10.1427 0.0500
1 23 5 6.7581 0.0051
1 23 6 -1.4312 -0.0433
1 23 7 -14.4415 -0.0484
1 23 8 -9.9537 -0.0552
1 23 9 0.4238 0.1069
1 23 10 2.5768 -0.0047
1 23 11 7.6403 0.0904
1 23 12 1.0750 0.2136
1 25 0 13.7718 0.0219
1 25 1 2.2163 0.1010
1 25 2 -10.6352 0.0140
1 25 3 -0.6514 0.0680
1 25 4 -2.5884 -0.1174
1 25 5 3.7515 -0.0585
1 25 6 11.7892 0.0545
1 25 7 -11.2497 -0.0694
1 25 8 1.7415 0.1382
1 25 9 -6.7260 -0.0142
1 27 0 21.9173 0.2052
1 27 1 1.9030 -0.1287
1 27 2 -3.4330 -0.0379
1 27 3 -1.9089 -0.1135
1 27 4 -5.5371 -0.0626
1 27 5 9.9902 0.0237
2 0 0 -106.4576 -4.0655
2 0 4 46.6349 0.4826
2 0 6 31.9273 -0.7423
2 0 8 11.6826 0.5180
2 0 10 46.6928 0.2498
2 0 12 -3.2818 -0.4761
2 0 14 -10.7008 0.0524
2 0 16 10.2738 0.2147
2 0 18 2.9943 -0.3480
2 0 20 14.6231 0.0004
2 2 0 -30.4871 -0.0824
2 2 1 7.9090 -0.1577
2 2 2 -23.3281 0.1599
2 2 4 76.5516 0.0853
2 2 5 5.5572 -0.1132
2 2 6 39.1758 -0.0904
2 2 7 21.4832 0.2864
2 2 8 -25.4406 -0.0582
2 2 9 -3.4708 -0.0373
2 2 10 11.0459 0.0296
2 2 11 -2.1668 -0.2474
2 2 12 -4.7923 -0.0196
2 2 13 3.2739 0.3062
2 2 14 -14.8967 0.0697
2 2 15 -2.4974 -0.1722
2 2 16 -0.6996 0.0395
2 2 17 -2.7489 -0.0452
2 2 18 0.9155 -0.0187
2 2 19 -3.0641 0.0840
2 2 20 -5.6139 -0.0664
2 2 21 7.0975 0.0215
2 4 1 -38.6824 0.0708
2 4 2 -128.3528 0.2433
2 4 3 -17.3706 0.0781
2 4 4 57.3103 0.0647
2 4 5 39.2458 0.1300
2 4 6 43.5756 -0.2393
2 4 8 -53.2100 0.0440
2 4 9 -20.6030 -0.0748
2 4 10 -7.6773 0.0940
2 4 11 11.8980 0.0451
2 4 12 12.5596 -0.0673
2 4 13 -8.1274 -0.0063
2 4 14 -4.7819 -0.0325
2 4 15 -6.4107 -0.0471
2 4 16 -0.7295 0.0707
2 4 17 -0.5180 0.0069
2 4 18 -2.4935 -0.0264
2 4 19 -3.2397 0.0005
2 4 20 0.2459 -0.0466
2 4 21 0.8993 -0.0369
2 6 0 -18.3259 -0.0581
2 6 1 22.4935 0.0593
2 6 2 37.7878 0.0554
2 6 3 17.5054 -0.0739
2 6 4 48.4773 -0.0544
2 6 5 -47.1008 0.0431
2 6 6 9.9667 -0.0074
2 6 7 -33.3159 0.1271
2 6 8 -11.8570 0.0923
2 6 9 -13.5227 -0.1328
2 6 10 6.1021 -0.0351
2 6 11 11.0457 -0.0573
2 6 12 9.6813 -0.0451
2 6 13 -3.8261 0.1538
2 6 14 -6.2404 0.0215
2 6 15 -3.3136 -0.0167
2 6 16 7.5289 0.0202
2 6 17 6.4634 -0.0134
2 6 18 -0.0188 -0.0023
2 6 19 4.4724 0.0079
2 6 20 -7.0014 -0.0535
2 8 1 45.5693 -0.1144
2 8 2 -65.5979 0.1405
2 8 3 0.8632 -0.0203
2 8 4 6.0868 -0.0069
2 8 5 8.2712 0.0447
2 8 6 -1.1155 -0.1322
2 8 7 3.8459 -0.0472
2 8 8 -6.4196 0.0744
2 8 9 5.8496 0.0266
2 8 10 0.1872 0.0030
2 8 11 15.4061 0.0279
2 8 12 -2.7577 0.0017
2 8 13 13.6819 -0.0139
2 8 14 -8.7020 -0.0273
2 8 15 -4.7471 -0.0374
2 8 16 0.8925 0.0717
2 8 17 -5.6286 0.0549
2 8 18 12.9523 -0.0984
2 8 19 -4.9891 -0.0192
2 8 20 -3.0299 -0.0738
2 10 0 13.8770 -0.0127
2 10 1 -51.8999 0.0763
2 10 2 8.9486 0.0060
2 10 3 -35.5079 -0.0229
2 10 4 -26.7230 -0.0364
2 10 5 13.2695 0.0186
2 10 6 7.5275 0.0294
2 10 7 19.6943 -0.0028
2 10 8 7.3232 0.0683
2 10 9 -11.7641 -0.1085
2 10 10 -16.1140 -0.0384
2 10 11 -3.3015 0.0600
2 10 12 -5.1153 -0.0380
2 10 13 0.5993 0.0617
2 10 14 0.6564 0.0401
2 10 15 -3.2106 -0.0646
2 10 16 2.2677 -0.0015
2 10 17 -5.2573 -0.0639
2 10 18 8.3914 -0.0147
2 10 19 -0.5117 -0.0403
2 12 0 20.8469 0.0033
2 12 1 31.0016 -0.0338
2 12 2 -10.6803 -0.0160
2 12 3 -12.4989 -0.0285
2 12 4 21.2169 -0.0255
2 12 5 -0.9295 0.0378
2 12 6 8.2936 -0.0214
2 12 7 6.0471 -0.0001
2 12 8 -15.9804 0.0176
2 12 9 -8.0207 0.0490
2 12 10 0.6409 -0.0028
2 12 11 -1.9362 0.0510
2 12 12 9.4117 0.0071
2 12 13 -8.3887 -0.0182
2 12 14 7.0548 -0.0484
2 12 15 -1.8805 -0.0541
2 12 16 0.7107 0.0027
2 12 17 3.0105 0.0368
2 12 18 -4.6674 -0.0414
2 12 19 -5.5753 0.0077
2 14 0 -44.6389 -0.0319
2 14 1 44.3418 -0.0020
2 14 2 13.0739 0.0128
2 14 3 -8.3441 -0.0317
2 14 4 8.6801 0.0266
2 14 5 -6.7590 0.0108
2 14 6 -3.5066 0.0087
2 14 7 2.7471 0.0191
2 14 8 -5.6576 -0.0247
2 14 9 -7.7262 -0.0149
2 14 10 -4.0637 -0.0225
2 14 11 12.5480 0.0310
2 14 12 9.7824 0.0499
2 14 13 3.4707 -0.0108
2 14 14 -5.5910 0.0384
2 14 15 -7.2045 -0.0171
2 14 16 -2.0713 -0.0286
2 14 17 0.4206 -0.0237
2 14 18 -0.2932 -0.0772
2 16 0 -11.5428 0.0227
2 16 1 13.4467 0.0119
2 16 2 -0.9054 -0.0451
2 16 3 9.0810 0.0249
2 16 4 0.5444 -0.0209
2 16 5 -6.0475 -0.0420
2 16 6 -5.2988 0.0196
2 16 7 -18.1851 -0.0504
2 16 8 6.5230 0.0273
2 16 9 -9.6164 0.0431
2 16 10 -4.9580 -0.0153
2 16 11 12.8902 0.0193
2 16 12 1.3452 -0.0568
2 16 13 5.9302 -0.0347
2 16 14 0.7498 -0.0299
2 16 15 -8.1753 -0.0282
2 16 16 0.4659 0.0058
2 16 17 4.9376 -0.0528
2 18 0 22.3072 0.0423
2 18 1 6.8041 0.0002
2 18 2 2.0527 -0.0093
2 18 3 -25.1274 -0.0648
2 18 4 -9.0482 -0.0322
2 18 5 16.1745 0.0091
2 18 6 -6.2360 -0.0738
2 18 7 7.6157 0.0830
2 18 8 3.0014 0.0640
2 18 9 -0.3434 -0.0309
2 18 10 -1.5687 0.0223
2 18 11 -0.4551 -0.0119
2 18 12 3.3876 -0.0047
2 18 13 3.6381 -0.0437
2 18 14 2.0405 -0.0317
2 18 15 0.9925 -0.0473
2 18 16 0.1923 -0.1380
2 20 0 -13.9352 -0.0150
2 20 1 2.5200 -0.0102
2 20 2 5.0778 0.0302
2 20 3 -18.0182 -0.0176
2 20 4 1.0141 0.0585
2 20 5 4.6605 0.0523
2 20 6 0.7528 0.0224
2 20 7 15.7125 -0.0030
2 20 8 -5.5312 -0.0227
2 20 9 3.7277 -0.0335
2 20 10 -4.9482 -0.0173
2 20 11 -3.7051 0.0116
2 20 12 0.9818 -0.0555
2 20 13 -4.0357 0.0468
2 20 14 4.9543 -0.0340
2 22 0 -11.6559 -0.0058
2 22 1 -8.1542 0.0263
2 22 2 4.8449 -0.0333
2 22 3 -4.2181 -0.0182
2 22 4 0.2948 0.0245
2 22 5 5.9147 -0.0225
2 22 6 1.7494 -0.0210
2 22 7 0.5771 0.0069
2 22 8 7.9000 -0.0147
2 22 9 -5.6351 -0.0391
2 22 10 1.5777 -0.0107
2 22 11 0.7965 -0.0595
2 22 12 1.6166 0.0628
2 22 13 1.6706 0.0815
2 24 0 -0.0486 0.0407
2 24 1 2.8679 -0.1385
2 24 2 0.1522 0.0051
2 24 3 1.5500 -0.0276
2 24 4 -4.0159 -0.0626
2 24 5 1.9241 0.1754
2 24 6 5.1022 0.0602
2 24 7 -1.0176 0.0304
2 24 8 -1.6847 -0.0240
2 24 9 -1.6672 -0.0526
2 24 10 -5.8576 -0.0206
2 26 0 12.5284 -0.1244
2 26 1 -2.7764 -0.0065
2 26 2 8.0664 0.0021
2 26 3 5.6336 0.0334
2 26 4 -11.1800 0.1102
2 26 5 -3.8845 -0.0744
2 26 6 -2.9757 0.0257
2 26 7 4.6571 -0.0541
3 1 0 159.1465 -1.0109
3 1 2 63.5583 0.6514
3 1 3 9.2397 -0.2111
3 1 4 -10.1769 0.2480
3 1 6 49.1415 -0.4710
3 1 7 41.0455 0.3554
3 1 8 25.7580 0.1901
3 1 9 26.7067 0.0744
3 1 10 -0.0337 0.1622
3 1 11 -6.8756 -0.2574
3 1 12 18.5137 -0.3197
3 1 13 8.0484 0.1685
3 1 14 -5.9543 0.0733
3 1 15 -3.6136 0.0843
3 1 16 -16.3780 0.2637
3 1 17 -7.3893 -0.2981
3 1 18 0.8540 -0.2848
3 1 19 -7.1533 0.0775
3 1 20 -0.5801 -0.0433
3 1 21 -1.2388 0.1484
3 3 0 183.0897 0.2613
3 3 1 64.1491 0.0829
3 3 2 28.0981 -0.1538
3 3 3 -63.3826 -0.1887
3 3 4 -39.4013 -0.0041
3 3 5 -5.7404 0.0949
3 3 6 24.3263 0.0296
3 3 7 63.1082 0.2430
3 3 8 -2.0484 -0.1092
3 3 9 4.8766 -0.1378
3 3 10 -26.3282 0.1130
3 3 11 -2.5066 -0.0268
3 3 12 3.7955 0.0082
3 3 13 19.3815 0.0645
3 3 14 -0.7522 -0.0460
3 3 15 5.8041 -0.0282
3 3 16 -13.0890 -0.0205
3 3 17 -5.2954 -0.0252
3 3 18 2.7821 0.0420
3 3 19 0.3339 0.0757
3 3 20 3.9105 -0.0293
3 3 21 -1.5116 0.0309
3 5 0 -23.1404 -0.0798
3 5 1 -9.9437 0.1156
3 5 2 173.5602 0.2186
3 5 3 -6.8523 -0.1944
3 5 4 41.0073 -0.0149
3 5 5 -74.6253 -0.1278
3 5 6 29.0300 -0.1643
3 5 7 -17.9746 0.0416
3 5 8 19.7801 0.0907
3 5 9 10.7714 -0.0065
3 5 10 -16.3105 0.1297
3 5 11 -15.9547 -0.0245
3 5 12 2.3897 -0.1086
3 5 13 -14.9053 0.0417
3 5 14 8.8699 0.0343
3 5 15 2.7041 0.0207
3 5 16 -3.2316 0.0840
3 5 17 -4.1841 -0.0520
3 5 18 -5.0617 -0.1224
3 5 19 1.6617 0.0428
3 5 20 -2.0370 -0.0144
3 7 1 39.8880 -0.0154
3 7 2 -31.6944 -0.0145
3 7 3 59.9676 0.0529
3 7 4 -55.5315 0.0007
3 7 5 -31.4774 0.0877
3 7 6 4.6237 0.0068
3 7 7 1.4174 -0.0301
3 7 8 14.3402 -0.0348
3 7 9 29.0242 -0.0983
3 7 10 -16.0784 -0.0256
3 7 11 -0.4376 0.0765
3 7 12 6.9462 -0.0238
3 7 13 38.3416 0.0224
3 7 14 0.9185 0.0048
3 7 15 26.8780 -0.1049
3 7 16 -3.9386 0.0514
3 7 17 -6.7964 -0.0583
3 7 18 -3.0348 0.0483
3 7 19 5.4124 0.1104
3 7 20 3.5384 -0.0271
3 9 0 0.1548 0.0619
3 9 2 8.5971 0.0215
3 9 3 31.3637 0.0027
3 9 4 -48.4163 -0.0451
3 9 5 -13.0094 0.0532
3 9 6 -1.0763 -0.0483
3 9 7 19.2564 0.0234
3 9 8 18.3400 0.1029
3 9 9 29.1655 -0.0124
3 9 10 -3.1258 0.0595
3 9 11 -0.6286 -0.0334
3 9 12 -16.3759 -0.1109
3 9 13 7.5913 0.0250
3 9 14 -9.7867 -0.0209
3 9 15 0.9277 -0.0001
3 9 16 -3.0547 0.0207
3 9 17 -3.6094 0.0392
3 9 18 5.7226 0.0198
3 9 19 -0.7540 0.1120
3 9 20 5.1865 0.0137
3 11 0 8.4032 -0.0218
3 11 1 -12.7029 0.0163
3 11 2 -3.4860 -0.0262
3 11 3 1.4670 -0.0092
3 11 4 -5.0880 0.0384
3 11 5 -3.1972 -0.0216
3 11 6 4.7807 0.0076
3 11 7 -3.5712 -0.0628
3 11 8 2.4567 -0.0270
3 11 9 0.4316 -0.0328
3 11 10 -0.6389 -0.0065
3 11 11 -13.6865 0.0754
3 11 12 0.5493 0.0170
3 11 13 -1.2820 0.0203
3 11 14 10.4793 0.0220
3 11 15 10.7551 -0.0624
3 11 16 -1.6470 0.0259
3 11 17 3.0457 0.0706
3 11 18 -2.4255 0.0207
3 11 19 -8.6729 0.0725
3 13 0 -10.1391 0.0301
3 13 1 4.0348 0.0360
3 13 2 19.2297 0.0089
3 13 3 18.5085 0.0381
3 13 4 5.9437 -0.0306
3 13 5 0.0863 -0.0146
3 13 6 6.1118 0.0407
3 13 7 -7.2229 -0.0241
3 13 8 -12.2151 -0.0030
3 13 9 13.0662 -0.0031
3 13 10 -12.7113 -0.0118
3 13 11 -4.1012 -0.0026
3 13 12 10.1767 -0.0327
3 13 13 -15.7702 -0.0044
3 13 14 8.1703 0.0583
3 13 15 -0.6256 -0.0299
3 13 16 -6.7880 0.0299
3 13 17 -6.1527 0.0084
3 13 18 -3.2784 0.0448
3 15 0 -23.6010 0.0199
3 15 1 11.0882 -0.0494
3 15 2 -1.1917 -0.0069
3 15 3 36.3469 0.0476
3 15 4 7.0597 -0.0020
3 15 5 -22.8915 -0.0080
3 15 6 3.7065 0.0167
3 15 7 -9.2076 0.0176
3 15 8 -4.9205 0.0258
3 15 9 16.0192 -0.0179
3 15 10 1.1753 -0.0036
3 15 11 -9.2354 -0.0150
3 15 12 -2.3303 0.0055
3 15 14 -1.0236 -0.0608
3 15 15 2.0204 0.0716
3 15 16 0.4728 0.0218
3 15 17 -4.7523 0.0936
3 17 0 23.3156 0.0048
3 17 1 0.9579 -0.0228
3 17 2 -3.4586 -0.0088
3 17 3 6.7720 0.0156
3 17 4 -0.1814 0.0269
3 17 5 -0.2503 -0.0332
3 17 6 -5.6215 0.0302
3 17 7 -3.4365 0.0417
3 17 8 16.5656 -0.0628
3 17 9 5.8014 0.0240
3 17 10 16.6140 -0.0361
3 17 11 -6.4252 -0.0029
3 17 12 -4.6217 0.0616
3 17 13 -1.2007 -0.0200
3 17 14 -5.3587 0.1144
3 17 15 8.8226 0.0651
3 17 16 5.2441 0.0499
3 19 0 -3.9933 0.0033
3 19 1 -10.4836 0.0609
3 19 2 -10.5855 0.0052
3 19 3 0.6380 0.0505
3 19 4 1.7783 0.0040
3 19 5 -13.0247 -0.0183
3 19 6 -6.4160 -0.0204
3 19 7 0.9371 -0.0297
3 19 8 -3.6880 0.0313
3 19 9 8.5704 -0.0265
3 19 10 3.6882 -0.0103
3 19 11 -3.0963 0.0157
3 19 12 -9.2884 0.0419
3 19 13 -1.3640 0.0351
3 19 14 0.3981 0.0645
3 19 15 3.8074 0.0184
3 21 0 -11.3702 -0.0092
3 21 1 -1.2691 -0.0516
3 21 2 -12.7710 -0.0675
3 21 3 3.4821 -0.0101
3 21 4 6.4948 -0.0324
3 21 5 2.4655 -0.0370
3 21 6 -2.6604 0.0474
3 21 7 2.8138 0.0616
3 21 8 0.3152 -0.0391
3 21 9 2.6649 -0.0299
3 21 10 0.1732 0.0403
3 21 11 0.3468 0.0948
3 21 12 -5.4629 -0.0226
3 21 13 -1.9470 0.1052
3 23 0 -7.4874 0.0047
3 23 1 4.1617 -0.0208
3 23 2 -5.3306 0.0814
3 23 3 4.8631 -0.0256
3 23 4 10.8030 -0.0069
3 23 5 -5.1621 0.0487
3 23 6 -3.4419 -0.0056
3 23 7 2.1130 -0.0010
3 23 8 -4.1252 -0.0505
3 23 9 3.4056 0.0695
3 23 10 1.5341 0.0285
3 23 11 -1.7718 0.0089
3 25 0 -8.6515 -0.0144
3 25 1 9.5365 0.0345
3 25 2 -4.3087 0.0034
3 25 3 6.0928 0.0998
3 25 4 -0.0905 -0.0627
3 25 5 -11.2272 -0.0826
3 25 6 -2.1380 0.0494
3 25 7 -9.8794 -0.0119
3 25 8 2.8161 0.0053
3 25 9 1.2778 -0.0485
3 27 0 -0.7516 -0.1495
3 27 1 -4.5025 0.0006
3 27 2 -2.0219 0.0964
3 27 3 0.6170 -0.1523
3 27 4 0.5240 -0.0471
4 0 0 -30.8486 -2.6092
4 0 2 -193.6937 0.1618
4 0 4 -53.8750 0.4684
4 0 6 -24.3897 -0.7516
4 0 8 54.3051 0.4414
4 0 10 20.7872 0.3447
4 0 12 8.5990 -0.5780
4 0 14 0.0745 -0.0143
4 0 16 11.6876 0.2986
4 0 18 9.0363 -0.3205
4 0 20 -3.8758 -0.0029
4 2 0 43.6029 0.1365
4 2 1 52.9846 0.5720
4 2 2 -48.7705 0.2724
4 2 3 -108.9989 -0.5867
4 2 4 -22.7709 0.0351
4 2 5 -10.7868 -0.3316
4 2 6 -4.9401 -0.0928
4 2 7 40.9076 0.3378
4 2 8 28.3834 -0.0371
4 2 9 8.2932 -0.0820
4 2 10 12.9481 0.0132
4 2 11 -23.0576 -0.1421
4 2 12 -22.9077 0.0132
4 2 13 -3.4235 0.1753
4 2 14 -0.7672 0.0141
4 2 15 7.0869 -0.0050
4 2 16 -4.6981 0.0227
4 2 17 6.0959 -0.1171
4 2 18 -8.0781 -0.0245
4 2 19 -3.4337 0.1127
4 2 20 -0.0486 -0.0097
4 4 0 -289.5027 -0.2009
4 4 1 -63.8009 -0.0212
4 4 3 16.3197 0.1533
4 4 4 77.1046 0.0739
4 4 5 1.5726 0.1410
4 4 6 -30.9929 -0.2033
4 4 7 -13.3974 -0.0180
4 4 8 -15.1685 -0.0129
4 4 9 -1.7144 -0.0743
4 4 10 -4.0336 0.1561
4 4 11 3.6028 0.0213
4 4 12 -20.4479 -0.1116
4 4 13 -4.2511 -0.0064
4 4 14 -6.2409 -0.0730
4 4 15 -2.6084 -0.0215
4 4 16 7.3334 0.0958
4 4 17 3.1037 0.0152
4 4 18 -5.7307 0.0131
4 4 19 -5.2200 -0.0239
4 4 20 -0.0238 -0.0046
4 6 0 -18.9445 -0.0116
4 6 1 -49.0780 -0.0913
4 6 2 -60.6360 0.0588
4 6 3 12.1437 0.0053
4 6 4 64.9565 0.0162
4 6 5 17.6548 -0.0114
4 6 6 -15.5456 -0.0541
4 6 8 2.6889 0.0881
4 6 9 25.7401 -0.1237
4 6 10 21.5602 -0.0071
4 6 11 23.0645 -0.0678
4 6 12 -17.1755 -0.0631
4 6 13 16.1504 0.1350
4 6 14 -0.8793 -0.0081
4 6 15 -0.1725 0.0596
4 6 16 -1.5994 -0.0135
4 6 17 -8.1066 -0.0562
4 6 18 -9.0232 -0.0119
4 6 19 2.1932 0.0695
4 6 20 -1.2400 0.0219
4 8 0 -4.7929 -0.0873
4 8 1 -27.4875 -0.0860
4 8 2 -20.8210 0.0675
4 8 3 -37.4198 -0.0252
4 8 4 10.9422 0.0637
4 8 5 29.1210 0.0692
4 8 6 3.3019 -0.1182
4 8 8 24.2063 0.0201
4 8 9 8.8221 -0.0019
4 8 10 30.7513 0.0894
4 8 11 22.4884 0.0182
4 8 12 1.7976 -0.0468
4 8 13 2.5684 -0.0228
4 8 14 -1.5145 0.0168
4 8 15 -4.9279 -0.0590
4 8 16 5.3626 0.1004
4 8 17 4.4457 0.0358
4 8 18 2.7077 -0.0580
4 8 19 2.0349 0.0049
4 8 20 0.6997 -0.0844
4 10 0 -17.7258 0.0114
4 10 1 3.4809 0.0143
4 10 2 -30.2037 -0.0009
4 10 3 11.8532 -0.0103
4 10 4 -6.0861 -0.0720
4 10 5 41.9820 0.0031
4 10 6 -8.5834 0.0255
4 10 7 0.2079 -0.0036
4 10 8 -8.1096 0.0531
4 10 9 -6.9808 -0.0306
4 10 10 12.1166 -0.0360
4 10 11 -0.1234 0.0094
4 10 12 -7.2762 -0.0623
4 10 13 -11.6795 0.0780
4 10 14 -13.6956 0.0618
4 10 15 -1.3598 -0.0387
4 10 16 1.1665 -0.0011
4 10 17 10.3866 -0.0930
4 10 18 8.3087 -0.0574
4 10 19 -2.7915 -0.0398
4 12 0 -50.1482 -0.0063
4 12 1 -31.9575 -0.0082
4 12 2 -5.0712 0.0213
4 12 3 8.3300 0.0156
4 12 4 25.6761 -0.0483
4 12 5 56.7042 0.0094
4 12 6 0.0021 0.0093
4 12 7 14.8646 0.0196
4 12 8 -14.3459 0.0410
4 12 9 -19.4960 -0.0053
4 12 10 -1.8652 0.0149
4 12 11 12.2689 0.0318
4 12 12 0.1200 -0.0693
4 12 13 6.8583 -0.0130
4 12 14 -2.7341 -0.0032
4 12 15 2.6681 -0.0484
4 12 16 -1.2330 -0.0141
4 12 17 3.8548 -0.0014
4 12 18 0.7378 -0.0804
4 14 0 5.0505 0.0139
4 14 1 -30.1559 -0.0232
4 14 2 -18.7476 -0.0355
4 14 3 -1.3439 0.0047
4 14 4 17.2485 0.0228
4 14 5 19.0830 0.0329
4 14 6 26.3485 0.0076
4 14 7 -6.3334 0.0100
4 14 8 0.8085 -0.0607
4 14 9 1.8319 -0.0094
4 14 10 -9.3906 -0.0317
4 14 11 11.9165 -0.0421
4 14 12 2.1330 0.0612
4 14 13 8.6440 0.0182
4 14 14 2.6938 0.0830
4 14 15 -7.7046 -0.0111
4 14 16 -5.6047 -0.0712
4 14 17 1.5570 -0.0415
4 14 18 -0.3638 -0.2383
4 16 0 22.9900 -0.0374
4 16 1 3.0042 0.0439
4 16 2 3.5781 0.0378
4 16 3 -14.5315 -0.0302
4 16 4 -10.3241 -0.0129
4 16 5 9.6499 -0.0143
4 16 6 10.1572 -0.0297
4 16 7 -7.3710 -0.0687
4 16 8 3.3531 0.0415
4 16 9 -7.5555 0.0349
4 16 10 9.4972 -0.0199
4 16 11 10.2397 -0.0027
4 16 12 -0.3357 -0.0418
4 16 13 -2.1991 0.0351
4 16 14 -2.8871 -0.0026
4 16 15 3.0138 -0.0513
4 16 16 -3.5818 -0.0369
4 16 17 3.3114 -0.2512
4 18 0 10.9457 -0.0098
4 18 1 -6.8236 0.0440
4 18 2 11.7577 0.0227
4 18 3 5.4120 -0.0317
4 18 4 -20.0404 0.0103
4 18 5 19.2281 -0.0013
4 18 6 9.5818 -0.0183
4 18 7 9.5562 0.0114
4 18 8 -3.0107 -0.0266
4 18 9 -9.4148 0.0596
4 18 10 -0.6783 0.0086
4 18 11 4.4585 -0.0571
4 18 12 3.3760 0.0398
4 18 13 2.8178 -0.0440
4 18 14 -5.5997 -0.0558
4 18 15 -0.4256 0.0057
4 20 0 4.2988 -0.0078
4 20 1 -11.9378 0.0162
4 20 2 -1.9308 0.0400
4 20 3 -0.9922 -0.0075
4 20 4 0.2056 0.0146
4 20 5 10.4357 -0.0030
4 20 6 9.6533 -0.0196
4 20 7 6.3298 -0.0053
4 20 8 -1.6984 0.0191
4 20 9 -7.3160 -0.0091
4 20 10 -14.2533 0.0048
4 20 11 -0.4870 -0.0634
4 20 12 0.2305 -0.0386
4 20 13 -1.8889 -0.0087
4 20 14 3.8260 0.1162
4 22 0 6.5574 0.0591
4 22 1 4.9222 0.1124
4 22 2 -0.6429 -0.0645
4 22 3 -5.5775 -0.0560
4 22 4 5.2542 0.0744
4 22 5 4.6819 -0.0940
4 22 6 18.4384 0.0149
4 22 7 2.6509 0.0572
4 22 8 -3.4613 -0.0339
4 22 9 -2.3371 -0.0132
4 22 10 -5.8116 -0.0878
4 22 11 -3.3407 -0.0446
4 22 12 5.4109 -0.0162
4 24 0 -0.5837 -0.0065
4 24 1 12.4145 -0.0387
4 24 2 0.3853 0.0161
4 24 3 3.7023 -0.0228
4 24 4 -1.5725 -0.0567
4 24 5 -2.1712 0.0714
4 24 6 7.3095 -0.0528
4 24 7 -4.7389 0.0193
4 24 8 1.0384 0.0615
4 24 9 -0.2709 0.0265
4 24 10 2.2968 0.0960
4 26 0 17.0359 0.1024
4 26 1 -1.3640 -0.0252
4 26 2 -0.0592 -0.0891
4 26 3 -1.8285 0.1227
4 26 4 -8.4602 -0.0643
4 26 5 2.8555 -0.1883
4 26 6 -3.0962 0.0892
4 26 7 3.1937 -0.1423
5 1 0 -80.9735 -1.4838
5 1 1 -45.2088 0.9182
5 1 2 -14.2715 0.5738
5 1 3 -43.9459 -0.3123
5 1 4 -42.7330 0.3037
5 1 5 -5.8543 -0.3851
5 1 6 17.2291 -0.3917
5 1 7 -22.1205 0.3383
5 1 8 11.6408 0.0898
5 1 9 -9.2845 0.1450
5 1 10 4.3129 0.2449
5 1 11 -20.0399 -0.3290
5 1 12 18.0258 -0.3469
5 1 13 -0.3976 0.1548
5 1 14 4.0867 0.0680
5 1 15 4.1232 0.0441
5 1 16 8.3856 0.2712
5 1 17 8.4621 -0.2594
5 1 18 7.1913 -0.1991
5 1 19 7.8108 0.0367
5 1 20 -3.0173 -0.1646
5 3 0 -239.6089 -0.1105
5 3 1 -102.1778 -0.1664
5 3 2 -44.1479 -0.0466
5 3 3 71.2556 -0.1482
5 3 4 27.2648 0.0306
5 3 5 26.7036 0.1154
5 3 6 38.3327 -0.0063
5 3 7 -1.7526 0.1953
5 3 8 -35.8705 -0.0479
5 3 9 -7.6771 -0.0246
5 3 10 -4.4539 0.0074
5 3 11 -13.6372 -0.1169
5 3 12 5.7086 0.0724
5 3 13 -20.7309 0.0845
5 3 14 -5.1425 -0.0102
5 3 15 -0.7147 -0.0439
5 3 16 0.5510 -0.0158
5 3 17 11.4558 0.0034
5 3 18 -0.7736 -0.0180
5 3 19 -4.9308 0.0661
5 3 20 1.6717 -0.0374
5 5 1 -7.1905 0.1118
5 5 2 -79.7557 0.2196
5 5 3 41.6316 -0.1018
5 5 4 82.1345 0.0510
5 5 5 14.1863 -0.1503
5 5 6 45.9373 -0.2910
5 5 7 -4.8009 0.0614
5 5 8 -35.0186 0.0856
5 5 9 -3.9793 -0.0413
5 5 10 -4.8475 0.1516
5 5 11 6.1660 -0.0247
5 5 12 8.1731 -0.0733
5 5 13 18.1790 0.0629
5 5 14 7.4046 0.0486
5 5 15 3.1522 0.0078
5 5 16 -9.3040 0.1016
5 5 17 -1.0169 -0.1153
5 5 18 -7.3545 -0.1173
5 5 19 1.1285 -0.0336
5 5 20 0.4852 -0.0958
5 7 0 59.1148 -0.0310
5 7 1 54.8956 -0.0189
5 7 2 10.1588 -0.0107
5 7 3 -47.6037 -0.0102
5 7 4 -22.0767 0.0698
5 7 5 -27.5692 0.1092
5 7 6 33.2205 0.0031
5 7 7 20.7007 -0.0545
5 7 8 7.8235 -0.0039
5 7 9 -2.6006 -0.0287
5 7 10 1.1665 -0.0404
5 7 11 10.5876 0.0033
5 7 12 4.8274 -0.0322
5 7 14 -2.9982 -0.0597
5 7 15 -10.9032 -0.0723
5 7 16 1.0982 0.0521
5 7 17 -5.8331 -0.0159
5 7 18 12.8708 0.0383
5 7 19 5.1546 0.0572
5 7 20 0.4303 -0.0245
5 9 0 64.2535 0.0038
5 9 2 -8.6352 0.0538
5 9 3 8.7626 -0.0047
5 9 4 -42.2824 -0.0915
5 9 5 -6.8775 0.0239
5 9 6 12.8216 -0.1197
5 9 7 20.3871 0.0182
5 9 8 8.9637 0.1614
5 9 9 -2.1036 -0.0603
5 9 10 -16.5476 0.0463
5 9 11 -0.8026 -0.0123
5 9 12 18.2335 -0.0801
5 9 13 -0.6706 0.0209
5 9 14 -2.9033 -0.0238
5 9 15 2.9319 -0.0095
5 9 16 -2.1290 0.0320
5 9 17 -1.4044 0.0233
5 9 18 8.8772 -0.0617
5 9 19 -3.3290 0.0591
5 11 0 -9.2686 0.0134
5 11 1 40.7808 0.0367
5 11 2 -9.9080 -0.0314
5 11 3 0.3961 -0.0267
5 11 4 -7.1611 0.0629
5 11 5 -7.1059 0.0043
5 11 6 12.1388 -0.0205
5 11 7 20.1306 -0.0323
5 11 8 6.8179 -0.0608
5 11 9 -9.1939 -0.0602
5 11 10 -8.2454 0.0369
5 11 11 -25.2146 0.1062
5 11 12 5.0630 0.0178
5 11 13 3.2522 0.0155
5 11 14 -4.7860 -0.0259
5 11 15 9.7904 -0.0792
5 11 16 -3.9476 -0.0084
5 11 17 -3.2616 0.1108
5 11 18 5.1399 0.0874
5 11 19 -0.3989 0.0563
5 13 0 -20.4392 0.0461
5 13 1 16.3359 0.0086
5 13 2 -13.7142 -0.0241
5 13 3 15.0353 -0.0135
5 13 4 17.1036 0.0208
5 13 5 -2.0622 -0.0513
5 13 6 -0.6776 -0.0041
5 13 7 24.8885 0.0089
5 13 8 -1.1956 0.0826
5 13 9 2.7762 0.0497
5 13 10 -2.5117 -0.0924
5 13 11 -12.1237 0.0114
5 13 12 -2.1246 -0.0056
5 13 13 -4.9792 -0.0288
5 13 14 -2.7441 0.0720
5 13 15 -2.4440 -0.0547
5 13 16 -3.7506 0.1104
5 13 17 -0.2883 0.0366
5 13 18 -3.1043 -0.0359
5 15 0 -3.8487 -0.0078
5 15 1 38.1145 0.0435
5 15 2 -0.2409 -0.0211
5 15 3 -9.1230 -0.0258
5 15 4 9.2388 -0.0416
5 15 5 -20.2684 0.0018
5 15 6 -5.1909 0.0426
5 15 7 -7.0480 0.0235
5 15 8 6.0090 0.0236
5 15 9 1.5646 0.0047
5 15 10 -7.7290 -0.0170
5 15 11 6.0379 0.0133
5 15 12 -5.5712 0.0153
5 15 13 -1.0995 -0.0126
5 15 14 1.9338 -0.0027
5 15 15 -8.1789 0.0482
5 15 16 1.1139 -0.0471
5 15 17 -3.1692 0.2005
5 17 0 2.4888 0.0110
5 17 1 6.4772 -0.0666
5 17 2 19.3899 -0.0125
5 17 3 7.3102 0.0309
5 17 4 -2.7403 0.0152
5 17 5 -14.4047 0.0058
5 17 6 -6.4020 0.0216
5 17 7 -3.9843 0.0007
5 17 8 6.5895 0.0477
5 17 9 3.4935 0.0526
5 17 10 4.9682 -0.0535
5 17 11 -2.7258 -0.0187
5 17 12 0.8683 -0.0364
5 17 13 4.9973 -0.0122
5 17 14 -1.8369 0.0772
5 17 15 5.8638 -0.0215
5 17 16 3.3148 0.2792
5 19 0 -17.3237 0.0131
5 19 1 1.5336 0.0136
5 19 2 -0.1690 0.0101
5 19 3 -9.9293 0.0064
5 19 4 13.8917 -0.0570
5 19 5 3.4863 -0.0073
5 19 6 -4.0851 0.0032
5 19 7 15.5376 0.0077
5 19 8 8.2550 0.0161
5 19 9 -2.8649 0.0020
5 19 10 2.2754 -0.0291
5 19 11 -8.3849 0.0188
5 19 12 -2.5206 0.0196
5 19 13 1.7341 -0.0088
5 19 14 5.4828 0.0013
5 21 0 -21.3339 -0.0273
5 21 1 -8.0619 -0.0241
5 21 2 3.0503 -0.0481
5 21 3 -4.8265 -0.0275
5 21 4 5.0669 -0.0395
5 21 5 -1.1214 0.0867
5 21 6 -0.5092 0.0583
5 21 7 2.2753 -0.0354
5 21 8 3.1200 0.0322
5 21 9 3.7234 -0.0595
5 21 10 -6.5480 -0.0322
5 21 11 -8.6330 0.0392
5 21 12 2.6840 0.0137
5 21 13 -3.0396 0.0686
5 23 0 -18.9203 -0.0015
5 23 1 2.6073 -0.0369
5 23 2 7.4506 0.0369
5 23 3 5.8657 0.0273
5 23 4 5.9172 0.0582
5 23 5 -5.0598 0.0613
5 23 6 -3.6421 0.0047
5 23 7 -5.3178 0.0206
5 23 8 -1.0843 -0.0526
5 23 9 1.4736 -0.0845
5 23 10 1.2776 -0.0338
5 23 11 -0.8136 0.1144
5 25 0 -3.5934 0.0108
5 25 1 -6.8607 0.0237
5 25 2 0.7795 0.0388
5 25 3 3.3590 0.0167
5 25 4 -1.2298 -0.0218
5 25 5 -2.1894 0.1324
5 25 6 -8.9572 -0.0979
5 25 7 -4.9707 -0.1088
5 25 8 4.7212 -0.0661
5 27 0 1.1099 -0.0616
5 27 1 -1.8082 -0.0114
5 27 2 5.2599 -0.0165
5 27 3 2.6233 -0.1422
6 0 0 49.2441 -2.3915
6 0 2 59.2970 0.1339
6 0 4 -19.2751 0.2283
6 0 6 -57.2548 -0.5136
6 0 8 27.8454 0.1971
6 0 10 15.1508 0.4254
6 0 12 -32.6736 -0.6780
6 0 14 -3.0675 -0.0899
6 0 16 -5.0991 0.3665
6 0 18 1.7314 -0.2689
6 0 20 2.6419 -0.0426
6 2 0 -0.0509 0.3533
6 2 1 -62.1702 0.6250
6 2 2 58.8658 0.3526
6 2 3 -0.4781 -0.4349
6 2 4 -14.0489 0.0053
6 2 5 58.2026 -0.4213
6 2 6 -15.8739 -0.0775
6 2 8 8.1662 -0.0043
6 2 9 -17.3900 -0.0160
6 2 10 -0.8176 -0.0145
6 2 11 -10.3028 -0.1319
6 2 12 5.7960 0.0603
6 2 13 -40.6023 0.1119
6 2 14 13.0310 -0.0156
6 2 15 -10.0126 0.1355
6 2 16 1.2999 0.0503
6 2 17 -0.0369 -0.1916
6 2 18 -7.0895 -0.0025
6 2 19 -7.9029 0.0841
6 2 20 -0.9337 -0.0013
6 4 2 14.5779 0.1082
6 4 3 -43.3598 0.0778
6 4 4 28.2592 0.1853
6 4 5 -15.8082 0.0801
6 4 6 12.7208 -0.1780
6 4 7 -8.1343 -0.0121
6 4 8 16.7019 -0.1325
6 4 9 -11.3243 -0.0288
6 4 10 0.0270 0.2282
6 4 11 -10.9661 0.0209
6 4 12 15.8365 -0.1020
6 4 13 1.5811 0.0088
6 4 14 18.5223 -0.1352
6 4 15 4.2842 -0.0296
6 4 16 0.4829 0.0694
6 4 17 -0.0124 0.0413
6 4 18 -6.2630 -0.0044
6 4 19 -0.8389 0.0079
6 4 20 9.4260 -0.0232
6 6 1 109.7358 -0.0782
6 6 2 41.9246 0.0308
6 6 3 8.3932 -0.0242
6 6 4 -62.2519 -0.0301
6 6 5 -21.2349 0.0997
6 6 6 -9.3721 0.0015
6 6 7 -19.5306 0.0311
6 6 8 12.8248 0.0645
6 6 9 5.3106 -0.0056
6 6 10 -11.5908 0.0254
6 6 11 16.9175 -0.1194
6 6 12 -8.5797 -0.0537
6 6 13 20.0965 0.0688
6 6 14 0.3742 -0.0142
6 6 15 7.2572 0.0375
6 6 16 -0.9200 0.0587
6 6 17 -0.3276 -0.0589
6 6 18 -3.9169 -0.0184
6 6 19 2.1354 0.1236
6 6 20 2.8984 0.0306
6 8 0 23.5038 -0.0767
6 8 1 -47.5094 -0.1186
6 8 2 31.4963 0.0575
6 8 3 29.9705 -0.0211
6 8 4 -49.2227 0.0326
6 8 5 -44.6389 0.0632
6 8 6 -9.1199 -0.0426
6 8 7 -19.4605 0.0037
6 8 8 13.9606 -0.0904
6 8 9 1.2056 -0.0432
6 8 10 -5.3738 0.1251
6 8 11 3.5111 0.0524
6 8 12 -11.0821 -0.0452
6 8 14 -9.5599 -0.0161
6 8 15 3.9710 -0.0219
6 8 16 5.4646 0.0488
6 8 17 -0.9956 0.0242
6 8 18 5.7309 0.0117
6 8 19 -1.6430 0.0530
6 10 0 57.5242 0.0246
6 10 1 -37.3798 -0.0227
6 10 2 36.7112 -0.0391
6 10 3 -5.2066 0.0094
6 10 4 3.2473 -0.0342
6 10 5 -2.2233 0.0583
6 10 6 -2.2855 0.0510
6 10 7 -10.3133 -0.0393
6 10 8 26.6901 0.0436
6 10 9 -3.2640 0.0031
6 10 10 -0.5697 -0.0210
6 10 11 -11.2117 -0.0012
6 10 12 -15.5756 -0.0650
6 10 13 -10.9110 0.0381
6 10 15 5.6129 -0.0726
6 10 16 -2.1868 0.0664
6 10 17 -1.4087 -0.0264
6 10 18 -3.2645 -0.0783
6 10 19 -4.5777 0.0642
6 12 0 -11.4220 -0.0303
6 12 1 -22.1270 0.0192
6 12 2 -3.6020 0.0485
6 12 3 12.6441 0.0743
6 12 4 -10.2977 -0.0363
6 12 5 16.3291 -0.0237
6 12 6 1.6952 0.0116
6 12 7 3.8104 0.0050
6 12 8 2.8855 0.0471
6 12 9 25.7334 -0.0634
6 12 10 -0.1712 0.0112
6 12 11 -11.8017 0.0721
6 12 12 5.9051 -0.0969
6 12 13 -10.1977 0.0066
6 12 14 5.7225 -0.0151
6 12 15 8.3140 0.0021
6 12 16 -0.8000 0.0387
6 12 17 4.5774 -0.0193
6 12 18 -6.1254 -0.0896
6 14 0 -27.2084 0.0468
6 14 1 8.5312 0.0018
6 14 2 -7.9568 -0.0258
6 14 3 21.4862 0.0101
6 14 4 5.0918 0.0388
6 14 5 -17.4650 0.0187
6 14 6 -5.6508 -0.0224
6 14 7 -7.7666 -0.0475
6 14 8 -7.2362 -0.0915
6 14 9 16.6940 -0.0295
6 14 10 4.7854 0.0001
6 14 11 6.1238 0.0065
6 14 12 -9.1620 0.0491
6 14 13 -8.1386 0.0125
6 14 14 -4.2117 0.0925
6 14 15 -1.2945 -0.0514
6 14 16 3.5690 -0.0619
6 14 17 -3.4077 -0.0491
6 16 0 9.0096 -0.0390
6 16 1 -12.4619 0.0473
6 16 2 13.0517 0.0600
6 16 3 19.5348 0.0301
6 16 4 0.6941 -0.0188
6 16 5 -13.3485 -0.0643
6 16 6 2.7940 -0.0510
6 16 7 -27.3055 -0.0077
6 16 8 8.3632 0.0494
6 16 9 6.8017 0.0062
6 16 10 1.9225 0.0215
6 16 11 6.8938 0.0297
6 16 12 -3.3200 -0.0740
6 16 13 3.1448 -0.0624
6 16 14 -4.9339 -0.0786
6 16 15 2.6052 -0.0196
6 16 16 1.1098 0.0574
6 18 0 22.6979 0.0061
6 18 1 -17.2671 0.0423
6 18 2 -9.7371 -0.0208
6 18 3 5.0047 -0.0118
6 18 4 11.9267 0.0094
6 18 5 1.2174 -0.0200
6 18 6 -12.5517 0.0571
6 18 7 1.7379 -0.0012
6 18 8 -8.2456 -0.0867
6 18 9 7.8329 -0.0087
6 18 10 11.0804 0.0559
6 18 11 2.2780 -0.0091
6 18 12 5.5820 0.0141
6 18 13 1.3815 0.0055
6 18 14 8.1850 -0.0102
6 18 15 4.2732 0.0218
6 20 0 -1.5733 -0.0380
6 20 1 -11.0847 -0.0654
6 20 2 -9.1645 0.0653
6 20 3 -7.8429 0.0969
6 20 4 1.6240 0.0400
6 20 5 12.7455 -0.0349
6 20 6 -1.1390 -0.0822
6 20 7 10.7391 0.0175
6 20 8 0.5322 -0.0322
6 20 9 8.9734 -0.0095
6 20 10 6.9903 0.0517
6 20 11 -3.2465 -0.0105
6 20 12 -0.1855 0.0926
6 20 13 -13.1836 -0.0497
6 22 0 -11.4635 0.0605
6 22 1 -7.8713 0.0940
6 22 2 -12.2411 0.0238
6 22 3 5.8300 -0.0256
6 22 4 15.2043 -0.0448
6 22 5 1.5311 -0.1314
6 22 6 6.9389 0.0636
6 22 7 -8.2986 0.0620
6 22 8 -4.1377 -0.0075
6 22 9 3.4377 0.0698
6 22 10 1.2765 0.0556
6 22 11 5.5745 0.0171
6 22 12 2.8953 -0.2475
6 24 0 1.4713 -0.0275
6 24 1 0.8092 -0.1099
6 24 2 -12.9718 0.0104
6 24 3 3.4642 -0.0298
6 24 4 4.8915 -0.0542
6 24 5 -3.3214 -0.0561
6 24 6 0.3784 -0.1050
6 24 7 -9.1247 0.0984
6 24 8 -4.0436 0.1015
6 24 9 -1.8352 0.1450
6 26 0 19.8397 -0.0628
6 26 1 10.7351 -0.0137
6 26 2 -1.1474 -0.0074
6 26 3 -4.4745 0.1053
6 26 4 -6.0378 -0.0841
6 26 5 -4.6461 -0.0401
6 26 6 1.6775 0.0745
7 1 0 11.5241 -1.6056
7 1 1 -25.0912 1.0771
7 1 2 -124.2266 0.4342
7 1 3 -81.5544 -0.2161
7 1 4 32.0044 0.4436
7 1 5 30.9500 -0.5570
7 1 6 4.2013 -0.5116
7 1 7 39.8251 0.4357
7 1 8 -15.4598 0.2130
7 1 9 -11.7059 0.0535
7 1 10 14.9877 0.1633
7 1 11 -10.2362 -0.2067
7 1 12 -15.4519 -0.3117
7 1 14 -9.4196 0.1215
7 1 15 -7.0082 0.0141
7 1 16 9.2319 0.1919
7 1 17 4.2938 -0.1644
7 1 18 5.5774 -0.0969
7 1 19 -1.5884 0.0854
7 1 20 -2.8300 -0.1289
7 3 0 3.0260 -0.1917
7 3 1 25.8673 -0.1486
7 3 3 -58.9535 -0.2087
7 3 4 31.5272 0.0592
7 3 5 10.4569 0.1225
7 3 6 19.8779 -0.0735
7 3 7 22.8796 0.1390
7 3 8 7.5712 -0.0342
7 3 9 -3.9199 -0.0427
7 3 10 1.4484 0.0236
7 3 11 -12.3338 -0.0865
7 3 12 8.9005 0.0828
7 3 13 -16.3733 0.0683
7 3 14 4.7156 -0.0324
7 3 15 -7.7885 -0.1113
7 3 16 6.9369 0.0150
7 3 17 -0.1963 0.0117
7 3 18 2.4908 -0.0109
7 3 19 -2.3761 0.1156
7 3 20 -5.6242 -0.0137
7 5 0 -49.0735 -0.1745
7 5 1 65.1785 0.0417
7 5 2 -5.4055 0.2191
7 5 3 6.1438 0.0228
7 5 4 25.0328 0.1086
7 5 5 -28.3945 -0.1282
7 5 6 -40.1601 -0.3356
7 5 7 -34.7191 0.0510
7 5 8 -18.5354 0.0954
7 5 9 -7.3041 -0.0357
7 5 10 9.2137 0.1533
7 5 11 11.9010 -0.0598
7 5 12 7.1772 -0.1042
7 5 13 9.4781 0.1015
7 5 14 8.6011 0.0297
7 5 15 1.2755 0.0877
7 5 16 2.1597 0.0835
7 5 17 1.3757 -0.1024
7 5 18 -8.2345 -0.0683
7 5 19 3.2713 -0.0538
7 7 1 4.6420 -0.0250
7 7 2 -25.4335 -0.0064
7 7 3 2.4598 -0.0700
7 7 4 13.8530 0.0645
7 7 5 -23.6318 0.1010
7 7 6 -15.6341 0.0257
7 7 7 -37.9008 0.0453
7 7 8 -20.1741 -0.0510
7 7 9 -0.6474 -0.1133
7 7 10 16.8270 -0.0429
7 7 11 9.7588 -0.0117
7 7 12 11.6588 -0.0265
7 7 14 -11.9711 0.0012
7 7 15 -18.0936 -0.1024
7 7 16 -3.7167 0.0404
7 7 17 5.2468 -0.0374
7 7 18 6.8859 -0.0003
7 7 19 8.2056 0.0179
7 9 0 3.1093 -0.0164
7 9 1 2.5416 -0.0003
7 9 2 -12.9712 0.0721
7 9 3 -48.9030 -0.0356
7 9 4 21.0234 -0.1166
7 9 5 1.4037 0.0107
7 9 6 -8.4728 -0.0874
7 9 7 -3.8319 0.0571
7 9 8 -15.9872 0.1853
7 9 9 0.1761 -0.0478
7 9 10 16.5859 0.0339
7 9 11 -1.2027 0.0104
7 9 12 -11.0280 -0.0582
7 9 13 3.8082 0.0426
7 9 14 -0.3951 -0.0258
7 9 15 0.4422 0.0101
7 9 16 11.6886 0.0156
7 9 17 -3.5033 -0.0198
7 9 18 3.9712 -0.0545
7 9 19 -0.2571 -0.0299
7 11 0 -1.5755 -0.0093
7 11 1 -17.6838 -0.0185
7 11 2 -0.0555 0.0201
7 11 3 -48.6488 0.0081
7 11 4 5.2337 -0.0265
7 11 5 31.5307 0.0207
7 11 6 14.6541 0.0114
7 11 7 14.0561 -0.0103
7 11 8 -4.3596 -0.0603
7 11 9 -19.2365 -0.0750
7 11 10 -1.9411 -0.0216
7 11 11 7.5767 0.0897
7 11 12 -10.4423 0.0388
7 11 13 0.8802 0.0454
7 11 14 -8.2579 -0.0052
7 11 15 0.5627 -0.1192
7 11 16 1.0154 -0.0533
7 11 17 7.1959 -0.0177
7 11 18 4.2776 0.0654
7 13 0 -32.2831 0.0107
7 13 1 -0.0098 0.0100
7 13 2 -4.3281 -0.0209
7 13 3 -15.6929 -0.0562
7 13 4 9.2049 -0.0060
7 13 5 11.1243 -0.0159
7 13 6 15.4978 0.0096
7 13 7 3.4475 -0.0004
7 13 8 -11.9399 0.0898
7 13 9 -9.4592 0.0114
7 13 10 -5.2468 -0.0674
7 13 11 2.2341 0.0471
7 13 12 3.5519 -0.0221
7 13 13 5.8536 -0.0077
7 13 14 6.0038 0.0115
7 13 15 -4.1318 -0.0770
7 13 16 -1.8595 0.0374
7 13 17 -2.2435 0.0446
7 15 0 -6.5419 -0.0123
7 15 1 3.3937 0.0241
7 15 2 -3.9859 -0.0423
7 15 3 -4.5541 -0.0550
7 15 4 2.8797 -0.0145
7 15 5 5.9649 0.0661
7 15 6 7.1247 0.0663
7 15 7 -5.0272 0.0280
7 15 8 -5.4020 -0.0218
7 15 9 -18.6264 -0.0135
7 15 10 -4.1645 0.0284
7 15 11 5.5856 0.0194
7 15 12 1.7784 0.0466
7 15 13 3.8995 -0.0348
7 15 14 1.2641 -0.0447
7 15 15 -3.3992 -0.0490
7 15 16 -3.5367 -0.0557
7 17 0 11.7976 -0.0443
7 17 1 2.2916 -0.0580
7 17 2 -1.7176 0.0692
7 17 3 -18.6730 -0.0243
7 17 4 -16.4711 -0.0031
7 17 5 14.9841 0.0675
7 17 6 16.9670 -0.0425
7 17 7 11.5993 -0.0211
7 17 8 13.1957 0.0350
7 17 9 -1.3977 0.0273
7 17 10 -2.5820 -0.0354
7 17 11 8.0377 0.0445
7 17 12 0.6638 -0.0405
7 17 13 2.5185 -0.0197
7 17 14 3.3399 0.0479
7 17 15 -2.6910 -0.1009
7 19 0 23.4955 0.0192
7 19 1 -2.2162 0.0217
7 19 2 12.4492 -0.0641
7 19 3 -17.3523 -0.0600
7 19 4 -16.9527 0.0158
7 19 5 3.8438 -0.0368
7 19 6 4.8243 0.0056
7 19 7 7.4810 0.0111
7 19 8 5.5328 -0.0102
7 19 9 -3.2385 -0.0181
7 19 10 5.5637 0.0125
7 19 11 -2.3616 0.0495
7 19 12 8.2153 -0.0122
7 19 13 0.6372 0.0067
7 19 14 -0.1799 -0.1670
7 21 0 -12.8820 -0.0028
7 21 1 2.5427 -0.0148
7 21 2 3.6576 -0.0677
7 21 3 -8.5925 -0.0033
7 21 4 -0.7959 0.0224
7 21 5 0.7356 0.1187
7 21 6 12.9890 -0.0329
7 21 7 11.6673 -0.0275
7 21 8 4.1525 0.0414
7 21 9 -5.9641 -0.0663
7 21 10 -6.2274 0.0365
7 21 11 -4.8771 -0.1287
7 21 12 -8.6309 0.0665
7 23 0 -8.7545 -0.0331
7 23 1 3.3546 0.0321
7 23 2 5.3805 0.0790
7 23 3 -1.1959 -0.0476
7 23 4 -3.2602 0.0603
7 23 5 0.8423 -0.0371
7 23 6 2.1980 -0.0231
7 23 7 1.8561 0.0503
7 23 8 -0.6268 -0.0585
7 23 9 -6.8175 -0.0167
7 23 10 -7.8813 -0.1625
7 25 0 -0.3422 -0.0095
7 25 1 0.7097 -0.0423
7 25 2 1.7702 -0.0372
7 25 3 -3.7849 -0.0033
7 25 4 -6.4645 0.0547
7 25 5 -4.8718 0.1372
7 25 6 -2.3436 0.0023
7 25 7 5.1738 -0.0673
7 27 0 3.7920 0.0705
7 27 1 2.2432 -0.1240
8 0 0 36.0978 -2.6864
8 0 2 40.8372 0.1895
8 0 4 -61.7583 0.3400
8 0 6 35.3747 -0.5757
8 0 8 17.7873 0.0679
8 0 10 -6.9859 0.4227
8 0 12 2.9094 -0.5521
8 0 14 -0.8676 -0.1340
8 0 16 -1.0657 0.5246
8 0 18 -1.0879 -0.2161
8 2 0 -18.1571 0.3019
8 2 1 17.7868 0.5639
8 2 2 34.2736 0.3027
8 2 3 0.4220 -0.2942
8 2 4 -39.4484 0.0721
8 2 5 -25.3482 -0.4394
8 2 6 8.7891 -0.1079
8 2 8 10.1889 -0.0216
8 2 9 -1.5629 0.0970
8 2 10 -30.8632 0.0196
8 2 11 -23.7041 -0.1993
8 2 12 9.8185 0.0248
8 2 13 5.4435 0.0742
8 2 14 5.9823 -0.0002
8 2 15 11.3468 0.1801
8 2 16 -1.6247 0.0079
8 2 17 1.1993 -0.2169
8 2 18 0.0345 -0.0279
8 2 19 0.6014 -0.0025
8 4 0 -36.7721 -0.2489
8 4 2 50.4312 0.1297
8 4 3 39.2983 0.0275
8 4 4 -14.5678 0.2396
8 4 5 -22.4309 0.0945
8 4 6 4.0083 -0.1596
8 4 7 -14.5186 0.0237
8 4 8 -9.2576 -0.1207
8 4 9 2.1416 -0.0058
8 4 10 -5.6807 0.1937
8 4 11 -8.1468 0.0087
8 4 12 3.1346 -0.0502
8 4 13 3.1425 -0.0417
8 4 14 10.2618 -0.0786
8 4 15 7.7870 -0.0566
8 4 16 -4.7526 0.0742
8 4 17 -5.3584 0.0337
8 4 18 0.2314 -0.0526
8 4 19 -3.9225 0.0297
8 6 0 13.4542 0.0421
8 6 1 6.0296 0.0711
8 6 2 -7.2077 -0.0197
8 6 3 49.9643 -0.1209
8 6 4 5.0096 -0.0319
8 6 5 -30.7145 0.0446
8 6 6 1.4762 0.0014
8 6 7 -15.4148 0.0905
8 6 8 -10.2492 0.0476
8 6 9 -1.2496 -0.0786
8 6 10 -4.3875 0.0250
8 6 11 3.6222 -0.0667
8 6 12 19.3719 -0.0656
8 6 13 11.0444 0.0697
8 6 14 5.7053 -0.0200
8 6 15 -1.6490 0.0141
8 6 16 -7.7381 0.0399
8 6 17 -3.9605 -0.0851
8 6 18 0.8453 0.0335
8 6 19 2.3479 0.1566
8 8 0 31.2891 -0.0575
8 8 1 26.9543 -0.1072
8 8 2 -3.0893 0.0852
8 8 3 -2.5203 0.0137
8 8 4 -14.0963 -0.0203
8 8 5 -16.2364 0.0309
8 8 6 8.0866 -0.0522
8 8 7 20.8205 -0.0188
8 8 8 8.3018 -0.0423
8 8 9 21.9653 -0.0143
8 8 10 -8.5540 0.0957
8 8 11 -14.8724 0.0754
8 8 12 -2.2027 -0.0228
8 8 13 -26.0126 -0.0416
8 8 14 -9.0744 -0.0485
8 8 15 0.6943 -0.0126
8 8 16 -5.4468 0.0315
8 8 17 -5.7111 0.0552
8 8 18 3.8121 0.0734
8 8 19 -3.4391 0.0318
8 10 0 20.1289 0.0466
8 10 1 -0.1469 0.0344
8 10 2 11.3571 -0.0146
8 10 3 -4.5271 -0.0122
8 10 4 -12.5847 -0.0333
8 10 5 -25.3212 0.0039
8 10 6 8.1256 0.0206
8 10 7 9.1934 -0.0211
8 10 8 -0.2656 0.1028
8 10 9 8.1071 -0.0858
8 10 10 -5.9502 -0.0270
8 10 11 -14.5704 -0.0036
8 10 12 0.9997 -0.0615
8 10 13 9.9844 0.0180
8 10 14 -6.7123 0.0481
8 10 15 7.3197 -0.0407
8 10 16 2.5738 0.0162
8 10 17 -6.2384 0.0231
8 10 18 2.3814 -0.0342
8 12 0 -11.3348 0.0257
8 12 1 -0.1266 0.0003
8 12 2 -3.2843 -0.0386
8 12 3 6.5547 0.0621
8 12 4 19.3941 0.0123
8 12 5 -6.5217 0.0094
8 12 6 -8.3623 -0.0190
8 12 7 12.5015 -0.0260
8 12 8 -1.0331 -0.0002
8 12 9 -1.0232 -0.0020
8 12 10 -4.6666 0.0568
8 12 11 -9.6991 0.0710
8 12 12 4.7093 -0.0888
8 12 13 -1.4984 -0.0133
8 12 14 9.1893 -0.0132
8 12 15 1.8177 -0.0058
8 12 16 -5.9141 0.1121
8 12 17 -2.7727 0.0448
8 14 0 -20.4684 0.0137
8 14 1 -2.3599 -0.0311
8 14 2 -5.7085 0.0102
8 14 3 16.0547 0.0143
8 14 4 15.2866 0.0088
8 14 5 -10.8747 -0.0040
8 14 6 1.3529 0.0369
8 14 7 -11.0978 -0.0336
8 14 8 -4.6180 -0.0641
8 14 9 10.6686 0.0256
8 14 10 -5.2831 -0.0334
8 14 11 -3.2721 -0.0275
8 14 12 -0.8966 0.0110
8 14 13 -8.1361 0.0158
8 14 14 7.5825 0.1134
8 14 15 1.9522 0.0507
8 14 16 3.7719 0.0288
8 16 0 6.6822 -0.0037
8 16 1 20.8195 0.0367
8 16 2 -10.2450 0.0059
8 16 3 10.8518 0.0685
8 16 4 8.9022 -0.0017
8 16 5 -11.4251 -0.0714
8 16 6 2.5324 0.0157
8 16 7 1.4875 0.0143
8 16 8 5.1689 -0.0158
8 16 9 3.2904 -0.0539
8 16 10 -1.0977 0.0319
8 16 11 -5.2175 -0.0138
8 16 12 -1.8481 -0.0314
8 16 13 -2.5457 -0.0241
8 16 14 3.1030 0.0240
8 16 15 3.7355 0.0293
8 18 0 3.3093 0.0293
8 18 1 3.4965 -0.0770
8 18 2 3.0801 -0.0559
8 18 3 1.2002 0.0785
8 18 4 -10.0656 0.0266
8 18 5 -9.4010 -0.0159
8 18 6 1.9715 0.0113
8 18 7 -5.4418 -0.0097
8 18 8 16.5510 -0.0781
8 18 9 6.8257 0.0156
8 18 10 0.2897 0.0257
8 18 11 -3.4203 0.0134
8 18 12 -4.3669 0.0414
8 18 13 1.8642 0.0854
8 18 14 0.4916 0.0038
8 20 0 -6.5009 -0.0203
8 20 1 -15.5807 0.0834
8 20 2 -3.7188 0.0881
8 20 3 0.3420 0.0207
8 20 4 6.4321 0.0512
8 20 5 -1.4477 -0.0353
8 20 6 1.0963 -0.0321
8 20 7 14.7814 0.0605
8 20 8 -0.4770 -0.0572
8 20 9 12.1149 0.0155
8 20 10 3.3611 -0.0041
8 20 11 -7.8287 -0.0087
8 20 12 -3.1992 0.1370
8 20 13 0.7653 0.0426
8 22 0 -17.7191 -0.0299
8 22 1 -8.2167 0.0402
8 22 2 -6.4863 -0.0190
8 22 3 1.2122 0.0244
8 22 4 4.0529 -0.0815
8 22 5 -3.7370 -0.0543
8 22 6 -5.3337 0.1306
8 22 7 -0.2052 -0.0827
8 22 8 0.2205 -0.0090
8 22 9 1.6311 0.0686
8 22 10 -2.0054 0.0416
8 22 11 -0.9615 0.0737
8 24 0 -10.3425 -0.0751
8 24 1 7.3494 -0.0288
8 24 2 -0.4486 0.0490
8 24 3 4.5989 0.0294
8 24 4 -6.7086 0.0121
8 24 5 -8.0411 -0.0754
8 24 6 -5.5795 -0.0899
8 24 7 -6.4351 0.1180
8 24 8 5.5891 -0.0647
8 26 0 -4.4301 0.1833
8 26 1 -5.2629 0.1980
8 26 2 -1.9602 0.0144
8 26 3 3.9615 -0.0481
8 26 4 2.8638 -0.1667
9 1 1 -41.8878 1.0102
9 1 3 26.1899 -0.1306
9 1 4 -45.5266 0.3783
9 1 5 -38.4993 -0.5887
9 1 6 -46.4681 -0.4056
9 1 8 15.8273 0.1665
9 1 9 7.9951 0.1501
9 1 10 8.7346 0.2064
9 1 11 -12.1105 -0.1529
9 1 12 -17.3933 -0.3430
9 1 13 -15.5676 0.1604
9 1 14 -1.2484 0.0477
9 1 15 2.7369 0.0075
9 1 16 -4.1546 0.2054
9 1 17 -2.5071 -0.1355
9 1 18 -3.4144 -0.0681
9 1 19 -0.3309 0.0082
9 3 1 -41.1808 -0.0141
9 3 2 32.2524 -0.0476
9 3 3 -5.9781 -0.2658
9 3 4 72.6690 0.0438
9 3 5 24.0252 0.0505
9 3 6 -13.9357 -0.0288
9 3 8 -3.4708 -0.0878
9 3 9 -15.1288 -0.0785
9 3 10 22.8648 0.0821
9 3 11 2.8805 0.0238
9 3 12 -2.1986 0.0576
9 3 13 12.2951 0.0739
9 3 14 1.1914 -0.1049
9 3 15 6.8032 -0.1008
9 3 16 0.1875 0.0189
9 3 17 -2.6119 -0.0093
9 3 18 -3.9499 0.0929
9 3 19 -3.3003 0.1310
9 5 0 -62.1543 -0.1187
9 5 1 17.6141 0.0281
9 5 2 -8.2839 0.2282
9 5 3 9.1202 0.0164
9 5 4 5.9591 0.0678
9 5 5 20.8633 -0.0770
9 5 6 -2.6941 -0.2942
9 5 7 5.5665 0.0115
9 5 8 -5.5111 0.0188
9 5 9 -13.2735 -0.0465
9 5 10 -1.6258 0.1970
9 5 11 23.8729 -0.0946
9 5 12 8.6655 -0.1271
9 5 13 25.0339 0.1005
9 5 14 -0.9980 0.0037
9 5 15 2.5209 0.0716
9 5 16 4.2083 0.0749
9 5 17 -2.2150 -0.0108
9 5 18 1.1629 -0.1063
9 5 19 -4.1553 -0.0566
9 7 0 20.3344 -0.0973
9 7 1 -36.7015 -0.0785
9 7 2 8.0928 0.0273
9 7 3 -5.4496 -0.0384
9 7 4 -8.9594 0.0735
9 7 5 -8.6480 0.1289
9 7 6 -28.0557 0.0486
9 7 7 -29.0325 0.0797
9 7 8 4.8849 -0.0520
9 7 9 -13.6875 -0.1338
9 7 10 16.0533 -0.0316
9 7 11 12.9165 -0.0326
9 7 12 -13.1984 -0.0034
9 7 13 21.2344 0.1125
9 7 14 7.6559 0.0193
9 7 15 1.6139 -0.0934
9 7 16 5.6182 0.0671
9 7 17 -1.1052 -0.0530
9 7 18 -1.1231 -0.0074
9 9 0 28.0793 0.0285
9 9 1 -36.9053 -0.0249
9 9 2 20.7492 0.0337
9 9 3 -1.4535 0.0007
9 9 4 -23.5568 -0.0437
9 9 5 8.0841 0.0613
9 9 6 -10.0245 -0.1287
9 9 8 16.0387 0.1313
9 9 9 -0.1281 0.0087
9 9 10 2.4157 0.0377
9 9 11 3.1015 -0.0205
9 9 12 -5.7454 -0.0945
9 9 13 -11.9260 0.0270
9 9 14 -6.5459 -0.0236
9 9 15 3.4954 0.0507
9 9 16 4.7630 0.0367
9 9 17 -0.8869 -0.0356
9 9 18 -2.7455 -0.0220
9 11 0 -9.7142 -0.0604
9 11 1 -25.1609 -0.0307
9 11 2 -7.9340 0.0360
9 11 3 5.8791 -0.0165
9 11 4 7.5810 -0.0148
9 11 5 5.8482 0.0788
9 11 6 -16.2270 -0.0080
9 11 7 2.7064 -0.0961
9 11 8 -9.8955 0.0213
9 11 9 -0.0947 -0.0240
9 11 10 -0.2483 -0.0355
9 11 11 -5.6351 0.0021
9 11 12 0.8385 0.0316
9 11 13 -2.0773 0.0983
9 11 14 -9.8117 0.0699
9 11 15 -0.2085 -0.0804
9 11 16 -1.7154 -0.0424
9 11 17 1.7707 -0.0338
9 13 0 -35.8535 -0.0106
9 13 1 -15.6434 0.0322
9 13 2 -9.7191 -0.0183
9 13 3 -7.4980 -0.0422
9 13 4 13.5107 -0.0138
9 13 5 10.4742 -0.0034
9 13 6 2.9259 -0.0227
9 13 7 -9.7756 -0.0055
9 13 8 7.1346 0.0750
9 13 9 1.9095 0.0494
9 13 10 -1.0749 -0.0448
9 13 11 7.6941 0.0148
9 13 12 -2.0703 -0.0420
9 13 13 -3.9544 0.0038
9 13 14 -2.3115 0.0266
9 13 15 1.2618 -0.0455
9 13 16 2.0613 0.0380
9 13 17 -2.8686 -0.2596
9 15 0 2.3053 0.0306
9 15 1 -0.7245 -0.0164
9 15 2 -4.7717 -0.0105
9 15 3 5.6998 -0.0329
9 15 4 -4.6178 0.0209
9 15 5 -10.6505 0.0688
9 15 6 11.0808 -0.0015
9 15 7 -12.7976 -0.0527
9 15 8 -2.4343 -0.0030
9 15 9 0.4903 0.0295
9 15 10 3.4456 -0.0116
9 15 11 4.0813 0.0257
9 15 12 11.4644 0.0091
9 15 13 -1.0243 -0.0074
9 15 14 -0.1597 -0.0329
9 15 15 -2.0011 -0.0849
9 15 16 4.6765 -0.2318
9 17 0 2.1194 -0.0384
9 17 1 7.2153 0.0130
9 17 2 -2.0811 0.0261
9 17 3 7.5849 -0.0684
9 17 4 -0.2564 0.0153
9 17 5 6.5772 0.0178
9 17 6 -4.3264 -0.0768
9 17 7 11.1753 0.0023
9 17 8 7.7094 0.0625
9 17 9 5.0658 0.0198
9 17 10 2.9928 0.0103
9 17 11 6.3230 -0.0272
9 17 12 4.3616 0.0375
9 17 13 -0.2761 -0.0311
9 17 14 13.0744 -0.0431
9 19 0 5.0033 0.0779
9 19 1 -13.1648 0.0362
9 19 2 -1.9910 -0.0437
9 19 3 -3.9363 -0.0723
9 19 4 -1.7950 0.0043
9 19 5 12.0977 -0.0408
9 19 7 -7.1809 0.0170
9 19 8 -1.9870 0.0056
9 19 9 -2.8537 0.0235
9 19 10 -2.0764 -0.0523
9 19 11 6.7996 0.0413
9 19 12 7.6673 -0.0762
9 19 13 -2.6422 -0.0512
9 21 0 -0.9584 0.0027
9 21 1 -16.5062 -0.0409
9 21 2 -8.2956 -0.0577
9 21 3 -5.5710 -0.0638
9 21 4 8.1469 0.0397
9 21 5 12.8653 0.1118
9 21 6 12.9001 -0.0686
9 21 7 4.9812 0.0287
9 21 8 -1.0936 0.0538
9 21 9 -4.4286 -0.0701
9 21 10 2.3307 -0.0227
9 21 11 -5.6681 -0.2490
9 23 0 6.7601 -0.0048
9 23 1 5.2814 0.0982
9 23 2 -6.4410 -0.0084
9 23 3 -1.1169 -0.0053
9 23 4 1.0096 0.0058
9 23 5 5.2563 -0.0643
9 23 6 4.6552 0.1068
9 23 7 -1.7125 -0.0432
9 23 8 -0.2702 -0.0320
9 23 9 2.1726 -0.0351
9 25 0 14.7632 0.0030
9 25 1 3.1598 -0.1884
9 25 2 -0.0827 -0.0124
9 25 3 -0.2088 -0.1104
9 25 4 -6.2866 0.0186
9 25 5 0.9298 0.2460
9 25 6 7.8053 -0.0262
10 0 0 20.3975 -2.8914
10 0 2 -27.3320 0.1874
10 0 4 -22.2229 0.5395
10 0 6 -12.0634 -0.7759
10 0 8 -23.7657 0.0800
10 0 10 -14.2472 0.4915
10 0 12 0.2041 -0.2976
10 0 14 -10.7936 -0.0769
10 0 16 4.9034 0.5628
10 0 18 8.5468 -0.1831
10 2 0 24.0199 0.2506
10 2 1 -38.0271 0.7338
10 2 2 -91.5801 0.2564
10 2 3 -15.1437 -0.3181
10 2 4 29.2419 0.0823
10 2 5 19.0317 -0.3466
10 2 6 25.4153 -0.1133
10 2 7 9.9760 0.2149
10 2 8 -17.4171 -0.0318
10 2 9 -15.9904 0.1561
10 2 10 4.9839 0.0575
10 2 11 -9.8692 -0.2749
10 2 12 0.7894 0.0163
10 2 13 15.7539 0.1088
10 2 14 -9.7178 0.0745
10 2 15 2.5306 0.1163
10 2 16 -0.8276 -0.0389
10 2 17 1.0978 -0.1634
10 2 18 9.8027 -0.1219
10 2 19 0.8991 0.0615
10 4 0 3.8166 -0.4006
10 4 1 66.3298 -0.0509
10 4 2 -49.7279 0.1387
10 4 3 -46.0796 0.0321
10 4 4 14.3090 0.2972
10 4 5 32.1387 0.1134
10 4 6 45.1081 -0.1775
10 4 7 34.8879 0.0078
10 4 8 -8.5028 -0.1183
10 4 9 -11.4259 -0.0234
10 4 10 -10.4410 0.1101
10 4 11 2.2810 -0.0239
10 4 12 17.1269 -0.0236
10 4 13 8.1379 -0.0245
10 4 14 6.1230 -0.0619
10 4 15 -1.1003 -0.0650
10 4 16 -7.6338 0.1184
10 4 17 1.7034 -0.0483
10 4 18 5.9267 -0.0697
10 4 19 3.7647 0.0130
10 6 0 -2.1272 0.0089
10 6 1 33.1481 0.0809
10 6 2 9.1591 -0.0224
10 6 3 -7.2157 -0.0997
10 6 4 -2.2108 -0.0122
10 6 5 -31.5380 -0.0369
10 6 6 -5.8928 -0.0253
10 6 7 -2.5928 0.1316
10 6 8 -13.8189 0.0598
10 6 9 9.6985 -0.0787
10 6 10 -2.5428 0.0404
10 6 11 -0.2911 -0.0451
10 6 12 12.0641 -0.0370
10 6 13 6.2456 0.1452
10 6 14 5.4895 -0.0182
10 6 15 -2.6223 0.0195
10 6 16 -6.8892 -0.0117
10 6 17 -4.9093 -0.1053
10 6 18 -2.0755 -0.0875
10 8 0 39.7333 -0.0444
10 8 1 33.9487 -0.0892
10 8 2 -16.4601 0.0630
10 8 3 -11.9857 -0.0141
10 8 4 -23.6727 0.0199
10 8 5 -19.4155 0.0102
10 8 6 -19.3527 -0.1422
10 8 7 -26.2841 -0.0071
10 8 8 -9.2469 0.0698
10 8 9 -9.9760 -0.0187
10 8 10 10.2691 0.0852
10 8 11 8.4049 0.0519
10 8 12 -5.7498 -0.0163
10 8 14 9.5781 -0.0678
10 8 15 -2.4686 -0.1159
10 8 16 8.9122 0.0558
10 8 17 -4.3774 0.0481
10 8 18 -1.3716 0.0256
10 10 0 15.9970 0.0341
10 10 1 12.5003 0.0200
10 10 2 -4.4727 -0.0037
10 10 3 -24.1359 -0.0226
10 10 4 -5.5009 -0.0506
10 10 5 7.9764 -0.0513
10 10 6 16.7630 -0.0175
10 10 7 13.4926 0.0456
10 10 8 2.4893 0.0852
10 10 9 -3.2396 -0.0624
10 10 10 -3.1466 -0.0516
10 10 11 -4.3008 -0.0190
10 10 12 7.3109 -0.0282
10 10 13 0.1278 0.0264
10 10 14 -0.7016 -0.0595
10 10 15 -1.4949 -0.0131
10 10 16 -0.7725 0.0180
10 10 17 0.0901 -0.0443
10 12 0 -18.1271 0.0457
10 12 1 4.8403 -0.0058
10 12 2 -14.3026 -0.0386
10 12 3 -25.7469 0.0501
10 12 4 6.1375 0.0154
10 12 5 9.0501 -0.0183
10 12 6 26.5776 0.0155
10 12 7 9.7779 -0.0538
10 12 8 -7.5657 0.0146
10 12 9 -1.8637 0.0030
10 12 10 5.4688 0.0433
10 12 11 -7.8828 0.0796
10 12 12 2.3044 -0.0770
10 12 13 1.7414 -0.0609
10 12 14 -7.5278 -0.0057
10 12 15 3.8199 -0.0597
10 12 16 1.6515 0.1127
10 12 17 2.7011 0.2739
10 14 0 -30.3120 -0.0243
10 14 1 14.0931 0.0011
10 14 2 1.1339 0.0133
10 14 3 -13.3345 0.0160
10 14 4 -0.2472 0.0083
10 14 5 -2.1837 -0.0039
10 14 6 12.0241 0.0222
10 14 7 6.8505 0.0339
10 14 8 -2.4028 -0.0451
10 14 9 -13.7510 -0.0210
10 14 10 -2.0591 -0.0457
10 14 11 -0.0795 -0.0214
10 14 12 5.3732 0.0111
10 14 13 7.4970 0.0132
10 14 14 3.9205 0.0156
10 14 15 -6.8852 0.1052
10 14 16 -2.6684 0.2299
10 16 0 2.0529 -0.0057
10 16 1 12.4353 -0.0104
10 16 2 6.4928 -0.0270
10 16 3 7.9702 0.0139
10 16 4 -5.7860 -0.0183
10 16 5 -8.6537 -0.0625
10 16 6 8.8669 0.0785
10 16 7 -0.4497 0.0481
10 16 8 0.7555 -0.0335
10 16 9 1.3528 -0.0130
10 16 10 -3.8735 -0.0093
10 16 11 1.9524 0.0288
10 16 12 -1.1718 0.0077
10 16 13 5.4308 -0.0897
10 16 14 1.2492 0.1352
10 16 15 -2.9853 0.1601
10 18 0 2.8706 -0.0184
10 18 1 3.6725 -0.0207
10 18 2 -0.0940 -0.0267
10 18 3 -6.5968 0.0807
10 18 4 2.6315 0.0156
10 18 5 -0.7742 0.0307
10 18 6 7.8469 0.0176
10 18 7 12.3214 -0.0366
10 18 8 16.8815 -0.0055
10 18 9 -2.5610 -0.0074
10 18 10 -0.2061 -0.0071
10 18 11 -1.6458 0.0531
10 18 12 -5.0886 -0.0059
10 18 13 -5.1419 0.0793
10 20 0 -8.4300 0.0124
10 20 1 0.5633 0.0725
10 20 2 -0.7875 0.0012
10 20 3 0.0084 0.0470
10 20 4 -3.7338 0.0116
10 20 5 7.2263 -0.0419
10 20 6 -0.5931 0.0263
10 20 7 3.6032 0.0371
10 20 8 4.6911 -0.0287
10 20 9 -0.2295 -0.0143
10 20 10 2.5002 -0.0123
10 20 11 -8.2069 0.0654
10 20 12 5.6336 -0.0022
10 22 0 -18.6751 -0.0373
10 22 1 3.9928 -0.0543
10 22 2 4.3691 -0.0271
10 22 3 3.1152 0.0085
10 22 4 4.5749 -0.0389
10 22 5 0.5641 0.0757
10 22 6 3.5698 0.0214
10 22 7 10.5290 -0.0689
10 22 8 -0.5427 -0.1116
10 22 9 -3.8221 -0.0454
10 22 10 0.8008 0.2483
10 24 0 -6.1740 -0.0616
10 24 1 2.0247 -0.0450
10 24 2 0.6213 0.0105
10 24 3 0.7553 0.0850
10 24 4 1.8513 0.1672
10 24 5 -1.3374 -0.0729
10 24 6 -4.0965 -0.0565
10 24 7 -0.5985 0.0154
10 26 0 -0.9071 0.2237
10 26 1 2.4159 0.1995
11 1 0 -38.8625 -1.2690
11 1 1 -27.5156 0.7762
11 1 2 17.5534 0.1821
11 1 3 -7.8982 -0.0828
11 1 4 -30.9954 0.3491
11 1 5 30.6055 -0.5422
11 1 6 9.1265 -0.2639
11 1 7 6.9204 0.2351
11 1 8 32.7768 0.1156
11 1 9 4.9516 0.2591
11 1 10 -19.9632 0.2092
11 1 11 -0.9326 -0.1505
11 1 12 -14.3154 -0.3012
11 1 13 23.7210 0.0610
11 1 14 -2.6973 -0.1297
11 1 15 1.6223 0.1260
11 1 16 -0.0333 0.2931
11 1 17 -2.3187 -0.2724
11 1 18 -2.2254 -0.0468
11 3 0 31.5594 -0.0208
11 3 1 -10.4319 -0.0083
11 3 3 12.2282 -0.2346
11 3 4 -28.7250 0.0703
11 3 5 1.1765 0.0397
11 3 6 21.6395 0.0008
11 3 7 11.0587 0.1655
11 3 8 16.0219 -0.1478
11 3 9 -5.6316 -0.1164
11 3 10 -15.1147 0.0564
11 3 11 -4.3447 0.0451
11 3 12 6.1654 0.0225
11 3 13 5.6363 0.0035
11 3 14 20.3190 -0.1204
11 3 15 2.2812 -0.0200
11 3 16 2.1681 -0.0110
11 3 17 -2.1862 0.0181
11 3 18 -4.1219 0.0963
11 5 0 -40.1887 -0.0477
11 5 1 4.0308 0.0889
11 5 2 21.8313 0.2204
11 5 4 -7.8109 0.0224
11 5 5 -32.9069 -0.0548
11 5 6 -15.0593 -0.2347
11 5 7 -8.8204 -0.0085
11 5 9 13.8572 0.0045
11 5 10 -17.9254 0.2258
11 5 11 -7.7315 -0.0900
11 5 12 -1.4046 -0.0303
11 5 13 -8.8493 0.0633
11 5 14 -1.1381 -0.0306
11 5 15 4.1352 0.0536
11 5 16 -10.3121 0.1270
11 5 17 2.3369 -0.0622
11 5 18 -7.2521 -0.0381
11 7 0 -12.9910 -0.0986
11 7 1 10.3847 -0.1191
11 7 2 4.7290 0.0382
11 7 3 37.8626 -0.0162
11 7 4 -6.3941 0.0912
11 7 5 -26.8245 0.1161
11 7 6 -16.7383 0.0576
11 7 7 -26.4321 0.0984
11 7 8 10.0454 -0.0347
11 7 9 7.5436 -0.1100
11 7 10 0.3293 -0.0653
11 7 11 6.0509 -0.0307
11 7 12 -5.4976 -0.0065
11 7 14 -11.5762 0.0030
11 7 15 3.0372 0.0309
11 7 16 2.7541 0.0137
11 7 17 2.9381 -0.0369
11 7 18 -0.6930 0.1178
11 9 0 -5.2534 -0.0018
11 9 1 -12.3516 -0.0212
11 9 2 5.5146 0.0208
11 9 3 5.2232 0.0378
11 9 4 4.7814 -0.0663
11 9 5 5.3685 0.0448
11 9 6 -0.7581 -0.0250
11 9 7 -1.7060 -0.0194
11 9 8 10.0850 0.0078
11 9 9 -1.3649 -0.0055
11 9 10 -0.2894 0.0887
11 9 11 -1.9200 -0.0020
11 9 12 -12.3070 -0.1213
11 9 13 11.0362 0.0231
11 9 14 -4.8883 0.0508
11 9 15 -4.6161 -0.0084
11 9 16 0.4936 0.0355
11 9 17 -1.4966 0.0165
11 11 0 3.0906 -0.0364
11 11 1 -35.9182 -0.0421
11 11 2 2.5540 0.0082
11 11 3 9.9016 0.0382
11 11 4 3.5892 0.0207
11 11 5 28.5227 0.0732
11 11 6 -2.3770 -0.0459
11 11 7 1.7068 -0.0558
11 11 8 6.0028 0.0072
11 11 9 10.9586 -0.0703
11 11 10 4.1820 0.0518
11 11 11 -4.2445 0.0493
11 11 12 0.2965 -0.0052
11 11 13 -12.2766 0.1435
11 11 14 2.8194 -0.0052
11 11 15 3.3538 -0.0260
11 11 16 -0.0937 -0.0048
11 13 0 -12.9782 -0.0163
11 13 1 -8.2214 0.0173
11 13 2 -11.2543 0.0081
11 13 3 13.6427 0.0036
11 13 4 11.5895 -0.0260
11 13 5 -0.3486 -0.0391
11 13 6 13.8684 0.0738
11 13 7 -0.3196 0.0238
11 13 8 -9.8000 -0.0052
11 13 9 1.3404 0.0266
11 13 10 -0.1445 0.0307
11 13 11 -2.3048 0.0335
11 13 12 3.7698 -0.0655
11 13 13 -3.9312 -0.0909
11 13 14 0.7596 0.1210
11 13 15 -2.9806 -0.1157
11 13 16 0.1177 -0.0380
11 15 0 -19.3409 0.0354
11 15 1 -8.0699 -0.0202
11 15 2 4.1758 -0.0015
11 15 3 17.7770 0.0376
11 15 4 7.1702 -0.0029
11 15 5 -1.1157 -0.0027
11 15 6 -12.3180 -0.0456
11 15 7 -21.7609 -0.0842
11 15 8 7.8373 -0.0112
11 15 9 1.6599 0.0428
11 15 10 2.2264 0.0286
11 15 11 4.7107 0.0405
11 15 12 -2.0082 -0.1039
11 15 13 0.7564 0.0863
11 15 14 6.2051 -0.1376
11 15 15 6.3828 -0.0769
11 17 0 19.8403 -0.0200
11 17 1 5.4124 0.0443
11 17 2 -0.4441 0.0482
11 17 3 17.7985 -0.0108
11 17 4 2.5269 0.0015
11 17 5 4.8222 -0.0435
11 17 6 18.5435 -0.0542
11 17 7 -7.1088 0.0256
11 17 8 1.0372 0.0232
11 17 9 12.3442 -0.0290
11 17 10 0.1490 0.0587
11 17 11 2.7392 -0.1289
11 17 12 -5.3944 0.0543
11 17 13 -5.5680 -0.1180
11 19 0 12.6154 0.0258
11 19 1 -11.8978 -0.0303
11 19 2 -8.2196 0.0382
11 19 3 1.3878 -0.0490
11 19 4 -11.2694 -0.0414
11 19 5 1.1198 -0.0104
11 19 7 10.3221 -0.0074
11 19 8 -0.7081 -0.0732
11 19 9 4.7986 0.0820
11 19 10 6.7568 -0.0076
11 19 11 -3.3054 -0.0406
11 19 12 -1.5328 -0.0789
11 21 0 -10.4796 -0.0711
11 21 1 -1.6511 -0.0208
11 21 2 -11.9877 0.0877
11 21 3 3.2787 0.0135
11 21 4 2.7949 -0.0345
11 21 5 3.0588 -0.0483
11 21 6 1.4714 -0.0479
11 21 7 4.1296 0.0133
11 21 8 -7.5275 0.0391
11 21 9 9.3128 0.0762
11 21 10 0.6671 -0.0762
11 23 0 -10.2939 0.1448
11 23 1 2.8324 -0.0680
11 23 2 -4.0746 -0.0591
11 23 3 4.4243 0.0863
11 23 4 4.3562 -0.0819
11 23 5 -3.8989 -0.0148
11 23 6 6.6555 0.1903
11 23 7 -5.7889 -0.0853
11 25 0 0.6418 -0.0301
11 25 1 2.5373 -0.0314
11 25 2 -0.4087 -0.1015
11 25 3 1.6538 -0.2360
12 0 0 -18.1118 -2.9116
12 0 2 -2.6300 0.1392
12 0 4 33.5579 0.5580
12 0 6 -14.3591 -0.8073
12 0 8 -3.8839 0.1380
12 0 10 5.2493 0.6169
12 0 12 -13.2782 -0.2557
12 0 14 -2.9560 0.0269
12 0 16 -3.6773 0.3728
12 0 18 -2.6294 -0.0527
12 2 0 -0.1692 0.2003
12 2 1 -20.3931 0.7294
12 2 2 -1.7640 0.2366
12 2 3 -22.3516 -0.2103
12 2 4 5.8386 0.0684
12 2 5 3.1827 -0.4377
12 2 6 7.2411 -0.0728
12 2 7 7.8568 0.2591
12 2 8 -2.1964 -0.0141
12 2 9 -10.1924 0.0830
12 2 10 7.4948 0.0590
12 2 11 -6.0648 -0.2532
12 2 12 -6.1670 -0.0599
12 2 13 -3.9808 0.1098
12 2 14 0.8360 0.0801
12 2 15 -2.4167 -0.0395
12 2 16 -0.4674 0.0345
12 2 17 -3.6947 -0.0520
12 2 18 -2.7671 -0.0133
12 4 0 -56.4826 -0.4620
12 4 1 -8.0670 -0.0790
12 4 2 -15.8351 0.1050
12 4 4 50.6590 0.2745
12 4 5 11.1044 0.0915
12 4 6 -24.9665 -0.2071
12 4 7 -0.3070 0.0146
12 4 8 -29.5030 -0.0817
12 4 9 4.9504 -0.0269
12 4 10 12.8503 0.1005
12 4 11 2.6453 0.0548
12 4 12 0.8778 -0.0411
12 4 13 -8.4604 0.0045
12 4 14 -4.4473 -0.0716
12 4 15 -5.8130 -0.0091
12 4 16 7.4831 0.0821
12 4 17 5.3757 -0.0392
12 4 18 -2.7158 -0.0437
12 6 0 9.2589 -0.0744
12 6 1 4.2215 0.0057
12 6 2 -9.6482 0.0238
12 6 3 5.9376 -0.0260
12 6 4 29.4318 -0.0310
12 6 5 15.4728 -0.0298
12 6 6 0.2397 0.0215
12 6 7 -36.6058 0.1390
12 6 8 -21.4525 0.0679
12 6 9 -21.6411 -0.0790
12 6 10 11.1241 0.0361
12 6 11 28.0923 -0.1111
12 6 12 3.8247 -0.0906
12 6 13 -7.5786 0.1672
12 6 14 -14.2363 0.0875
12 6 15 -6.2422 0.0172
12 6 16 -1.3940 0.0143
12 6 17 7.2220 -0.0623
12 8 0 9.6786 -0.0677
12 8 1 -1.4404 -0.0791
12 8 2 -1.0681 0.0819
12 8 3 -2.3222 -0.0437
12 8 4 -3.0338 0.0207
12 8 5 1.6715 0.0772
12 8 6 13.3854 -0.1758
12 8 7 -0.5745 -0.0470
12 8 8 0.2893 0.0359
12 8 9 -11.1696 -0.0261
12 8 10 1.2136 0.0737
12 8 11 6.4706 -0.0038
12 8 12 8.6699 -0.0111
12 8 13 21.5716 0.0604
12 8 14 -8.2889 -0.0719
12 8 15 -1.3007 -0.0549
12 8 16 -1.8847 0.0571
12 8 17 3.7514 -0.0881
12 10 0 17.7092 0.0398
12 10 1 10.8257 0.0253
12 10 2 -3.4555 -0.0023
12 10 3 3.3467 -0.0629
12 10 4 0.1776 -0.0644
12 10 5 21.0776 -0.0093
12 10 6 -6.6505 0.0197
12 10 7 27.5784 0.0784
12 10 8 2.1920 0.0455
12 10 9 -12.0517 -0.0655
12 10 10 4.9986 -0.0285
12 10 11 3.9710 -0.0134
12 10 12 -12.0191 -0.0204
12 10 13 9.5984 0.0643
12 10 14 -0.7426 0.0372
12 10 15 0.4175 -0.0544
12 10 16 2.4757 -0.0331
12 12 0 -11.6259 0.0056
12 12 1 -0.2637 0.0356
12 12 2 -3.5098 -0.0142
12 12 4 0.4037 -0.0166
12 12 5 6.4328 0.0216
12 12 6 -1.1417 0.0471
12 12 7 4.5992 -0.0587
12 12 8 -4.2549 0.0218
12 12 9 -9.3217 0.0036
12 12 10 -6.0635 -0.0025
12 12 11 2.9924 0.0326
12 12 12 12.9187 -0.0330
12 12 13 0.2118 0.0768
12 12 14 6.3649 -0.0829
12 12 15 5.5681 -0.0423
12 12 16 8.5549 0.0025
12 14 0 -11.7828 0.0192
12 14 1 8.4251 0.0206
12 14 2 -6.6153 -0.0087
12 14 3 6.1741 -0.0207
12 14 4 17.6439 0.0179
12 14 5 -6.5018 -0.0445
12 14 6 2.0806 -0.0840
12 14 7 -0.6559 0.0441
12 14 8 2.5123 0.0133
12 14 9 -7.9189 -0.0613
12 14 10 -3.1925 -0.0633
12 14 11 -2.7234 0.0102
12 14 12 7.6944 0.1218
12 14 13 8.3523 -0.0728
12 14 14 0.7353 0.0877
12 14 15 3.5503 -0.1184
12 16 0 -8.0475 0.0450
12 16 1 19.0389 0.0200
12 16 2 -2.1112 -0.0725
12 16 3 -6.4050 -0.0690
12 16 4 -5.9046 0.0258
12 16 5 2.3850 0.0499
12 16 6 -21.7671 0.0576
12 16 7 -12.3293 0.0197
12 16 8 -5.9230 0.0332
12 16 9 -5.5438 0.1060
12 16 10 1.3823 -0.0770
12 16 11 10.7784 0.0925
12 16 12 3.4107 -0.0885
12 16 13 4.4200 0.0394
12 16 14 0.1605 -0.0667
12 18 0 5.8098 -0.1238
12 18 1 -3.8275 0.0309
12 18 2 11.6586 -0.0026
12 18 3 -11.6653 -0.0058
12 18 4 -7.0877 0.0565
12 18 5 9.6846 0.0437
12 18 6 0.4717 -0.0172
12 18 7 4.7585 0.0193
12 18 8 1.9859 0.1226
12 18 9 -3.3722 -0.0924
12 18 10 3.8490 -0.0008
12 18 11 3.8376 -0.0447
12 18 12 0.7112 0.1264
12 20 0 0.7981 0.0452
12 20 1 -8.3882 -0.0630
12 20 2 -1.8438 -0.0077
12 20 3 -13.5787 0.0682
12 20 4 -0.7577 0.0042
12 20 5 4.4665 -0.0182
12 20 6 -2.2292 0.0162
12 20 7 12.9634 0.0437
12 20 8 4.1791 -0.0508
12 20 9 -2.3148 -0.0489
12 20 10 5.3753 -0.0828
12 22 0 -2.5243 -0.0231
12 22 1 2.5401 -0.0635
12 22 2 -2.6599 -0.1177
12 22 3 -7.9401 0.0118
12 22 4 -5.1314 0.1238
12 22 5 1.5197 0.0599
12 22 6 1.2830 -0.0759
12 22 7 -0.7117 0.0179
12 22 8 -2.3370 -0.0789
12 24 0 4.7543 0.0411
12 24 1 5.7917 0.0099
12 24 2 3.6805 -0.0362
12 24 3 1.7061 0.0121
12 24 4 0.7899 0.0380
12 24 5 1.0456 -0.0982
13 1 0 42.3606 -1.3665
13 1 1 15.7550 0.7646
13 1 2 -14.3355 0.2949
13 1 3 -18.2587 -0.0619
13 1 4 -16.3029 0.3348
13 1 5 14.2050 -0.4356
13 1 6 10.7439 -0.3093
13 1 7 22.4618 0.1989
13 1 8 1.2949 0.0481
13 1 9 -14.1357 0.2052
13 1 10 -2.4257 0.2089
13 1 11 -6.0393 -0.2109
13 1 12 2.8803 -0.2182
13 1 13 2.5454 0.0341
13 1 14 -0.5299 -0.2179
13 1 15 1.7614 0.2028
13 1 16 -3.8930 0.2564
13 1 17 -2.0422 -0.2457
13 3 0 -24.7888 0.0397
13 3 1 8.8206 0.0190
13 3 2 8.0565 -0.0805
13 3 3 -6.2640 -0.2018
13 3 4 -11.9552 0.0969
13 3 5 7.4801 0.0059
13 3 6 -0.2514 -0.0248
13 3 7 10.8990 0.0854
13 3 8 -1.2747 -0.1476
13 3 9 -1.7306 -0.1160
13 3 10 -16.9672 0.0551
13 3 11 -5.1251 0.0208
13 3 12 1.4391 0.0969
13 3 13 8.8101 0.0030
13 3 14 3.9347 -0.0520
13 3 15 0.8700 -0.0815
13 3 16 0.1128 -0.0768
13 3 17 -0.6618 -0.0063
13 5 0 26.2082 0.0022
13 5 1 -5.1659 0.1303
13 5 2 -11.9739 0.1841
13 5 3 5.9246 -0.0107
13 5 4 3.5521 0.0890
13 5 5 15.5344 -0.0311
13 5 6 13.1849 -0.2424
13 5 7 -1.0805 0.0321
13 5 8 -8.1825 -0.0134
13 5 9 -1.7339 0.0495
13 5 10 -2.6445 0.1422
13 5 11 -1.5601 -0.0332
13 5 12 1.2622 0.0067
13 5 13 -9.5688 0.0253
13 5 14 7.7738 -0.0906
13 5 15 -2.2132 0.0444
13 5 16 -4.1033 0.1102
13 5 17 -0.5845 -0.0534
13 7 0 41.8936 -0.0268
13 7 1 36.7576 -0.0537
13 7 2 17.6496 0.0087
13 7 3 -7.5428 -0.0852
13 7 4 -35.1827 0.0885
13 7 5 -20.2794 0.0871
13 7 6 19.1119 0.0227
13 7 7 -16.7652 0.0693
13 7 8 14.9954 -0.0080
13 7 9 -4.9077 -0.1044
13 7 10 -17.4159 -0.0014
13 7 11 -2.4349 -0.0262
13 7 12 4.0479 -0.0275
13 7 14 -5.2401 -0.0870
13 7 15 -7.2273 -0.0331
13 7 16 -6.4072 -0.0109
13 7 17 -2.3381 0.1368
13 9 0 52.7594 0.0270
13 9 1 13.9169 -0.0218
13 9 2 3.7536 -0.0133
13 9 3 9.8858 -0.0223
13 9 4 -26.0699 -0.0690
13 9 5 -18.5446 0.0178
13 9 6 4.3345 -0.0228
13 9 7 -2.9720 -0.0016
13 9 8 9.8862 0.0858
13 9 9 6.6588 0.0439
13 9 10 -2.9377 0.0698
13 9 11 -13.5108 -0.0016
13 9 12 -2.3824 -0.1037
13 9 13 2.6890 -0.0627
13 9 14 9.3347 -0.0084
13 9 15 2.7019 0.0388
13 9 16 -1.4879 0.0674
13 11 0 -1.9011 0.0039
13 11 1 27.7661 -0.0297
13 11 2 2.5765 -0.0078
13 11 3 -0.1093 0.0520
13 11 4 -9.6611 0.0204
13 11 5 -4.0120 0.0257
13 11 6 -1.6631 -0.0356
13 11 7 17.7573 0.0384
13 11 8 -8.7137 -0.0062
13 11 9 7.4211 -0.1188
13 11 10 1.1818 0.0109
13 11 11 -0.5812 0.0690
13 11 12 2.2913 -0.0514
13 11 13 10.1539 0.0547
13 11 14 -0.4599 0.0267
13 11 15 6.9653 -0.0400
13 13 0 -19.8285 0.0318
13 13 1 -8.7021 0.0230
13 13 2 6.0865 -0.0473
13 13 3 14.0984 0.0140
13 13 4 9.0343 -0.0026
13 13 5 1.2092 -0.0542
13 13 6 -2.3744 0.1040
13 13 7 3.0142 -0.0136
13 13 8 3.2943 -0.0240
13 13 9 12.7203 -0.0105
13 13 10 -2.2981 0.0090
13 13 11 1.6037 -0.0079
13 13 12 3.0370 -0.1169
13 13 13 3.2586 -0.0094
13 13 14 10.6207 0.0055
13 13 15 3.3569 0.1455
13 15 0 -0.6410 -0.0513
13 15 1 11.5579 -0.0361
13 15 2 -2.7417 0.0229
13 15 3 10.5717 0.1064
13 15 4 4.1896 0.0474
13 15 5 -14.1301 -0.0010
13 15 6 3.3575 -0.0393
13 15 7 -11.4727 -0.0278
13 15 8 -6.0009 -0.0052
13 15 9 2.7675 -0.0256
13 15 10 4.2592 0.0298
13 15 11 2.3435 -0.0293
13 15 12 -6.7532 0.0635
13 15 13 4.7082 -0.0096
13 15 14 -10.7500 0.1125
13 17 0 6.7168 0.0361
13 17 1 -8.5407 0.0422
13 17 2 11.3880 0.0355
13 17 3 -5.3454 0.0635
13 17 4 -4.3372 -0.0302
13 17 5 -9.3128 -0.0633
13 17 6 -21.3650 -0.0214
13 17 7 -6.4437 -0.0096
13 17 8 5.0618 -0.1338
13 17 9 -1.2431 0.0150
13 17 10 5.4136 -0.0028
13 17 11 4.1870 0.0479
13 17 12 -2.5919 -0.0110
13 19 0 -10.5302 -0.0691
13 19 1 -3.2475 0.0315
13 19 2 -1.9879 0.0679
13 19 3 2.2276 -0.0332
13 19 4 -0.1474 -0.0236
13 19 5 -1.1432 -0.0538
13 19 6 -13.9656 -0.0516
13 19 7 5.4072 -0.0844
13 19 8 -2.5605 0.0114
13 19 9 3.7426 0.0640
13 19 10 5.4578 0.1274
13 19 11 -5.6765 -0.1015
13 21 0 -10.8984 -0.0044
13 21 1 -5.0766 0.0366
13 21 2 -2.3497 0.0865
13 21 3 0.2877 0.0403
13 21 4 4.8780 -0.0605
13 21 5 5.9568 -0.0903
13 21 6 -6.1063 0.0534
13 21 7 8.4720 0.0957
13 21 8 0.5718 -0.0860
13 21 9 1.2987 0.1128
13 23 0 -7.7171 0.1518
13 23 1 -0.7162 -0.0465
13 23 2 -8.1089 -0.0145
13 23 3 6.0046 0.0122
13 23 4 0.0324 -0.0712
13 23 5 -4.2610 0.1460
14 0 0 49.2807 -2.7722
14 0 2 15.2599 -0.0299
14 0 4 -30.6255 0.5322
14 0 8 5.2283 0.0086
14 0 10 0.7129 0.5158
14 0 12 -13.3432 -0.2416
14 0 14 -3.9559 -0.1561
14 0 16 -0.2729 0.3603
14 2 0 -39.9941 0.1775
14 2 1 -4.6894 0.5708
14 2 2 16.3184 0.2036
14 2 3 -5.0631 -0.1136
14 2 4 15.4864 0.0808
14 2 5 8.2726 -0.4406
14 2 6 0.3823 -0.1033
14 2 7 10.4670 0.2909
14 2 8 18.4480 -0.0044
14 2 9 -8.4170 0.0190
14 2 10 1.8645 -0.0071
14 2 11 -2.4535 -0.1768
14 2 12 -5.5274 -0.0910
14 2 13 -3.7960 0.0812
14 2 14 4.5816 -0.0225
14 2 15 -0.3063 -0.0404
14 2 16 4.2073 0.0525
14 2 17 3.9244 -0.0270
14 4 0 -31.0082 -0.3799
14 4 1 -29.2831 -0.0558
14 4 2 7.6709 0.0338
14 4 3 2.8658 -0.0563
14 4 4 11.1517 0.3080
14 4 5 13.0163 0.0956
14 4 6 2.9138 -0.1507
14 4 7 -0.4138 0.0416
14 4 8 8.5662 -0.1125
14 4 9 5.4499 -0.0401
14 4 10 1.9020 0.2347
14 4 11 6.4006 0.0482
14 4 12 3.6510 0.0094
14 4 13 10.2043 0.0444
14 4 14 -2.4524 -0.0721
14 4 15 6.1876 -0.0438
14 4 16 5.0195 0.0796
14 4 17 0.9190 0.0548
14 6 0 0.6728 -0.0659
14 6 1 10.9905 -0.0287
14 6 2 -5.6384 0.0004
14 6 3 6.5332 -0.0134
14 6 4 -0.9199 -0.0131
14 6 5 -17.5668 -0.0303
14 6 6 -4.0697 -0.0629
14 6 7 -4.4660 0.0828
14 6 8 3.0738 0.0292
14 6 9 4.3602 -0.0015
14 6 10 -2.1412 -0.0411
14 6 11 -0.5941 -0.1133
14 6 12 -9.6741 -0.0728
14 6 13 6.3049 0.1150
14 6 14 0.2657 0.0748
14 6 15 -1.2847 0.0554
14 6 16 1.9273 0.0324
14 8 0 -8.1099 -0.0468
14 8 1 -17.8004 -0.0969
14 8 2 22.4458 0.0574
14 8 3 6.9477 0.0001
14 8 4 5.6408 0.0462
14 8 5 -0.8381 0.0872
14 8 6 -29.4588 -0.1746
14 8 7 -14.6296 -0.0530
14 8 8 14.0435 0.0085
14 8 9 2.6930 -0.0529
14 8 10 8.3795 0.1024
14 8 11 -1.1073 0.0195
14 8 12 -17.0120 -0.0098
14 8 13 -14.8538 0.0766
14 8 14 -2.9296 0.0193
14 8 15 -4.6304 0.0038
14 8 16 2.6928 -0.0070
14 10 0 -0.0638 -0.0062
14 10 1 -18.6099 0.0312
14 10 2 -4.0499 0.0211
14 10 3 3.8188 -0.0335
14 10 4 12.7614 -0.0033
14 10 5 20.7100 0.0357
14 10 6 -4.8179 0.0100
14 10 7 -12.5584 -0.0039
14 10 8 -8.2756 0.0175
14 10 9 3.3435 -0.0576
14 10 10 7.8133 0.0263
14 10 11 6.1119 -0.0232
14 10 12 2.6305 -0.0140
14 10 13 -4.3721 0.1323
14 10 14 -1.2707 0.0616
14 10 15 1.1791 -0.0575
14 12 0 -33.2045 -0.0188
14 12 1 -24.6179 0.0433
14 12 2 -1.3569 0.0119
14 12 3 -13.0292 -0.0093
14 12 4 11.4268 -0.0247
14 12 5 18.2764 0.0366
14 12 6 -3.5640 -0.0697
14 12 7 10.9070 -0.0231
14 12 8 2.3993 0.1008
14 12 9 3.3015 0.0436
14 12 10 6.6758 -0.0308
14 12 11 3.5340 0.0513
14 12 12 -2.2854 -0.0133
14 12 13 3.0459 0.0170
14 12 14 2.7774 -0.0485
14 14 0 2.9388 -0.0063
14 14 1 -17.0487 -0.0030
14 14 2 0.2221 0.0225
14 14 3 3.7991 -0.0499
14 14 4 -0.1078 -0.0622
14 14 5 17.8551 -0.0420
14 14 6 9.2645 0.0012
14 14 7 -21.1072 0.0237
14 14 8 -2.2574 0.0456
14 14 9 2.0909 0.0322
14 14 10 0.9628 -0.0321
14 14 11 7.9772 -0.0102
14 14 12 0.7268 0.0174
14 14 13 -17.5426 -0.0320
14 14 14 1.0251 -0.0476
14 16 0 18.5731 0.0454
14 16 1 -9.8067 0.0163
14 16 2 4.7829 -0.0221
14 16 3 6.6365 -0.1071
14 16 4 -12.7388 0.0426
14 16 5 -0.9007 0.0736
14 16 6 6.3693 -0.0122
14 16 7 -8.4360 -0.0610
14 16 8 1.3545 0.0997
14 16 9 -0.5967 0.1462
14 16 10 -0.8852 -0.0595
14 16 11 5.5922 -0.0628
14 16 12 -5.8478 -0.0655
14 18 0 14.0424 -0.1100
14 18 1 -3.5400 0.0468
14 18 2 -2.0976 0.0075
14 18 3 3.1838 -0.0505
14 18 4 -9.8034 0.0316
14 18 5 11.2184 0.0128
14 18 6 -2.3823 -0.0237
14 18 7 1.1553 0.0963
14 18 8 -1.6066 0.0452
14 18 9 -0.0944 -0.0255
14 18 10 4.4414 -0.0884
14 18 11 3.8467 -0.1060
14 20 0 -7.4491 0.0962
14 20 1 -3.3903 -0.0195
14 20 2 -8.0378 -0.0509
14 20 3 -6.4789 -0.1030
14 20 4 -10.5000 -0.0193
14 20 5 4.1164 0.0903
14 20 6 -8.1605 0.0956
14 20 7 11.9028 -0.0221
14 20 8 -7.4820 0.0488
14 20 9 -1.3152 -0.0619
14 22 0 1.0074 -0.0547
14 22 1 2.0073 -0.0385
14 22 2 -3.2089 -0.2071
14 22 3 3.1886 -0.0439
14 22 4 -2.3429 0.2083
14 22 5 0.8307 0.0576
14 22 6 7.1952 -0.0723
14 24 0 2.5022 0.0321
14 24 1 -1.0313 0.0686
15 1 0 37.9201 -1.3079
15 1 1 -5.6013 0.6757
15 1 2 0.9427 0.2904
15 1 3 5.4559 -0.0328
15 1 4 -2.7700 0.2449
15 1 5 -1.3569 -0.3380
15 1 6 3.4362 -0.1993
15 1 7 -7.5543 0.0632
15 1 8 -6.5838 -0.1054
15 1 9 -4.8278 0.2565
15 1 10 3.7274 0.2240
15 1 11 -12.8640 -0.2987
15 1 12 3.4521 -0.1545
15 1 13 -6.4719 -0.0956
15 1 14 -4.7877 -0.1517
15 1 15 -0.5062 0.2580
15 1 16 -2.2170 0.1905
15 3 0 -4.4809 0.0234
15 3 1 7.6886 0.0195
15 3 2 -32.3066 -0.0822
15 3 3 -12.3312 -0.1823
15 3 4 7.1161 0.1290
15 3 5 3.1290 0.0127
15 3 6 11.3275 -0.0407
15 3 7 9.3478 0.0093
15 3 8 -16.2087 -0.0962
15 3 9 -12.2948 0.0293
15 3 10 2.5681 0.0408
15 3 11 -6.0974 0.0313
15 3 12 7.1544 0.1020
15 3 13 -3.3853 0.1139
15 3 14 -4.4318 0.0592
15 3 15 0.0099 -0.0362
15 3 16 -1.9993 -0.0446
15 5 0 -8.9426 -0.0796
15 5 1 12.8122 0.1679
15 5 2 -12.0374 0.1797
15 5 3 4.4587 0.0004
15 5 4 0.4149 0.0651
15 5 5 -17.9536 -0.0718
15 5 6 11.9434 -0.1171
15 5 7 -6.6204 0.0322
15 5 8 -9.4097 -0.0539
15 5 9 3.3487 -0.0164
15 5 10 -5.2939 0.0834
15 5 11 1.1886 -0.1098
15 5 12 7.7314 -0.0063
15 5 13 17.0685 -0.0087
15 5 14 -1.3947 -0.0426
15 5 15 3.3783 0.0995
15 5 16 -0.4438 0.0301
15 7 0 -3.1429 -0.0817
15 7 1 19.6172 -0.0902
15 7 2 -19.0410 0.0292
15 7 3 11.0910 -0.0659
15 7 4 18.8630 0.1167
15 7 5 -10.8891 0.1361
15 7 6 3.6615 0.0278
15 7 7 1.7806 0.0270
15 7 8 -14.0653 -0.0367
15 7 9 1.9252 -0.0660
15 7 10 9.7256 -0.0069
15 7 11 0.2818 -0.0091
15 7 12 -2.5759 -0.0282
15 7 13 -3.8427 -0.0133
15 7 14 2.8700 -0.0512
15 7 15 2.0252 -0.0812
15 7 16 -0.9252 -0.0117
15 9 0 -19.0837 -0.0416
15 9 1 4.3618 0.0262
15 9 2 -17.0366 0.0225
15 9 3 -6.8364 0.0047
15 9 4 5.8313 -0.0464
15 9 5 18.7534 -0.0349
15 9 6 13.9982 -0.0969
15 9 7 7.2424 0.0338
15 9 8 -5.4322 0.1489
15 9 9 -11.9278 0.0245
15 9 10 0.9199 0.0603
15 9 11 14.0475 0.0196
15 9 12 11.8922 -0.0535
15 9 13 5.7305 -0.0337
15 9 14 -6.0048 -0.0485
15 9 15 -1.9156 -0.0677
15 11 0 15.9659 0.0787
15 11 1 5.8141 0.0048
15 11 2 -5.6649 -0.0124
15 11 3 -3.8767 -0.0012
15 11 4 -0.5282 -0.0394
15 11 5 0.5403 -0.0186
15 11 6 13.4946 0.0154
15 11 7 21.8445 0.0335
15 11 8 5.7024 0.0133
15 11 9 -7.1524 -0.1031
15 11 10 -1.3144 -0.0277
15 11 11 -9.2157 0.0494
15 11 12 8.8308 -0.0291
15 11 13 9.3829 0.0017
15 11 14 2.2379 -0.0410
15 13 0 -16.3369 -0.0139
15 13 1 10.3887 -0.0033
15 13 2 -15.2281 -0.0243
15 13 3 -16.5235 -0.0209
15 13 4 4.1413 -0.0313
15 13 5 -6.0404 -0.0175
15 13 6 2.4407 0.0489
15 13 7 8.8771 -0.0090
15 13 8 -8.9579 -0.0282
15 13 9 -5.6363 -0.0137
15 13 10 -2.6746 -0.0381
15 13 11 -3.7272 -0.0365
15 13 12 7.9310 -0.0326
15 13 13 3.5342 0.0308
15 15 0 -2.2946 -0.0063
15 15 1 18.5401 -0.0434
15 15 2 6.9116 0.0102
15 15 3 1.0938 0.1675
15 15 4 -4.3328 0.0756
15 15 5 -4.8615 -0.0600
15 15 6 -3.0753 0.0047
15 15 7 2.9093 -0.0119
15 15 8 -2.1283 -0.0674
15 15 9 -6.0691 -0.0106
15 15 10 -5.2789 0.0069
15 15 11 2.5399 0.0846
15 15 12 4.2018 0.1238
15 17 0 16.7061 0.0151
15 17 1 7.9602 -0.0257
15 17 2 10.7388 -0.0507
15 17 3 -3.2293 0.0959
15 17 4 -0.6139 -0.0463
15 17 5 -3.7411 -0.0597
15 17 6 -2.9487 0.1218
15 17 7 0.8577 -0.0343
15 17 8 4.3596 -0.1200
15 17 9 -0.8481 -0.0072
15 17 10 -3.1702 -0.0110
15 17 11 0.6600 0.1115
15 19 0 -3.9396 -0.0461
15 19 1 6.1169 -0.0465
15 19 2 3.8810 -0.0271
15 19 3 -11.0075 0.1049
15 19 4 -7.0819 0.0564
15 19 5 1.0012 -0.0796
15 19 6 -1.9260 -0.0819
15 19 7 8.6346 0.0201
15 19 8 1.4839 0.0263
15 19 9 -4.4938 0.0624
15 21 0 -16.1800 0.0633
15 21 1 1.3936 -0.0022
15 21 2 -0.2211 0.0660
15 21 3 0.7309 0.2271
15 21 4 -2.4409 -0.0723
15 21 5 -3.5106 -0.1300
15 21 6 -0.7610 0.1161
15 21 7 6.7044 0.0405
15 23 0 5.5699 -0.0219
15 23 1 4.1631 0.0625
15 23 2 9.3564 0.1581
16 0 0 11.8385 -2.4088
16 0 2 35.6609 -0.1345
16 0 4 -17.4802 0.6908
16 0 6 -15.0589 -0.4513
16 0 8 20.3816 0.0149
16 0 10 -4.9880 0.2675
16 0 12 -7.8666 -0.3204
16 0 14 4.1974 -0.1887
16 0 16 7.4299 0.3164
16 2 0 9.8850 0.1681
16 2 1 -21.8455 0.5476
16 2 2 7.3431 0.1927
16 2 3 -10.5236 -0.0458
16 2 4 -6.6493 -0.0005
16 2 5 18.5262 -0.3828
16 2 6 -0.6166 -0.0600
16 2 7 13.9249 0.2316
16 2 8 6.3747 0.0139
16 2 9 7.8739 0.0789
16 2 10 -7.2354 0.0238
16 2 11 -3.4125 -0.0688
16 2 12 -2.8880 0.0200
16 2 13 -1.2501 0.0141
16 2 14 1.5021 -0.0953
16 2 15 0.8064 -0.0338
16 2 16 -2.5563 -0.0003
16 4 0 -8.0370 -0.3002
16 4 1 -5.1351 -0.0892
16 4 2 6.6214 0.0196
16 4 3 -9.6792 -0.0539
16 4 4 -19.9569 0.2152
16 4 5 -3.6090 0.1036
16 4 6 -5.5494 -0.0667
16 4 7 10.9802 0.0554
16 4 8 9.1862 -0.1334
16 4 9 0.7812 -0.0705
16 4 10 -3.2527 0.1742
16 4 11 -5.1729 0.0405
16 4 12 -0.0391 -0.0311
16 4 13 2.6946 -0.0475
16 4 14 8.1811 -0.1113
16 4 15 1.3334 -0.0762
16 4 16 -4.2662 0.1734
16 6 0 -12.0158 -0.0593
16 6 1 1.3251 -0.0303
16 6 2 3.6585 0.0297
16 6 3 20.0268 -0.0049
16 6 4 4.3085 -0.0452
16 6 5 -0.9581 -0.0574
16 6 6 -1.6120 -0.0560
16 6 7 -7.9097 0.0866
16 6 9 12.0979 0.0197
16 6 10 -1.6605 0.0280
16 6 11 1.3832 -0.1111
16 6 12 1.1177 -0.0311
16 6 13 -5.5852 0.0585
16 6 14 8.9067 -0.0894
16 6 15 3.8174 0.1238
16 8 0 -0.8713 -0.0550
16 8 1 2.7485 -0.0930
16 8 2 -10.7681 0.0682
16 8 3 -3.5292 -0.0269
16 8 4 -7.1940 -0.0395
16 8 5 2.6401 0.0474
16 8 6 8.7626 -0.0532
16 8 7 -6.4657 0.0225
16 8 8 1.8108 -0.0482
16 8 9 -1.6376 -0.0261
16 8 10 -7.4647 0.1101
16 8 11 1.7757 0.0664
16 8 12 1.4696 -0.0142
16 8 13 -6.4275 -0.0365
16 8 14 -2.8535 0.0127
16 8 15 4.8030 0.1290
16 10 0 -3.4969 -0.0281
16 10 1 -9.9156 -0.0463
16 10 2 16.3475 -0.0117
16 10 3 7.0203 0.0116
16 10 4 -17.9070 0.0293
16 10 5 -6.3811 0.1017
16 10 6 -6.4289 0.0095
16 10 7 -1.7238 -0.0167
16 10 8 5.8310 0.0198
16 10 9 8.3567 -0.1256
16 10 10 -6.6252 0.0177
16 10 11 -2.5153 -0.0611
16 10 12 -2.8447 -0.1094
16 10 13 5.8366 0.1094
16 10 14 -0.1485 0.2013
16 12 0 7.3750 -0.0728
16 12 1 -10.1745 0.0314
16 12 2 -7.1011 0.0650
16 12 3 10.6003 0.0195
16 12 4 2.6612 0.0357
16 12 5 -7.1895 -0.0035
16 12 6 -1.0339 -0.0408
16 12 7 -5.6293 -0.0220
16 12 8 0.5131 -0.0051
16 12 9 13.7735 0.0284
16 12 10 4.4521 -0.0333
16 12 11 -0.8386 0.0718
16 12 12 -0.9840 -0.0236
16 12 13 -5.4294 0.0546
16 14 0 -20.1783 0.0317
16 14 1 -1.2426 0.0586
16 14 2 0.1858 0.0187
16 14 3 8.4115 -0.0046
16 14 4 1.4801 -0.0949
16 14 5 -10.3032 0.0425
16 14 6 -10.7177 0.0738
16 14 7 -9.7435 -0.0949
16 14 8 -6.3556 0.0403
16 14 9 1.3472 0.0114
16 14 10 6.1291 0.0760
16 14 11 3.7282 0.0757
16 14 12 1.3353 -0.0982
16 16 0 1.0093 -0.0192
16 16 1 -3.8045 -0.1192
16 16 2 2.9787 0.0413
16 16 3 12.8858 -0.0359
16 16 4 1.0755 -0.0051
16 16 5 -5.7242 0.0275
16 16 6 -15.9977 -0.0708
16 16 7 -9.7134 -0.0353
16 16 8 -4.0258 0.0648
16 16 9 4.9936 0.0817
16 16 10 4.9411 0.0589
16 16 11 -2.5438 -0.1337
16 18 0 4.3007 0.0737
16 18 1 0.3089 0.0756
16 18 2 3.2863 -0.0057
16 18 3 -0.0765 -0.0288
16 18 4 -0.3336 -0.0726
16 18 5 1.8334 -0.0757
16 18 6 -15.0854 -0.0074
16 18 7 0.6987 0.0789
16 18 8 0.3255 -0.0350
16 18 9 5.2417 0.0186
16 20 0 1.9483 0.0341
16 20 1 -9.0108 0.0777
16 20 2 3.9338 0.0379
16 20 3 6.1393 -0.2276
16 20 4 4.2973 -0.0284
16 20 5 3.8507 0.1077
16 20 6 1.3755 -0.0076
16 20 7 -0.3539 -0.0287
16 22 0 2.0027 -0.0239
16 22 1 -2.1850 0.0100
16 22 2 -3.3760 0.0208
16 22 3 5.4923 -0.1283
17 1 0 3.7209 -1.2702
17 1 1 -8.4556 0.6264
17 1 2 -1.6958 0.1679
17 1 3 -22.9948 0.1012
17 1 4 17.2111 0.4229
17 1 5 5.1126 -0.4831
17 1 6 -3.6936 -0.3613
17 1 7 25.7937 0.0953
17 1 8 1.2515 0.0337
17 1 9 1.5878 0.2528
17 1 10 8.4904 0.2737
17 1 11 -2.1571 -0.1184
17 1 12 -4.2208 -0.1597
17 1 13 -3.2658 -0.1956
17 1 14 1.4036 -0.1328
17 1 15 2.0562 0.0983
17 3 0 -34.7602 0.0261
17 3 1 -5.2352 0.0172
17 3 2 2.3736 -0.0777
17 3 3 -9.9695 -0.1901
17 3 4 6.8620 0.0894
17 3 5 9.6669 0.0137
17 3 6 -19.0931 -0.0124
17 3 7 1.1270 0.0682
17 3 8 -11.2183 -0.1163
17 3 9 3.9788 -0.0021
17 3 10 5.4574 0.0220
17 3 11 -0.9416 0.0080
17 3 12 -2.5620 0.0546
17 3 13 -7.1068 0.1485
17 3 14 -3.7543 0.0061
17 3 15 -1.9048 0.0188
17 5 0 -18.9808 -0.1159
17 5 1 -11.6476 0.1596
17 5 2 -7.2344 0.0911
17 5 3 -4.8300 0.0591
17 5 4 28.5237 0.1498
17 5 5 16.0422 -0.1082
17 5 6 2.6791 -0.1098
17 5 7 21.9613 -0.0292
17 5 8 -7.3272 -0.0785
17 5 9 4.9329 -0.0338
17 5 10 5.2536 0.0756
17 5 11 3.9588 -0.0375
17 5 12 -4.3488 -0.0109
17 5 13 -6.1607 -0.0449
17 5 14 -10.3733 0.1256
17 5 15 -7.6043 0.0053
17 7 0 8.2002 -0.0608
17 7 1 1.0940 -0.1588
17 7 2 -1.9185 0.0552
17 7 3 -11.8541 -0.0015
17 7 4 2.4225 0.0701
17 7 5 8.9856 0.1191
17 7 6 4.2897 -0.0166
17 7 7 12.0852 0.0349
17 7 8 5.7249 -0.0106
17 7 9 -2.5625 -0.0724
17 7 10 5.6228 0.0619
17 7 11 -0.2902 -0.0176
17 7 12 0.9817 -0.0487
17 7 13 7.9102 0.1562
17 7 14 -2.7506 -0.0474
17 9 0 -15.5315 -0.0089
17 9 1 12.4104 0.0020
17 9 2 4.3574 0.0159
17 9 3 -4.5244 0.0144
17 9 4 2.0499 0.0110
17 9 5 -8.9022 -0.0781
17 9 6 -13.1670 -0.1128
17 9 7 -4.4026 0.0530
17 9 8 6.7299 0.0620
17 9 9 4.0176 0.0373
17 9 10 5.7143 0.0473
17 9 11 1.1697 -0.0366
17 9 12 -4.3614 0.0142
17 9 13 -0.3199 0.0878
17 9 14 5.1261 -0.1416
17 11 0 -2.3061 0.0462
17 11 1 -12.5126 0.0212
17 11 2 8.9158 -0.0367
17 11 3 -15.9722 0.0071
17 11 4 6.3888 -0.0814
17 11 5 -0.1890 -0.0097
17 11 6 -10.3364 0.0160
17 11 7 -7.0001 -0.0421
17 11 8 -0.8215 0.0670
17 11 9 3.6453 -0.0675
17 11 10 8.7828 0.0325
17 11 11 7.3471 0.0406
17 11 12 -9.1252 0.0230
17 11 13 -3.6491 0.0047
17 13 0 -1.4478 0.0183
17 13 1 -11.3091 -0.0522
17 13 2 0.4250 -0.0115
17 13 3 -4.1437 -0.0563
17 13 4 3.8550 -0.0118
17 13 5 13.9601 0.0127
17 13 6 7.3135 -0.0318
17 13 7 -0.7943 0.0642
17 13 8 -0.7969 0.0755
17 13 9 -4.5619 0.1041
17 13 10 2.1760 -0.0854
17 13 11 5.6282 -0.0980
17 13 12 4.0053 0.0076
17 15 0 9.8503 -0.0199
17 15 1 5.8541 0.0739
17 15 2 1.0179 -0.0298
17 15 3 5.0514 0.0157
17 15 4 -5.9788 -0.0099
17 15 5 -1.6747 -0.0479
17 15 6 -2.4132 0.0745
17 15 7 -13.7700 0.0438
17 15 8 0.4803 -0.0322
17 15 9 0.7515 -0.0368
17 15 10 -0.0405 -0.1388
17 15 11 5.0564 0.0719
17 17 0 4.6365 0.0501
17 17 1 11.1798 -0.0067
17 17 2 3.2197 -0.0528
17 17 3 5.4039 -0.0430
17 17 4 -7.9684 0.0575
17 17 5 3.2449 0.0502
17 17 6 -1.1101 0.0217
17 17 7 -3.3653 -0.0243
17 17 8 -4.4961 0.0052
17 17 9 -5.4897 -0.1224
17 19 0 0.9612 -0.0692
17 19 1 -8.1939 0.0565
17 19 2 -1.1070 -0.0675
17 19 3 -5.8808 0.1120
17 19 4 -7.8305 0.1668
17 19 5 7.8409 -0.0625
17 19 6 -1.6411 -0.0104
17 19 7 4.6486 0.2414
17 21 0 4.0445 0.1214
17 21 1 -4.5988 0.1092
17 21 2 -2.7904 -0.1186
17 21 3 0.1851 0.0946
17 21 4 1.5330 0.1150
18 0 0 64.5436 -2.0291
18 0 2 -14.5116 -0.0152
18 0 4 -33.4812 0.4287
18 0 6 17.7338 -0.0422
18 0 8 4.5125 -0.2568
18 0 10 -3.7830 0.3373
18 0 12 -1.1096 -0.1988
18 0 14 -9.3497 -0.3741
18 2 0 12.2984 0.1827
18 2 1 14.8674 0.4742
18 2 2 -1.7861 0.1091
18 2 3 -4.4084 -0.0710
18 2 4 -24.8527 0.0318
18 2 5 -3.1386 -0.1736
18 2 6 6.0271 0.0027
18 2 7 5.5633 0.0111
18 2 8 2.3550 0.0051
18 2 9 -1.0253 0.0806
18 2 10 -9.1078 -0.0401
18 2 11 -6.7799 -0.0097
18 2 12 2.3038 0.1572
18 2 13 -1.1850 0.0353
18 2 14 5.6441 0.0752
18 4 0 13.1444 -0.1919
18 4 1 -0.4548 -0.0918
18 4 2 1.7684 0.0187
18 4 3 -1.7875 -0.0861
18 4 4 -2.1909 0.1744
18 4 5 -6.9126 0.1324
18 4 6 14.7187 -0.1301
18 4 7 6.9261 0.0519
18 4 8 -8.6541 -0.1310
18 4 9 2.2716 -0.0540
18 4 10 -12.3663 0.0865
18 4 11 -1.7901 0.0166
18 4 12 -2.8643 0.0197
18 4 13 -5.5937 0.0779
18 4 14 -2.5831 -0.1981
18 6 0 3.0773 -0.0265
18 6 1 15.1412 0.0843
18 6 2 1.1282 -0.0132
18 6 3 -3.4001 -0.1553
18 6 4 -7.6519 0.0316
18 6 5 -8.0545 0.0008
18 6 6 12.0737 0.0019
18 6 7 10.0638 0.0748
18 6 8 -1.1764 0.0556
18 6 9 2.6744 0.0112
18 6 10 -12.6229 -0.0216
18 6 11 -6.4516 -0.1089
18 6 12 -1.3430 0.0518
18 6 13 3.2903 -0.0571
18 6 14 -4.3486 -0.0922
18 8 0 2.2418 0.0204
18 8 1 4.1212 -0.0583
18 8 2 -11.6672 -0.0268
18 8 3 13.0863 -0.0315
18 8 4 -17.7115 0.0256
18 8 5 -12.2664 0.1064
18 8 6 3.3045 -0.0733
18 8 7 -0.0836 0.0307
18 8 8 2.5232 -0.0372
18 8 9 0.5120 -0.0682
18 8 10 -3.4939 0.0651
18 8 11 -2.9334 0.0650
18 8 12 -3.9994 -0.0374
18 8 13 6.7929 -0.0066
18 10 0 -1.5413 0.0122
18 10 1 -0.9787 -0.0338
18 10 2 -11.6099 -0.0344
18 10 3 -3.7830 -0.0037
18 10 4 -0.7003 0.0737
18 10 5 -3.9889 0.0272
18 10 6 0.8218 -0.0389
18 10 7 2.1551 0.0518
18 10 8 -2.1581 0.0237
18 10 9 -0.5569 -0.1150
18 10 10 2.9768 -0.0443
18 10 11 0.0281 -0.0545
18 10 12 4.8018 -0.0355
18 10 13 -3.5926 0.0667
18 12 0 -4.0343 0.0767
18 12 1 3.7041 0.0374
18 12 2 -0.3444 -0.0813
18 12 3 -7.5873 0.0496
18 12 4 0.2430 0.0302
18 12 5 1.6162 -0.0459
18 12 6 11.8810 0.0814
18 12 7 13.1257 -0.0197
18 12 8 -2.6769 -0.0401
18 12 9 -3.6275 -0.0384
18 12 10 -5.0136 0.0202
18 12 11 -1.6994 0.1427
18 12 12 4.5201 -0.0115
18 14 0 -3.5846 0.0633
18 14 1 -2.5417 -0.0469
18 14 2 -0.4243 0.0116
18 14 3 4.3846 0.0294
18 14 4 6.9563 -0.0248
18 14 5 -9.8992 0.0785
18 14 6 1.3476 -0.0437
18 14 7 5.5342 -0.1137
18 14 8 -0.2003 -0.0674
18 14 9 -1.0881 -0.0568
18 14 10 -3.1153 0.2199
18 16 0 12.8072 -0.0421
18 16 1 10.3194 0.0093
18 16 2 5.7503 0.0283
18 16 3 3.0203 0.1385
18 16 4 -4.1486 0.0333
18 16 5 -9.0498 -0.0957
18 16 6 -3.4171 0.0130
18 16 7 -3.6752 -0.0053
18 16 8 4.6494 -0.0984
18 16 9 0.6388 0.0750
18 18 0 2.0730 0.0612
18 18 1 4.8171 0.0338
18 18 2 0.3161 0.1019
18 18 3 9.6279 -0.0352
18 18 4 2.6758 -0.1111
18 18 5 -2.5926 -0.0389
18 18 6 -1.4936 -0.0082
18 18 7 6.2317 -0.1341
18 20 0 -7.4343 -0.0081
18 20 1 2.4952 0.0539
18 20 2 -7.4907 0.0652
18 20 3 -6.5914 -0.1029
18 20 4 2.7272 -0.1376
19 1 0 -0.0568 -1.1387
19 1 1 -7.4682 0.5291
19 1 2 20.1592 0.0656
19 1 3 2.4121 0.1101
19 1 4 -3.3835 0.4447
19 1 5 0.8202 -0.5022
19 1 6 -19.2324 -0.3291
19 1 7 -20.0481 0.1487
19 1 8 5.7524 -0.0380
19 1 9 -5.3321 0.2595
19 1 10 0.5341 0.2848
19 1 11 0.8422 -0.0712
19 1 12 -6.1906 -0.0901
19 1 13 -2.6059 -0.0022
19 1 14 -1.5922 -0.2897
19 3 1 -20.2857 0.0600
19 3 2 1.9025 -0.0750
19 3 3 10.9604 -0.1710
19 3 4 3.3009 0.0160
19 3 5 10.8227 -0.1164
19 3 6 -7.9537 0.0520
19 3 7 1.5693 0.0996
19 3 8 -1.3583 -0.0796
19 3 9 -4.2189 -0.0727
19 3 10 0.8090 0.0298
19 3 11 -1.5282 0.0066
19 3 12 1.5472 -0.0307
19 3 13 2.7167 0.0313
19 5 0 -16.6786 -0.0327
19 5 1 4.1735 0.0534
19 5 2 1.8164 0.0624
19 5 3 1.4748 0.1240
19 5 4 12.2379 0.0986
19 5 5 7.8873 -0.0281
19 5 6 -11.2970 -0.1333
19 5 7 3.1699 0.0366
19 5 8 3.2143 -0.0473
19 5 9 6.3311 0.0351
19 5 10 -2.1140 0.0579
19 5 11 2.7807 -0.0959
19 5 12 -5.8555 -0.1558
19 5 13 -4.7703 0.0542
19 7 0 3.4492 -0.1346
19 7 1 -13.1191 -0.1192
19 7 2 9.9728 0.0575
19 7 3 6.2678 -0.0992
19 7 4 3.8894 0.0535
19 7 5 2.5313 0.0757
19 7 6 -7.4541 0.0175
19 7 7 -26.5547 0.0043
19 7 8 -2.1173 0.0211
19 7 9 1.5217 -0.0373
19 7 10 1.0913 0.0740
19 7 11 9.9856 -0.0679
19 7 12 -1.1738 0.0357
19 7 13 3.9495 0.1484
19 9 0 15.6320 -0.0029
19 9 1 -14.6556 0.0132
19 9 2 -5.6047 0.0644
19 9 3 11.4374 -0.0263
19 9 4 -9.5094 -0.0933
19 9 5 7.2131 0.0111
19 9 6 -5.1661 -0.0790
19 9 7 -10.3777 0.0164
19 9 8 -6.3893 0.0213
19 9 9 -4.0119 -0.0117
19 9 10 3.0220 0.0371
19 9 11 3.1529 -0.0065
19 9 12 6.3559 -0.0979
19 11 0 8.0666 -0.0218
19 11 1 0.4642 0.0412
19 11 2 -2.5538 0.0169
19 11 3 0.9594 0.0027
19 11 4 1.4912 -0.0388
19 11 5 5.2271 0.0806
19 11 6 4.9009 -0.0176
19 11 7 -8.1576 -0.0748
19 11 8 1.8387 0.0241
19 11 9 -5.1129 -0.0036
19 11 10 -4.6395 0.0505
19 11 11 -0.0351 -0.1025
19 13 0 -19.1170 -0.0027
19 13 1 -4.1768 0.0080
19 13 2 1.4354 0.0315
19 13 3 6.7307 -0.0474
19 13 4 8.3762 0.0394
19 13 5 -3.4487 -0.0449
19 13 6 -0.7097 -0.0357
19 13 7 -7.5471 0.0025
19 13 8 -0.8604 0.0535
19 13 9 1.6896 0.0950
19 13 10 0.9189 -0.1822
19 15 0 -7.9238 0.0483
19 15 1 -4.7904 0.1309
19 15 2 -3.2581 0.0322
19 15 3 -0.1996 -0.1192
19 15 4 2.7886 -0.0680
19 15 5 -0.2765 0.0913
19 15 6 -1.0583 0.0147
19 15 7 -15.1644 -0.0302
19 15 8 -1.5192 0.1659
19 15 9 -2.8247 -0.0449
19 17 0 3.3439 -0.0637
19 17 1 -9.7807 -0.0818
19 17 2 3.2958 -0.0964
19 17 3 0.2250 -0.1546
19 17 4 -6.0852 0.0445
19 17 5 1.6176 0.0216
19 17 6 -1.1667 -0.1649
19 17 7 -2.4927 0.1103
19 19 0 9.4960 -0.0332
19 19 1 -2.1292 0.0531
19 19 2 -4.4267 -0.0486
19 19 3 -1.7385 0.1316
19 19 4 1.1106 0.1114
20 0 0 16.7183 -1.9251
20 0 2 10.5924 -0.1303
20 0 4 11.8956 0.6191
20 0 6 -5.2301 -0.2586
20 0 8 -5.4291 -0.0507
20 0 10 6.1211 0.3473
20 0 12 -0.8402 -0.0899
20 2 0 -1.5363 0.1018
20 2 1 -13.6735 0.3958
20 2 2 -7.7378 0.0964
20 2 3 -0.7420 -0.0421
20 2 4 1.0484 0.0538
20 2 5 7.9516 -0.1716
20 2 6 -0.0702 -0.0476
20 2 7 1.8053 0.0152
20 2 8 -2.7613 -0.0517
20 2 9 -5.2717 0.0729
20 2 10 5.1662 0.0211
20 2 11 -0.0740 -0.0738
20 2 12 4.7012 -0.0334
20 2 13 0.3560 0.0481
20 4 0 14.0959 -0.2842
20 4 1 0.8946 -0.0674
20 4 2 -9.6660 0.0750
20 4 3 -8.1922 -0.0027
20 4 4 -3.3797 0.2755
20 4 5 5.0351 0.0455
20 4 6 -9.5608 -0.0900
20 4 7 3.6425 0.0136
20 4 8 -4.7461 -0.0924
20 4 9 1.1686 -0.0582
20 4 10 4.3260 0.0491
20 4 11 2.0716 -0.0647
20 4 12 0.4493 0.0952
20 6 0 -3.0973 -0.0209
20 6 1 6.1656 0.1489
20 6 2 -1.2399 0.0264
20 6 3 -4.8110 -0.1109
20 6 4 9.4754 -0.0067
20 6 5 -2.9328 -0.0714
20 6 6 4.5894 -0.1135
20 6 7 -5.6540 0.1340
20 6 8 -3.5082 0.0054
20 6 9 -5.3932 0.0048
20 6 10 1.5052 0.0811
20 6 11 2.8817 0.0309
20 6 12 3.8544 -0.0790
20 8 0 15.8120 -0.0075
20 8 1 10.2686 -0.0056
20 8 2 -2.8330 0.0505
20 8 3 -7.3467 -0.0170
20 8 4 -4.9393 0.0170
20 8 5 -8.2212 0.0064
20 8 6 4.5222 -0.0526
20 8 7 -3.3853 0.0030
20 8 8 -6.9831 0.0120
20 8 9 -3.4565 -0.0184
20 8 10 -1.4037 0.0368
20 8 11 -1.8818 -0.0862
20 10 0 22.0796 -0.0193
20 10 1 9.6516 -0.0028
20 10 2 11.3787 0.0441
20 10 3 -9.7030 0.0250
20 10 4 0.8573 -0.0170
20 10 5 -5.9636 -0.0372
20 10 6 -0.0453 0.0028
20 10 7 6.6886 0.1123
20 10 8 6.1517 0.1221
20 10 9 -2.7461 -0.0500
20 10 10 -3.4927 -0.0810
20 10 11 -1.9994 0.0058
20 12 0 -11.4208 -0.0078
20 12 1 6.7493 -0.0976
20 12 2 -4.4529 -0.0030
20 12 3 1.3385 0.0529
20 12 4 4.8896 -0.1369
20 12 5 -3.0698 -0.0257
20 12 6 3.1701 0.1091
20 12 7 -2.5722 0.0839
20 12 8 0.9813 0.0439
20 12 9 -1.8821 -0.0672
20 12 10 1.2067 0.0668
20 14 0 -7.3522 -0.0497
20 14 1 8.3330 -0.0780
20 14 2 -5.8357 -0.0738
20 14 3 -6.2857 0.0597
20 14 4 3.2295 0.1038
20 14 5 -3.6593 0.0193
20 14 6 -1.0385 0.0361
20 14 7 -9.3252 -0.0085
20 14 8 -1.4005 -0.1796
20 16 0 -0.8548 -0.1581
20 16 1 7.1017 -0.0216
20 16 2 2.9752 0.0887
20 16 3 -5.2666 0.1464
20 16 4 1.4032 -0.0316
20 16 5 -3.1495 -0.0791
20 16 6 7.1407 0.0481
20 18 0 5.2257 -0.0724
20 18 1 4.2208 -0.0151
20 18 2 6.1047 0.1601
20 18 3 -2.0200 0.1656
20 18 4 -5.6840 0.1580
21 1 0 25.3317 -0.9344
21 1 1 2.6266 0.4707
21 1 2 2.2262 -0.0917
21 1 3 -6.3129 0.1574
21 1 4 -13.4915 0.3277
21 1 5 -3.9802 -0.3944
21 1 6 15.7427 -0.1492
21 1 7 8.7134 -0.0327
21 1 8 5.3783 -0.1508
21 1 9 0.4768 0.2877
21 1 10 -8.7560 0.2344
21 1 11 -5.2069 -0.0408
21 1 12 2.2170 -0.0151
21 3 0 6.0004 -0.0031
21 3 1 -3.3891 0.0487
21 3 2 8.2020 -0.0043
21 3 3 -6.8826 -0.1577
21 3 4 -13.7525 -0.0349
21 3 5 -4.0674 -0.0418
21 3 6 0.5745 0.0219
21 3 7 3.0713 0.1449
21 3 8 6.4032 -0.0428
21 3 9 4.7052 -0.0862
21 3 10 -7.4719 -0.0051
21 3 11 -4.8180 0.0871
21 3 12 -10.6769 0.0120
21 5 0 -0.6931 -0.0415
21 5 1 6.3576 0.0325
21 5 2 6.5293 0.0117
21 5 3 8.2847 0.0704
21 5 4 -12.8461 0.1286
21 5 5 -0.7198 -0.0547
21 5 6 7.7933 -0.0924
21 5 7 6.1465 0.0343
21 5 8 1.5644 -0.0866
21 5 9 1.2726 0.0943
21 5 10 -1.0119 0.1720
21 5 11 1.3800 -0.1091
21 7 0 1.8344 -0.1203
21 7 1 5.6507 -0.1275
21 7 2 4.7213 -0.0287
21 7 3 11.0736 -0.0653
21 7 4 -1.9662 0.0530
21 7 5 -12.4113 0.1059
21 7 6 3.2010 0.0441
21 7 7 0.8450 0.0433
21 7 8 3.9107 0.0325
21 7 9 3.8716 -0.0488
21 7 10 -5.9596 -0.0521
21 7 11 1.0412 0.0403
21 9 0 3.9245 -0.0298
21 9 1 3.5560 -0.0471
21 9 2 15.3930 0.0459
21 9 3 0.3710 -0.0110
21 9 4 -1.5556 0.0111
21 9 5 -9.8882 0.0555
21 9 6 -5.9837 -0.1182
21 9 7 3.1953 -0.0000
21 9 8 2.5914 -0.0739
21 9 9 4.4233 -0.1049
21 9 10 -3.4831 0.2922
21 11 0 -15.7630 -0.0587
21 11 1 -13.6486 -0.0364
21 11 2 -0.6136 0.0122
21 11 3 4.6570 0.0526
21 11 4 -5.0380 0.0294
21 11 5 -3.3782 -0.0202
21 11 6 5.2962 -0.0311
21 11 7 -5.4586 -0.0798
21 11 8 4.0942 -0.0926
21 11 9 0.7163 0.1109
21 13 0 0.7645 -0.0135
21 13 1 -7.9329 0.0277
21 13 2 -5.0561 0.0275
21 13 3 9.6873 0.0347
21 13 4 1.2474 -0.0088
21 13 5 -2.2583 -0.0771
21 13 6 -2.4790 0.0078
21 13 7 -0.9905 -0.0868
21 13 8 -4.8375 -0.0096
21 15 0 3.9766 0.1284
21 15 1 -1.3117 0.0261
21 15 2 -3.4473 0.1027
21 15 3 7.6813 -0.0896
21 15 4 -0.8941 -0.1139
21 15 5 -5.0292 0.1335
21 15 6 2.5056 -0.0450
21 17 0 2.8659 -0.0953
21 17 1 -0.6046 0.0073
21 17 2 -2.9974 -0.1647
21 17 3 -0.2514 -0.1804
22 0 0 -6.7204 -1.5500
22 0 2 -7.5469 -0.2891
22 0 4 8.4109 0.6050
22 0 6 -0.0366 -0.2212
22 0 8 0.7219 -0.0871
22 0 10 5.4287 0.3488
22 2 0 -5.9324 0.0227
22 2 1 1.7191 0.5390
22 2 2 -8.9178 0.0960
22 2 3 -3.1296 -0.1222
22 2 4 6.0046 0.0920
22 2 5 -6.2822 -0.1698
22 2 6 -7.2644 -0.0345
22 2 7 -3.6179 0.0092
22 2 8 -4.4245 -0.0991
22 2 9 0.7338 0.1050
22 2 10 7.5125 0.0722
22 2 11 -3.5915 -0.0690
22 4 0 -15.4891 -0.2350
22 4 1 -0.8127 -0.0342
22 4 2 3.4156 -0.0219
22 4 3 -3.3017 0.0042
22 4 4 13.5333 0.1955
22 4 5 4.7514 -0.0022
22 4 6 -8.8834 0.0821
22 4 7 2.4823 -0.0278
22 4 8 -4.9960 -0.1642
22 4 9 -3.9805 -0.0662
22 4 10 6.8740 -0.0404
22 4 11 -1.3734 -0.0378
22 6 0 -2.0523 0.0037
22 6 1 -5.4877 -0.0341
22 6 2 0.5284 0.0040
22 6 3 4.3702 -0.0705
22 6 4 11.5916 -0.0031
22 6 5 4.9378 0.0102
22 6 6 -2.1716 -0.0839
22 6 7 -6.0728 0.0354
22 6 8 -1.8103 -0.0461
22 6 9 -2.7196 -0.0168
22 6 10 4.0991 0.1389
22 8 0 0.0603 -0.0125
22 8 1 1.9757 0.0835
22 8 2 -2.8257 0.0322
22 8 3 1.9392 0.0042
22 8 4 5.4369 0.1147
22 8 5 5.8774 -0.0079
22 8 6 -7.4022 -0.1527
22 8 7 1.4187 -0.1001
22 8 8 -1.2018 -0.0136
22 8 9 0.5947 0.0409
22 10 0 3.0580 0.0678
22 10 1 -1.8156 0.0608
22 10 2 -4.0161 0.0442
22 10 3 -8.0866 0.0183
22 10 4 2.1648 -0.1068
22 10 5 -3.9948 -0.0147
22 10 6 4.6085 -0.0002
22 10 7 -4.5025 0.0210
22 10 8 1.0324 0.3000
22 12 0 -4.7992 0.0870
22 12 1 -1.1261 0.0205
22 12 2 -2.0885 -0.0476
22 12 3 -7.0419 -0.0477
22 12 4 7.7306 -0.0280
22 12 5 9.3800 0.0365
22 12 6 0.5442 -0.0469
22 12 7 -1.9198 0.1173
22 14 0 0.8546 0.0814
22 14 1 7.3031 -0.0340
22 14 2 -0.1244 -0.2084
22 14 3 2.1925 0.0258
22 14 4 -2.9433 0.2067
22 14 5 2.2741 -0.0201
22 16 0 -0.3415 0.0723
22 16 1 -1.2549 -0.0478
22 16 2 3.0325 -0.1658
22 16 3 -3.7838 -0.1748
23 1 0 -8.6406 -0.6374
23 1 1 -5.8878 0.3207
23 1 2 -0.6129 -0.1093
23 1 3 4.9761 0.1579
23 1 4 -6.9719 0.2241
23 1 5 -1.4591 -0.1825
23 1 6 1.2943 -0.0928
23 1 7 -6.0380 -0.1777
23 1 8 0.4184 -0.0806
23 1 9 -5.3116 0.1695
23 1 10 0.2958 0.2129
23 3 0 9.2980 0.0141
23 3 1 -4.5630 0.0664
23 3 2 -2.6418 0.0242
23 3 3 -4.2989 -0.1614
23 3 4 -1.0962 0.0017
23 3 5 -3.2227 0.0684
23 3 6 4.3359 -0.0348
23 3 7 3.6567 0.0767
23 3 8 3.1479 0.0075
23 3 9 -1.5885 -0.0006
23 3 10 -1.1292 -0.1092
23 5 0 -6.9511 -0.0654
23 5 1 -3.0920 0.0802
23 5 2 -4.2477 0.0251
23 5 3 -2.8777 0.0475
23 5 4 2.9601 0.1500
23 5 5 3.2269 -0.0603
23 5 6 5.0718 -0.1306
23 5 7 -4.0560 0.0277
23 5 8 4.8119 0.0585
23 5 9 2.4816 0.1159
23 7 0 -2.8737 0.0214
23 7 1 2.9418 -0.0234
23 7 2 -7.2961 -0.0544
23 7 3 2.7029 -0.0569
23 7 4 -5.3021 -0.0085
23 7 5 1.5238 0.0378
23 7 6 1.2203 0.0049
23 7 7 -1.2487 0.1544
23 7 8 -3.3780 0.0709
23 9 0 17.9828 0.0645
23 9 1 -3.1634 -0.0874
23 9 2 -4.1153 -0.0129
23 9 3 -7.7407 -0.1045
23 9 4 -5.5236 0.1129
23 9 5 -5.2066 0.0773
23 9 6 3.6723 -0.1259
23 9 7 1.5961 0.1358
23 9 8 -2.5190 -0.0473
23 11 0 5.7457 -0.1004
23 11 1 10.6763 -0.0227
23 11 2 -8.2399 -0.1614
23 11 3 -7.8250 0.0727
23 11 4 2.4180 0.0914
23 11 5 -5.2564 -0.1182
23 11 6 0.4274 0.1140
23 13 0 -8.5284 0.1615
23 13 1 10.8940 -0.0905
23 13 2 3.5363 0.0044
23 13 3 -2.2020 0.1008
23 13 4 2.2351 -0.1878
23 13 5 3.4936 0.1668
23 15 0 -2.5225 -0.1018
23 15 1 4.0225 0.0623
23 15 2 4.1073 -0.0189
24 0 0 -6.9441 -1.4805
24 0 2 9.6026 -0.3173
24 0 4 -2.9805 0.5849
24 0 6 -7.1405 -0.1599
24 0 8 -0.0251 -0.2705
24 2 0 -2.2359 0.0622
24 2 1 -10.1012 0.3972
24 2 2 0.8954 0.0543
24 2 3 1.5605 0.0293
24 2 4 0.9993 0.0016
24 2 5 3.2025 -0.2712
24 2 6 -4.8657 -0.0090
24 2 7 1.7923 0.1479
24 2 8 -0.9632 0.0411
24 4 0 -3.1134 -0.2756
24 4 1 2.2462 -0.1203
24 4 2 -4.4829 -0.0197
24 4 3 4.2660 -0.0074
24 4 4 0.3462 0.0826
24 4 5 7.0715 -0.0117
24 4 6 4.9723 0.1057
24 4 7 -0.5502 0.0523
24 4 8 3.9542 -0.2601
24 6 0 -8.8094 0.0104
24 6 1 3.3102 -0.1044
24 6 2 3.3663 0.0467
24 6 3 0.2281 -0.0900
24 6 4 0.0278 -0.0401
24 6 5 -6.4894 -0.0369
24 6 6 0.5974 0.0622
24 6 7 -2.2389 -0.0108
24 8 0 1.4324 -0.1364
24 8 1 1.6248 -0.0287
24 8 2 14.1049 0.1107
24 8 3 4.3733 0.1681
24 8 4 -1.3554 -0.0236
24 8 5 1.3148 0.1055
24 8 6 -8.0893 -0.1263
24 8 7 2.0402 -0.1289
24 10 0 4.2632 -0.0612
24 10 1 -5.5187 0.0720
24 10 2 9.1508 0.2184
24 10 3 7.4057 -0.1497
24 10 4 -5.0307 -0.1248
24 10 5 1.8081 0.0104
24 12 0 -3.4410 0.0053
24 12 1 -9.1455 0.1876
24 12 2 0.8691 0.1059
24 12 3 7.2985 0.0322
24 14 0 -1.8387 -0.1397
25 1 0 5.6108 -0.5828
25 1 1 2.4314 0.1519
25 1 2 -8.3680 -0.1125
25 1 3 -6.5085 0.0411
25 1 4 7.1674 0.2360
25 1 5 -1.1571 -0.0411
25 1 6 1.6231 0.0900
25 1 7 -0.5015 0.1128
25 3 0 -3.4351 -0.0668
25 3 1 3.7016 0.0732
25 3 2 -9.8325 0.0071
25 3 3 -6.7170 -0.0800
25 3 4 -1.9041 0.1759
25 3 5 -0.5471 0.0445
25 3 6 -2.1090 -0.0713
25 3 7 0.6798 -0.0928
25 5 0 -4.8760 -0.0747
25 5 1 7.9588 0.1607
25 5 2 -3.9952 0.1566
25 5 3 -2.1420 0.0626
25 5 4 1.9720 0.0235
25 5 5 -4.2555 0.0022
25 5 6 -3.3662 -0.2394
25 7 0 1.3444 -0.0805
25 7 1 10.1201 0.0613
25 7 2 -3.0260 0.0576
25 7 3 -1.7124 -0.2131
25 7 4 2.3551 0.1575
25 7 5 -7.4673 -0.1129
25 9 0 -1.2450 -0.1095
25 9 1 5.9020 0.0877
25 9 2 -0.1433 -0.0894
25 9 3 -6.6224 0.0544
25 9 4 3.2647 -0.0060
25 11 0 0.3456 0.0720
25 11 1 -5.9434 -0.2145
25 11 2 -0.3792 0.0154
26 0 0 5.3600 -1.2374
26 0 2 3.6749 -0.3591
26 0 4 -7.5334 0.4495
26 2 0 2.6949 0.1443
26 2 1 0.4006 0.2950
26 2 2 9.8541 0.1340
26 2 3 -4.3198 0.0416
26 2 4 -7.5716 -0.0847
26 2 5 0.4094 -0.2292
26 4 0 -6.5326 -0.0782
26 4 1 -4.8014 0.0614
26 4 2 9.4532 -0.3251
26 4 3 2.9080 -0.1993
26 4 4 -7.3546 0.2375
26 4 5 -0.7735 -0.1253
26 6 0 3.3525 0.0848
26 6 1 -0.2118 -0.1380
26 6 2 2.6617 -0.0786
26 6 3 6.8396 0.0048
26 6 4 -6.0088 -0.2020
26 8 0 3.1272 -0.0188
26 8 1 0.1211 -0.0436
26 8 2 -0.6899 0.0864
27 1 0 -3.4617 -0.6243
27 1 1 -1.9014 0.2682
27 1 2 -0.6639 -0.2242
27 1 3 0.1673 -0.1381
27 3 0 -11.5912 0.0459
27 3 1 -3.7660 0.0430
27 3 2 1.3656 -0.0825
27 5 0 -4.8425 -0.0808
27 5 1 -6.3814 0.1694
0 0 0 0.0 0.0
;
_shelx_fab_checksum              15965
_olex2_submission_special_instructions 'No special instructions were received'
_oxdiff_exptl_absorpt_empirical_details
;
Empirical correction (ABSPACK) includes:
- Absorption correction using spherical harmonics
- Frame scaling
;
_oxdiff_exptl_absorpt_empirical_full_max 2.223
_oxdiff_exptl_absorpt_empirical_full_min 0.479
loop_
_space_group_symop_operation_xyz
'x, y, z'
'-x, y, -z+1/2'
'x+1/2, y+1/2, z'
'-x+1/2, y+1/2, -z+1/2'
'-x, -y, -z'
'x, -y, z-1/2'
'-x+1/2, -y+1/2, -z'
'x+1/2, -y+1/2, z-1/2'
loop_
_atom_site_label
_atom_site_type_symbol
_atom_site_fract_x
_atom_site_fract_y
_atom_site_fract_z
_atom_site_U_iso_or_equiv
_atom_site_adp_type
_atom_site_occupancy
_atom_site_site_symmetry_order
_atom_site_calc_flag
_atom_site_refinement_flags_posn
_atom_site_refinement_flags_adp
_atom_site_refinement_flags_occupancy
_atom_site_disorder_assembly
_atom_site_disorder_group
Zn01 Zn 0.51070(2) 0.11427(2) 0.33173(3) 0.02055(18) Uani 1 1 d . U . . .
Zn02 Zn 0.5000 0.61392(3) 0.2500 0.0574(3) Uani 1 2 d S TU P . .
O003 O 0.49246(11) 0.19713(9) 0.30946(14) 0.0266(5) Uani 1 1 d . U . . .
O004 O 0.92443(10) 0.59836(10) 0.31859(15) 0.0278(5) Uani 1 1 d . U . . .
O005 O 0.90984(10) 0.63092(10) 0.20304(14) 0.0266(5) Uani 1 1 d . U . . .
O006 O 0.52207(10) 1.03080(9) 0.30724(15) 0.0281(5) Uani 1 1 d . U . . .
N007 N 0.53645(13) 0.11407(11) 0.44094(18) 0.0261(6) Uani 1 1 d . U . . .
N008 N 0.56193(12) 0.67556(12) 0.25990(18) 0.0280(7) Uani 1 1 d . U . . .
N00A N 0.56186(14) 0.08644(13) 0.55605(17) 0.0316(7) Uani 1 1 d . U . . .
N00B N 0.56164(13) 0.55260(12) 0.2589(2) 0.0335(7) Uani 1 1 d . U . . .
C00C C 0.5000 0.22204(19) 0.2500 0.0230(10) Uani 1 2 d S TU P . .
C00D C 0.5000 0.28530(19) 0.2500 0.0263(10) Uani 1 2 d S TU P . .
C00E C 0.5000 0.8235(2) 0.2500 0.0274(11) Uani 1 2 d S TU P . .
C00F C 0.5000 1.00626(19) 0.2500 0.0224(10) Uani 1 2 d S TU P . .
C00G C 0.55308(15) 0.73263(14) 0.2604(2) 0.0269(8) Uani 1 1 d . U . . .
C00H C 0.89282(16) 0.61582(13) 0.2629(2) 0.0270(8) Uani 1 1 d . U . . .
C00I C 0.5000 0.4040(2) 0.2500 0.0339(10) Uani 1 2 d S TU P . .
C00J C 0.5000 0.94261(18) 0.2500 0.0242(10) Uani 1 2 d S TU P . .
C00K C 0.5008(2) 0.02125(17) 0.4757(2) 0.0398(10) Uani 1 1 d . U . . .
H00K H 0.4791 0.0171 0.4288 0.048 Uiso 1 1 calc R U . . .
C00L C 0.5000 0.76068(19) 0.2500 0.0262(10) Uani 1 2 d S TU P . .
C00M C 0.53356(15) 0.07306(15) 0.4902(2) 0.0280(8) Uani 1 1 d . U . . .
C00N C 0.60812(15) 0.76170(15) 0.2706(2) 0.0315(8) Uani 1 1 d . U . . .
H00N H 0.6142 0.8016 0.2739 0.038 Uiso 1 1 calc R U . . .
C00O C 0.64919(17) 0.72061(15) 0.2745(2) 0.0342(9) Uani 1 1 d . U . . .
H00O H 0.6895 0.7264 0.2805 0.041 Uiso 1 1 calc R U . . .
C00P C 0.52152(17) 0.85354(16) 0.3137(2) 0.0335(8) Uani 1 1 d . U . . .
H00P H 0.5352 0.8337 0.3575 0.040 Uiso 1 1 calc R U . . .
C00Q C 0.82912(16) 0.61632(14) 0.2647(2) 0.0301(8) Uani 1 1 d . U . . .
C00R C 0.52257(16) 0.91256(15) 0.3122(2) 0.0298(8) Uani 1 1 d . U . . .
H00R H 0.5390 0.9328 0.3544 0.036 Uiso 1 1 calc R U . . .
C00S C 0.62014(15) 0.66709(15) 0.2678(2) 0.0287(8) Uani 1 1 d . U . . .
C00T C 0.58587(18) 0.13899(16) 0.5489(2) 0.0353(9) Uani 1 1 d . U . . .
C00U C 0.57041(17) 0.15670(15) 0.4771(2) 0.0320(8) Uani 1 1 d . U . . .
C00V C 0.71117(17) 0.61485(14) 0.2698(3) 0.0348(9) Uani 1 1 d . U . . .
C00W C 0.4923(2) 0.37459(16) 0.3131(3) 0.0449(10) Uani 1 1 d . U . . .
H00W H 0.4866 0.3949 0.3566 0.054 Uiso 1 1 calc R U . . .
C00X C 0.73375(17) 0.6324(2) 0.2062(3) 0.0411(10) Uani 1 1 d . U . . .
H00X H 0.7089 0.6435 0.1639 0.049 Uiso 1 1 calc R U . . .
C00Y C 0.4927(2) 0.31535(16) 0.3141(2) 0.0408(10) Uani 1 1 d . U . . .
H00Y H 0.4880 0.2955 0.3582 0.049 Uiso 1 1 calc R U . . .
C00Z C 0.80690(18) 0.59979(19) 0.3290(2) 0.0392(9) Uani 1 1 d . U . . .
H00Z H 0.8317 0.5891 0.3715 0.047 Uiso 1 1 calc R U . . .
C010 C 0.64739(16) 0.61407(14) 0.2688(3) 0.0330(9) Uani 1 1 d . U . . .
C011 C 0.55319(16) 0.49533(15) 0.2576(3) 0.0370(10) Uani 1 1 d . U . . .
C012 C 0.79272(16) 0.63335(18) 0.2050(2) 0.0378(9) Uani 1 1 d . U . . .
H012 H 0.8080 0.6461 0.1620 0.045 Uiso 1 1 calc R U . . .
C013 C 0.74775(17) 0.59926(18) 0.3297(3) 0.0399(9) Uani 1 1 d . U . . .
H013 H 0.7325 0.5877 0.3732 0.048 Uiso 1 1 calc R U . . .
C014 C 0.5000 0.4675(2) 0.2500 0.0329(12) Uani 1 2 d S TU P . .
C015 C 0.61963(16) 0.56112(15) 0.2654(3) 0.0363(9) Uani 1 1 d . U . . .
C016 C 0.60759(18) 0.46694(17) 0.2622(3) 0.0520(13) Uani 1 1 d . U . . .
H016 H 0.6132 0.4270 0.2610 0.062 Uiso 1 1 calc R U . . .
C018 C 0.64911(17) 0.50646(16) 0.2686(3) 0.0483(12) Uani 1 1 d . U . . .
H018 H 0.6893 0.5001 0.2740 0.058 Uiso 1 1 calc R U . . .
C019 C 0.5887(2) 0.20873(18) 0.4516(3) 0.0530(13) Uani 1 1 d . U . . .
H019 H 0.5798 0.2203 0.4018 0.064 Uiso 1 1 calc R U . . .
C01A C 0.6171(2) 0.1744(2) 0.6014(3) 0.0535(13) Uani 1 1 d . U . . .
H01A H 0.6265 0.1630 0.6512 0.064 Uiso 1 1 calc R U . . .
C01B C 0.6204(3) 0.2422(2) 0.5028(3) 0.078(2) Uani 1 1 d . U . . .
H01B H 0.6342 0.2777 0.4875 0.094 Uiso 1 1 calc R U . . .
C01C C 0.6331(3) 0.2262(2) 0.5764(3) 0.079(2) Uani 1 1 d . U . . .
H01C H 0.6534 0.2518 0.6101 0.095 Uiso 1 1 calc R U . . .
loop_
_atom_site_aniso_label
_atom_site_aniso_U_11
_atom_site_aniso_U_22
_atom_site_aniso_U_33
_atom_site_aniso_U_23
_atom_site_aniso_U_13
_atom_site_aniso_U_12
Zn01 0.0208(3) 0.0090(3) 0.0322(3) 0.00103(17) 0.0045(2) -0.00046(16)
Zn02 0.0190(4) 0.0112(4) 0.1409(8) 0.000 0.0055(5) 0.000
O003 0.0286(13) 0.0113(11) 0.0404(13) -0.0014(10) 0.0067(10) 0.0000(9)
O004 0.0178(12) 0.0176(11) 0.0474(15) 0.0080(10) 0.0014(10) -0.0020(9)
O005 0.0187(12) 0.0207(12) 0.0412(14) 0.0021(10) 0.0069(10) 0.0050(9)
O006 0.0233(13) 0.0118(11) 0.0482(15) 0.0008(10) 0.0002(10) 0.0015(9)
N007 0.0192(15) 0.0154(14) 0.0429(18) 0.0018(11) -0.0001(12) -0.0019(10)
N008 0.0174(14) 0.0095(13) 0.0577(19) -0.0024(12) 0.0074(13) -0.0004(10)
N00A 0.0341(18) 0.0252(16) 0.0348(16) 0.0061(12) 0.0007(13) -0.0061(13)
N00B 0.0170(15) 0.0109(13) 0.072(2) -0.0002(13) 0.0020(14) 0.0002(11)
C00C 0.017(2) 0.013(2) 0.040(3) 0.000 0.0027(19) 0.000
C00D 0.024(3) 0.012(2) 0.043(3) 0.000 0.003(2) 0.000
C00E 0.018(2) 0.018(2) 0.047(3) 0.000 0.007(2) 0.000
C00F 0.013(2) 0.014(2) 0.040(3) 0.000 0.0034(19) 0.000
C00G 0.0219(18) 0.0103(15) 0.048(2) 0.0007(14) 0.0027(15) -0.0017(12)
C00H 0.0223(18) 0.0157(16) 0.043(2) 0.0010(14) 0.0043(15) 0.0034(12)
C00I 0.017(2) 0.0182(19) 0.066(3) 0.000 0.0028(19) 0.000
C00J 0.021(2) 0.007(2) 0.044(3) 0.000 0.003(2) 0.000
C00K 0.054(3) 0.0235(18) 0.042(2) 0.0032(16) 0.0033(18) -0.0128(17)
C00L 0.022(2) 0.011(2) 0.045(3) 0.000 0.002(2) 0.000
C00M 0.0250(18) 0.0212(17) 0.0392(19) 0.0043(14) 0.0094(15) 0.0034(13)
C00N 0.0210(18) 0.0136(16) 0.060(2) 0.0001(15) 0.0040(16) -0.0021(13)
C00O 0.0236(19) 0.0180(17) 0.061(3) 0.0006(16) 0.0055(17) -0.0017(14)
C00P 0.036(2) 0.0189(18) 0.045(2) 0.0033(15) 0.0017(16) -0.0002(15)
C00Q 0.0192(18) 0.0224(18) 0.048(2) -0.0002(15) 0.0029(15) -0.0002(13)
C00R 0.0268(19) 0.0171(17) 0.044(2) -0.0012(14) -0.0021(15) -0.0013(13)
C00S 0.0202(17) 0.0167(17) 0.048(2) 0.0013(14) -0.0002(15) -0.0005(13)
C00T 0.039(2) 0.0252(19) 0.040(2) -0.0011(15) -0.0022(16) -0.0059(16)
C00U 0.039(2) 0.0192(17) 0.0369(19) 0.0006(14) -0.0009(16) -0.0121(15)
C00V 0.024(2) 0.0129(17) 0.068(3) 0.0004(15) 0.0094(18) 0.0048(13)
C00W 0.061(3) 0.0117(16) 0.064(2) -0.0069(13) 0.0160(19) 0.0039(16)
C00X 0.0199(19) 0.044(2) 0.059(3) 0.0078(19) 0.0023(17) 0.0046(17)
C00Y 0.064(3) 0.0126(18) 0.047(2) 0.0005(15) 0.010(2) 0.0043(17)
C00Z 0.026(2) 0.043(2) 0.049(2) 0.0106(18) 0.0070(17) 0.0023(17)
C010 0.0212(19) 0.0156(17) 0.062(3) -0.0043(15) 0.0041(17) 0.0010(13)
C011 0.0181(19) 0.0132(16) 0.080(3) 0.0027(17) 0.0050(18) 0.0056(13)
C012 0.0203(19) 0.040(2) 0.053(2) 0.0093(19) 0.0041(16) 0.0018(16)
C013 0.021(2) 0.038(2) 0.062(3) 0.0073(19) 0.0124(18) -0.0038(16)
C014 0.022(3) 0.0180(19) 0.059(3) 0.000 0.008(2) 0.000
C015 0.0164(18) 0.0174(18) 0.076(3) 0.0004(17) 0.0083(17) 0.0028(13)
C016 0.028(2) 0.0135(18) 0.115(4) 0.000(2) 0.009(2) 0.0081(15)
C018 0.0176(19) 0.0146(18) 0.113(4) -0.004(2) 0.010(2) 0.0038(14)
C019 0.081(4) 0.026(2) 0.049(3) 0.0054(18) -0.004(2) -0.023(2)
C01A 0.066(3) 0.043(3) 0.046(2) 0.006(2) -0.017(2) -0.022(2)
C01B 0.127(6) 0.041(3) 0.059(3) 0.013(2) -0.026(3) -0.055(3)
C01C 0.115(5) 0.049(3) 0.061(3) 0.005(2) -0.036(3) -0.047(3)
loop_
_atom_type_symbol
_atom_type_description
_atom_type_scat_dispersion_real
_atom_type_scat_dispersion_imag
_atom_type_scat_source
C C 0.0137 0.0067 'International Tables Vol C Tables 4.2.6.8 and 6.1.1.4'
H H 0.0000 0.0000 'International Tables Vol C Tables 4.2.6.8 and 6.1.1.4'
N N 0.0241 0.0134 'International Tables Vol C Tables 4.2.6.8 and 6.1.1.4'
O O 0.0389 0.0241 'International Tables Vol C Tables 4.2.6.8 and 6.1.1.4'
Zn Zn -2.7473 0.5279 'International Tables Vol C Tables 4.2.6.8 and 6.1.1.4'
loop_
_geom_angle_atom_site_label_1
_geom_angle_atom_site_label_2
_geom_angle_atom_site_label_3
_geom_angle
_geom_angle_site_symmetry_1
_geom_angle_site_symmetry_3
_geom_angle_publ_flag
O003 Zn01 Zn01 77.94(7) . 2_655 ?
O003 Zn01 O004 88.22(10) . 3_445 ?
O003 Zn01 O005 86.21(10) . 4_645 ?
O003 Zn01 O006 155.82(11) . 1_545 ?
O004 Zn01 Zn01 80.42(8) 3_445 2_655 ?
O004 Zn01 O005 155.62(11) 3_445 4_645 ?
O005 Zn01 Zn01 75.21(7) 4_645 2_655 ?
O006 Zn01 Zn01 77.89(8) 1_545 2_655 ?
O006 Zn01 O004 87.23(10) 1_545 3_445 ?
O006 Zn01 O005 88.20(10) 1_545 4_645 ?
N007 Zn01 Zn01 172.33(9) . 2_655 ?
N007 Zn01 O003 103.48(10) . . ?
N007 Zn01 O004 107.08(11) . 3_445 ?
N007 Zn01 O005 97.29(11) . 4_645 ?
N007 Zn01 O006 100.56(11) . 1_545 ?
N008 Zn02 N008 89.83(16) 2_655 . ?
N00B Zn02 N008 179.51(13) 2_655 . ?
N00B Zn02 N008 179.51(13) . 2_655 ?
N00B Zn02 N008 90.15(12) . . ?
N00B Zn02 N008 90.15(12) 2_655 2_655 ?
N00B Zn02 N00B 89.87(17) 2_655 . ?
C00C O003 Zn01 124.8(2) . . ?
C00H O004 Zn01 121.2(2) . 3 ?
C00H O005 Zn01 126.9(2) . 4_655 ?
C00F O006 Zn01 125.1(2) . 1_565 ?
C00M N007 Zn01 129.8(2) . . ?
C00M N007 C00U 105.7(3) . . ?
C00U N007 Zn01 123.7(2) . . ?
C00G N008 Zn02 126.3(2) . . ?
C00G N008 C00S 107.1(3) . . ?
C00S N008 Zn02 126.6(2) . . ?
C00M N00A C00T 107.0(3) . . ?
C011 N00B Zn02 126.7(2) . . ?
C011 N00B C015 106.7(3) . . ?
C015 N00B Zn02 126.5(2) . . ?
O003 C00C O003 124.9(4) . 2_655 ?
O003 C00C C00D 117.6(2) . . ?
O003 C00C C00D 117.6(2) 2_655 . ?
C00Y C00D C00C 120.4(2) 2_655 . ?
C00Y C00D C00C 120.4(2) . . ?
C00Y C00D C00Y 119.2(5) . 2_655 ?
C00P C00E C00L 120.2(2) . . ?
C00P C00E C00L 120.2(2) 2_655 . ?
C00P C00E C00P 119.5(5) 2_655 . ?
O006 C00F O006 125.2(4) 2_655 . ?
O006 C00F C00J 117.4(2) 2_655 . ?
O006 C00F C00J 117.4(2) . . ?
N008 C00G C00L 126.7(3) . . ?
N008 C00G C00N 109.3(3) . . ?
C00L C00G C00N 124.0(3) . . ?
O004 C00H O005 125.3(3) . . ?
O004 C00H C00Q 118.7(3) . . ?
O005 C00H C00Q 115.9(3) . . ?
C00W C00I C00W 119.6(5) 2_655 . ?
C00W C00I C014 120.2(2) 2_655 . ?
C00W C00I C014 120.2(2) . . ?
C00R C00J C00F 120.5(2) . . ?
C00R C00J C00F 120.6(2) 2_655 . ?
C00R C00J C00R 118.9(4) . 2_655 ?
C00K C00K H00K 118.0 5_656 . ?
C00K C00K C00M 124.1(5) 5_656 . ?
C00M C00K H00K 118.0 . . ?
C00G C00L C00E 118.0(2) 2_655 . ?
C00G C00L C00E 118.0(2) . . ?
C00G C00L C00G 124.0(4) . 2_655 ?
N007 C00M N00A 112.3(3) . . ?
N007 C00M C00K 123.7(3) . . ?
N00A C00M C00K 123.9(3) . . ?
C00G C00N H00N 126.7 . . ?
C00O C00N C00G 106.7(3) . . ?
C00O C00N H00N 126.7 . . ?
C00N C00O H00O 126.5 . . ?
C00N C00O C00S 107.0(3) . . ?
C00S C00O H00O 126.5 . . ?
C00E C00P H00P 120.3 . . ?
C00R C00P C00E 119.5(4) . . ?
C00R C00P H00P 120.3 . . ?
C00Z C00Q C00H 119.2(4) . . ?
C012 C00Q C00H 121.2(4) . . ?
C012 C00Q C00Z 119.6(4) . . ?
C00J C00R H00R 119.4 . . ?
C00P C00R C00J 121.2(3) . . ?
C00P C00R H00R 119.4 . . ?
N008 C00S C00O 109.9(3) . . ?
N008 C00S C010 125.4(3) . . ?
C010 C00S C00O 124.7(3) . . ?
N00A C00T C00U 107.2(3) . . ?
N00A C00T C01A 131.0(4) . . ?
C00U C00T C01A 121.6(4) . . ?
C00T C00U N007 107.7(3) . . ?
C00T C00U C019 121.6(4) . . ?
C019 C00U N007 130.7(4) . . ?
C00X C00V C010 118.1(4) . . ?
C013 C00V C00X 119.0(4) . . ?
C013 C00V C010 122.9(4) . . ?
C00I C00W H00W 119.6 . . ?
C00I C00W C00Y 120.8(4) . . ?
C00Y C00W H00W 119.6 . . ?
C00V C00X H00X 120.1 . . ?
C012 C00X C00V 119.7(4) . . ?
C012 C00X H00X 120.1 . . ?
C00D C00Y H00Y 120.1 . . ?
C00W C00Y C00D 119.8(4) . . ?
C00W C00Y H00Y 120.1 . . ?
C00Q C00Z H00Z 120.6 . . ?
C013 C00Z C00Q 118.9(4) . . ?
C013 C00Z H00Z 120.6 . . ?
C00S C010 C00V 116.4(3) . . ?
C00S C010 C015 125.4(4) . . ?
C015 C010 C00V 118.1(3) . . ?
N00B C011 C014 126.1(3) . . ?
N00B C011 C016 109.4(3) . . ?
C014 C011 C016 124.4(4) . . ?
C00Q C012 C00X 121.0(4) . . ?
C00Q C012 H012 119.5 . . ?
C00X C012 H012 119.5 . . ?
C00V C013 C00Z 121.8(4) . . ?
C00V C013 H013 119.1 . . ?
C00Z C013 H013 119.1 . . ?
C011 C014 C00I 117.8(2) . . ?
C011 C014 C00I 117.8(2) 2_655 . ?
C011 C014 C011 124.4(5) . 2_655 ?
N00B C015 C010 125.9(3) . . ?
N00B C015 C018 109.8(3) . . ?
C010 C015 C018 124.3(3) . . ?
C011 C016 H016 125.8 . . ?
C018 C016 C011 108.4(3) . . ?
C018 C016 H016 125.8 . . ?
C015 C018 H018 127.2 . . ?
C016 C018 C015 105.6(3) . . ?
C016 C018 H018 127.2 . . ?
C00U C019 H019 122.0 . . ?
C01B C019 C00U 116.1(4) . . ?
C01B C019 H019 122.0 . . ?
C00T C01A H01A 121.9 . . ?
C01C C01A C00T 116.2(4) . . ?
C01C C01A H01A 121.9 . . ?
C019 C01B H01B 118.7 . . ?
C019 C01B C01C 122.6(4) . . ?
C01C C01B H01B 118.7 . . ?
C01A C01C C01B 121.7(4) . . ?
C01A C01C H01C 119.1 . . ?
C01B C01C H01C 119.1 . . ?
loop_
_geom_bond_atom_site_label_1
_geom_bond_atom_site_label_2
_geom_bond_distance
_geom_bond_site_symmetry_2
_geom_bond_publ_flag
Zn01 Zn01 2.9730(10) 2_655 ?
Zn01 O003 2.027(2) . ?
Zn01 O004 2.049(2) 3_445 ?
Zn01 O005 2.080(2) 4_645 ?
Zn01 O006 2.039(2) 1_545 ?
Zn01 N007 2.018(3) . ?
Zn02 N008 2.048(3) . ?
Zn02 N008 2.048(3) 2_655 ?
Zn02 N00B 2.038(3) 2_655 ?
Zn02 N00B 2.038(3) . ?
O003 C00C 1.266(3) . ?
O004 Zn01 2.049(2) 3 ?
O004 C00H 1.258(5) . ?
O005 Zn01 2.080(2) 4_655 ?
O005 C00H 1.259(5) . ?
O006 Zn01 2.039(2) 1_565 ?
O006 C00F 1.253(3) . ?
N007 C00M 1.328(5) . ?
N007 C00U 1.399(4) . ?
N008 C00G 1.359(4) . ?
N008 C00S 1.374(5) . ?
N00A C00M 1.343(5) . ?
N00A C00T 1.372(5) . ?
N00B C011 1.362(5) . ?
N00B C015 1.369(5) . ?
C00C O003 1.266(3) 2_655 ?
C00C C00D 1.488(6) . ?
C00D C00Y 1.397(5) . ?
C00D C00Y 1.397(5) 2_655 ?
C00E C00L 1.477(6) . ?
C00E C00P 1.406(5) . ?
C00E C00P 1.406(5) 2_655 ?
C00F O006 1.253(3) 2_655 ?
C00F C00J 1.498(6) . ?
C00G C00L 1.405(4) . ?
C00G C00N 1.456(5) . ?
C00H C00Q 1.502(5) . ?
C00I C00W 1.377(5) 2_655 ?
C00I C00W 1.377(5) . ?
C00I C014 1.493(7) . ?
C00J C00R 1.391(4) 2_655 ?
C00J C00R 1.391(4) . ?
C00K C00K 1.341(8) 5_656 ?
C00K H00K 0.9500 . ?
C00K C00M 1.450(5) . ?
C00L C00G 1.405(4) 2_655 ?
C00N H00N 0.9500 . ?
C00N C00O 1.363(5) . ?
C00O H00O 0.9500 . ?
C00O C00S 1.431(5) . ?
C00P H00P 0.9500 . ?
C00P C00R 1.389(5) . ?
C00Q C00Z 1.397(6) . ?
C00Q C012 1.366(6) . ?
C00R H00R 0.9500 . ?
C00S C010 1.402(5) . ?
C00T C00U 1.385(5) . ?
C00T C01A 1.411(6) . ?
C00U C019 1.396(5) . ?
C00V C00X 1.396(6) . ?
C00V C010 1.498(5) . ?
C00V C013 1.362(6) . ?
C00W H00W 0.9500 . ?
C00W C00Y 1.394(5) . ?
C00X H00X 0.9500 . ?
C00X C012 1.390(5) . ?
C00Y H00Y 0.9500 . ?
C00Z H00Z 0.9500 . ?
C00Z C013 1.392(6) . ?
C010 C015 1.404(5) . ?
C011 C014 1.404(4) . ?
C011 C016 1.437(5) . ?
C012 H012 0.9500 . ?
C013 H013 0.9500 . ?
C014 C011 1.404(4) 2_655 ?
C015 C018 1.459(5) . ?
C016 H016 0.9500 . ?
C016 C018 1.343(6) . ?
C018 H018 0.9500 . ?
C019 H019 0.9500 . ?
C019 C01B 1.374(6) . ?
C01A H01A 0.9500 . ?
C01A C01C 1.368(7) . ?
C01B H01B 0.9500 . ?
C01B C01C 1.397(8) . ?
C01C H01C 0.9500 . ?
loop_
_geom_torsion_atom_site_label_1
_geom_torsion_atom_site_label_2
_geom_torsion_atom_site_label_3
_geom_torsion_atom_site_label_4
_geom_torsion
_geom_torsion_site_symmetry_1
_geom_torsion_site_symmetry_2
_geom_torsion_site_symmetry_3
_geom_torsion_site_symmetry_4
_geom_torsion_publ_flag
Zn01 O003 C00C O003 16.63(12) . . . 2_655 ?
Zn01 O003 C00C C00D -163.37(12) . . . . ?
Zn01 O004 C00H O005 18.9(5) 3 . . . ?
Zn01 O004 C00H C00Q -164.6(2) 3 . . . ?
Zn01 O005 C00H O004 15.8(5) 4_655 . . . ?
Zn01 O005 C00H C00Q -160.9(2) 4_655 . . . ?
Zn01 O006 C00F O006 15.91(12) 1_565 . . 2_655 ?
Zn01 O006 C00F C00J -164.09(12) 1_565 . . . ?
Zn01 N007 C00M N00A 171.9(2) . . . . ?
Zn01 N007 C00M C00K -11.4(5) . . . . ?
Zn01 N007 C00U C00T -172.2(3) . . . . ?
Zn01 N007 C00U C019 7.1(7) . . . . ?
Zn02 N008 C00G C00L -3.9(5) . . . . ?
Zn02 N008 C00G C00N 178.3(3) . . . . ?
Zn02 N008 C00S C00O -178.8(3) . . . . ?
Zn02 N008 C00S C010 1.4(6) . . . . ?
Zn02 N00B C011 C014 -0.1(6) . . . . ?
Zn02 N00B C011 C016 177.5(3) . . . . ?
Zn02 N00B C015 C010 1.6(7) . . . . ?
Zn02 N00B C015 C018 -178.6(3) . . . . ?
O003 C00C C00D C00Y -179.1(3) . . . 2_655 ?
O003 C00C C00D C00Y 0.9(3) . . . . ?
O003 C00C C00D C00Y -179.1(3) 2_655 . . . ?
O003 C00C C00D C00Y 0.9(3) 2_655 . . 2_655 ?
O004 C00H C00Q C00Z 2.8(5) . . . . ?
O004 C00H C00Q C012 -178.2(3) . . . . ?
O005 C00H C00Q C00Z 179.6(3) . . . . ?
O005 C00H C00Q C012 -1.3(5) . . . . ?
O006 C00F C00J C00R -178.5(2) . . . 2_655 ?
O006 C00F C00J C00R -178.5(2) 2_655 . . . ?
O006 C00F C00J C00R 1.5(2) 2_655 . . 2_655 ?
O006 C00F C00J C00R 1.5(2) . . . . ?
N007 C00U C019 C01B 177.6(5) . . . . ?
N008 C00G C00L C00E -177.9(3) . . . . ?
N008 C00G C00L C00G 2.1(3) . . . 2_655 ?
N008 C00G C00N C00O 1.3(5) . . . . ?
N008 C00S C010 C00V 173.6(4) . . . . ?
N008 C00S C010 C015 -3.0(7) . . . . ?
N00A C00T C00U N007 0.2(5) . . . . ?
N00A C00T C00U C019 -179.2(4) . . . . ?
N00A C00T C01A C01C -177.2(6) . . . . ?
N00B C011 C014 C00I -180.0(3) . . . . ?
N00B C011 C014 C011 0.0(3) . . . 2_655 ?
N00B C011 C016 C018 1.9(6) . . . . ?
N00B C015 C018 C016 1.3(6) . . . . ?
C00C C00D C00Y C00W -179.4(3) . . . . ?
C00E C00P C00R C00J 3.4(5) . . . . ?
C00F C00J C00R C00P 178.3(3) . . . . ?
C00G N008 C00S C00O 0.8(4) . . . . ?
C00G N008 C00S C010 -179.0(4) . . . . ?
C00G C00N C00O C00S -0.7(5) . . . . ?
C00H C00Q C00Z C013 -178.7(4) . . . . ?
C00H C00Q C012 C00X 178.3(4) . . . . ?
C00I C00W C00Y C00D -1.1(7) . . . . ?
C00K C00K C00M N007 177.6(5) 5_656 . . . ?
C00K C00K C00M N00A -6.1(8) 5_656 . . . ?
C00L C00E C00P C00R 178.3(3) . . . . ?
C00L C00G C00N C00O -176.5(3) . . . . ?
C00M N007 C00U C00T -1.0(4) . . . . ?
C00M N007 C00U C019 178.3(5) . . . . ?
C00M N00A C00T C00U 0.7(5) . . . . ?
C00M N00A C00T C01A 175.9(5) . . . . ?
C00N C00G C00L C00E -0.5(4) . . . . ?
C00N C00G C00L C00G 179.5(4) . . . 2_655 ?
C00N C00O C00S N008 0.0(5) . . . . ?
C00N C00O C00S C010 179.8(4) . . . . ?
C00O C00S C010 C00V -6.2(6) . . . . ?
C00O C00S C010 C015 177.2(4) . . . . ?
C00P C00E C00L C00G -63.5(3) . . . . ?
C00P C00E C00L C00G 116.5(3) . . . 2_655 ?
C00P C00E C00L C00G 116.5(3) 2_655 . . . ?
C00P C00E C00L C00G -63.5(3) 2_655 . . 2_655 ?
C00P C00E C00P C00R -1.7(3) 2_655 . . . ?
C00Q C00Z C013 C00V -0.6(7) . . . . ?
C00R C00J C00R C00P -1.7(3) 2_655 . . . ?
C00S N008 C00G C00L 176.4(3) . . . . ?
C00S N008 C00G C00N -1.3(4) . . . . ?
C00S C010 C015 N00B 1.4(8) . . . . ?
C00S C010 C015 C018 -178.3(5) . . . . ?
C00T N00A C00M N007 -1.4(4) . . . . ?
C00T N00A C00M C00K -178.1(4) . . . . ?
C00T C00U C019 C01B -3.1(8) . . . . ?
C00T C01A C01C C01B -1.5(11) . . . . ?
C00U N007 C00M N00A 1.5(4) . . . . ?
C00U N007 C00M C00K 178.2(4) . . . . ?
C00U C00T C01A C01C -2.6(8) . . . . ?
C00U C019 C01B C01C -0.9(11) . . . . ?
C00V C00X C012 C00Q 1.4(7) . . . . ?
C00V C010 C015 N00B -175.2(4) . . . . ?
C00V C010 C015 C018 5.1(7) . . . . ?
C00W C00I C00W C00Y 0.6(3) 2_655 . . . ?
C00W C00I C014 C011 99.1(3) . . . . ?
C00W C00I C014 C011 -80.9(3) . . . 2_655 ?
C00W C00I C014 C011 99.1(3) 2_655 . . 2_655 ?
C00W C00I C014 C011 -80.9(3) 2_655 . . . ?
C00X C00V C010 C00S -70.3(5) . . . . ?
C00X C00V C010 C015 106.6(5) . . . . ?
C00X C00V C013 C00Z -0.6(6) . . . . ?
C00Y C00D C00Y C00W 0.6(3) 2_655 . . . ?
C00Z C00Q C012 C00X -2.6(6) . . . . ?
C010 C00V C00X C012 -179.7(4) . . . . ?
C010 C00V C013 C00Z 179.3(4) . . . . ?
C010 C015 C018 C016 -178.9(5) . . . . ?
C011 N00B C015 C010 -179.9(5) . . . . ?
C011 N00B C015 C018 -0.2(5) . . . . ?
C011 C016 C018 C015 -1.9(6) . . . . ?
C012 C00Q C00Z C013 2.2(6) . . . . ?
C013 C00V C00X C012 0.3(6) . . . . ?
C013 C00V C010 C00S 109.7(5) . . . . ?
C013 C00V C010 C015 -73.4(6) . . . . ?
C014 C00I C00W C00Y -179.4(3) . . . . ?
C014 C011 C016 C018 179.5(4) . . . . ?
C015 N00B C011 C014 -178.5(4) . . . . ?
C015 N00B C011 C016 -1.0(5) . . . . ?
C016 C011 C014 C00I 2.8(6) . . . . ?
C016 C011 C014 C011 -177.2(6) . . . 2_655 ?
C019 C01B C01C C01A 3.3(13) . . . . ?
C01A C00T C00U N007 -175.6(4) . . . . ?
C01A C00T C00U C019 5.0(7) . . . . ?
loop_
_smtbx_masks_void_nr
_smtbx_masks_void_average_x
_smtbx_masks_void_average_y
_smtbx_masks_void_average_z
_smtbx_masks_void_volume
_smtbx_masks_void_count_electrons
_smtbx_masks_void_content
1 -0.114 -0.734 -0.943 6082.0 1300.5 ?
