#------------------------------------------------------------------------------
#$Date: 2023-08-10 01:59:37 +0300 (Thu, 10 Aug 2023) $
#$Revision: 285609 $
#$URL: file:///home/coder/svn-repositories/cod/cif/7/71/37/7713723.cif $
#------------------------------------------------------------------------------
#
# This file is available in the Crystallography Open Database (COD),
# http://www.crystallography.net/
#
# All data on this site have been placed in the public domain by the
# contributors.
#
data_7713723
loop_
_publ_author_name
'Nishino, Toshio'
'Fukumura, Masafumi'
'Katao, Shohei'
'Yasuhara, Kazuma'
'Rapenne, Gwenael'
_publ_section_title
;
 Multiply Engaged Molecular Gear composed of Cerium (IV) Double-Decker of
 a triptycene-functionalized Porphyrin
;
_journal_name_full               'Dalton Transactions'
_journal_paper_doi               10.1039/D3DT02443A
_journal_year                    2023
_chemical_formula_moiety         'C184 H152 Ce N8 O8, 2(C H Cl3)'
_chemical_formula_sum            'C186 H154 Ce Cl6 N8 O8'
_chemical_formula_weight         2981.98
_space_group_crystal_system      trigonal
_space_group_IT_number           148
_space_group_name_Hall           '-R 3'
_space_group_name_H-M_alt        'R -3 :H'
_atom_sites_solution_hydrogens   geom
_atom_sites_solution_primary     dual
_audit_creation_date             2023-01-23
_audit_creation_method
;
Olex2 1.5
(compiled 2022.04.07 svn.rca3783a0 for OlexSys, GUI svn.r6498)
;
_audit_update_record
;
2023-04-24 deposited with the CCDC.	2023-08-03 downloaded from the CCDC.
;
_cell_angle_alpha                90
_cell_angle_beta                 90
_cell_angle_gamma                120.0000(13)
_cell_formula_units_Z            18
_cell_length_a                   41.9814(5)
_cell_length_b                   41.9814(8)
_cell_length_c                   53.6321(10)
_cell_measurement_reflns_used    238784
_cell_measurement_temperature    103(2)
_cell_measurement_theta_max      25.375
_cell_measurement_theta_min      1.89
_cell_volume                     81860(3)
_computing_molecular_graphics    'Olex2 1.5 (Dolomanov et al., 2009)'
_computing_publication_material  'Olex2 1.5 (Dolomanov et al., 2009)'
_computing_structure_refinement  'SHELXL 2019/2 (Sheldrick, 2015)'
_computing_structure_solution    'SHELXT 2018/2 (Sheldrick, 2018)'
_diffrn_ambient_temperature      103.15
_diffrn_detector                 'Rigaku curved IP area detector'
_diffrn_detector_area_resol_mean 10.0
_diffrn_detector_type            'Imaging plate area detector'
_diffrn_measured_fraction_theta_full 0.999
_diffrn_measured_fraction_theta_max 0.999
_diffrn_measurement_device       'three-circle diffractometer'
_diffrn_measurement_device_type  'Rigaku VariMax RAPID'
_diffrn_measurement_method       '\w scans'
_diffrn_radiation_monochromator  'multi-layer mirror optics'
_diffrn_radiation_probe          x-ray
_diffrn_radiation_type           MoK\a
_diffrn_radiation_wavelength     0.71075
_diffrn_reflns_av_R_equivalents  0.0679
_diffrn_reflns_av_unetI/netI     0.0295
_diffrn_reflns_Laue_measured_fraction_full 0.999
_diffrn_reflns_Laue_measured_fraction_max 0.999
_diffrn_reflns_limit_h_max       50
_diffrn_reflns_limit_h_min       -50
_diffrn_reflns_limit_k_max       50
_diffrn_reflns_limit_k_min       -50
_diffrn_reflns_limit_l_max       64
_diffrn_reflns_limit_l_min       -64
_diffrn_reflns_number            391865
_diffrn_reflns_point_group_measured_fraction_full 0.999
_diffrn_reflns_point_group_measured_fraction_max 0.999
_diffrn_reflns_theta_full        25.242
_diffrn_reflns_theta_max         25.351
_diffrn_reflns_theta_min         1.887
_diffrn_source                   'rotating anode X-ray generator'
_diffrn_source_type              'MicroMax 007'
_exptl_absorpt_coefficient_mu    0.392
_exptl_absorpt_correction_T_max  1.0000
_exptl_absorpt_correction_T_min  0.6440
_exptl_absorpt_correction_type   multi-scan
_exptl_absorpt_process_details   'ABSCOR (Rigaku, 1995)'
_exptl_crystal_colour            green
_exptl_crystal_colour_primary    green
_exptl_crystal_density_diffrn    1.089
_exptl_crystal_description       block
_exptl_crystal_F_000             27900
_exptl_crystal_recrystallization_method
'Re-crystallisation from solvent: chloroform, methanol'
_exptl_crystal_size_max          0.2
_exptl_crystal_size_mid          0.19
_exptl_crystal_size_min          0.14
_refine_diff_density_max         1.768
_refine_diff_density_min         -1.082
_refine_diff_density_rms         0.109
_refine_ls_extinction_method     none
_refine_ls_goodness_of_fit_ref   1.170
_refine_ls_hydrogen_treatment    constr
_refine_ls_matrix_type           full
_refine_ls_number_parameters     1926
_refine_ls_number_reflns         33301
_refine_ls_number_restraints     239
_refine_ls_restrained_S_all      1.177
_refine_ls_R_factor_all          0.1018
_refine_ls_R_factor_gt           0.0860
_refine_ls_shift/su_max          0.004
_refine_ls_shift/su_mean         0.000
_refine_ls_structure_factor_coef Fsqd
_refine_ls_weighting_details
'w=1/[\s^2^(Fo^2^)+(0.2000P)^2^] where P=(Fo^2^+2Fc^2^)/3'
_refine_ls_weighting_scheme      calc
_refine_ls_wR_factor_gt          0.2678
_refine_ls_wR_factor_ref         0.2866
_reflns_Friedel_coverage         0.000
_reflns_number_gt                25547
_reflns_number_total             33301
_reflns_threshold_expression     'I > 2\s(I)'
_cod_data_source_file            d3dt02443a2.cif
_cod_data_source_block           CeL2
_cod_original_sg_symbol_H-M      'R -3'
_cod_database_code               7713723
_shelx_shelxl_version_number     2019/2
_shelx_space_group_comment
;
The symmetry employed for this shelxl refinement is uniquely defined
by the following loop, which should always be used as a source of
symmetry information in preference to the above space-group names.
They are only intended as comments.
;
_shelx_estimated_absorpt_t_max   0.947
_shelx_estimated_absorpt_t_min   0.926
_olex2_refinement_description
;
1. Fixed Uiso
 At 1.2 times of:
  All C(H) groups, All C(H,H) groups, All C(H,H,H,H) groups
 At 1.5 times of:
  All C(H,H,H) groups
2. Restrained distances
 O8-C145 = O2-C151
 1.43 with sigma of 0.02
 C153-C154
 1.52 with sigma of 0.02
 O2-C187
 1.43 with sigma of 0.02
 C187-C191 = C152-C153
 1.52 with sigma of 0.02
 C151-C152 = C191-C153
 1.52 with sigma of 0.02
 O4-C190
 1.43 with sigma of 0.02
 C159-C161 = C190-C183
 1.52 with sigma of 0.02
 O4-C159
 1.43 with sigma of 0.02
 O4-C95
 1.43 with sigma of 0.02
 C171-C172 = C173-C174
 1.52 with sigma of 0.02
 C172-C173
 1.52 with sigma of 0.02
 C160-C161
 1.52 with sigma of 0.02
 C162-C160
 1.52 with sigma of 0.02
 C160-C183
 1.52 with sigma of 0.02
 C155-C156 = C157-C158
 1.52 with sigma of 0.02
 C156-C157
 1.52 with sigma of 0.02
 O3-C155
 1.43 with sigma of 0.02
3. Uiso/Uaniso restraints and constraints
C171 \\sim C172 \\sim C174 \\sim C173: within 1.7A with sigma of 0.04 and sigma
for terminal atoms of 0.08 within 1.7A
C43 \\sim C44 \\sim C49 \\sim C48 \\sim C47 \\sim C46 \\sim C45 \\sim C58 \\sim
C50 \\sim C61 \\sim C60 \\sim C59 \\sim C62 \\sim C57 \\sim C56 \\sim C55 \\sim
C54 \\sim C51 \\sim C52 \\sim C53: within 1.7A with sigma of 0.04 and sigma for
terminal atoms of 0.08 within 1.7A
4. Rigid body (RIGU) restrains
 C152, C153, C154, C151
 with sigma for 1-2 distances of 0.004 and sigma for 1-3 distances of 0.004
 C162, C160, C161, C159
 with sigma for 1-2 distances of 0.004 and sigma for 1-3 distances of 0.004
 C155, C156, C157, C158
 with sigma for 1-2 distances of 0.004 and sigma for 1-3 distances of 0.004
 C187, C191, C153
 with sigma for 1-2 distances of 0.004 and sigma for 1-3 distances of 0.004
5. Others
 Fixed Sof: C159(0.5) H15F(0.5) H15G(0.5) H16P(0.5) H16Q(0.5) H16R(0.5)
 H16S(0.5) C161(0.5) H16T(0.5) H16U(0.5) H15L(0.5) H15M(0.5) H15N(0.5)
 H15O(0.5) C152(0.5) H15P(0.5) H15Q(0.5) C151(0.5) H15U(0.5) H15V(0.5)
 C183(0.5) H18A(0.5) H18B(0.5) C190(0.5) H19A(0.5) H19B(0.5) C187(0.5)
 H18C(0.5) H18D(0.5) C191(0.5) H19C(0.5) H19D(0.5)
6.a Ternary CH refined with riding coordinates:
 C106(H106), C78(H78), C128(H128), C50(H50), C179(H179), C180(H180)
6.b Secondary CH2 refined with riding coordinates:
 C163(H16A,H16B), C171(H17A,H17B), C147(H14A,H14B), C164(H16C,H16D), C155(H15A,
 H15B), C165(H16E,H16F), C168(H16G,H16H), C167(H16I,H16J), C159(H15F,H15G),
 C175(H17C,H17D), C149(H14C,H14D), C156(H15H,H15I), C169(H16N,H16O), C160(H16P,
 H16Q), C160(H16R,H16S), C161(H16T,H16U), C172(H17H,H17I), C173(H17J,H17K),
 C176(H17L,H17M), C177(H17N,H17O), C148(H14E,H14F), C157(H15J,H15K), C153(H15L,
 H15M), C153(H15N,H15O), C152(H15P,H15Q), C151(H15U,H15V), C183(H18A,H18B),
 C190(H19A,H19B), C187(H18C,H18D), C191(H19C,H19D)
6.c Aromatic/amide H refined with riding coordinates:
 C33(H33), C14(H14), C13(H13), C28(H28), C32(H32), C8(H8), C37(H37), C27(H27),
 C19(H19), C38(H38), C9(H9), C89(H89), C92(H92), C96(H96), C18(H18), C108(H108),
  C3(H3), C22(H22), C4(H4), C73(H73), C123(H123), C23(H23), C80(H80),
 C114(H114), C86(H86), C88(H88), C76(H76), C118(H118), C101(H101), C87(H87),
 C94(H94), C109(H109), C102(H102), C110(H110), C124(H124), C126(H126), C83(H83),
  C133(H133), C111(H111), C82(H82), C74(H74), C125(H125), C104(H104), C75(H75),
 C68(H68), C103(H103), C81(H81), C182(H182), C142(H142), C64(H64), C146(H146),
 C130(H130), C185(H185), C66(H66), C139(H139), C188(H188), C136(H136),
 C116(H116), C132(H132), C186(H186), C131(H131), C137(H137), C138(H138),
 C58(H58), C55(H55), C144(H144), C45(H45), C52(H52), C46(H46), C48(H48),
 C61(H61), C59(H59), C53(H53), C54(H54), C47(H47), C60(H60)
6.d Idealised Me refined as rotating group:
 C150(H15C,H15D,H15E), C166(H16K,H16L,H16M), C170(H17E,H17F,H17G), C162(H16V,
 H16W,H16X), C174(H17P,H17Q,H17R), C178(H17S,H17T,H17U), C158(H15R,H15S,H15T),
 C154(H15W,H15X,H15Y)
;
_smtbx_masks_void_probe_radius   1.2
_smtbx_masks_void_truncation_radius 1.2
_shelx_res_file
;
TITL Ce(porOBu-tp)2
    shelxl.res
    created by SHELXL-2019/2 at 11:51:56 on 23-Jan-2023
CELL 0.71075 41.9814 41.9814 53.6321 90 90 120
ZERR 18 0.00054 0.00076 0.00097 0 0 0.0013
LATT 3
SYMM -Y,+X-Y,+Z
SYMM +Y-X,-X,+Z
SFAC C H Ce Cl N O
UNIT 3348 2772 18 108 144 144
DFIX 1.43 O8 C145 O2 C151
DFIX 1.52 C153 C154
DFIX 1.43 O2 C187
DFIX 1.52 C187 C191 C152 C153
DFIX 1.52 C151 C152 C191 C153
RIGU C152 C153 C154 C151
DFIX 1.43 O4 C190
DFIX 1.52 C159 C161 C190 C183
DFIX 1.43 O4 C159
DFIX 1.43 O4 C95
SIMU 0.04 0.08 1.7 C171 C172 C174 C173
DFIX 1.52 C171 C172 C173 C174
DFIX 1.52 C172 C173
DFIX 1.52 C160 C161
DFIX 1.52 C162 C160
DFIX 1.52 C160 C183
SIMU 0.04 0.08 1.7 C43 C44 C49 C48 C47 C46 C45 C58 C50 C61 C60 C59 C62 C57 =
 C56 C55 C54 C51 C52 C53
RIGU C162 C160 C161 C159
DFIX 1.52 C155 C156 C157 C158
DFIX 1.52 C156 C157
DFIX 1.43 O3 C155
RIGU C155 C156 C157 C158
RIGU C187 C191 C153

L.S. 20
PLAN  60
SIZE 0.2 0.19 0.14
TEMP -170
CONF
WPDB -2
HTAB
LIST 4
MORE -1
ABIN
BOND $H
fmap 2
acta
OMIT -3 6 0
OMIT -17 11 11
OMIT 7 7 6
OMIT -1 5 9
OMIT -10 16 10
OMIT 3 9 6
OMIT 0 6 12
OMIT -3 3 6
OMIT -16 14 15
OMIT -3 3 12
OMIT -12 16 11
OMIT -11 12 22
OMIT -9 5 34
OMIT -8 17 23
OMIT -8 6 16
OMIT -5 5 26
OMIT 0 11 1
OMIT -6 18 3
OMIT -1 5 3
OMIT 2 4 1
OMIT 0 5 1
OMIT -2 6 10
REM <olex2.extras>
REM <HklSrc "%.\\SHELXT_a.hkl">
REM </olex2.extras>

WGHT    0.200000
FVAR       0.04423
CE1   3    0.534440    0.558985    0.258385    11.00000    0.04234    0.04036 =
         0.05252    0.00740   -0.00805    0.01740
CL1   4    0.510740    0.546809    0.104619    11.00000    0.11033    0.12327 =
         0.12429    0.01036   -0.00012    0.05453
CL2   4    0.545521    0.503340    0.112293    11.00000    0.17159    0.10606 =
         0.13535   -0.01604   -0.02791    0.07195
CL3   4    0.582637    0.569416    0.084798    11.00000    0.08932    0.12886 =
         0.33926    0.05425    0.00807    0.03656
N4    5    0.499001    0.588238    0.243588    11.00000    0.04272    0.04029 =
         0.04833    0.00896   -0.00543    0.01784
CL6   4    0.665141    0.701497    0.284106    11.00000    0.25996    0.13643 =
         0.23798   -0.04672   -0.15375    0.08247
N7    5    0.543119    0.597875    0.296357    11.00000    0.05063    0.04998 =
         0.05078    0.00543   -0.01107    0.02343
N3    5    0.537187    0.558752    0.212264    11.00000    0.04280    0.04400 =
         0.05076    0.00322   -0.00663    0.01915
N1    5    0.471051    0.525856    0.275534    11.00000    0.04109    0.04388 =
         0.05750    0.01445   -0.00258    0.01836
N6    5    0.587406    0.622816    0.251617    11.00000    0.05513    0.04616 =
         0.05921    0.00512   -0.00284    0.02457
C16   1    0.456586    0.575942    0.279006    11.00000    0.04777    0.05563 =
         0.04892   -0.00361   -0.00898    0.02559
N2    5    0.504503    0.493978    0.242500    11.00000    0.04966    0.04230 =
         0.06601    0.00249   -0.01369    0.02324
N5    5    0.592091    0.556790    0.250947    11.00000    0.04830    0.04649 =
         0.06610    0.00521   -0.00821    0.02228
C11   1    0.530097    0.612172    0.203422    11.00000    0.04407    0.03516 =
         0.05297    0.00318   -0.00648    0.01331
CL4   4    0.696761    0.759672    0.319071    11.00000    0.35854    0.21402 =
         0.23386   -0.08045   -0.08825    0.18181
N8    5    0.545901    0.530141    0.295180    11.00000    0.04843    0.05023 =
         0.06514    0.01599   -0.01116    0.02064
C33   1    0.603876    0.680979    0.237743    11.00000    0.05463    0.03775 =
         0.06818    0.00106   -0.00516    0.01770
AFIX  43
H33   2    0.604146    0.703598    0.235757    11.00000   -1.20000
AFIX   0
C14   1    0.477730    0.628919    0.248931    11.00000    0.05128    0.05015 =
         0.05179   -0.00134   -0.00458    0.02521
AFIX  43
H14   2    0.466158    0.641138    0.256251    11.00000   -1.20000
AFIX   0
C6    1    0.539596    0.502033    0.203413    11.00000    0.04864    0.04848 =
         0.07243    0.00007   -0.01135    0.02314
C13   1    0.497119    0.638202    0.227710    11.00000    0.05041    0.03921 =
         0.06222   -0.00157   -0.01365    0.02273
AFIX  43
H13   2    0.501346    0.657930    0.216966    11.00000   -1.20000
AFIX   0
C17   1    0.453096    0.542466    0.286455    11.00000    0.04948    0.05558 =
         0.04218    0.00896   -0.00420    0.01726
C71   1    0.544530    0.688672    0.150953    11.00000    0.07398    0.03854 =
         0.05473    0.01560    0.00374    0.02179
C1    1    0.461660    0.463164    0.276984    11.00000    0.03737    0.04512 =
         0.08610    0.01841   -0.01426    0.01076
C12   1    0.510519    0.612632    0.224096    11.00000    0.04504    0.03769 =
         0.05456    0.00198   -0.00914    0.02007
C10   1    0.542399    0.587669    0.197633    11.00000    0.04211    0.03968 =
         0.04957    0.00665   -0.00229    0.01369
C28   1    0.641991    0.560108    0.230134    11.00000    0.06205    0.06358 =
         0.06843    0.00431    0.00563    0.03615
AFIX  43
H28   2    0.663499    0.569337    0.220146    11.00000   -1.20000
AFIX   0
C69   1    0.535361    0.638293    0.183973    11.00000    0.05328    0.03952 =
         0.05042    0.00342   -0.00191    0.01898
C120  1    0.556841    0.716499    0.276718    11.00000    0.06157    0.05982 =
         0.06018    0.00012   -0.00145    0.02992
C91   1    0.432419    0.587719    0.292133    11.00000    0.05406    0.06657 =
         0.05775    0.00353   -0.00139    0.03004
C15   1    0.477742    0.596929    0.258550    11.00000    0.04366    0.04964 =
         0.05589   -0.00259   -0.01296    0.02246
C79   1    0.554900    0.683731    0.124235    11.00000    0.06632    0.04783 =
         0.05798    0.01132    0.00190    0.01663
C32   1    0.622984    0.669122    0.223944    11.00000    0.05387    0.04094 =
         0.06320    0.00782   -0.00380    0.01461
AFIX  43
H32   2    0.639683    0.682264    0.210847    11.00000   -1.20000
AFIX   0
C70   1    0.538555    0.659335    0.168143    11.00000    0.06304    0.04087 =
         0.05365    0.00331    0.00025    0.01886
C90   1    0.511668    0.694844    0.148651    11.00000    0.07345    0.04914 =
         0.05222    0.00401   -0.00565    0.02853
O5    6    0.689250    0.611762    0.145776    11.00000    0.08760    0.13143 =
         0.09140   -0.01768    0.01075    0.04729
C228  1    0.553391    0.373828    0.265086    11.00000    0.05366    0.06534 =
         0.09288    0.01440   -0.00232    0.02699
C8    1    0.560361    0.555422    0.174415    11.00000    0.05046    0.05137 =
         0.05716   -0.00130    0.00104    0.02371
AFIX  43
H8    2    0.569616    0.546930    0.161418    11.00000   -1.20000
AFIX   0
C63   1    0.550642    0.483570    0.184936    11.00000    0.07591    0.05046 =
         0.08503   -0.00418   -0.01257    0.03765
C37   1    0.538962    0.642119    0.318983    11.00000    0.05972    0.06403 =
         0.05774   -0.00319   -0.01534    0.03099
AFIX  43
H37   2    0.539835    0.664576    0.323021    11.00000   -1.20000
AFIX   0
C121  1    0.551483    0.747644    0.278110    11.00000    0.06979    0.05879 =
         0.06864   -0.00711   -0.00644    0.03468
C113  1    0.659998    0.629320    0.206579    11.00000    0.05237    0.05280 =
         0.06800    0.00575    0.00033    0.02358
C27   1    0.626243    0.528776    0.242597    11.00000    0.06758    0.06041 =
         0.07879    0.00196   -0.00395    0.03898
AFIX  43
H27   2    0.633773    0.510872    0.242602    11.00000   -1.20000
AFIX   0
C20   1    0.455177    0.491234    0.285568    11.00000    0.03763    0.05982 =
         0.06187    0.01722   -0.00795    0.01454
C41   1    0.442518    0.428995    0.290453    11.00000    0.05217    0.05730 =
         0.09158    0.02941   -0.00214    0.02181
C19   1    0.428174    0.486335    0.303726    11.00000    0.05576    0.06630 =
         0.05665    0.01841   -0.00858    0.01834
AFIX  43
H19   2    0.414071    0.464964    0.313560    11.00000   -1.20000
AFIX   0
C7    1    0.546831    0.538159    0.197721    11.00000    0.04416    0.04691 =
         0.06565   -0.00130   -0.01013    0.02408
C107  1    0.586656    0.362600    0.307382    11.00000    0.05650    0.05237 =
         0.09298    0.00610   -0.01500    0.02882
C38   1    0.528198    0.612868    0.334175    11.00000    0.04925    0.07517 =
         0.05358    0.00635   -0.00350    0.02601
AFIX  43
H38   2    0.520620    0.611174    0.351047    11.00000   -1.20000
AFIX   0
C119  1    0.561365    0.690085    0.276242    11.00000    0.05654    0.05076 =
         0.05978    0.00205   -0.00507    0.02458
C9    1    0.557746    0.585958    0.174001    11.00000    0.05785    0.04855 =
         0.05633    0.00826    0.00450    0.02550
AFIX  43
H9    2    0.564669    0.603122    0.160709    11.00000   -1.20000
AFIX   0
C89   1    0.478592    0.676015    0.160492    11.00000    0.09091    0.06101 =
         0.04869    0.00895    0.00092    0.03587
AFIX  43
H89   2    0.473868    0.656182    0.171286    11.00000   -1.20000
AFIX   0
C92   1    0.402520    0.585304    0.279694    11.00000    0.06238    0.09253 =
         0.06548    0.00318    0.00029    0.04374
AFIX  43
H92   2    0.397613    0.577204    0.262867    11.00000   -1.20000
AFIX   0
C21   1    0.528948    0.525286    0.317881    11.00000    0.04525    0.05365 =
         0.06321    0.01666   -0.01000    0.01783
C96   1    0.438658    0.598413    0.317152    11.00000    0.06540    0.08316 =
         0.06109   -0.00532    0.00328    0.03599
AFIX  43
H96   2    0.458677    0.599184    0.325944    11.00000   -1.20000
AFIX   0
C5    1    0.518548    0.482080    0.223944    11.00000    0.05340    0.04002 =
         0.07636    0.00178   -0.01638    0.02230
C122  1    0.543095    0.759019    0.252619    11.00000    0.06608    0.05001 =
         0.07082    0.00176   -0.00617    0.02675
C85   1    0.519670    0.725281    0.132931    11.00000    0.09628    0.05558 =
         0.05859    0.00999    0.00005    0.04160
C2    1    0.482660    0.464148    0.256599    11.00000    0.03829    0.04140 =
         0.07512    0.01014   -0.01074    0.01336
C72   1    0.576960    0.725729    0.159662    11.00000    0.07003    0.03996 =
         0.06448    0.00658    0.00434    0.02023
C18   1    0.426300    0.517187    0.304404    11.00000    0.05635    0.06632 =
         0.04683    0.00766   -0.00814    0.02214
AFIX  43
H18   2    0.410531    0.521759    0.314623    11.00000   -1.20000
AFIX   0
C31   1    0.613398    0.633080    0.232719    11.00000    0.04625    0.04507 =
         0.05967    0.00125   -0.00975    0.01671
C108  1    0.584499    0.347706    0.331060    11.00000    0.05648    0.05499 =
         0.11002    0.01585   -0.00391    0.03085
AFIX  43
H108  2    0.584258    0.325057    0.332721    11.00000   -1.20000
AFIX   0
C39   1    0.530262    0.584900    0.320290    11.00000    0.04806    0.05763 =
         0.05575   -0.00181   -0.01784    0.01905
O4    6    0.421501    0.618567    0.353519    11.00000    0.12363    0.14841 =
         0.08875   -0.03169    0.03299    0.04543
C84   1    0.561254    0.713414    0.108661    11.00000    0.08465    0.05502 =
         0.06415    0.01206   -0.00009    0.02647
C34   1    0.583498    0.653499    0.255614    11.00000    0.05404    0.04968 =
         0.06565   -0.00108   -0.01069    0.02315
O6    6    0.752733    0.707611    0.206029    11.00000    0.06337    0.08685 =
         0.17518   -0.02384    0.02314    0.00431
C3    1    0.483927    0.432435    0.247447    11.00000    0.05450    0.04567 =
         0.09537    0.01285   -0.01367    0.02014
AFIX  43
H3    2    0.471617    0.408431    0.254441    11.00000   -1.20000
AFIX   0
C29   1    0.620396    0.577847    0.234505    11.00000    0.04297    0.04769 =
         0.06126    0.00239   -0.01000    0.01651
C22   1    0.521144    0.489793    0.327695    11.00000    0.05461    0.06526 =
         0.07538    0.03061   -0.00385    0.02438
AFIX  43
H22   2    0.508416    0.478893    0.342752    11.00000   -1.20000
AFIX   0
C36   1    0.548861    0.632863    0.295524    11.00000    0.05562    0.05260 =
         0.05650   -0.00387   -0.01312    0.02634
C4    1    0.505368    0.442975    0.227551    11.00000    0.05908    0.04233 =
         0.08036    0.00296   -0.01315    0.02505
AFIX  43
H4    2    0.511125    0.427918    0.217481    11.00000   -1.20000
AFIX   0
C77   1    0.583750    0.754776    0.143862    11.00000    0.08669    0.05102 =
         0.06514    0.01385    0.00323    0.02776
C73   1    0.598003    0.732036    0.180791    11.00000    0.06939    0.05065 =
         0.06910    0.00722   -0.00334    0.02304
AFIX  43
H73   2    0.593764    0.712162    0.191390    11.00000   -1.20000
AFIX   0
C184  1    0.554862    0.341236    0.268048    11.00000    0.05459    0.06121 =
         0.08719    0.00106   -0.00719    0.02900
C24   1    0.551547    0.500250    0.291615    11.00000    0.04341    0.04665 =
         0.08050    0.01572   -0.00967    0.01847
C98   1    0.582672    0.440799    0.276081    11.00000    0.05836    0.05653 =
         0.09216    0.01159   -0.01625    0.02943
C95   1    0.415418    0.607776    0.328805    11.00000    0.07490    0.08976 =
         0.07043   -0.00768    0.00669    0.04096
C123  1    0.542234    0.743415    0.229602    11.00000    0.07779    0.04993 =
         0.06528   -0.00074   -0.00931    0.03029
AFIX  43
H123  2    0.546803    0.723478    0.228344    11.00000   -1.20000
AFIX   0
C99   1    0.585636    0.407237    0.278290    11.00000    0.06192    0.05570 =
         0.08958    0.00931   -0.00715    0.03195
C26   1    0.595855    0.526612    0.256070    11.00000    0.05057    0.04963 =
         0.06413   -0.00229   -0.01674    0.02400
C40   1    0.522197    0.550500    0.329686    11.00000    0.05247    0.06652 =
         0.05222    0.01130   -0.01643    0.01884
C106  1    0.588624    0.347046    0.282585    11.00000    0.05530    0.05788 =
         0.10310    0.00571   -0.00351    0.03018
AFIX  13
H106  2    0.590121    0.324092    0.284132    11.00000   -1.20000
AFIX   0
C23   1    0.534908    0.475164    0.311949    11.00000    0.05381    0.05420 =
         0.09642    0.02582   -0.00396    0.02798
AFIX  43
H23   2    0.533859    0.452164    0.313882    11.00000   -1.20000
AFIX   0
C80   1    0.557510    0.654358    0.115353    11.00000    0.07720    0.06454 =
         0.06347    0.01094    0.01065    0.03481
AFIX  43
H80   2    0.553477    0.634791    0.126195    11.00000   -1.20000
AFIX   0
C134  1    0.519071    0.741044    0.295001    11.00000    0.09052    0.07407 =
         0.07014   -0.00762    0.00126    0.05199
C114  1    0.657448    0.611436    0.184048    11.00000    0.05742    0.07350 =
         0.07426    0.00318    0.00274    0.02805
AFIX  43
H114  2    0.635661    0.589361    0.179684    11.00000   -1.20000
AFIX   0
C30   1    0.629246    0.612483    0.224960    11.00000    0.04639    0.05075 =
         0.06050    0.00043   -0.01102    0.01837
C86   1    0.491941    0.733953    0.129533    11.00000    0.12149    0.07042 =
         0.06760    0.01259   -0.00599    0.05670
AFIX  43
H86   2    0.496051    0.753440    0.118587    11.00000   -1.20000
AFIX   0
C100  1    0.619843    0.410243    0.266809    11.00000    0.05822    0.06278 =
         0.09425    0.00122   -0.01092    0.03205
C97   1    0.578989    0.467162    0.274497    11.00000    0.05394    0.06294 =
         0.08318    0.01179   -0.01017    0.02805
C88   1    0.451855    0.685669    0.156857    11.00000    0.09480    0.08770 =
         0.06528    0.01145   -0.00501    0.05661
AFIX  43
H88   2    0.428573    0.672271    0.164780    11.00000   -1.20000
AFIX   0
C76   1    0.611525    0.790235    0.149650    11.00000    0.09668    0.04020 =
         0.09648    0.01305   -0.00301    0.02085
AFIX  43
H76   2    0.616279    0.810108    0.138889    11.00000   -1.20000
AFIX   0
C25   1    0.574379    0.498673    0.273543    11.00000    0.04655    0.04934 =
         0.07295    0.00603   -0.01649    0.02167
C127  1    0.536341    0.788532    0.254045    11.00000    0.07206    0.05411 =
         0.07846   -0.00719   -0.00945    0.03223
C118  1    0.692492    0.662224    0.212516    11.00000    0.05921    0.05728 =
         0.09345   -0.00249    0.00059    0.02137
AFIX  43
H118  2    0.693840    0.675088    0.227412    11.00000   -1.20000
AFIX   0
C105  1    0.621820    0.378070    0.268934    11.00000    0.05694    0.06322 =
         0.08985   -0.00013   -0.01093    0.03259
C101  1    0.647966    0.440447    0.254553    11.00000    0.06449    0.06187 =
         0.09750    0.01548   -0.00212    0.03425
AFIX  43
H101  2    0.647087    0.462540    0.253035    11.00000   -1.20000
AFIX   0
C87   1    0.459675    0.715397    0.141367    11.00000    0.11236    0.09008 =
         0.07548    0.00789   -0.00881    0.06704
AFIX  43
H87   2    0.441715    0.722614    0.139177    11.00000   -1.20000
AFIX   0
C94   1    0.386356    0.605415    0.317505    11.00000    0.08723    0.10379 =
         0.10806   -0.00428    0.02842    0.05590
AFIX  43
H94   2    0.370086    0.610766    0.326487    11.00000   -1.20000
AFIX   0

CL5   4    0.738036    0.731082    0.294793    11.00000    0.32244    0.20376 =
         0.50777    0.04219   -0.04822    0.16077
C35   1    0.563884    0.657274    0.275316    11.00000    0.05023    0.05150 =
         0.05937    0.00073   -0.00682    0.02274
C109  1    0.582729    0.365724    0.351913    11.00000    0.06329    0.06704 =
         0.08629    0.01024   -0.00976    0.03350
AFIX  43
H109  2    0.581682    0.355659    0.367959    11.00000   -1.20000
AFIX   0
C102  1    0.676866    0.438282    0.244697    11.00000    0.06340    0.08610 =
         0.11171    0.01791    0.00250    0.03650
AFIX  43
H102  2    0.696173    0.459079    0.236550    11.00000   -1.20000
AFIX   0
C110  1    0.582456    0.398735    0.349722    11.00000    0.07169    0.06300 =
         0.09780    0.00414   -0.00892    0.03531
AFIX  43
H110  2    0.581549    0.411296    0.364199    11.00000   -1.20000
AFIX   0
O7    6    0.428388    0.519593    0.394917    11.00000    0.11718    0.20765 =
         0.08271    0.01772    0.03139    0.03685
C78   1    0.556867    0.742937    0.122212    11.00000    0.09348    0.05633 =
         0.07301    0.01699    0.00461    0.03543
AFIX  13
H78   2    0.561778    0.763988    0.111045    11.00000   -1.20000
AFIX   0
C124  1    0.534553    0.757538    0.208431    11.00000    0.08639    0.07324 =
         0.07454   -0.00981   -0.01951    0.04178
AFIX  43
H124  2    0.534433    0.747210    0.192647    11.00000   -1.20000
AFIX   0
C112  1    0.584968    0.395265    0.305667    11.00000    0.05612    0.05949 =
         0.08560    0.00738   -0.00564    0.03649
O3    6    0.349481    0.593689    0.282108    11.00000    0.07886    0.15684 =
         0.14816    0.01223   -0.00510    0.07787
C126  1    0.528590    0.801901    0.232716    11.00000    0.10600    0.06822 =
         0.09653    0.00745   -0.01042    0.05397
AFIX  43
H126  2    0.524181    0.821973    0.233589    11.00000   -1.20000
AFIX   0
C83   1    0.569910    0.712308    0.083937    11.00000    0.09964    0.07131 =
         0.05520    0.01924    0.01315    0.03837
AFIX  43
H83   2    0.574269    0.731977    0.073092    11.00000   -1.20000
AFIX   0
C133  1    0.496403    0.709516    0.307180    11.00000    0.09607    0.07705 =
         0.09002    0.00746    0.00660    0.05027
AFIX  43
H133  2    0.499615    0.688738    0.305755    11.00000   -1.20000
AFIX   0
C129  1    0.513686    0.772072    0.296532    11.00000    0.11397    0.08071 =
         0.08240   -0.00518   -0.00448    0.06317
C111  1    0.583523    0.413011    0.326220    11.00000    0.06978    0.06660 =
         0.09308    0.00607   -0.01052    0.04300
AFIX  43
H111  2    0.583234    0.435398    0.324590    11.00000   -1.20000
AFIX   0
C82   1    0.572232    0.682962    0.074999    11.00000    0.08946    0.11475 =
         0.05508    0.01270    0.01196    0.04426
AFIX  43
H82   2    0.578150    0.682598    0.057943    11.00000   -1.20000
AFIX   0
C74   1    0.625271    0.767388    0.186471    11.00000    0.08748    0.05370 =
         0.07499    0.00263   -0.00613    0.01985
AFIX  43
H74   2    0.639561    0.771898    0.201157    11.00000   -1.20000
AFIX   0
C42   1    0.427135    0.401557    0.302367    11.00000    0.06417    0.06058 =
         0.11553    0.03634    0.00564    0.02540
C125  1    0.527341    0.785104    0.209510    11.00000    0.09634    0.08034 =
         0.07938    0.00264   -0.01375    0.05092
AFIX  43
H125  2    0.521372    0.793463    0.194726    11.00000   -1.20000
AFIX   0
C104  1    0.651087    0.376695    0.258839    11.00000    0.05393    0.06706 =
         0.10317   -0.00094   -0.01274    0.02909
AFIX  43
H104  2    0.652340    0.354824    0.260542    11.00000   -1.20000
AFIX   0
C115  1    0.688294    0.627190    0.167920    11.00000    0.08192    0.09608 =
         0.08103    0.00005    0.01484    0.04319
C141  1    0.509502    0.543374    0.356358    11.00000    0.07778    0.07631 =
         0.05800    0.01006   -0.01187    0.02827
O2    6    0.633410    0.484845    0.163234    11.00000    0.14748    0.18328 =
         0.18655   -0.01071    0.01594    0.12489
C75   1    0.631885    0.796461    0.170720    11.00000    0.09495    0.05007 =
         0.09810   -0.00011   -0.00246    0.02271
AFIX  43
H75   2    0.650684    0.820731    0.174704    11.00000   -1.20000
AFIX   0
C68   1    0.586961    0.492887    0.182241    11.00000    0.07504    0.08771 =
         0.09263   -0.01248   -0.00750    0.04560
AFIX  43
H68   2    0.604981    0.511640    0.192555    11.00000   -1.20000
AFIX   0
C103  1    0.678324    0.405751    0.246476    11.00000    0.06677    0.09117 =
         0.11319    0.00107   -0.00522    0.04324
AFIX  43
H103  2    0.698034    0.404063    0.239155    11.00000   -1.20000
AFIX   0
C93   1    0.379389    0.595168    0.292585    11.00000    0.06757    0.10934 =
         0.09758    0.00198    0.00786    0.05761
C135  1    0.584639    0.783383    0.287915    11.00000    0.09263    0.06042 =
         0.06180   -0.00963   -0.01164    0.03235
C81   1    0.566092    0.653511    0.090398    11.00000    0.08135    0.07231 =
         0.06069    0.00224    0.00907    0.03067
AFIX  43
H81   2    0.567753    0.633323    0.083932    11.00000   -1.20000
AFIX   0
C182  1    0.525904    0.374355    0.251676    11.00000    0.07289    0.07505 =
         0.11430    0.01374   -0.01673    0.03879
AFIX  43
H182  2    0.525028    0.396398    0.249739    11.00000   -1.20000
AFIX   0
O1    6    0.511544    0.415089    0.135198    11.00000    0.19803    0.14089 =
         0.16752   -0.09249   -0.07829    0.10827
C142  1    0.474435    0.534216    0.362473    11.00000    0.09051    0.11872 =
         0.05143    0.00874   -0.00488    0.03572
AFIX  43
H142  2    0.457635    0.531819    0.349746    11.00000   -1.20000
AFIX   0
C64   1    0.523600    0.456525    0.169343    11.00000    0.09491    0.06314 =
         0.10146   -0.01719   -0.01941    0.04354
AFIX  43
H64   2    0.498407    0.449486    0.171120    11.00000   -1.20000
AFIX   0
C146  1    0.534929    0.546997    0.374620    11.00000    0.11037    0.11528 =
         0.06518    0.00922   -0.03213    0.04950
AFIX  43
H146  2    0.558886    0.552200    0.369942    11.00000   -1.20000
AFIX   0
C130  1    0.486445    0.770105    0.311217    11.00000    0.13929    0.10644 =
         0.09689    0.00032    0.02114    0.08994
AFIX  43
H130  2    0.483243    0.790864    0.312864    11.00000   -1.20000
AFIX   0
C185  1    0.528813    0.309572    0.256819    11.00000    0.05728    0.07342 =
         0.12277   -0.00040   -0.00979    0.02727
AFIX  43
H185  2    0.530449    0.287851    0.257940    11.00000   -1.20000
AFIX   0
C128  1    0.540830    0.803948    0.280222    11.00000    0.10429    0.06642 =
         0.08471   -0.01319   -0.01090    0.05219
AFIX  13
H128  2    0.536931    0.825557    0.280984    11.00000   -1.20000
AFIX   0
C140  1    0.579094    0.813360    0.288760    11.00000    0.10498    0.06607 =
         0.07697   -0.01785   -0.01311    0.04579
C66   1    0.571101    0.449080    0.148929    11.00000    0.16166    0.12847 =
         0.11496   -0.02885   -0.00853    0.11137
AFIX  43
H66   2    0.577753    0.437158    0.136643    11.00000   -1.20000
AFIX   0
C117  1    0.721731    0.675456    0.196998    11.00000    0.05971    0.06427 =
         0.11178    0.00778    0.01062    0.01774
C139  1    0.606336    0.847101    0.296726    11.00000    0.15154    0.06715 =
         0.08256   -0.01824   -0.02244    0.04324
AFIX  43
H139  2    0.602095    0.867257    0.297923    11.00000   -1.20000
AFIX   0
C188  1    0.498688    0.340786    0.240735    11.00000    0.07238    0.08628 =
         0.16098    0.01759   -0.03320    0.03282
AFIX  43
H188  2    0.479280    0.340077    0.231190    11.00000   -1.20000
AFIX   0
C65   1    0.534863    0.440406    0.151249    11.00000    0.14026    0.07911 =
         0.12301   -0.04042   -0.03799    0.06459
C136  1    0.618362    0.786704    0.294451    11.00000    0.08699    0.08270 =
         0.06773   -0.00965   -0.01620    0.03924
AFIX  43
H136  2    0.622054    0.766169    0.293681    11.00000   -1.20000
AFIX   0
C116  1    0.720261    0.658575    0.174547    11.00000    0.07100    0.08235 =
         0.10090    0.02102    0.03065    0.02240
AFIX  43
H116  2    0.741056    0.668514    0.163827    11.00000   -1.20000
AFIX   0
C132  1    0.467630    0.707853    0.322181    11.00000    0.13141    0.11103 =
         0.10269    0.02124    0.04034    0.07532
AFIX  43
H132  2    0.451482    0.686046    0.331034    11.00000   -1.20000
AFIX   0
C57   1    0.365309    0.344852    0.309345    11.00000    0.07776    0.06220 =
         0.23376    0.06681    0.05388    0.02395
C67   1    0.598209    0.475548    0.164730    11.00000    0.11160    0.12948 =
         0.12634   -0.03224   -0.01175    0.08890
O8    6    0.547589    0.547585    0.418690    11.00000    0.18725    0.23278 =
         0.06997   -0.00219   -0.04968    0.09509
C186  1    0.500754    0.309102    0.244134    11.00000    0.07912    0.07976 =
         0.13544    0.00042   -0.03528    0.02650
AFIX  43
H186  2    0.481999    0.286537    0.237385    11.00000   -1.20000
AFIX   0
C163  1    0.656975    0.580148    0.137450    11.00000    0.08161    0.12058 =
         0.10435   -0.01532    0.01691    0.03661
AFIX  23
H16A  2    0.636652    0.585554    0.135892    11.00000   -1.20000
H16B  2    0.649530    0.559843    0.149566    11.00000   -1.20000
AFIX   0
C131  1    0.463633    0.738315    0.323628    11.00000    0.14546    0.13444 =
         0.12726    0.02070    0.04399    0.10244
AFIX  43
H131  2    0.444395    0.737239    0.333575    11.00000   -1.20000
AFIX   0
C50   1    0.371515    0.312685    0.343748    11.00000    0.13197    0.17455 =
         0.25114    0.15186    0.10130    0.09405
AFIX  13
H50   2    0.357548    0.290354    0.354411    11.00000   -1.20000
AFIX   0
C137  1    0.647194    0.822024    0.302347    11.00000    0.11196    0.09096 =
         0.09045   -0.03721   -0.04740    0.03987
AFIX  43
H137  2    0.670415    0.825126    0.306996    11.00000   -1.20000
AFIX   0
C143  1    0.463097    0.528359    0.387230    11.00000    0.10248    0.13621 =
         0.07251    0.01644    0.02142    0.02378
C138  1    0.641446    0.851352    0.303227    11.00000    0.11679    0.08839 =
         0.09370   -0.03321   -0.04094    0.03372
AFIX  43
H138  2    0.660902    0.874788    0.308194    11.00000   -1.20000
AFIX   0

C179  1    0.539858    0.532103    0.091853    11.00000    0.11173    0.09397 =
         0.12323    0.01577    0.00577    0.04020
AFIX  13
H179  2    0.528488    0.518227    0.076132    11.00000   -1.20000
AFIX   0

C49   1    0.402545    0.310440    0.329279    11.00000    0.13977    0.11788 =
         0.23076    0.11255    0.07074    0.08226
C58   1    0.348109    0.353908    0.291843    11.00000    0.08649    0.08402 =
         0.25799    0.04688   -0.02158    0.02208
AFIX  43
H58   2    0.360512    0.375856    0.282296    11.00000   -1.20000
AFIX   0
C171  1    0.401945    0.514326    0.375340    11.00000    0.09170    0.21867 =
         0.10911   -0.02723    0.01138    0.05727
AFIX  23
H17A  2    0.399165    0.494919    0.363581    11.00000   -1.20000
H17B  2    0.410239    0.537434    0.365914    11.00000   -1.20000
AFIX   0
C56   1    0.409824    0.379285    0.345693    11.00000    0.11215    0.15849 =
         0.14794    0.08850    0.03799    0.07923
C43   1    0.408204    0.368519    0.317727    11.00000    0.11323    0.09356 =
         0.15717    0.07106    0.06586    0.06654
C44   1    0.422663    0.342800    0.315933    11.00000    0.14122    0.12360 =
         0.20554    0.10792    0.08311    0.09233
C145  1    0.525212    0.543048    0.399007    11.00000    0.15390    0.12341 =
         0.07155    0.01839   -0.03308    0.05055
C55   1    0.427145    0.413029    0.355373    11.00000    0.08651    0.20743 =
         0.08340    0.04113    0.01068    0.04655
AFIX  43
H55   2    0.440370    0.433184    0.344373    11.00000   -1.20000
AFIX   0
C144  1    0.487914    0.530773    0.405404    11.00000    0.16870    0.17259 =
         0.06073    0.03269   -0.01334    0.02706
AFIX  43
H144  2    0.479921    0.524200    0.422147    11.00000   -1.20000
AFIX   0
C147  1    0.473886    0.402734    0.137883    11.00000    0.16775    0.14963 =
         0.18462   -0.09255   -0.07130    0.09224
AFIX  23
H14A  2    0.469275    0.423669    0.138067    11.00000   -1.20000
H14B  2    0.464180    0.388466    0.153476    11.00000   -1.20000
AFIX   0
C45   1    0.453223    0.348327    0.301405    11.00000    0.14169    0.15896 =
         0.22999    0.12528    0.08637    0.11208
AFIX  43
H45   2    0.467011    0.370224    0.291999    11.00000   -1.20000
AFIX   0
C164  1    0.665018    0.569010    0.112129    11.00000    0.10379    0.28611 =
         0.13203   -0.09068    0.01958    0.06070
AFIX  23
H16C  2    0.680483    0.557741    0.115230    11.00000   -1.20000
H16D  2    0.641312    0.549364    0.105401    11.00000   -1.20000
AFIX   0
C155  1    0.337428    0.579329    0.259654    11.00000    0.09890    0.22564 =
         0.14210    0.02607   -0.01914    0.09336
AFIX  23
H15A  2    0.330828    0.553163    0.259070    11.00000   -1.20000
H15B  2    0.356003    0.593146    0.246630    11.00000   -1.20000
AFIX   0
C52   1    0.389699    0.352264    0.385327    11.00000    0.24313    0.30517 =
         0.17028    0.14164    0.07862    0.20922
AFIX  43
H52   2    0.373449    0.331181    0.394789    11.00000   -1.20000
AFIX   0
C150  1    0.453047    0.426102    0.084430    11.00000    0.16413    0.19967 =
         0.11981   -0.05332   -0.01996    0.06502
AFIX 137
H15C  2    0.463386    0.436448    0.068049    11.00000   -1.50000
H15D  2    0.464108    0.445448    0.097108    11.00000   -1.50000
H15E  2    0.426370    0.416084    0.084130    11.00000   -1.50000
AFIX   0
C165  1    0.680836    0.593221    0.094552    11.00000    0.13683    0.20681 =
         0.12590   -0.00685    0.04166    0.07445
AFIX  23
H16E  2    0.704406    0.614062    0.100483    11.00000   -1.20000
H16F  2    0.664750    0.602814    0.088960    11.00000   -1.20000
AFIX   0
C46   1    0.462412    0.320932    0.301306    11.00000    0.15396    0.14320 =
         0.25296    0.11232    0.08992    0.11332
AFIX  43
H46   2    0.482633    0.323749    0.291650    11.00000   -1.20000
AFIX   0
C48   1    0.411782    0.283838    0.328988    11.00000    0.12700    0.12935 =
         0.33444    0.14231    0.07388    0.07094
AFIX  43
H48   2    0.397502    0.261735    0.338091    11.00000   -1.20000
AFIX   0
C168  1    0.817923    0.751353    0.209007    11.00000    0.09540    0.11581 =
         0.14844    0.00768   -0.00052    0.01681
AFIX  23
H16G  2    0.812401    0.771319    0.212210    11.00000   -1.20000
H16H  2    0.818731    0.740560    0.225243    11.00000   -1.20000
AFIX   0
C51   1    0.394203    0.350205    0.361679    11.00000    0.17327    0.22779 =
         0.17616    0.14353    0.09865    0.13923
C167  1    0.787013    0.721144    0.192374    11.00000    0.06959    0.11495 =
         0.16593    0.00186    0.03864    0.01073
AFIX  23
H16I  2    0.785617    0.731708    0.176184    11.00000   -1.20000
H16J  2    0.792094    0.700882    0.189168    11.00000   -1.20000
AFIX   0
PART 1
C159  1    0.453959    0.627452    0.366368    10.50000    0.11375    0.14733 =
         0.07585   -0.05316   -0.03382    0.07861
AFIX  23
H15F  2    0.474148    0.651284    0.360221    10.50000   -1.20000
H15G  2    0.460773    0.608417    0.363077    10.50000   -1.20000
AFIX   0
PART 0
C61   1    0.310656    0.290743    0.322367    11.00000    0.07221    0.10002 =
         0.42430    0.09816    0.02951    0.01965
AFIX  43
H61   2    0.298676    0.270203    0.333234    11.00000   -1.20000
AFIX   0
C59   1    0.310868    0.328719    0.288820    11.00000    0.11038    0.16675 =
         0.32499   -0.01459   -0.01157   -0.00879
AFIX  43
H59   2    0.297981    0.332684    0.275741    11.00000   -1.20000
AFIX   0
C175  1    0.586444    0.563510    0.412423    11.00000    0.22254    0.24779 =
         0.11214   -0.02271   -0.06465    0.14180
AFIX  23
H17C  2    0.596494    0.588497    0.405339    11.00000   -1.20000
H17D  2    0.590235    0.547877    0.400345    11.00000   -1.20000
AFIX   0
C149  1    0.461789    0.393508    0.091064    11.00000    0.27894    0.27935 =
         0.13303   -0.07852   -0.05217    0.19968
AFIX  23
H14C  2    0.448761    0.374087    0.078388    11.00000   -1.20000
H14D  2    0.488403    0.403749    0.087983    11.00000   -1.20000
AFIX   0
C53   1    0.409027    0.385551    0.395910    11.00000    0.13603    0.41292 =
         0.12690    0.10108    0.04192    0.15456
AFIX  43
H53   2    0.411439    0.386911    0.413547    11.00000   -1.20000
AFIX   0
C156  1    0.301986    0.583686    0.256485    11.00000    0.12892    0.35138 =
         0.15408    0.02970   -0.01444    0.14028
AFIX  23
H15H  2    0.284042    0.570103    0.269892    11.00000   -1.20000
H15I  2    0.309114    0.609960    0.257661    11.00000   -1.20000
AFIX   0
C166  1    0.687923    0.571442    0.071791    11.00000    0.29523    0.24143 =
         0.14147   -0.05039    0.10465    0.07000
AFIX 137
H16K  2    0.690209    0.584205    0.056019    11.00000   -1.50000
H16L  2    0.667176    0.546223    0.070764    11.00000   -1.50000
H16M  2    0.710620    0.570877    0.074982    11.00000   -1.50000
AFIX   0
C54   1    0.427013    0.420708    0.381314    11.00000    0.10702    0.41303 =
         0.12152    0.08253    0.00800    0.08630
AFIX  43
H54   2    0.436883    0.444604    0.388293    11.00000   -1.20000
AFIX   0
C47   1    0.441574    0.288694    0.315645    11.00000    0.14117    0.13470 =
         0.33237    0.12044    0.08320    0.09346
AFIX  43
H47   2    0.448393    0.270263    0.315983    11.00000   -1.20000
AFIX   0
C169  1    0.854799    0.766936    0.196223    11.00000    0.09086    0.33325 =
         0.18153   -0.01486    0.04321   -0.03613
AFIX  23
H16N  2    0.858792    0.746304    0.191789    11.00000   -1.20000
H16O  2    0.853860    0.778745    0.180476    11.00000   -1.20000
AFIX   0
C160  1    0.452637    0.665727    0.395366    11.00000    0.24936    0.31932 =
         0.21897   -0.09515    0.01053    0.12452
PART 1
AFIX  23
H16P  2    0.428608    0.664573    0.393602    10.50000   -1.20000
H16Q  2    0.470095    0.682697    0.382753    10.50000   -1.20000
AFIX  23
PART 2
H16R  2    0.445655    0.683493    0.388927    10.50000   -1.20000
H16S  2    0.470942    0.665258    0.383962    10.50000   -1.20000
AFIX   0
PART 0
C170  1    0.886086    0.793465    0.210534    11.00000    0.21846    0.28973 =
         0.13492   -0.02017    0.01864   -0.05781
AFIX 137
H17E  2    0.908450    0.794244    0.204391    11.00000   -1.50000
H17F  2    0.882462    0.786296    0.228148    11.00000   -1.50000
H17G  2    0.888544    0.817830    0.208759    11.00000   -1.50000
AFIX   0
C60   1    0.291976    0.298691    0.303652    11.00000    0.09600    0.09335 =
         0.43439    0.04402   -0.02572   -0.00318
AFIX  43
H60   2    0.266247    0.283086    0.301425    11.00000   -1.20000
AFIX   0
PART 1
C161  1    0.449220    0.630007    0.394395    10.50000    0.27528    0.32151 =
         0.10527   -0.08888   -0.01545    0.13523
AFIX  23
H16T  2    0.424820    0.610528    0.400284    10.50000   -1.20000
H16U  2    0.468789    0.629024    0.404076    10.50000   -1.20000
AFIX   0
PART 0
C162  1    0.468423    0.676134    0.422734    11.00000    0.34442    0.35557 =
         0.23392   -0.12073   -0.02252    0.11888
AFIX 137
H16V  2    0.455773    0.654461    0.433506    11.00000   -1.50000
H16W  2    0.464463    0.695754    0.429123    11.00000   -1.50000
H16X  2    0.494826    0.684644    0.422555    11.00000   -1.50000
AFIX   0

C180  1    0.691031    0.718060    0.309898    11.00000    0.17067    0.12353 =
         0.28459   -0.05490   -0.12830    0.07683
AFIX  13
H180  2    0.683682    0.699714    0.323716    11.00000   -1.20000
AFIX   0

C172  1    0.365596    0.502956    0.388535    11.00000    0.12483    0.28173 =
         0.16506   -0.01676    0.04975    0.07587
AFIX  23
H17H  2    0.369609    0.519308    0.402931    11.00000   -1.20000
H17I  2    0.354488    0.477344    0.394660    11.00000   -1.20000
AFIX   0
C173  1    0.340001    0.506221    0.369105    11.00000    0.09065    0.38716 =
         0.20585    0.02324    0.02682    0.08765
AFIX  23
H17J  2    0.354230    0.529756    0.360022    11.00000   -1.20000
H17K  2    0.332188    0.486067    0.356819    11.00000   -1.20000
AFIX   0
C176  1    0.604741    0.564764    0.438198    11.00000    0.18751    0.34974 =
         0.14181   -0.05510   -0.08471    0.12741
AFIX  23
H17L  2    0.601129    0.580894    0.449929    11.00000   -1.20000
H17M  2    0.593342    0.539777    0.445484    11.00000   -1.20000
AFIX   0
C177  1    0.644799    0.579331    0.433976    11.00000    0.25200    0.31901 =
         0.15353   -0.08374   -0.08532    0.07451
AFIX  23
H17N  2    0.657107    0.605200    0.428234    11.00000   -1.20000
H17O  2    0.648886    0.564329    0.421525    11.00000   -1.20000
AFIX   0
C148  1    0.454727    0.376291    0.113074    11.00000    0.25590    0.16834 =
         0.20150   -0.09211   -0.10959    0.09305
AFIX  23
H14E  2    0.463014    0.357994    0.112282    11.00000   -1.20000
H14F  2    0.427744    0.362575    0.115546    11.00000   -1.20000
AFIX   0
C174  1    0.305635    0.504651    0.380215    11.00000    0.23099    0.52020 =
         0.56269    0.16495   -0.06601   -0.08413
AFIX 137
H17P  2    0.306506    0.528115    0.377279    11.00000   -1.50000
H17Q  2    0.304768    0.500094    0.398190    11.00000   -1.50000
H17R  2    0.283641    0.484740    0.372283    11.00000   -1.50000
AFIX   0
C157  1    0.287020    0.570438    0.234498    11.00000    0.13121    0.29592 =
         0.21709    0.04001   -0.03527    0.13109
AFIX  23
H15J  2    0.282602    0.545053    0.232862    11.00000   -1.20000
H15K  2    0.304523    0.585545    0.221261    11.00000   -1.20000
AFIX   0
C178  1    0.659406    0.576183    0.460842    11.00000    0.26072    0.36084 =
         0.23830   -0.10154   -0.15372    0.22952
AFIX 137
H17S  2    0.661794    0.554138    0.461457    11.00000   -1.50000
H17T  2    0.641945    0.574475    0.473630    11.00000   -1.50000
H17U  2    0.683444    0.598003    0.463924    11.00000   -1.50000
AFIX   0
C153  1    0.692898    0.472746    0.179172    11.00000    0.18507    0.32166 =
         0.21174    0.07323    0.06907    0.18082
PART 1
AFIX  23
H15L  2    0.675936    0.446714    0.183619    10.50000   -1.20000
H15M  2    0.687412    0.487935    0.190570    10.50000   -1.20000
AFIX  23
PART 2
H15N  2    0.682634    0.456602    0.164407    10.50000   -1.20000
H15O  2    0.676337    0.461156    0.193594    10.50000   -1.20000
AFIX   0
PART 1
C152  1    0.683401    0.478535    0.153421    10.50000    0.14734    0.17907 =
         0.19494    0.04768    0.06060    0.11743
AFIX  23
H15P  2    0.692699    0.467323    0.141301    10.50000   -1.20000
H15Q  2    0.695701    0.505244    0.149923    10.50000   -1.20000
AFIX   0
PART 0
C158  1    0.251532    0.570016    0.230700    11.00000    0.10378    0.32309 =
         0.16252    0.08502    0.02344    0.14056
AFIX 137
H15R  2    0.247124    0.570635    0.212810    11.00000   -1.50000
H15S  2    0.252837    0.591567    0.238794    11.00000   -1.50000
H15T  2    0.231371    0.547569    0.238008    11.00000   -1.50000
AFIX   0
PART 1
C151  1    0.641977    0.461712    0.149983    10.50000    0.16141    0.18137 =
         0.15085    0.00565    0.05074    0.13207
AFIX  23
H15U  2    0.635678    0.461034    0.132129    10.50000   -1.20000
H15V  2    0.628590    0.436398    0.156761    10.50000   -1.20000
AFIX   0
PART 2
C183  1    0.417925    0.626338    0.398089    10.50000    0.13579    0.35119 =
         0.15001   -0.16804   -0.03552    0.12782
AFIX  23
H18A  2    0.401377    0.625008    0.411703    10.50000   -1.20000
H18B  2    0.424522    0.606930    0.400287    10.50000   -1.20000
AFIX   0
C190  1    0.401502    0.625339    0.371309    10.50000    0.16508    0.31124 =
         0.18633   -0.08065   -0.00342    0.13972
AFIX  23
H19A  2    0.375344    0.605755    0.370692    10.50000   -1.20000
H19B  2    0.402904    0.649164    0.367815    10.50000   -1.20000
AFIX   0
C187  1    0.663315    0.508732    0.179787    10.50000    0.08932    0.17844 =
         0.11633   -0.02578   -0.01637    0.07477
AFIX  23
H18C  2    0.656297    0.499673    0.197086    10.50000   -1.20000
H18D  2    0.666506    0.533727    0.179037    10.50000   -1.20000
AFIX   0
PART 0
C154  1    0.733377    0.481278    0.185078    11.00000    0.23668    0.61694 =
         0.33620    0.13626    0.08271    0.28783
AFIX 137
H15W  2    0.743698    0.475980    0.170317    11.00000   -1.50000
H15X  2    0.732796    0.465869    0.198995    11.00000   -1.50000
H15Y  2    0.748686    0.507266    0.189578    11.00000   -1.50000
AFIX   0
C62   1    0.345742    0.314112    0.323355    11.00000    0.13880    0.08748 =
         0.37616    0.09222    0.11663    0.03021
PART 2
C191  1    0.699022    0.511294    0.174042    10.50000    0.14802    0.30302 =
         0.18339    0.04636    0.03212    0.15676
AFIX  23
H19C  2    0.718731    0.529745    0.184857    10.50000   -1.20000
H19D  2    0.705880    0.518267    0.156394    10.50000   -1.20000
AFIX   0
HKLF 4




REM  Ce(porOBu-tp)2
REM wR2 = 0.2866, GooF = S = 1.170, Restrained GooF = 1.177 for all data
REM R1 = 0.0860 for 25547 Fo > 4sig(Fo) and 0.1018 for all 33301 data
REM 1926 parameters refined using 239 restraints

END

WGHT      0.2000      0.0000

REM No hydrogen bonds found for HTAB generation

REM Highest difference peak  1.768,  deepest hole -1.082,  1-sigma level  0.109
Q1    1   0.7238  0.7451  0.3228  11.00000  0.05    1.60
Q2    1   0.5247  0.5599  0.2687  11.00000  0.05    1.49
Q3    1   0.6550  0.7275  0.3195  11.00000  0.05    1.14
Q4    1   0.4960  0.3529  0.3195  11.00000  0.05    1.04
Q5    1   0.4473  0.3631  0.3318  11.00000  0.05    0.96
Q6    1   0.4796  0.3739  0.3165  11.00000  0.05    0.89
Q7    1   0.4315  0.3317  0.3462  11.00000  0.05    0.85
Q8    1   0.4043  0.3311  0.3654  11.00000  0.05    0.84
Q9    1   0.6972  0.5692  0.1058  11.00000  0.05    0.77
Q10   1   0.5785  0.5811  0.1049  11.00000  0.05    0.72
Q11   1   0.3376  0.2864  0.3382  11.00000  0.05    0.68
Q12   1   0.3849  0.3515  0.3287  11.00000  0.05    0.67
Q13   1   0.4518  0.6449  0.3900  11.00000  0.05    0.65
Q14   1   0.3278  0.4732  0.3483  11.00000  0.05    0.64
Q15   1   0.3330  0.6108  0.2817  11.00000  0.05    0.64
Q16   1   0.7054  0.5446  0.1893  11.00000  0.05    0.63
Q17   1   0.5435  0.5396  0.2499  11.00000  0.05    0.62
Q18   1   0.4317  0.3924  0.1016  11.00000  0.05    0.58
Q19   1   0.6926  0.5884  0.0689  11.00000  0.05    0.57
Q20   1   0.2987  0.6026  0.2468  11.00000  0.05    0.56
Q21   1   0.6188  0.5486  0.4272  11.00000  0.05    0.51
Q22   1   0.2757  0.5713  0.2544  11.00000  0.05    0.51
Q23   1   0.5117  0.4857  0.1044  11.00000  0.05    0.49
Q24   1   0.4756  0.6430  0.4083  11.00000  0.05    0.49
Q25   1   0.4746  0.3177  0.3291  11.00000  0.05    0.48
Q26   1   0.5698  0.7379  0.1185  11.00000  0.05    0.47
Q27   1   0.3938  0.3926  0.3543  11.00000  0.05    0.47
Q28   1   0.3298  0.2853  0.3279  11.00000  0.05    0.47
Q29   1   0.2940  0.5567  0.2496  11.00000  0.05    0.46
Q30   1   0.4338  0.6170  0.4108  11.00000  0.05    0.46
Q31   1   0.7729  0.7315  0.1744  11.00000  0.05    0.43
Q32   1   0.6996  0.6114  0.4753  11.00000  0.05    0.43
Q33   1   0.8050  0.7636  0.1846  11.00000  0.05    0.42
Q34   1   0.4937  0.5172  0.1142  11.00000  0.05    0.41
Q35   1   0.3907  0.5859  0.2875  11.00000  0.05    0.40
Q36   1   0.4292  0.3813  0.3311  11.00000  0.05    0.40
Q37   1   0.3295  0.3138  0.2986  11.00000  0.05    0.40
Q38   1   0.7451  0.7110  0.1884  11.00000  0.05    0.39
Q39   1   0.4441  0.3811  0.3436  11.00000  0.05    0.39
Q40   1   0.3569  0.6031  0.2687  11.00000  0.05    0.39
Q41   1   0.3569  0.5044  0.3520  11.00000  0.05    0.38
Q42   1   0.4380  0.4136  0.3165  11.00000  0.05    0.38
Q43   1   0.3499  0.3176  0.3672  11.00000  0.05    0.38
Q44   1   0.3847  0.3974  0.3820  11.00000  0.05    0.37
Q45   1   0.5219  0.3648  0.3204  11.00000  0.05    0.37
Q46   1   0.4130  0.2796  0.2911  11.00000  0.05    0.37
Q47   1   0.3693  0.4958  0.3682  11.00000  0.05    0.37
Q48   1   0.3584  0.5208  0.3539  11.00000  0.05    0.36
Q49   1   0.4347  0.5297  0.2966  11.00000  0.05    0.36
Q50   1   0.5701  0.7150  0.2696  11.00000  0.05    0.35
Q51   1   0.4189  0.4158  0.3156  11.00000  0.05    0.35
Q52   1   0.5962  0.5362  0.4081  11.00000  0.05    0.35
Q53   1   0.5629  0.5168  0.0924  11.00000  0.05    0.35
Q54   1   0.6568  0.6427  0.1828  11.00000  0.05    0.35
Q55   1   0.5716  0.5436  0.1032  11.00000  0.05    0.34
Q56   1   0.6697  0.4935  0.1947  11.00000  0.05    0.34
Q57   1   0.5466  0.6430  0.3075  11.00000  0.05    0.33
Q58   1   0.4069  0.6241  0.3050  11.00000  0.05    0.33
Q59   1   0.5687  0.5953  0.2635  11.00000  0.05    0.33
Q60   1   0.5298  0.5132  0.4160  11.00000  0.05    0.33
;
_shelx_res_checksum              87498
_shelx_fab_file
;
0 0 6 809.7776 10.2451
0 0 9 -256.8055 -17.3207
0 0 12 -772.2753 -12.3406
0 0 15 55.2379 8.1589
0 0 18 -146.1890 14.6040
0 0 21 -163.8359 -1.2237
0 0 24 -116.6990 -17.5062
0 0 27 -88.3139 -3.8053
0 0 30 -13.4585 14.9115
0 0 33 19.8468 5.2537
0 0 36 110.0049 -10.6389
0 0 39 -28.7954 -5.9702
0 0 42 50.1687 7.1337
0 0 45 24.2570 7.3896
0 0 48 38.9891 -3.8194
0 0 51 27.4265 -7.5462
0 0 54 15.8511 1.5301
0 0 57 3.3939 6.6411
0 0 60 14.2704 -0.0517
0 0 63 -16.2496 -2.7384
0 1 -64 -0.8682 0.2037
0 1 -61 5.3249 1.1840
0 1 -58 -1.1691 -0.6066
0 1 -55 -2.0684 -2.4503
0 1 -52 13.1837 -0.2260
0 1 -49 -3.0684 3.2893
0 1 -46 1.1627 0.9408
0 1 -43 -30.6011 -4.1105
0 1 -40 -12.5644 -2.0817
0 1 -37 -1.2250 4.1810
0 1 -34 -34.5093 2.9918
0 1 -31 -20.6582 -3.4032
0 1 -28 -25.1827 -4.0237
0 1 -25 61.6810 1.1884
0 1 -22 143.0253 6.1779
0 1 -19 -2.3336 1.1063
0 1 -16 -38.6462 -8.7779
0 1 -13 176.0926 -2.2831
0 1 -10 -30.7016 9.6828
0 1 -7 405.3422 2.0021
0 1 5 -811.2006 9.6666
0 1 8 -28.6910 -1.4388
0 1 11 -437.3406 -11.4219
0 1 14 369.1089 -0.6481
0 1 17 -35.6905 12.5875
0 1 20 33.9807 3.1390
0 1 23 110.0576 -10.2802
0 1 26 94.3026 -4.9274
0 1 29 79.0851 7.1292
0 1 32 12.0382 6.7361
0 1 35 13.5413 -3.6531
0 1 38 2.9198 -7.6882
0 1 41 -40.2308 1.0369
0 1 44 2.0468 6.9771
0 1 47 -28.6669 0.8651
0 1 50 -15.5387 -5.8779
0 1 53 9.1596 -1.8686
0 1 56 -8.5997 3.6401
0 1 59 -3.1722 2.8590
0 1 62 0.6632 -0.3157
0 2 -62 1.0514 -3.9018
0 2 -59 6.2292 1.3840
0 2 -56 0.0449 4.2098
0 2 -53 14.5611 0.4954
0 2 -50 1.6845 -4.7283
0 2 -47 24.1241 -2.4372
0 2 -44 17.7743 4.7830
0 2 -41 10.0198 4.7125
0 2 -38 25.0032 -4.4160
0 2 -35 -21.5763 -6.6461
0 2 -32 2.6113 3.5657
0 2 -29 -5.7098 8.0022
0 2 -26 -185.7355 0.0320
0 2 -23 -54.2610 -7.7444
0 2 -20 -228.3056 -3.3821
0 2 -17 -132.8417 8.9100
0 2 -14 57.3746 8.5881
0 2 -11 -208.9447 -9.1195
0 2 -8 70.5996 -10.5032
0 2 -5 525.4209 5.5092
0 2 4 8.4024 -5.6559
0 2 7 72.9410 -3.0073
0 2 10 92.6615 7.3688
0 2 13 124.1342 7.6437
0 2 16 -296.1690 -6.6116
0 2 19 -78.8904 -8.9700
0 2 22 -144.3336 4.3520
0 2 25 -124.1252 7.5588
0 2 28 -70.0904 -1.9127
0 2 31 2.0958 -6.4491
0 2 34 32.1057 -1.0887
0 2 37 -4.2136 5.3175
0 2 40 4.7257 2.3938
0 2 43 20.9442 -4.2157
0 2 46 47.7690 -3.1351
0 2 49 23.7729 2.7668
0 2 52 4.3723 3.0568
0 2 55 8.0284 -1.1060
0 2 58 -9.9760 -2.5507
0 2 61 19.8945 -0.1972
0 2 64 -1.8454 1.9094
0 3 -63 -11.5899 2.2031
0 3 -60 15.3774 1.3638
0 3 -57 -3.4256 -1.1028
0 3 -54 14.2431 -0.5650
0 3 -51 0.9075 1.2825
0 3 -48 13.2325 1.0385
0 3 -45 -47.9597 -1.0863
0 3 -42 25.6167 -1.2045
0 3 -39 -32.8965 0.9140
0 3 -36 -17.2098 1.4680
0 3 -33 -99.6894 -0.5873
0 3 -30 -88.0928 -1.6858
0 3 -27 -43.0625 0.6211
0 3 -24 44.2359 1.9865
0 3 -21 40.8190 -1.1430
0 3 -18 189.9258 -3.2658
0 3 -15 68.7067 -1.3354
0 3 -9 445.1567 2.0061
0 3 -3 102.9205 -4.5259
0 3 3 -1472.1744 6.1134
0 3 6 -130.4320 -3.2410
0 3 9 -93.2993 -8.4587
0 3 12 -88.4278 0.5589
0 3 15 156.9765 8.3397
0 3 18 41.3263 3.6530
0 3 21 32.9382 -6.3102
0 3 24 102.9839 -5.2635
0 3 27 118.2132 5.8796
0 3 30 86.2777 6.8023
0 3 33 53.9543 -3.0613
0 3 36 -19.1544 -6.0120
0 3 39 -29.2415 0.7753
0 3 42 40.5514 5.4082
0 3 45 -26.1221 1.1212
0 3 48 -9.3320 -4.9305
0 3 51 -32.3652 -2.2716
0 3 54 5.2639 3.7190
0 3 57 -16.0321 3.0654
0 3 60 0.0238 -2.7875
0 3 63 -15.7366 -2.6834
0 4 -64 4.2467 0.5157
0 4 -61 1.6303 0.1936
0 4 -58 -6.9807 -1.3639
0 4 -55 3.5784 -1.0248
0 4 -52 -10.5799 1.1344
0 4 -49 -0.4984 0.9635
0 4 -46 -21.2183 -1.2392
0 4 -43 -6.3536 -1.5315
0 4 -40 -9.0132 0.9149
0 4 -37 -31.3859 2.1583
0 4 -34 26.8001 0.2606
0 4 -31 23.3187 -2.6613
0 4 -28 52.7321 -1.5488
0 4 -25 57.5573 3.5900
0 4 -22 -126.6217 3.0145
0 4 -19 3.9407 -3.7847
0 4 -16 -265.2576 -2.6794
0 4 -13 228.8175 3.4075
0 4 -10 -207.1169 2.3147
0 4 -7 -54.2774 -1.3402
0 4 -4 387.6366 -3.6555
0 4 -1 -529.4919 1.0276
0 4 2 473.5155 5.9987
0 4 5 -380.5197 2.3938
0 4 8 183.6366 -3.0862
0 4 11 137.5360 -1.5102
0 4 14 -165.8014 5.0542
0 4 17 12.2412 2.9950
0 4 20 30.0493 -3.5150
0 4 23 40.3782 -2.5233
0 4 26 -30.5381 1.3536
0 4 29 -40.6832 2.3768
0 4 32 -28.8107 -0.0516
0 4 35 -22.5490 -2.8335
0 4 38 -1.7771 -1.3994
0 4 41 -6.0515 2.2291
0 4 44 8.3250 1.4924
0 4 47 12.2594 -1.6418
0 4 50 6.7273 -1.5362
0 4 53 18.7768 0.4805
0 4 56 -6.0173 0.9053
0 4 59 -9.3513 -0.0103
0 4 62 5.0708 -0.6202
0 5 -62 -9.2761 -0.1645
0 5 -59 -4.0484 4.3569
0 5 -56 13.9005 0.9416
0 5 -53 5.4643 -4.5361
0 5 -50 5.1105 -3.2421
0 5 -47 4.7221 4.7513
0 5 -44 -43.4261 5.5700
0 5 -41 -5.9841 -3.5977
0 5 -38 -32.2152 -7.6627
0 5 -35 -22.9539 2.3657
0 5 -32 -46.1980 9.3867
0 5 -29 -5.5025 0.2209
0 5 -23 116.2672 -3.6040
0 5 -20 53.2273 9.1940
0 5 -17 -30.7635 6.5104
0 5 -14 288.9345 -9.2083
0 5 -11 228.5105 -11.0808
0 5 -8 -317.7595 6.4255
0 5 -5 701.7570 11.5904
0 5 -2 -724.6911 -2.3143
0 5 4 228.4589 -2.8594
0 5 7 -480.6731 11.3566
0 5 10 255.7444 5.6708
0 5 13 -229.2207 -9.8515
0 5 16 -218.3177 -8.0493
0 5 19 96.4160 6.7725
0 5 22 40.7856 9.0548
0 5 25 127.2986 -3.3977
0 5 28 74.7505 -9.6062
0 5 31 36.3235 -0.1154
0 5 34 11.4305 9.2151
0 5 37 7.3570 2.3652
0 5 40 -4.5628 -7.5972
0 5 43 -13.7904 -3.6499
0 5 46 0.9960 5.3792
0 5 49 -19.7341 4.4850
0 5 52 -27.3605 -3.2248
0 5 55 14.0486 -4.2509
0 5 58 -16.9680 1.4370
0 5 61 1.6500 3.2884
0 5 64 -1.9000 -0.4365
0 6 -63 -12.0226 -0.1217
0 6 -60 0.2657 0.9827
0 6 -57 5.6025 -0.4934
0 6 -54 -7.6820 -1.4310
0 6 -51 -10.5124 0.3485
0 6 -48 -18.0815 1.4928
0 6 -45 -32.0323 0.4286
0 6 -42 -10.8431 -1.2834
0 6 -39 -38.0758 -1.0224
0 6 -36 -7.9849 0.9939
0 6 -33 -15.8360 1.7910
0 6 -30 77.8687 -1.1008
0 6 -27 136.6595 -2.3957
0 6 -24 53.2346 0.8364
0 6 -21 105.1778 2.0165
0 6 -18 -18.8833 -1.4309
0 6 -15 -81.7177 -2.4345
0 6 -12 321.5060 -0.6054
0 6 -9 -234.0648 1.2355
0 6 -6 131.2734 1.5992
0 6 -3 -411.3434 -0.1382
0 6 0 133.0911 -1.2545
0 6 3 -27.4750 1.6277
0 6 6 394.9266 3.1623
0 6 9 103.6042 0.0298
0 6 15 3.7915 0.7625
0 6 18 38.5805 0.7358
0 6 21 36.8180 0.4442
0 6 24 88.2130 -0.0272
0 6 27 38.7308 -0.5614
0 6 30 -45.9549 0.1905
0 6 33 -2.5964 0.6565
0 6 36 -6.1805 -0.6739
0 6 39 -3.6213 -0.3737
0 6 42 0.4475 0.6922
0 6 45 -24.6726 -0.1066
0 6 48 13.6273 -0.9893
0 6 51 5.5958 -0.1317
0 6 54 17.4185 0.5400
0 6 57 4.2935 0.0107
0 6 60 -4.1313 -1.0701
0 6 63 -6.7428 -1.1847
0 7 -61 1.0280 -3.1194
0 7 -58 -11.3265 -1.5797
0 7 -55 -8.1618 3.4295
0 7 -52 -3.1802 3.4860
0 7 -49 -19.6793 -3.7866
0 7 -46 -15.9933 -5.1553
0 7 -43 3.7517 2.9577
0 7 -40 -9.7880 6.8085
0 7 -37 64.0966 -1.0875
0 7 -34 10.6847 -8.3149
0 7 -31 36.8259 -2.1330
0 7 -28 -10.5429 8.4623
0 7 -25 -0.4937 4.9214
0 7 -22 -97.1220 -8.3640
0 7 -19 90.1523 -8.0036
0 7 -16 -134.1620 6.4297
0 7 -13 131.2951 9.4773
0 7 -10 -111.0738 -3.5635
0 7 -7 -163.0949 -11.1864
0 7 -4 222.7272 -0.3101
0 7 -1 -227.1877 11.2113
0 7 2 -97.1496 4.4655
0 7 5 -63.4300 -10.3496
0 7 8 -82.9061 -6.7363
0 7 11 87.1639 8.0664
0 7 14 111.9881 8.0859
0 7 17 214.1283 -4.7958
0 7 20 50.1301 -9.0616
0 7 23 79.9651 1.4771
0 7 26 -53.2991 9.0240
0 7 29 -4.3219 1.0330
0 7 32 8.5055 -8.0217
0 7 35 -18.3136 -2.8087
0 7 38 -16.4295 6.0445
0 7 41 -4.8087 3.6692
0 7 44 -12.7181 -3.5275
0 7 47 0.5162 -4.0837
0 7 50 -3.6629 1.7590
0 7 53 -8.7768 3.3689
0 7 56 1.1961 -0.7580
0 7 59 -0.5700 -2.4782
0 7 62 8.5568 0.7888
0 8 -62 -2.7253 0.7173
0 8 -59 7.1164 1.4518
0 8 -56 -7.8141 0.0947
0 8 -53 -1.2609 -0.9237
0 8 -50 -24.0509 -0.6722
0 8 -47 -14.4551 1.1886
0 8 -44 -19.4577 1.3129
0 8 -41 18.5963 -0.9772
0 8 -38 -0.6775 -2.0225
0 8 -35 -27.0207 0.5817
0 8 -32 2.5042 2.4173
0 8 -29 10.1517 0.3820
0 8 -26 -22.2133 -2.2721
0 8 -23 94.6661 -0.6201
0 8 -20 -243.4855 1.6706
0 8 -17 214.5687 1.0592
0 8 -14 -10.6766 -1.4147
0 8 -11 -206.0761 -1.4773
0 8 -8 -193.0074 1.2718
0 8 -5 235.5992 3.0698
0 8 -2 -149.6431 0.4040
0 8 1 -56.2310 -2.7340
0 8 4 -73.1504 -0.9254
0 8 7 -182.0437 1.5202
0 8 10 -2.4850 0.7522
0 8 13 22.9211 -1.2207
0 8 16 38.7674 -1.2822
0 8 19 139.6221 0.5177
0 8 22 25.1385 1.7060
0 8 25 -71.8276 0.0120
0 8 28 -106.3712 -2.3088
0 8 31 -16.1848 -0.6170
0 8 34 -15.2509 2.2795
0 8 37 -8.9179 0.7884
0 8 40 1.8881 -1.8409
0 8 43 0.3754 -0.7662
0 8 46 22.8907 1.0758
0 8 49 -0.2880 0.8820
0 8 52 9.5475 -0.8735
0 8 55 6.4785 -1.1951
0 8 58 -5.1710 0.0056
0 8 61 -6.5853 1.2276
0 9 -63 0.3110 0.5350
0 9 -60 -6.8136 1.2078
0 9 -57 0.2033 -1.6464
0 9 -54 -9.6433 -2.4428
0 9 -51 0.1001 1.9386
0 9 -48 -0.5265 3.3182
0 9 -45 12.1708 -0.9338
0 9 -42 11.4921 -4.2492
0 9 -39 52.7700 -0.2611
0 9 -36 4.9073 4.8767
0 9 -33 67.1365 1.6537
0 9 -30 70.6767 -5.2974
0 9 -27 -5.8522 -3.4632
0 9 -24 -16.3490 4.4949
0 9 -21 -130.2003 4.2647
0 9 -18 -52.5638 -3.6222
0 9 -15 9.7068 -6.5326
0 9 -12 -295.1317 0.6885
0 9 -9 -77.7013 7.2118
0 9 -6 -25.9298 1.5959
0 9 -3 123.9454 -6.8442
0 9 0 104.3377 -2.6451
0 9 3 -124.7974 6.3974
0 9 6 238.3001 4.5390
0 9 9 149.3991 -4.4962
0 9 12 -16.6488 -5.3538
0 9 15 241.6357 2.9830
0 9 18 27.6582 6.3885
0 9 21 85.5704 -1.0455
0 9 24 -43.3181 -5.8552
0 9 27 -21.5285 0.0671
0 9 30 -26.9938 5.1002
0 9 33 42.4622 1.1256
0 9 36 -35.6647 -3.9161
0 9 39 -10.6567 -1.9724
0 9 42 -15.8665 2.6937
0 9 45 4.2735 2.5241
0 9 48 7.5679 -1.6024
0 9 51 -9.7692 -1.9160
0 9 54 -6.1710 1.4786
0 9 57 9.5535 1.9150
0 9 60 -7.4551 -0.2127
0 9 63 1.6570 -1.2594
0 10 -61 7.3977 -1.9630
0 10 -58 -9.5274 1.9864
0 10 -55 10.1635 2.6608
0 10 -52 10.9387 -1.4146
0 10 -49 1.6200 -3.4387
0 10 -46 20.7799 0.2973
0 10 -43 11.7506 4.3574
0 10 -40 -11.2506 0.9355
0 10 -37 30.5474 -4.4902
0 10 -34 -64.2610 -2.9035
0 10 -31 33.3073 4.1173
0 10 -28 -17.9508 4.7644
0 10 -25 -5.0788 -3.0682
0 10 -22 -118.4288 -5.5117
0 10 -19 102.8755 2.0635
0 10 -16 -126.7505 6.2143
0 10 -13 -142.3113 0.8841
0 10 -10 123.8400 -5.2906
0 10 -7 -227.9074 -2.9718
0 10 -4 220.2623 5.6275
0 10 -1 -63.0881 4.9871
0 10 2 107.7508 -5.1784
0 10 5 263.1406 -6.5399
0 10 8 250.3632 2.3148
0 10 11 46.5316 5.7856
0 10 14 1.2066 -0.3918
0 10 17 -91.9341 -5.6805
0 10 20 -197.4473 -2.0842
0 10 23 -55.3309 5.2189
0 10 26 -79.7115 3.2329
0 10 29 27.2666 -4.5187
0 10 32 -34.9576 -3.7206
0 10 35 4.3953 2.9789
0 10 38 -25.8269 3.8579
0 10 41 9.3828 -1.3749
0 10 44 -3.6728 -3.0293
0 10 47 24.6746 -0.0061
0 10 50 7.1040 2.6604
0 10 53 5.9802 0.5826
0 10 56 21.3610 -2.3225
0 10 59 -8.5951 -0.9094
0 10 62 12.9087 1.4199
0 11 -62 1.3910 -0.8239
0 11 -59 4.6893 0.3829
0 11 -56 -7.1454 1.1686
0 11 -53 8.1852 -0.5882
0 11 -50 0.6415 -1.4894
0 11 -47 15.1359 0.0167
0 11 -44 3.0143 2.0374
0 11 -41 31.6315 0.7725
0 11 -38 -12.3295 -2.1851
0 11 -35 18.7065 -1.5900
0 11 -32 22.0193 2.0527
0 11 -29 25.8035 2.3093
0 11 -26 -32.4966 -1.5953
0 11 -23 9.4188 -3.4726
0 11 -20 -63.0782 0.2746
0 11 -17 83.8019 3.1157
0 11 -14 -353.5739 -0.2654
0 11 -11 -52.3490 -3.3755
0 11 -8 149.2638 -0.4314
0 11 -5 -18.5857 3.5571
0 11 -2 83.7663 2.3130
0 11 4 78.8667 -3.4570
0 11 7 52.9489 1.9509
0 11 10 -97.0718 4.2262
0 11 13 21.1334 -0.5961
0 11 16 56.5252 -2.6098
0 11 19 -47.5404 0.6338
0 11 22 -103.4355 2.1734
0 11 25 15.4494 0.6320
0 11 28 39.5098 -1.3869
0 11 31 -9.6518 -0.8446
0 11 34 -13.8807 1.2411
0 11 37 -26.0300 1.0936
0 11 40 -17.8280 -0.9054
0 11 43 -1.9442 -0.9208
0 11 46 -3.5845 0.4749
0 11 49 -2.0082 1.0514
0 11 52 1.7261 -0.2966
0 11 55 -10.8931 -0.2690
0 11 58 6.2866 -0.3008
0 11 61 0.1647 0.1551
0 12 -60 -5.9313 -1.1310
0 12 -57 7.2558 -2.1708
0 12 -54 -2.8078 1.3729
0 12 -51 7.9794 3.2025
0 12 -48 15.7599 -0.1167
0 12 -45 2.8716 -3.9252
0 12 -42 21.8829 -1.4119
0 12 -39 -1.0439 4.5922
0 12 -36 -5.2823 2.8829
0 12 -33 44.4799 -4.5695
0 12 -30 -12.8543 -4.9537
0 12 -27 -67.2529 3.4350
0 12 -24 -30.2877 6.6956
0 12 -21 -9.8397 -1.1535
0 12 -18 -73.8046 -7.8929
0 12 -15 12.1274 -1.4167
0 12 -12 -132.8303 9.3909
0 12 -9 308.1254 4.2812
0 12 -6 225.3218 -8.3055
0 12 -3 63.8669 -5.9751
0 12 0 300.2439 6.2452
0 12 3 -86.4601 7.1963
0 12 6 249.9156 -3.6207
0 12 9 5.6290 -9.1230
0 12 12 -61.0420 -0.4545
0 12 15 132.4942 8.9327
0 12 18 -9.7934 2.0973
0 12 21 -93.4984 -8.7409
0 12 24 7.3577 -3.6287
0 12 27 25.8756 6.6350
0 12 30 -44.2363 4.2019
0 12 33 10.7135 -4.3335
0 12 36 -22.1851 -5.0772
0 12 39 11.0204 1.9109
0 12 42 28.5580 5.5368
0 12 45 3.2938 -0.0488
0 12 48 1.0717 -4.5075
0 12 51 8.6696 -0.5089
0 12 54 -1.1271 4.0607
0 12 57 7.7154 1.8420
0 12 60 1.9270 -2.9041
0 13 -61 -0.4836 -0.8430
0 13 -58 -5.2732 -0.2151
0 13 -55 13.5797 0.3108
0 13 -52 -1.6313 -0.0294
0 13 -49 -0.8338 -0.4760
0 13 -46 5.3533 -0.4164
0 13 -43 -15.5688 0.1689
0 13 -40 -10.9070 0.1396
0 13 -37 37.9454 -0.6534
0 13 -34 -41.7182 -0.7746
0 13 -31 47.3160 0.1805
0 13 -28 -56.7029 0.7260
0 13 -25 -78.2305 -0.0600
0 13 -22 40.6292 -0.6191
0 13 -19 -34.3124 -0.3801
0 13 -16 -136.6295 0.5301
0 13 -13 161.9802 0.9793
0 13 -10 -55.6773 0.0307
0 13 -7 131.9282 -0.6716
0 13 -4 127.2419 0.4541
0 13 -1 -29.4952 0.8961
0 13 2 70.2054 -0.8208
0 13 5 94.5029 -1.1473
0 13 8 -76.3809 0.8591
0 13 11 -12.0096 1.5911
0 13 14 -163.1921 -0.0415
0 13 17 3.8025 -0.5207
0 13 20 -57.1083 0.2747
0 13 23 29.5966 0.9192
0 13 26 -19.0356 -0.2327
0 13 29 -2.7917 -1.0877
0 13 32 -51.7984 0.0729
0 13 35 11.9907 1.1282
0 13 38 -22.8840 0.0030
0 13 41 27.9900 -1.0540
0 13 44 5.3200 -0.1665
0 13 47 15.1247 0.6989
0 13 50 -6.2936 0.4452
0 13 53 6.9167 -0.9522
0 13 56 -11.0191 -0.0508
0 13 59 2.6917 1.1145
0 14 -59 -11.1353 2.1584
0 14 -56 6.7075 -0.7890
0 14 -53 -10.1297 -2.8663
0 14 -50 -2.9096 -0.3805
0 14 -47 1.5224 3.1294
0 14 -44 10.5023 1.5706
0 14 -41 -32.6952 -3.8007
0 14 -38 1.7135 -3.0015
0 14 -35 -9.4714 3.4664
0 14 -32 -44.9819 4.4341
0 14 -29 -17.1706 -2.4509
0 14 -26 -58.4249 -6.1247
0 14 -23 2.5948 0.6238
0 14 -20 -79.1434 7.1819
0 14 -17 -85.0689 0.5908
0 14 -14 165.8551 -8.1616
0 14 -11 55.5180 -2.9903
0 14 -8 146.5387 7.2765
0 14 -5 44.0119 5.0001
0 14 -2 -11.0630 -6.0615
0 14 1 51.7180 -7.5057
0 14 4 46.5723 3.3896
0 14 7 -131.9513 8.4407
0 14 10 65.0141 -1.3644
0 14 13 -69.2850 -8.3555
0 14 16 -47.2918 -0.6915
0 14 19 -8.0180 7.0532
0 14 22 16.4928 2.3071
0 14 25 16.0836 -5.3661
0 14 28 11.0224 -3.7721
0 14 31 -45.0333 3.6597
0 14 34 25.5454 4.7406
0 14 37 11.8409 -1.9346
0 14 40 11.1838 -4.8464
0 14 43 4.7362 0.6516
0 14 46 8.6360 4.2712
0 14 49 -12.4952 0.4402
0 14 52 -0.8711 -3.1556
0 14 55 -11.5131 -1.2663
0 14 58 3.8765 2.1486
0 14 61 -7.0020 1.3017
0 15 -60 -8.2499 -1.0852
0 15 -57 3.4911 -0.5011
0 15 -54 4.9862 1.0839
0 15 -51 4.7216 0.4523
0 15 -48 1.7283 -1.3225
0 15 -45 -4.0765 -1.4629
0 15 -42 -10.9315 1.0488
0 15 -39 -24.0841 1.7204
0 15 -36 47.5948 -0.9686
0 15 -33 -38.1936 -2.4723
0 15 -30 -31.0102 0.5246
0 15 -27 3.2203 3.1184
0 15 -24 8.3769 0.7633
0 15 -21 -20.1291 -2.5058
0 15 -18 1.1366 -0.9588
0 15 -15 98.3816 3.0256
0 15 -12 -70.8444 3.1994
0 15 -9 228.5252 -1.7337
0 15 -6 19.6794 -3.7249
0 15 -3 -25.2471 1.3950
0 15 0 154.5258 4.9956
0 15 3 -14.0306 -0.2091
0 15 6 -116.0927 -5.2055
0 15 9 -9.7756 -1.2926
0 15 12 3.4077 3.9253
0 15 15 -34.8290 1.9034
0 15 18 -0.1497 -3.5978
0 15 21 -61.9620 -3.0688
0 15 24 41.1270 2.4181
0 15 27 -9.2525 3.1500
0 15 30 -30.6862 -1.4834
0 15 33 18.8537 -3.4520
0 15 36 20.4326 0.2209
0 15 39 -1.6097 3.1263
0 15 42 -2.3167 0.6470
0 15 45 -3.9245 -2.3604
0 15 48 -5.4455 -1.0480
0 15 51 12.4367 1.8854
0 15 54 1.5322 0.7865
0 15 57 5.4574 -1.6542
0 15 60 4.0313 -1.4787
0 16 -58 4.6612 0.5150
0 16 -55 -0.3083 2.1094
0 16 -52 -2.6897 -0.4203
0 16 -49 -22.3541 -3.3944
0 16 -46 -2.5262 -0.6232
0 16 -43 -15.2386 3.6503
0 16 -40 -26.6839 2.0723
0 16 -37 2.1672 -3.2636
0 16 -34 -63.6470 -3.6116
0 16 -31 27.1703 2.9144
0 16 -28 -9.0267 5.4598
0 16 -25 3.8038 -1.6625
0 16 -22 71.6863 -6.4480
0 16 -19 -30.0919 -0.3694
0 16 -16 1.5712 6.0770
0 16 -13 132.5625 1.6780
0 16 -10 -12.9526 -5.8308
0 16 -7 81.2097 -4.2360
0 16 -4 -36.2446 4.6014
0 16 -1 -54.1525 5.4183
0 16 2 29.0640 -4.0152
0 16 5 -102.9946 -6.6001
0 16 8 -131.0556 2.0890
0 16 11 28.1604 6.8075
0 16 14 -103.0098 0.5968
0 16 17 83.2929 -5.5303
0 16 20 10.3095 -2.2792
0 16 23 -9.9789 4.8922
0 16 26 27.9673 3.5977
0 16 29 18.8284 -3.3545
0 16 32 -18.8991 -3.5446
0 16 35 66.6881 2.2710
0 16 38 8.1377 3.9815
0 16 41 4.0457 -0.9005
0 16 44 -21.7659 -3.4449
0 16 47 -15.4243 0.0710
0 16 50 -15.2020 2.6464
0 16 53 7.1170 0.3447
0 16 56 -10.7518 -2.2055
0 16 59 0.6759 0.0938
0 17 -59 -0.1534 1.0251
0 17 -56 3.2597 -1.8402
0 17 -53 -14.5057 -0.6075
0 17 -50 4.2077 1.9746
0 17 -47 2.5276 1.4369
0 17 -44 -2.2067 -2.1175
0 17 -41 -25.1860 -2.4588
0 17 -38 36.2952 1.8401
0 17 -35 -5.9341 3.2795
0 17 -32 43.4332 -1.0840
0 17 -29 15.6790 -3.8920
0 17 -26 -60.5958 -0.2421
0 17 -23 24.0119 4.8371
0 17 -20 25.2494 2.5237
0 17 -17 -26.1990 -4.8060
0 17 -14 145.4645 -4.0281
0 17 -11 -116.9786 4.7042
0 17 -8 -20.3317 5.3908
0 17 -5 50.6141 -3.3291
0 17 -2 -83.3844 -5.8692
0 17 1 11.3345 1.4094
0 17 4 59.7538 6.2668
0 17 7 -55.8874 0.8905
0 17 10 57.7700 -6.1783
0 17 13 -6.7112 -2.6104
0 17 16 69.3142 4.6678
0 17 19 37.8375 3.4680
0 17 22 -0.5486 -3.4200
0 17 25 -43.4011 -4.1822
0 17 28 61.1264 1.7481
0 17 31 -22.5411 4.3349
0 17 34 19.0387 -0.2831
0 17 37 -31.0648 -4.0835
0 17 40 -17.3660 -0.8053
0 17 43 -27.6931 2.9550
0 17 46 -1.5581 1.3998
0 17 49 -14.0619 -2.1977
0 17 52 0.9161 -1.3963
0 17 55 1.0133 0.9048
0 17 58 -0.0913 1.8929
0 18 -57 -0.4327 -0.7279
0 18 -54 -2.0903 1.4891
0 18 -51 -15.6566 1.0536
0 18 -48 -3.6527 0.3649
0 18 -45 -25.6858 -1.3627
0 18 -42 16.0319 -0.5835
0 18 -39 -22.5236 1.5213
0 18 -36 36.2330 1.2632
0 18 -33 -32.9777 -1.1546
0 18 -30 11.0568 -1.8190
0 18 -27 -0.2692 0.9506
0 18 -24 35.7826 2.4329
0 18 -21 26.4691 -0.2845
0 18 -18 48.6495 -2.7312
0 18 -15 -16.1148 -0.8339
0 18 -12 68.5605 2.5166
0 18 -9 55.2510 1.2944
0 18 -6 -22.5157 -2.4320
0 18 -3 -0.3193 -1.6486
0 18 0 -127.4634 2.0742
0 18 3 -59.0854 1.8326
0 18 6 -43.2816 -1.3188
0 18 9 -0.1858 -2.3303
0 18 12 60.5629 0.2051
0 18 15 -31.4483 2.4480
0 18 18 22.6338 0.9254
0 18 21 -23.0043 -1.7009
0 18 24 38.3729 -0.6475
0 18 27 -40.0849 1.6179
0 18 30 43.4211 1.1475
0 18 33 -9.4390 -1.0013
0 18 36 6.4617 -0.9768
0 18 39 -7.0888 0.7474
0 18 42 10.8284 1.2727
0 18 45 3.9384 -0.0884
0 18 48 16.1850 -0.8070
0 18 51 -1.9968 0.2581
0 18 54 4.0580 1.0636
0 18 57 -9.4560 -0.0176
0 19 -58 -5.4047 2.0624
0 19 -55 -7.5790 0.6043
0 19 -52 -4.7987 -2.4511
0 19 -49 -24.1566 -1.2227
0 19 -46 11.3936 3.2110
0 19 -43 3.2692 2.4107
0 19 -40 -6.6802 -2.4993
0 19 -37 18.9432 -3.9028
0 19 -34 37.6493 1.1268
0 19 -31 -11.8283 5.3157
0 19 -28 -10.4454 0.4129
0 19 -25 19.4968 -6.1102
0 19 -22 -40.2430 -2.0472
0 19 -19 -14.4343 5.8241
0 19 -16 -51.2951 3.6249
0 19 -13 42.1199 -5.1925
0 19 -10 -65.2236 -5.4600
0 19 -7 -134.2683 3.1708
0 19 -4 -10.4616 6.6493
0 19 -1 -58.1472 -1.3929
0 19 2 -39.0203 -7.5398
0 19 5 22.3374 -1.2461
0 19 8 -76.1578 6.9440
0 19 11 162.1874 2.9950
0 19 14 32.8405 -5.3877
0 19 17 43.2370 -4.7338
0 19 20 44.7518 3.6577
0 19 23 35.3411 5.2942
0 19 26 -3.0839 -2.0036
0 19 29 45.1183 -5.2747
0 19 32 -16.7062 0.1381
0 19 35 5.6476 4.7776
0 19 38 -27.4417 1.3990
0 19 41 -14.7207 -3.5364
0 19 44 -14.4018 -2.1349
0 19 47 15.7270 2.6392
0 19 50 -10.1508 2.1862
0 19 53 7.8058 -0.5460
0 19 56 -7.8350 -2.6168
0 20 -56 5.4115 0.4535
0 20 -53 -20.0628 0.1034
0 20 -50 4.9275 0.4728
0 20 -47 -4.5444 -0.4441
0 20 -44 -9.3985 -0.3730
0 20 -41 3.5027 0.2504
0 20 -38 11.1749 0.6650
0 20 -35 3.9663 -0.3714
0 20 -32 -10.4728 -1.6148
0 20 -29 -67.0022 -0.2086
0 20 -26 41.8144 1.5833
0 20 -23 22.9123 0.9699
0 20 -20 14.2061 -1.7121
0 20 -17 -37.5364 -1.8716
0 20 -14 67.2191 1.4460
0 20 -11 -48.9763 2.3565
0 20 -8 45.8397 -0.7318
0 20 -5 -31.4326 -2.6577
0 20 -2 8.8337 0.3440
0 20 1 19.3689 3.5034
0 20 4 27.9662 1.0597
0 20 7 -38.5720 -2.9869
0 20 10 70.4303 -1.7478
0 20 13 23.2625 2.3949
0 20 16 -34.0889 2.1800
0 20 19 -29.9903 -1.5140
0 20 22 15.0045 -2.4166
0 20 25 -30.0168 0.4631
0 20 28 24.4904 2.8101
0 20 31 -44.2146 0.4170
0 20 34 -18.5146 -2.8539
0 20 37 2.0071 -1.3283
0 20 40 4.9440 1.9546
0 20 43 -3.5104 1.4981
0 20 46 14.9035 -1.4436
0 20 49 -2.4579 -2.2713
0 20 52 4.7317 0.7171
0 20 55 -3.9461 2.4474
0 21 -54 1.1093 2.3514
0 21 -51 -3.9441 0.4879
0 21 -48 19.6054 -2.1315
0 21 -45 -2.8778 -2.3354
0 21 -42 17.8818 1.7796
0 21 -39 -1.3284 3.2322
0 21 -36 23.0981 -1.3206
0 21 -33 -25.7212 -4.4146
0 21 -30 39.5316 0.1093
0 21 -27 31.8316 5.3355
0 21 -24 13.7743 1.2200
0 21 -21 -10.8832 -5.1356
0 21 -18 -27.2854 -2.9583
0 21 -15 -79.1945 3.9225
0 21 -12 31.0236 4.3992
0 21 -9 -110.2937 -2.9024
0 21 -6 -69.0582 -5.9880
0 21 -3 -30.1454 1.1589
0 21 0 55.2177 6.5997
0 21 3 49.4631 0.2667
0 21 6 99.6207 -6.6420
0 21 9 19.9270 -2.1943
0 21 12 24.9730 5.4562
0 21 15 -25.5050 3.9376
0 21 18 16.8785 -3.6748
0 21 21 -36.1929 -4.6207
0 21 24 44.8437 2.1606
0 21 27 -19.6561 4.8800
0 21 30 37.7755 -0.5378
0 21 33 -16.3640 -4.4193
0 21 36 16.0780 -0.6010
0 21 39 -4.5537 3.7720
0 21 42 -7.8039 1.5383
0 21 45 -7.6763 -2.7719
0 21 48 7.9207 -1.5715
0 21 51 -2.1080 0.3155
0 21 54 -7.0052 2.1959
0 22 -55 3.3384 -1.3678
0 22 -52 7.6594 -1.4780
0 22 -49 -7.3198 1.1049
0 22 -46 17.0614 1.7705
0 22 -43 -2.5049 -0.7332
0 22 -40 -1.0507 -2.5080
0 22 -37 24.3811 -0.5010
0 22 -34 -19.4142 2.9604
0 22 -31 -9.1082 1.2630
0 22 -28 33.9723 -3.1935
0 22 -25 -35.2119 -2.3228
0 22 -22 -31.3350 2.9316
0 22 -19 21.2993 3.5625
0 22 -16 -74.7743 -2.1754
0 22 -13 43.4393 -4.5607
0 22 -10 -44.0318 0.8009
0 22 -7 -25.4057 5.5126
0 22 -4 97.5573 1.0517
0 22 -1 14.9328 -5.2790
0 22 2 -26.9726 -2.2733
0 22 5 63.3456 4.2673
0 22 8 -0.0254 3.6313
0 22 11 36.8236 -2.5319
0 22 14 -16.3740 -4.4039
0 22 17 -9.3556 0.6943
0 22 20 -5.1078 4.9242
0 22 23 28.9248 0.6883
0 22 26 -23.9735 -4.9259
0 22 29 1.1818 -1.7007
0 22 32 -26.3393 3.7589
0 22 35 -17.0589 2.6575
0 22 38 -19.0517 -2.4507
0 22 41 19.5047 -3.1003
0 22 44 -14.0009 1.1958
0 22 47 6.0170 3.5031
0 22 50 -7.9358 -0.1745
0 22 53 7.1260 -3.1690
0 23 -53 -0.5471 -1.5180
0 23 -50 15.2428 0.6987
0 23 -47 -13.5690 1.9339
0 23 -44 13.4069 -0.4864
0 23 -41 4.1627 -2.4114
0 23 -38 3.4963 -0.1111
0 23 -35 -6.1792 2.6660
0 23 -32 8.6061 0.8243
0 23 -29 -3.0547 -2.4929
0 23 -26 31.0310 -1.6800
0 23 -23 -30.5665 2.5620
0 23 -20 -62.5874 2.8090
0 23 -17 7.8023 -1.8629
0 23 -14 9.1392 -3.5012
0 23 -11 -22.0264 0.9751
0 23 -8 57.9291 3.6758
0 23 -5 -7.0678 -0.0558
0 23 -2 109.1549 -3.7466
0 23 1 -6.8097 -0.9845
0 23 4 10.2368 3.3187
0 23 7 57.4213 1.7557
0 23 10 -5.4045 -2.8930
0 23 13 -31.5836 -2.7853
0 23 16 4.5605 1.6873
0 23 19 -1.6374 3.2792
0 23 22 1.0779 -0.8395
0 23 25 -49.3403 -3.2934
0 23 28 -37.6008 0.0541
0 23 31 -4.1296 2.9548
0 23 34 20.3312 0.4656
0 23 37 -7.0382 -2.3778
0 23 40 20.0845 -0.9759
0 23 43 -1.2665 2.0543
0 23 46 6.6256 1.1054
0 23 49 0.2796 0.3094
0 23 52 2.5049 -0.9686
0 24 -54 7.9903 2.2734
0 24 -51 4.0239 -1.7716
0 24 -48 5.6811 -2.6076
0 24 -45 -10.0416 1.1217
0 24 -42 9.0291 3.4835
0 24 -39 -1.1544 0.2032
0 24 -36 -12.1895 -4.0246
0 24 -33 -1.7015 -1.3747
0 24 -30 20.3266 3.9954
0 24 -27 -40.2980 3.1085
0 24 -24 12.7808 -3.3905
0 24 -21 -52.2865 -4.4358
0 24 -18 16.4205 1.8770
0 24 -15 36.0225 5.7278
0 24 -12 6.5727 -0.4122
0 24 -9 17.4090 -6.3630
0 24 -6 44.9964 -1.0973
0 24 -3 51.7822 5.9846
0 24 0 50.5068 2.9070
0 24 3 -75.1364 -4.8853
0 24 6 0.1915 -4.8697
0 24 9 -30.2130 2.8358
0 24 12 8.5466 6.1551
0 24 15 -5.2541 -1.2502
0 24 18 39.2803 -6.0519
0 24 21 -13.3419 -0.2849
0 24 24 53.5821 5.0480
0 24 27 -19.9835 1.9778
0 24 30 12.9890 -3.9523
0 24 33 3.9670 -2.7604
0 24 36 -3.5974 2.4521
0 24 39 -8.2302 3.5479
0 24 42 -4.3190 -1.7760
0 24 45 10.7191 -3.3966
0 24 48 4.2904 0.8407
0 24 51 -9.8196 2.1547
0 24 54 1.8938 0.7386
0 25 -52 -3.2259 -0.0010
0 25 -49 -7.0982 -1.3541
0 25 -46 3.4958 0.4639
0 25 -43 -1.9953 1.3834
0 25 -40 1.5227 0.2968
0 25 -37 12.9880 -0.8501
0 25 -34 -17.9605 -0.5486
0 25 -31 19.9088 0.7903
0 25 -28 -16.0860 1.1422
0 25 -25 -42.7346 -0.5176
0 25 -22 10.0012 -1.0549
0 25 -19 0.1225 0.4270
0 25 -16 -11.7544 1.3070
0 25 -13 70.6554 -0.1099
0 25 -10 -17.1876 -0.9560
0 25 -7 34.6113 -0.1149
0 25 -4 31.6129 0.7831
0 25 -1 -41.8312 0.3760
0 25 2 47.9670 -0.6720
0 25 5 20.7035 -0.6482
0 25 8 -15.7556 0.6751
0 25 11 34.1935 1.0087
0 25 14 -48.5638 -0.9577
0 25 17 -26.2305 -0.9762
0 25 20 -13.7558 0.7430
0 25 23 -38.4214 0.9806
0 25 26 -15.2910 -0.9148
0 25 29 -23.2995 -0.4364
0 25 32 -9.2212 0.7287
0 25 35 14.7269 0.7538
0 25 38 -0.5708 -0.1773
0 25 41 18.1123 -1.0812
0 25 44 -0.7328 0.1570
0 25 47 12.7267 -0.1818
0 25 50 5.5631 -0.6449
0 25 53 13.3589 -0.5748
0 26 -50 -1.7877 2.8950
0 26 -47 -9.1944 -0.7852
0 26 -44 14.9396 -2.7573
0 26 -41 -12.4699 -0.3031
0 26 -38 0.4067 3.7817
0 26 -35 13.0966 1.5760
0 26 -32 -12.1332 -3.2456
0 26 -29 0.0945 -2.6836
0 26 -26 6.2504 2.8812
0 26 -23 -12.1466 4.2077
0 26 -20 26.7246 -2.0275
0 26 -17 60.7420 -5.0516
0 26 -14 0.2516 0.4935
0 26 -11 25.4499 5.2885
0 26 -8 37.3690 0.9602
0 26 -5 -26.0110 -5.0295
0 26 -2 6.0888 -2.8730
0 26 1 9.4179 4.1126
0 26 4 -10.4113 4.3624
0 26 7 -14.1279 -3.4493
0 26 10 -4.9571 -5.4054
0 26 13 -32.0849 1.7896
0 26 16 -6.4254 5.1716
0 26 19 -10.7482 -0.1835
0 26 22 -35.2737 -4.5919
0 26 25 28.7748 -1.0909
0 26 28 47.6684 3.9104
0 26 31 16.5624 2.0536
0 26 34 30.3246 -2.9229
0 26 37 2.7459 -2.4755
0 26 40 -0.6366 1.8724
0 26 43 5.4079 2.9128
0 26 46 -13.0066 -1.7244
0 26 49 2.4723 -1.0794
0 26 52 -4.8858 -0.3107
0 27 -48 3.9944 -0.0858
0 27 -45 -5.3535 1.2219
0 27 -42 5.9199 0.2271
0 27 -39 -0.2647 -1.4159
0 27 -36 3.3803 -0.6254
0 27 -33 26.1720 1.3895
0 27 -30 -11.1299 1.1122
0 27 -27 9.1369 -0.8982
0 27 -24 9.9846 -1.9482
0 27 -21 -6.4365 0.3458
0 27 -18 34.2266 2.2881
0 27 -15 -15.5812 0.4101
0 27 -12 -33.5329 -2.7761
0 27 -9 7.0466 -1.0185
0 27 -6 -3.3336 2.6949
0 27 -3 -14.8325 1.7997
0 27 0 17.2513 -1.5450
0 27 3 -1.6613 -2.5722
0 27 6 34.6297 0.5598
0 27 9 39.9155 3.1506
0 27 12 -10.8350 0.5979
0 27 15 -19.6412 -3.1967
0 27 18 40.5818 -1.6344
0 27 21 -30.2965 3.0790
0 27 24 1.5136 2.0500
0 27 27 -13.2224 -2.1256
0 27 30 -12.1491 -2.4648
0 27 33 -7.3186 1.1806
0 27 36 5.0111 2.3426
0 27 39 -17.0336 -0.1352
0 27 42 15.3639 -2.2490
0 27 45 1.4515 0.0088
0 27 48 -7.5159 2.6920
0 28 -49 13.0343 0.3117
0 28 -46 -8.2722 2.7246
0 28 -43 -5.4129 0.1732
0 28 -40 21.9140 -2.8427
0 28 -37 -3.8334 -1.9506
0 28 -34 -5.4712 2.4483
0 28 -31 14.6959 2.6859
0 28 -28 -10.8446 -2.1916
0 28 -25 0.9891 -3.6515
0 28 -22 34.3733 1.1147
0 28 -19 3.0700 3.6392
0 28 -16 -0.2964 -0.0680
0 28 -13 65.6065 -4.2882
0 28 -10 -39.3400 -1.6835
0 28 -7 47.3989 3.8925
0 28 -4 47.6000 2.9658
0 28 -1 -22.7236 -3.4586
0 28 2 8.9788 -3.7584
0 28 5 -29.4659 2.2102
0 28 8 -71.0627 4.1377
0 28 11 -23.2554 -0.9814
0 28 14 -48.8842 -4.1474
0 28 17 -4.5923 -0.1877
0 28 20 34.6824 3.8198
0 28 23 -17.1137 0.9396
0 28 26 22.2678 -3.2287
0 28 29 10.1390 -1.7528
0 28 32 13.7256 2.2700
0 28 35 17.7359 2.0361
0 28 38 -7.3283 -1.4113
0 28 41 16.0340 -2.2694
0 28 44 2.4161 1.6350
0 28 47 -8.7759 0.2539
0 29 -47 0.5476 -2.7967
0 29 -44 4.7784 -0.7710
0 29 -41 5.8526 1.7566
0 29 -38 14.2045 1.5609
0 29 -35 -16.4702 -2.5673
0 29 -32 -8.3550 -2.5627
0 29 -29 24.7896 1.4905
0 29 -26 2.7590 3.5109
0 29 -23 -1.0265 -0.6027
0 29 -20 17.9365 -4.5850
0 29 -17 -14.5022 -0.6181
0 29 -14 -0.5041 4.5280
0 29 -11 -7.9410 1.9892
0 29 -8 -4.1080 -4.0510
0 29 -5 15.9063 -3.5959
0 29 -2 19.5301 2.8628
0 29 1 -31.2230 4.9769
0 29 4 11.3982 -1.1263
0 29 7 -7.7461 -5.7035
0 29 10 12.2558 -0.0602
0 29 13 34.4156 5.5398
0 29 16 5.6597 1.7212
0 29 19 46.0726 -4.3294
0 29 22 36.2925 -2.9534
0 29 25 10.8301 3.1859
0 29 28 9.0181 4.0111
0 29 31 -16.5603 -1.7200
0 29 34 -17.3145 -3.7608
0 29 37 -3.8010 0.7920
0 29 40 -11.2792 3.3981
0 29 43 -7.7008 0.3303
0 29 46 8.0181 -3.7370
0 30 -45 4.0728 -0.5375
0 30 -42 11.1944 1.3696
0 30 -39 2.5448 0.7224
0 30 -36 13.8070 -1.2103
0 30 -33 -3.5263 -1.5429
0 30 -30 -8.4141 0.7376
0 30 -27 15.2684 1.5399
0 30 -24 -17.4661 -0.5018
0 30 -21 12.9188 -1.9860
0 30 -18 34.3306 -0.4242
0 30 -15 -14.0886 2.4761
0 30 -12 27.6766 0.6927
0 30 -9 26.7799 -2.0372
0 30 -6 1.9157 -1.3235
0 30 -3 11.5435 1.8158
0 30 0 -33.6927 1.8018
0 30 3 -5.0991 -1.3408
0 30 6 -18.6538 -1.8342
0 30 9 -23.4013 0.9885
0 30 12 -20.6991 2.0277
0 30 15 -2.6772 -0.3421
0 30 18 -0.8109 -2.0644
0 30 21 -3.9171 -0.0914
0 30 24 -9.1451 1.6796
0 30 27 8.6489 0.5131
0 30 30 10.1188 -1.0252
0 30 33 9.8481 -0.7686
0 30 36 5.0154 1.4746
0 30 39 11.9081 0.5258
0 30 42 -6.2992 -0.8938
0 30 45 14.9513 0.5637
0 31 -43 7.8362 -1.8721
0 31 -40 13.5628 -2.0410
0 31 -37 -14.0093 2.0418
0 31 -34 13.0574 3.5780
0 31 -31 7.7721 -1.7443
0 31 -28 -1.3653 -4.0015
0 31 -25 5.1346 0.3615
0 31 -22 6.0474 4.1274
0 31 -19 7.4158 1.1389
0 31 -16 -20.5098 -4.4838
0 31 -13 4.3101 -2.9268
0 31 -10 -25.6268 3.5339
0 31 -7 12.4190 4.2632
0 31 -4 -27.3457 -3.0460
0 31 -1 -66.2864 -5.2825
0 31 2 3.5499 1.6776
0 31 5 0.9752 5.3900
0 31 8 -2.0766 0.0944
0 31 11 40.6798 -5.2899
0 31 14 49.0597 -1.8653
0 31 17 5.3706 4.1615
0 31 20 22.9532 3.2053
0 31 23 -23.6665 -3.2612
0 31 26 -7.1606 -3.9210
0 31 29 19.3906 1.7929
0 31 32 -17.9484 3.6193
0 31 35 0.1699 -0.5577
0 31 38 3.3731 -2.7798
0 31 41 -3.2488 -0.7596
0 31 44 -0.4355 2.9869
0 32 -44 5.7275 1.0367
0 32 -41 -0.7948 0.2909
0 32 -38 -8.1722 -0.0913
0 32 -35 -11.4399 -0.2684
0 32 -32 18.2315 0.4531
0 32 -29 -4.0409 0.6556
0 32 -26 -0.6735 -0.0535
0 32 -23 6.2638 -0.8712
0 32 -20 10.9643 -0.3478
0 32 -17 -0.5202 0.6885
0 32 -14 -21.9775 0.4469
0 32 -11 13.7600 -0.6684
0 32 -8 -3.5730 -0.7856
0 32 -5 2.8948 0.2752
0 32 -2 -4.9626 1.5423
0 32 1 -1.8773 0.1523
0 32 4 43.8089 -1.3006
0 32 7 5.0953 -0.7895
0 32 10 -8.7224 1.3901
0 32 13 16.9858 1.4209
0 32 16 -4.5094 -0.4712
0 32 19 -15.4633 -1.2952
0 32 22 4.6316 0.1796
0 32 25 -18.8737 1.0525
0 32 28 11.5777 0.0473
0 32 31 -8.5788 -1.2964
0 32 34 -9.7221 -0.9492
0 32 37 14.5841 1.4148
0 32 40 -7.0713 1.4387
0 32 43 7.5153 -2.1399
0 33 -42 -7.8367 1.5939
0 33 -39 -4.0197 -0.3640
0 33 -36 8.5192 -2.1999
0 33 -33 -7.8231 0.8487
0 33 -30 13.4884 3.8897
0 33 -27 26.0776 0.3374
0 33 -24 -14.8243 -3.7453
0 33 -21 25.5924 -1.1548
0 33 -18 -10.7595 3.2914
0 33 -15 -23.7702 2.5166
0 33 -12 11.6417 -3.1973
0 33 -9 -4.0773 -3.5800
0 33 -6 -28.4957 1.8824
0 33 -3 9.5608 4.1561
0 33 0 -4.9169 -0.7266
0 33 3 16.4910 -4.5475
0 33 6 21.0970 -0.5413
0 33 9 4.3979 4.2088
0 33 12 3.0555 1.5579
0 33 15 17.0686 -3.7200
0 33 18 -19.4115 -2.3697
0 33 21 22.8136 2.6291
0 33 24 1.6699 2.7966
0 33 27 7.2280 -1.6858
0 33 30 6.3150 -2.7114
0 33 33 4.4393 0.7474
0 33 36 -7.4484 1.8653
0 33 39 7.7227 0.4898
0 33 42 -9.8709 -1.9996
0 34 -40 1.9294 1.3795
0 34 -37 -5.7257 2.0796
0 34 -34 5.0947 -0.9188
0 34 -31 -5.4468 -1.7113
0 34 -28 10.7382 0.5043
0 34 -25 -2.6909 2.3273
0 34 -22 3.0594 0.8749
0 34 -19 -9.4620 -2.3967
0 34 -16 -19.6878 -2.1531
0 34 -13 20.8190 2.3079
0 34 -10 -13.2499 3.0848
0 34 -7 13.5397 -1.6094
0 34 -4 2.0927 -3.3712
0 34 -1 25.7560 0.4528
0 34 2 23.0956 3.4378
0 34 5 17.1661 1.1060
0 34 8 4.9875 -2.9530
0 34 11 -5.3925 -1.9392
0 34 14 1.5530 2.3637
0 34 17 -34.7288 2.6617
0 34 20 1.5930 -1.7032
0 34 23 0.7646 -3.0405
0 34 26 -6.0793 0.7328
0 34 29 11.0499 3.0642
0 34 32 -12.6190 0.2799
0 34 35 4.3913 -2.7679
0 34 38 2.7882 -0.5173
0 35 -38 -5.0029 1.3184
0 35 -35 -4.2031 0.4974
0 35 -32 9.6288 -1.6037
0 35 -29 -13.8857 0.0507
0 35 -26 9.6858 2.2143
0 35 -23 -10.8590 1.2511
0 35 -20 -14.2389 -2.3116
0 35 -17 2.5961 -1.0989
0 35 -14 -8.2193 1.7731
0 35 -11 13.2427 1.6490
0 35 -8 15.2767 -1.0823
0 35 -5 -9.8736 -2.2531
0 35 -2 25.2251 0.5266
0 35 1 -2.3294 2.3359
0 35 4 11.3968 -0.0589
0 35 7 -13.5758 -2.2094
0 35 10 -6.0216 -0.3518
0 35 13 8.7739 1.9268
0 35 16 0.2341 1.1252
0 35 19 -5.4179 -1.5955
0 35 22 16.3231 -1.2864
0 35 25 -12.2023 0.9993
0 35 28 -5.9985 1.1680
0 35 31 -14.8246 -0.9868
0 35 34 -5.0621 -0.9592
0 35 37 -2.2350 1.3732
0 36 -36 3.2551 -0.1540
0 36 -33 -6.5266 3.5973
0 36 -30 10.3387 0.8691
0 36 -27 -15.3750 -2.8116
0 36 -24 -18.9462 -1.3929
0 36 -21 9.4858 2.5575
0 36 -18 -18.8604 2.9114
0 36 -15 18.9254 -2.0111
0 36 -12 -1.1727 -3.7900
0 36 -9 21.6398 0.9316
0 36 -6 -6.7979 4.5279
0 36 -3 26.7076 0.2995
0 36 0 12.9701 -4.2027
0 36 3 4.4266 -1.6639
0 36 6 -4.1435 3.7511
0 36 9 1.5254 2.7753
0 36 12 -10.8968 -3.0134
0 36 15 21.7362 -3.4466
0 36 18 -1.6202 1.9628
0 36 21 -1.4150 3.9180
0 36 24 0.6974 -1.0217
0 36 27 -6.6110 -3.7531
0 36 30 -10.1921 -1.4846
0 36 33 7.2605 2.4950
0 36 36 -6.5004 0.2346
0 37 -34 -4.3542 0.3047
0 37 -31 8.6201 0.1134
0 37 -28 -6.5090 -0.2678
0 37 -25 -10.6664 -0.1916
0 37 -22 11.5548 -0.1887
0 37 -19 -13.0979 0.0635
0 37 -16 2.9210 0.3203
0 37 -13 7.6894 -0.0263
0 37 -10 -8.1564 -0.0469
0 37 -7 14.5489 -0.3502
0 37 -4 0.2882 -0.1278
0 37 -1 15.6874 0.2576
0 37 2 -10.3839 0.1646
0 37 5 0.3587 -0.0880
0 37 8 -7.8617 -0.3719
0 37 11 -7.8355 -0.0090
0 37 14 -11.2205 0.4079
0 37 17 10.8745 0.3138
0 37 20 -15.4926 -0.5913
0 37 23 7.9346 -1.3454
0 37 26 -7.3734 0.8501
0 37 29 1.1298 0.3372
0 37 32 -4.9111 -0.7060
0 38 -32 12.3055 -1.4367
0 38 -29 -19.0834 3.8420
0 38 -26 20.1863 0.9066
0 38 -23 -8.2983 -2.3011
0 38 -20 -6.1187 -2.9395
0 38 -17 3.2251 2.3051
0 38 -14 -5.7714 3.1446
0 38 -11 22.4937 -0.2749
0 38 -8 -7.9548 -3.9293
0 38 -5 -3.9692 -0.5756
0 38 -2 14.2791 3.8137
0 38 1 -8.8942 1.7389
0 38 4 7.0446 -3.5353
0 38 7 -4.2105 -2.6940
0 38 10 3.7619 2.8658
0 38 13 3.8963 3.3989
0 38 16 2.8634 -2.0650
0 38 19 -14.2705 -3.1015
0 38 22 3.0436 0.1833
0 38 25 -3.5818 3.0592
0 38 28 13.0802 -0.3994
0 38 31 -2.4446 -1.5231
0 39 -27 8.7313 -0.5629
0 39 -24 0.8916 0.0995
0 39 -21 1.9738 1.4037
0 39 -18 4.1612 -0.3281
0 39 -15 6.0104 -1.5758
0 39 -12 3.5033 0.5183
0 39 -9 4.2991 1.4193
0 39 -6 -1.8655 0.5730
0 39 -3 16.3786 -1.0652
0 39 0 -7.7767 -1.2411
0 39 3 -2.0091 0.8247
0 39 6 -17.0524 1.4127
0 39 9 6.1665 -0.6377
0 39 12 3.6638 -1.9716
0 39 15 1.8760 -0.0610
0 39 18 -5.6858 2.2231
0 39 21 0.9181 0.6891
0 39 24 4.5745 -1.2735
0 39 27 -7.2574 -1.7638
0 40 -25 -10.2617 1.0823
0 40 -22 14.1802 1.2156
0 40 -19 -6.4052 -1.4271
0 40 -16 -5.9146 -0.8703
0 40 -13 11.2188 -0.1338
0 40 -10 -4.0034 2.6889
0 40 -7 11.1844 0.7787
0 40 -4 -10.8241 -1.9241
0 40 -1 2.0377 -1.5678
0 40 2 -6.6725 1.7060
0 40 5 -6.8425 1.8134
0 40 8 -3.6241 -1.2537
0 40 11 5.7693 -2.2381
0 40 14 -5.2506 1.0186
0 40 17 6.5969 2.4256
0 40 20 -3.4149 -0.8547
0 40 23 6.9956 -0.5475
0 40 26 -10.3361 0.1964
0 41 -20 4.5708 0.0404
0 41 -17 -2.9840 1.9719
0 41 -14 12.4270 0.6739
0 41 -11 10.0416 -1.6459
0 41 -8 -7.9008 -0.7933
0 41 -5 4.5509 1.8643
0 41 -2 -1.5121 1.5690
0 41 1 4.7291 -1.4029
0 41 4 0.6341 -2.3757
0 41 7 2.0520 0.4325
0 41 10 6.4339 1.7830
0 41 13 -1.0889 0.1297
0 41 16 10.5651 -2.0079
0 41 19 -3.6729 -1.5925
0 41 22 9.2936 2.0354
0 42 -18 2.1859 0.1567
0 42 -15 4.4060 0.3548
0 42 -12 -5.7698 -0.3463
0 42 -9 -5.4163 0.8066
0 42 -6 -13.1741 0.8806
0 42 -3 1.5354 -0.6921
0 42 0 -9.7502 -1.0060
0 42 3 3.8242 0.1820
0 42 6 -0.9986 1.3731
0 42 9 14.6991 -0.0893
0 42 12 0.2973 0.3487
0 42 15 1.9269 1.1991
0 42 18 -0.2820 -0.5638
0 43 -10 -10.7056 2.0853
0 43 -7 -0.1512 -1.6345
0 43 -4 -3.4889 -2.0781
0 43 -1 16.5803 1.0679
0 43 2 -12.1848 2.4759
0 43 5 13.1490 -0.4201
0 43 8 2.2132 -2.8722
0 43 11 8.2956 -0.3298
1 1 -63 -1.1554 -0.1920
1 1 -60 -3.1732 -3.1414
1 1 -57 -2.9696 0.5826
1 1 -54 0.0822 3.4039
1 1 -51 -0.5542 0.4582
1 1 -48 -26.6469 -3.8559
1 1 -45 23.2633 -1.3010
1 1 -42 -35.7789 4.1404
1 1 -39 -17.7135 2.1490
1 1 -36 16.3649 -3.7621
1 1 -33 -37.5794 -3.9218
1 1 -30 -39.2901 2.8608
1 1 -27 47.7804 5.5610
1 1 -24 -73.6259 -2.2492
1 1 -21 221.9981 -6.8953
1 1 -18 -51.7818 1.2688
1 1 -15 82.0330 5.9459
1 1 -12 -130.3533 0.2022
1 1 -9 209.8086 -5.1306
1 1 -6 -354.4314 -1.5672
1 1 6 589.4056 -6.1861
1 1 9 -479.8624 5.2236
1 1 12 67.4996 6.6853
1 1 15 57.9407 -4.5858
1 1 18 -166.9490 -6.2792
1 1 21 81.3975 2.6853
1 1 24 -14.8766 6.1155
1 1 27 -2.6346 -0.3422
1 1 30 55.4714 -6.7639
1 1 33 -15.1072 -2.4650
1 1 36 -13.4129 6.1014
1 1 39 58.8043 3.3018
1 1 42 -31.3296 -4.4028
1 1 45 4.0992 -4.0121
1 1 48 -14.1614 2.7165
1 1 51 -1.0781 4.4470
1 1 54 -13.4582 -0.8485
1 1 57 14.4398 -4.7290
1 1 60 -15.3146 -0.3799
1 1 63 -8.7481 4.4647
1 2 -64 -1.9101 0.2270
1 2 -61 5.4823 0.4251
1 2 -58 -12.9929 -1.4010
1 2 -55 -6.9028 -0.0590
1 2 -52 -16.9425 1.8106
1 2 -49 -14.1413 0.2803
1 2 -46 -3.6183 -1.9304
1 2 -43 41.8637 -0.9976
1 2 -40 13.2988 1.8756
1 2 -37 -0.0400 1.2218
1 2 -34 34.7233 -2.1133
1 2 -31 70.1177 -2.6913
1 2 -28 110.9925 1.3648
1 2 -25 159.5855 2.7135
1 2 -22 29.6609 -1.3421
1 2 -19 105.7454 -3.2492
1 2 -16 -109.3272 0.6649
1 2 -13 -52.4725 3.8004
1 2 -10 -174.3186 0.2529
1 2 -7 -139.9887 -4.8669
1 2 -4 -858.5223 -2.7875
1 2 5 309.9927 -3.6253
1 2 8 713.5274 -5.7341
1 2 11 329.4665 3.0821
1 2 14 424.7098 6.5567
1 2 17 223.3686 0.3553
1 2 20 79.9838 -6.0505
1 2 23 19.9647 -1.8288
1 2 26 -9.8753 5.6666
1 2 29 -60.4956 4.2501
1 2 32 -61.8250 -3.5610
1 2 35 19.8337 -4.9092
1 2 38 -34.3415 2.0015
1 2 41 1.3026 5.4677
1 2 44 -18.3941 0.3499
1 2 47 -15.9604 -4.3987
1 2 50 9.3231 -1.1802
1 2 53 17.4107 3.3635
1 2 56 -5.9417 2.2134
1 2 59 12.8270 -1.7715
1 2 62 3.9375 -2.5780
1 3 -62 -6.8688 2.3727
1 3 -59 4.9836 -1.0387
1 3 -56 -7.5637 -1.5645
1 3 -53 -3.6498 0.4997
1 3 -50 -0.4290 2.0647
1 3 -47 8.6430 -0.4053
1 3 -44 7.5485 -2.0208
1 3 -41 17.3123 -0.1743
1 3 -38 -42.6530 2.3359
1 3 -35 64.0901 0.8354
1 3 -32 -17.2878 -2.7010
1 3 -29 -49.2242 -1.4295
1 3 -26 -33.7829 2.5642
1 3 -23 -134.3846 2.3562
1 3 -20 -62.1078 -1.6442
1 3 -17 17.0337 -2.3535
1 3 -14 -107.3550 1.6414
1 3 -11 -454.0969 3.7564
1 3 -8 125.6197 1.0091
1 3 -5 -294.4337 -3.3339
1 3 -2 394.4530 -1.5558
1 3 1 729.5500 2.8832
1 3 4 -212.7728 2.2355
1 3 7 213.8217 -2.1057
1 3 10 -30.7672 -2.3746
1 3 13 -177.2601 1.5894
1 3 16 -48.6285 3.0734
1 3 19 0.3373 -0.4685
1 3 22 -256.0634 -3.3027
1 3 25 -24.6760 -1.0059
1 3 28 -80.3372 2.6336
1 3 31 14.5890 1.1417
1 3 34 72.9025 -2.6745
1 3 37 1.1065 -1.7352
1 3 40 -7.5000 1.6216
1 3 43 35.9366 2.0105
1 3 46 4.1779 -0.9986
1 3 49 20.6437 -2.0223
1 3 52 -3.3488 0.1722
1 3 55 -5.0539 1.9164
1 3 58 1.6630 -0.2995
1 3 61 10.0563 -1.6557
1 3 64 2.4129 -0.2117
1 4 -63 -8.0120 1.6966
1 4 -60 -12.0202 -0.7538
1 4 -57 10.4916 -2.3839
1 4 -54 -10.8102 -0.6143
1 4 -51 3.4223 2.3611
1 4 -48 11.6172 1.7567
1 4 -45 3.3616 -2.0318
1 4 -42 17.6061 -3.2711
1 4 -39 2.5663 0.9590
1 4 -36 35.5577 4.2749
1 4 -33 39.1848 0.3558
1 4 -30 15.6130 -4.3491
1 4 -27 150.3494 -2.0791
1 4 -24 14.1809 4.6863
1 4 -21 123.8877 5.1405
1 4 -18 -208.1849 -3.5798
1 4 -15 -149.8505 -6.1310
1 4 -12 -24.2307 2.9316
1 4 -9 -358.9026 6.9860
1 4 -6 -185.9711 0.0793
1 4 -3 215.9738 -5.6975
1 4 0 433.3889 -4.4780
1 4 3 323.9368 1.4473
1 4 6 173.1042 5.2687
1 4 9 -77.2312 -2.7707
1 4 12 199.5072 -8.2773
1 4 15 -79.8038 0.5489
1 4 18 54.1443 6.6109
1 4 21 69.9712 1.1468
1 4 24 79.6735 -5.0213
1 4 27 44.1420 -3.3912
1 4 30 0.4419 3.0826
1 4 33 -13.5909 4.7550
1 4 36 -9.2612 -1.0978
1 4 39 -2.2891 -4.0354
1 4 42 -44.3474 0.4300
1 4 45 -5.5460 3.7050
1 4 48 -11.7041 1.1331
1 4 51 2.8330 -2.0796
1 4 54 12.5981 -1.7246
1 4 57 5.0429 0.8179
1 4 60 -14.2854 2.2001
1 4 63 -0.6289 0.6285
1 5 -64 6.9592 0.1445
1 5 -61 3.0497 0.5196
1 5 -58 2.0987 -0.7177
1 5 -55 -1.3818 -0.8092
1 5 -52 6.3389 0.4302
1 5 -49 41.7695 0.6297
1 5 -46 18.0452 -0.2098
1 5 -43 10.1993 -1.2618
1 5 -40 -13.3197 -0.1645
1 5 -37 13.4506 1.2825
1 5 -34 61.7726 0.4979
1 5 -31 37.5529 -1.5843
1 5 -28 18.4251 -0.9015
1 5 -25 -89.5211 1.5182
1 5 -22 -96.8306 1.7031
1 5 -19 -53.4213 -0.0658
1 5 -16 -325.3740 -1.1015
1 5 -13 188.8634 -0.8118
1 5 -10 -267.7100 1.8385
1 5 -7 7.0807 1.5016
1 5 -4 308.9857 -2.5500
1 5 -1 766.8285 -2.6037
1 5 2 863.3103 1.6876
1 5 5 69.2258 2.7519
1 5 8 28.3754 -0.7032
1 5 11 -110.6171 -2.6182
1 5 14 -207.0241 -0.3624
1 5 17 -75.2089 2.4395
1 5 20 -156.1494 1.3979
1 5 23 -49.0557 -2.3415
1 5 26 3.2857 -2.0897
1 5 29 -32.2895 1.7893
1 5 32 17.5585 1.8233
1 5 35 35.6386 -1.5055
1 5 38 -35.1489 -1.9187
1 5 41 12.5367 0.6543
1 5 44 14.4458 1.7905
1 5 47 31.4804 0.0814
1 5 50 20.3967 -1.7244
1 5 53 8.1107 -0.6588
1 5 56 -2.8940 1.7514
1 5 59 12.9559 0.9567
1 5 62 6.6618 -1.6044
1 6 -62 -10.0793 0.8345
1 6 -59 0.4822 -0.2107
1 6 -56 -5.5680 -0.1834
1 6 -53 14.0430 -0.2442
1 6 -50 14.4985 -0.0979
1 6 -47 4.3971 0.0702
1 6 -44 5.1925 0.4447
1 6 -41 28.2851 0.2705
1 6 -38 -15.3720 -0.4883
1 6 -35 30.3868 -0.9751
1 6 -32 -85.0559 0.5431
1 6 -29 -56.5268 2.0101
1 6 -26 0.0239 -0.0785
1 6 -23 -26.1024 -1.6052
1 6 -20 -56.2600 0.1722
1 6 -17 -41.6578 2.2480
1 6 -14 -165.8098 1.8487
1 6 -11 61.0894 -1.3082
1 6 -8 299.8082 -2.8261
1 6 -5 70.2395 0.5851
1 6 -2 236.5170 2.3684
1 6 1 17.6180 -0.9966
1 6 4 -555.9065 -3.3958
1 6 7 83.0881 -0.8253
1 6 10 -60.0110 2.9122
1 6 13 152.1097 1.9174
1 6 16 -127.1280 -2.0638
1 6 19 15.6352 -2.6600
1 6 22 -97.6253 1.0799
1 6 25 95.8768 2.7620
1 6 28 -17.7621 -0.4202
1 6 31 20.4787 -2.3145
1 6 34 -22.3204 -0.1343
1 6 37 -13.4049 2.0376
1 6 40 -19.6340 0.8669
1 6 43 21.9171 -1.2127
1 6 46 -22.2572 -1.3003
1 6 49 12.5319 0.4329
1 6 52 -12.3985 1.2667
1 6 55 9.2394 -0.0272
1 6 58 3.0841 -1.2814
1 6 61 0.0046 0.1767
1 7 -63 1.2000 -1.0553
1 7 -60 5.8762 -0.0353
1 7 -57 11.0975 -0.6863
1 7 -54 1.6488 0.2119
1 7 -51 4.1022 0.8013
1 7 -48 17.9570 0.1624
1 7 -45 -4.2703 -0.6243
1 7 -42 -0.9682 -0.3693
1 7 -39 -6.3034 0.8036
1 7 -36 -29.7917 0.9459
1 7 -33 -1.6354 -0.1198
1 7 -30 -10.3898 -0.5881
1 7 -27 -68.9150 -0.0681
1 7 -24 -31.5837 1.2914
1 7 -21 -142.3709 0.9310
1 7 -18 -56.4541 -0.6519
1 7 -15 146.0334 -1.0310
1 7 -12 116.1988 -0.3712
1 7 -9 -30.2518 0.2216
1 7 -6 365.4774 -0.1602
1 7 -3 209.1540 -2.2544
1 7 0 -34.6635 -2.2240
1 7 3 -147.0014 -0.1809
1 7 6 125.4186 0.6344
1 7 9 -119.1492 0.1930
1 7 12 209.6904 -1.8174
1 7 15 -110.1768 -1.7657
1 7 18 47.0899 1.4298
1 7 21 60.0505 2.2177
1 7 24 -111.3452 -0.8318
1 7 27 -47.8377 -2.2997
1 7 30 42.8663 0.1534
1 7 33 -21.5462 2.2740
1 7 36 18.8616 0.9851
1 7 39 24.5561 -1.7753
1 7 42 -16.4350 -1.7550
1 7 45 33.3603 1.5024
1 7 48 -9.0679 2.1059
1 7 51 -2.3023 -0.3824
1 7 54 13.2055 -2.0522
1 7 57 -10.6639 0.1705
1 7 60 -4.5029 2.2141
1 7 63 3.0138 1.6905
1 8 -61 -12.6662 0.6744
1 8 -58 -0.1583 -1.2114
1 8 -55 5.5314 -1.4073
1 8 -52 18.1160 0.6137
1 8 -49 -1.9122 2.0825
1 8 -46 1.3147 -0.3908
1 8 -43 -38.6310 -2.6793
1 8 -40 57.9007 -0.5359
1 8 -37 -15.1102 2.9678
1 8 -34 -19.9026 1.3361
1 8 -31 -26.0679 -2.7459
1 8 -28 -131.2248 -2.3468
1 8 -25 -61.0157 2.4677
1 8 -22 51.7322 4.1642
1 8 -19 -85.0504 -1.1311
1 8 -16 179.3440 -4.6448
1 8 -13 131.2163 0.5457
1 8 -10 -191.5017 5.1800
1 8 -7 216.6822 0.3090
1 8 -4 367.2136 -5.2452
1 8 -1 -190.0032 -2.5239
1 8 2 62.0292 3.9693
1 8 5 -179.1352 4.7545
1 8 8 147.7845 -2.1852
1 8 11 -60.8324 -4.8905
1 8 14 -54.4016 1.7667
1 8 17 -130.4472 5.1160
1 8 20 66.0442 -0.0869
1 8 23 -38.6128 -4.4308
1 8 26 -5.3498 -1.3510
1 8 29 4.2379 3.7228
1 8 32 -1.9920 2.3777
1 8 35 -40.3748 -2.8299
1 8 38 32.4890 -3.0363
1 8 41 2.7639 1.7574
1 8 44 27.8167 3.2294
1 8 47 8.0537 -0.9851
1 8 50 -27.8152 -3.0808
1 8 53 20.5790 0.3280
1 8 56 1.7412 3.1187
1 8 59 1.0017 0.7564
1 8 62 4.6425 -3.0585
1 9 -62 1.0644 0.8537
1 9 -59 -0.4397 -0.7484
1 9 -56 8.3852 -0.8914
1 9 -53 13.7950 -0.5105
1 9 -50 -16.0248 0.9290
1 9 -47 7.5645 0.8103
1 9 -44 -21.9333 -0.8187
1 9 -41 -27.6384 -1.1918
1 9 -38 -60.6832 0.2594
1 9 -35 -68.8937 1.6684
1 9 -32 -67.8916 0.5980
1 9 -29 33.9455 -1.7044
1 9 -26 31.8000 -0.8192
1 9 -23 -27.9511 2.0174
1 9 -20 26.8341 1.0760
1 9 -17 184.6930 -1.3225
1 9 -14 -25.9099 -1.6274
1 9 -11 255.9840 -1.3461
1 9 -8 -116.5264 0.9385
1 9 -5 -105.8835 1.3868
1 9 -2 -52.1783 -1.9850
1 9 1 19.1340 -2.3704
1 9 4 -89.1885 0.9827
1 9 7 227.3554 1.5707
1 9 10 -272.4355 -0.3891
1 9 13 -96.0228 -1.6819
1 9 16 -127.5934 -0.7167
1 9 19 -0.7682 2.1002
1 9 22 133.6582 1.7874
1 9 25 30.3562 -1.2691
1 9 28 17.8078 -1.3971
1 9 31 66.5723 1.0205
1 9 34 17.0423 1.3952
1 9 37 54.7305 0.0692
1 9 40 -5.2568 -1.0099
1 9 43 4.4640 -0.7684
1 9 46 -11.5031 0.8186
1 9 49 5.0235 0.8472
1 9 52 -7.2296 -0.0867
1 9 55 4.8379 -1.0309
1 9 58 -18.8271 -0.3265
1 9 61 3.3736 0.7279
1 10 -60 -1.1674 0.1224
1 10 -57 -13.9359 0.6031
1 10 -54 7.6666 0.4114
1 10 -51 -7.7420 -0.8819
1 10 -48 2.8630 -0.8371
1 10 -45 -25.2137 1.0117
1 10 -42 1.3335 1.4235
1 10 -39 -17.8113 -0.4603
1 10 -36 20.9735 -1.3761
1 10 -33 2.4994 0.2402
1 10 -30 -1.1257 1.8534
1 10 -27 15.1989 0.8467
1 10 -24 53.6953 -1.4686
1 10 -21 -1.1217 -1.0894
1 10 -18 158.9466 2.0407
1 10 -15 -149.5954 1.6981
1 10 -12 13.8311 -2.3340
1 10 -9 -88.9510 -2.6771
1 10 -6 117.9668 1.1424
1 10 -3 93.1574 2.4771
1 10 0 154.6147 -0.3255
1 10 3 -54.8217 -1.9649
1 10 6 170.2107 -0.2084
1 10 9 -71.1627 2.3256
1 10 12 103.9743 0.6748
1 10 15 81.2918 -2.6570
1 10 18 -107.8512 -1.2900
1 10 21 14.5772 2.0330
1 10 24 0.0743 1.7889
1 10 27 -27.0016 -1.1990
1 10 30 66.5723 -2.2054
1 10 33 -61.1489 0.4343
1 10 36 15.3467 1.8634
1 10 39 -6.0212 0.1305
1 10 42 -24.5060 -2.2443
1 10 45 -1.4108 -0.6385
1 10 48 4.4585 1.8099
1 10 51 2.5543 0.4324
1 10 54 11.5932 -1.5214
1 10 57 17.0350 -1.4957
1 10 60 -4.6489 0.8087
1 11 -61 -8.6217 0.8978
1 11 -58 15.8441 -0.1573
1 11 -55 -7.8284 1.0491
1 11 -52 -2.4650 -0.2059
1 11 -49 -24.1176 -1.1618
1 11 -46 1.7421 -0.6450
1 11 -43 -44.3983 1.6450
1 11 -40 30.7178 1.3093
1 11 -37 -101.3664 -1.1272
1 11 -34 -14.3233 -2.1223
1 11 -31 -22.0786 0.5903
1 11 -28 31.3796 2.7300
1 11 -25 78.5847 0.3862
1 11 -19 -13.9604 -2.6011
1 11 -16 159.3215 2.8650
1 11 -13 10.5972 3.0316
1 11 -10 -26.7456 -3.3040
1 11 -7 323.5871 -5.0205
1 11 -4 -112.7773 1.3308
1 11 -1 -99.4925 4.9199
1 11 2 34.9561 0.7428
1 11 5 -73.4902 -4.6953
1 11 8 -40.1810 -2.2827
1 11 11 -207.3179 4.3095
1 11 14 82.7566 3.9148
1 11 17 -70.0263 -2.4391
1 11 20 146.3614 -4.0168
1 11 23 -25.1005 1.2926
1 11 26 84.2162 4.3645
1 11 29 6.6201 0.7435
1 11 32 74.1942 -3.4902
1 11 35 3.8728 -1.7613
1 11 38 59.3887 2.8882
1 11 41 -26.8098 3.0968
1 11 44 -2.8127 -1.7733
1 11 47 -10.2838 -3.0245
1 11 50 2.8805 0.6440
1 11 53 3.2707 2.9378
1 11 56 7.3724 -0.1666
1 11 59 -13.4433 -2.7662
1 11 62 1.3816 -1.7158
1 12 -59 -9.1414 -1.2150
1 12 -56 -6.8506 -0.1309
1 12 -53 -13.7897 1.7122
1 12 -50 -6.6912 0.7849
1 12 -47 -17.3618 -1.0905
1 12 -44 -13.5379 -1.0443
1 12 -41 -9.0747 1.0442
1 12 -38 17.5981 1.7529
1 12 -35 19.5298 -0.0368
1 12 -32 42.4536 -2.0490
1 12 -29 86.8590 -0.2688
1 12 -26 1.3851 2.7555
1 12 -23 -2.3941 1.2648
1 12 -20 57.1565 -2.5307
1 12 -17 -51.5715 -2.0998
1 12 -14 -160.0362 1.1899
1 12 -11 -93.8867 1.6373
1 12 -8 -200.6400 -1.0599
1 12 -5 -107.5766 -2.3250
1 12 -2 32.9407 0.6319
1 12 1 -9.2093 2.5721
1 12 4 -68.0531 0.0620
1 12 7 155.4375 -2.1645
1 12 10 -196.5171 -1.1702
1 12 13 199.7909 1.1086
1 12 16 124.2931 1.2573
1 12 19 92.6731 -0.9587
1 12 22 42.0973 -1.7007
1 12 25 -45.7430 0.5811
1 12 28 -5.6992 1.4418
1 12 31 10.4055 -0.1635
1 12 34 -46.1889 -1.3233
1 12 37 -48.3099 -0.2010
1 12 40 -25.4045 1.1157
1 12 43 -2.2396 0.1933
1 12 46 -7.4059 -0.9260
1 12 49 14.8446 -0.0461
1 12 52 -14.1588 0.5539
1 12 55 12.6898 0.0671
1 12 58 -1.9910 0.0813
1 12 61 14.7479 -0.7006
1 13 -60 -3.6964 -0.1676
1 13 -57 -3.9616 -0.2787
1 13 -54 5.1483 -0.9503
1 13 -51 -6.8518 1.7866
1 13 -48 -18.6537 1.8256
1 13 -45 14.9392 -1.2120
1 13 -42 1.7575 -2.6688
1 13 -39 -23.0579 0.5886
1 13 -36 19.3569 3.4436
1 13 -33 -79.1164 0.1657
1 13 -30 19.8775 -4.1636
1 13 -27 58.4442 -2.0414
1 13 -24 -30.0493 3.6518
1 13 -21 -20.7522 3.2379
1 13 -18 95.7900 -3.2562
1 13 -15 -123.5390 -4.7083
1 13 -12 160.7607 1.1531
1 13 -9 43.0220 5.2813
1 13 -6 71.7830 1.0510
1 13 -3 149.1074 -4.8267
1 13 0 -118.9414 -1.9946
1 13 3 -108.9414 5.4923
1 13 6 84.1878 3.9263
1 13 9 -19.7731 -4.1843
1 13 12 -6.6955 -4.7689
1 13 15 -22.6945 2.0352
1 13 18 -43.8114 5.4360
1 13 21 7.1990 0.5749
1 13 24 12.1078 -5.1633
1 13 27 -59.9508 -2.0415
1 13 30 26.3005 4.2889
1 13 33 6.7526 3.0784
1 13 36 -4.0921 -3.1952
1 13 39 23.0769 -3.7254
1 13 42 13.6611 1.3826
1 13 45 5.0782 3.5201
1 13 48 17.3119 0.0039
1 13 51 -10.8066 -3.3626
1 13 54 0.3828 -0.7399
1 13 57 -1.4677 2.3464
1 13 60 -8.6042 2.0988
1 14 -58 6.0023 0.2596
1 14 -55 -15.4486 -0.5534
1 14 -52 5.8230 -0.4109
1 14 -49 -16.4156 0.8044
1 14 -46 11.9352 0.9996
1 14 -43 -14.0534 0.0244
1 14 -40 9.6620 -1.1570
1 14 -37 -20.4320 -0.1232
1 14 -34 56.0714 1.2176
1 14 -31 44.4321 0.6877
1 14 -28 123.4415 -0.7594
1 14 -25 8.9600 -1.0152
1 14 -22 15.0446 0.1853
1 14 -19 -104.2215 1.0214
1 14 -16 75.6754 -0.2000
1 14 -13 -213.9064 -1.6544
1 14 -10 -39.1179 -1.0023
1 14 -7 -85.5890 1.0763
1 14 -4 -192.0825 1.2095
1 14 -1 -41.0922 -0.5203
1 14 2 17.4882 -1.6471
1 14 5 -32.4558 -0.6528
1 14 8 209.4766 0.8251
1 14 11 123.7270 0.2224
1 14 14 107.8171 -1.0741
1 14 17 118.2410 -0.3268
1 14 20 46.7492 0.2204
1 14 23 -38.5793 0.1955
1 14 26 106.0950 0.2056
1 14 29 -101.1316 -0.0422
1 14 32 69.5599 -0.3788
1 14 35 -55.0987 -0.2035
1 14 38 -17.9382 0.6017
1 14 41 -21.3821 0.8446
1 14 44 3.6331 -0.3038
1 14 47 1.3049 -0.9654
1 14 50 16.5189 -0.2225
1 14 53 -5.2268 1.2942
1 14 56 17.4370 -0.5576
1 14 59 2.7767 -1.1629
1 15 -59 -5.2419 1.0143
1 15 -56 -7.8386 0.9607
1 15 -53 6.8293 -0.1225
1 15 -50 11.3132 -1.8739
1 15 -47 -0.0543 -0.4239
1 15 -44 16.3764 1.8013
1 15 -41 -9.7487 1.4145
1 15 -38 19.2845 -2.1281
1 15 -35 -3.5980 -2.4751
1 15 -32 39.3954 1.0585
1 15 -29 16.1112 3.1317
1 15 -26 -53.9444 -0.2224
1 15 -23 -24.1186 -3.5686
1 15 -20 -51.4951 -0.7583
1 15 -17 -26.3573 3.4209
1 15 -14 -89.8183 1.7832
1 15 -11 52.4966 -3.1775
1 15 -8 40.1209 -2.9740
1 15 -5 105.0797 2.6222
1 15 -2 32.1096 4.2681
1 15 1 173.2157 -0.8788
1 15 4 22.1467 -4.2277
1 15 7 156.0536 -0.4940
1 15 10 -70.0093 4.1686
1 15 13 -52.7408 1.9652
1 15 16 38.3153 -3.3176
1 15 19 -143.9867 -2.7551
1 15 22 -49.6569 2.4969
1 15 25 24.1450 3.0880
1 15 28 -51.6941 -1.6126
1 15 31 -16.4536 -3.3482
1 15 34 0.0528 0.2698
1 15 37 -22.0578 2.6885
1 15 40 12.8465 0.1568
1 15 43 6.6030 -2.3277
1 15 46 -7.7381 -1.0426
1 15 49 11.9828 1.9814
1 15 52 4.0734 1.2471
1 15 55 14.0248 -1.0395
1 15 58 5.9348 -1.2515
1 16 -57 -1.3987 0.5320
1 16 -54 4.5431 1.1957
1 16 -51 1.8155 0.7269
1 16 -48 3.2930 -1.7378
1 16 -45 11.4319 -1.6955
1 16 -42 -16.8572 1.2712
1 16 -39 11.7700 2.1805
1 16 -36 17.1496 -0.8668
1 16 -33 32.9678 -2.7533
1 16 -30 86.9400 -0.2266
1 16 -27 -23.4942 2.6389
1 16 -24 0.0252 1.2838
1 16 -21 9.8881 -2.7340
1 16 -18 29.3954 -2.6662
1 16 -15 -131.3555 1.9141
1 16 -12 24.7278 2.9344
1 16 -9 -34.0325 -0.9978
1 16 -6 15.6544 -3.1872
1 16 -3 -55.4950 -0.1321
1 16 0 -23.7962 3.0136
1 16 3 180.6694 1.4768
1 16 6 32.9054 -2.5033
1 16 9 61.1118 -2.6708
1 16 12 -71.5831 1.3222
1 16 15 144.6060 2.8127
1 16 18 -25.4116 0.2426
1 16 21 11.2194 -2.4969
1 16 24 22.4667 -1.0743
1 16 27 -2.2738 2.1743
1 16 30 26.0441 1.8884
1 16 33 -14.9777 -1.1673
1 16 36 -20.5059 -1.8673
1 16 39 6.7019 0.2157
1 16 42 -11.0401 2.0142
1 16 45 2.2765 0.5651
1 16 48 2.4393 -1.5820
1 16 51 -0.6111 -1.0759
1 16 54 0.8310 0.7457
1 16 57 2.3190 1.4774
1 17 -58 -2.2808 -2.2639
1 17 -55 6.4861 -1.2470
1 17 -52 6.1603 1.2013
1 17 -49 3.8771 1.3070
1 17 -46 19.1204 -0.5550
1 17 -43 10.5436 -2.3816
1 17 -40 25.3165 -0.0444
1 17 -37 6.6886 2.4496
1 17 -34 61.0418 0.9890
1 17 -31 -2.4920 -2.1919
1 17 -28 -26.3019 -1.9260
1 17 -25 -71.8462 2.1797
1 17 -22 -35.0111 2.7173
1 17 -19 -99.3545 -1.3555
1 17 -16 70.2571 -2.9577
1 17 -13 -145.1638 0.4373
1 17 -10 85.4089 3.3615
1 17 -7 99.2968 1.0906
1 17 -4 -54.4801 -2.9662
1 17 -1 127.9938 -1.9043
1 17 2 157.3119 2.4249
1 17 5 -3.2206 2.1996
1 17 8 103.6787 -1.6766
1 17 11 -77.8197 -2.4743
1 17 14 2.7229 1.0915
1 17 17 3.4892 2.5455
1 17 20 -29.9880 -0.4663
1 17 23 -59.5385 -2.6805
1 17 26 37.2314 -0.5043
1 17 29 -50.3874 1.8304
1 17 32 -9.7569 0.6932
1 17 35 -16.6768 -1.3156
1 17 38 10.7342 -1.0071
1 17 41 11.6310 0.6443
1 17 44 17.2333 1.0319
1 17 47 -4.5909 -0.6644
1 17 50 10.0470 -0.6355
1 17 53 3.1907 0.2072
1 17 56 4.7002 0.2065
1 17 59 -2.7227 0.6789
1 18 -56 3.6778 -1.7245
1 18 -53 -4.7192 -0.0517
1 18 -50 1.0924 0.8887
1 18 -47 5.1371 1.3235
1 18 -44 -14.2062 -0.6330
1 18 -41 11.3431 -1.6058
1 18 -38 -23.7145 -0.1602
1 18 -35 26.6402 2.1587
1 18 -32 -32.9194 0.7067
1 18 -29 -89.1492 -2.1975
1 18 -26 -31.7139 -2.0540
1 18 -23 -24.2594 1.3419
1 18 -20 -24.8503 2.5401
1 18 -17 84.2677 -0.8577
1 18 -14 -14.1243 -3.4347
1 18 -11 91.6109 -0.7995
1 18 -8 56.8013 2.8392
1 18 -5 -1.9234 2.1929
1 18 -2 73.5964 -2.2656
1 18 1 61.1042 -2.9465
1 18 4 -48.5316 1.2867
1 18 7 -0.7690 3.9481
1 18 10 8.9689 -0.0109
1 18 13 36.4542 -3.7950
1 18 16 -5.2365 -1.3507
1 18 19 -6.2218 3.4774
1 18 22 -18.1085 2.6251
1 18 25 -32.0329 -2.4517
1 18 28 -6.9285 -2.9955
1 18 31 -38.0211 1.2123
1 18 34 6.2516 3.2424
1 18 37 12.1228 0.4183
1 18 40 -21.3839 -3.1559
1 18 43 29.3675 -1.1555
1 18 46 -11.8688 2.8031
1 18 49 3.3489 1.9305
1 18 52 0.4856 -1.4387
1 18 55 -6.1922 -2.6357
1 18 58 -0.5484 0.1479
1 19 -57 14.3004 1.1080
1 19 -54 -13.2677 -1.0548
1 19 -51 8.9985 -1.5754
1 19 -48 12.8112 -0.8194
1 19 -45 -8.2847 1.4918
1 19 -42 2.2054 1.4815
1 19 -39 16.1765 -1.3306
1 19 -36 -11.6059 -1.8465
1 19 -33 12.1540 0.5702
1 19 -30 -47.5879 2.3723
1 19 -27 -35.2043 0.2102
1 19 -24 43.4512 -2.5008
1 19 -21 -12.9723 -0.9648
1 19 -18 -6.6767 2.3368
1 19 -15 -20.0050 1.7903
1 19 -12 74.3342 -1.6762
1 19 -9 0.1158 -2.2575
1 19 -6 -15.5954 0.8453
1 19 -3 84.0395 2.5389
1 19 0 1.4676 0.0106
1 19 3 86.3690 -2.4851
1 19 6 -99.1679 -0.6196
1 19 9 25.2537 1.6006
1 19 12 4.4840 0.6184
1 19 15 -35.7672 -0.9507
1 19 18 -53.5463 -0.9115
1 19 21 23.7437 -0.1701
1 19 24 -26.7682 0.7060
1 19 27 27.7615 0.0532
1 19 30 -14.4959 -0.5276
1 19 33 -7.4794 -0.5272
1 19 36 44.4122 0.3366
1 19 39 -2.2571 0.2591
1 19 42 -9.0298 0.0617
1 19 45 17.1005 0.0209
1 19 48 -15.8069 -0.6005
1 19 51 -1.9473 0.2878
1 19 54 -3.1838 1.1896
1 19 57 -3.6183 0.5129
1 20 -55 6.7690 0.4626
1 20 -52 -4.0875 1.3940
1 20 -49 6.7661 -0.3993
1 20 -46 -11.8408 -1.6223
1 20 -43 -19.5112 0.7621
1 20 -40 -9.5029 2.1604
1 20 -37 -12.5042 -0.1017
1 20 -34 -26.3119 -2.5475
1 20 -31 -45.8734 -0.5917
1 20 -28 -36.5103 2.4621
1 20 -25 -10.4734 1.4543
1 20 -22 34.6747 -2.5295
1 20 -19 -2.5745 -2.5390
1 20 -16 45.3898 1.9220
1 20 -13 11.3763 3.3944
1 20 -10 28.3313 -1.2892
1 20 -7 35.8836 -3.9773
1 20 -4 -13.4962 0.4555
1 20 -1 65.1634 4.2236
1 20 2 58.1315 0.8747
1 20 5 -78.0020 -3.9096
1 20 8 -19.2902 -1.5852
1 20 11 -10.6510 3.6967
1 20 14 -32.5322 3.2189
1 20 17 4.9792 -2.2872
1 20 20 -2.6304 -3.6944
1 20 23 -10.3916 1.4369
1 20 26 46.7230 3.8750
1 20 29 -35.1633 -0.2700
1 20 32 -12.4534 -3.4271
1 20 35 11.6960 -0.6656
1 20 38 9.3560 2.8725
1 20 41 -19.8161 1.2600
1 20 44 -1.6090 -2.8310
1 20 47 0.1294 -2.2988
1 20 50 -2.7557 1.1779
1 20 53 5.3982 1.2453
1 20 56 1.7157 0.3255
1 21 -56 -4.0240 0.1283
1 21 -53 8.7923 1.4389
1 21 -50 -9.1277 1.0140
1 21 -47 -1.8602 -1.2333
1 21 -44 -9.1764 -1.9663
1 21 -41 -8.0345 0.5720
1 21 -38 -14.6634 2.1505
1 21 -35 11.9044 0.1934
1 21 -32 -49.5559 -2.4209
1 21 -29 21.6649 -1.0525
1 21 -26 46.7199 2.0228
1 21 -23 20.6757 1.5738
1 21 -20 54.4763 -1.5152
1 21 -17 -3.7274 -1.9297
1 21 -14 -16.3693 0.6902
1 21 -11 51.7343 2.0708
1 21 -8 -28.4330 -0.0272
1 21 -5 31.3990 -2.0921
1 21 -2 -12.2663 -0.9275
1 21 1 -12.3982 1.5503
1 21 4 34.8550 1.4510
1 21 7 9.7175 -0.5304
1 21 10 3.7517 -1.7173
1 21 13 -19.4220 -0.5518
1 21 16 -19.5069 1.5187
1 21 19 7.1579 0.9219
1 21 22 0.4778 -1.2449
1 21 25 -12.9268 -1.0895
1 21 28 12.7419 0.5046
1 21 31 23.7667 1.2407
1 21 34 5.5969 0.3853
1 21 37 15.6275 -0.9017
1 21 40 5.5478 -0.6338
1 21 43 -3.1955 0.5911
1 21 46 -17.1459 1.2494
1 21 49 6.2649 -0.3407
1 21 52 -1.0377 -1.9536
1 21 55 0.4606 -0.9351
1 22 -54 -3.5080 -1.5914
1 22 -51 7.1989 0.8492
1 22 -48 -5.5895 2.4193
1 22 -45 -8.4831 0.0528
1 22 -42 -9.1365 -2.7303
1 22 -39 -3.8855 -0.9052
1 22 -36 -26.1198 2.4062
1 22 -33 5.3982 1.8505
1 22 -30 2.8607 -2.1770
1 22 -27 12.4287 -2.9242
1 22 -24 30.3414 1.5618
1 22 -21 -20.8660 3.5209
1 22 -18 -23.9739 -0.8687
1 22 -15 19.3671 -3.8500
1 22 -12 3.6959 -0.3508
1 22 -9 -41.8076 3.5523
1 22 -6 33.3283 1.4007
1 22 -3 20.4631 -2.9828
1 22 0 -43.1226 -2.3457
1 22 3 28.1175 2.6792
1 22 6 -37.9672 3.3079
1 22 9 0.7851 -2.0045
1 22 12 -19.6099 -3.5692
1 22 15 47.3950 1.1401
1 22 18 2.0482 3.4761
1 22 21 19.9479 -0.4941
1 22 24 -9.0979 -3.2173
1 22 27 -24.0724 -0.4958
1 22 30 39.0389 2.5225
1 22 33 -11.5661 1.0696
1 22 36 -17.4324 -2.3585
1 22 39 -5.0007 -1.5687
1 22 42 -26.6279 1.8485
1 22 45 2.1878 1.7261
1 22 48 2.6060 -1.3628
1 22 51 -1.6748 -0.5247
1 22 54 -0.7426 -0.1196
1 23 -52 -14.6297 -0.4712
1 23 -49 -1.8542 -0.4763
1 23 -46 -23.1106 0.8686
1 23 -43 -4.7307 0.3166
1 23 -40 -0.8050 -1.3907
1 23 -37 -2.7402 -1.2117
1 23 -34 -22.6159 0.5562
1 23 -31 46.2857 1.2606
1 23 -28 2.9131 -0.3776
1 23 -25 30.7494 -1.8005
1 23 -22 54.8620 -0.4061
1 23 -19 -49.0973 1.7864
1 23 -16 69.2923 1.1051
1 23 -13 -20.3143 -1.7852
1 23 -10 -4.9653 -1.9975
1 23 -7 63.8503 0.8224
1 23 -4 -55.4230 2.3063
1 23 -1 20.7672 -0.1575
1 23 2 -55.7540 -2.4951
1 23 5 -58.6032 -1.0623
1 23 8 36.4906 2.4831
1 23 11 15.4919 2.0105
1 23 14 31.5113 -1.9201
1 23 17 32.9264 -2.1554
1 23 20 -7.1921 0.8594
1 23 23 27.2714 2.2803
1 23 26 -26.3545 0.1621
1 23 29 2.9786 -2.2457
1 23 32 5.8851 -0.6459
1 23 35 -12.8384 1.9135
1 23 38 8.1290 1.5709
1 23 41 1.7832 -1.1490
1 23 44 9.7247 -1.6657
1 23 47 13.0717 0.7747
1 23 50 -16.0235 2.1765
1 23 53 7.2854 1.1044
1 24 -53 4.2404 0.5824
1 24 -50 -18.0728 -2.3645
1 24 -47 11.6402 -1.5930
1 24 -44 0.8159 1.3001
1 24 -41 -16.1167 1.9348
1 24 -38 2.8965 -0.8859
1 24 -35 9.2638 -2.3721
1 24 -32 -16.3199 0.1399
1 24 -29 43.3298 2.7298
1 24 -26 -7.1181 0.5051
1 24 -23 -6.9193 -2.5201
1 24 -20 -14.7695 -0.9568
1 24 -17 -33.6019 2.0586
1 24 -14 -1.3441 1.8353
1 24 -11 23.6963 -1.5912
1 24 -8 -38.1204 -2.4576
1 24 -5 -27.8975 1.0208
1 24 -2 17.6555 2.7559
1 24 1 17.9101 -0.3958
1 24 4 -36.0869 -2.0657
1 24 7 7.9112 -0.0647
1 24 10 -27.1850 1.5477
1 24 13 38.3542 0.4879
1 24 16 3.8775 -1.1959
1 24 19 -15.8163 -0.8865
1 24 22 38.6853 0.9395
1 24 25 1.7817 0.7346
1 24 28 11.1256 -0.4740
1 24 31 21.3387 -0.6354
1 24 34 -6.6551 0.1946
1 24 37 0.8242 0.5633
1 24 40 4.0572 -0.5855
1 24 43 -17.4943 -0.7129
1 24 46 9.4316 0.4596
1 24 49 9.0486 -0.8333
1 24 52 -11.8991 0.2245
1 25 -51 -5.0401 0.8838
1 25 -48 -10.7997 -1.3596
1 25 -45 4.0041 -1.7107
1 25 -42 -24.8509 0.3418
1 25 -39 3.3523 1.8071
1 25 -36 18.4959 0.4947
1 25 -33 15.9087 -2.2536
1 25 -30 0.1623 -1.5461
1 25 -27 10.3890 2.0407
1 25 -24 16.4800 2.1151
1 25 -21 -8.1196 -1.6560
1 25 -18 7.2979 -2.6809
1 25 -15 -13.1204 0.8771
1 25 -12 2.2611 3.3198
1 25 -9 -39.1573 0.4320
1 25 -6 -41.4577 -3.4307
1 25 -3 -6.3979 -1.4094
1 25 0 14.8241 3.3146
1 25 3 -27.9799 2.4574
1 25 6 25.5761 -2.5002
1 25 9 27.1371 -3.1576
1 25 12 28.8621 1.4857
1 25 15 14.7399 3.5175
1 25 18 -34.8400 -0.2073
1 25 21 2.6691 -3.2273
1 25 24 41.1988 -0.9510
1 25 27 0.6236 3.0948
1 25 30 9.3151 1.7118
1 25 33 -14.3632 -2.1540
1 25 36 -4.4460 -2.1137
1 25 39 -5.7051 1.4228
1 25 42 0.0998 2.2921
1 25 45 3.5152 -0.5953
1 25 48 3.5847 -2.4907
1 25 51 -5.6528 -1.3003
1 26 -49 7.2512 1.7855
1 26 -46 -9.5717 -0.6365
1 26 -43 4.5939 -1.9212
1 26 -40 12.1922 -0.0342
1 26 -37 8.5099 2.1897
1 26 -34 17.5297 0.9730
1 26 -31 8.8492 -1.8703
1 26 -28 -18.0680 -1.5299
1 26 -25 4.3470 1.3777
1 26 -22 -30.6529 2.1240
1 26 -19 -70.1071 -0.7266
1 26 -16 29.9513 -2.4678
1 26 -13 -57.4905 -0.2212
1 26 -10 17.0318 2.3431
1 26 -7 12.3623 0.7535
1 26 -4 -52.1413 -1.8731
1 26 -1 78.9369 -1.5459
1 26 2 -11.3518 1.0843
1 26 5 47.1879 2.1218
1 26 8 39.9748 -0.1761
1 26 11 2.7471 -2.0138
1 26 14 -28.8604 -0.6083
1 26 17 20.1263 1.6278
1 26 20 -34.0840 1.1305
1 26 23 0.7821 -0.8421
1 26 26 18.5577 -1.2324
1 26 29 -11.8175 0.0236
1 26 32 17.1607 1.3527
1 26 35 14.6720 0.3525
1 26 38 -6.2517 -0.7179
1 26 41 16.1120 -0.7231
1 26 44 -3.1055 0.1796
1 26 47 -18.5217 2.0728
1 26 50 13.7014 -0.3434
1 27 -50 -3.4501 -0.3210
1 27 -47 -3.6774 1.8195
1 27 -44 -17.7414 0.8994
1 27 -41 6.2570 -1.0481
1 27 -38 6.5693 -1.3693
1 27 -35 -0.2904 1.2585
1 27 -32 -0.0621 2.1930
1 27 -29 20.6152 -0.6305
1 27 -26 -10.3268 -2.4723
1 27 -23 -22.2471 0.2131
1 27 -20 0.9612 3.0064
1 27 -17 -21.8964 1.0042
1 27 -14 17.6269 -2.5428
1 27 -11 -31.3421 -1.6550
1 27 -8 -35.5222 2.5334
1 27 -5 52.9567 2.6555
1 27 -2 7.4572 -1.8758
1 27 1 -20.2984 -2.9032
1 27 4 -16.1168 1.3147
1 27 7 15.5778 3.0330
1 27 10 13.7036 -0.3473
1 27 13 17.9396 -3.0479
1 27 16 9.6646 -0.6764
1 27 19 37.2212 2.8121
1 27 22 12.5812 1.3133
1 27 25 20.8979 -2.3894
1 27 28 -24.6484 -1.9827
1 27 31 6.2399 1.4219
1 27 34 -8.3551 2.4488
1 27 37 -25.5363 -0.8406
1 27 40 7.4008 -2.1042
1 27 43 -4.5951 0.5314
1 27 46 -7.4213 2.0208
1 27 49 4.3014 1.2469
1 28 -48 0.6634 0.4851
1 28 -45 0.5723 2.6092
1 28 -42 -5.1461 1.1262
1 28 -39 19.6989 -0.5258
1 28 -36 6.0465 -1.2199
1 28 -33 -18.3146 0.2630
1 28 -30 8.8992 2.1531
1 28 -27 -12.7498 0.3924
1 28 -24 -19.7592 -1.9498
1 28 -21 -19.0324 -1.0833
1 28 -18 -6.2031 1.7953
1 28 -15 -3.1700 1.6583
1 28 -12 21.4352 -0.8525
1 28 -9 -39.0695 -2.2119
1 28 -6 73.2734 0.0960
1 28 -3 21.8194 2.6060
1 28 0 15.4568 0.8488
1 28 3 17.1581 -2.6258
1 28 6 34.0454 -1.4905
1 28 9 23.8216 1.8339
1 28 12 -2.1077 2.1155
1 28 15 -35.8569 -0.7916
1 28 18 39.8848 -2.1951
1 28 21 -1.1389 -0.0797
1 28 24 9.5465 2.1041
1 28 27 -42.9130 1.2215
1 28 30 -11.7926 -1.6562
1 28 33 -8.7439 -1.3815
1 28 36 -7.7664 0.8529
1 28 39 1.7126 1.8258
1 28 42 0.0279 0.1224
1 28 45 3.2939 -2.2152
1 28 48 1.6205 -0.5801
1 29 -46 -4.3646 -1.2947
1 29 -43 9.2326 1.4101
1 29 -40 6.1536 2.4910
1 29 -37 -0.0009 0.3975
1 29 -34 -4.9261 -2.2494
1 29 -31 -13.2430 -0.6238
1 29 -28 -7.8389 2.1840
1 29 -25 6.7352 1.6118
1 29 -22 -14.4721 -1.9679
1 29 -19 8.2869 -2.0102
1 29 -16 39.3959 1.7828
1 29 -13 -23.4320 2.5402
1 29 -10 11.8031 -0.9682
1 29 -7 21.6544 -2.5458
1 29 -4 -29.3787 0.4763
1 29 -1 5.3845 2.6133
1 29 2 -3.0710 0.6060
1 29 5 -35.3387 -1.9857
1 29 8 19.1417 -1.0565
1 29 11 4.8018 1.6609
1 29 14 -36.6211 1.1661
1 29 17 57.8473 -1.3887
1 29 20 -18.9319 -1.4713
1 29 23 2.7181 0.9436
1 29 26 23.1375 1.5134
1 29 29 -12.1728 -0.7066
1 29 32 9.5434 -1.7269
1 29 35 1.6138 0.3670
1 29 38 -10.2209 1.1079
1 29 41 2.3313 -1.1806
1 29 44 0.9096 -1.2016
1 29 47 -1.9674 -0.8950
1 30 -44 2.1307 -0.1322
1 30 -41 13.7189 0.2392
1 30 -38 -16.0978 1.1179
1 30 -35 -4.9449 0.6490
1 30 -32 -12.0520 -1.6221
1 30 -29 -19.1188 -1.7114
1 30 -26 -12.2980 0.8892
1 30 -23 -12.3427 2.0003
1 30 -20 11.5193 -0.5492
1 30 -17 -9.2926 -2.4301
1 30 -14 -4.9685 -0.2592
1 30 -11 2.9524 2.4818
1 30 -8 13.7410 1.2235
1 30 -5 27.2008 -2.4192
1 30 -2 -37.0137 -2.0821
1 30 1 46.9083 1.5557
1 30 4 16.9346 2.5603
1 30 7 33.7828 -0.8163
1 30 10 44.5649 -3.0752
1 30 13 -17.3481 -0.1548
1 30 16 5.7126 2.8396
1 30 19 -9.5499 1.3210
1 30 22 -48.9644 -2.5066
1 30 25 -1.7157 -2.2770
1 30 28 -10.8795 2.0346
1 30 31 -14.1561 1.9500
1 30 34 12.3386 -1.0674
1 30 37 -6.8452 -2.0177
1 30 40 2.9050 -0.0931
1 30 43 9.7730 2.1158
1 30 46 -3.5297 0.7030
1 31 -42 -10.7351 -1.8340
1 31 -39 6.6746 -0.6125
1 31 -36 -3.9635 1.4744
1 31 -33 -15.2929 1.4846
1 31 -30 13.8894 -1.2071
1 31 -27 -15.9593 -1.9270
1 31 -24 8.8383 0.5852
1 31 -21 12.3285 1.9795
1 31 -18 8.5191 -0.0980
1 31 -15 -8.2682 -2.0582
1 31 -12 12.3114 -0.4741
1 31 -9 -31.7302 1.6143
1 31 -6 41.2482 0.9085
1 31 -3 -41.6604 -1.3078
1 31 0 20.3027 -1.1989
1 31 3 -0.2747 0.8232
1 31 6 -2.2205 1.4598
1 31 9 -28.1521 -0.3952
1 31 12 -7.9007 -0.9851
1 31 15 -14.2885 0.0119
1 31 18 11.3041 0.9607
1 31 21 -15.6069 0.1772
1 31 24 -7.8122 -0.8678
1 31 27 7.4067 -0.2071
1 31 30 15.2115 0.0950
1 31 33 1.6802 -0.1674
1 31 36 9.0878 -0.0734
1 31 39 -0.9267 0.7824
1 31 42 5.8414 0.3051
1 32 -43 -5.6365 0.8658
1 32 -40 2.1859 -1.0058
1 32 -37 0.9227 -1.3848
1 32 -34 -3.5024 -0.6163
1 32 -31 6.6374 1.5852
1 32 -28 20.6838 0.6438
1 32 -25 -8.6833 -2.2772
1 32 -22 5.7222 -1.2611
1 32 -19 -15.6995 1.7423
1 32 -16 -9.2846 1.6323
1 32 -13 -26.0537 -1.2629
1 32 -10 15.2933 -1.9063
1 32 -7 1.7693 0.5842
1 32 -4 1.8850 2.2184
1 32 -1 9.3088 0.1983
1 32 2 18.3334 -2.3130
1 32 5 6.3039 -0.6724
1 32 8 12.9289 2.0329
1 32 11 -20.5906 1.4568
1 32 14 -6.7046 -1.6435
1 32 17 7.6396 -1.8016
1 32 20 -1.1402 1.5499
1 32 23 6.9953 1.9778
1 32 26 18.5175 -0.7308
1 32 29 -5.7915 -1.8185
1 32 32 -2.8865 0.4067
1 32 35 -1.5867 0.8766
1 32 38 -1.3635 0.6682
1 32 41 -5.2686 -1.3576
1 33 -41 6.1875 -0.7949
1 33 -38 -13.9535 -0.9775
1 33 -35 1.8766 -1.7300
1 33 -32 7.9239 -0.0132
1 33 -29 8.1555 2.1061
1 33 -26 7.1388 0.4292
1 33 -23 3.3467 -1.6554
1 33 -20 19.6854 -1.3069
1 33 -17 -6.7320 0.8372
1 33 -14 10.4944 1.6507
1 33 -11 10.9926 -0.4695
1 33 -8 -7.9798 -1.9986
1 33 -5 14.5640 -0.4608
1 33 -2 -7.9649 1.5675
1 33 1 15.2874 0.8214
1 33 4 -0.5865 -1.3693
1 33 7 -20.6309 -1.4757
1 33 10 -25.6336 0.5827
1 33 13 -17.3176 1.6552
1 33 16 -13.6910 -0.1741
1 33 19 19.1863 -1.5954
1 33 22 16.2011 -0.6596
1 33 25 16.1863 0.9169
1 33 28 1.2343 0.8015
1 33 31 14.4944 -0.0001
1 33 34 -4.4364 -1.8294
1 33 37 -1.8343 0.3154
1 33 40 3.1738 1.4545
1 34 -39 4.6218 1.8885
1 34 -36 2.8737 0.9709
1 34 -33 15.3184 -1.6308
1 34 -30 21.2552 -1.5475
1 34 -27 -26.4577 1.3295
1 34 -24 24.9071 2.0373
1 34 -21 -8.4035 -1.1125
1 34 -18 -7.3008 -2.0888
1 34 -15 8.1062 0.3518
1 34 -12 2.3975 2.2118
1 34 -9 -2.9660 0.5285
1 34 -6 16.0304 -2.0519
1 34 -3 -17.4978 -0.8224
1 34 0 -3.4792 2.0293
1 34 3 -5.6009 1.5971
1 34 6 -14.3406 -1.2705
1 34 9 -13.6205 -1.6156
1 34 12 29.0981 1.0062
1 34 15 -7.7495 1.9944
1 34 18 15.9480 -0.3128
1 34 21 14.0867 -1.3271
1 34 24 -8.1418 0.3909
1 34 27 -0.3015 0.9743
1 34 30 9.7037 0.1569
1 34 33 -10.3497 -1.5671
1 34 36 7.5571 -0.8225
1 34 39 10.1568 1.5950
1 35 -37 5.5345 0.0195
1 35 -34 4.4657 1.3453
1 35 -31 0.2994 -0.9771
1 35 -28 -10.8002 -1.0218
1 35 -25 -2.7230 0.9920
1 35 -22 14.9637 1.0686
1 35 -19 -17.5184 0.1883
1 35 -16 33.2187 -1.4574
1 35 -13 -14.5175 -0.6894
1 35 -10 7.3810 1.0921
1 35 -7 2.1992 1.7861
1 35 -4 -9.9077 -1.0337
1 35 -1 -6.2937 -1.9426
1 35 2 -12.3008 0.2851
1 35 5 -10.5567 2.0411
1 35 8 -15.0216 0.1107
1 35 11 6.7269 -2.3822
1 35 14 21.4893 -0.9601
1 35 17 12.9266 1.4074
1 35 20 15.7247 1.9904
1 35 23 -7.9596 -0.9822
1 35 26 -2.8088 -1.6696
1 35 29 -7.1750 -0.0419
1 35 32 4.3191 1.4377
1 35 35 8.3857 0.7250
1 36 -35 11.1461 1.3130
1 36 -32 -0.1578 1.7404
1 36 -29 1.0541 -0.0337
1 36 -26 8.2782 -1.3824
1 36 -23 -6.3748 -0.0822
1 36 -20 12.4600 2.0591
1 36 -17 -5.2738 0.9295
1 36 -14 -14.5907 -1.6203
1 36 -11 8.4453 -1.1013
1 36 -8 -12.7923 1.3711
1 36 -5 15.5105 1.3249
1 36 -2 -17.7502 -0.8651
1 36 1 3.9383 -1.4035
1 36 4 -3.5178 0.3653
1 36 7 5.2371 1.4653
1 36 10 -6.2876 0.1045
1 36 13 14.7402 -1.0810
1 36 16 -2.1099 -0.4946
1 36 19 0.1886 0.7612
1 36 22 -12.9300 -0.8509
1 36 25 4.0944 -0.2160
1 36 28 -7.1093 -0.9235
1 36 31 9.3527 -0.0428
1 36 34 -11.4851 1.0889
1 37 -33 -2.4842 -0.5920
1 37 -30 6.4744 2.0028
1 37 -27 4.5772 0.4624
1 37 -24 1.3149 -1.2731
1 37 -21 -2.5632 -1.0336
1 37 -18 10.7958 1.0252
1 37 -15 -13.0995 1.1883
1 37 -12 -7.1393 -0.1926
1 37 -9 -7.7906 -2.0764
1 37 -6 -2.2961 -0.0751
1 37 -3 -14.0687 1.8652
1 37 0 -0.1549 0.9574
1 37 3 9.4924 -1.4586
1 37 6 5.9633 -1.5440
1 37 9 9.3091 1.4824
1 37 12 13.7766 2.1249
1 37 15 -2.3427 -0.3573
1 37 18 0.5840 -1.7346
1 37 21 -5.3614 0.2035
1 37 24 2.8148 2.0117
1 37 27 2.2426 0.7399
1 37 30 5.5657 -2.7901
1 37 33 2.5974 -0.7720
1 38 -28 -0.9535 1.9049
1 38 -25 -11.7777 1.3295
1 38 -22 16.7691 -1.0931
1 38 -19 -9.1153 -0.7375
1 38 -16 -3.9423 1.2961
1 38 -13 -8.8575 1.6707
1 38 -10 8.1722 -0.5347
1 38 -7 9.2714 -1.6545
1 38 -4 -3.8641 -0.3052
1 38 -1 5.9293 1.2988
1 38 2 2.6070 0.6763
1 38 5 17.0053 -1.2581
1 38 8 -10.2732 -0.7479
1 38 11 3.0326 -0.0544
1 38 14 -10.0249 0.0668
1 38 17 -16.4317 -0.6344
1 38 20 -7.9592 0.0565
1 38 23 -9.1890 -0.3656
1 38 26 8.8602 1.3736
1 38 29 -4.1051 -0.6399
1 39 -26 -2.5775 1.0073
1 39 -23 2.7197 2.4945
1 39 -20 0.0557 -1.1829
1 39 -17 -28.1011 -1.0433
1 39 -14 6.7994 -0.2432
1 39 -11 9.7683 1.2229
1 39 -8 -20.9527 0.3799
1 39 -5 0.0614 -1.2187
1 39 -2 -11.4124 -0.4026
1 39 1 10.9264 1.0801
1 39 4 -5.6588 1.0147
1 39 7 -8.2251 -0.2737
1 39 10 -9.8200 -0.8365
1 39 13 9.7779 0.2138
1 39 16 -14.4921 1.2784
1 39 19 5.9300 1.6200
1 39 22 -0.7461 -1.8868
1 39 25 20.1605 -0.3273
1 40 -24 -16.3958 2.4004
1 40 -21 15.0763 -0.1026
1 40 -18 -4.0684 -0.2701
1 40 -15 5.9530 -0.4329
1 40 -12 3.5126 -0.3799
1 40 -9 -0.3234 0.5808
1 40 -6 0.5826 1.1657
1 40 -3 7.6122 -0.0844
1 40 0 11.8229 -0.9044
1 40 3 4.6665 -0.4669
1 40 6 -17.9801 0.4706
1 40 9 13.1566 0.7910
1 40 12 -10.5592 -0.8180
1 40 15 4.0214 -0.7113
1 40 18 -4.7741 0.4613
1 40 21 3.3899 0.6399
1 40 24 5.0452 -1.5640
1 41 -19 -4.3814 1.9912
1 41 -16 3.8043 0.4501
1 41 -13 2.4233 -1.5968
1 41 -10 -5.3644 -0.5899
1 41 -7 -3.2231 0.5114
1 41 -4 -0.6923 1.4829
1 41 -1 -1.9783 0.3246
1 41 2 -0.7188 -1.2038
1 41 5 -9.4252 -0.8204
1 41 8 2.0996 1.0469
1 41 11 -6.8976 0.5968
1 41 14 -11.7646 -1.3724
1 41 17 7.3556 0.5568
1 41 20 -0.4210 1.4474
1 42 -14 9.7015 -0.3866
1 42 -11 -0.3620 0.4605
1 42 -8 3.6112 -0.3173
1 42 -5 13.4347 0.2283
1 42 -2 5.6713 0.3983
1 42 1 5.9904 -0.1895
1 42 4 -0.8815 -0.3444
1 42 7 10.0801 0.0242
1 42 10 3.9580 0.5606
1 42 13 -0.8124 0.1170
1 43 -6 -2.2258 -0.5347
1 43 -3 -0.1132 -0.0738
1 43 0 7.9964 0.3603
1 43 3 -9.9263 0.4035
1 43 6 -1.6595 -0.3752
2 1 -62 7.9222 0.9291
2 1 -59 -7.4919 4.3376
2 1 -56 3.1723 0.4369
2 1 -53 11.7330 -4.5165
2 1 -50 12.3219 -2.5041
2 1 -47 3.8022 4.7189
2 1 -44 27.1497 4.8458
2 1 -41 -35.2572 -3.7116
2 1 -38 -14.3850 -6.7057
2 1 -35 -56.3672 2.3136
2 1 -32 -51.5800 9.3824
2 1 -29 -105.1927 0.8446
2 1 -26 -115.5527 -10.8820
2 1 -23 -42.1047 -4.0725
2 1 -20 131.2688 10.9565
2 1 -17 -88.9513 7.2697
2 1 -14 447.7014 -9.3643
2 1 -11 -41.6129 -10.9793
2 1 -8 285.8135 3.3061
2 1 -5 -438.4561 10.6581
2 1 4 948.4679 -6.1999
2 1 7 -142.5372 10.5689
2 1 10 170.3613 10.4682
2 1 13 -10.5374 -7.6150
2 1 16 -119.2681 -10.6403
2 1 19 -143.7406 3.0722
2 1 22 -4.5182 10.8275
2 1 25 -53.1844 2.6018
2 1 28 89.0752 -8.9639
2 1 31 34.0308 -5.0960
2 1 34 16.4895 7.5017
2 1 37 -19.2951 6.5873
2 1 40 30.8400 -5.1013
2 1 43 -9.2728 -6.8289
2 1 46 -13.9886 2.2342
2 1 49 -15.1750 5.7709
2 1 52 -13.2873 0.0602
2 1 55 -9.8708 -5.5742
2 1 58 0.3335 -1.3543
2 1 61 8.1710 3.6545
2 1 64 0.1025 1.3636
2 2 -63 0.9450 -0.6740
2 2 -60 -6.6883 1.9924
2 2 -57 6.2699 0.7188
2 2 -54 -13.2854 -2.6088
2 2 -51 8.3568 -1.3949
2 2 -48 -2.2007 2.8734
2 2 -45 3.8635 2.6909
2 2 -42 -7.8771 -2.1973
2 2 -39 -9.0585 -3.8038
2 2 -36 -31.0396 1.6220
2 2 -33 -35.8832 5.4800
2 2 -30 -66.2394 -0.7763
2 2 -27 -47.6335 -6.7863
2 2 -24 -62.1731 -0.2004
2 2 -21 83.5489 6.9950
2 2 -18 -76.9550 1.6045
2 2 -15 192.2952 -6.1661
2 2 -12 -164.1783 -3.4250
2 2 -9 -122.9708 3.8126
2 2 -6 285.0771 5.9848
2 2 -3 -503.2965 -0.7178
2 2 0 -253.5246 -8.0521
2 2 3 570.1460 -0.1235
2 2 6 -150.0107 10.7582
2 2 9 160.5377 1.9023
2 2 12 -107.8012 -8.2894
2 2 15 52.0072 -3.2867
2 2 18 -127.3316 5.7475
2 2 21 -11.6097 5.9486
2 2 24 -175.0966 -2.9685
2 2 27 90.5885 -7.7943
2 2 30 -18.3730 0.4505
2 2 33 -10.3607 7.4633
2 2 36 56.5630 0.5877
2 2 39 -12.5359 -6.4188
2 2 42 25.4267 -2.3566
2 2 45 0.0350 4.5970
2 2 48 -12.6369 2.9450
2 2 51 12.8627 -2.8334
2 2 54 -13.7397 -3.4626
2 2 57 6.9513 1.4808
2 2 60 -1.4188 4.2547
2 2 63 -11.2999 -1.8633
2 3 -64 5.0314 0.4819
2 3 -61 4.6558 -2.0275
2 3 -58 -6.5568 -2.7607
2 3 -55 13.3870 1.0653
2 3 -52 18.9167 3.8418
2 3 -49 -1.8692 0.1410
2 3 -46 15.9713 -4.5498
2 3 -43 -21.8527 -1.6515
2 3 -40 -34.9091 5.1320
2 3 -37 -6.5330 3.7735
2 3 -34 -19.5321 -4.4365
2 3 -31 -87.9323 -5.5045
2 3 -28 -43.6266 3.0239
2 3 -25 -47.8634 6.8728
2 3 -22 50.6734 -0.8745
2 3 -19 66.6445 -7.8568
2 3 -16 118.8938 -2.3846
2 3 -13 -40.2666 6.8746
2 3 -10 288.8649 3.9689
2 3 -7 -153.2527 -7.0621
2 3 -4 -56.3918 -6.0306
2 3 -1 619.3463 4.5813
2 3 2 140.2700 7.2544
2 3 5 -51.2946 -1.3688
2 3 8 -280.5884 -7.9418
2 3 11 -178.1599 -1.8822
2 3 14 18.9707 5.4526
2 3 17 69.7807 3.2720
2 3 20 -41.7516 -4.5726
2 3 23 95.5649 -4.6961
2 3 26 46.3678 3.1673
2 3 29 9.2004 5.2720
2 3 32 7.8795 -1.7000
2 3 35 -9.8533 -4.7750
2 3 38 6.7891 0.3251
2 3 41 1.9680 3.7874
2 3 44 -18.2363 0.7386
2 3 47 -7.4316 -3.2822
2 3 50 -13.7699 -1.5249
2 3 53 -7.0498 2.3952
2 3 56 1.0231 2.0871
2 3 59 -5.1621 -1.4201
2 3 62 -1.6411 -0.8516
2 4 -62 -1.9074 -0.7743
2 4 -59 -8.9074 -1.0424
2 4 -56 5.4365 -0.1635
2 4 -53 -6.4157 0.9935
2 4 -50 -6.9504 0.1730
2 4 -47 -40.5081 -1.3965
2 4 -44 0.0250 -0.6449
2 4 -41 -88.4551 1.2506
2 4 -38 41.9540 0.4082
2 4 -35 -35.6637 -1.7653
2 4 -32 -2.4622 -0.9428
2 4 -29 26.9503 0.6783
2 4 -26 62.8704 0.6287
2 4 -23 137.1919 -0.6129
2 4 -20 214.7920 -1.6971
2 4 -17 -47.5131 -1.0623
2 4 -14 215.5460 1.3907
2 4 -11 85.4955 1.1382
2 4 -8 47.7808 -1.9515
2 4 -5 -464.8210 0.1803
2 4 -2 818.8828 2.8787
2 4 4 169.7958 0.1200
2 4 7 -597.4880 -0.0034
2 4 10 -36.0230 0.9918
2 4 13 -39.7882 1.9238
2 4 16 28.5540 1.4657
2 4 19 -46.5663 -1.2664
2 4 22 153.2676 -0.8085
2 4 25 134.4174 1.9093
2 4 28 33.2452 0.5405
2 4 31 0.5550 -1.5225
2 4 34 63.3847 -0.4147
2 4 37 -27.6302 0.8713
2 4 40 56.2626 0.5140
2 4 43 -35.5895 -0.6403
2 4 46 24.1904 -0.7470
2 4 49 3.0726 0.2026
2 4 52 -6.9050 1.3298
2 4 55 1.8260 -0.2622
2 4 58 7.8358 -1.0928
2 4 61 -8.3372 -0.0663
2 4 64 1.4753 1.4503
2 5 -63 -11.1889 -0.4020
2 5 -60 3.4037 1.8566
2 5 -57 5.5081 0.1673
2 5 -54 -7.2390 -1.8566
2 5 -51 4.1716 -0.5491
2 5 -48 1.7894 2.3192
2 5 -45 0.0387 1.1650
2 5 -42 0.1964 -1.9224
2 5 -39 -25.4032 -2.1076
2 5 -36 2.0598 1.8033
2 5 -33 -26.2609 3.1907
2 5 -30 -6.7593 -1.3547
2 5 -27 64.7389 -3.9524
2 5 -24 67.2851 0.4091
2 5 -21 -30.7212 4.0309
2 5 -18 -7.5476 0.5908
2 5 -15 -53.4885 -4.1506
2 5 -12 169.9542 -3.2097
2 5 -9 -11.6020 2.8127
2 5 -6 -3.2042 4.8316
2 5 -3 -185.2761 -1.6544
2 5 0 213.9892 -4.9345
2 5 3 -52.7090 1.1846
2 5 6 8.2087 5.0931
2 5 9 230.6289 -0.4141
2 5 12 112.7837 -5.8105
2 5 15 -2.3014 -2.0512
2 5 18 19.6385 4.3626
2 5 21 -11.8434 2.7607
2 5 24 83.7085 -3.9069
2 5 27 20.5774 -3.6633
2 5 30 -62.5885 2.5070
2 5 33 -6.7249 3.3141
2 5 36 20.1183 -1.6781
2 5 39 -45.9081 -3.7790
2 5 42 -6.5975 0.2601
2 5 45 -12.8023 3.0796
2 5 48 -17.4268 0.5944
2 5 51 8.2653 -2.9017
2 5 54 -6.2147 -0.9411
2 5 57 10.9334 2.0411
2 5 60 -6.3016 1.6021
2 5 63 -0.9003 -2.1483
2 6 -61 5.3108 -0.5279
2 6 -58 -10.7982 0.5398
2 6 -55 -17.7654 0.7735
2 6 -52 -19.6125 1.0508
2 6 -49 -13.3594 -0.7742
2 6 -46 -21.7670 -1.4655
2 6 -43 -14.6910 0.5342
2 6 -40 -8.9976 2.0454
2 6 -37 -8.6423 -0.1414
2 6 -34 23.1896 -2.3399
2 6 -31 -0.5451 -0.9252
2 6 -28 14.6071 1.8211
2 6 -25 166.4496 0.8862
2 6 -22 55.2410 -2.2574
2 6 -19 160.4216 -2.3537
2 6 -16 156.9480 0.9618
2 6 -13 -35.8296 2.9710
2 6 -10 122.0737 0.1941
2 6 -7 -196.2599 -3.7050
2 6 -4 -113.9657 -0.2383
2 6 -1 56.6216 5.1423
2 6 2 -437.6518 2.1762
2 6 5 -36.7725 -3.1203
2 6 8 128.9918 -1.5237
2 6 11 109.8576 2.9706
2 6 14 130.7542 3.6595
2 6 17 156.4121 -0.4607
2 6 20 -47.6906 -3.3660
2 6 23 -0.9838 0.5231
2 6 26 -17.9728 4.2344
2 6 29 -21.5487 0.6279
2 6 32 8.4315 -3.4893
2 6 35 -3.0364 -1.2487
2 6 38 30.2056 2.3801
2 6 41 -7.6078 1.8242
2 6 44 17.0622 -1.5068
2 6 47 -19.3048 -2.4759
2 6 50 11.1104 0.3124
2 6 53 11.1541 2.0812
2 6 56 -14.5046 -0.4632
2 6 59 7.1409 -2.6188
2 6 62 -0.9737 -0.5454
2 7 -62 3.9143 -0.9008
2 7 -59 -14.8192 -1.0427
2 7 -56 11.3835 0.6266
2 7 -53 -17.0909 1.7473
2 7 -50 3.8684 -0.0305
2 7 -47 1.4166 -2.0112
2 7 -44 44.8139 -0.6058
2 7 -41 -8.2386 2.0760
2 7 -38 60.8490 1.2721
2 7 -35 -58.1240 -1.9731
2 7 -32 35.6541 -1.8933
2 7 -29 24.5132 1.2726
2 7 -26 22.7302 2.3030
2 7 -23 -4.2750 -0.8837
2 7 -20 15.9254 -3.0993
2 7 -17 -213.1348 -0.1239
2 7 -14 168.5795 2.9686
2 7 -11 -313.0077 0.4989
2 7 -8 -38.1938 -2.0006
2 7 -5 -177.8935 -0.1303
2 7 -2 -21.6454 1.8386
2 7 1 -423.3173 1.3400
2 7 4 314.4248 -0.8668
2 7 7 -7.9849 -2.1295
2 7 10 307.5313 0.6553
2 7 13 81.3505 1.8089
2 7 16 136.6363 -0.5625
2 7 19 91.4756 -1.6261
2 7 22 83.1588 -0.1332
2 7 25 -121.4150 0.7718
2 7 28 31.1819 0.4043
2 7 31 -49.5676 -0.7454
2 7 34 46.1424 -0.8405
2 7 37 -1.0572 0.5861
2 7 40 16.9032 0.9421
2 7 43 -32.0102 -0.4055
2 7 46 14.9683 -0.3184
2 7 49 -20.2149 0.2839
2 7 52 14.3024 0.3342
2 7 55 -17.8730 -0.5912
2 7 58 10.4004 -0.3833
2 7 61 0.5544 0.1058
2 8 -63 -0.3504 1.3165
2 8 -60 -3.9530 0.7873
2 8 -57 -4.1726 -1.8813
2 8 -54 -9.8972 -0.8394
2 8 -51 -4.5925 1.6932
2 8 -48 13.2418 2.4139
2 8 -45 -19.9520 -1.6516
2 8 -42 -15.6241 -3.7506
2 8 -39 -34.6621 0.7630
2 8 -36 27.3042 4.7007
2 8 -33 0.8758 0.5866
2 8 -30 64.6822 -5.0437
2 8 -27 23.2051 -2.4041
2 8 -24 -85.0821 4.8301
2 8 -21 70.3855 5.0691
2 8 -18 -44.6054 -3.2996
2 8 -15 136.0362 -6.5614
2 8 -12 -2.6694 2.5678
2 8 -9 -326.0673 8.9865
2 8 -6 160.2082 0.8648
2 8 -3 -282.9261 -7.9167
2 8 0 402.3026 -2.1697
2 8 3 17.6045 7.0044
2 8 6 181.7401 5.4034
2 8 9 240.7887 -5.4071
2 8 12 -84.1735 -7.7911
2 8 15 8.9236 3.8800
2 8 18 19.2423 9.0683
2 8 21 -32.1574 -1.4262
2 8 24 -55.3270 -8.3639
2 8 27 -16.2857 -0.7281
2 8 30 -5.5589 6.8083
2 8 33 13.4406 2.9926
2 8 36 24.9440 -5.1425
2 8 39 -56.4255 -4.8138
2 8 42 13.5435 3.2084
2 8 45 -3.9226 5.1625
2 8 48 -3.3077 -1.5320
2 8 51 2.3725 -4.8576
2 8 54 -11.9639 -0.0278
2 8 57 1.9346 3.9813
2 8 60 -0.6366 0.7863
2 8 63 -4.9157 -3.5766
2 9 -61 -4.0397 0.1965
2 9 -58 -2.9100 -1.0076
2 9 -55 5.9663 -0.7411
2 9 -52 10.5827 0.4245
2 9 -49 24.0740 0.4057
2 9 -46 -4.8396 0.2595
2 9 -43 41.0130 -0.7821
2 9 -40 8.4153 -0.1865
2 9 -37 24.7736 0.5734
2 9 -34 43.5828 0.2728
2 9 -31 -16.4945 -0.3893
2 9 -28 24.8271 -0.4950
2 9 -25 36.7198 -0.1959
2 9 -22 -31.7884 0.0124
2 9 -19 -75.5301 0.0451
2 9 -16 -73.9347 -0.1167
2 9 -13 -144.1375 0.2949
2 9 -10 -56.7267 -0.0897
2 9 -7 39.4719 -0.4209
2 9 -4 -212.9128 0.1487
2 9 -1 401.5349 0.1613
2 9 2 -88.7212 -0.3229
2 9 5 233.7018 -0.5288
2 9 8 163.9451 0.2517
2 9 11 51.1863 0.9317
2 9 14 -74.7426 0.2009
2 9 17 -33.1396 -1.0587
2 9 20 -101.4443 -0.3362
2 9 23 69.4910 0.8595
2 9 26 49.1911 0.5858
2 9 29 15.1196 -0.3921
2 9 32 11.6527 -1.0050
2 9 35 13.1507 0.3917
2 9 38 -8.2798 1.4899
2 9 41 -14.8522 0.0790
2 9 44 8.8151 -1.5921
2 9 47 3.0642 -0.1934
2 9 50 1.8847 1.4287
2 9 53 9.9385 0.8111
2 9 56 -1.4614 -1.0561
2 9 59 0.4466 -0.9070
2 9 62 -3.7414 1.0809
2 10 -62 -7.3950 -0.4162
2 10 -59 0.8235 0.8868
2 10 -56 2.3783 2.1138
2 10 -53 -6.6894 -1.1017
2 10 -50 12.0276 -3.4510
2 10 -47 11.2078 -0.0154
2 10 -44 -0.4782 4.0002
2 10 -41 -18.4622 0.8596
2 10 -38 11.4627 -4.3743
2 10 -35 -2.1849 -2.6909
2 10 -32 74.5906 4.3645
2 10 -29 -6.8960 4.5228
2 10 -26 -47.1792 -3.0835
2 10 -23 51.0207 -5.6356
2 10 -20 -42.7850 2.4176
2 10 -17 -143.9488 7.8690
2 10 -14 294.9065 0.3321
2 10 -11 -213.3719 -7.3367
2 10 -8 65.0199 -1.8559
2 10 -5 -115.8521 7.1689
2 10 -2 93.4570 4.0954
2 10 1 108.2519 -5.7301
2 10 4 315.3933 -6.0707
2 10 7 -211.7870 3.3790
2 10 10 109.2199 6.4887
2 10 13 80.4697 -2.2957
2 10 16 -54.2714 -6.9914
2 10 19 59.0615 -0.3193
2 10 22 -1.3894 5.4640
2 10 25 -40.5100 1.6909
2 10 28 80.9048 -4.8936
2 10 31 -33.9406 -3.5858
2 10 34 -10.2718 3.4976
2 10 37 -5.7491 4.0394
2 10 40 -33.0578 -2.1428
2 10 43 -19.1692 -3.8925
2 10 46 26.3435 0.9985
2 10 49 -7.2571 3.4965
2 10 52 25.7873 0.0025
2 10 55 -6.0907 -2.7792
2 10 58 6.6653 -0.2872
2 10 61 3.2972 2.3618
2 11 -60 -8.2790 -0.0443
2 11 -57 3.8367 -0.4752
2 11 -54 10.2378 0.5700
2 11 -51 5.5499 0.3037
2 11 -48 8.4461 -0.6430
2 11 -45 19.5043 -0.9546
2 11 -42 8.9618 0.0800
2 11 -39 53.4665 1.3377
2 11 -36 30.9467 0.1947
2 11 -33 -42.2242 -1.4090
2 11 -30 -53.7878 -0.9733
2 11 -27 -107.5939 0.6305
2 11 -24 -48.5241 1.2300
2 11 -21 38.1890 -0.2875
2 11 -18 -151.9139 -1.5077
2 11 -15 9.0050 -0.1081
2 11 -12 -73.4387 1.8189
2 11 -9 -179.6784 0.8781
2 11 -6 356.3859 -1.5202
2 11 -3 74.3039 -1.6352
2 11 0 173.7112 1.4011
2 11 3 129.5305 2.4542
2 11 6 -27.1549 -0.4520
2 11 9 -13.6326 -2.2478
2 11 12 65.5113 -0.1923
2 11 15 -64.0008 2.4646
2 11 18 -65.6682 1.4618
2 11 21 12.4057 -1.4694
2 11 24 -74.6059 -1.7638
2 11 27 9.2655 1.4100
2 11 30 0.3818 2.7292
2 11 33 -64.1422 -0.5359
2 11 36 16.0816 -2.5358
2 11 39 9.9322 -0.1354
2 11 42 14.6740 2.2450
2 11 45 17.1317 0.8517
2 11 48 -14.6898 -1.7817
2 11 51 0.6957 -1.2858
2 11 54 -2.9617 1.1028
2 11 57 4.5611 1.9727
2 11 60 2.3424 -0.6845
2 12 -61 8.0401 -1.3041
2 12 -58 3.6058 -2.2706
2 12 -55 -0.1129 -0.2542
2 12 -52 -3.7512 2.8290
2 12 -49 10.3703 0.4965
2 12 -46 0.3205 -2.7865
2 12 -43 30.1739 -1.7216
2 12 -40 -41.5425 2.7095
2 12 -37 15.7724 3.0451
2 12 -34 -54.9879 -1.7142
2 12 -31 -46.7951 -3.6469
2 12 -28 27.8329 1.0644
2 12 -25 23.0163 4.3843
2 12 -22 -83.0971 0.4138
2 12 -19 124.5370 -3.7372
2 12 -16 59.2808 -1.0936
2 12 -13 42.9491 3.9919
2 12 -10 45.8170 2.8016
2 12 -7 -136.0081 -3.3064
2 12 -4 -32.9457 -4.4638
2 12 -1 49.5710 1.8061
2 12 2 -207.8602 3.9675
2 12 5 169.0400 -1.4312
2 12 8 -2.4812 -4.1343
2 12 11 37.2409 -0.3104
2 12 14 -50.3536 2.9540
2 12 17 31.0050 0.6156
2 12 20 72.4263 -3.2695
2 12 23 52.7644 -1.9665
2 12 26 -52.4070 2.3050
2 12 29 41.4471 1.9352
2 12 32 3.4274 -2.0847
2 12 35 2.1139 -1.9451
2 12 38 23.9657 1.4014
2 12 41 -7.4366 1.7407
2 12 44 1.8555 -1.1239
2 12 47 -5.8230 -1.3792
2 12 50 -13.4586 0.7201
2 12 53 -3.3559 1.7756
2 12 56 -2.2898 -0.1660
2 12 59 -5.6805 -0.1041
2 13 -59 2.5057 0.5739
2 13 -56 -10.3061 -0.7918
2 13 -53 16.1608 -2.2422
2 13 -50 1.9363 0.2445
2 13 -47 -3.0271 2.5626
2 13 -44 0.7781 0.9782
2 13 -41 7.5948 -2.9842
2 13 -38 -2.5762 -2.0367
2 13 -35 -35.0635 2.5738
2 13 -32 -58.9271 3.0262
2 13 -29 -83.7244 -2.1009
2 13 -26 -24.7644 -4.1213
2 13 -23 -72.7436 0.6722
2 13 -20 8.1613 5.2165
2 13 -17 -25.4844 1.0269
2 13 -14 24.6849 -5.2718
2 13 -11 -128.4006 -2.4892
2 13 -8 -88.7111 4.6321
2 13 -5 282.1755 4.1401
2 13 -2 117.3522 -2.9359
2 13 1 146.9468 -4.9467
2 13 4 100.2625 1.8001
2 13 7 80.9213 5.6587
2 13 10 55.2384 0.3839
2 13 13 -22.4398 -5.2758
2 13 16 -156.2262 -1.6568
2 13 19 15.1991 4.8183
2 13 22 -76.8867 3.3811
2 13 25 -79.2921 -3.0309
2 13 28 -10.3227 -3.7341
2 13 31 -30.4648 2.0987
2 13 34 -10.3604 4.1264
2 13 37 2.0018 -0.3046
2 13 40 4.8569 -3.3443
2 13 43 8.3841 -0.7779
2 13 46 16.4861 2.6028
2 13 49 -5.1614 1.0891
2 13 52 -3.1628 -2.2082
2 13 55 6.9464 -2.1365
2 13 58 -3.2024 0.6323
2 13 61 6.0727 1.2587
2 14 -60 -6.7897 0.8250
2 14 -57 7.6676 -0.2672
2 14 -54 1.4674 -1.3142
2 14 -51 -3.6239 -0.6619
2 14 -48 -12.9939 1.0661
2 14 -45 4.9128 1.2638
2 14 -42 -25.5305 -0.6100
2 14 -39 -19.8849 -1.3061
2 14 -36 -94.5839 0.2010
2 14 -33 -47.1136 1.5918
2 14 -30 -6.0967 0.0106
2 14 -27 73.7465 -1.5201
2 14 -24 24.4076 -0.5990
2 14 -21 101.0657 1.1178
2 14 -18 -10.6227 1.2353
2 14 -15 27.8298 -0.9846
2 14 -12 76.0628 -1.7095
2 14 -9 -28.0314 0.3190
2 14 -6 202.8390 0.7777
2 14 -3 -84.9337 -0.7499
2 14 0 -103.6643 -0.9145
2 14 3 -102.8572 0.3347
2 14 6 -96.6795 0.2354
2 14 9 -134.4670 -0.1591
2 14 12 -37.2266 -0.5373
2 14 15 -32.1510 -0.1476
2 14 18 14.7121 0.3406
2 14 21 88.9204 -0.4250
2 14 24 15.8872 -0.5673
2 14 27 45.6192 0.7919
2 14 30 34.1800 0.7106
2 14 33 66.3292 -0.7963
2 14 36 36.4322 -0.8179
2 14 39 22.6995 0.7708
2 14 42 -20.8331 1.3024
2 14 45 -7.5464 -0.4238
2 14 48 -9.6145 -1.2204
2 14 51 -0.5711 0.0192
2 14 54 1.5129 1.5578
2 14 57 -0.0390 -0.2267
2 14 60 -0.1592 -2.0666
2 15 -58 -5.7817 0.1240
2 15 -55 2.3625 3.0107
2 15 -52 1.8506 -0.0001
2 15 -49 -1.4903 -2.8529
2 15 -46 -13.4446 -1.3629
2 15 -43 15.1278 2.6250
2 15 -40 -58.2040 2.4730
2 15 -37 23.7459 -2.5115
2 15 -34 -43.7787 -3.9914
2 15 -31 32.8599 1.4791
2 15 -28 37.5891 5.0423
2 15 -25 -49.5502 -0.2239
2 15 -22 -19.1767 -5.4063
2 15 -19 74.9253 -1.0440
2 15 -16 -170.0050 5.9901
2 15 -13 -98.4891 3.0605
2 15 -10 61.9989 -5.0503
2 15 -7 -102.2754 -4.6297
2 15 -4 102.3379 3.5497
2 15 -1 147.2890 6.0310
2 15 2 -72.1439 -1.5885
2 15 5 224.5698 -6.5479
2 15 8 -60.8200 -0.2231
2 15 11 -37.6634 6.4252
2 15 14 76.3445 2.0208
2 15 17 23.9154 -5.5857
2 15 20 -77.8961 -3.5596
2 15 23 48.6208 4.2515
2 15 26 -43.1690 4.4224
2 15 29 12.2713 -3.0507
2 15 32 -3.7489 -4.9630
2 15 35 -50.1311 1.3892
2 15 38 -6.8829 4.4045
2 15 41 -14.8639 0.1446
2 15 44 -21.7322 -4.1090
2 15 47 12.3154 -0.9627
2 15 50 -5.6087 3.2659
2 15 53 1.7079 1.5190
2 15 56 17.2775 -1.8610
2 15 59 -2.5290 -1.2979
2 16 -59 0.4954 -0.3220
2 16 -56 0.0912 0.0167
2 16 -53 8.0614 0.4801
2 16 -50 -20.4089 0.8507
2 16 -47 -4.0044 0.3903
2 16 -44 -6.2992 -0.8837
2 16 -41 -23.8649 -0.9022
2 16 -38 -59.8467 0.9940
2 16 -35 -13.8845 1.2720
2 16 -32 -16.6461 -0.6974
2 16 -29 37.6491 -2.0208
2 16 -26 4.7457 0.0600
2 16 -23 32.0657 2.0758
2 16 -20 69.3233 0.9054
2 16 -17 28.2641 -1.9041
2 16 -14 20.9654 -2.1209
2 16 -11 140.9488 1.0692
2 16 -8 95.3592 2.2972
2 16 -5 86.5256 -0.9105
2 16 -2 -100.9215 -2.8287
2 16 1 -85.6336 0.1734
2 16 4 -29.3435 2.9294
2 16 7 -27.4739 1.2664
2 16 10 -125.8986 -2.3727
2 16 13 -33.0993 -2.0139
2 16 16 22.1089 1.8145
2 16 19 -9.6512 3.2474
2 16 22 20.1275 -0.7451
2 16 25 37.2328 -2.9529
2 16 28 33.4849 0.3209
2 16 31 50.2840 3.1365
2 16 34 12.2568 1.0847
2 16 37 13.0247 -2.4209
2 16 40 29.3771 -1.5211
2 16 43 -5.1531 2.1627
2 16 46 -0.6400 1.9956
2 16 49 5.1737 -1.0945
2 16 52 -3.2905 -1.7305
2 16 55 1.6569 0.7712
2 16 58 -1.4358 2.5633
2 17 -57 1.2907 -1.4225
2 17 -54 -22.9005 -0.9274
2 17 -51 8.2096 1.7896
2 17 -48 -5.0079 1.1931
2 17 -45 -4.3075 -1.4148
2 17 -42 -1.7060 -2.7043
2 17 -39 -12.8397 0.8392
2 17 -36 -13.3382 3.5440
2 17 -33 87.6433 -0.0382
2 17 -30 -0.7575 -3.8591
2 17 -27 34.4327 -1.0060
2 17 -24 6.7205 4.0384
2 17 -21 -36.4634 2.3952
2 17 -18 -12.3443 -3.1035
2 17 -15 -13.6779 -3.4803
2 17 -12 -81.5443 2.5407
2 17 -9 -32.8012 4.7924
2 17 -6 -76.2131 -1.4468
2 17 -3 -122.7808 -5.6245
2 17 0 -77.5940 0.0055
2 17 3 45.3682 5.3378
2 17 6 12.0199 1.1534
2 17 9 101.3565 -5.3001
2 17 12 25.1175 -2.9481
2 17 15 79.4572 3.8033
2 17 18 21.2386 3.5019
2 17 21 8.3357 -3.1119
2 17 24 -23.6844 -4.3137
2 17 27 36.1613 1.5006
2 17 30 -0.2472 3.8787
2 17 33 4.3577 -0.6147
2 17 36 -42.3089 -3.7438
2 17 39 -23.0318 -0.4753
2 17 42 -3.6877 3.0986
2 17 45 3.8658 1.2599
2 17 48 -9.7160 -2.4308
2 17 51 6.5877 -1.1546
2 17 54 -4.2899 1.3745
2 17 57 -3.0189 0.8087
2 18 -58 -9.5347 0.7328
2 18 -55 4.4064 0.4246
2 18 -52 -0.5801 -1.3985
2 18 -49 -1.6903 -0.7207
2 18 -46 -19.9926 1.5597
2 18 -43 4.4954 1.7701
2 18 -40 -20.3576 -1.5091
2 18 -37 3.7631 -2.3294
2 18 -34 -10.2492 0.5754
2 18 -31 17.5581 2.8218
2 18 -28 -13.9728 0.5908
2 18 -25 34.8290 -3.0002
2 18 -22 -23.6849 -1.5359
2 18 -19 56.4647 3.1480
2 18 -16 1.9055 2.6047
2 18 -13 37.5769 -2.3698
2 18 -10 144.0713 -3.4071
2 18 -7 -119.5004 1.3476
2 18 -4 42.9802 4.2823
2 18 -1 5.8512 0.2732
2 18 2 -121.9219 -4.1368
2 18 5 2.5004 -1.5388
2 18 8 -31.4154 3.7466
2 18 11 -27.9322 2.8178
2 18 14 43.0491 -2.6774
2 18 17 -36.8158 -3.2398
2 18 20 22.9736 1.8421
2 18 23 40.8025 3.7696
2 18 26 -5.5059 -0.4370
2 18 29 -28.1216 -3.6322
2 18 32 -6.8250 -0.5223
2 18 35 -6.1770 3.0428
2 18 38 20.6788 1.6566
2 18 41 -0.7785 -2.2953
2 18 44 19.3090 -1.7735
2 18 47 -7.3382 1.5800
2 18 50 1.6346 1.8409
2 18 53 5.8862 -0.3937
2 18 56 2.0865 -1.1533
2 19 -56 1.4702 0.3656
2 19 -53 -3.9533 -0.1771
2 19 -50 -15.6035 -1.2706
2 19 -47 9.1826 0.2553
2 19 -44 -2.4217 1.5040
2 19 -41 -2.9969 0.2669
2 19 -38 6.8536 -1.5225
2 19 -35 42.6808 -0.6300
2 19 -32 23.7893 1.8613
2 19 -29 33.4118 0.9099
2 19 -26 28.0021 -1.5491
2 19 -23 -21.6621 -1.5434
2 19 -20 58.5960 1.6331
2 19 -17 -44.0658 2.0418
2 19 -14 -28.5798 -1.2650
2 19 -11 -2.0577 -2.5038
2 19 -8 -144.0644 0.8533
2 19 -5 -37.2637 2.6120
2 19 -2 -38.8049 -0.6769
2 19 1 59.1755 -2.7509
2 19 4 4.8657 -0.0771
2 19 7 61.2894 2.5752
2 19 10 3.3350 0.6642
2 19 13 56.2153 -2.4716
2 19 16 31.8636 -1.2348
2 19 19 31.8098 1.8361
2 19 22 16.3584 1.5225
2 19 25 24.8911 -1.6161
2 19 28 4.2335 -2.0061
2 19 31 -10.5813 1.0865
2 19 34 27.0568 1.7442
2 19 37 1.3897 -0.7496
2 19 40 -7.5483 -1.8724
2 19 43 -3.5351 0.0097
2 19 46 4.7074 1.4605
2 19 49 -4.2563 -0.0266
2 19 52 5.0850 -1.6196
2 19 55 -1.5272 0.2411
2 20 -54 -0.7984 0.7637
2 20 -51 15.4697 2.2235
2 20 -48 1.2797 -0.8697
2 20 -45 5.6025 -2.3753
2 20 -42 2.5649 0.3742
2 20 -39 10.6179 3.0134
2 20 -36 10.3429 0.4816
2 20 -33 49.8682 -3.1814
2 20 -30 -54.0730 -1.6667
2 20 -27 36.8859 2.9204
2 20 -24 -40.3594 2.7945
2 20 -21 -24.6898 -2.6034
2 20 -18 15.7355 -3.6617
2 20 -15 -66.4709 1.8396
2 20 -12 -58.1335 4.6693
2 20 -9 8.4394 -0.4334
2 20 -6 -4.1361 -4.8562
2 20 -3 -19.0582 -0.9669
2 20 0 38.9245 4.9045
2 20 3 84.1915 2.7546
2 20 6 -26.1765 -3.9727
2 20 9 16.3238 -3.8409
2 20 12 -43.6242 2.9118
2 20 15 -9.7180 4.4717
2 20 18 9.0099 -1.6040
2 20 21 -29.9335 -4.5821
2 20 24 4.4518 0.6396
2 20 27 42.5076 4.2469
2 20 30 -58.3025 0.8457
2 20 33 7.5942 -3.4766
2 20 36 -26.4744 -1.6717
2 20 39 -0.9126 2.8450
2 20 42 -14.9202 1.8913
2 20 45 -6.6375 -2.1479
2 20 48 -5.8625 -1.9747
2 20 51 10.8287 0.9561
2 20 54 -7.9256 0.6249
2 21 -55 6.1765 1.1097
2 21 -52 1.0935 0.6571
2 21 -49 6.8646 0.5758
2 21 -46 -12.0803 -0.3646
2 21 -43 25.7935 -0.4827
2 21 -40 9.8288 0.1344
2 21 -37 1.6285 0.6718
2 21 -34 29.0750 0.0964
2 21 -31 14.1032 -0.7207
2 21 -28 -24.4175 -0.4546
2 21 -25 -7.9748 0.3146
2 21 -22 -3.6502 0.1521
2 21 -19 -16.5175 -0.2392
2 21 -16 11.4813 -0.1714
2 21 -13 -68.8986 -0.4913
2 21 -10 38.9492 -0.1694
2 21 -7 -39.2299 0.7074
2 21 -4 45.5478 0.2765
2 21 -1 -6.4430 -0.8498
2 21 2 29.8620 -0.6469
2 21 5 74.7935 0.4957
2 21 8 -28.5729 0.9570
2 21 11 9.0879 0.2407
2 21 14 20.1179 -1.0422
2 21 17 -23.1515 -0.4849
2 21 20 -3.8963 1.2635
2 21 23 -39.7265 0.6477
2 21 26 -16.7192 -1.0601
2 21 29 -9.7942 -1.3751
2 21 32 19.0966 0.9061
2 21 35 -9.4121 1.5168
2 21 38 20.6094 -0.1786
2 21 41 -7.4384 -0.9801
2 21 44 16.0716 -0.0937
2 21 47 -3.1164 1.5389
2 21 50 7.5626 1.1974
2 21 53 2.9751 -1.7209
2 22 -53 -2.2751 -0.6146
2 22 -50 11.3583 0.1106
2 22 -47 20.8484 2.7117
2 22 -44 2.1130 0.1392
2 22 -41 11.8313 -2.9379
2 22 -38 14.5535 -0.9109
2 22 -35 -3.2789 3.1333
2 22 -32 6.7981 2.1062
2 22 -29 -9.9726 -2.9559
2 22 -26 -44.5053 -3.1312
2 22 -23 7.3411 2.1592
2 22 -20 -0.5513 4.3061
2 22 -17 -76.3875 -1.1007
2 22 -14 41.1345 -4.6798
2 22 -11 -40.4078 0.0794
2 22 -8 47.5156 5.1596
2 22 -5 38.1726 1.2549
2 22 -2 -52.5356 -4.8421
2 22 1 27.5914 -2.6557
2 22 4 -5.6626 3.9711
2 22 7 -2.1309 3.7521
2 22 10 32.2599 -3.2642
2 22 13 22.6219 -4.4839
2 22 16 27.3367 1.8423
2 22 19 7.0006 4.1519
2 22 22 2.8196 -0.4760
2 22 25 -33.9078 -3.9485
2 22 28 38.3983 -0.9533
2 22 31 -22.3001 3.4239
2 22 34 -1.7610 1.5841
2 22 37 -1.2660 -2.9264
2 22 40 -1.1050 -1.6485
2 22 43 -6.4063 2.1258
2 22 46 4.7325 2.0179
2 22 49 -18.1889 -0.9788
2 22 52 4.2362 -0.3078
2 23 -51 4.8806 1.1867
2 23 -48 5.0684 -1.3675
2 23 -45 4.4059 0.5315
2 23 -42 -15.9103 1.2124
2 23 -39 7.1897 0.2792
2 23 -36 -16.9661 -1.1401
2 23 -33 -20.1729 -1.0592
2 23 -30 -40.8198 1.0573
2 23 -27 0.8084 1.4425
2 23 -24 -11.3577 -1.1238
2 23 -21 -5.1275 -2.4004
2 23 -18 25.3113 0.2605
2 23 -15 -0.4596 2.5659
2 23 -12 2.1723 0.4059
2 23 -9 57.5921 -2.7357
2 23 -6 -28.8679 -1.6227
2 23 -3 2.0919 2.3830
2 23 0 57.2654 2.2520
2 23 3 -8.9094 -1.7057
2 23 6 -28.6324 -2.9725
2 23 9 35.4500 0.8262
2 23 12 -27.6187 3.3812
2 23 15 10.8144 0.1959
2 23 18 -43.9056 -3.2001
2 23 21 -2.1679 -1.1908
2 23 24 -54.2152 2.8585
2 23 27 -13.8923 2.1886
2 23 30 -42.3341 -1.8291
2 23 33 -11.6498 -2.4081
2 23 36 3.6768 1.2608
2 23 39 0.0961 2.6350
2 23 42 -9.3369 -0.2809
2 23 45 29.2114 -2.6616
2 23 48 5.3973 -0.6339
2 23 51 -10.7325 2.5447
2 24 -52 12.3519 -0.6203
2 24 -49 2.5293 -1.5259
2 24 -46 6.8696 -0.5992
2 24 -43 3.7161 2.2788
2 24 -40 -8.9993 1.2316
2 24 -37 -12.3893 -1.7545
2 24 -34 11.6152 -1.6517
2 24 -31 -29.5499 1.6611
2 24 -28 -9.5038 2.4499
2 24 -25 37.3226 -1.0820
2 24 -22 6.7480 -2.8708
2 24 -19 -5.6029 0.3521
2 24 -16 31.1883 3.1000
2 24 -13 -62.0269 0.6652
2 24 -10 105.0302 -3.0443
2 24 -7 -115.6915 -1.4761
2 24 -4 15.4154 2.7140
2 24 -1 19.8651 2.0299
2 24 2 -28.1975 -2.5255
2 24 5 19.8498 -2.4238
2 24 8 -21.1451 1.6720
2 24 11 -24.6811 2.5416
2 24 14 46.2111 -0.6672
2 24 17 -79.6772 -2.5783
2 24 20 33.8711 -0.0882
2 24 23 32.5507 2.5758
2 24 26 30.4462 0.8319
2 24 29 30.9940 -2.1617
2 24 32 3.9327 -1.0878
2 24 35 1.9958 1.8166
2 24 38 2.7853 1.1923
2 24 41 1.6642 -1.0563
2 24 44 6.0523 -1.5830
2 24 47 -8.6150 0.7576
2 24 50 -0.9909 -0.0975
2 25 -50 4.5517 1.2526
2 25 -47 -4.5917 0.3622
2 25 -44 -16.0592 -2.7865
2 25 -41 -13.0958 -0.6385
2 25 -38 -13.8046 2.3419
2 25 -35 -25.3006 2.2519
2 25 -32 2.4681 -1.7329
2 25 -29 -20.9239 -3.2507
2 25 -26 5.8529 1.0660
2 25 -23 23.3871 4.0192
2 25 -20 5.2141 -0.1261
2 25 -17 -40.0953 -4.3636
2 25 -14 68.9551 -0.9614
2 25 -11 -27.0353 3.9990
2 25 -8 22.3862 2.4229
2 25 -5 -28.3582 -3.7477
2 25 -2 47.9783 -3.9888
2 25 1 33.7851 2.8573
2 25 4 53.0390 5.0286
2 25 7 -9.3268 -1.3958
2 25 10 -5.0547 -5.1654
2 25 13 28.3036 -0.1640
2 25 16 -44.3114 4.7889
2 25 19 -27.7731 1.7809
2 25 22 4.1160 -3.9087
2 25 25 -27.9313 -2.4929
2 25 28 22.7499 3.0350
2 25 31 -24.8661 3.1645
2 25 34 -0.4233 -1.5931
2 25 37 0.3426 -3.1352
2 25 40 7.5121 0.8774
2 25 43 -17.6627 3.2718
2 25 46 7.6830 1.1990
2 25 49 6.7363 -3.0602
2 26 -48 2.3140 -0.5238
2 26 -45 -9.3493 -0.8337
2 26 -42 -20.3899 -0.8615
2 26 -39 9.7805 0.8643
2 26 -36 -8.6825 1.1646
2 26 -33 3.5817 -0.1113
2 26 -30 15.0018 -1.0516
2 26 -27 23.8755 0.0924
2 26 -24 3.9849 1.4221
2 26 -21 18.1698 0.4448
2 26 -18 1.8788 -1.4308
2 26 -15 -3.2780 -0.8796
2 26 -12 -4.7734 1.0801
2 26 -9 -17.5864 0.9494
2 26 -6 13.4930 -1.0741
2 26 -3 11.0214 -0.8682
2 26 0 -5.7159 0.6132
2 26 3 -28.0624 0.9493
2 26 6 -5.8980 -0.4482
2 26 9 -39.7173 -1.1293
2 26 12 -4.9955 0.1333
2 26 15 -27.3087 1.2911
2 26 18 -13.2031 -0.0638
2 26 21 24.5931 -1.0659
2 26 24 -19.8767 -0.0054
2 26 27 17.6500 0.7834
2 26 30 10.7357 0.1338
2 26 33 12.3984 -0.7439
2 26 36 6.1667 -0.1885
2 26 39 31.1644 0.4963
2 26 42 -18.6262 0.6203
2 26 45 14.4699 -0.1242
2 26 48 -12.5321 0.0785
2 27 -49 -7.9595 0.1871
2 27 -46 -1.6831 0.7198
2 27 -43 -11.2917 1.0867
2 27 -40 -9.3841 -1.5729
2 27 -37 18.2738 -1.8646
2 27 -34 3.0476 1.6728
2 27 -31 9.4340 3.1256
2 27 -28 32.9610 -0.7601
2 27 -25 10.1771 -3.4337
2 27 -22 -34.2200 -0.0858
2 27 -19 7.7616 3.7874
2 27 -16 -11.4136 1.2980
2 27 -13 -6.3811 -3.5329
2 27 -10 45.1884 -2.3146
2 27 -7 -52.3070 3.1529
2 27 -4 86.0946 3.1923
2 27 -1 -12.5096 -2.3284
2 27 2 -19.5543 -3.6989
2 27 5 17.8370 1.2508
2 27 8 -5.7744 3.7863
2 27 11 -20.2958 0.0913
2 27 14 41.1203 -3.4727
2 27 17 -14.6997 -1.3029
2 27 20 43.7497 3.2182
2 27 23 7.9573 2.4034
2 27 26 -41.9306 -2.3557
2 27 29 -14.6257 -2.5637
2 27 32 -5.2440 1.6437
2 27 35 -18.2069 2.7246
2 27 38 3.7731 -0.5490
2 27 41 -8.3418 -2.2998
2 27 44 -6.8091 0.0681
2 27 47 1.9553 2.2733
2 28 -47 -12.8099 0.0842
2 28 -44 2.9048 -0.3081
2 28 -41 -4.3480 0.7581
2 28 -38 9.5753 -0.1740
2 28 -35 2.8992 -0.3300
2 28 -32 15.2710 -0.2952
2 28 -29 4.2906 0.4179
2 28 -26 23.1280 0.8227
2 28 -23 3.8877 -0.0690
2 28 -20 9.6484 -0.8397
2 28 -17 4.5404 -0.6345
2 28 -14 55.3448 0.7249
2 28 -11 -42.6794 0.6157
2 28 -8 40.2507 -0.7688
2 28 -5 -12.3276 -1.0581
2 28 -2 6.0720 0.3189
2 28 1 -16.5226 1.2467
2 28 4 -34.9972 0.1613
2 28 7 -30.5358 -1.1977
2 28 10 11.7628 -0.6068
2 28 13 -41.5100 1.1721
2 28 16 22.0000 0.9526
2 28 19 -24.4374 -1.0941
2 28 22 26.9064 -1.2806
2 28 25 10.3605 0.5473
2 28 28 4.2807 1.4199
2 28 31 16.9080 0.0539
2 28 34 7.6428 -1.0534
2 28 37 2.9082 -0.4433
2 28 40 13.0693 1.0840
2 28 43 -3.1674 0.4999
2 28 46 13.6280 -0.8913
2 29 -45 -4.3340 -0.4303
2 29 -42 -3.8403 1.0312
2 29 -39 20.0946 2.3142
2 29 -36 -0.5697 -0.8499
2 29 -33 14.1215 -1.9281
2 29 -30 -5.1518 0.1917
2 29 -27 2.0834 2.6425
2 29 -24 -3.8244 1.0309
2 29 -21 -5.2365 -2.7217
2 29 -18 8.6834 -1.2285
2 29 -15 4.8170 2.7357
2 29 -12 -9.5120 2.3175
2 29 -9 -5.3199 -2.0494
2 29 -6 -13.6168 -2.6792
2 29 -3 -37.1573 1.5542
2 29 0 8.3983 2.7585
2 29 3 -19.9911 -0.3687
2 29 6 -2.2431 -2.9709
2 29 9 37.2353 -0.5421
2 29 12 -17.0776 2.8961
2 29 15 14.2459 1.0575
2 29 18 -2.5948 -2.6433
2 29 21 -11.2780 -1.2964
2 29 24 15.0325 2.0729
2 29 27 1.2834 1.7675
2 29 30 -0.3528 -1.2423
2 29 33 18.5000 -2.1163
2 29 36 -8.1402 0.9462
2 29 39 -4.3920 1.9991
2 29 42 -8.7544 -0.3149
2 29 45 -5.0984 -1.7703
2 30 -43 -13.4155 -0.0004
2 30 -40 10.5754 -0.6007
2 30 -37 8.5952 0.9059
2 30 -34 -8.2488 1.7792
2 30 -31 -1.0037 -0.1803
2 30 -28 5.9490 -2.1632
2 30 -25 -14.7721 -0.3159
2 30 -22 -6.5311 2.5945
2 30 -19 20.2848 1.0545
2 30 -16 -15.8255 -2.2690
2 30 -13 3.5976 -2.2184
2 30 -10 14.6117 1.9131
2 30 -7 -28.9902 2.8599
2 30 -4 13.7757 -0.8490
2 30 -1 -4.0404 -3.0087
2 30 2 -19.9004 -0.0011
2 30 5 -2.5057 3.2575
2 30 8 15.3377 0.9279
2 30 11 -31.6631 -3.1602
2 30 14 40.4355 -1.8755
2 30 17 -26.6111 2.3829
2 30 20 -4.5776 2.9372
2 30 23 10.8371 -1.2656
2 30 26 -3.0992 -2.8067
2 30 29 18.6537 0.2898
2 30 32 3.5085 2.5946
2 30 35 8.8834 0.6791
2 30 38 -7.5325 -2.3124
2 30 41 12.4731 -0.9791
2 30 44 1.0301 1.2482
2 31 -44 7.6969 -1.3343
2 31 -41 -3.8434 -1.1702
2 31 -38 1.9648 0.8037
2 31 -35 7.8523 1.9933
2 31 -32 -9.1911 0.1918
2 31 -29 4.1836 -1.6016
2 31 -26 6.6163 -0.1809
2 31 -23 2.2908 1.4507
2 31 -20 -2.9830 1.0344
2 31 -17 8.1356 -1.8230
2 31 -14 11.0254 -1.2719
2 31 -11 -28.7835 1.6085
2 31 -8 17.9095 1.4291
2 31 -5 -17.3738 -0.8763
2 31 -2 11.9609 -2.0439
2 31 1 16.5221 0.5786
2 31 4 -16.4242 2.0410
2 31 7 24.4671 -0.1523
2 31 10 -3.8928 -2.0248
2 31 13 -13.8378 -0.3503
2 31 16 26.1042 1.7203
2 31 19 -18.6789 0.3176
2 31 22 27.8038 -1.5473
2 31 25 -3.0594 -1.0536
2 31 28 -4.0698 1.2828
2 31 31 0.5062 1.2318
2 31 34 -3.5862 -0.8619
2 31 37 -9.7242 -0.6367
2 31 40 9.0951 1.2416
2 31 43 3.5650 1.5769
2 32 -42 4.6942 1.0185
2 32 -39 -1.3093 0.4850
2 32 -36 3.0195 -1.5583
2 32 -33 11.7997 -0.0384
2 32 -30 -14.6289 2.7434
2 32 -27 17.5509 1.1641
2 32 -24 4.3669 -2.4043
2 32 -21 -15.6944 -1.8596
2 32 -18 8.7456 2.0449
2 32 -15 0.1048 2.6911
2 32 -12 -35.1109 -1.2921
2 32 -9 18.2350 -3.0923
2 32 -6 -9.2686 0.4884
2 32 -3 21.1414 3.6493
2 32 0 13.0488 0.6366
2 32 3 1.2000 -3.3156
2 32 6 -5.2033 -1.8308
2 32 9 25.5386 3.1394
2 32 12 -30.7002 2.9157
2 32 15 7.4033 -2.2600
2 32 18 11.6523 -3.1725
2 32 21 -0.6663 1.3402
2 32 24 10.1678 3.1229
2 32 27 6.9867 -0.5152
2 32 30 -6.0429 -3.1278
2 32 33 0.8151 -1.2609
2 32 36 -11.7070 1.9351
2 32 39 1.4462 0.4960
2 32 42 -9.4432 -1.9807
2 33 -40 7.8334 -0.0836
2 33 -37 7.5426 -0.4441
2 33 -34 -9.5860 0.0929
2 33 -31 12.8115 0.2081
2 33 -28 -8.8520 0.0719
2 33 -25 15.1468 -0.2767
2 33 -22 -4.6953 0.0934
2 33 -19 12.5552 -0.2709
2 33 -16 9.2533 0.1214
2 33 -13 8.4366 0.1533
2 33 -10 5.9883 0.1036
2 33 -7 0.5595 -0.0232
2 33 -4 16.1651 -0.0581
2 33 -1 -5.3927 -0.1524
2 33 2 -14.5085 0.1723
2 33 5 11.9524 0.3195
2 33 8 7.9245 0.0187
2 33 11 -0.6441 -0.6335
2 33 14 -8.4700 -0.1617
2 33 17 4.9180 0.6668
2 33 20 0.4347 0.6248
2 33 23 -3.4211 -0.1979
2 33 26 -21.0545 -0.6335
2 33 29 -14.6756 0.8509
2 33 32 1.5642 0.4960
2 33 35 -3.3610 -0.3151
2 33 38 -0.3626 -0.5453
2 34 -38 6.1808 1.1833
2 34 -35 -14.7445 0.5923
2 34 -32 -5.1606 -1.6880
2 34 -29 2.4316 -1.9429
2 34 -26 -9.6591 2.3015
2 34 -23 7.6106 1.9524
2 34 -20 -11.0205 -1.7487
2 34 -17 14.3482 -3.0544
2 34 -14 -14.5406 1.2751
2 34 -11 -13.5853 3.3493
2 34 -8 12.3228 -0.2044
2 34 -5 1.5455 -3.3468
2 34 -2 2.8704 -0.9703
2 34 1 2.0991 3.1917
2 34 4 -3.4225 1.5910
2 34 7 17.3168 -2.6302
2 34 10 2.8742 -2.2114
2 34 13 -7.6658 1.8396
2 34 16 14.4669 2.6173
2 34 19 -12.6414 -1.2721
2 34 22 -8.5994 -2.4706
2 34 25 -15.0235 -0.1818
2 34 28 11.3831 1.7300
2 34 31 14.2185 0.7125
2 34 34 -15.9954 -3.2692
2 34 37 9.0597 -0.4341
2 35 -36 0.2004 -0.0192
2 35 -33 3.8140 -0.1228
2 35 -30 -11.9924 -0.0393
2 35 -27 9.3562 -1.2535
2 35 -24 -8.7373 -1.0754
2 35 -21 -2.2089 0.7875
2 35 -18 10.0269 0.8205
2 35 -15 -4.4455 -0.8717
2 35 -12 0.0364 -1.6284
2 35 -9 21.3350 0.2867
2 35 -6 1.5229 1.7563
2 35 -3 3.8728 0.3679
2 35 0 -4.2635 -1.6811
2 35 3 6.5492 -0.9434
2 35 6 -3.6332 1.1304
2 35 9 5.1205 1.5137
2 35 12 -23.4488 -0.4697
2 35 15 8.9437 -1.5588
2 35 18 -15.9530 0.1095
2 35 21 -8.9336 1.5275
2 35 24 -16.5992 0.2519
2 35 27 2.0640 -2.3923
2 35 30 -8.9734 -0.3718
2 35 33 -10.5533 0.5378
2 35 36 14.3141 0.7491
2 36 -34 -0.3975 1.1971
2 36 -31 5.6384 -0.7435
2 36 -28 -11.6505 -1.0998
2 36 -25 0.6641 -2.1375
2 36 -22 -0.7317 0.8784
2 36 -19 5.5105 2.3597
2 36 -16 -8.9808 -0.9054
2 36 -13 -7.1242 -2.3974
2 36 -10 -0.8336 0.4011
2 36 -7 8.5001 2.5569
2 36 -4 0.9456 -0.0208
2 36 -1 0.4241 -2.3935
2 36 2 14.9086 -0.8251
2 36 5 17.4500 1.9341
2 36 8 -4.1057 1.2576
2 36 11 -7.6950 -1.2503
2 36 14 -7.6537 -1.4810
2 36 17 -2.1551 1.3850
2 36 20 -10.4082 1.2560
2 36 23 -0.6215 0.3935
2 36 26 9.2934 -1.6207
2 36 29 17.1633 0.7452
2 36 32 10.8239 0.8014
2 37 -32 21.1444 -1.3238
2 37 -29 10.6571 0.6576
2 37 -26 -3.3419 1.5042
2 37 -23 20.0630 -0.8337
2 37 -20 -17.3223 -1.6655
2 37 -17 7.7787 0.7542
2 37 -14 -4.2947 2.2710
2 37 -11 9.1512 0.2592
2 37 -8 25.9801 -2.4213
2 37 -5 6.8958 -1.2253
2 37 -2 -5.1072 2.1292
2 37 1 14.3186 1.8896
2 37 4 5.3899 -1.3379
2 37 7 -5.6329 -2.3097
2 37 10 -13.7388 0.7276
2 37 13 -11.6905 2.3500
2 37 16 -16.7050 -0.1406
2 37 19 1.0534 -2.7743
2 37 22 8.8179 -0.2875
2 37 25 21.9410 2.2365
2 37 28 3.3149 0.2208
2 37 31 -1.5603 -0.8155
2 38 -27 6.2282 -0.8553
2 38 -24 -12.3456 -0.2106
2 38 -21 12.2482 -1.3138
2 38 -18 -7.9097 0.1275
2 38 -15 -4.1329 0.8952
2 38 -12 -0.0791 0.3914
2 38 -9 9.8010 -0.6620
2 38 -6 -10.6618 -0.3734
2 38 -3 5.1714 0.8534
2 38 0 -1.2570 0.0863
2 38 3 7.2402 -0.7550
2 38 6 -8.1840 -0.2177
2 38 9 -5.7731 0.9748
2 38 12 2.0681 0.2281
2 38 15 3.1146 -0.1372
2 38 18 -1.9806 -0.5877
2 38 21 5.6023 0.6249
2 38 24 -7.7375 1.2253
2 38 27 -4.8917 -0.2175
2 39 -25 -7.0650 1.8067
2 39 -22 13.7328 1.6907
2 39 -19 4.6085 0.5148
2 39 -16 1.3725 -2.2021
2 39 -13 10.2820 -0.5094
2 39 -10 13.6993 1.9308
2 39 -7 4.8287 1.3659
2 39 -4 -1.0692 -2.2207
2 39 -1 5.6359 -1.7217
2 39 2 2.1259 1.4402
2 39 5 -13.8058 1.8504
2 39 8 -9.5443 -1.5285
2 39 11 -5.2686 -2.6653
2 39 14 5.6358 -0.3844
2 39 17 3.9787 3.1149
2 39 20 0.4773 0.3379
2 39 23 10.5613 -1.9170
2 39 26 -10.1631 -0.7959
2 40 -20 -7.3811 0.1061
2 40 -17 6.6750 0.5162
2 40 -14 -5.4121 -0.0075
2 40 -11 -0.6639 -0.4203
2 40 -8 5.1041 0.3975
2 40 -5 -13.4394 0.1224
2 40 -2 -2.3616 -0.1090
2 40 1 12.4213 -0.1837
2 40 4 -4.6500 -0.3547
2 40 7 5.7683 0.0991
2 40 10 0.8866 1.2951
2 40 13 -7.7539 1.1036
2 40 16 11.2209 -0.1983
2 40 19 -9.6649 0.3123
2 40 22 6.1946 -0.9163
2 41 -18 1.8661 2.7203
2 41 -15 8.5619 -0.3330
2 41 -12 1.9443 -0.9168
2 41 -9 4.2325 -0.8646
2 41 -6 -9.7585 1.3428
2 41 -3 17.0158 1.2766
2 41 0 -2.7248 -0.8309
2 41 3 5.7363 -2.0118
2 41 6 2.0797 0.3781
2 41 9 5.3871 1.3788
2 41 12 -4.1547 -1.0077
2 41 15 3.9953 -3.3804
2 41 18 -9.6918 0.8390
2 42 -10 -3.2077 0.6646
2 42 -7 -0.8526 -0.5868
2 42 -4 0.8339 -0.3951
2 42 -1 0.1059 0.2593
2 42 2 -7.0050 0.3906
2 42 5 1.3951 0.0436
2 42 8 4.8456 -0.1349
2 42 11 -1.4095 0.3554
3 1 -64 13.9215 -3.5260
3 1 -61 -4.3601 -0.0911
3 1 -58 -6.3779 4.1055
3 1 -55 -2.5395 0.2045
3 1 -52 -7.1707 -5.3364
3 1 -49 0.2125 -2.0114
3 1 -46 27.4607 5.5888
3 1 -43 -23.6830 4.1936
3 1 -40 42.0434 -5.9168
3 1 -37 -52.9753 -6.9070
3 1 -34 30.9573 4.4215
3 1 -31 -9.1987 8.0884
3 1 -28 -79.4982 -2.1216
3 1 -25 -134.0349 -9.5332
3 1 -22 50.5679 -0.9494
3 1 -19 -10.1286 11.3114
3 1 -16 18.3791 5.8302
3 1 -13 22.5379 -10.2463
3 1 -10 94.0937 -7.3028
3 1 -7 -115.0461 10.4521
3 1 -4 -1.5041 10.6082
3 1 -1 -938.9528 -3.4250
3 1 2 457.8077 -8.5699
3 1 5 177.4806 1.1288
3 1 8 -131.0975 12.1487
3 1 11 -78.8522 4.2915
3 1 14 27.0848 -12.2290
3 1 17 -145.1638 -6.7840
3 1 20 -17.9588 9.7386
3 1 23 -124.4156 7.7231
3 1 26 -53.9828 -6.8618
3 1 29 65.5907 -8.9334
3 1 32 -14.5635 2.7649
3 1 35 53.5878 8.5777
3 1 38 54.1703 -0.1896
3 1 41 -4.7610 -7.6501
3 1 44 46.9093 -1.8121
3 1 47 -25.0379 6.2583
3 1 50 1.6899 2.9402
3 1 53 -9.9269 -4.4374
3 1 56 2.8311 -3.9370
3 1 59 -6.7124 3.0237
3 1 62 5.4753 3.2287
3 2 -62 -14.2262 -0.4070
3 2 -59 2.1294 -0.0267
3 2 -56 -8.1436 -1.2297
3 2 -53 3.4708 0.0851
3 2 -50 -36.8809 1.2909
3 2 -47 11.4354 0.7265
3 2 -44 -21.5330 -1.4153
3 2 -41 43.8920 -0.9931
3 2 -38 10.1262 1.2771
3 2 -35 -5.0588 1.7884
3 2 -32 25.0025 -1.0023
3 2 -29 76.1583 -2.2022
3 2 -26 6.1338 0.3686
3 2 -23 190.5686 2.2199
3 2 -20 -35.4502 0.6347
3 2 -17 82.0902 -2.7805
3 2 -14 84.9990 -1.7250
3 2 -11 -224.2901 2.9444
3 2 -8 -169.9382 1.6900
3 2 -5 -580.4556 -3.0197
3 2 -2 -201.3632 -4.2514
3 2 1 -294.3206 -1.0394
3 2 4 304.7662 1.9462
3 2 7 197.5147 -0.2848
3 2 10 208.5407 -2.7288
3 2 13 316.0129 -0.6891
3 2 16 230.6602 2.8994
3 2 19 139.5262 1.1117
3 2 22 123.7935 -2.4152
3 2 25 -26.9438 -0.8519
3 2 28 -17.6154 2.1601
3 2 31 -49.1840 1.7716
3 2 34 -5.3942 -0.3084
3 2 37 9.2959 -1.5369
3 2 40 -21.3652 0.1361
3 2 43 -2.9498 2.1674
3 2 46 -28.5766 0.3746
3 2 49 2.8676 -1.3939
3 2 52 5.0997 -0.9383
3 2 55 10.1512 0.8149
3 2 58 -12.6256 1.0439
3 2 61 21.7023 -0.0662
3 2 64 -5.6203 -1.1156
3 3 -63 -11.8911 -0.0657
3 3 -60 15.4896 -1.3619
3 3 -57 -16.8443 -2.4747
3 3 -54 10.0691 0.6329
3 3 -51 -14.4184 3.1566
3 3 -48 8.3069 -0.6325
3 3 -45 16.6426 -4.3178
3 3 -42 2.8482 -0.8659
3 3 -39 21.4928 4.1966
3 3 -36 34.0984 2.3571
3 3 -33 36.3093 -4.5004
3 3 -30 19.5800 -3.9755
3 3 -27 -118.2120 4.4966
3 3 -24 -95.8662 6.6136
3 3 -21 -148.8219 -2.6946
3 3 -18 -164.1520 -7.0641
3 3 -15 97.7001 1.6474
3 3 -12 -345.3399 8.9180
3 3 -9 -45.3816 2.3674
3 3 -6 20.4581 -6.7127
3 3 -3 249.1065 -3.2254
3 3 3 -90.9219 6.1062
3 3 6 109.9130 -4.3248
3 3 9 -412.9946 -7.0085
3 3 12 -129.9532 2.7908
3 3 15 -2.4929 6.1433
3 3 18 -137.5331 -0.9462
3 3 21 -7.8017 -5.2065
3 3 24 -79.5337 -1.3472
3 3 27 -134.1055 4.1394
3 3 30 17.3011 2.3640
3 3 33 25.1784 -3.6894
3 3 36 -18.2002 -3.0500
3 3 39 11.1059 2.4554
3 3 42 13.1675 3.0136
3 3 45 -7.0069 -1.5535
3 3 48 35.1677 -2.7059
3 3 51 -20.1057 0.6568
3 3 54 8.2580 2.6103
3 3 57 -2.9496 0.0537
3 3 60 3.0116 -2.0507
3 3 63 -7.3365 0.7312
3 4 -61 1.1918 0.5543
3 4 -58 0.4502 2.9643
3 4 -55 0.7908 0.6857
3 4 -52 2.5817 -2.4189
3 4 -49 1.5115 -1.5150
3 4 -46 20.6081 2.5878
3 4 -43 -8.3160 2.9219
3 4 -40 31.6623 -2.2519
3 4 -37 6.0363 -3.5915
3 4 -34 -17.4628 1.6447
3 4 -31 -5.4747 5.0230
3 4 -28 -49.4349 0.5163
3 4 -25 41.4859 -4.8649
3 4 -22 10.4595 -1.8865
3 4 -19 -81.1729 5.4743
3 4 -16 1.6806 3.8028
3 4 -13 -80.8462 -4.5152
3 4 -10 43.6458 -4.7153
3 4 -7 -240.1297 2.2200
3 4 -4 275.0078 3.9639
3 4 -1 -493.1067 -0.6940
3 4 2 424.2016 -6.3108
3 4 5 -387.3874 -2.5303
3 4 8 -77.8762 6.0033
3 4 11 105.5448 1.7458
3 4 14 83.2119 -5.9867
3 4 17 -94.6110 -2.7561
3 4 20 89.7339 3.6579
3 4 23 37.6870 3.3109
3 4 26 -10.2631 -1.6570
3 4 29 18.2609 -3.9551
3 4 32 -18.5065 0.7008
3 4 35 -45.6844 4.6207
3 4 38 14.9565 0.2848
3 4 41 -40.2728 -3.6632
3 4 44 -3.4023 -0.6663
3 4 47 -7.1459 2.9795
3 4 50 -5.0343 1.6106
3 4 53 1.8703 -1.4702
3 4 56 1.4778 -1.7802
3 4 59 -14.1888 1.2577
3 4 62 4.4989 1.2243
3 5 -62 2.5181 -0.2891
3 5 -59 1.7503 1.9983
3 5 -56 -10.1921 1.3357
3 5 -53 3.9381 -1.5561
3 5 -50 -6.2728 -2.4731
3 5 -47 47.3244 1.0509
3 5 -44 3.0100 3.3020
3 5 -41 40.3950 -0.0103
3 5 -38 -7.5029 -4.1154
3 5 -35 -4.3651 -1.1682
3 5 -32 22.1953 4.1966
3 5 -29 -8.5364 3.0758
3 5 -26 -67.6645 -3.0091
3 5 -23 4.1024 -4.3750
3 5 -20 -237.9655 1.9130
3 5 -17 125.5902 5.4388
3 5 -14 -216.5039 -0.2504
3 5 -11 -40.0935 -6.3861
3 5 -8 74.8356 -2.7146
3 5 -5 33.1774 4.9656
3 5 -2 -243.7049 3.2290
3 5 1 239.4180 -5.5000
3 5 4 -4.6893 -4.7873
3 5 7 101.6182 3.0096
3 5 10 1.6063 4.7573
3 5 13 150.9290 -0.6722
3 5 16 -60.4920 -5.1109
3 5 19 -128.5922 -1.1743
3 5 22 -164.0049 4.8338
3 5 25 -90.5919 2.1842
3 5 28 -27.7903 -4.0883
3 5 31 9.2545 -2.6383
3 5 34 -14.9206 2.5285
3 5 37 29.1365 2.9663
3 5 40 -24.9101 -1.0014
3 5 43 -6.8226 -2.7123
3 5 46 16.4905 -0.2634
3 5 49 12.3470 2.3726
3 5 52 -6.3289 0.6919
3 5 55 -12.1363 -1.0554
3 5 58 -1.6913 -0.4014
3 5 61 3.1218 1.5421
3 6 -63 -1.4677 0.6234
3 6 -60 2.4687 -1.4565
3 6 -57 -7.6421 0.8677
3 6 -54 14.6446 1.7054
3 6 -51 2.2758 -0.1759
3 6 -48 12.0746 -2.1731
3 6 -45 33.2216 -0.6090
3 6 -42 -19.3001 2.6012
3 6 -39 9.7697 1.6987
3 6 -36 -18.5835 -2.5099
3 6 -33 -63.6398 -2.3524
3 6 -30 -76.7834 2.1700
3 6 -27 -101.9798 2.8008
3 6 -24 -111.5634 -1.2833
3 6 -21 38.7938 -3.3877
3 6 -18 3.2195 -0.0466
3 6 -15 -60.5765 3.7532
3 6 -12 -61.7048 1.5169
3 6 -9 356.7233 -3.6808
3 6 -6 103.6022 -2.8960
3 6 -3 -174.2121 3.1306
3 6 0 282.5938 3.7737
3 6 3 -289.0308 -1.6487
3 6 6 356.7281 -3.4783
3 6 9 60.9270 1.3631
3 6 12 -25.7058 4.5106
3 6 15 160.7141 0.6442
3 6 18 -186.3164 -3.5783
3 6 21 -103.6230 -2.0514
3 6 24 -50.2283 3.4297
3 6 27 0.1958 3.2281
3 6 30 46.5954 -2.5231
3 6 33 -6.7754 -3.4850
3 6 36 -30.3102 1.7032
3 6 39 35.5910 3.5489
3 6 42 -1.9299 -0.1527
3 6 45 -0.9121 -2.6936
3 6 48 -17.0385 -0.6643
3 6 51 -16.5308 2.0702
3 6 54 -0.8443 1.4967
3 6 57 8.7265 -1.6634
3 6 60 -6.2081 -2.1246
3 6 63 -2.6042 1.4694
3 7 -61 3.9084 0.2344
3 7 -58 -2.8592 -0.2936
3 7 -55 -0.7046 -0.4764
3 7 -52 2.1661 0.1940
3 7 -49 -0.7900 0.9899
3 7 -46 -1.6121 0.1039
3 7 -43 8.8816 -1.1545
3 7 -40 -52.6537 -0.3643
3 7 -37 19.6535 1.6641
3 7 -34 -46.0708 1.5152
3 7 -31 -17.4852 -1.3935
3 7 -28 20.2482 -2.2369
3 7 -25 -57.7562 1.3893
3 7 -22 32.5364 2.4792
3 7 -19 116.3267 -1.1874
3 7 -16 -124.4660 -3.0807
3 7 -13 140.3748 0.0887
3 7 -10 -83.6149 2.3347
3 7 -7 -80.7309 -0.3810
3 7 -4 -43.7419 -3.6531
3 7 -1 -34.9439 -2.8530
3 7 2 25.0210 1.6663
3 7 5 44.1780 2.6223
3 7 8 15.2116 -2.2794
3 7 11 -141.9841 -3.4386
3 7 14 -92.3110 1.3356
3 7 17 4.0951 2.9275
3 7 20 -89.8008 -0.2920
3 7 23 86.0589 -1.8424
3 7 26 9.1787 -0.7483
3 7 29 26.6014 1.5781
3 7 32 2.0094 2.1056
3 7 35 17.7604 -1.1721
3 7 38 -4.4948 -2.3925
3 7 41 20.1026 0.6113
3 7 44 -8.1378 2.3958
3 7 47 -15.7666 -0.0249
3 7 50 -8.5716 -1.4675
3 7 53 -13.8300 -0.8696
3 7 56 -8.4076 1.4299
3 7 59 -1.6281 0.9118
3 7 62 11.0370 -0.9973
3 8 -62 -5.0262 0.3466
3 8 -59 -2.9104 0.4312
3 8 -56 -5.0479 -0.5824
3 8 -53 3.7810 -0.7908
3 8 -50 -2.3359 0.7741
3 8 -47 8.3503 0.9492
3 8 -44 -23.1976 -0.7797
3 8 -41 -2.5820 -1.5063
3 8 -38 -41.7720 0.1616
3 8 -35 29.6603 1.6160
3 8 -32 -69.9824 -0.1884
3 8 -29 -15.5217 -1.9928
3 8 -26 -105.1862 -0.4456
3 8 -23 33.7317 1.6444
3 8 -20 -95.7296 0.9490
3 8 -17 -11.2525 -1.3903
3 8 -14 136.8589 -1.6380
3 8 -11 39.4585 2.0759
3 8 -8 296.5119 2.8826
3 8 -5 -32.9789 -1.4473
3 8 -2 131.8654 -2.0046
3 8 1 185.3106 2.1152
3 8 4 -78.0714 3.1115
3 8 7 55.6064 0.0693
3 8 10 -10.4398 -2.1641
3 8 13 -153.2647 -0.3712
3 8 16 7.0921 2.4557
3 8 19 -106.4015 1.1963
3 8 22 -9.7752 -2.6713
3 8 25 126.7245 -1.6475
3 8 28 -76.6824 2.0752
3 8 31 -32.9168 1.3675
3 8 34 33.2620 -1.5397
3 8 37 -36.5400 -1.6531
3 8 40 1.6348 0.5994
3 8 43 27.0287 1.7771
3 8 46 -13.9321 -0.3550
3 8 49 13.9259 -1.8369
3 8 52 -16.1885 -0.2656
3 8 55 -6.8060 1.2736
3 8 58 9.7525 0.3461
3 8 61 -10.0561 -0.7943
3 9 -60 -2.7696 0.8933
3 9 -57 0.9462 1.7254
3 9 -54 -2.4111 -0.4415
3 9 -51 -5.5656 -2.0967
3 9 -48 -6.6352 -0.1710
3 9 -45 -1.4710 2.6853
3 9 -42 -44.3364 1.1600
3 9 -39 10.7020 -2.2580
3 9 -36 -14.6249 -2.2306
3 9 -33 -14.7122 1.7669
3 9 -30 -13.7298 2.7803
3 9 -27 8.9007 -1.5153
3 9 -24 88.5016 -3.3179
3 9 -21 120.7685 0.0740
3 9 -18 -150.5351 2.7337
3 9 -15 281.6083 0.7766
3 9 -12 97.6425 -2.7750
3 9 -9 200.9979 -3.2026
3 9 -6 2.8322 1.2525
3 9 -3 -100.5812 3.1738
3 9 0 181.2421 -1.0160
3 9 3 -193.8591 -3.5785
3 9 9 14.7763 2.6089
3 9 12 -125.7762 1.2659
3 9 15 100.4122 -2.0205
3 9 18 -33.6325 -2.5909
3 9 21 49.8744 1.2486
3 9 24 154.3220 3.2360
3 9 27 22.8001 -0.3239
3 9 30 -27.2780 -2.5704
3 9 33 83.4737 -0.0975
3 9 36 8.2864 2.1607
3 9 39 29.3128 1.0696
3 9 42 6.8739 -1.0046
3 9 45 -24.5537 -1.6494
3 9 48 13.6010 0.5381
3 9 51 -7.0087 1.4310
3 9 54 -0.9885 -0.7596
3 9 57 13.2222 -1.4222
3 9 60 -7.4456 -0.2291
3 10 -61 -2.5446 -0.7764
3 10 -58 2.2510 1.2038
3 10 -55 -2.1455 1.2841
3 10 -52 -6.4265 -0.2843
3 10 -49 3.7171 -1.8410
3 10 -46 3.4416 0.1595
3 10 -43 3.6481 2.0219
3 10 -40 -13.3675 0.2125
3 10 -37 46.4194 -2.1638
3 10 -34 -47.6031 -0.6838
3 10 -31 15.5527 2.1942
3 10 -28 -18.2154 1.6771
3 10 -25 38.4008 -1.6915
3 10 -22 41.5936 -2.2756
3 10 -19 -49.2342 1.4732
3 10 -16 -30.7279 3.1098
3 10 -13 206.0459 -0.1083
3 10 -10 -115.8086 -2.5717
3 10 -7 40.8513 -0.7419
3 10 -4 -79.4204 2.6841
3 10 -1 -142.8008 1.6545
3 10 2 35.1717 -2.2980
3 10 5 -135.0772 -1.8289
3 10 8 -71.6868 2.2948
3 10 11 144.4780 2.1836
3 10 14 -5.7672 -1.4303
3 10 17 46.9599 -2.0769
3 10 20 -16.0840 0.4924
3 10 23 9.9098 1.5520
3 10 26 -61.5409 -0.3708
3 10 29 -52.6372 -1.8314
3 10 32 -51.8982 -0.8437
3 10 35 -4.1656 1.1818
3 10 38 -15.5764 0.5562
3 10 41 -10.3287 -1.4964
3 10 44 -22.1381 -0.4416
3 10 47 0.5511 0.9984
3 10 50 -4.3640 0.6460
3 10 53 8.9953 -1.2096
3 10 56 5.8473 -0.3527
3 10 59 0.7267 0.5010
3 10 62 1.5636 -0.7333
3 11 -59 3.3806 0.5153
3 11 -56 -12.4566 -0.5696
3 11 -53 -0.5422 0.6513
3 11 -50 1.7258 1.0811
3 11 -47 0.5975 -0.2060
3 11 -44 -14.2844 -1.1636
3 11 -41 11.2852 0.0946
3 11 -38 -24.3165 1.3619
3 11 -35 23.1341 0.5527
3 11 -32 -51.7657 -1.4337
3 11 -29 -0.3607 -1.0258
3 11 -26 26.5888 1.1886
3 11 -23 60.3422 1.6089
3 11 -20 -42.8639 -0.8585
3 11 -17 282.6917 -2.3792
3 11 -14 123.5308 0.4706
3 11 -11 -39.4510 2.9705
3 11 -8 110.6325 -0.1549
3 11 -5 -178.4673 -2.6813
3 11 -2 -28.6466 0.0686
3 11 1 110.2080 2.5609
3 11 4 -118.1967 1.3778
3 11 7 82.2542 -1.6093
3 11 10 3.1680 -2.3269
3 11 13 -145.0049 1.1252
3 11 16 96.9206 2.6938
3 11 19 7.1436 -0.6601
3 11 22 -40.3813 -2.2027
3 11 25 13.1307 0.2766
3 11 28 -19.1175 1.6823
3 11 31 29.5181 0.7092
3 11 34 50.9569 -0.8701
3 11 37 33.8009 -1.1405
3 11 40 2.9301 0.6683
3 11 43 19.0081 1.4070
3 11 46 -5.5887 -0.2442
3 11 49 -5.2262 -1.3039
3 11 52 4.1648 0.9048
3 11 55 -17.4649 1.0926
3 11 58 4.2537 0.2312
3 11 61 -3.3664 -0.5903
3 12 -60 2.1733 0.8629
3 12 -57 3.6345 -1.2583
3 12 -54 7.9294 -0.9613
3 12 -51 -3.5611 1.1010
3 12 -48 7.5032 1.5528
3 12 -45 1.7977 -0.6763
3 12 -42 18.5042 -1.7635
3 12 -39 22.5195 0.1758
3 12 -36 -22.4420 2.5302
3 12 -33 28.3878 0.8385
3 12 -30 -0.7269 -2.3081
3 12 -27 55.3510 -1.5153
3 12 -24 68.3212 2.2589
3 12 -21 -23.0494 2.4259
3 12 -18 69.1803 -1.3588
3 12 -15 119.5311 -2.9295
3 12 -12 -89.0617 0.6940
3 12 -9 -98.5458 3.2541
3 12 -6 -21.1013 0.0877
3 12 -3 -128.2039 -3.3299
3 12 0 51.1624 -1.5157
3 12 3 -174.7810 2.2616
3 12 6 73.4551 1.8569
3 12 9 175.0414 -1.7963
3 12 12 42.9360 -2.8625
3 12 15 45.2416 0.2312
3 12 18 48.3603 2.4528
3 12 21 -5.0406 0.6549
3 12 24 -26.3634 -2.0877
3 12 27 -11.4464 -1.0875
3 12 30 19.3459 1.5667
3 12 33 12.8183 1.3964
3 12 36 16.9168 -0.8438
3 12 39 -33.9814 -1.2881
3 12 42 -2.0854 -0.1114
3 12 45 -1.9230 1.1263
3 12 48 -6.3648 0.2441
3 12 51 -2.9758 -0.6238
3 12 54 1.9369 -0.7255
3 12 57 -2.2544 0.4458
3 12 60 7.1130 1.3022
3 13 -58 -3.1139 1.1096
3 13 -55 -0.0661 -0.4140
3 13 -52 -7.2766 -1.6274
3 13 -49 5.3317 -0.3605
3 13 -46 2.9123 1.9746
3 13 -43 -4.3935 0.6791
3 13 -40 1.7470 -1.9293
3 13 -37 7.5041 -1.4002
3 13 -34 -32.9108 1.7699
3 13 -31 69.4751 2.2308
3 13 -28 -21.0919 -1.2906
3 13 -25 14.6752 -3.2010
3 13 -22 7.4693 0.4683
3 13 -19 9.6386 3.3196
3 13 -16 -11.4382 0.2030
3 13 -13 180.0406 -2.8442
3 13 -10 -296.2457 -0.4214
3 13 -7 -31.5629 2.7794
3 13 -4 42.2342 2.2069
3 13 -1 -117.1925 -1.7427
3 13 2 21.4895 -2.5821
3 13 5 104.2092 1.5444
3 13 8 -45.4584 3.2431
3 13 11 192.6368 -0.4069
3 13 14 -98.7523 -2.8400
3 13 17 -67.9748 -0.1530
3 13 20 55.2841 2.5056
3 13 23 -92.3865 1.0653
3 13 26 -27.0628 -2.2970
3 13 29 60.1069 -1.8949
3 13 32 -50.9733 1.6485
3 13 35 73.1014 1.9563
3 13 38 -40.2014 -1.1610
3 13 41 -11.4429 -2.0616
3 13 44 13.1046 0.7361
3 13 47 8.4326 1.7325
3 13 50 -1.7849 -0.5078
3 13 53 2.6907 -1.4890
3 13 56 -2.7871 -0.1063
3 13 59 -9.6919 0.9316
3 14 -59 -2.7114 -0.7568
3 14 -56 7.8158 0.6268
3 14 -53 2.6101 -0.4604
3 14 -50 -2.9739 -0.5151
3 14 -47 4.0451 0.4523
3 14 -44 5.6360 0.7712
3 14 -41 13.8243 0.1374
3 14 -38 12.4222 -0.7461
3 14 -35 35.2186 -0.6135
3 14 -32 -16.0791 1.2243
3 14 -29 25.7652 1.2403
3 14 -26 7.4231 -0.9978
3 14 -23 55.9189 -1.5905
3 14 -20 23.1411 0.4600
3 14 -17 18.4640 1.4586
3 14 -14 -0.5741 -0.0173
3 14 -11 -78.9518 -1.8811
3 14 -8 77.3751 -1.4852
3 14 -5 11.0703 1.3337
3 14 -2 87.4791 1.7836
3 14 1 31.1167 -1.5982
3 14 4 65.8706 -2.6949
3 14 7 -1.9621 0.3413
3 14 10 47.8256 2.1541
3 14 13 9.3981 0.0944
3 14 16 22.3188 -2.3706
3 14 19 0.4540 -0.9611
3 14 22 37.8300 1.7461
3 14 25 20.4267 1.3996
3 14 28 61.7519 -1.0918
3 14 31 -16.8940 -1.5868
3 14 34 14.3916 0.6513
3 14 37 -7.2370 1.8252
3 14 40 -11.6569 0.3222
3 14 43 11.3132 -1.5272
3 14 46 10.7344 -0.5594
3 14 49 5.0877 1.1792
3 14 52 7.3538 0.7378
3 14 55 2.9203 -0.4402
3 14 58 9.0881 -1.0474
3 15 -57 -1.3124 -0.4482
3 15 -54 -7.9458 0.7946
3 15 -51 -1.6466 0.1396
3 15 -48 11.7725 -0.4068
3 15 -45 14.6059 -0.8802
3 15 -42 29.7779 0.3242
3 15 -39 -18.7481 1.3612
3 15 -36 45.3180 -0.3019
3 15 -33 5.5538 -1.6091
3 15 -30 6.1263 0.0779
3 15 -27 6.5401 1.6799
3 15 -24 23.5511 0.0905
3 15 -21 -62.3810 -1.6722
3 15 -18 14.1265 -0.7170
3 15 -15 -77.0731 1.9535
3 15 -12 -93.9291 2.0402
3 15 -9 -23.1750 -1.1683
3 15 -6 -43.3915 -1.9805
3 15 -3 -24.1609 1.2221
3 15 0 3.9580 2.2613
3 15 3 106.0178 -0.2841
3 15 6 15.3581 -1.5696
3 15 9 9.7928 0.0319
3 15 12 2.2161 1.8358
3 15 15 -67.7019 0.5811
3 15 18 44.3572 -1.8000
3 15 21 -65.8319 -1.0278
3 15 24 48.5259 1.6659
3 15 27 -24.0357 1.0023
3 15 30 25.9236 -1.3505
3 15 33 -44.7096 -1.1983
3 15 36 -2.5973 0.6806
3 15 39 -11.9297 1.0487
3 15 42 3.5104 -0.7960
3 15 45 -13.5059 -1.2270
3 15 48 14.7412 0.2873
3 15 51 -8.1991 0.9835
3 15 54 -4.1399 -0.3351
3 15 57 -7.2539 -0.1101
3 16 -58 0.8807 1.5253
3 16 -55 1.9048 -1.4444
3 16 -52 12.2859 -0.1913
3 16 -49 2.4454 0.8074
3 16 -46 13.9495 0.6261
3 16 -43 10.9247 -1.3264
3 16 -40 10.2277 -0.5625
3 16 -37 11.8363 0.8982
3 16 -34 -52.3764 0.9625
3 16 -31 -2.2743 -0.7861
3 16 -28 -64.0147 -1.4816
3 16 -25 -12.9746 0.0091
3 16 -22 7.6654 1.6353
3 16 -19 -24.7346 -0.1773
3 16 -16 0.3466 -1.7981
3 16 -13 55.1221 -0.0256
3 16 -10 -145.6472 1.9536
3 16 -7 141.1077 0.4301
3 16 -4 110.6343 -1.6235
3 16 -1 -60.5675 -0.9861
3 16 2 122.7870 1.1070
3 16 5 44.3146 1.2671
3 16 8 -59.2613 -0.8885
3 16 11 110.2598 -1.6050
3 16 14 -138.6228 0.4168
3 16 17 24.4504 1.4525
3 16 20 -1.3597 -0.0287
3 16 23 -62.6674 -1.5842
3 16 26 25.6272 -0.6817
3 16 29 18.5525 1.3394
3 16 32 -53.4124 1.1853
3 16 35 3.7648 -0.9859
3 16 38 -2.3617 -0.9617
3 16 41 32.5897 0.9335
3 16 44 6.5723 1.2040
3 16 47 11.2568 -0.2352
3 16 50 -10.0149 -1.0190
3 16 53 0.1572 0.0407
3 16 56 -0.0658 0.6636
3 16 59 -1.0299 -0.1978
3 17 -56 8.7500 -0.4711
3 17 -53 -11.0392 -0.8797
3 17 -50 4.5920 0.9125
3 17 -47 14.2875 0.5730
3 17 -44 18.2545 -0.3191
3 17 -41 -1.0002 -1.1841
3 17 -38 10.2578 0.2862
3 17 -35 -32.4945 1.6625
3 17 -32 -6.3073 0.0936
3 17 -29 48.5888 -1.4939
3 17 -26 -0.8524 -0.4504
3 17 -23 -6.5814 1.4833
3 17 -20 18.6696 1.1704
3 17 -17 -41.1899 -1.1268
3 17 -14 59.7446 -1.1273
3 17 -11 -29.7684 1.1188
3 17 -8 -23.2825 1.3774
3 17 -5 38.3438 -0.5559
3 17 -2 -12.0235 -1.3720
3 17 1 -14.8886 -0.2158
3 17 4 5.9773 1.1504
3 17 7 91.1771 0.4302
3 17 10 29.8430 -1.2000
3 17 13 -32.3143 -0.5898
3 17 16 28.5730 0.8676
3 17 19 -15.2905 0.3770
3 17 22 5.7684 -0.8232
3 17 25 -49.7478 -0.7541
3 17 28 -38.5826 0.4440
3 17 31 21.7400 0.2386
3 17 34 -4.6450 -0.5870
3 17 37 18.5650 -0.5459
3 17 40 6.1243 0.3474
3 17 43 -2.3491 0.4107
3 17 46 -1.8732 -0.5522
3 17 49 -14.4989 -0.3372
3 17 52 -2.5465 0.3916
3 17 55 1.6726 0.3417
3 17 58 2.5584 -2.2282
3 18 -57 -4.2062 0.4297
3 18 -54 9.7548 0.2034
3 18 -51 1.2879 -0.8948
3 18 -48 10.1964 -0.6780
3 18 -45 -0.4581 0.7091
3 18 -42 -15.4412 0.8883
3 18 -39 -27.8868 -1.0702
3 18 -36 6.8564 -1.3198
3 18 -33 -61.0954 0.8706
3 18 -30 0.6373 1.8252
3 18 -27 -27.2180 -0.4562
3 18 -24 -41.9746 -2.2921
3 18 -21 -27.4550 -0.1969
3 18 -18 60.0794 2.2793
3 18 -15 -116.2208 0.7214
3 18 -12 112.0712 -1.6692
3 18 -9 -48.3452 -1.2318
3 18 -6 78.5512 1.2907
3 18 -3 102.0218 1.9374
3 18 0 21.9830 -0.7929
3 18 3 -32.6621 -2.1793
3 18 6 53.9847 0.4456
3 18 9 -59.7396 2.4286
3 18 12 -4.6753 0.1517
3 18 15 -20.8815 -2.4498
3 18 18 -17.2928 -0.6883
3 18 21 -44.6899 2.2151
3 18 24 68.1967 1.1813
3 18 27 -112.9149 -1.7660
3 18 30 57.5101 -1.4968
3 18 33 -17.8907 1.0526
3 18 36 -3.9584 1.5843
3 18 39 4.5272 -0.6451
3 18 42 1.7491 -1.7153
3 18 45 -2.4219 0.2254
3 18 48 5.5050 1.7793
3 18 51 -6.7569 0.0622
3 18 54 -1.6013 -0.6701
3 18 57 -5.7239 0.5572
3 19 -55 8.5612 -0.8061
3 19 -52 5.2630 -0.3441
3 19 -49 -14.1005 -0.1426
3 19 -46 -4.2517 0.4186
3 19 -43 -0.2798 0.1143
3 19 -40 -5.2176 0.1134
3 19 -37 -25.1779 -0.7036
3 19 -34 -7.2030 0.1051
3 19 -31 10.2540 0.9355
3 19 -28 9.3545 0.2999
3 19 -25 21.8156 -0.7191
3 19 -22 -5.0759 -0.3463
3 19 -19 19.9987 0.3924
3 19 -16 -13.3880 0.6741
3 19 -13 54.9684 0.0234
3 19 -10 -46.5868 -0.8932
3 19 -7 92.7399 -0.1692
3 19 -4 -16.9334 0.7946
3 19 -1 -54.0494 0.1315
3 19 2 34.3302 -1.1646
3 19 5 10.2052 -0.6640
3 19 8 -64.7222 0.3360
3 19 11 8.2526 0.6249
3 19 14 -62.1557 -0.2037
3 19 17 36.5321 -0.8293
3 19 20 13.3728 0.1436
3 19 23 19.2151 0.2200
3 19 26 8.1305 -0.0663
3 19 29 -7.1173 -0.0469
3 19 32 2.9403 -0.2178
3 19 35 4.5964 0.0424
3 19 38 8.9211 0.1362
3 19 41 12.2648 0.1752
3 19 44 -15.6993 0.0638
3 19 47 9.5355 -0.4462
3 19 50 3.5479 -0.2649
3 19 53 -0.6687 0.0273
3 19 56 5.5498 1.7548
3 20 -56 11.6877 -0.3256
3 20 -53 -8.3721 0.1215
3 20 -50 11.5009 1.0111
3 20 -47 -12.7961 -0.5820
3 20 -44 -0.1525 -1.2125
3 20 -41 -10.2323 0.0393
3 20 -38 -27.7801 1.7976
3 20 -35 5.4445 0.3330
3 20 -32 14.8850 -1.6543
3 20 -29 -21.8164 -0.7468
3 20 -26 -36.1127 1.6658
3 20 -23 -13.3257 1.4776
3 20 -20 0.9426 -1.3437
3 20 -17 20.9679 -2.1323
3 20 -14 49.8915 0.8305
3 20 -11 -33.9786 2.8561
3 20 -8 133.7031 -0.0893
3 20 -5 10.4434 -2.9313
3 20 -2 12.2542 -0.4656
3 20 1 31.8824 2.9339
3 20 4 27.3343 1.5445
3 20 7 -25.1532 -2.1658
3 20 10 -52.4297 -1.4632
3 20 13 -2.1489 1.6836
3 20 16 3.9640 1.9252
3 20 19 -11.8449 -0.8679
3 20 22 -34.5481 -1.9857
3 20 25 21.6551 0.1639
3 20 28 19.2468 2.0862
3 20 31 31.7137 0.2137
3 20 34 -17.8232 -2.0466
3 20 37 -9.6322 -0.5503
3 20 40 -7.5873 1.5743
3 20 43 -7.0900 0.8234
3 20 46 -10.2216 -1.2444
3 20 49 5.0600 -0.7620
3 20 52 1.8467 -0.2254
3 20 55 0.0194 -0.0602
3 21 -54 -1.6928 0.1083
3 21 -51 -13.7417 -0.3603
3 21 -48 10.4596 0.0848
3 21 -45 -18.4251 -0.0025
3 21 -42 11.9702 -0.0995
3 21 -39 -15.8211 -0.4179
3 21 -36 9.1731 0.5947
3 21 -33 -25.7310 0.6479
3 21 -30 29.4958 -0.3510
3 21 -27 -19.1375 -0.6410
3 21 -24 0.0323 0.1318
3 21 -21 58.6806 0.7082
3 21 -18 58.0185 -0.0621
3 21 -15 -52.1346 -0.7849
3 21 -12 98.2341 -0.2035
3 21 -9 -9.4683 0.6417
3 21 -6 7.9457 0.5185
3 21 -3 -46.0999 -0.7916
3 21 0 -66.5505 -1.0209
3 21 3 -16.7528 0.3807
3 21 6 63.3765 0.8508
3 21 9 -35.4633 -0.3496
3 21 12 66.0582 -1.1257
3 21 15 -22.4963 -0.5105
3 21 18 49.4124 0.8645
3 21 21 -59.7771 0.9616
3 21 24 29.6724 -1.0708
3 21 27 -34.0217 -1.2168
3 21 30 17.0773 0.7459
3 21 33 -9.0473 1.2322
3 21 36 3.8866 -0.1750
3 21 39 3.5456 -1.1177
3 21 42 8.1005 0.0096
3 21 45 -3.8973 1.5424
3 21 48 11.2562 0.8922
3 21 51 2.8126 -1.2706
3 21 54 10.8826 -1.0732
3 22 -52 -1.8707 -1.1949
3 22 -49 -4.6798 0.6438
3 22 -46 8.3750 1.5787
3 22 -43 -0.5955 0.3045
3 22 -40 -7.2390 -1.4849
3 22 -37 -8.6938 -1.0213
3 22 -34 16.5374 1.6735
3 22 -31 -10.3120 1.3546
3 22 -28 8.4663 -1.0520
3 22 -25 -15.3850 -1.8693
3 22 -22 -1.6598 0.6968
3 22 -19 50.9496 2.2597
3 22 -16 -10.9113 -0.1603
3 22 -13 8.9812 -2.4408
3 22 -10 23.7854 -0.6418
3 22 -7 -19.8010 2.4609
3 22 -4 4.0488 0.9817
3 22 -1 -30.1059 -1.8711
3 22 2 19.2681 -1.5976
3 22 5 -28.3786 1.1145
3 22 8 -23.6400 1.9255
3 22 11 5.1026 -0.3689
3 22 14 -51.2861 -1.8043
3 22 17 44.3674 -0.0872
3 22 20 -22.4450 1.6649
3 22 23 -37.1033 0.4779
3 22 26 19.0891 -1.3761
3 22 29 -10.5635 -0.5402
3 22 32 -8.0372 0.7709
3 22 35 17.6938 0.6244
3 22 38 -16.9296 -0.5660
3 22 41 10.7682 -0.6949
3 22 44 0.7907 -0.1551
3 22 47 -3.9186 0.3647
3 22 50 -10.2836 0.6023
3 22 53 1.5289 0.8845
3 23 -53 -4.8908 -0.2215
3 23 -50 8.5254 -0.2119
3 23 -47 -14.8696 -0.9281
3 23 -44 2.3725 0.5181
3 23 -41 5.9826 0.4086
3 23 -38 -15.8828 -0.2755
3 23 -35 30.4870 -1.0880
3 23 -32 -7.6702 0.1335
3 23 -29 -17.5729 1.1361
3 23 -26 45.7834 -0.0038
3 23 -23 59.1163 -1.5828
3 23 -20 -0.8154 -1.0159
3 23 -17 58.8382 1.5639
3 23 -14 -33.4617 1.5647
3 23 -11 -5.9191 -1.2251
3 23 -8 18.4211 -1.8211
3 23 -5 -104.7274 0.8503
3 23 -2 16.6153 2.0566
3 23 1 -1.9647 -0.0309
3 23 4 -25.1365 -2.0550
3 23 7 36.0779 -0.5325
3 23 10 33.6960 2.4571
3 23 13 21.1695 1.3775
3 23 16 32.7942 -2.1401
3 23 19 15.1126 -1.7238
3 23 22 16.8303 1.6002
3 23 25 49.0472 2.0609
3 23 28 -27.7547 -0.9237
3 23 31 -22.0664 -1.9707
3 23 34 -11.0690 0.1896
3 23 37 4.3323 2.1582
3 23 40 -15.9125 0.2625
3 23 43 22.0673 -2.0073
3 23 46 -11.2723 -1.1027
3 23 49 12.9413 1.6363
3 23 52 3.9706 0.2918
3 24 -51 2.2658 -0.1343
3 24 -48 14.2456 -0.8069
3 24 -45 -8.5358 0.1974
3 24 -42 13.3199 1.0546
3 24 -39 -3.8920 0.0827
3 24 -36 -11.6383 -0.8959
3 24 -33 4.6616 -0.7220
3 24 -30 2.3096 0.5958
3 24 -27 -20.2065 1.0832
3 24 -24 36.0649 -0.3970
3 24 -21 16.9492 -1.1671
3 24 -18 -33.9550 0.1383
3 24 -15 -15.9564 1.0311
3 24 -12 29.9116 0.2102
3 24 -9 -54.5586 -0.7397
3 24 -6 -0.3685 -0.6619
3 24 -3 12.8935 0.5254
3 24 0 55.6963 0.9108
3 24 3 42.3059 -0.6538
3 24 6 18.4637 -0.9511
3 24 9 -49.1230 0.3786
3 24 12 21.1956 0.4545
3 24 15 -58.0416 -0.2102
3 24 18 0.8270 -0.0258
3 24 21 -31.5292 -0.0117
3 24 24 17.1034 -0.1081
3 24 27 10.8343 0.0613
3 24 30 4.2904 0.2028
3 24 33 7.3130 -0.1314
3 24 36 23.9499 -0.2316
3 24 39 -14.3641 -0.5446
3 24 42 6.8720 0.1808
3 24 45 5.1457 0.1749
3 24 48 3.9097 -0.7281
3 24 51 -0.6771 -1.4730
3 25 -49 0.9418 0.9056
3 25 -46 8.1512 -0.3833
3 25 -43 -7.4520 -1.3320
3 25 -40 3.2352 -0.6902
3 25 -37 18.2679 1.1852
3 25 -34 -5.3872 1.0322
3 25 -31 16.6986 -1.7047
3 25 -28 14.1631 -1.5557
3 25 -25 2.3355 1.0909
3 25 -22 13.9029 1.8700
3 25 -19 3.4190 -1.0116
3 25 -16 -58.3828 -2.1834
3 25 -13 28.1850 0.4061
3 25 -10 -29.4474 2.7262
3 25 -7 18.6839 0.4285
3 25 -4 -2.2381 -2.5960
3 25 -1 -42.5575 -0.9627
3 25 2 21.9700 2.4383
3 25 5 -5.2324 1.4290
3 25 8 -44.9967 -1.9470
3 25 11 59.3285 -1.6142
3 25 14 10.2459 1.2688
3 25 17 9.6869 2.0075
3 25 20 49.7511 -0.7936
3 25 23 -39.0296 -1.9270
3 25 26 41.7880 -0.0816
3 25 29 -4.4641 1.8904
3 25 32 -22.5704 0.0987
3 25 35 -3.3707 -1.4535
3 25 38 -11.4222 -0.5193
3 25 41 -12.8881 1.6189
3 25 44 -9.2471 0.8815
3 25 47 -5.7499 -1.2416
3 25 50 -0.9292 0.5026
3 26 -50 3.3286 0.5552
3 26 -47 -1.2979 -1.1524
3 26 -44 14.4598 -0.0878
3 26 -41 -1.6539 -0.3120
3 26 -38 -7.4744 0.1948
3 26 -35 6.1016 0.2643
3 26 -32 -10.7958 0.0844
3 26 -29 12.3110 -0.2576
3 26 -26 21.2172 -0.2374
3 26 -23 -21.4079 0.0523
3 26 -20 -23.2504 0.2869
3 26 -17 24.6659 -0.1345
3 26 -14 -19.6292 -0.4938
3 26 -11 27.2076 -0.0206
3 26 -8 48.0519 0.2546
3 26 -5 8.9249 0.0048
3 26 -2 39.3073 -0.3395
3 26 1 43.7311 -0.0723
3 26 4 20.0067 -0.1858
3 26 7 25.6685 0.1354
3 26 10 9.7949 0.5648
3 26 13 19.7561 -0.4919
3 26 16 -15.3182 -0.7535
3 26 19 11.7489 0.1584
3 26 22 -42.3855 0.3392
3 26 25 -28.2575 0.0702
3 26 28 -11.1130 -0.2698
3 26 31 -4.1887 -0.2660
3 26 34 0.5410 0.3162
3 26 37 15.8099 0.6632
3 26 40 2.4000 -0.4459
3 26 43 4.8288 -0.5641
3 26 46 12.6055 0.3599
3 26 49 -0.4831 1.0227
3 27 -48 7.9098 -0.2078
3 27 -45 2.2927 1.4427
3 27 -42 8.8218 0.4245
3 27 -39 -6.8575 -1.8315
3 27 -36 -1.4189 -1.1847
3 27 -33 24.3755 1.4885
3 27 -30 7.1993 1.9218
3 27 -27 -1.3120 -1.1344
3 27 -24 20.2249 -2.0126
3 27 -21 0.2814 0.3626
3 27 -18 -2.1068 2.1868
3 27 -15 8.6920 0.4626
3 27 -12 1.7161 -2.2546
3 27 -9 -19.5691 -1.1743
3 27 -6 9.5240 2.0410
3 27 -3 -28.8681 1.7262
3 27 0 -12.5096 -1.7392
3 27 3 -15.9693 -1.9913
3 27 6 -32.3014 1.0111
3 27 9 15.1565 2.2752
3 27 12 18.2606 -0.1663
3 27 15 -0.8491 -2.2278
3 27 18 20.8655 -0.5765
3 27 21 11.0197 1.7001
3 27 24 10.0820 0.7832
3 27 27 -5.7473 -1.1823
3 27 30 -5.7653 -0.6429
3 27 33 -13.5801 0.6485
3 27 36 -11.4500 0.6855
3 27 39 -6.4766 -0.5023
3 27 42 -15.4000 -1.3312
3 27 45 2.0080 0.7945
3 27 48 -7.5362 -0.8703
3 28 -46 4.8273 0.2087
3 28 -43 -14.9244 -0.0465
3 28 -40 -1.2330 0.4314
3 28 -37 -4.7364 -0.0849
3 28 -34 -17.8228 -0.1925
3 28 -31 17.4427 -0.2323
3 28 -28 -18.0997 0.3461
3 28 -25 -14.2594 0.2461
3 28 -22 8.9348 -0.5794
3 28 -19 -24.5422 -0.5509
3 28 -16 -25.4601 0.3551
3 28 -13 53.6446 0.4899
3 28 -10 -31.0017 -0.3828
3 28 -7 7.8851 -0.8064
3 28 -4 -5.4403 -0.0044
3 28 -1 8.9321 1.0310
3 28 2 47.4955 0.4607
3 28 5 43.7447 -1.3990
3 28 8 9.3426 -0.6803
3 28 11 52.1401 1.2112
3 28 14 -21.6661 0.5908
3 28 17 -33.9852 -0.6233
3 28 20 0.8962 -0.5536
3 28 23 -42.8191 0.4981
3 28 26 0.7436 0.9958
3 28 29 -22.0100 -0.1165
3 28 32 -10.2456 -1.2198
3 28 35 -5.5151 -0.2721
3 28 38 3.7871 1.2983
3 28 41 -9.7428 0.1047
3 28 44 8.0474 -0.7058
3 28 47 6.5247 -0.5358
3 29 -44 -4.2875 -0.1929
3 29 -41 -14.8378 0.7758
3 29 -38 0.7122 0.8699
3 29 -35 -3.3123 -0.6142
3 29 -32 -12.6614 -0.8464
3 29 -29 7.4499 -0.0519
3 29 -26 -3.4927 1.3046
3 29 -23 -5.2777 0.2759
3 29 -20 18.5620 -1.1806
3 29 -17 15.7044 -0.6274
3 29 -14 -7.0856 0.7985
3 29 -11 32.8742 0.8827
3 29 -8 -34.1820 -0.6696
3 29 -5 -5.5119 -1.1443
3 29 -2 38.9583 0.0616
3 29 1 -5.6465 0.9710
3 29 4 0.6786 0.5595
3 29 7 14.3602 -0.9200
3 29 10 -17.5898 -0.6300
3 29 13 30.8263 0.4918
3 29 16 -27.6962 0.7084
3 29 19 -4.3083 -0.3129
3 29 22 17.3410 -0.6201
3 29 25 11.9414 0.0968
3 29 28 16.5262 0.5068
3 29 31 11.9842 0.6273
3 29 34 10.0643 -0.4267
3 29 37 4.5871 -0.5357
3 29 40 -6.8257 0.4823
3 29 43 1.9846 -0.4179
3 29 46 -3.8365 1.9693
3 30 -42 -11.2916 0.2997
3 30 -39 -7.3094 -0.9972
3 30 -36 13.8400 1.1979
3 30 -33 1.7473 0.6805
3 30 -30 -16.5990 -0.4762
3 30 -27 12.7013 -0.9828
3 30 -24 -30.9834 0.2185
3 30 -21 -6.2737 1.4202
3 30 -18 -18.5193 0.1741
3 30 -15 -12.7183 -1.5555
3 30 -12 2.9199 -0.6850
3 30 -9 -22.0466 1.9103
3 30 -6 15.6850 0.8428
3 30 -3 22.4518 -1.4588
3 30 0 24.1294 -1.1197
3 30 3 9.7458 1.0704
3 30 6 21.6122 1.1725
3 30 9 -2.1880 -0.4449
3 30 12 2.9596 -1.4014
3 30 15 2.0546 0.1318
3 30 18 -30.0490 1.4001
3 30 21 20.4308 0.0361
3 30 24 -7.7027 -1.4323
3 30 27 -14.6669 -0.7557
3 30 30 10.5196 1.3704
3 30 33 -8.3354 0.8574
3 30 36 -5.5594 -1.2228
3 30 39 4.3951 -0.3395
3 30 42 -5.2770 0.7594
3 31 -43 -7.7883 0.4444
3 31 -40 0.1698 -0.2701
3 31 -37 -5.6902 0.0745
3 31 -34 8.5709 1.2650
3 31 -31 1.9605 0.1585
3 31 -28 -8.1945 -0.5351
3 31 -25 1.8902 -0.4800
3 31 -22 -0.7839 0.3800
3 31 -19 -13.9575 1.0480
3 31 -16 11.8752 -0.0439
3 31 -13 24.0929 -0.7396
3 31 -10 -20.3989 -0.2821
3 31 -7 36.6593 0.7418
3 31 -4 24.3650 0.5530
3 31 -1 8.6090 -0.7727
3 31 2 6.0645 -0.8248
3 31 5 -5.8210 0.0591
3 31 8 -33.4177 1.0037
3 31 11 -2.5851 0.0575
3 31 14 -3.1749 -0.7784
3 31 17 -2.2859 -0.2365
3 31 20 32.2297 0.7355
3 31 23 4.1934 0.5007
3 31 26 0.2930 -0.0518
3 31 29 -1.1101 -0.9529
3 31 32 -15.3168 0.2567
3 31 35 6.6504 1.6537
3 31 38 -7.3396 -0.0992
3 31 41 -6.0904 -0.3640
3 32 -41 3.7512 0.4276
3 32 -38 13.8500 0.1282
3 32 -35 -1.9485 -1.6420
3 32 -32 14.1045 0.9323
3 32 -29 -0.2235 1.5137
3 32 -26 9.4686 0.1993
3 32 -23 -10.6811 -1.2121
3 32 -20 2.3970 -0.6897
3 32 -17 19.3211 1.7920
3 32 -14 -16.9880 1.4265
3 32 -11 7.3771 -1.5008
3 32 -8 -6.7467 -1.5815
3 32 -5 7.2209 1.1880
3 32 -2 21.1114 1.9096
3 32 1 -28.8517 -0.4827
3 32 4 17.1387 -1.8962
3 32 7 7.2070 0.3554
3 32 10 -3.0892 1.9690
3 32 13 3.2044 0.1296
3 32 16 1.2224 -1.5840
3 32 19 12.6938 -0.3620
3 32 22 13.3108 1.2218
3 32 25 -1.3149 1.1991
3 32 28 12.9494 -0.9105
3 32 31 6.5034 -1.4747
3 32 34 1.7639 0.6453
3 32 37 -12.2089 -0.4392
3 32 40 1.7536 -0.2084
3 33 -39 -7.6162 0.4916
3 33 -36 8.0505 0.5655
3 33 -33 -19.7907 -0.3297
3 33 -30 -2.1748 0.4603
3 33 -27 7.6521 -0.2505
3 33 -24 -20.4539 0.3060
3 33 -21 10.2203 -0.0286
3 33 -18 15.9224 -0.5601
3 33 -15 0.5299 0.3536
3 33 -12 20.6694 0.5506
3 33 -9 -2.8019 -0.1915
3 33 -6 9.8828 -0.5083
3 33 -3 5.4692 -0.0580
3 33 0 -12.9545 0.4606
3 33 3 -25.1541 -0.1247
3 33 6 10.3041 -0.4222
3 33 9 1.5367 -0.4583
3 33 12 13.7490 -0.1481
3 33 15 13.2401 0.1948
3 33 18 -7.1830 0.2575
3 33 21 -4.0881 -0.7556
3 33 24 -4.8846 -0.2482
3 33 27 -0.8348 0.5464
3 33 30 -6.1897 -0.1525
3 33 33 0.9619 -0.2197
3 33 36 2.4279 -0.5152
3 33 39 1.7191 0.3589
3 34 -37 4.9016 0.7056
3 34 -34 1.1170 0.5886
3 34 -31 -16.2941 -1.9150
3 34 -28 4.8099 -0.3420
3 34 -25 8.0144 1.5053
3 34 -22 -1.1967 1.1914
3 34 -19 17.5080 -1.0046
3 34 -16 0.2361 -1.5165
3 34 -13 11.1291 0.1478
3 34 -10 -23.0624 1.5252
3 34 -7 9.1216 0.1749
3 34 -4 -15.9878 -1.6756
3 34 -1 -2.3460 -0.3034
3 34 2 -15.7267 1.3927
3 34 5 4.0830 0.7906
3 34 8 20.4854 -1.0481
3 34 11 8.7302 -0.8421
3 34 14 10.9486 0.8290
3 34 17 2.4816 1.1507
3 34 20 -9.2100 -0.4119
3 34 23 -6.5671 -1.2819
3 34 26 -5.3076 -0.5194
3 34 29 1.3202 1.2022
3 34 32 -2.4582 -0.4336
3 34 35 13.2502 -0.4226
3 35 -35 -9.7233 0.7341
3 35 -32 11.6648 0.5563
3 35 -29 -14.7967 0.3241
3 35 -26 9.7677 -1.1780
3 35 -23 -6.3649 0.0846
3 35 -20 0.2710 1.0423
3 35 -17 2.3724 0.8718
3 35 -14 -17.5492 -1.0440
3 35 -11 9.6982 -0.6168
3 35 -8 -6.2910 0.6399
3 35 -5 0.9865 0.9533
3 35 -2 9.3751 -0.2693
3 35 1 -8.4865 -1.0317
3 35 4 12.7540 -0.1447
3 35 7 16.6100 1.1297
3 35 10 -10.6958 0.4468
3 35 13 1.3563 -0.9525
3 35 16 5.0792 -0.6608
3 35 19 -6.2924 1.3556
3 35 22 18.5527 0.8422
3 35 25 10.8937 -1.0555
3 35 28 8.0716 0.0777
3 35 31 -6.7400 0.7325
3 35 34 -12.6566 -0.3144
3 36 -33 3.4819 0.4982
3 36 -30 14.6033 1.0311
3 36 -27 -2.5653 -1.2514
3 36 -24 0.9697 -1.1927
3 36 -21 7.4634 1.1264
3 36 -18 -6.5086 1.1237
3 36 -15 5.4589 -0.7147
3 36 -12 -6.2810 -0.9102
3 36 -9 -5.1303 -0.1643
3 36 -6 5.0732 1.2808
3 36 -3 -2.8479 0.7648
3 36 0 6.7779 -0.9938
3 36 3 12.4689 -0.9911
3 36 6 18.7996 0.4442
3 36 9 2.3578 0.8416
3 36 12 -8.5625 -0.2476
3 36 15 -12.3747 -1.4270
3 36 18 -1.2892 -0.8020
3 36 21 2.8154 0.6210
3 36 24 -8.1223 0.2253
3 36 27 -1.9799 0.0652
3 36 30 0.0296 0.6484
3 36 33 5.3922 -1.2161
3 37 -28 0.7488 0.1294
3 37 -25 -4.6471 0.1888
3 37 -22 -3.1868 -0.3357
3 37 -19 -12.6916 -1.3720
3 37 -16 -0.3254 0.4158
3 37 -13 -1.5579 1.1753
3 37 -10 -14.6767 -0.1204
3 37 -7 4.1583 -1.6598
3 37 -4 -4.8622 -0.2012
3 37 -1 7.4975 1.5030
3 37 2 -0.2790 0.5790
3 37 5 13.4385 -1.3763
3 37 8 1.6267 -0.8014
3 37 11 4.9570 0.9409
3 37 14 -2.6058 1.2504
3 37 17 8.0537 -0.2996
3 37 20 0.3387 -1.0036
3 37 23 -8.0030 0.9537
3 37 26 8.7216 -0.2208
3 37 29 8.8734 -0.1650
3 38 -26 13.0383 0.3183
3 38 -23 -11.7484 0.6015
3 38 -20 -5.0724 -0.9403
3 38 -17 11.5717 0.0312
3 38 -14 -20.6717 0.0681
3 38 -11 17.4392 0.4417
3 38 -8 -2.3002 0.4538
3 38 -5 -1.8358 -0.8571
3 38 -2 8.4567 -0.2835
3 38 1 -8.4574 0.7442
3 38 4 -0.9781 0.1305
3 38 7 8.1039 -0.7523
3 38 10 -7.0398 -0.4307
3 38 13 -0.7829 -0.0330
3 38 16 5.6037 0.7173
3 38 19 -1.0209 -0.0907
3 38 22 5.2450 -0.1551
3 38 25 -5.8115 0.0346
3 39 -24 -1.7042 -0.4703
3 39 -21 -3.2000 0.6407
3 39 -18 1.8142 0.1255
3 39 -15 -12.9214 -1.3057
3 39 -12 -9.2359 -0.2642
3 39 -9 -0.9137 1.8422
3 39 -6 -1.6120 0.3027
3 39 -3 5.2329 -1.4099
3 39 0 6.2362 -0.9267
3 39 3 13.4227 1.1715
3 39 6 -3.8368 1.3132
3 39 9 0.9750 -1.3103
3 39 12 -3.3788 -1.2768
3 39 15 11.7203 0.9281
3 39 18 -1.7404 0.0812
3 39 21 -2.5601 -0.3083
3 39 24 -2.7949 1.1485
3 40 -19 13.2475 0.1106
3 40 -16 -6.0683 -0.0607
3 40 -13 -2.7706 -0.7537
3 40 -10 -5.6678 -0.2277
3 40 -7 10.9496 -0.2648
3 40 -4 0.3178 0.5629
3 40 -1 -0.0051 -0.3386
3 40 2 2.7268 -0.8785
3 40 5 12.1887 -0.4951
3 40 8 -2.2748 0.5018
3 40 11 0.7358 0.0320
3 40 14 -2.0084 0.4969
3 40 17 -0.1706 -0.4092
3 40 20 -8.8069 -0.7477
3 41 -14 -12.0690 0.0727
3 41 -11 21.1208 0.2097
3 41 -8 1.4588 -0.7946
3 41 -5 1.2236 0.3574
3 41 -2 3.6715 0.8931
3 41 1 4.5523 0.2680
3 41 4 18.7842 -0.6929
3 41 7 5.4108 -0.1032
3 41 10 -8.0239 0.0916
3 41 13 0.9953 0.5415
3 42 -6 -0.7462 -0.2971
3 42 -3 10.1722 -0.0723
3 42 0 -3.6811 0.2499
3 42 3 4.5863 0.0641
3 42 6 -9.2139 -0.0954
4 1 -63 7.2566 1.0728
4 1 -60 -0.2295 -3.7635
4 1 -57 10.5944 -1.2888
4 1 -54 16.5548 4.0631
4 1 -51 10.0661 2.7448
4 1 -48 16.0713 -3.5762
4 1 -45 12.2070 -4.6125
4 1 -42 1.9263 2.9650
4 1 -39 9.8546 6.2283
4 1 -36 -33.1078 -1.8457
4 1 -33 26.3653 -7.5902
4 1 -30 -49.1924 -0.2577
4 1 -27 -36.2509 7.7950
4 1 -24 -151.4929 2.8921
4 1 -21 -54.3679 -7.2352
4 1 -18 -59.9938 -6.9130
4 1 -15 -30.3111 5.0668
4 1 -12 -74.0239 8.3495
4 1 -6 -10.4406 -10.3952
4 1 0 -209.8767 9.4076
4 1 3 220.7338 2.1863
4 1 6 617.6652 -8.4425
4 1 9 -464.0262 -4.4927
4 1 12 164.6591 6.4847
4 1 15 -6.0809 6.4713
4 1 18 -145.2339 -4.6642
4 1 21 -1.2439 -6.8376
4 1 24 -99.7126 3.3646
4 1 27 -22.9558 7.1007
4 1 30 25.7807 -1.1820
4 1 33 -18.1758 -5.9667
4 1 36 19.4845 -0.3871
4 1 39 -0.6824 5.2397
4 1 42 8.4219 1.7962
4 1 45 24.1237 -3.9939
4 1 48 0.8704 -2.6380
4 1 51 21.2652 2.5724
4 1 54 -7.9476 2.4803
4 1 57 8.1190 -1.3640
4 1 60 6.0418 -2.0918
4 1 63 -9.3450 0.2498
4 2 -64 11.6512 0.7327
4 2 -61 1.4042 0.6031
4 2 -58 -8.3761 -1.1859
4 2 -55 8.6304 -0.5317
4 2 -52 -2.4137 1.3197
4 2 -49 -2.8019 1.1758
4 2 -46 -24.5610 -1.6438
4 2 -43 -20.0677 -1.7829
4 2 -40 21.3360 1.3481
4 2 -37 -18.0357 2.4403
4 2 -34 13.6628 -1.1905
4 2 -31 -35.5733 -3.5040
4 2 -28 -91.6099 0.1009
4 2 -25 81.8713 3.4598
4 2 -22 -3.3327 0.0137
4 2 -19 134.6911 -4.5357
4 2 -16 144.5574 -1.6584
4 2 -13 -41.2504 3.4078
4 2 -10 283.3446 2.4561
4 2 -7 578.3471 -3.5895
4 2 -4 57.7926 -4.6980
4 2 -1 185.8452 1.7032
4 2 2 -850.4514 5.6856
4 2 5 -796.7384 0.3785
4 2 8 -3.5017 -5.3102
4 2 11 -196.8644 -0.3588
4 2 14 33.0551 5.7766
4 2 17 170.6647 3.6042
4 2 20 51.4615 -2.8762
4 2 23 67.8135 -4.5413
4 2 26 31.8434 1.7406
4 2 29 72.2824 5.1883
4 2 32 -23.3963 -0.4396
4 2 35 3.7667 -5.1312
4 2 38 -34.2250 -1.3165
4 2 41 23.5272 3.8024
4 2 44 20.0599 2.2392
4 2 47 -13.7678 -2.5547
4 2 50 -22.7164 -2.7417
4 2 53 17.1967 1.2423
4 2 56 -8.4450 2.2361
4 2 59 6.7936 -0.3424
4 2 62 5.7654 -2.0613
4 3 -62 -4.5254 0.0880
4 3 -59 16.6190 0.8140
4 3 -56 5.4191 0.4832
4 3 -53 13.1836 -1.3736
4 3 -50 -7.9044 -0.4695
4 3 -47 -1.2794 1.1383
4 3 -44 -8.3167 0.9530
4 3 -41 26.6491 -0.8108
4 3 -38 -37.5523 -1.1720
4 3 -35 -12.0406 0.3807
4 3 -32 -13.1077 1.7669
4 3 -29 31.5171 0.5983
4 3 -26 -68.5412 -1.9058
4 3 -23 18.9081 -0.8456
4 3 -20 -230.8384 1.7708
4 3 -17 71.2707 0.8281
4 3 -14 203.4440 -1.0846
4 3 -11 168.0897 -1.2693
4 3 -8 296.6294 0.1431
4 3 -5 46.6062 1.6237
4 3 -2 -24.0536 0.8046
4 3 1 -239.6531 -1.4594
4 3 4 -84.7105 -0.0389
4 3 7 129.7808 1.5080
4 3 10 -48.9859 0.0052
4 3 13 167.2850 -0.6452
4 3 16 -213.5044 -0.7893
4 3 19 198.4236 -0.8833
4 3 22 -8.3467 0.1262
4 3 25 -52.0181 0.3135
4 3 28 -71.0998 -0.4302
4 3 31 -52.5733 -0.4503
4 3 34 -59.4366 -0.0104
4 3 37 14.8013 0.0941
4 3 40 -21.9114 0.0198
4 3 43 25.6865 -0.2821
4 3 46 8.9988 -0.3553
4 3 49 10.3093 0.2623
4 3 52 8.5322 0.1598
4 3 55 0.6560 -0.2190
4 3 58 -21.2057 -0.2629
4 3 61 10.8965 0.1182
4 4 -63 0.5452 -0.6573
4 4 -60 -6.3216 0.1115
4 4 -57 4.9716 1.4245
4 4 -54 -10.1560 -0.0776
4 4 -51 -17.3995 -1.7379
4 4 -48 -0.0040 -0.3851
4 4 -45 -31.6165 2.2700
4 4 -42 -13.3475 1.0996
4 4 -39 10.6340 -2.7266
4 4 -36 4.3167 -2.2753
4 4 -33 18.2625 2.2541
4 4 -30 13.7793 2.5838
4 4 -27 -30.5177 -2.3598
4 4 -24 74.7784 -4.4021
4 4 -21 168.4806 -0.0298
4 4 -18 75.7804 3.9023
4 4 -15 403.8535 0.5751
4 4 -12 135.9368 -5.6405
4 4 -9 267.1662 -3.0372
4 4 -6 194.6276 5.9656
4 4 -3 -92.9719 4.7141
4 4 0 -494.2248 -3.9260
4 4 3 83.3658 -4.3278
4 4 6 -29.2762 2.7741
4 4 9 -145.4992 6.7759
4 4 12 214.1747 0.4155
4 4 15 -38.9100 -5.7331
4 4 18 -125.0570 -0.6753
4 4 21 146.6125 6.5361
4 4 24 -102.7554 2.8826
4 4 27 104.6492 -4.7011
4 4 30 45.3142 -3.5160
4 4 33 -50.0410 3.5129
4 4 36 38.5385 4.3654
4 4 39 21.2691 -1.7945
4 4 42 -8.9256 -4.5043
4 4 45 31.9809 0.4641
4 4 48 -20.0568 3.9415
4 4 51 4.7286 0.6037
4 4 54 -4.0711 -3.3347
4 4 57 1.5918 -1.7475
4 4 60 4.4954 2.4727
4 4 63 -5.4968 1.3637
4 5 -61 8.5846 0.4537
4 5 -58 3.8033 -0.9568
4 5 -55 5.4860 -0.6228
4 5 -52 -4.7845 0.2327
4 5 -49 -3.7606 1.2960
4 5 -46 17.5962 -0.1603
4 5 -43 16.2240 -1.1038
4 5 -40 16.5685 -0.6038
4 5 -37 -11.2323 1.4316
4 5 -34 -54.2734 1.2613
4 5 -31 32.7126 -1.4214
4 5 -28 14.1052 -1.4061
4 5 -25 70.4982 1.3963
4 5 -22 30.3201 1.9717
4 5 -19 1.9950 -0.2545
4 5 -16 44.4422 -1.1567
4 5 -13 -105.8319 0.2065
4 5 -10 30.8681 2.0850
4 5 -7 4.3681 1.9492
4 5 -4 -603.4222 -0.7919
4 5 -1 -235.2327 -0.9160
4 5 2 176.0215 2.4862
4 5 5 -40.5880 2.3748
4 5 8 501.3063 -0.9445
4 5 11 -234.5327 -1.9211
4 5 14 131.0164 -0.5611
4 5 17 -24.6202 1.5343
4 5 20 -9.4824 0.4470
4 5 23 -90.9276 -2.0165
4 5 26 -36.2324 -1.7666
4 5 29 -40.0670 0.6498
4 5 32 -67.2453 1.4636
4 5 35 -9.0806 -1.1080
4 5 38 19.0606 -1.8858
4 5 41 -0.7110 0.4175
4 5 44 -18.1483 1.5559
4 5 47 -10.2043 -0.2376
4 5 50 13.9374 -1.5623
4 5 53 15.8453 -0.3382
4 5 56 -9.5129 0.9015
4 5 59 0.2052 0.5448
4 5 62 3.1540 -0.7595
4 6 -62 0.6420 1.4034
4 6 -59 2.3195 -1.2481
4 6 -56 -19.9531 -0.5378
4 6 -53 -8.2453 1.4772
4 6 -50 -19.8206 1.0351
4 6 -47 -15.1152 -1.5089
4 6 -44 2.7945 -1.4898
4 6 -41 -30.8218 1.3973
4 6 -38 -14.7128 2.3365
4 6 -35 17.0625 -0.8633
4 6 -32 5.4357 -2.8733
4 6 -29 46.4369 0.3565
4 6 -26 -67.6287 3.4368
4 6 -23 39.8236 0.2201
4 6 -20 103.8407 -4.1401
4 6 -17 156.9565 -1.3812
4 6 -14 -71.1572 3.4687
4 6 -11 -170.3777 2.3354
4 6 -8 91.8623 -1.9730
4 6 -5 -181.6991 -3.4473
4 6 -2 6.1570 1.0324
4 6 1 158.1776 4.7636
4 6 4 114.5145 -1.0063
4 6 7 65.9955 -5.2636
4 6 10 -267.1282 0.3394
4 6 13 183.1871 4.5832
4 6 16 -9.9529 1.0990
4 6 19 53.1352 -2.8019
4 6 22 -66.5741 -1.5035
4 6 25 -51.5796 2.2055
4 6 28 -18.2393 2.6244
4 6 31 65.6626 -0.8926
4 6 34 -27.3200 -2.6516
4 6 37 24.7408 0.7321
4 6 40 6.1168 2.5930
4 6 43 -7.4440 -0.1404
4 6 46 -2.0104 -1.8974
4 6 49 6.1089 -0.1418
4 6 52 -17.6623 1.3904
4 6 55 0.1392 0.5740
4 6 58 -10.4979 -1.3627
4 6 61 6.7471 -1.0541
4 7 -63 -4.5150 -0.4958
4 7 -60 -0.2002 0.2559
4 7 -57 16.1268 0.5824
4 7 -54 -0.8663 -0.7134
4 7 -51 -6.2991 -1.5565
4 7 -48 0.0700 -0.1575
4 7 -45 6.1964 2.0897
4 7 -42 23.4885 0.6012
4 7 -39 20.0055 -2.1045
4 7 -36 -1.4867 -1.4798
4 7 -33 12.9101 1.7795
4 7 -30 -2.5649 2.1955
4 7 -27 34.9803 -1.0299
4 7 -24 8.3000 -2.8984
4 7 -21 90.9281 -0.2406
4 7 -18 -200.8124 3.0776
4 7 -15 45.1217 0.8875
4 7 -12 -61.3691 -3.1145
4 7 -9 32.9083 -1.7892
4 7 -6 190.5966 2.7016
4 7 -3 -30.5384 3.1281
4 7 0 -17.4093 -1.3364
4 7 3 237.8426 -3.2687
4 7 6 17.4370 0.8264
4 7 9 -99.7119 3.6798
4 7 12 57.9517 0.1475
4 7 15 -38.0074 -3.6739
4 7 18 -57.9586 -1.4331
4 7 21 83.8070 2.4289
4 7 24 3.0823 2.0598
4 7 27 -25.9566 -2.0004
4 7 30 31.9312 -2.7936
4 7 33 -19.0129 0.9725
4 7 36 4.3915 2.7764
4 7 39 26.3325 -0.2784
4 7 42 -21.2307 -2.4899
4 7 45 10.3565 -0.5017
4 7 48 -7.0806 2.1663
4 7 51 -7.4142 1.3227
4 7 54 13.3642 -1.2924
4 7 57 2.2375 -0.9413
4 7 60 -7.9418 0.9372
4 7 63 4.6769 1.6392
4 8 -61 0.3902 -0.3037
4 8 -58 -2.9816 -0.6117
4 8 -55 -21.6453 -0.7443
4 8 -52 -2.3407 -0.8022
4 8 -49 -24.4728 1.1748
4 8 -46 22.1655 0.6801
4 8 -43 -39.9424 -1.1101
4 8 -40 9.4420 -1.2521
4 8 -37 -14.0871 0.9577
4 8 -34 59.1451 1.4561
4 8 -31 29.5993 -0.5038
4 8 -28 60.4093 -1.3295
4 8 -25 -58.7618 -0.2496
4 8 -22 -8.0949 1.2141
4 8 -19 -91.7224 0.8044
4 8 -16 -55.2591 -0.8103
4 8 -13 30.5129 -0.9201
4 8 -10 -103.7643 1.1161
4 8 -7 -120.2188 1.6728
4 8 -4 -71.0794 -0.6657
4 8 -1 68.4747 -1.6402
4 8 2 220.3370 0.0135
4 8 5 -329.0453 0.7261
4 8 8 223.8010 -0.1214
4 8 11 -82.3783 -0.4336
4 8 14 208.0841 -0.0358
4 8 17 -10.0126 0.2862
4 8 20 14.5612 0.2831
4 8 23 9.2166 -0.4394
4 8 26 14.7773 -0.1842
4 8 29 -69.1000 0.9165
4 8 32 39.9050 0.2095
4 8 35 -67.3503 -0.8344
4 8 38 -23.0349 -0.2150
4 8 41 -33.6673 0.9592
4 8 44 0.1671 0.0364
4 8 47 14.9994 -0.6799
4 8 50 2.3651 -0.7965
4 8 53 -13.3682 0.4642
4 8 56 2.3150 0.7548
4 8 59 -12.9926 0.1006
4 8 62 6.0908 -0.7432
4 9 -62 -5.0144 -0.8721
4 9 -59 -2.0694 0.0848
4 9 -56 -13.2504 0.7094
4 9 -53 9.3262 1.0144
4 9 -50 -4.1822 -0.9736
4 9 -47 1.8838 -1.0716
4 9 -44 37.4097 0.8561
4 9 -41 -7.8089 1.7952
4 9 -38 39.1234 -0.6335
4 9 -35 29.4402 -2.3109
4 9 -32 -63.4608 0.1397
4 9 -29 -18.0978 2.5699
4 9 -26 -45.3975 0.2623
4 9 -23 -98.0401 -3.0122
4 9 -20 -25.6386 -1.7633
4 9 -17 -158.5991 1.8565
4 9 -14 -122.7217 2.0976
4 9 -11 269.2140 -1.7978
4 9 -8 109.7531 -3.3715
4 9 -5 88.7709 1.1849
4 9 -2 154.3058 3.7655
4 9 1 5.0848 -0.6124
4 9 4 -116.3201 -3.7987
4 9 7 -7.3846 -0.4107
4 9 10 -51.1272 3.0611
4 9 13 71.2443 1.7517
4 9 16 -19.3407 -2.3482
4 9 19 -182.3532 -2.3109
4 9 22 4.2677 1.7520
4 9 25 -32.3828 2.8520
4 9 28 -59.6522 -1.0907
4 9 31 3.1731 -2.7123
4 9 34 -41.8935 0.3469
4 9 37 24.0825 2.5504
4 9 40 22.6381 0.5171
4 9 43 11.9395 -2.2726
4 9 46 11.8038 -1.0531
4 9 49 19.3500 1.4074
4 9 52 -9.8302 0.9055
4 9 55 13.5798 -1.3229
4 9 58 -12.4688 -0.9443
4 9 61 -0.6582 1.0362
4 10 -60 -2.2202 -0.0893
4 10 -57 -7.3200 -0.6041
4 10 -54 -10.2770 -0.6220
4 10 -51 -7.5301 0.6718
4 10 -48 13.5262 0.4676
4 10 -45 9.7191 -0.5921
4 10 -42 13.0130 -0.4152
4 10 -39 -17.0645 0.0952
4 10 -36 14.7905 0.5283
4 10 -33 38.1270 0.1257
4 10 -30 -7.8580 -0.6689
4 10 -27 47.3775 -0.1393
4 10 -24 -40.9928 0.9332
4 10 -21 -32.6306 0.2185
4 10 -18 14.4723 -0.4325
4 10 -15 30.4485 0.2107
4 10 -12 64.7272 0.6447
4 10 -9 20.8075 0.6704
4 10 -6 -55.1789 0.3142
4 10 -3 -125.1969 -0.3732
4 10 0 9.5598 -0.2327
4 10 3 -21.2311 1.0444
4 10 6 2.6054 0.3973
4 10 9 59.3576 -0.5964
4 10 12 -3.4976 -0.3316
4 10 15 245.1481 0.0418
4 10 18 -44.1375 0.4823
4 10 21 23.7959 -0.0181
4 10 24 41.1649 -0.9858
4 10 27 -40.7054 -0.2716
4 10 30 3.7589 0.8418
4 10 33 -7.5336 0.1862
4 10 36 -20.9731 -1.0778
4 10 39 -4.5063 -0.5467
4 10 42 -35.8843 0.4334
4 10 45 -5.9268 0.5687
4 10 48 -22.8342 -0.0280
4 10 51 -10.1075 -0.4303
4 10 54 -12.5742 -0.4064
4 10 57 -2.5294 0.4162
4 10 60 -3.8981 0.1788
4 11 -61 -7.5699 0.3745
4 11 -58 1.4055 -0.1203
4 11 -55 -7.0609 0.4080
4 11 -52 16.7312 0.8132
4 11 -49 7.6970 0.2455
4 11 -46 19.7736 -1.3305
4 11 -43 -14.5436 -0.2525
4 11 -40 50.7328 1.0680
4 11 -37 -42.2669 0.8266
4 11 -34 48.0694 -1.3783
4 11 -31 -84.1765 -1.7874
4 11 -28 -79.7579 0.6214
4 11 -25 -116.0003 2.2116
4 11 -22 -35.7454 -0.5804
4 11 -19 -98.5215 -3.2263
4 11 -16 77.2558 -0.6533
4 11 -13 -75.6758 3.3742
4 11 -10 -19.4957 1.9585
4 11 -7 148.2945 -2.8711
4 11 -4 2.0427 -3.0366
4 11 -1 212.7617 1.8980
4 11 2 90.6921 3.1898
4 11 5 46.4789 -1.1366
4 11 8 374.9193 -3.5352
4 11 11 -203.3801 -0.1557
4 11 14 49.9631 4.3080
4 11 17 -187.4664 2.3355
4 11 20 -105.5526 -3.4120
4 11 23 -116.1892 -2.3264
4 11 26 31.8167 3.1607
4 11 29 -121.5705 3.2396
4 11 32 39.0978 -1.4397
4 11 35 -48.6003 -3.1188
4 11 38 16.4458 0.2961
4 11 41 24.3540 3.3864
4 11 44 27.5465 0.8261
4 11 47 -15.8486 -2.7378
4 11 50 -0.9522 -1.5846
4 11 53 -11.6690 2.2317
4 11 56 3.1800 1.7902
4 11 59 -1.7727 -1.3072
4 12 -59 -2.1698 0.6521
4 12 -56 2.6264 0.1471
4 12 -53 -2.5125 -0.1140
4 12 -50 -1.5603 -0.7659
4 12 -47 -14.0620 -0.3024
4 12 -44 2.0309 0.8963
4 12 -41 -24.1410 0.5101
4 12 -38 6.5899 -1.1987
4 12 -35 -31.9948 -0.6782
4 12 -32 -1.1654 1.0904
4 12 -29 -15.0676 1.1315
4 12 -26 -0.6030 -0.4716
4 12 -23 -13.0442 -1.5026
4 12 -20 72.5091 -0.0986
4 12 -17 65.8817 1.7273
4 12 -14 93.1984 0.6129
4 12 -8 -71.8561 -0.6782
4 12 -5 -79.7697 1.7215
4 12 -2 26.3972 1.3441
4 12 1 -128.9946 -0.9767
4 12 4 -23.1897 -1.6267
4 12 7 65.2815 0.8871
4 12 10 -183.1240 2.4261
4 12 13 31.4032 0.3524
4 12 16 -44.5315 -2.1670
4 12 19 -17.4531 -0.8469
4 12 22 88.1823 1.7326
4 12 25 -31.7075 0.8232
4 12 28 43.7368 -1.4618
4 12 31 15.6179 -1.3524
4 12 34 37.5642 0.6993
4 12 37 -10.4893 1.0962
4 12 40 -8.8888 -0.5061
4 12 43 -11.9504 -1.0430
4 12 46 -21.8509 -0.0604
4 12 49 -11.3532 0.8319
4 12 52 -17.4517 0.1229
4 12 55 -2.0548 -0.5720
4 12 58 -8.3055 -0.6823
4 12 61 -0.0036 1.6935
4 13 -60 -3.2453 -0.9519
4 13 -57 5.0048 -0.2308
4 13 -54 -1.1821 -0.1042
4 13 -51 2.4630 0.2505
4 13 -48 7.0118 0.3978
4 13 -45 -13.0406 0.0699
4 13 -42 12.0644 -0.5374
4 13 -39 4.6515 -0.6454
4 13 -36 23.0122 0.4886
4 13 -33 1.2239 1.2436
4 13 -30 -69.5905 -0.2704
4 13 -27 -37.6530 -1.7085
4 13 -24 -31.4560 -0.3728
4 13 -21 -60.5305 1.7648
4 13 -18 0.7858 0.7161
4 13 -15 -31.3137 -1.7206
4 13 -12 -15.8314 -1.2580
4 13 -9 107.7183 1.8034
4 13 -6 -56.8060 2.0943
4 13 -3 260.6561 -0.9731
4 13 0 101.3263 -3.0035
4 13 3 131.9869 0.0782
4 13 6 5.4021 3.2743
4 13 9 70.2664 0.5836
4 13 12 50.5901 -3.2614
4 13 15 51.1566 -1.4342
4 13 18 -58.4704 2.5680
4 13 21 31.0732 2.2947
4 13 24 -37.3649 -1.7983
4 13 27 -36.5263 -2.5490
4 13 30 -51.5514 0.8232
4 13 33 -17.7399 2.8446
4 13 36 1.1067 0.1222
4 13 39 -19.2753 -2.6143
4 13 42 -3.8149 -0.5242
4 13 45 5.5355 2.4540
4 13 48 -5.5336 1.1925
4 13 51 10.7843 -1.9095
4 13 54 -7.5781 -1.0686
4 13 57 11.1417 0.8037
4 13 60 -8.3686 1.2694
4 14 -58 6.9459 -0.6891
4 14 -55 -3.3448 0.5467
4 14 -52 10.6268 0.5475
4 14 -49 -5.5157 -0.1054
4 14 -46 -9.9076 -0.3573
4 14 -43 -12.3967 -0.2503
4 14 -40 20.1654 0.4034
4 14 -37 -52.0434 0.3083
4 14 -34 17.1000 -0.4823
4 14 -31 -96.8376 -0.3077
4 14 -28 -31.5514 0.3918
4 14 -25 44.6225 0.4850
4 14 -22 63.3092 -0.5307
4 14 -19 -35.2549 -1.3123
4 14 -16 229.3560 0.0667
4 14 -13 -64.4406 1.1068
4 14 -10 165.2835 -0.2146
4 14 -7 67.9826 -1.1192
4 14 -4 -97.3162 -0.0996
4 14 -1 83.4711 0.8312
4 14 2 -42.2919 0.5738
4 14 5 -239.1440 -0.5791
4 14 8 -53.3209 -0.6178
4 14 11 -75.4587 0.8373
4 14 14 -39.7950 1.1578
4 14 17 56.5089 -0.4159
4 14 20 29.9137 -1.1908
4 14 23 13.9704 0.1597
4 14 26 108.4646 0.8241
4 14 29 -86.4842 0.2306
4 14 32 44.1451 -0.8465
4 14 35 18.4687 -0.9749
4 14 38 13.3498 0.7582
4 14 41 1.9726 0.7196
4 14 44 2.9266 -0.4619
4 14 47 -4.2038 -0.7243
4 14 50 14.8049 0.1547
4 14 53 -3.1174 0.9957
4 14 56 7.3562 0.6004
4 14 59 5.2496 -0.5840
4 15 -59 2.8143 0.0961
4 15 -56 2.8274 0.3115
4 15 -53 -12.3630 0.6851
4 15 -50 10.9048 -0.9009
4 15 -47 -10.6587 -0.6048
4 15 -44 12.5928 0.7179
4 15 -41 -1.0519 1.2642
4 15 -38 17.3481 -0.4319
4 15 -35 -35.5885 -1.1161
4 15 -32 7.9578 -0.1958
4 15 -29 -38.9071 1.1783
4 15 -26 22.0433 0.5904
4 15 -23 32.5348 -1.2092
4 15 -20 1.9928 -1.0457
4 15 -17 6.4295 0.9373
4 15 -14 34.1223 1.4905
4 15 -11 -16.4467 -0.6159
4 15 -8 -54.1148 -1.4465
4 15 -5 54.9597 0.6287
4 15 -2 -5.1729 1.4262
4 15 1 31.3204 0.0323
4 15 4 33.3799 -1.0782
4 15 7 13.4033 -0.0906
4 15 10 162.2728 1.0878
4 15 13 0.8997 0.4333
4 15 16 51.3387 -0.7976
4 15 19 -9.2337 -0.6221
4 15 22 -24.8825 0.8002
4 15 25 -9.9106 0.8354
4 15 28 10.9686 -0.5843
4 15 31 -46.9544 -0.8226
4 15 34 -15.1829 0.4016
4 15 37 -14.6623 0.8992
4 15 40 -14.5368 -0.4829
4 15 43 -9.3671 -1.0976
4 15 46 -2.5727 0.2568
4 15 49 -11.3013 0.9669
4 15 52 -0.8797 -0.4562
4 15 55 2.5424 -0.5041
4 15 58 -3.4105 0.3837
4 16 -57 2.6380 0.3750
4 16 -54 -0.7366 0.6656
4 16 -51 6.9715 0.1932
4 16 -48 5.5442 -0.0398
4 16 -45 8.0154 -0.3937
4 16 -42 -17.3657 0.0195
4 16 -39 17.1597 0.4714
4 16 -36 -32.9691 0.3682
4 16 -33 -32.6650 -0.4745
4 16 -30 -3.8266 -0.6840
4 16 -27 25.9692 0.4041
4 16 -24 22.9393 0.9348
4 16 -21 60.7493 -0.2590
4 16 -18 22.9124 -1.1614
4 16 -15 101.2968 -0.0023
4 16 -12 49.8257 1.3938
4 16 -9 -29.1115 0.7568
4 16 -6 108.2219 -1.1002
4 16 -3 29.5917 -1.3419
4 16 0 -122.0808 0.4912
4 16 3 41.3871 1.5956
4 16 6 -78.7481 -0.0676
4 16 9 146.7108 -2.0439
4 16 12 -67.3832 -0.7322
4 16 15 7.5706 1.9057
4 16 18 -31.5583 1.0711
4 16 21 3.0562 -1.3929
4 16 24 -63.1788 -1.2241
4 16 27 18.8174 0.7463
4 16 30 20.6689 1.7769
4 16 33 26.5035 0.1368
4 16 36 23.4599 -1.8130
4 16 39 -2.3090 -0.3971
4 16 42 -7.1912 1.8243
4 16 45 17.1884 0.8384
4 16 48 -3.2579 -1.0088
4 16 51 8.5917 -1.1933
4 16 54 6.7907 0.4204
4 16 57 -3.4004 0.3694
4 17 -55 3.8181 0.3245
4 17 -52 -4.7246 0.1542
4 17 -49 -14.7840 -0.5649
4 17 -46 5.0015 -0.1727
4 17 -43 -12.9398 0.1634
4 17 -40 13.0626 0.2311
4 17 -37 -10.6371 -0.3852
4 17 -34 -14.4242 -0.3965
4 17 -31 -1.9160 0.2315
4 17 -28 85.1864 0.5247
4 17 -25 49.7096 -0.0784
4 17 -22 21.6880 -0.9059
4 17 -19 -25.2412 -0.3412
4 17 -16 75.9131 0.7098
4 17 -13 -98.5328 0.6625
4 17 -10 -49.6251 -0.6775
4 17 -7 2.8877 -0.8021
4 17 -4 -117.7012 1.0016
4 17 -1 3.1451 0.9642
4 17 2 -66.0212 -0.8577
4 17 5 -45.9227 -1.1775
4 17 8 162.9889 0.4938
4 17 11 -13.5472 1.2769
4 17 14 36.1646 0.4493
4 17 17 17.3063 -1.1858
4 17 20 18.5689 -0.8453
4 17 23 -2.5390 0.9315
4 17 26 -14.0642 0.7757
4 17 29 -20.1604 -0.7275
4 17 32 46.0145 -1.1456
4 17 35 -20.2695 0.1305
4 17 38 -1.9494 1.2246
4 17 41 -5.2754 -0.1455
4 17 44 1.4924 -1.2498
4 17 47 -0.7334 -0.2825
4 17 50 -5.0960 1.2779
4 17 53 3.1509 0.3388
4 17 56 0.1497 -0.3223
4 18 -56 4.4454 0.0779
4 18 -53 -0.6265 -0.8762
4 18 -50 4.2005 -0.7168
4 18 -47 -3.2418 0.3304
4 18 -44 16.7422 0.8346
4 18 -41 -3.8846 -0.4999
4 18 -38 16.4915 -1.3945
4 18 -35 -8.4184 -0.1815
4 18 -32 36.8331 1.5226
4 18 -29 26.4137 0.6101
4 18 -26 20.1472 -1.5995
4 18 -23 -21.9285 -1.1735
4 18 -20 -43.8606 1.4603
4 18 -17 13.4080 2.0108
4 18 -14 3.8856 -0.8057
4 18 -11 -27.3586 -2.3593
4 18 -8 10.9564 0.2863
4 18 -5 40.0828 2.8280
4 18 -2 26.2221 0.5892
4 18 1 46.7662 -2.8961
4 18 4 48.3299 -1.3232
4 18 7 41.9039 2.5081
4 18 10 9.1155 1.9699
4 18 13 -9.6210 -1.7080
4 18 16 9.1612 -2.7823
4 18 19 -5.2911 0.6780
4 18 22 45.1448 2.8442
4 18 25 -36.8092 0.0172
4 18 28 1.8151 -2.7117
4 18 31 2.4701 -0.9959
4 18 34 -24.7568 2.4425
4 18 37 0.2949 1.2379
4 18 40 -4.1517 -1.8224
4 18 43 -11.4553 -1.5878
4 18 46 7.2072 0.8104
4 18 49 -2.6669 1.6754
4 18 52 5.0605 -0.1335
4 18 55 0.4913 -1.1641
4 19 -54 -13.5936 -0.3148
4 19 -51 -2.2251 -0.0904
4 19 -48 -1.4708 -0.0737
4 19 -45 -6.0355 -0.6917
4 19 -42 -9.5959 -0.3058
4 19 -39 29.1484 0.6213
4 19 -36 -21.8187 0.2176
4 19 -33 30.0954 -0.4768
4 19 -30 30.7060 -0.6755
4 19 -27 -6.2170 0.4426
4 19 -24 14.5446 0.9786
4 19 -21 24.6881 -0.3047
4 19 -18 -26.9444 -1.5323
4 19 -15 38.0526 -0.1765
4 19 -12 -40.5956 1.5281
4 19 -9 -23.5240 0.7218
4 19 -6 59.6448 -1.5249
4 19 -3 -42.2344 -1.0255
4 19 0 -29.1552 1.1839
4 19 3 84.8758 1.4428
4 19 6 -51.6959 -0.3194
4 19 9 36.8099 -1.7422
4 19 12 -13.1037 -0.2989
4 19 15 -18.3951 1.8808
4 19 18 -12.4536 1.1624
4 19 21 19.0372 -1.5330
4 19 24 -7.5839 -1.4745
4 19 27 46.3132 1.3384
4 19 30 20.3961 1.6379
4 19 33 -14.5451 -0.8703
4 19 36 -8.5963 -1.8083
4 19 39 14.3267 0.0672
4 19 42 -13.0077 1.5094
4 19 45 24.1358 0.4194
4 19 48 13.4155 -1.6951
4 19 51 2.4182 -0.4680
4 19 54 -9.0744 0.6637
4 20 -55 -4.2879 -0.8909
4 20 -52 1.8112 0.5605
4 20 -49 9.0159 -0.2796
4 20 -46 9.1278 -1.2234
4 20 -43 14.3873 0.0889
4 20 -40 14.4210 1.0204
4 20 -37 13.9898 0.0187
4 20 -34 18.0195 -1.1568
4 20 -31 32.5179 -0.7698
4 20 -28 9.2854 1.2757
4 20 -25 -67.4693 1.4988
4 20 -22 -38.9441 -0.8318
4 20 -19 -35.5889 -1.5940
4 20 -16 -26.1319 0.5413
4 20 -13 -44.0172 1.7699
4 20 -10 1.4457 0.4012
4 20 -7 13.2129 -1.6900
4 20 -4 -41.8505 -0.5955
4 20 -1 41.7831 1.6436
4 20 2 7.4226 1.2155
4 20 5 69.2236 -1.5473
4 20 8 16.6668 -1.8286
4 20 11 -27.8334 0.8986
4 20 14 10.8694 1.9093
4 20 17 24.1775 -0.4328
4 20 20 -17.0228 -1.9501
4 20 23 7.9768 -0.4623
4 20 26 18.2785 1.7058
4 20 29 1.5842 0.8784
4 20 32 -0.4477 -1.4341
4 20 35 -30.2390 -0.9009
4 20 38 3.9360 1.3116
4 20 41 3.0763 1.1489
4 20 44 -15.1508 0.0939
4 20 47 8.6791 -0.9972
4 20 50 -6.9005 0.1147
4 20 53 -3.3653 1.0475
4 21 -53 10.0684 -1.0435
4 21 -50 -11.6731 0.7408
4 21 -47 3.2066 0.2380
4 21 -44 2.0881 0.1243
4 21 -41 -2.9047 -0.2981
4 21 -38 -11.7785 -0.6110
4 21 -35 26.2892 0.4473
4 21 -32 -31.2114 0.8631
4 21 -29 -11.6691 -0.0270
4 21 -26 -18.4643 -1.0849
4 21 -23 -58.2880 0.0247
4 21 -20 55.9756 1.0187
4 21 -17 29.7764 0.1302
4 21 -14 -31.2706 -0.8864
4 21 -11 87.2575 -0.5251
4 21 -8 -20.9002 0.8809
4 21 -5 54.6019 0.9633
4 21 -2 36.7109 -0.5071
4 21 1 -75.0281 -1.4485
4 21 4 28.8708 0.2332
4 21 7 23.8638 1.5257
4 21 10 -30.2050 0.0370
4 21 13 36.4838 -1.4400
4 21 16 12.2654 -0.5668
4 21 19 -37.3033 1.0731
4 21 22 8.2783 0.7619
4 21 25 -41.7590 -0.9084
4 21 28 -1.7228 -0.9071
4 21 31 5.2033 0.3557
4 21 34 0.7666 0.9696
4 21 37 7.8645 0.0704
4 21 40 17.1371 -1.1807
4 21 43 8.5973 0.0524
4 21 46 -4.5512 1.0246
4 21 49 10.9613 0.1673
4 21 52 -9.9418 -0.2613
4 22 -51 8.7367 -0.0813
4 22 -48 1.4801 0.6104
4 22 -45 11.5016 0.6157
4 22 -42 12.9603 -0.2573
4 22 -39 14.5483 -0.6176
4 22 -36 -6.2268 0.0047
4 22 -33 21.7561 0.7200
4 22 -30 -23.0183 0.4553
4 22 -27 -0.6994 -0.5382
4 22 -24 5.1432 -0.4043
4 22 -21 -28.8767 0.5274
4 22 -18 -16.7857 0.6842
4 22 -15 -8.2728 -0.4029
4 22 -12 -52.4997 -0.7425
4 22 -9 -30.8002 0.3622
4 22 -6 -1.8247 0.8399
4 22 -3 -14.5229 -0.0876
4 22 0 -23.0853 -0.6851
4 22 3 33.7254 -0.0103
4 22 6 23.1718 0.4526
4 22 9 48.6922 0.2837
4 22 12 -28.4916 -0.3593
4 22 15 16.1325 -0.1745
4 22 18 16.5127 0.3680
4 22 21 23.0700 0.3307
4 22 24 21.6186 -0.4899
4 22 27 -25.1039 -0.0210
4 22 30 4.4100 0.5053
4 22 33 -10.3346 0.0280
4 22 36 7.5177 -0.5720
4 22 39 1.0080 -0.0152
4 22 42 3.5406 0.0985
4 22 45 -6.9463 0.0012
4 22 48 -7.9244 -0.1597
4 22 51 -3.4293 -0.6163
4 23 -52 -2.0469 0.8032
4 23 -49 3.7757 -0.3054
4 23 -46 -8.3468 0.3271
4 23 -43 -12.2780 0.9697
4 23 -40 1.6559 0.2688
4 23 -37 -15.9012 -0.8033
4 23 -34 -20.9170 -0.9086
4 23 -31 -14.8363 0.8691
4 23 -28 -46.0196 1.2802
4 23 -25 -36.4476 -0.5830
4 23 -22 16.5194 -1.4677
4 23 -19 -24.8196 0.2780
4 23 -16 29.7756 1.4972
4 23 -13 2.6151 0.4268
4 23 -10 5.0067 -1.4032
4 23 -7 45.5544 -1.0709
4 23 -4 -3.7996 1.4285
4 23 -1 70.2979 1.5371
4 23 2 -19.8107 -1.2553
4 23 5 12.3791 -1.7457
4 23 8 -18.8743 0.7047
4 23 11 -17.2916 1.6900
4 23 14 -7.5121 -0.0468
4 23 17 28.3314 -1.6660
4 23 20 -19.7976 -0.4388
4 23 23 37.5320 1.6396
4 23 26 2.5336 0.8558
4 23 29 -30.0646 -1.0835
4 23 32 13.3038 -0.9373
4 23 35 -20.4810 1.0773
4 23 38 -4.5513 1.5222
4 23 41 -9.0024 -0.5394
4 23 44 -0.1781 -1.2471
4 23 47 -2.0954 0.4971
4 23 50 8.3494 0.8180
4 24 -50 -10.2016 -0.0151
4 24 -47 7.7955 -0.2661
4 24 -44 -0.7521 -0.0272
4 24 -41 7.6057 0.4159
4 24 -38 2.2846 0.2475
4 24 -35 -6.4658 -0.0821
4 24 -32 -25.9317 -0.0042
4 24 -29 9.7434 0.2070
4 24 -26 -0.4748 0.3295
4 24 -23 -8.3346 -0.0661
4 24 -20 54.7816 -0.0986
4 24 -17 -46.7862 0.1127
4 24 -14 -0.0033 -0.2186
4 24 -11 32.8730 -0.2185
4 24 -8 -29.7213 0.4005
4 24 -5 6.4958 0.1150
4 24 -2 -18.7726 -0.1990
4 24 1 -9.3791 -0.2697
4 24 4 40.1120 0.4806
4 24 7 11.1908 0.5112
4 24 10 -5.1684 -0.2203
4 24 13 24.1516 -0.6464
4 24 16 0.7916 0.0506
4 24 19 2.5259 0.9916
4 24 22 5.7336 0.2232
4 24 25 10.0139 -0.8491
4 24 28 12.6298 -0.5018
4 24 31 16.7514 0.6783
4 24 34 -5.3933 0.5953
4 24 37 6.7632 -0.4713
4 24 40 -7.4584 -0.8585
4 24 43 -1.0300 0.5266
4 24 46 -8.8289 0.8962
4 24 49 11.2061 0.5353
4 25 -48 -10.3097 0.9506
4 25 -45 7.5281 -0.8591
4 25 -42 8.5330 -0.7151
4 25 -39 -19.9182 0.2734
4 25 -36 -8.1513 0.6410
4 25 -33 0.8241 -0.3018
4 25 -30 -23.7089 -0.9983
4 25 -27 -6.7957 0.1512
4 25 -24 8.5724 1.3369
4 25 -21 -30.2374 0.3269
4 25 -18 44.4504 -1.2695
4 25 -15 15.5319 -0.7739
4 25 -12 -12.3880 1.3966
4 25 -9 63.7090 1.2771
4 25 -6 21.3703 -0.9596
4 25 -3 -29.4062 -1.4753
4 25 0 39.0188 0.6350
4 25 3 1.0228 1.6896
4 25 6 -34.9489 -0.1891
4 25 9 22.2574 -1.7428
4 25 12 -42.7773 -0.3446
4 25 15 38.7678 1.9043
4 25 18 33.1929 0.8354
4 25 21 -47.8946 -1.7153
4 25 24 6.7042 -1.2218
4 25 27 1.7989 1.3214
4 25 30 -0.1912 1.2620
4 25 33 1.3871 -0.6412
4 25 36 6.9164 -1.4434
4 25 39 -12.5889 0.0943
4 25 42 -6.7730 1.4663
4 25 45 -6.0870 0.1457
4 25 48 -3.4084 -0.7389
4 26 -49 2.8853 0.3618
4 26 -46 -3.4252 0.2851
4 26 -43 11.1653 -0.4907
4 26 -40 -1.4279 -0.1639
4 26 -37 -23.4507 -0.5033
4 26 -34 14.1526 0.2556
4 26 -31 10.3020 0.6049
4 26 -28 -22.3490 -0.1553
4 26 -25 31.6107 -0.6742
4 26 -22 8.8395 -0.4285
4 26 -19 -29.0955 0.5714
4 26 -16 41.8140 0.3666
4 26 -13 -62.7809 -0.6683
4 26 -10 37.8027 -1.1910
4 26 -7 18.9009 0.4521
4 26 -4 -63.6169 1.2307
4 26 -1 14.0499 -0.1268
4 26 2 -12.1760 -1.3042
4 26 5 -31.0168 -0.6482
4 26 8 43.4102 1.2979
4 26 11 -19.0601 0.9170
4 26 14 8.6446 -1.0644
4 26 17 47.2036 -0.9712
4 26 20 -37.1300 0.6150
4 26 23 -6.4454 1.3448
4 26 26 3.2823 -0.2423
4 26 29 -39.1396 -1.3225
4 26 32 11.0521 -0.1507
4 26 35 -5.2734 1.4098
4 26 38 -1.2173 0.2958
4 26 41 16.6981 -1.6945
4 26 44 13.9999 -0.6171
4 26 47 0.6953 -0.0453
4 27 -47 3.2186 0.3657
4 27 -44 -2.4040 0.9278
4 27 -41 -5.1332 -0.6011
4 27 -38 -12.2307 -1.1972
4 27 -35 -10.4792 -0.1614
4 27 -32 6.2614 0.9169
4 27 -29 15.6623 0.4999
4 27 -26 -11.6418 -1.3590
4 27 -23 31.4088 -0.6051
4 27 -20 15.4414 1.0466
4 27 -17 -18.3036 1.0351
4 27 -14 26.9556 -0.6207
4 27 -11 8.3712 -1.0195
4 27 -8 -46.6328 0.3639
4 27 -5 14.2945 1.1867
4 27 -2 -21.8556 0.1266
4 27 1 29.2247 -1.3362
4 27 4 5.3006 -0.3385
4 27 7 -10.1785 1.5619
4 27 10 -9.9256 0.6312
4 27 13 -18.1487 -1.1444
4 27 16 -5.3698 -0.7967
4 27 19 -6.0704 1.0983
4 27 22 -9.6492 1.0359
4 27 25 37.8251 -0.3794
4 27 28 -4.9210 -0.6084
4 27 31 23.9692 -0.1378
4 27 34 -2.5701 0.9474
4 27 37 -5.6508 0.5303
4 27 40 -4.8489 -0.7940
4 27 43 2.6055 -0.0519
4 27 46 -6.5832 0.5881
4 28 -45 4.3044 0.0044
4 28 -42 -11.5778 0.6521
4 28 -39 -5.8755 -0.1813
4 28 -36 9.0316 0.1147
4 28 -33 -0.3864 -0.9325
4 28 -30 12.3190 -0.2888
4 28 -27 0.8417 1.0886
4 28 -24 26.7587 0.3779
4 28 -21 4.0334 -1.2566
4 28 -18 2.9819 -0.7300
4 28 -15 -12.9473 0.7372
4 28 -12 4.1583 0.9614
4 28 -9 -17.3493 -0.6731
4 28 -6 -11.4803 -1.0925
4 28 -3 -20.4338 0.1201
4 28 0 20.1708 1.7098
4 28 3 -7.1888 0.1697
4 28 6 1.3078 -1.7422
4 28 9 20.1778 -0.8908
4 28 12 21.2114 1.5163
4 28 15 -7.3884 0.9679
4 28 18 10.5647 -1.2738
4 28 21 -15.6748 -1.2913
4 28 24 36.0856 0.7925
4 28 27 6.7243 1.7271
4 28 30 4.9960 0.0598
4 28 33 -0.4453 -1.5379
4 28 36 -6.9101 -0.1336
4 28 39 9.3089 1.5888
4 28 42 -3.8871 0.8876
4 28 45 5.5052 0.1296
4 29 -43 -7.4720 0.0875
4 29 -40 -5.0118 0.4396
4 29 -37 -15.1354 0.0873
4 29 -34 27.4381 -0.4343
4 29 -31 -7.3650 -0.2455
4 29 -28 -1.2322 0.3437
4 29 -25 17.5382 0.1282
4 29 -22 -6.9639 -0.5175
4 29 -19 -25.9497 0.0452
4 29 -16 23.3053 0.3171
4 29 -13 -13.1972 -0.1648
4 29 -10 33.6848 -0.1622
4 29 -7 -10.2427 -0.1727
4 29 -4 -9.4859 0.3764
4 29 -1 20.2343 0.3407
4 29 2 12.4379 -0.2822
4 29 5 -36.2618 -0.4641
4 29 8 1.8966 0.0578
4 29 11 -11.5405 0.3704
4 29 14 -0.9830 0.0172
4 29 17 -17.7226 -0.2780
4 29 20 4.3274 -0.1337
4 29 23 -4.0970 0.1989
4 29 26 9.5726 -0.3619
4 29 29 -8.7645 -0.1388
4 29 32 11.3890 0.1007
4 29 35 11.6820 0.2119
4 29 38 12.7807 0.6788
4 29 41 -7.0640 -0.5473
4 29 44 6.8194 0.1844
4 30 -41 7.0463 -0.3089
4 30 -38 -0.0925 -0.2586
4 30 -35 16.2988 1.0845
4 30 -32 15.9519 0.5295
4 30 -29 -12.0766 -1.0875
4 30 -26 4.8596 -1.0152
4 30 -23 7.5638 0.9190
4 30 -20 -8.6910 1.2008
4 30 -17 -18.0749 -0.6871
4 30 -14 24.9045 -1.6493
4 30 -11 -11.7822 0.3749
4 30 -8 -23.4820 1.7820
4 30 -5 47.1313 0.0106
4 30 -2 -29.4591 -1.8233
4 30 1 19.0516 -0.3007
4 30 4 -5.7571 1.5676
4 30 7 -38.0586 0.6591
4 30 10 29.6422 -1.2792
4 30 13 25.2984 -1.1039
4 30 16 -0.0850 0.9602
4 30 19 54.1576 1.5921
4 30 22 6.5364 -0.3160
4 30 25 5.3614 -1.3974
4 30 28 0.3523 0.2953
4 30 31 -2.8919 1.7067
4 30 34 -13.0438 0.5881
4 30 37 -6.7435 -1.5654
4 30 40 -4.8871 -0.0726
4 30 43 8.1026 -0.1554
4 31 -42 0.3882 0.9329
4 31 -39 16.8270 0.4226
4 31 -36 12.5594 -0.4182
4 31 -33 -2.5916 0.4676
4 31 -30 12.7545 0.6166
4 31 -27 -9.2926 0.0151
4 31 -24 -4.8172 -0.6208
4 31 -21 -1.5295 -0.3794
4 31 -18 -4.6759 0.3467
4 31 -15 19.1466 0.6639
4 31 -12 8.0138 0.0904
4 31 -9 -0.6620 -0.8921
4 31 -6 24.5561 0.0235
4 31 -3 -7.2274 0.8192
4 31 0 0.9542 0.3808
4 31 3 5.3753 -0.8049
4 31 6 -13.1640 -0.5129
4 31 9 -4.0682 0.6400
4 31 12 11.3417 0.4770
4 31 15 -29.9448 -0.6032
4 31 18 19.8485 -0.9717
4 31 21 -15.0854 0.1629
4 31 24 -14.1706 1.0875
4 31 27 0.3276 0.5692
4 31 30 -0.9054 -0.5578
4 31 33 -8.8425 0.2822
4 31 36 12.1366 -0.0306
4 31 39 7.2645 1.4509
4 31 42 -8.4514 -0.6455
4 32 -40 3.0147 -0.0295
4 32 -37 11.3143 -0.3580
4 32 -34 1.1447 -0.7951
4 32 -31 -15.4809 0.9965
4 32 -28 20.1248 0.2765
4 32 -25 -19.5981 -0.6220
4 32 -22 7.6925 -1.0508
4 32 -19 -1.3358 0.4688
4 32 -16 -2.3891 1.1638
4 32 -13 -10.9789 -0.4387
4 32 -10 -14.7839 -1.1898
4 32 -7 -16.8316 0.1557
4 32 -4 -9.2409 1.1806
4 32 -1 -11.8971 0.1136
4 32 2 -11.8234 -1.2190
4 32 5 3.0897 -0.5534
4 32 8 31.5793 1.0032
4 32 11 13.7469 0.7102
4 32 14 13.7231 -0.3996
4 32 17 -7.9830 -0.5799
4 32 20 -0.9429 0.1981
4 32 23 -10.5648 0.3662
4 32 26 7.7894 -0.3381
4 32 29 -10.2519 -1.5141
4 32 32 13.1975 0.0976
4 32 35 8.7999 0.9394
4 32 38 -16.1405 -0.9542
4 33 -38 2.1306 -0.1981
4 33 -35 -1.8770 0.5834
4 33 -32 -7.1683 -0.8671
4 33 -29 0.9237 -0.3535
4 33 -26 2.9488 0.9046
4 33 -23 -0.1456 0.5818
4 33 -20 9.5214 -0.6441
4 33 -17 -1.9230 -0.3836
4 33 -14 14.0646 0.2534
4 33 -11 -0.1765 1.0608
4 33 -8 -17.5554 0.3333
4 33 -5 17.3053 -1.0533
4 33 -2 -26.5114 -0.4670
4 33 1 10.9423 1.0822
4 33 4 0.8300 0.7475
4 33 7 12.2117 -0.8291
4 33 10 -3.7862 -1.2725
4 33 13 8.9544 0.3456
4 33 16 -34.0396 1.6382
4 33 19 -0.6390 0.2452
4 33 22 -12.3472 -1.6096
4 33 25 -1.3162 -0.0426
4 33 28 -6.1957 1.1236
4 33 31 5.6594 -0.2887
4 33 34 1.6334 0.2726
4 33 37 -0.9323 -1.5525
4 34 -36 -13.8614 0.1782
4 34 -33 -5.1001 0.4525
4 34 -30 3.3319 -0.3959
4 34 -27 -16.5655 0.3792
4 34 -24 9.1518 0.1992
4 34 -21 -10.1772 -0.1175
4 34 -18 -6.6966 0.0457
4 34 -15 1.6537 0.0742
4 34 -12 -17.1543 0.2228
4 34 -9 2.0679 -0.0363
4 34 -6 -2.0923 -0.0847
4 34 -3 -7.4559 -0.0115
4 34 0 17.6097 0.0745
4 34 3 -6.8565 -0.1824
4 34 6 5.9003 -0.2551
4 34 9 -8.2783 -0.0649
4 34 12 7.4180 0.0481
4 34 15 -13.4205 -0.2316
4 34 18 -3.9662 -0.3078
4 34 21 -1.4858 -0.0649
4 34 24 4.5680 -0.1081
4 34 27 6.0642 0.6489
4 34 30 1.1984 -1.1241
4 34 33 9.1126 0.0403
4 34 36 5.6259 0.2583
4 35 -34 4.8312 0.0143
4 35 -31 -1.6837 0.7853
4 35 -28 11.3449 -0.1902
4 35 -25 -13.6889 -0.8452
4 35 -22 19.0494 0.1125
4 35 -19 -13.6540 2.0799
4 35 -16 7.3168 -0.3178
4 35 -13 1.3220 -1.1477
4 35 -10 5.9219 -0.3957
4 35 -7 -1.0166 0.9416
4 35 -4 11.6846 1.0418
4 35 -1 21.5775 -0.5003
4 35 2 -5.7325 -1.4300
4 35 5 11.5131 0.5645
4 35 8 -10.0690 1.8981
4 35 11 -25.9593 -0.1717
4 35 14 -1.1177 -2.1036
4 35 17 -11.0117 -0.6018
4 35 20 8.1753 1.3526
4 35 23 10.8878 -0.7094
4 35 26 11.7468 -0.3757
4 35 29 -9.8841 -0.3675
4 35 32 7.6357 0.2544
4 36 -29 -6.8994 0.8144
4 36 -26 8.9711 -0.2400
4 36 -23 -12.8958 -0.2858
4 36 -20 -7.7236 0.6211
4 36 -17 1.6584 -0.0107
4 36 -14 -2.3149 0.4590
4 36 -11 5.4828 -0.1604
4 36 -8 -19.1556 -0.4706
4 36 -5 30.7299 0.0091
4 36 -2 -9.2787 0.7374
4 36 1 7.8769 0.0508
4 36 4 -13.0838 -0.5100
4 36 7 1.7525 -0.4877
4 36 10 -3.2379 0.3673
4 36 13 1.5537 -0.0471
4 36 16 -12.6766 0.2205
4 36 19 13.6999 0.3256
4 36 22 5.4961 -0.9314
4 36 25 6.2554 0.1495
4 36 28 -7.1673 0.7160
4 36 31 10.5795 -0.9771
4 37 -27 12.4583 0.4457
4 37 -24 7.6338 -0.5046
4 37 -21 -10.3824 -0.6864
4 37 -18 18.1324 -0.0054
4 37 -15 1.5752 0.9650
4 37 -12 6.5748 0.7820
4 37 -9 12.1294 -0.8480
4 37 -6 3.2401 -0.9069
4 37 -3 11.4395 0.9902
4 37 0 -7.0965 1.3505
4 37 3 -19.0038 -0.3924
4 37 6 2.0631 -1.6055
4 37 9 6.8188 -0.1079
4 37 12 -6.3480 0.3135
4 37 15 8.3995 -0.0138
4 37 18 9.0793 -0.2474
4 37 21 -0.8641 -0.2123
4 37 24 -11.8555 0.3850
4 37 27 -0.2200 0.9288
4 38 -25 -6.9219 0.0765
4 38 -22 1.0114 -0.3912
4 38 -19 -0.0093 -0.1179
4 38 -16 -2.3170 -0.4547
4 38 -13 1.8050 -0.5972
4 38 -10 -16.2598 0.1424
4 38 -7 2.3949 0.4070
4 38 -4 0.2173 0.0613
4 38 -1 -3.1985 -0.6597
4 38 2 -12.5320 -0.5278
4 38 5 1.7376 0.4268
4 38 8 8.8815 0.1839
4 38 11 4.0228 -0.0873
4 38 14 11.6179 -0.2111
4 38 17 0.8777 0.3664
4 38 20 -1.9796 -0.7555
4 38 23 -12.2418 -0.1597
4 39 -20 11.7625 -0.3369
4 39 -17 -3.6503 0.1073
4 39 -14 10.1338 0.1799
4 39 -11 0.9792 0.0369
4 39 -8 3.0950 0.3063
4 39 -5 11.4810 -0.5227
4 39 -2 -25.3467 -0.4636
4 39 1 12.1744 -0.1879
4 39 4 -3.9338 0.3027
4 39 7 6.9455 -0.0566
4 39 10 -2.9263 -0.7220
4 39 13 -9.9285 0.2232
4 39 16 -6.3907 0.7128
4 39 19 1.4745 -1.1505
4 39 22 -7.1810 0.6722
4 40 -15 -0.9064 -0.6164
4 40 -12 -7.6866 0.2651
4 40 -9 5.8832 -0.0360
4 40 -6 -6.1734 -0.0589
4 40 -3 -1.8331 0.5871
4 40 0 3.4101 0.0480
4 40 3 8.2006 -0.9175
4 40 6 0.7160 0.0521
4 40 9 3.3534 0.4162
4 40 12 -10.8192 0.5498
4 40 15 2.5432 0.6101
4 41 -10 6.5871 1.5003
4 41 -7 2.9131 -0.5958
4 41 -4 3.0897 -0.3641
4 41 -1 -7.7045 -0.4399
4 41 2 2.7766 -0.0692
4 41 5 -0.3888 0.8462
4 41 8 0.5023 -0.7284
4 41 11 -5.6650 -1.2025
5 1 -62 0.1384 0.6890
5 1 -59 -0.1230 0.8357
5 1 -56 3.3498 -0.1738
5 1 -53 -16.6493 -0.7869
5 1 -50 4.4502 -0.3772
5 1 -47 -8.2086 0.4379
5 1 -44 7.6632 0.8817
5 1 -41 3.0487 -0.6016
5 1 -38 8.5141 -1.1139
5 1 -35 -25.4245 0.3740
5 1 -32 23.5417 1.2745
5 1 -29 -35.0881 -0.0258
5 1 -26 40.5289 -0.0687
5 1 -23 -93.0708 -0.2274
5 1 -20 -216.5337 -0.4058
5 1 -17 -76.0535 1.6364
5 1 -14 -189.1064 1.3731
5 1 -11 -56.9585 -1.0760
5 1 -8 172.4457 -0.7624
5 1 -5 -20.6100 0.5683
5 1 -2 704.0372 -0.5741
5 1 1 -884.8324 0.5321
5 1 4 174.5197 0.7480
5 1 7 -68.5808 -0.9936
5 1 10 156.7217 0.7850
5 1 13 -61.0041 1.3216
5 1 16 -25.6421 -0.3295
5 1 19 -6.8678 -1.0720
5 1 22 -73.3161 -1.3055
5 1 25 -64.4917 0.3592
5 1 28 -5.6444 1.3828
5 1 31 -43.6545 -0.1706
5 1 34 51.4759 -1.2140
5 1 37 -6.2968 0.0454
5 1 40 -7.1680 0.8978
5 1 43 27.0566 0.2584
5 1 46 13.2814 -0.3670
5 1 49 9.3441 -0.5336
5 1 52 19.9858 0.2656
5 1 55 -7.9671 0.2655
5 1 58 -6.1652 -0.2020
5 1 61 6.3639 -0.7149
5 1 64 -4.1260 -0.3407
5 2 -63 0.7489 0.1785
5 2 -60 8.0798 -0.0432
5 2 -57 -4.8745 0.5526
5 2 -54 -2.1699 0.2218
5 2 -51 -7.8426 -0.4941
5 2 -48 -19.6065 -0.1096
5 2 -45 -18.4068 0.1128
5 2 -42 -6.6930 0.2313
5 2 -39 -5.0280 0.7398
5 2 -36 29.5750 0.2361
5 2 -33 -9.6648 -0.4913
5 2 -30 38.4907 0.3683
5 2 -27 20.4803 0.8185
5 2 -24 -21.6592 -0.0701
5 2 -21 -142.5137 -0.4193
5 2 -18 38.2144 -0.7897
5 2 -15 138.4597 -0.4123
5 2 -12 -8.3554 0.3042
5 2 -9 -46.5522 -0.5605
5 2 -6 317.9305 -1.6638
5 2 -3 8.0395 -0.5667
5 2 0 -150.5718 -0.6445
5 2 3 -248.9749 -0.9370
5 2 6 -45.8422 -0.3641
5 2 9 125.5475 -1.1499
5 2 12 -25.8585 -0.5045
5 2 15 -116.0351 1.4851
5 2 18 232.5420 0.1259
5 2 21 50.4326 -1.1160
5 2 24 -14.7879 -0.2254
5 2 27 -4.5238 1.1958
5 2 30 -54.9894 0.7688
5 2 33 4.8463 -0.8629
5 2 36 2.0399 -0.8588
5 2 39 -54.0714 0.8832
5 2 42 28.0515 1.2655
5 2 45 -17.0989 -0.1695
5 2 48 -8.9811 -0.9853
5 2 51 -6.9896 0.0396
5 2 54 -2.8903 0.7348
5 2 57 -7.7099 0.2289
5 2 60 -2.5789 -1.1253
5 2 63 -5.1131 -0.6721
5 3 -61 -2.3049 -3.2032
5 3 -58 -11.4290 -0.1612
5 3 -55 -3.8369 2.7054
5 3 -52 -7.3019 0.5989
5 3 -49 7.9838 -3.1044
5 3 -46 7.9406 -1.5685
5 3 -43 25.6301 2.4561
5 3 -40 23.3877 2.7249
5 3 -37 55.4674 -2.5984
5 3 -34 0.8688 -3.9305
5 3 -31 49.5177 1.7820
5 3 -28 37.7138 4.2236
5 3 -25 -74.4319 -1.0392
5 3 -22 -71.0124 -4.7719
5 3 -19 -124.8684 -0.5018
5 3 -16 -59.7566 4.4516
5 3 -13 -137.0603 1.4553
5 3 -10 49.0664 -4.7286
5 3 -7 -243.3846 -2.9978
5 3 -4 136.7989 3.3094
5 3 -1 14.2646 3.7209
5 3 2 -186.8890 -1.7748
5 3 5 311.8839 -4.1555
5 3 8 172.4167 1.0315
5 3 11 -9.2837 5.3348
5 3 14 8.1722 1.1857
5 3 17 7.9634 -4.3561
5 3 20 -46.7010 -1.4300
5 3 23 -6.1457 3.8643
5 3 26 -73.0559 2.9428
5 3 29 -48.9286 -2.0585
5 3 32 -21.8299 -3.2280
5 3 35 -31.8631 1.2752
5 3 38 -30.6103 3.5855
5 3 41 8.0237 -0.0335
5 3 44 -11.5040 -3.1617
5 3 47 24.9922 -0.6717
5 3 50 -6.1266 2.5852
5 3 53 5.5759 1.2803
5 3 56 -9.5456 -1.9353
5 3 59 0.0694 -0.9928
5 3 62 -1.9741 1.0452
5 4 -62 5.6614 0.2500
5 4 -59 -3.8425 -0.1587
5 4 -56 12.4726 -0.7063
5 4 -53 -4.2078 -0.0932
5 4 -50 32.3458 1.3988
5 4 -47 -5.2498 0.7967
5 4 -44 27.5712 -0.9004
5 4 -41 -44.9439 -1.0197
5 4 -38 7.1918 0.8421
5 4 -35 -50.3182 1.6370
5 4 -32 16.4113 -0.0321
5 4 -29 -3.9082 -2.0108
5 4 -26 -127.1338 -0.1537
5 4 -23 -55.4828 2.5422
5 4 -20 -50.1864 0.8315
5 4 -17 -8.1235 -2.1597
5 4 -14 76.5731 -1.7249
5 4 -11 -82.0666 1.1507
5 4 -8 264.2026 2.3738
5 4 -5 -181.3356 -0.7371
5 4 -2 214.7523 -3.7614
5 4 1 -4.3456 -0.5237
5 4 4 173.9220 3.7497
5 4 7 73.7038 0.9193
5 4 10 -171.6218 -3.2488
5 4 13 -155.6878 -2.2295
5 4 16 53.7456 2.6527
5 4 19 -150.3332 2.7963
5 4 22 -43.7874 -2.3106
5 4 25 -63.0363 -3.4337
5 4 28 79.5587 1.0129
5 4 31 -31.7323 3.0771
5 4 37 -19.9096 -2.5205
5 4 40 14.9611 -0.9341
5 4 43 -6.5540 1.9603
5 4 46 7.2439 1.5902
5 4 49 2.0252 -1.5269
5 4 52 8.1170 -1.8186
5 4 55 -31.7510 0.5124
5 4 58 5.9218 2.1008
5 4 61 0.2021 0.1143
5 5 -63 -13.1815 -0.6640
5 5 -60 10.6737 0.0990
5 5 -57 -8.3704 -1.0937
5 5 -54 8.1798 -0.0146
5 5 -51 6.7005 1.1535
5 5 -48 1.9572 0.5127
5 5 -45 -5.0340 -1.3853
5 5 -42 29.6783 -0.9003
5 5 -39 -3.2272 1.1100
5 5 -36 69.9403 1.7513
5 5 -33 -13.0214 -0.8140
5 5 -30 68.4815 -2.3278
5 5 -27 -93.9785 -0.0317
5 5 -24 86.5091 2.3837
5 5 -21 1.2064 0.7252
5 5 -18 -23.7729 -3.0436
5 5 -15 -28.0029 -2.7505
5 5 -12 -276.5309 1.3127
5 5 -9 97.0461 2.4537
5 5 -6 314.0566 -1.9331
5 5 -3 -298.6109 -4.6056
5 5 0 472.4666 0.0056
5 5 3 -10.2414 3.9495
5 5 6 227.5512 1.0636
5 5 9 -34.7453 -3.0655
5 5 12 31.1090 -1.9466
5 5 15 4.2910 2.7007
5 5 18 113.5184 3.6392
5 5 21 -134.1955 -1.1479
5 5 24 14.9652 -3.5235
5 5 27 40.2571 0.7547
5 5 30 29.3984 3.7213
5 5 33 -42.2029 0.7710
5 5 36 5.1807 -2.8271
5 5 39 -51.7699 -1.3187
5 5 42 9.8931 2.2457
5 5 45 -35.9066 1.9753
5 5 48 -7.7569 -1.2540
5 5 51 0.0573 -2.0484
5 5 54 -2.9660 0.1901
5 5 57 5.2070 1.9026
5 5 60 4.6958 0.3255
5 5 63 -3.5294 -0.5179
5 6 -61 3.2313 -0.8884
5 6 -58 11.8772 0.6687
5 6 -55 16.0953 0.6389
5 6 -52 7.0064 -0.4652
5 6 -49 10.3176 -1.2693
5 6 -46 1.3619 0.2502
5 6 -43 10.7365 1.3062
5 6 -40 -14.0814 -0.1484
5 6 -37 -22.2592 -2.0214
5 6 -34 -23.4850 -0.3720
5 6 -31 17.0830 1.8408
5 6 -28 -109.5659 0.3355
5 6 -25 -34.9787 -2.0711
5 6 -22 8.5053 -0.9079
5 6 -19 -97.3259 1.5435
5 6 -16 106.9651 1.5588
5 6 -13 65.3920 -1.1191
5 6 -10 -32.6188 -2.1794
5 6 -7 262.4679 1.1303
5 6 -4 171.8090 2.2650
5 6 -1 194.5987 0.0192
5 6 2 175.7932 -1.3904
5 6 5 218.4467 -0.7853
5 6 8 -306.0744 1.8477
5 6 11 5.2312 2.2709
5 6 14 -148.5291 -1.0118
5 6 17 -4.1193 -2.0685
5 6 20 47.0147 0.8443
5 6 23 -4.3665 2.2409
5 6 26 -2.5162 0.1793
5 6 29 40.0884 -2.1072
5 6 32 -18.7692 -1.2492
5 6 35 -34.4122 1.8297
5 6 38 19.1061 1.3360
5 6 41 8.9391 -1.3768
5 6 44 10.6588 -1.3767
5 6 47 20.0754 0.9566
5 6 50 -16.9413 1.7325
5 6 53 25.8764 -0.2930
5 6 56 -1.9159 -1.5434
5 6 59 3.9313 -0.1718
5 6 62 7.7231 0.1164
5 7 -62 5.1163 0.2966
5 7 -59 -7.2010 -0.6154
5 7 -56 13.5026 0.6215
5 7 -53 -11.7320 0.3163
5 7 -50 -7.8889 0.2198
5 7 -47 -19.6129 -0.6384
5 7 -44 -7.0183 0.0033
5 7 -41 -19.2866 0.2563
5 7 -38 51.8680 0.0967
5 7 -35 -7.3263 0.1545
5 7 -32 29.5624 0.0540
5 7 -29 -40.5383 -0.2327
5 7 -26 -5.8996 0.3757
5 7 -23 32.4361 0.6128
5 7 -20 61.9710 -0.2966
5 7 -17 -118.4512 -0.6692
5 7 -14 155.1024 -0.5737
5 7 -11 -193.5344 -0.2565
5 7 -8 79.9684 0.2859
5 7 -5 228.2339 -0.4386
5 7 -2 -74.1900 -0.7745
5 7 1 -98.6228 -0.0135
5 7 4 -111.5440 0.3919
5 7 7 -276.5229 0.2972
5 7 10 121.8224 -0.5840
5 7 13 -34.3937 -0.8484
5 7 16 25.8839 0.5190
5 7 19 85.0266 1.1440
5 7 22 68.0974 -0.0475
5 7 25 -43.8808 -0.5347
5 7 28 83.4257 0.1013
5 7 31 -70.0503 0.9033
5 7 34 -18.2502 0.5586
5 7 37 -14.9282 -0.8308
5 7 40 -15.6014 -0.7972
5 7 43 1.6983 0.6818
5 7 46 12.2847 0.9665
5 7 49 -15.9744 -0.6082
5 7 52 6.3202 -0.9702
5 7 55 -8.8938 0.1824
5 7 58 -2.1337 0.9001
5 7 61 16.8083 -0.0856
5 8 -60 16.2893 -0.4675
5 8 -57 -2.0237 -0.4695
5 8 -54 10.4962 -0.1892
5 8 -51 -14.0243 0.4518
5 8 -48 -0.0105 0.2842
5 8 -45 10.7641 -0.3175
5 8 -42 12.5891 -0.7191
5 8 -39 -27.3092 0.2192
5 8 -36 12.1219 0.9897
5 8 -33 -85.0914 -0.0465
5 8 -30 -18.5039 -1.1559
5 8 -27 27.0246 -0.2891
5 8 -24 -22.4751 0.9001
5 8 -21 -87.3898 0.6858
5 8 -18 10.2520 -0.7511
5 8 -15 -33.1767 -1.5674
5 8 -12 258.6260 -0.0082
5 8 -9 164.3615 1.7594
5 8 -6 270.0017 0.9750
5 8 -3 -156.1289 -1.7224
5 8 0 171.2573 -0.8081
5 8 3 -111.7314 1.8607
5 8 6 -100.0704 1.4659
5 8 9 157.9398 -1.1070
5 8 12 46.4137 -1.4301
5 8 15 40.3624 0.4677
5 8 18 58.7295 1.7575
5 8 21 -21.7136 0.1732
5 8 24 19.5259 -1.7073
5 8 27 -78.3914 -0.6591
5 8 30 -23.7856 1.1617
5 8 33 -67.5577 0.6754
5 8 36 52.7977 -0.7483
5 8 39 -39.5950 -0.9208
5 8 42 15.5879 0.2859
5 8 45 -5.0251 1.0826
5 8 48 7.4317 0.2610
5 8 51 8.9337 -1.0233
5 8 54 7.2329 -0.1992
5 8 57 -6.4904 0.4890
5 8 60 -0.2712 0.7452
5 9 -61 -2.7304 -0.6668
5 9 -58 -2.3859 0.4903
5 9 -55 -1.3927 -0.2930
5 9 -52 -3.3504 0.4701
5 9 -49 8.7627 0.1782
5 9 -46 -18.3219 0.2100
5 9 -43 9.0659 0.1515
5 9 -40 -15.4964 -0.1075
5 9 -37 2.2237 -0.2102
5 9 -34 27.6824 0.4756
5 9 -31 -8.0481 0.3789
5 9 -28 15.1424 -0.0509
5 9 -25 46.5168 -0.2898
5 9 -22 11.8315 -0.2420
5 9 -19 125.1407 0.3299
5 9 -16 -20.7811 0.0213
5 9 -13 -10.4746 -0.8375
5 9 -10 -69.8340 -0.4452
5 9 -7 -19.2809 0.8019
5 9 -4 -31.4513 0.7524
5 9 -1 52.8641 -0.4724
5 9 2 -83.3656 -1.4126
5 9 5 51.4164 -0.5718
5 9 8 -107.3594 1.2275
5 9 11 94.9631 0.6758
5 9 14 86.6869 -1.4621
5 9 17 -10.9344 -1.3738
5 9 20 5.5964 0.5838
5 9 23 -8.7693 1.5092
5 9 26 -41.6757 -0.2071
5 9 29 11.7552 -1.8834
5 9 32 -34.2206 -0.3701
5 9 35 -6.8938 1.9660
5 9 38 30.6952 0.9720
5 9 41 -8.5959 -1.2328
5 9 44 17.4643 -1.3759
5 9 47 9.3847 1.1067
5 9 50 -1.8658 1.9363
5 9 53 19.1908 -0.2769
5 9 56 -0.4713 -1.5245
5 9 59 5.4169 -0.6461
5 9 62 7.0428 0.7201
5 10 -59 2.3129 0.5616
5 10 -56 7.1303 0.3408
5 10 -53 -1.5425 -0.5920
5 10 -50 -13.9461 -0.3702
5 10 -47 6.4570 0.1994
5 10 -44 -4.7181 0.6139
5 10 -41 3.2046 -0.2926
5 10 -38 -40.0462 -0.6031
5 10 -35 -53.4710 0.0552
5 10 -32 -6.6478 0.3863
5 10 -29 14.9832 0.1090
5 10 -26 -8.8240 -0.0107
5 10 -23 31.3647 -0.5608
5 10 -20 51.2890 -0.1795
5 10 -17 -177.1582 0.3963
5 10 -14 122.2676 -0.3192
5 10 -11 -21.7088 -0.4344
5 10 -8 107.1658 0.2284
5 10 -5 166.4555 0.1978
5 10 -2 -238.8619 -0.2324
5 10 1 9.7832 -0.1097
5 10 4 72.5250 -0.0557
5 10 7 40.3787 -0.0901
5 10 10 -129.3984 0.1216
5 10 13 14.4886 0.2970
5 10 16 -78.9058 0.7800
5 10 19 2.2320 0.6135
5 10 22 -22.3071 -0.2766
5 10 25 -27.8375 -0.0507
5 10 28 52.5178 0.4207
5 10 31 -40.6459 0.3252
5 10 34 -1.7230 -0.5245
5 10 37 19.0746 -0.3318
5 10 40 -0.3367 0.3322
5 10 43 -18.5089 0.3846
5 10 46 -7.7968 -0.2140
5 10 49 -16.2872 -0.3055
5 10 52 5.5325 0.3642
5 10 55 -2.6202 1.1546
5 10 58 -2.8485 0.1603
5 10 61 9.7379 -0.9346
5 11 -60 -2.4158 -0.9169
5 11 -57 -9.1090 -0.0409
5 11 -54 -0.0139 0.8717
5 11 -51 -12.2759 1.0737
5 11 -48 1.3065 -1.0423
5 11 -45 3.2363 -0.9784
5 11 -42 -14.4293 0.7133
5 11 -39 -33.0280 1.7610
5 11 -36 43.0084 -0.3525
5 11 -33 34.1072 -2.2360
5 11 -30 98.7896 -0.2703
5 11 -27 4.7896 2.1409
5 11 -24 -56.5000 0.9237
5 11 -21 51.3806 -2.1475
5 11 -18 6.7204 -1.4996
5 11 -15 -80.9686 1.5549
5 11 -12 93.8984 2.6007
5 11 -9 -90.2915 -0.3444
5 11 -6 -54.9679 -2.6115
5 11 -3 42.2820 0.2290
5 11 0 -1.1033 3.2409
5 11 3 75.1882 0.4922
5 11 6 168.0156 -2.6662
5 11 9 -52.4483 -1.6766
5 11 12 68.7780 1.6695
5 11 15 44.5590 1.9500
5 11 18 -22.2235 -1.4849
5 11 21 -19.9483 -2.4948
5 11 24 -10.9101 0.8523
5 11 27 -9.4389 2.5640
5 11 30 52.1115 -0.3612
5 11 33 1.4992 -2.1479
5 11 36 -10.1519 -0.1818
5 11 39 -18.9396 1.6037
5 11 42 1.0721 1.0258
5 11 45 -1.9438 -1.2887
5 11 48 9.3280 -1.1863
5 11 51 -0.9643 0.9012
5 11 54 -0.4551 1.1306
5 11 57 -7.6161 -0.2340
5 11 60 1.4733 0.2020
5 12 -58 -3.1933 0.6391
5 12 -55 4.7857 -0.1565
5 12 -52 -2.3389 -0.1493
5 12 -49 -10.8442 -0.1464
5 12 -46 -26.4460 -0.0920
5 12 -43 29.8326 0.1556
5 12 -40 -41.3854 -0.2278
5 12 -37 40.7602 -0.0454
5 12 -34 7.2023 0.2645
5 12 -31 0.2991 0.0970
5 12 -28 -6.1512 -0.0048
5 12 -25 22.5850 -0.1432
5 12 -22 -40.8805 -0.1770
5 12 -19 18.6054 -0.1037
5 12 -16 -96.1972 0.0419
5 12 -13 22.1409 -0.2969
5 12 -10 213.4006 -0.4189
5 12 -7 -79.3264 0.6978
5 12 -4 135.0501 0.1861
5 12 -1 29.2160 -1.1389
5 12 2 -180.1744 -1.1180
5 12 5 126.7461 0.0751
5 12 8 -171.1368 0.4461
5 12 11 43.2108 -0.0491
5 12 14 30.3231 -0.5680
5 12 17 -59.1530 -0.5673
5 12 20 -4.1145 0.6704
5 12 23 55.7770 0.6590
5 12 26 -43.4343 -0.4438
5 12 29 26.4438 -0.5743
5 12 32 11.1390 0.3571
5 12 35 -11.1690 0.9882
5 12 38 7.7188 0.0996
5 12 41 5.4678 -0.5991
5 12 44 -3.0620 -0.4037
5 12 47 10.7986 0.5242
5 12 50 -2.2340 0.4932
5 12 53 0.4880 -0.6912
5 12 56 5.6652 -0.6427
5 12 59 -4.1755 -0.0233
5 13 -59 0.7361 0.5576
5 13 -56 -14.4971 -1.5234
5 13 -53 -9.0820 -0.7395
5 13 -50 -14.5071 0.6710
5 13 -47 4.3245 0.7827
5 13 -44 -15.5782 -0.5853
5 13 -41 8.8966 -1.3788
5 13 -38 -5.9523 0.4321
5 13 -35 71.1132 1.5028
5 13 -32 43.4941 0.0244
5 13 -29 -4.6898 -1.4097
5 13 -26 -9.3357 -0.2743
5 13 -23 -26.3942 1.2760
5 13 -20 -90.2616 1.2668
5 13 -17 -62.9003 -1.3255
5 13 -14 95.2411 -1.9103
5 13 -11 -20.1995 1.3889
5 13 -8 -64.6402 2.7336
5 13 -5 -85.9435 -0.5486
5 13 -2 -111.9585 -2.0018
5 13 1 132.9169 0.4613
5 13 4 -39.8829 2.0889
5 13 7 -26.1710 0.6316
5 13 10 63.9375 -1.4466
5 13 13 62.9539 -1.3710
5 13 16 69.2423 1.6287
5 13 19 42.5777 1.7458
5 13 22 10.8216 -1.5487
5 13 25 17.6629 -1.8338
5 13 28 -50.5535 0.6490
5 13 31 -15.7950 1.4906
5 13 34 -28.3363 -0.4096
5 13 37 -6.7323 -1.2878
5 13 40 -18.4995 -0.4189
5 13 43 -8.7754 1.2273
5 13 46 5.1660 0.5101
5 13 49 2.6331 -1.1101
5 13 52 1.3665 -0.5821
5 13 55 -9.2705 1.0153
5 13 58 6.4110 0.2453
5 14 -57 -2.9305 0.2270
5 14 -54 -8.5080 0.6129
5 14 -51 8.6410 -0.2102
5 14 -48 -4.7215 -0.7951
5 14 -45 -0.9696 0.2980
5 14 -42 -1.7421 1.1264
5 14 -39 41.6463 0.1858
5 14 -36 20.8201 -0.8895
5 14 -33 2.3023 -0.5495
5 14 -30 -64.0540 0.8768
5 14 -27 -46.9781 1.2839
5 14 -24 -42.8724 -0.2376
5 14 -21 37.5759 -1.4436
5 14 -18 -31.0749 0.0394
5 14 -15 13.3283 1.7279
5 14 -12 54.8041 0.7348
5 14 -9 48.1941 -1.1491
5 14 -6 6.9089 -1.1483
5 14 -3 96.1601 0.6012
5 14 0 62.1810 1.4281
5 14 3 5.7915 -0.2641
5 14 6 -59.4546 -1.8169
5 14 9 -19.2540 -0.6285
5 14 12 -46.8519 1.2745
5 14 15 -3.1353 0.9357
5 14 18 -60.1555 -1.2279
5 14 21 -54.7213 -1.3581
5 14 24 79.7553 0.7612
5 14 27 -39.9408 1.4246
5 14 30 -21.9064 -0.1505
5 14 33 -12.7276 -1.3990
5 14 36 1.9870 -0.3266
5 14 39 32.1220 1.0444
5 14 42 5.4967 0.6017
5 14 45 16.4937 -0.8027
5 14 48 -4.1745 -0.8789
5 14 51 3.5229 0.2042
5 14 54 -5.1560 0.7852
5 14 57 -3.5750 -0.1394
5 15 -58 -16.2300 -0.4028
5 15 -55 9.4118 1.1085
5 15 -52 -12.4039 -0.1214
5 15 -49 5.8190 -0.4785
5 15 -46 -7.8996 -0.2058
5 15 -43 16.0975 0.8240
5 15 -40 -1.3448 0.3230
5 15 -37 35.0842 -0.5380
5 15 -34 -23.8001 -0.8677
5 15 -31 13.3763 0.5433
5 15 -28 9.1684 1.3539
5 15 -25 -16.3701 -0.3017
5 15 -22 -13.5699 -1.1595
5 15 -19 34.5404 -0.0220
5 15 -16 -51.0484 1.1065
5 15 -13 20.3882 0.1898
5 15 -10 -13.0165 -0.8706
5 15 -7 -202.0059 -0.3202
5 15 -4 -26.3835 0.7675
5 15 -1 0.9288 0.6040
5 15 2 -117.6525 -0.6597
5 15 5 134.7450 -0.8634
5 15 8 -14.4011 0.4106
5 15 11 45.1362 0.6724
5 15 14 69.6139 0.0656
5 15 17 -8.7898 -0.4543
5 15 20 -13.2364 -0.0305
5 15 23 31.8647 0.5286
5 15 26 -29.0049 0.4905
5 15 29 13.9158 -0.3091
5 15 32 7.6068 -0.2278
5 15 35 -11.2542 0.3354
5 15 38 1.0823 0.3777
5 15 41 -10.3487 -0.0653
5 15 44 -13.2052 -0.3798
5 15 47 -4.2842 0.2043
5 15 50 -14.6131 0.3505
5 15 53 -3.1510 -0.2890
5 15 56 -3.5406 -0.8152
5 16 -56 -1.2647 -0.4440
5 16 -53 6.9889 0.7245
5 16 -50 5.9084 0.1117
5 16 -47 6.6900 0.0567
5 16 -44 -6.2903 -0.5560
5 16 -41 23.8806 0.0067
5 16 -38 -11.1909 0.8150
5 16 -35 13.1525 0.2873
5 16 -32 -52.6844 -0.7883
5 16 -29 -38.9949 -0.6135
5 16 -26 -38.9352 0.5599
5 16 -23 -40.0199 1.0022
5 16 -20 -20.0124 -0.1132
5 16 -17 13.0653 -1.3878
5 16 -14 46.7520 -0.0598
5 16 -11 -74.5021 1.5393
5 16 -8 48.9725 0.5835
5 16 -5 73.0689 -1.4702
5 16 -2 66.5761 -0.8522
5 16 1 93.4201 1.3063
5 16 4 -24.8175 1.6062
5 16 7 70.6147 -0.9095
5 16 10 6.7534 -1.8514
5 16 13 -34.9760 0.4405
5 16 16 -38.9510 1.7825
5 16 19 -43.4750 -0.2910
5 16 22 -45.6450 -1.9427
5 16 25 -37.8599 -0.7574
5 16 28 6.2748 1.3079
5 16 31 -1.6458 1.1542
5 16 34 19.8144 -1.0049
5 16 37 3.0401 -1.5399
5 16 40 2.6446 0.6066
5 16 43 14.6996 1.3136
5 16 46 -10.6738 -0.0316
5 16 49 -4.1871 -1.1598
5 16 52 7.4879 -0.1398
5 16 55 2.2433 0.8070
5 16 58 3.3380 0.4060
5 17 -57 8.5917 0.2828
5 17 -54 -9.4070 0.9030
5 17 -51 10.2472 0.2769
5 17 -48 -12.4352 -0.4165
5 17 -45 5.2578 0.0991
5 17 -42 3.3643 0.2170
5 17 -39 15.0050 -0.0114
5 17 -36 -28.3831 -0.4984
5 17 -33 8.7194 -0.2622
5 17 -30 -28.1115 0.4240
5 17 -27 27.8333 0.4708
5 17 -24 40.3038 -0.5824
5 17 -21 -22.8615 -0.7971
5 17 -18 -1.3434 0.3582
5 17 -15 38.2939 0.3500
5 17 -12 -85.4110 -0.4072
5 17 -9 60.8311 -0.7884
5 17 -6 -59.7134 -0.2597
5 17 -3 32.9871 0.7050
5 17 0 -19.8558 0.1515
5 17 3 -34.9317 -1.1570
5 17 6 -25.4245 -0.7611
5 17 9 44.8079 0.4866
5 17 12 -12.7802 0.6250
5 17 15 25.2315 -0.4300
5 17 18 -6.9196 -0.8436
5 17 21 39.6848 0.2686
5 17 24 -5.2899 1.1736
5 17 27 -19.8087 -0.1862
5 17 30 -17.1179 -1.1147
5 17 33 49.3527 -0.1951
5 17 36 -5.8603 0.7649
5 17 39 -11.1730 0.5539
5 17 42 -20.8160 -0.8981
5 17 45 4.5858 -0.6388
5 17 48 -19.5436 0.8001
5 17 51 1.9283 0.8884
5 17 54 -7.6188 -0.0553
5 17 57 -8.4735 0.1901
5 18 -55 3.9087 0.9843
5 18 -52 -2.5532 -0.9538
5 18 -49 10.3307 -0.7044
5 18 -46 -9.4324 0.2599
5 18 -43 4.8500 0.7542
5 18 -40 -2.8427 -0.8054
5 18 -37 13.8264 -1.0582
5 18 -34 -45.0005 0.0002
5 18 -31 16.9566 1.2244
5 18 -28 -38.2005 -0.1024
5 18 -25 -7.5227 -1.3149
5 18 -22 -11.0667 -0.1428
5 18 -19 -24.4797 1.1836
5 18 -16 4.0509 0.3930
5 18 -13 7.9834 -1.2694
5 18 -10 58.7620 -0.4006
5 18 -7 -15.8750 1.4026
5 18 -4 115.5938 1.3193
5 18 -1 50.8390 -0.7804
5 18 2 2.7108 -1.2481
5 18 5 5.1755 1.0540
5 18 8 -70.5253 1.4816
5 18 11 34.1636 -0.5256
5 18 14 -34.6172 -1.2376
5 18 17 -8.6771 0.1999
5 18 20 50.8292 1.2107
5 18 23 9.4003 0.4534
5 18 26 40.7929 -0.9730
5 18 29 -8.3989 -0.9335
5 18 32 -12.0558 1.0944
5 18 35 -15.4012 1.1162
5 18 38 -10.1872 -0.8436
5 18 41 -4.2512 -1.1843
5 18 44 11.6924 0.3771
5 18 47 7.2315 1.2653
5 18 50 -18.8518 -0.2781
5 18 53 14.4577 -0.5942
5 18 56 -2.9428 0.6160
5 19 -53 12.3493 1.2577
5 19 -50 -6.7152 -0.2065
5 19 -47 5.5605 -0.2398
5 19 -44 -7.4254 -0.4275
5 19 -41 -2.0071 0.2479
5 19 -38 -2.6707 0.6173
5 19 -35 -10.6615 -0.1323
5 19 -32 -32.6239 -0.9784
5 19 -29 2.8610 -0.3395
5 19 -26 15.7278 1.0371
5 19 -23 -19.4329 0.5260
5 19 -20 64.6950 -1.0853
5 19 -17 -4.0575 -1.0535
5 19 -14 66.4520 0.7084
5 19 -11 8.1381 1.2477
5 19 -8 27.8065 -0.3465
5 19 -5 28.4408 -1.4237
5 19 -2 -69.5409 -0.0554
5 19 1 50.6917 1.4442
5 19 4 -52.7617 0.4065
5 19 7 -20.3752 -1.5939
5 19 10 47.5337 -1.0358
5 19 13 -14.5993 1.2248
5 19 16 9.6422 1.2281
5 19 19 37.6254 -1.2039
5 19 22 -25.9778 -1.2503
5 19 25 24.3615 0.5069
5 19 28 22.9984 1.2308
5 19 31 -40.6767 0.0262
5 19 34 21.0890 -1.1195
5 19 37 -14.4855 -0.4331
5 19 40 9.0742 1.2212
5 19 43 -9.8094 0.5884
5 19 46 10.9881 -0.7466
5 19 49 -2.7840 -0.8347
5 19 52 18.9357 0.6515
5 19 55 3.3799 -0.4863
5 20 -54 -7.3099 -0.3516
5 20 -51 0.4113 0.4414
5 20 -48 -1.7433 -1.3014
5 20 -45 5.9807 -0.2954
5 20 -42 -4.0356 0.2882
5 20 -39 -6.2556 0.5932
5 20 -36 -9.0492 -0.9350
5 20 -33 16.1909 -0.8267
5 20 -30 -19.7645 0.7398
5 20 -27 61.0378 1.1458
5 20 -24 -17.8582 -0.2675
5 20 -21 10.2081 -1.2390
5 20 -18 59.2505 -0.0952
5 20 -15 -16.2508 1.4136
5 20 -12 21.5927 0.4561
5 20 -9 29.2754 -1.5243
5 20 -6 -24.8046 -0.6510
5 20 -3 14.7231 1.5264
5 20 0 -39.2628 1.1763
5 20 3 -14.9731 -0.9693
5 20 6 9.6969 -1.4242
5 20 9 17.0811 0.5322
5 20 12 -23.3191 1.7770
5 20 15 6.3823 0.0621
5 20 18 -33.1327 -1.7799
5 20 21 -11.1235 -0.4603
5 20 24 -16.7965 1.7643
5 20 27 29.8862 0.7600
5 20 30 10.2142 -1.6069
5 20 33 20.6327 -1.1220
5 20 36 -5.6291 1.3215
5 20 39 -2.6160 1.2497
5 20 42 -5.0071 -0.7385
5 20 45 -2.9503 -1.0636
5 20 48 -9.4621 0.6769
5 20 51 -2.6014 0.9088
5 20 54 -3.1175 -0.2374
5 21 -52 7.0789 -0.7984
5 21 -49 0.6034 0.1137
5 21 -46 -8.4585 0.8967
5 21 -43 -9.0445 -0.2502
5 21 -40 2.6384 -0.7410
5 21 -37 -4.0481 0.1180
5 21 -34 1.1321 0.7189
5 21 -31 19.1103 0.3447
5 21 -28 6.3620 -1.1233
5 21 -25 8.7618 -0.6425
5 21 -22 5.8613 1.1557
5 21 -19 -3.1246 1.0689
5 21 -16 11.5211 -1.0688
5 21 -13 3.8062 -1.2189
5 21 -10 -10.9802 0.8137
5 21 -7 -30.3549 1.4341
5 21 -4 33.0135 -0.1344
5 21 -1 -16.9664 -1.3504
5 21 2 -45.9172 -0.2032
5 21 5 80.5092 1.2911
5 21 8 -3.3180 0.7778
5 21 11 25.6947 -1.0144
5 21 14 35.4401 -0.9394
5 21 17 -2.5700 0.8095
5 21 20 47.6479 1.2395
5 21 23 -8.1502 -0.6875
5 21 26 -53.5229 -1.3156
5 21 29 9.9651 0.0471
5 21 32 -34.2941 1.0968
5 21 35 17.7550 0.1683
5 21 38 15.0848 -1.4143
5 21 41 8.5213 -0.7878
5 21 44 3.5625 0.3752
5 21 47 4.3500 0.5926
5 21 50 9.2027 -0.6123
5 21 53 7.0949 0.8934
5 22 -53 7.8395 1.0241
5 22 -50 -6.6409 -0.5003
5 22 -47 -7.3435 0.2609
5 22 -44 -11.1988 -0.3400
5 22 -41 -1.1958 0.4044
5 22 -38 16.2124 0.5495
5 22 -35 -13.0558 0.0316
5 22 -32 13.9304 -0.4958
5 22 -29 30.1368 0.0878
5 22 -26 18.6975 0.6212
5 22 -23 4.8786 0.3642
5 22 -20 41.0743 -0.4490
5 22 -17 -74.3493 -0.2955
5 22 -14 106.9797 0.5045
5 22 -11 -121.3903 0.5910
5 22 -8 26.9234 -0.3898
5 22 -5 28.1969 -0.8086
5 22 -2 4.4844 -0.0832
5 22 1 -0.4313 0.8292
5 22 4 0.3065 0.2928
5 22 7 -6.0769 -1.0482
5 22 10 -10.4757 -0.9953
5 22 13 -16.6255 0.7127
5 22 16 -33.4962 0.8675
5 22 19 8.0214 -0.6951
5 22 22 24.9396 -0.9596
5 22 25 -44.7831 0.4442
5 22 28 39.7419 1.2638
5 22 31 -1.6945 -0.0462
5 22 34 12.9476 -0.8369
5 22 37 5.0132 -0.3493
5 22 40 7.7034 0.9740
5 22 43 -7.4955 0.2570
5 22 46 20.4727 -0.6576
5 22 49 -11.1075 -0.8768
5 22 52 -3.3538 0.2119
5 23 -51 -6.7176 0.9543
5 23 -48 -4.0191 -0.6745
5 23 -45 7.5070 0.3850
5 23 -42 -7.7869 0.9227
5 23 -39 17.7388 0.0287
5 23 -36 13.5253 -1.2038
5 23 -33 14.4804 -0.1067
5 23 -30 14.0322 1.0079
5 23 -27 44.4681 0.6003
5 23 -24 -38.4206 -1.2274
5 23 -21 1.4645 -0.8617
5 23 -18 11.7070 0.8346
5 23 -15 -22.8499 0.9128
5 23 -12 0.3018 -0.5324
5 23 -9 -10.6989 -0.9676
5 23 -6 -21.2056 0.4072
5 23 -3 38.5252 1.3649
5 23 0 -21.3073 0.3259
5 23 3 16.3442 -1.1219
5 23 6 34.6770 -0.5009
5 23 9 -11.8345 1.1424
5 23 12 24.2777 1.0764
5 23 15 7.5238 -0.7486
5 23 18 -12.7005 -1.1699
5 23 21 57.2460 0.4890
5 23 24 -9.9045 1.0144
5 23 27 14.1504 -0.3444
5 23 30 -12.8134 -1.0711
5 23 33 -17.4323 -0.1984
5 23 36 -17.9943 1.0631
5 23 39 -3.5379 0.5453
5 23 42 -22.6207 -0.7767
5 23 45 7.7185 -0.3897
5 23 48 0.4472 0.3037
5 23 51 -3.2184 -0.7580
5 24 -49 -11.2817 1.1008
5 24 -46 5.6153 -0.6429
5 24 -43 10.1813 -0.2476
5 24 -40 1.3814 0.5881
5 24 -37 12.0022 0.4665
5 24 -34 17.0704 -0.0413
5 24 -31 5.9703 -0.3240
5 24 -28 -10.6847 -0.4268
5 24 -25 2.9724 0.7876
5 24 -22 -40.0078 0.5310
5 24 -19 33.5836 -0.4406
5 24 -16 12.5074 -0.7645
5 24 -13 -25.8072 0.2439
5 24 -10 88.2427 0.9034
5 24 -7 -8.5450 0.0273
5 24 -4 56.7559 -1.0261
5 24 -1 3.3827 -0.4349
5 24 2 -25.0499 0.8465
5 24 5 44.4450 0.3994
5 24 8 -41.0044 -1.1115
5 24 11 -2.8579 -0.9018
5 24 14 24.1274 0.5781
5 24 17 -33.9218 0.8244
5 24 20 -11.7972 -0.4451
5 24 23 -19.4127 -1.2850
5 24 26 -19.3157 -0.2401
5 24 29 38.1445 0.6916
5 24 32 7.5742 0.5982
5 24 35 17.2877 -0.8719
5 24 38 7.0554 -0.9259
5 24 41 5.6683 0.7658
5 24 44 4.4128 0.6589
5 24 47 9.6853 -0.4555
5 24 50 3.2164 -0.4850
5 25 -47 1.4890 -0.3364
5 25 -44 11.4064 -1.0718
5 25 -41 16.4562 0.2734
5 25 -38 6.2030 0.5337
5 25 -35 2.8672 -0.1996
5 25 -32 18.5663 -0.9679
5 25 -29 -16.5733 0.0344
5 25 -26 -1.3965 0.6451
5 25 -23 -7.1421 0.3233
5 25 -20 2.6550 -0.7545
5 25 -17 2.4780 -0.7161
5 25 -14 24.5048 0.7292
5 25 -11 -53.0429 0.7218
5 25 -8 74.0761 -0.3844
5 25 -5 -45.5369 -1.0603
5 25 -2 -27.2601 0.1308
5 25 1 -29.3492 1.0481
5 25 4 -5.4220 0.2680
5 25 7 0.6303 -0.9302
5 25 10 5.1263 -0.5863
5 25 13 -8.0799 0.8098
5 25 16 56.1142 0.6138
5 25 19 -8.4853 -0.6106
5 25 22 8.5783 -0.6585
5 25 25 -10.2644 0.4047
5 25 28 21.6165 0.6668
5 25 31 -7.5796 -0.0676
5 25 34 -4.8144 -0.5922
5 25 37 -5.9450 -0.2913
5 25 40 3.9587 0.5955
5 25 43 -9.6060 -0.1607
5 25 46 -4.3129 -0.3291
5 25 49 -3.2991 1.0863
5 26 -48 -0.0064 -1.1042
5 26 -45 6.6694 1.2217
5 26 -42 6.5948 -0.3532
5 26 -39 16.7503 0.0769
5 26 -36 -3.7259 -0.1490
5 26 -33 -3.5037 0.4414
5 26 -30 -1.2392 0.3150
5 26 -27 -18.7608 -0.5281
5 26 -24 -13.6120 -0.8109
5 26 -21 4.6380 0.5002
5 26 -18 40.6448 0.8016
5 26 -15 -31.1547 -0.2503
5 26 -12 26.8071 -0.8829
5 26 -9 -7.5655 -0.2793
5 26 -6 9.9396 1.0797
5 26 -3 19.7190 0.5891
5 26 0 7.0154 -1.1090
5 26 3 12.8119 -0.7967
5 26 6 40.2828 1.0686
5 26 9 -10.0155 1.1225
5 26 12 -32.7734 -0.6628
5 26 15 34.5267 -1.3082
5 26 18 -37.3675 0.0297
5 26 21 -8.9328 1.5803
5 26 24 4.5415 0.3926
5 26 27 -32.2976 -1.3216
5 26 30 4.6333 -0.5410
5 26 33 -3.9333 1.5291
5 26 36 -7.2377 1.2575
5 26 39 9.9060 -1.1536
5 26 42 11.2193 -1.3902
5 26 45 7.3835 0.4763
5 26 48 5.4451 0.4212
5 27 -46 12.0356 -0.5095
5 27 -43 8.3301 -0.0215
5 27 -40 -8.1642 -0.4207
5 27 -37 1.3447 0.0999
5 27 -34 -2.7461 -0.0528
5 27 -31 -12.5803 -0.3189
5 27 -28 0.9369 -0.1449
5 27 -25 14.9881 0.3287
5 27 -22 -2.6821 0.3292
5 27 -19 23.7099 -0.1969
5 27 -16 -28.1276 -0.3330
5 27 -13 -6.4785 -0.2307
5 27 -10 27.2439 0.4860
5 27 -7 -42.7603 0.3476
5 27 -4 10.7960 -0.6570
5 27 -1 -6.1065 -0.5026
5 27 2 -17.6264 0.4447
5 27 5 26.5952 0.7201
5 27 8 3.8912 -0.4190
5 27 11 -17.9094 -0.9159
5 27 14 22.4910 0.3556
5 27 17 -11.3582 0.8077
5 27 20 -10.7224 0.0622
5 27 23 48.2247 -0.8255
5 27 26 -3.0446 -0.4994
5 27 29 14.7716 0.3787
5 27 32 6.4434 0.6425
5 27 35 -8.6339 -0.4656
5 27 38 8.8234 -0.8224
5 27 41 5.2036 -0.0814
5 27 44 -8.5269 0.8051
5 27 47 3.2935 -1.0375
5 28 -44 -1.8024 -0.8527
5 28 -41 0.6154 1.3401
5 28 -38 -15.4320 -0.2225
5 28 -35 -0.3685 -0.5124
5 28 -32 1.5094 -0.6570
5 28 -29 -24.6045 0.4246
5 28 -26 32.1470 0.7022
5 28 -23 3.2773 -0.3325
5 28 -20 0.1326 -1.2798
5 28 -17 7.5070 0.1825
5 28 -14 8.0058 1.4185
5 28 -11 -40.2844 0.0254
5 28 -8 50.6536 -1.4014
5 28 -5 -52.7481 -0.4660
5 28 -2 36.9470 1.2538
5 28 1 27.2777 1.1165
5 28 4 -4.2171 -0.9802
5 28 7 19.3753 -1.4256
5 28 10 19.0316 0.5837
5 28 13 -24.9731 1.7300
5 28 16 24.2574 -0.0431
5 28 19 -22.5496 -1.4863
5 28 22 3.3709 -0.3858
5 28 25 -0.2443 1.0805
5 28 28 -0.8148 0.7371
5 28 31 -4.6106 -1.2083
5 28 34 0.6958 -1.1193
5 28 37 -0.7176 1.6343
5 28 40 -1.2593 0.4897
5 28 43 1.1344 -0.0245
5 29 -42 2.7034 0.3666
5 29 -39 -1.0870 0.2341
5 29 -36 -24.6200 -0.4939
5 29 -33 10.4796 0.2849
5 29 -30 -9.0199 -0.0832
5 29 -27 4.7092 0.0175
5 29 -24 10.8591 -0.0012
5 29 -21 -2.1721 -0.0149
5 29 -18 8.9012 0.3354
5 29 -15 1.4341 0.1372
5 29 -12 15.7477 -0.0494
5 29 -9 41.3396 -0.2569
5 29 -6 7.7478 0.0514
5 29 -3 16.0354 0.1494
5 29 0 4.2076 -0.0751
5 29 3 -4.6908 -0.3056
5 29 6 -17.5639 0.1512
5 29 9 9.3613 0.4224
5 29 12 -9.0507 0.0159
5 29 15 27.9595 -0.6599
5 29 18 8.0579 -0.1079
5 29 21 -2.1606 0.6693
5 29 24 11.5319 0.0922
5 29 27 -3.6933 -0.2670
5 29 30 0.2730 -0.0315
5 29 33 -6.3699 0.1761
5 29 36 12.7872 0.1943
5 29 39 7.1819 -0.7540
5 29 42 2.3129 -0.3529
5 30 -40 1.1687 -0.0969
5 30 -37 -1.3004 0.7056
5 30 -34 -0.1059 0.0684
5 30 -31 15.3551 -0.3779
5 30 -28 8.2418 -0.6590
5 30 -25 -2.2868 0.0604
5 30 -22 8.1362 0.6319
5 30 -19 -14.9532 -0.3233
5 30 -16 -17.6324 -0.7746
5 30 -13 13.1316 -0.0589
5 30 -10 16.8347 0.6802
5 30 -7 -13.5017 0.2987
5 30 -4 11.6270 -0.9719
5 30 -1 -4.3336 -0.3102
5 30 2 6.4312 1.0192
5 30 5 7.5074 0.6881
5 30 8 -11.2038 -0.7068
5 30 11 -2.8250 -0.5055
5 30 14 9.9552 0.3945
5 30 17 14.5496 0.3445
5 30 20 -4.4920 -0.2187
5 30 23 9.0551 -0.9450
5 30 26 -7.8483 -0.1903
5 30 29 8.6874 0.8512
5 30 32 -14.9569 0.4564
5 30 35 9.9739 -1.0390
5 30 38 -5.1264 0.3803
5 30 41 -4.9125 -0.1112
5 31 -41 -5.0553 0.4741
5 31 -38 -7.4951 0.1387
5 31 -35 0.9468 -0.4968
5 31 -32 -7.3700 -0.4941
5 31 -29 2.9910 -0.0709
5 31 -26 0.9974 0.1898
5 31 -23 -1.9614 -0.3311
5 31 -20 -7.3439 -0.1379
5 31 -17 6.7451 0.3043
5 31 -14 14.2207 0.2534
5 31 -11 -2.5098 -0.1858
5 31 -8 26.2917 -0.6491
5 31 -5 -7.3435 -0.1469
5 31 -2 4.6969 0.4683
5 31 1 25.1009 0.3806
5 31 4 0.0012 -0.6154
5 31 7 9.1291 -0.4088
5 31 10 11.0855 0.6426
5 31 13 -23.6651 0.3799
5 31 16 14.6204 -0.2882
5 31 19 -14.6900 -0.3952
5 31 22 -1.4017 0.6887
5 31 25 -0.9515 0.0015
5 31 28 8.7939 -0.5517
5 31 31 -2.4138 -0.0319
5 31 34 -3.8954 -0.6747
5 31 37 -4.7273 1.1408
5 31 40 -0.1422 -0.2263
5 32 -39 -0.9571 0.1184
5 32 -36 -1.5304 -0.2015
5 32 -33 11.0872 0.2628
5 32 -30 5.5929 0.1288
5 32 -27 0.3493 0.0453
5 32 -24 2.4035 -0.6694
5 32 -21 -2.6942 -0.2411
5 32 -18 11.0694 0.4984
5 32 -15 -1.6731 -0.1893
5 32 -12 3.4794 -0.6662
5 32 -9 0.9686 -0.0098
5 32 -6 -8.6129 0.4542
5 32 -3 -9.3344 -0.2085
5 32 0 5.7538 -0.4423
5 32 3 8.0473 0.2098
5 32 6 -2.7212 0.3327
5 32 9 18.7347 -0.2328
5 32 12 8.7243 -0.3532
5 32 15 1.3971 -0.0111
5 32 18 1.3941 0.2461
5 32 21 -6.9596 0.4583
5 32 24 0.8191 -0.3320
5 32 27 8.8636 -0.5793
5 32 30 4.2932 0.1235
5 32 33 13.0044 -0.1292
5 32 36 6.0789 -0.3307
5 32 39 0.8987 0.4912
5 33 -37 -5.6477 -0.4586
5 33 -34 -1.8963 0.2495
5 33 -31 10.7590 -1.0478
5 33 -28 -12.6135 0.1084
5 33 -25 -0.4001 0.6209
5 33 -22 14.4978 0.2565
5 33 -19 -17.0062 -0.9927
5 33 -16 -2.3347 -0.2885
5 33 -13 12.1738 0.7252
5 33 -10 -1.3253 0.8072
5 33 -7 10.4518 -0.6235
5 33 -4 -4.6059 -1.2291
5 33 -1 24.8774 0.3086
5 33 2 6.9115 1.3434
5 33 5 9.0074 0.1011
5 33 8 -6.9260 -1.3976
5 33 11 15.9882 -0.4026
5 33 14 0.6923 1.3299
5 33 17 -5.4812 0.1738
5 33 20 -5.0736 -1.4455
5 33 23 12.4890 -0.6252
5 33 26 -7.1803 0.6019
5 33 29 -5.8122 1.3434
5 33 32 -10.3917 -0.1996
5 33 35 -4.9572 -0.1146
5 34 -35 12.5692 -0.7388
5 34 -32 -0.8274 0.0016
5 34 -29 -0.1765 0.5470
5 34 -26 -2.4958 0.3245
5 34 -23 11.4084 -0.5252
5 34 -20 -9.4411 -0.1222
5 34 -17 8.4317 -0.0835
5 34 -14 5.5753 0.4117
5 34 -11 -1.7574 -0.2768
5 34 -8 10.4822 -0.4608
5 34 -5 -17.1502 -0.0133
5 34 -2 15.5710 0.5402
5 34 1 14.6970 -0.0060
5 34 4 -17.2499 -0.7752
5 34 7 -5.1927 -0.2798
5 34 10 -6.1201 0.4278
5 34 13 -2.1910 0.3749
5 34 16 11.3835 -0.5773
5 34 19 12.9756 -0.6989
5 34 22 24.6693 0.2471
5 34 25 -8.5266 0.5744
5 34 28 -6.2302 -0.8416
5 34 31 0.0079 -0.9557
5 34 34 -7.6354 0.9088
5 35 -30 -17.5754 0.6529
5 35 -27 13.0410 -0.6124
5 35 -24 -21.2700 -0.5535
5 35 -21 -1.7886 1.2057
5 35 -18 1.1737 0.9974
5 35 -15 -12.2235 -0.4705
5 35 -12 16.8198 -0.7640
5 35 -9 10.8199 0.6591
5 35 -6 -14.1371 0.4021
5 35 -3 23.4877 -0.3202
5 35 0 7.0368 -0.7584
5 35 3 -8.1317 0.0055
5 35 6 6.2292 0.7414
5 35 9 -0.7727 0.0827
5 35 12 0.7749 -1.2154
5 35 15 3.0153 -0.1822
5 35 18 -2.0697 1.3830
5 35 21 0.8410 1.0429
5 35 24 -9.1680 -0.0628
5 35 27 -8.1836 -0.3418
5 35 30 5.9677 -1.2187
5 36 -28 -5.7875 0.3541
5 36 -25 3.9094 0.1388
5 36 -22 -2.3280 -0.6235
5 36 -19 -0.8652 -0.1233
5 36 -16 2.1270 -0.1488
5 36 -13 17.2332 0.7507
5 36 -10 -8.8871 0.3149
5 36 -7 -8.3381 -0.3814
5 36 -4 13.6955 0.1852
5 36 -1 -6.4955 0.4551
5 36 2 -11.3600 0.1691
5 36 5 13.1544 -0.2238
5 36 8 -10.6406 -0.5582
5 36 11 27.1522 -0.1887
5 36 14 2.0856 0.2141
5 36 17 4.0073 0.8326
5 36 20 -8.0760 -1.2511
5 36 23 2.1613 -0.1516
5 36 26 -18.0672 0.8973
5 36 29 4.6909 0.0718
5 37 -26 -0.9039 0.5801
5 37 -23 4.2658 -0.6135
5 37 -20 -14.1555 -0.5993
5 37 -17 3.8330 0.7950
5 37 -14 1.4579 0.9061
5 37 -11 -13.0428 -0.4547
5 37 -8 4.3579 -1.0352
5 37 -5 2.4704 0.1918
5 37 -2 8.5161 0.9491
5 37 1 -5.0543 -0.2373
5 37 4 -3.4593 -0.8467
5 37 7 15.7873 -0.4452
5 37 10 21.3633 0.6320
5 37 13 -2.3577 0.3170
5 37 16 -1.1678 -1.2095
5 37 19 -7.0981 -0.3902
5 37 22 -7.0360 -0.8644
5 37 25 -9.6243 -0.6874
5 38 -21 9.3764 0.0366
5 38 -18 -2.7270 0.1960
5 38 -15 -5.2972 -0.1643
5 38 -12 -3.3984 -0.0704
5 38 -9 -9.5913 0.3601
5 38 -6 -3.8094 -0.4273
5 38 -3 2.8934 0.0311
5 38 0 -2.9741 0.2303
5 38 3 -3.4288 0.1318
5 38 6 3.3788 0.2404
5 38 9 0.7376 -0.1949
5 38 12 -1.3761 0.2706
5 38 15 -1.8937 0.6529
5 38 18 1.1708 1.2935
5 38 21 -2.5420 -0.5476
5 39 -19 -0.0847 1.4611
5 39 -16 -10.5382 -0.9320
5 39 -13 -0.9833 1.1073
5 39 -10 -10.0920 0.7208
5 39 -7 10.6115 -0.5667
5 39 -4 3.8471 -0.3507
5 39 -1 8.8207 0.4666
5 39 2 16.9636 0.5619
5 39 5 4.0770 -0.3971
5 39 8 5.4765 -0.3038
5 39 11 0.5064 -0.4221
5 39 14 -11.7165 -1.0463
5 39 17 6.0340 -0.4639
5 40 -14 0.8849 -0.6577
5 40 -11 -5.5118 -0.0479
5 40 -8 11.9573 -0.2684
5 40 -5 -8.1602 0.6190
5 40 -2 1.0023 0.5146
5 40 1 2.7692 -0.5581
5 40 4 -9.4220 -0.9468
5 40 7 14.5759 0.6448
5 40 10 0.4494 0.2890
5 40 13 -15.1148 -0.0635
5 41 -3 8.4222 0.9671
5 41 0 2.5245 0.1905
5 41 3 -6.0261 -1.0258
6 1 -61 -4.5608 -0.3990
6 1 -58 11.6720 4.2265
6 1 -55 -6.1798 1.3859
6 1 -52 3.0178 -4.8305
6 1 -49 1.2847 -2.9676
6 1 -46 28.6190 4.3578
6 1 -43 -22.9304 5.5915
6 1 -40 40.3125 -3.3492
6 1 -37 -30.3153 -8.0736
6 1 -34 14.8014 1.4397
6 1 -31 -17.3342 9.7008
6 1 -28 37.9929 -0.0081
6 1 -25 -42.4539 -10.0413
6 1 -22 -87.9375 -2.8428
6 1 -19 -107.3657 8.6505
6 1 -16 113.9850 6.6968
6 1 -13 -121.5616 -6.6602
6 1 -10 70.9967 -10.5838
6 1 -7 -62.0977 4.5923
6 1 -4 467.4694 13.0021
6 1 -1 -83.1653 -0.8006
6 1 2 368.4074 -11.7525
6 1 5 -99.6423 -1.4206
6 1 8 287.2498 11.2377
6 1 11 207.3565 5.6222
6 1 14 -32.4443 -8.3941
6 1 17 33.2763 -8.9269
6 1 20 117.8524 5.5984
6 1 23 -143.6002 10.2521
6 1 26 -19.0368 -3.0204
6 1 29 -72.0713 -10.5327
6 1 32 -20.5198 -0.4868
6 1 35 -31.0076 8.7043
6 1 38 23.3788 2.5287
6 1 41 -28.7935 -6.8328
6 1 44 46.5186 -4.0180
6 1 47 3.0939 4.6828
6 1 50 26.4222 4.8112
6 1 53 -1.4475 -2.8152
6 1 56 18.9251 -4.6915
6 1 59 -5.1473 0.5701
6 1 62 13.7334 3.8904
6 2 -62 -0.6891 0.5818
6 2 -59 1.2808 1.2780
6 2 -56 -21.9087 -0.1619
6 2 -53 20.3225 -1.5396
6 2 -50 -2.8319 -0.4992
6 2 -47 -5.6629 2.0323
6 2 -44 -8.5236 1.0661
6 2 -41 -31.6964 -2.2294
6 2 -38 15.2265 -2.3399
6 2 -35 -3.0890 1.8377
6 2 -32 -53.2323 3.2733
6 2 -29 31.0676 -1.3871
6 2 -26 -41.0497 -3.6907
6 2 -23 17.6358 -0.4425
6 2 -20 39.8206 3.8222
6 2 -17 157.0963 2.5020
6 2 -14 22.5567 -3.9034
6 2 -11 141.3786 -3.8240
6 2 -8 176.0750 4.0175
6 2 -5 -106.3944 4.4591
6 2 -2 280.8821 -2.8588
6 2 1 -467.8312 -4.6203
6 2 4 -236.7086 0.1747
6 2 7 22.9874 4.2237
6 2 10 -73.0294 2.1851
6 2 13 4.9266 -3.3639
6 2 19 6.2232 3.3888
6 2 22 52.1549 3.7990
6 2 25 87.9361 -2.2343
6 2 28 -8.7181 -3.1937
6 2 31 24.1236 0.7612
6 2 34 20.3169 2.7799
6 2 37 -60.0961 0.1932
6 2 40 34.5228 -2.7271
6 2 43 -5.2982 -1.1639
6 2 46 8.2644 1.8698
6 2 49 -10.2931 1.4452
6 2 52 -36.3191 -1.2830
6 2 55 21.6589 -1.6417
6 2 58 -0.7986 0.2026
6 2 61 -1.2301 1.0496
6 3 -63 3.0827 1.7777
6 3 -60 -0.5194 1.0277
6 3 -57 4.8229 -2.0202
6 3 -54 5.3022 -1.0226
6 3 -51 -6.8928 2.4227
6 3 -48 -16.4955 1.9273
6 3 -45 -7.3902 -2.2518
6 3 -42 -32.9493 -2.8138
6 3 -39 -1.7357 1.8730
6 3 -36 -12.5619 3.8110
6 3 -33 -30.1813 -0.5995
6 3 -30 20.1032 -4.4630
6 3 -27 44.5704 -0.4614
6 3 -24 -36.4768 5.5980
6 3 -21 52.8623 2.5887
6 3 -18 -107.1861 -4.6337
6 3 -15 50.5781 -3.4459
6 3 -12 44.2793 5.0331
6 3 -9 73.7150 6.0185
6 3 -6 -300.7826 -2.8754
6 3 -3 127.5892 -5.4586
6 3 0 31.4445 2.0866
6 3 3 8.9409 6.5364
6 3 6 456.4614 0.6498
6 3 9 53.2761 -6.6229
6 3 12 -72.6847 -3.2917
6 3 15 114.1964 5.4193
6 3 18 -145.9374 3.4025
6 3 21 64.0252 -5.3324
6 3 24 72.9045 -4.7145
6 3 27 -72.2124 2.9114
6 3 30 -34.3138 3.9609
6 3 33 26.9083 -1.6078
6 3 36 -48.6607 -4.1651
6 3 39 26.3980 -0.0926
6 3 42 -9.2761 3.7485
6 3 45 -14.3755 0.5606
6 3 48 22.6591 -2.8054
6 3 51 -2.1207 -1.3145
6 3 54 7.5912 2.3136
6 3 57 4.4587 1.3339
6 3 60 -13.5849 -1.2464
6 3 63 0.5637 -1.5399
6 4 -61 -7.4429 0.7925
6 4 -58 -1.8162 0.5639
6 4 -55 -6.2819 -1.0955
6 4 -52 8.7102 -0.5458
6 4 -49 -1.0843 0.6554
6 4 -46 -3.1196 0.8801
6 4 -43 -17.4156 -0.6083
6 4 -40 8.3439 -1.4209
6 4 -37 -8.6056 0.5969
6 4 -34 17.8397 1.7703
6 4 -31 -8.6488 -0.7716
6 4 -28 -11.5518 -2.0837
6 4 -25 29.8664 0.6230
6 4 -22 65.2206 2.0558
6 4 -19 -10.8019 -0.4325
6 4 -16 103.2514 -2.2073
6 4 -13 -116.5894 -0.3095
6 4 -10 7.9475 2.1179
6 4 -7 -61.1846 0.7670
6 4 -4 250.1031 -1.9432
6 4 -1 -24.9665 -2.0647
6 4 2 509.9474 0.1444
6 4 5 -285.9935 1.0883
6 4 8 110.2870 -0.9914
6 4 11 -197.6864 -2.3938
6 4 14 9.2697 -0.6269
6 4 17 -32.3242 2.0234
6 4 20 -72.3928 1.1575
6 4 23 57.9592 -2.0023
6 4 26 16.1050 -1.6608
6 4 29 -5.2378 1.3784
6 4 32 13.4326 1.9353
6 4 35 -1.4916 -0.5466
6 4 38 9.4024 -1.6300
6 4 41 -0.4499 -0.1434
6 4 44 12.9819 1.5240
6 4 47 2.7791 0.5949
6 4 50 14.4969 -1.0878
6 4 53 6.9466 -0.7299
6 4 56 13.0850 1.1776
6 4 59 5.4879 1.1707
6 4 62 5.4777 -0.3621
6 5 -62 -11.2882 0.4322
6 5 -59 11.0987 0.2923
6 5 -56 1.0891 -0.0311
6 5 -53 6.6633 0.2824
6 5 -50 -19.1099 0.0980
6 5 -47 -2.0787 -0.3515
6 5 -44 -26.9171 -0.2499
6 5 -41 -3.6176 0.3383
6 5 -38 -23.2259 0.3796
6 5 -35 -12.6158 -0.0344
6 5 -32 -20.8577 -1.0051
6 5 -29 30.7348 0.0219
6 5 -26 -0.6664 1.5727
6 5 -23 141.7317 0.5982
6 5 -20 -113.6962 -1.1143
6 5 -17 71.5851 0.1420
6 5 -14 -20.0966 1.6921
6 5 -11 -144.5318 1.0826
6 5 -8 205.9978 -0.3778
6 5 -5 -64.4909 -0.9668
6 5 -2 -26.5784 0.5297
6 5 1 113.5339 1.9458
6 5 4 -255.5077 0.3565
6 5 7 148.9367 -1.6721
6 5 10 -306.5999 -0.6037
6 5 13 -3.7214 1.8255
6 5 16 12.8296 0.8884
6 5 19 92.2576 -1.9317
6 5 22 23.0603 -1.6632
6 5 25 14.4367 0.8787
6 5 28 -22.4968 1.0377
6 5 31 21.7213 -0.8804
6 5 34 22.9740 -1.5708
6 5 37 4.0340 -0.2258
6 5 40 32.0362 1.4741
6 5 43 -17.4946 0.6489
6 5 46 -5.4538 -1.3704
6 5 49 -0.3324 -0.9260
6 5 52 13.6010 1.2712
6 5 55 7.0787 0.9432
6 5 58 -0.6399 -0.6868
6 5 61 -0.3403 -1.5441
6 6 -60 -5.2963 -0.1291
6 6 -57 4.3663 -0.0203
6 6 -54 -4.6142 0.7353
6 6 -51 -5.8603 -0.1104
6 6 -48 -4.4573 -1.0504
6 6 -45 6.5880 -0.1403
6 6 -42 -10.2765 1.4179
6 6 -39 31.1934 0.8648
6 6 -36 -12.8279 -1.0846
6 6 -33 18.1392 -1.5469
6 6 -30 22.1976 1.2283
6 6 -27 4.7291 2.3004
6 6 -24 -51.1401 -0.3760
6 6 -21 -30.5906 -2.6283
6 6 -18 -103.8210 -0.3632
6 6 -15 94.3179 2.6895
6 6 -12 -96.1179 0.8775
6 6 -9 -33.8147 -3.0883
6 6 -6 84.6553 -2.6661
6 6 -3 47.0783 1.6482
6 6 0 149.5364 2.6686
6 6 3 -107.5243 -1.9470
6 6 6 340.3295 -4.3726
6 6 9 -14.6576 -0.2974
6 6 12 13.2152 3.7272
6 6 15 140.5948 1.2111
6 6 18 16.4552 -3.2751
6 6 21 46.1155 -1.4386
6 6 24 -33.0850 2.9755
6 6 27 -26.7365 2.6600
6 6 30 12.8248 -1.2516
6 6 33 25.1906 -2.8980
6 6 36 -40.7727 0.3053
6 6 39 -1.6556 3.1429
6 6 42 -6.9550 0.5602
6 6 45 1.2813 -2.7599
6 6 48 13.4024 -1.1944
6 6 51 -0.0712 1.8042
6 6 54 -0.0637 1.6702
6 6 57 10.3818 -0.6258
6 6 60 3.3157 -1.3879
6 7 -61 0.6407 1.0838
6 7 -58 -5.1778 0.0722
6 7 -55 -3.5323 -1.2665
6 7 -52 -1.4251 -0.6107
6 7 -49 -1.8539 1.5208
6 7 -46 -21.0170 1.4335
6 7 -43 12.8570 -1.2993
6 7 -40 -17.1947 -2.0410
6 7 -37 1.1947 1.2042
6 7 -34 -12.7472 2.7980
6 7 -31 -16.1494 -0.2713
6 7 -28 2.9369 -2.9138
6 7 -25 68.5901 -0.7203
6 7 -22 -110.6394 2.9475
6 7 -19 124.5843 1.9271
6 7 -16 93.4154 -3.0086
6 7 -13 34.3196 -3.2916
6 7 -10 -39.0705 2.0977
6 7 -7 -11.4296 3.4984
6 7 -4 -0.5618 -1.1670
6 7 -1 38.7609 -4.0055
6 7 2 -30.0233 -0.7241
6 7 5 -168.9182 3.6919
6 7 8 157.7628 2.3474
6 7 11 -14.7623 -3.2287
6 7 14 -155.9717 -3.2167
6 7 17 40.3538 2.2780
6 7 20 -89.7078 3.6297
6 7 23 -25.6260 -1.1641
6 7 26 -32.0492 -3.5028
6 7 29 -5.0211 0.0637
6 7 32 9.1986 3.4258
6 7 35 57.2418 1.1524
6 7 38 -27.5160 -2.8208
6 7 41 22.4520 -2.1276
6 7 44 29.0077 2.1796
6 7 47 -1.3743 2.1172
6 7 50 14.8986 -1.3576
6 7 53 -1.8806 -2.4962
6 7 56 -8.5676 0.3789
6 7 59 -9.3557 1.8635
6 7 62 -2.7149 0.8825
6 8 -62 -5.7391 0.2836
6 8 -59 4.5792 -0.7759
6 8 -56 -9.3084 -0.7362
6 8 -53 5.4320 -0.2113
6 8 -50 -2.8288 1.3265
6 8 -47 0.7472 0.1617
6 8 -44 -9.5525 -1.8655
6 8 -41 26.9752 -0.7854
6 8 -38 -29.7937 2.1212
6 8 -35 22.2219 1.7180
6 8 -32 5.5167 -1.7135
6 8 -29 32.1524 -2.3089
6 8 -26 20.3542 1.2394
6 8 -23 21.4923 3.0962
6 8 -20 -133.3406 -0.0160
6 8 -17 95.3939 -3.5262
6 8 -14 -161.4902 -1.2160
6 8 -11 -153.2019 3.3617
6 8 -8 76.8442 2.2085
6 8 -5 -121.0206 -2.6601
6 8 -2 44.3068 -3.2526
6 8 1 37.4463 1.5503
6 8 4 -121.6160 4.1303
6 8 7 159.7506 -0.2699
6 8 10 60.9288 -4.2019
6 8 13 82.2858 -0.9656
6 8 16 138.6241 3.6565
6 8 19 30.7586 1.8300
6 8 22 -50.4888 -2.7979
6 8 25 31.4407 -2.4713
6 8 28 7.7461 1.8987
6 8 31 -1.3151 3.0362
6 8 34 26.6443 -0.7310
6 8 37 -29.3238 -2.6179
6 8 40 -26.1674 0.1178
6 8 43 -1.9377 2.3457
6 8 46 -8.7994 0.6267
6 8 49 2.5378 -1.5685
6 8 52 0.0314 -1.5219
6 8 55 -12.0863 0.9235
6 8 58 5.4765 0.2923
6 8 61 1.0527 0.0660
6 9 -60 -11.2666 -0.3006
6 9 -57 9.6676 0.2949
6 9 -54 0.1263 0.3338
6 9 -51 -9.0638 -0.0776
6 9 -48 14.0835 -0.4500
6 9 -45 2.9275 -0.2558
6 9 -42 -14.8470 0.4267
6 9 -39 8.3515 0.4076
6 9 -36 -49.5764 -0.5413
6 9 -33 32.7168 -0.5586
6 9 -30 2.0186 0.5681
6 9 -27 -56.4555 0.5343
6 9 -24 -11.8551 -0.4144
6 9 -21 66.3335 -0.7891
6 9 -18 -79.1549 -0.2954
6 9 -15 66.1931 0.4107
6 9 -12 -48.5307 0.0666
6 9 -9 -30.6653 -1.0152
6 9 -6 219.5670 -0.9988
6 9 -3 25.3111 0.6443
6 9 0 50.0072 1.2000
6 9 3 223.0158 -0.4116
6 9 6 57.3245 -0.9853
6 9 9 -88.9578 0.0486
6 9 12 -69.0647 1.0853
6 9 15 -64.6271 0.7415
6 9 18 -96.6891 -0.3835
6 9 21 -19.0261 -0.6018
6 9 24 -49.6531 0.5319
6 9 27 42.6330 0.7642
6 9 30 -7.7192 -0.4883
6 9 33 -18.5940 -0.6302
6 9 36 9.7643 0.0488
6 9 39 19.8369 0.2860
6 9 42 3.6647 -0.0821
6 9 45 12.8827 -0.2722
6 9 48 4.1464 0.0132
6 9 51 4.0291 0.0852
6 9 54 5.2105 0.2102
6 9 57 -1.3652 -0.6084
6 9 60 1.9491 -1.0617
6 10 -61 -3.3235 -1.2059
6 10 -58 1.3197 -0.7105
6 10 -55 13.7199 -0.1938
6 10 -52 -2.0944 0.3804
6 10 -49 5.4916 -0.4271
6 10 -46 -3.1111 -0.1790
6 10 -43 6.5019 0.3034
6 10 -40 -18.9390 0.3809
6 10 -37 28.6177 -0.4096
6 10 -34 -5.1524 -0.4474
6 10 -31 43.3365 0.1493
6 10 -28 -1.7718 0.4817
6 10 -25 30.7512 -0.2467
6 10 -22 55.9411 -0.4044
6 10 -19 85.6080 -0.0255
6 10 -16 -123.7803 0.4694
6 10 -13 -69.0754 0.1875
6 10 -7 84.8089 -0.1197
6 10 -4 132.3930 1.3216
6 10 -1 -188.6898 0.1385
6 10 2 238.5271 -0.9953
6 10 5 -53.8060 0.1956
6 10 8 -70.0151 0.9167
6 10 11 -11.2922 0.2010
6 10 14 -102.0246 -0.6940
6 10 17 62.7233 -0.7129
6 10 20 38.6743 0.6904
6 10 23 13.0145 0.8588
6 10 26 102.3241 -0.8545
6 10 29 85.2508 -0.8394
6 10 32 -49.4345 0.8045
6 10 35 12.0288 0.7614
6 10 38 -44.4642 -0.5886
6 10 41 2.5634 -0.8717
6 10 44 -13.5426 0.3781
6 10 47 -17.8112 0.9592
6 10 50 -10.9184 0.0972
6 10 53 -8.9806 -1.0849
6 10 56 -7.3826 -0.0370
6 10 59 5.1683 0.9349
6 11 -59 9.3630 -1.2483
6 11 -56 -5.0711 -0.5169
6 11 -53 6.0234 0.4033
6 11 -50 -11.9572 0.6583
6 11 -47 2.4910 -0.8430
6 11 -44 4.9794 -0.7913
6 11 -41 2.0738 0.4428
6 11 -38 -34.8761 0.9584
6 11 -35 46.1622 -0.4056
6 11 -32 -27.7318 -1.3073
6 11 -29 30.2843 -0.0844
6 11 -26 -27.1973 1.0254
6 11 -23 -3.6546 0.5609
6 11 -20 -125.5745 -1.1901
6 11 -17 54.1340 -1.1580
6 11 -14 -91.7595 0.7430
6 11 -11 84.2270 0.9854
6 11 -8 200.2368 -0.8198
6 11 -5 43.9943 -1.4102
6 11 -2 11.0684 0.4871
6 11 1 208.8278 1.4600
6 11 4 1.4076 -0.1419
6 11 7 126.7703 -1.6277
6 11 10 44.5949 -0.4067
6 11 13 -52.6515 1.2597
6 11 16 11.4131 0.6411
6 11 19 17.4932 -0.9272
6 11 22 -41.0034 -0.9246
6 11 25 14.4135 1.1203
6 11 28 7.0165 1.0395
6 11 31 -32.0006 -0.9515
6 11 34 -21.3587 -0.8208
6 11 37 -15.6809 0.8726
6 11 40 9.6310 0.7499
6 11 43 10.1403 -0.4759
6 11 46 3.0805 -0.7965
6 11 49 12.3661 0.2717
6 11 52 7.0112 0.8877
6 11 55 9.2404 0.5529
6 11 58 8.4370 -1.0804
6 12 -60 -0.4843 0.4715
6 12 -57 1.7804 0.0511
6 12 -54 -3.9068 -0.1403
6 12 -51 4.6852 -0.1392
6 12 -48 6.7049 0.2140
6 12 -45 1.3743 0.1389
6 12 -42 -4.6810 -0.2194
6 12 -39 2.1411 -0.6227
6 12 -36 2.6496 -0.0100
6 12 -33 5.8053 0.6610
6 12 -30 -9.8903 -0.1567
6 12 -27 -35.4928 -1.1322
6 12 -24 30.0817 -0.3795
6 12 -21 8.3831 0.6479
6 12 -18 -61.8368 0.4184
6 12 -15 56.2333 -0.6221
6 12 -12 10.1232 -0.9772
6 12 -9 28.9182 0.0836
6 12 -6 137.3103 1.4136
6 12 -3 -43.0014 0.6427
6 12 0 50.5000 -1.1241
6 12 3 -36.4141 -0.6905
6 12 6 -172.0072 1.3485
6 12 9 -40.9237 1.1291
6 12 12 13.0001 -0.5771
6 12 15 6.6155 -1.3597
6 12 18 100.8194 -0.0435
6 12 21 -1.1896 1.4299
6 12 24 13.7083 0.4338
6 12 27 -37.2231 -1.7019
6 12 30 13.1177 -1.1062
6 12 33 -41.3022 1.0214
6 12 36 47.3884 0.9198
6 12 39 -15.7482 -0.6922
6 12 42 -7.8265 -1.3845
6 12 45 2.6399 -0.0412
6 12 48 2.4879 1.0162
6 12 51 -11.5566 0.2537
6 12 54 2.5930 -0.7460
6 12 57 -5.5645 -0.2012
6 12 60 4.4110 0.2166
6 13 -58 -3.4313 0.4873
6 13 -55 5.2438 -0.6712
6 13 -52 -4.7088 0.0593
6 13 -49 -4.9069 0.8285
6 13 -46 13.0199 0.2413
6 13 -43 -16.8811 -0.8527
6 13 -40 1.1750 -0.8561
6 13 -37 5.9151 0.6664
6 13 -34 -39.5860 1.1734
6 13 -31 38.0980 -0.6924
6 13 -28 6.1654 -1.3539
6 13 -25 -3.6628 0.4060
6 13 -22 60.3348 1.6138
6 13 -19 -76.1219 0.2537
6 13 -16 -90.5246 -1.6910
6 13 -13 167.4727 -1.0939
6 13 -10 -16.6285 1.6937
6 13 -7 86.7431 1.7544
6 13 -4 9.9963 -1.1757
6 13 -1 -82.2675 -1.9016
6 13 2 67.7636 0.8052
6 13 5 -21.1941 2.1304
6 13 8 -7.5906 -0.3865
6 13 11 150.5055 -2.5015
6 13 14 45.4443 -0.8215
6 13 17 83.9416 2.0424
6 13 20 26.0136 1.2102
6 13 23 46.2350 -1.6233
6 13 26 -35.7347 -1.3317
6 13 29 -40.3809 1.0218
6 13 32 -64.2342 1.4485
6 13 35 19.2985 -0.5149
6 13 38 3.0572 -1.6447
6 13 41 -6.5175 -0.2502
6 13 44 0.1833 1.2754
6 13 47 2.8368 0.5765
6 13 50 -5.3161 -0.9845
6 13 53 9.8653 -0.5602
6 13 56 -2.9858 1.0115
6 13 59 3.8468 1.4387
6 14 -59 -8.5245 -0.1649
6 14 -56 -0.0504 0.6109
6 14 -53 7.3867 0.5797
6 14 -50 2.4591 0.2115
6 14 -47 8.0608 -1.0775
6 14 -44 -13.7234 -0.0621
6 14 -41 -21.3722 0.9970
6 14 -38 -17.7382 0.4341
6 14 -35 20.4159 -1.1670
6 14 -32 -38.9722 -1.0648
6 14 -29 23.5415 0.6673
6 14 -26 -72.7800 1.0431
6 14 -23 -1.2528 -0.3539
6 14 -20 -2.1467 -1.6301
6 14 -17 49.4830 -0.4965
6 14 -14 21.7777 1.6811
6 14 -11 100.1473 0.4906
6 14 -8 18.7176 -2.0336
6 14 -5 -22.5156 -0.9037
6 14 -2 76.1418 2.0810
6 14 1 50.8569 1.4738
6 14 4 40.3268 -1.1255
6 14 7 64.9563 -1.8545
6 14 10 -84.5647 0.7172
6 14 13 30.6877 2.7112
6 14 16 -1.6464 0.1274
6 14 19 -84.4192 -2.2546
6 14 22 8.6208 -0.3746
6 14 25 1.9888 2.2690
6 14 28 -27.8703 1.0030
6 14 31 38.9527 -1.6859
6 14 34 -31.3144 -1.4322
6 14 37 12.4775 1.1025
6 14 40 17.8314 1.7001
6 14 43 -12.2326 -0.6044
6 14 46 10.3943 -1.9230
6 14 49 9.3921 0.0960
6 14 52 3.6331 1.3949
6 14 55 5.3315 -0.1612
6 14 58 9.4271 -0.9679
6 15 -57 -2.9745 -0.6201
6 15 -54 6.0559 -0.7364
6 15 -51 -10.2267 -0.3938
6 15 -48 -6.3571 0.5012
6 15 -45 -16.4252 0.7415
6 15 -42 -4.5692 -0.1192
6 15 -39 -18.9784 -0.8642
6 15 -36 4.7904 -0.0247
6 15 -33 6.0262 0.6910
6 15 -30 23.3196 0.5759
6 15 -27 2.8182 -0.4105
6 15 -24 68.9323 -0.8064
6 15 -21 -8.4619 0.2612
6 15 -18 45.1222 0.9345
6 15 -15 -26.5476 0.0668
6 15 -12 18.3693 -1.0631
6 15 -9 -15.6809 -0.6420
6 15 -6 -30.7074 0.8210
6 15 -3 -58.1222 1.3224
6 15 0 -86.5506 -0.2753
6 15 3 19.6518 -1.2719
6 15 6 34.0983 -0.0814
6 15 9 -38.8407 1.5645
6 15 12 56.2937 0.6427
6 15 15 -29.4071 -1.3674
6 15 18 -12.5721 -0.8320
6 15 21 -26.2289 0.8513
6 15 24 21.9011 0.9593
6 15 27 -22.3706 -0.3901
6 15 30 83.0187 -1.0176
6 15 33 -37.4355 -0.0281
6 15 36 14.6326 1.2662
6 15 39 -19.9829 0.6793
6 15 42 -11.9495 -0.7283
6 15 45 -24.8228 -0.5045
6 15 48 4.3608 0.3218
6 15 51 -7.9950 1.1536
6 15 54 -5.5017 -0.7556
6 15 57 -4.7913 -0.3657
6 16 -55 2.1013 -0.2675
6 16 -52 -5.9951 -0.5527
6 16 -49 1.5229 0.4425
6 16 -46 -1.8722 0.0707
6 16 -43 -15.0252 -0.5414
6 16 -40 13.2001 -0.1452
6 16 -37 -7.1969 0.6987
6 16 -34 22.2956 0.2241
6 16 -31 34.4875 -0.6673
6 16 -28 -37.1492 -0.4989
6 16 -25 -16.6189 0.4565
6 16 -22 -19.5061 1.0337
6 16 -19 -77.4536 -0.2986
6 16 -16 41.3405 -1.2822
6 16 -13 29.0695 0.1721
6 16 -10 -38.5281 1.4192
6 16 -7 18.1985 0.3053
6 16 -4 53.5763 -1.2181
6 16 -1 34.5676 -0.7183
6 16 2 118.5405 0.9511
6 16 5 73.9334 1.1211
6 16 8 -18.6160 -0.7236
6 16 11 52.0378 -1.2989
6 16 14 3.6905 0.5260
6 16 17 -7.9974 1.2627
6 16 20 8.9833 0.0167
6 16 23 -49.9622 -1.4155
6 16 26 -36.2729 -0.7378
6 16 29 19.3409 1.0202
6 16 32 -5.4556 0.7462
6 16 35 3.2534 -0.9189
6 16 38 -13.9832 -1.1844
6 16 41 -14.3029 0.4267
6 16 44 9.5700 0.9287
6 16 47 -6.9964 -0.4366
6 16 50 11.4446 -0.9278
6 16 53 1.6813 0.4997
6 16 56 9.7632 1.0109
6 17 -56 12.3204 0.2259
6 17 -53 -6.9427 -0.4360
6 17 -50 -7.4651 0.2790
6 17 -47 -18.2352 -0.2481
6 17 -44 -11.1624 0.4074
6 17 -41 -3.4295 0.1853
6 17 -38 6.6810 0.3887
6 17 -35 15.7792 -0.0373
6 17 -32 -29.5664 -0.0836
6 17 -29 21.5375 -0.0083
6 17 -26 -14.2953 0.2636
6 17 -23 61.5795 0.3198
6 17 -20 28.6311 -0.4310
6 17 -17 38.1434 -0.3222
6 17 -14 -8.2005 0.4010
6 17 -11 63.8529 0.3801
6 17 -8 -34.7002 -0.3478
6 17 -5 -30.0725 -0.6458
6 17 -2 46.4171 0.1473
6 17 1 -15.7840 0.7622
6 17 4 -93.9645 0.2464
6 17 7 -8.7577 -0.7145
6 17 10 -40.5880 -0.0317
6 17 13 21.9648 0.8155
6 17 16 23.9173 0.3822
6 17 19 -10.2437 -0.4640
6 17 22 41.1541 -0.3575
6 17 25 38.8176 0.1942
6 17 28 -60.0704 0.6118
6 17 31 15.7921 0.0087
6 17 34 -20.9219 -0.7432
6 17 37 5.1115 -0.0541
6 17 40 11.0478 0.3113
6 17 43 8.8126 -0.0803
6 17 46 1.3520 -0.4792
6 17 49 4.2686 -0.4794
6 17 52 5.8951 0.6193
6 17 55 -2.3145 0.3960
6 18 -54 -0.5688 -0.0915
6 18 -51 -17.1739 0.2266
6 18 -48 11.1175 0.4615
6 18 -45 1.6091 -0.0151
6 18 -42 11.7106 -0.5771
6 18 -39 -13.0908 -0.5580
6 18 -36 43.7629 0.3929
6 18 -33 -22.0700 0.7250
6 18 -30 15.7286 -0.0430
6 18 -27 -2.6345 -1.2186
6 18 -24 -20.3178 -0.2060
6 18 -21 -31.1938 1.3257
6 18 -18 -0.0181 0.6423
6 18 -15 -117.1284 -0.9619
6 18 -12 78.8313 -1.1635
6 18 -9 -88.3495 0.6963
6 18 -6 -20.1197 1.7677
6 18 -3 32.7726 -0.2324
6 18 0 68.8004 -1.8177
6 18 3 47.9071 -0.1361
6 18 6 -1.1120 1.7126
6 18 9 29.3404 0.8193
6 18 12 42.7273 -1.5589
6 18 15 -32.7736 -1.5751
6 18 18 35.6193 1.0770
6 18 21 -57.7091 1.6569
6 18 24 66.8561 -0.5738
6 18 27 -45.4161 -1.9438
6 18 30 -20.6647 0.1493
6 18 33 -18.2757 1.7586
6 18 36 -5.9856 0.7016
6 18 39 -21.3118 -1.3084
6 18 42 8.7848 -0.8885
6 18 45 -0.1390 0.9764
6 18 48 14.4224 1.1713
6 18 51 -5.0422 -1.2025
6 18 54 -4.8310 -1.2487
6 19 -55 -10.9344 -0.3589
6 19 -52 2.5132 0.4120
6 19 -49 -2.6663 0.5809
6 19 -46 -5.7563 0.2451
6 19 -43 -18.5921 -0.6012
6 19 -40 -2.4114 -0.2413
6 19 -37 -9.1536 0.0084
6 19 -34 15.4481 0.4215
6 19 -31 -37.4745 -0.2381
6 19 -28 -2.8364 -0.4719
6 19 -25 14.2569 0.3670
6 19 -22 37.3593 0.7382
6 19 -19 -0.8858 -0.3264
6 19 -16 46.2394 -0.7899
6 19 -13 40.0016 0.1553
6 19 -10 -4.1515 0.5550
6 19 -7 31.2323 0.0066
6 19 -4 5.3036 -0.6817
6 19 -1 -38.0873 -0.1025
6 19 2 44.3490 0.6094
6 19 5 -90.5120 0.2679
6 19 8 10.6962 -0.6034
6 19 11 32.5698 -0.2544
6 19 14 -28.4984 0.8342
6 19 17 6.8831 0.6235
6 19 20 -18.6816 -0.1521
6 19 23 -6.7679 -0.4468
6 19 26 63.4844 0.1105
6 19 29 -33.1979 0.5878
6 19 32 11.6509 0.0344
6 19 35 17.8634 -0.5353
6 19 38 -18.0873 -0.2411
6 19 41 17.6809 0.3219
6 19 44 8.9070 0.1222
6 19 47 -9.1460 0.0139
6 19 50 9.4921 -0.7461
6 19 53 2.9692 0.5184
6 20 -53 -8.2636 0.2767
6 20 -50 8.9938 -0.8161
6 20 -47 -5.3499 -0.2900
6 20 -44 1.8621 0.2548
6 20 -41 13.7309 -0.1002
6 20 -38 -6.5698 0.1282
6 20 -35 4.9033 -0.7000
6 20 -32 -18.5830 -0.5780
6 20 -29 28.2838 0.5905
6 20 -26 -6.5147 0.4455
6 20 -23 31.0196 -0.4309
6 20 -20 -63.9115 -0.5990
6 20 -17 -44.1406 0.3973
6 20 -14 1.8763 0.9019
6 20 -11 -80.8566 -0.0449
6 20 -8 7.9169 -1.2279
6 20 -5 -41.2165 -0.1156
6 20 -2 36.4171 1.2904
6 20 1 30.9744 0.3558
6 20 4 -2.2153 -1.2588
6 20 7 78.2564 -0.5657
6 20 10 6.6532 1.0947
6 20 13 18.1947 0.6261
6 20 16 18.1603 -0.9218
6 20 19 -5.3118 -1.2004
6 20 22 -34.9860 0.1465
6 20 25 8.6591 1.3897
6 20 28 -41.2357 -0.0639
6 20 31 50.5992 -1.4075
6 20 34 16.2644 -0.3044
6 20 37 23.1105 1.1698
6 20 40 -8.6634 0.3449
6 20 43 18.5618 -0.9009
6 20 46 -14.6250 -0.6339
6 20 49 7.0671 0.7461
6 20 52 3.9866 0.6134
6 21 -51 -4.6999 -0.2249
6 21 -48 3.6066 0.4436
6 21 -45 -11.9997 0.3231
6 21 -42 -13.5592 -0.6452
6 21 -39 -7.0105 -0.7979
6 21 -36 4.1761 0.3916
6 21 -33 -36.3168 0.4081
6 21 -30 24.0946 -0.4635
6 21 -27 -9.5345 -1.0532
6 21 -24 -25.5980 0.0690
6 21 -21 4.3651 1.1493
6 21 -18 -31.1459 0.1394
6 21 -15 32.4950 -1.3687
6 21 -12 23.4047 -0.6201
6 21 -9 -43.0089 0.8381
6 21 -6 108.7649 1.0349
6 21 -3 6.6148 -0.6731
6 21 0 36.5410 -1.5219
6 21 3 -32.7856 0.3327
6 21 6 -16.6714 1.5368
6 21 9 12.8028 0.1589
6 21 12 0.6369 -1.4990
6 21 15 -53.6220 -0.7584
6 21 18 59.8565 1.4334
6 21 21 -17.0248 1.0742
6 21 24 20.1767 -0.4406
6 21 27 -13.8268 -1.2371
6 21 30 18.7353 0.2666
6 21 33 -14.8845 1.5525
6 21 36 4.6903 0.2134
6 21 39 -12.8116 -1.5015
6 21 42 3.7534 -0.4558
6 21 45 -3.8520 0.4948
6 21 48 -17.8404 0.4812
6 21 51 -7.4421 -1.1340
6 22 -52 8.3939 0.0043
6 22 -49 -7.6143 0.3682
6 22 -46 -1.0007 -0.6433
6 22 -43 -5.9142 -0.9381
6 22 -40 5.7767 0.3941
6 22 -37 12.0386 0.8523
6 22 -34 3.1869 0.1629
6 22 -31 -4.6251 -1.3125
6 22 -28 41.9948 -0.5893
6 22 -25 -9.7586 1.0889
6 22 -22 -30.1769 0.9859
6 22 -19 -27.9312 -1.1187
6 22 -16 0.5491 -1.1334
6 22 -13 -22.4415 0.6833
6 22 -10 -23.9083 1.1294
6 22 -7 7.2911 -0.4600
6 22 -4 24.7967 -1.4512
6 22 -1 11.8997 0.0291
6 22 2 51.7866 1.5093
6 22 5 -27.7389 0.5646
6 22 8 62.3240 -1.0590
6 22 11 18.7479 -0.7376
6 22 14 -45.5164 0.8353
6 22 17 10.5169 1.2667
6 22 20 41.3746 -0.4875
6 22 23 -30.0629 -1.2122
6 22 26 26.2774 0.2313
6 22 29 -27.9084 1.2242
6 22 32 -1.7412 -0.1122
6 22 35 6.1852 -0.6186
6 22 38 -6.6587 -0.3109
6 22 41 -1.1542 0.7694
6 22 44 7.3426 0.2147
6 22 47 3.4171 -0.7393
6 22 50 -2.6563 0.0205
6 23 -50 -1.1336 -0.4902
6 23 -47 -9.2271 0.2620
6 23 -44 -3.6048 0.0653
6 23 -41 -9.7203 0.4063
6 23 -38 -15.0482 -0.4560
6 23 -35 8.0308 -1.0936
6 23 -32 -5.1639 0.6057
6 23 -29 2.0954 0.9309
6 23 -26 -2.2392 -0.2029
6 23 -23 -14.5956 -1.1872
6 23 -20 -18.5788 -0.3949
6 23 -17 55.0696 1.2878
6 23 -14 -4.8734 0.9220
6 23 -11 37.7649 -1.0975
6 23 -8 33.3243 -1.3835
6 23 -5 -9.4015 0.9625
6 23 -2 51.1613 1.5681
6 23 1 -41.4817 -0.0558
6 23 4 -12.0302 -1.8828
6 23 7 3.2791 -0.3287
6 23 10 -11.6810 1.7814
6 23 13 33.0415 0.6021
6 23 16 -23.3025 -1.3501
6 23 19 29.1209 -1.0205
6 23 22 3.2372 0.7498
6 23 25 42.8826 1.5441
6 23 28 25.9212 -0.4280
6 23 31 13.1400 -1.5766
6 23 34 -3.4967 0.1508
6 23 37 -6.7115 1.4613
6 23 40 -27.1364 0.7548
6 23 43 9.0911 -0.7787
6 23 46 -7.6314 -0.6402
6 23 49 -6.9037 1.1899
6 24 -48 5.0305 0.6596
6 24 -45 -15.3082 0.2560
6 24 -42 -1.9109 -0.4637
6 24 -39 8.7223 -0.2190
6 24 -36 -0.7016 0.6242
6 24 -33 -2.9775 0.4907
6 24 -30 17.4044 -0.2209
6 24 -27 -29.4275 -0.7785
6 24 -24 -14.0669 0.3225
6 24 -21 12.9560 0.5752
6 24 -18 5.3868 -0.0229
6 24 -15 -12.1347 -0.8765
6 24 -12 37.5868 -0.4704
6 24 -9 -47.7164 0.6741
6 24 -6 30.3135 0.5120
6 24 -3 -26.5931 -0.5924
6 24 0 -44.3916 -0.9109
6 24 3 46.4368 0.4206
6 24 6 21.9760 0.8446
6 24 9 -1.1002 0.1054
6 24 12 68.1873 -0.7050
6 24 15 -36.2992 -0.5066
6 24 18 40.8937 1.0487
6 24 21 -17.6439 0.7951
6 24 24 -39.1641 -0.7666
6 24 27 1.4943 -0.5768
6 24 30 -19.3456 0.6401
6 24 33 -15.2507 0.7381
6 24 36 5.6808 -0.2853
6 24 39 2.6501 -0.6466
6 24 42 3.1514 -0.0997
6 24 45 2.5097 0.9402
6 24 48 -2.9941 -0.6031
6 25 -49 -1.5613 0.2927
6 25 -46 3.1308 -0.9211
6 25 -43 -8.9609 0.3502
6 25 -40 5.6147 0.8955
6 25 -37 2.6502 0.9306
6 25 -34 -8.9552 -0.5054
6 25 -31 3.0923 -1.2251
6 25 -28 6.5113 0.4399
6 25 -25 -35.0927 1.1646
6 25 -22 -1.1556 0.0620
6 25 -19 22.4913 -1.4143
6 25 -16 -28.9230 -0.5147
6 25 -13 30.1228 1.3949
6 25 -10 -35.7199 1.2806
6 25 -7 28.1030 -0.9132
6 25 -4 34.8371 -1.3433
6 25 -1 -41.8335 0.7398
6 25 2 17.0542 1.6519
6 25 5 2.6230 -0.0893
6 25 8 -51.4253 -1.4878
6 25 11 5.2869 -0.3310
6 25 14 -23.2763 1.2719
6 25 17 1.1890 0.7928
6 25 20 44.2841 -1.1162
6 25 23 -20.0760 -1.1896
6 25 26 30.0064 0.6313
6 25 29 24.0517 1.1228
6 25 32 6.2851 -0.2387
6 25 35 4.7851 -0.9973
6 25 38 13.7548 -0.4188
6 25 41 -1.1990 0.6168
6 25 44 4.9469 0.4643
6 25 47 2.2883 -1.3465
6 26 -47 -7.3508 -0.4454
6 26 -44 -2.7658 0.2791
6 26 -41 -3.5179 0.1591
6 26 -38 -4.5688 -0.2923
6 26 -35 14.3971 0.2370
6 26 -32 -22.1448 0.1039
6 26 -29 3.4497 -0.2606
6 26 -26 -1.6949 -0.3176
6 26 -23 -3.5113 -0.2305
6 26 -20 9.3617 0.4068
6 26 -17 7.2202 0.1972
6 26 -14 -40.0551 -0.4722
6 26 -11 5.3648 -0.3961
6 26 -8 -26.1443 0.1924
6 26 -5 15.3111 0.5508
6 26 -2 9.7135 -0.3496
6 26 1 -1.9484 -0.6213
6 26 4 46.1179 0.1233
6 26 7 38.9650 0.3409
6 26 10 -4.0398 -0.0060
6 26 13 25.0287 -0.5766
6 26 16 -8.1949 -0.0752
6 26 19 16.0305 0.5931
6 26 22 18.7915 0.5659
6 26 25 -10.7585 -0.1275
6 26 28 -9.2757 -0.4297
6 26 31 -5.2061 0.3291
6 26 34 -19.4132 0.5338
6 26 37 4.1546 0.1536
6 26 40 -14.3387 0.3059
6 26 43 9.6754 -0.1836
6 26 46 4.0148 0.5678
6 27 -45 -5.6570 0.2922
6 27 -42 14.4998 0.2738
6 27 -39 2.4766 0.0437
6 27 -36 -3.6971 0.7856
6 27 -33 11.0765 0.2702
6 27 -30 -11.6896 -0.5040
6 27 -27 0.1268 -0.6165
6 27 -24 -1.1442 0.5279
6 27 -21 17.4048 0.6252
6 27 -18 -18.9688 -0.1602
6 27 -15 6.1054 -0.6062
6 27 -12 -5.4304 -0.1551
6 27 -9 -13.7000 1.0641
6 27 -6 28.8246 0.3669
6 27 -3 2.6557 -0.7143
6 27 0 -4.2721 -0.8006
6 27 3 20.9701 0.7656
6 27 6 -16.1528 0.9891
6 27 9 -23.8911 -0.2306
6 27 12 -7.8679 -1.0121
6 27 15 -36.6477 0.0335
6 27 18 9.3650 1.2326
6 27 21 1.7513 0.2103
6 27 24 -6.6567 -0.8971
6 27 27 28.1100 -0.6636
6 27 30 9.2525 0.4813
6 27 33 9.4517 0.4490
6 27 36 2.0422 -0.2052
6 27 39 4.3446 -0.4026
6 27 42 1.6515 -0.1695
6 27 45 -1.6710 1.1925
6 28 -43 3.7575 0.1773
6 28 -40 10.1980 0.5375
6 28 -37 -5.8564 -0.1349
6 28 -34 -3.7077 -1.0537
6 28 -31 20.0104 0.2621
6 28 -28 -0.8975 0.9608
6 28 -25 10.9002 -0.1236
6 28 -22 5.0594 -1.0900
6 28 -19 -8.3494 -0.6223
6 28 -16 -8.1930 1.1097
6 28 -13 6.6150 1.1573
6 28 -10 1.6399 -0.8403
6 28 -7 28.1961 -1.2245
6 28 -4 -11.5045 0.4357
6 28 -1 -5.2504 1.4608
6 28 2 -18.6284 -0.0158
6 28 5 15.9606 -1.4602
6 28 8 7.0803 -0.5415
6 28 11 35.5579 1.3174
6 28 14 36.9587 0.8034
6 28 17 17.9133 -0.8079
6 28 20 17.7326 -1.2900
6 28 23 -11.0028 0.4567
6 28 26 2.1641 1.7280
6 28 29 -17.5409 -0.0837
6 28 32 -25.1608 -0.9333
6 28 35 6.1874 -0.1011
6 28 38 -2.0378 1.0026
6 28 41 -6.4381 0.4833
6 28 44 2.6991 -0.1572
6 29 -41 -0.4492 -0.1607
6 29 -38 1.7149 0.1051
6 29 -35 1.4089 -0.2487
6 29 -32 -4.1146 0.4995
6 29 -29 3.9751 0.2626
6 29 -26 -5.0879 -0.3930
6 29 -23 -6.3748 -0.5618
6 29 -20 1.8026 0.2193
6 29 -17 18.8533 0.4250
6 29 -14 -24.0361 -0.3320
6 29 -11 44.5718 -0.7210
6 29 -8 -9.0388 -0.0486
6 29 -5 -2.3583 0.4062
6 29 -2 25.8433 0.3293
6 29 1 -23.5846 -0.5890
6 29 4 3.3725 -0.4862
6 29 7 2.5082 0.5408
6 29 10 -47.8630 0.8403
6 29 13 21.2806 -0.6829
6 29 16 7.1097 -0.7779
6 29 19 -15.5258 0.1159
6 29 22 12.4901 0.3934
6 29 25 -10.7352 0.0871
6 29 28 -0.4412 -0.9412
6 29 31 -4.4227 -0.4950
6 29 34 8.7454 0.2611
6 29 37 3.7563 0.6660
6 29 40 6.7330 -0.9184
6 29 43 8.7067 -0.3772
6 30 -39 -0.7676 0.3447
6 30 -36 9.1132 1.0458
6 30 -33 -5.4910 -0.6787
6 30 -30 -4.6359 -0.9202
6 30 -27 0.6618 -0.0300
6 30 -24 -9.8218 1.0243
6 30 -21 9.3453 0.3541
6 30 -18 -6.5133 -1.0883
6 30 -15 -6.5629 -0.8895
6 30 -12 -3.2091 0.9362
6 30 -9 -5.4819 1.1763
6 30 -6 -2.3685 -0.7583
6 30 -3 -30.9700 -1.5616
6 30 0 -11.4750 0.2764
6 30 3 -0.8852 1.6617
6 30 6 8.1227 0.4342
6 30 9 -5.2603 -1.3768
6 30 12 13.6092 -0.7552
6 30 15 14.3189 1.0787
6 30 18 3.2344 1.5741
6 30 21 0.2165 -0.2905
6 30 24 2.8292 -1.2440
6 30 27 9.0283 -0.1820
6 30 30 -5.3700 1.3006
6 30 33 -3.1155 0.2125
6 30 36 -2.4691 -0.5146
6 30 39 2.7006 -0.5980
6 31 -40 13.2840 0.6211
6 31 -37 -3.6436 -0.3296
6 31 -34 -1.4000 0.3561
6 31 -31 17.4807 0.1166
6 31 -28 -4.5782 0.4436
6 31 -25 6.1512 -0.1192
6 31 -22 -3.0112 -0.5333
6 31 -19 -2.3412 -0.1998
6 31 -16 -12.9029 0.4760
6 31 -13 -1.6123 0.5334
6 31 -10 -2.7487 -0.1861
6 31 -7 4.8727 -0.1775
6 31 -4 -15.3245 0.0227
6 31 -1 7.6576 0.8440
6 31 2 20.9602 0.1236
6 31 5 20.1214 -0.5429
6 31 8 6.8389 -0.2773
6 31 11 -5.8351 0.4806
6 31 14 -14.8717 -0.2040
6 31 17 -5.6264 -0.6100
6 31 20 -19.3061 -0.2529
6 31 23 3.3992 0.4100
6 31 26 9.4125 0.4749
6 31 29 0.4836 0.2149
6 31 32 3.5773 -0.6919
6 31 35 13.3825 0.1096
6 31 38 -2.5077 1.7794
6 32 -38 0.7908 0.1858
6 32 -35 -3.1097 0.5479
6 32 -32 12.8480 0.3593
6 32 -29 7.7462 -0.3811
6 32 -26 -7.3374 -0.4549
6 32 -23 14.8570 0.0238
6 32 -20 -6.0927 0.0803
6 32 -17 3.9171 0.3554
6 32 -14 -20.5295 -0.4344
6 32 -11 18.0409 -0.4083
6 32 -8 -27.1372 0.3510
6 32 -5 -5.7609 0.8005
6 32 -2 8.7714 0.0872
6 32 1 -9.3047 -0.8544
6 32 4 3.8518 -0.4468
6 32 7 -0.3628 0.3573
6 32 10 -8.6473 0.6316
6 32 13 5.6960 -0.2626
6 32 16 -4.3904 -0.6836
6 32 19 -13.1081 0.0302
6 32 22 21.2005 0.0958
6 32 25 -8.1130 -0.9754
6 32 28 3.1692 -0.8345
6 32 31 4.5487 -0.0120
6 32 34 6.5505 -0.4898
6 32 37 0.1756 1.8937
6 33 -36 5.6079 1.2010
6 33 -33 -11.9070 -0.7251
6 33 -30 4.0191 0.1606
6 33 -27 3.8335 0.5434
6 33 -24 -3.7097 0.5388
6 33 -21 2.8464 -0.2000
6 33 -18 -18.3551 -0.8677
6 33 -15 1.5193 0.0878
6 33 -12 1.9523 0.9915
6 33 -9 -4.3681 0.2470
6 33 -6 11.0341 -1.0212
6 33 -3 -10.9967 -0.5369
6 33 0 27.3390 1.0412
6 33 3 -11.6337 0.8006
6 33 6 -11.3870 -0.7221
6 33 9 -9.1959 -0.9480
6 33 12 -6.5002 0.3994
6 33 15 14.7773 0.8864
6 33 18 11.5031 -0.3357
6 33 21 4.3293 -0.2208
6 33 24 -5.2664 0.2345
6 33 27 10.0915 0.2070
6 33 30 -3.6056 0.3200
6 33 33 -5.6665 -1.1123
6 33 36 7.1189 -0.8001
6 34 -31 -12.8679 -0.5346
6 34 -28 -1.3029 0.4864
6 34 -25 -4.2137 0.1452
6 34 -22 -8.5165 -0.2511
6 34 -19 6.9217 0.0769
6 34 -16 -16.4224 0.3020
6 34 -13 21.8353 0.2016
6 34 -10 0.6416 0.0975
6 34 -7 7.6074 -0.1185
6 34 -4 -2.4656 -0.2925
6 34 -1 14.6490 0.1878
6 34 2 -4.3973 0.2176
6 34 5 -18.4085 -0.1955
6 34 8 -11.0306 -0.1824
6 34 11 -10.2854 -0.2374
6 34 14 6.9798 0.5272
6 34 17 8.9101 -0.5273
6 34 20 -3.0635 -0.2176
6 34 23 10.1168 0.6756
6 34 26 5.7926 0.1484
6 34 29 2.6733 -0.1240
6 34 32 -15.6664 0.3960
6 35 -29 -9.9841 -0.0870
6 35 -26 8.7025 -0.6570
6 35 -23 -2.5858 0.5955
6 35 -20 1.5060 0.4098
6 35 -17 6.0459 -0.0865
6 35 -14 -3.8045 -0.7269
6 35 -11 18.8197 0.4481
6 35 -8 -11.3473 0.7245
6 35 -5 5.6721 0.3567
6 35 -2 -5.1281 -1.0249
6 35 1 -6.0177 -0.6209
6 35 4 3.3313 0.9026
6 35 7 -9.2364 0.8850
6 35 10 7.4281 -0.7301
6 35 13 6.4997 -0.6698
6 35 16 -2.4803 0.3715
6 35 19 7.0867 0.4326
6 35 22 12.7896 0.0723
6 35 25 -2.6783 -0.5684
6 35 28 8.6416 -0.9367
6 35 31 7.8158 1.2413
6 36 -27 -1.7801 -0.0145
6 36 -24 -4.2827 0.5355
6 36 -21 5.3475 -0.4923
6 36 -18 -4.7402 -0.4573
6 36 -15 7.6356 0.2562
6 36 -12 1.5637 0.4920
6 36 -9 -6.3864 -0.4681
6 36 -6 0.5863 -0.4434
6 36 -3 -3.5863 0.0224
6 36 0 -8.1918 0.0243
6 36 3 1.5264 0.1463
6 36 6 0.8205 -0.3147
6 36 9 6.4810 -0.8220
6 36 12 16.6505 0.7562
6 36 15 -6.2912 1.1899
6 36 18 -1.2253 0.0144
6 36 21 -13.6642 -0.2579
6 36 24 -9.1196 -0.4396
6 36 27 1.4689 -0.8406
6 37 -25 -1.3267 0.2032
6 37 -22 5.6527 -0.8828
6 37 -19 5.1269 -0.0679
6 37 -16 -14.3761 1.4270
6 37 -13 18.0892 -0.0199
6 37 -10 -5.0100 0.0437
6 37 -7 -4.5607 -1.0595
6 37 -4 -1.4286 0.2529
6 37 -1 3.1677 0.9140
6 37 2 -4.4320 0.1252
6 37 5 0.3326 -0.5047
6 37 8 -6.4709 -0.1940
6 37 11 15.8121 0.2524
6 37 14 -2.1294 0.2735
6 37 17 5.4576 -1.4260
6 37 20 1.2957 -0.2797
6 37 23 8.4402 0.8449
6 38 -20 -4.9906 0.8743
6 38 -17 4.1328 -0.4777
6 38 -14 -4.4409 -0.5121
6 38 -11 14.7796 0.3685
6 38 -8 -15.3446 0.3674
6 38 -5 10.4504 -0.0117
6 38 -2 1.7551 -0.7360
6 38 1 7.5332 -0.2395
6 38 4 3.0597 0.6138
6 38 7 -11.3627 0.1650
6 38 10 4.9166 -0.1949
6 38 13 -2.3887 -0.3104
6 38 16 -10.0092 -0.1956
6 38 19 2.8044 0.5667
6 39 -15 -8.7265 -0.6587
6 39 -12 -4.1264 0.5179
6 39 -9 -7.5471 0.5128
6 39 -6 1.4979 -0.8108
6 39 -3 -2.4158 -0.6602
6 39 0 -4.6729 0.2028
6 39 3 1.9888 0.9393
6 39 6 -13.3003 0.0491
6 39 9 2.8633 -0.3942
6 39 12 -11.0756 -0.8536
6 39 15 -10.3368 0.5151
6 40 -7 3.8159 -0.8413
6 40 -4 1.6533 1.4284
6 40 -1 5.3836 0.7254
6 40 2 -13.1111 -1.2555
6 40 5 -0.0269 -1.3187
6 40 8 4.7960 1.0926
7 1 -63 4.9556 1.6219
7 1 -60 -6.4622 -0.3354
7 1 -57 7.9699 -2.5032
7 1 -54 -13.5006 -1.0578
7 1 -51 11.9775 2.8174
7 1 -48 -11.3532 1.9521
7 1 -45 26.8119 -2.4259
7 1 -42 6.6630 -3.3454
7 1 -39 14.5576 1.5729
7 1 -36 2.0599 4.2739
7 1 -33 -10.9979 -0.2844
7 1 -30 -14.1543 -5.0876
7 1 -27 53.4739 -1.7114
7 1 -24 -22.4992 4.3807
7 1 -21 0.7951 2.9234
7 1 -18 -45.5230 -3.6630
7 1 -15 11.6234 -4.8907
7 1 -12 -152.5935 1.6683
7 1 -9 -144.1999 4.5110
7 1 -6 -296.4877 -1.3625
7 1 -3 -120.5907 -5.2665
7 1 0 55.2927 -0.7915
7 1 3 317.7480 4.2828
7 1 6 563.8701 3.3508
7 1 9 206.8474 -1.8630
7 1 12 167.7676 -3.8214
7 1 15 -47.8744 1.5968
7 1 18 29.6166 4.6945
7 1 21 100.2682 0.0983
7 1 24 -96.2243 -3.1218
7 1 27 -14.0937 -0.6792
7 1 30 -48.9102 2.4784
7 1 33 -4.4499 1.8967
7 1 36 7.2295 -1.5433
7 1 39 19.4375 -2.1569
7 1 42 -8.2159 0.8758
7 1 45 -1.8407 2.2122
7 1 48 -15.8418 -0.4223
7 1 51 8.8506 -1.4973
7 1 54 5.8867 -0.7146
7 1 57 -0.1630 1.4207
7 1 60 -2.1215 1.0556
7 1 63 -2.1691 0.4921
7 2 -61 2.5587 0.6950
7 2 -58 -0.4434 -1.7118
7 2 -55 -15.1674 -1.0406
7 2 -52 4.8621 1.1431
7 2 -49 9.7077 1.5437
7 2 -46 -6.0003 -1.1607
7 2 -43 8.1129 -2.0509
7 2 -40 -40.5180 0.5769
7 2 -37 -15.7521 2.3908
7 2 -34 -3.7969 -0.1916
7 2 -31 -6.3024 -2.2768
7 2 -28 -14.6009 -0.0956
7 2 -25 -6.7552 2.6729
7 2 -22 -21.4493 1.3419
7 2 -19 149.7576 -2.2365
7 2 -16 80.9831 -2.1462
7 2 -13 74.1414 1.5902
7 2 -10 -249.4427 2.3558
7 2 -7 -102.2405 -0.7076
7 2 -4 -135.8745 -2.5238
7 2 -1 432.8650 -0.1060
7 2 2 256.6732 2.8435
7 2 5 -124.7036 0.5031
7 2 8 -185.3860 -4.2405
7 2 11 -124.0873 -1.7984
7 2 14 -137.0576 3.1569
7 2 17 -90.3402 2.2208
7 2 20 7.4043 -1.7772
7 2 23 -52.3936 -1.8533
7 2 26 -14.9864 0.9845
7 2 29 30.8129 2.5322
7 2 32 70.5961 0.0661
7 2 35 53.5211 -2.6149
7 2 38 -5.0956 -0.6568
7 2 41 17.1913 2.1243
7 2 44 -22.3821 1.0178
7 2 47 18.4389 -1.3415
7 2 50 -16.2845 -1.3371
7 2 53 -25.3401 1.0143
7 2 56 -8.5961 1.4439
7 2 59 -6.1080 -0.0030
7 2 62 -2.3074 -2.1599
7 3 -62 -3.1865 0.3675
7 3 -59 -11.4015 0.4619
7 3 -56 -2.1230 0.2543
7 3 -53 0.6742 -0.5138
7 3 -50 0.2960 -0.7995
7 3 -47 20.8797 0.6268
7 3 -44 -11.6470 0.7685
7 3 -41 39.2352 -0.2823
7 3 -38 -16.7172 -1.0675
7 3 -35 37.1592 -0.1669
7 3 -32 2.7436 1.2086
7 3 -29 14.7306 0.0979
7 3 -26 38.2622 -2.0859
7 3 -23 132.0287 -1.0670
7 3 -20 -82.2093 1.2355
7 3 -17 -102.5028 0.4384
7 3 -14 -223.2190 -1.9964
7 3 -11 -101.9795 -2.0150
7 3 -8 0.1690 0.3966
7 3 -5 68.5490 1.0589
7 3 -2 249.9508 -1.0317
7 3 1 88.9401 -1.9323
7 3 4 128.2434 0.5363
7 3 7 -119.8088 3.1032
7 3 10 244.2639 1.0221
7 3 13 335.2303 -1.9598
7 3 16 -131.6400 -0.7082
7 3 19 126.8329 2.1242
7 3 22 60.4286 1.4424
7 3 25 42.6782 -1.2744
7 3 28 43.3561 -0.8320
7 3 31 38.4898 1.1565
7 3 34 -34.3458 1.4123
7 3 37 38.4704 -0.0644
7 3 40 -48.9169 -1.4822
7 3 43 -22.0962 -0.2717
7 3 46 1.3981 1.4315
7 3 49 -10.4254 0.5503
7 3 52 -0.9550 -1.1021
7 3 55 8.5334 -0.7923
7 3 58 -8.1410 0.4394
7 3 61 -4.9864 1.2219
7 4 -63 -1.4355 0.7064
7 4 -60 6.0279 -1.7400
7 4 -57 14.2140 -0.9329
7 4 -54 -2.2106 0.5765
7 4 -51 16.9199 1.1551
7 4 -48 23.8356 -0.9014
7 4 -45 3.0387 -1.2865
7 4 -42 -19.0921 0.0812
7 4 -39 -22.4488 1.2528
7 4 -36 -8.9756 0.2173
7 4 -33 35.3178 -1.3741
7 4 -30 -28.5202 -0.7551
7 4 -27 36.9074 1.5620
7 4 -24 -40.0965 0.8802
7 4 -21 -38.2258 -1.5946
7 4 -18 -79.8373 -1.0973
7 4 -15 106.9664 1.0960
7 4 -12 97.5394 1.3729
7 4 -9 247.9025 -0.4411
7 4 -6 96.4153 -1.2436
7 4 -3 270.2254 1.1531
7 4 0 158.7577 2.4633
7 4 3 137.4873 0.0274
7 4 6 -86.8144 -1.9271
7 4 9 -182.7736 0.3505
7 4 12 14.2721 2.1878
7 4 15 28.7707 0.4227
7 4 18 -73.8633 -1.5044
7 4 21 79.2915 -0.6361
7 4 24 -64.3657 1.2522
7 4 27 63.5467 0.3834
7 4 30 51.3951 -1.2651
7 4 33 -2.1679 -1.0189
7 4 36 32.2298 0.4919
7 4 39 0.6325 0.9518
7 4 42 -41.2618 -0.7019
7 4 45 31.8760 -1.1817
7 4 48 -5.4581 0.0988
7 4 51 16.7577 1.2143
7 4 54 -2.8627 -0.3117
7 4 57 -2.5668 -1.3675
7 4 60 1.5115 -1.1296
7 4 63 -5.4245 1.0228
7 5 -61 -5.7402 -0.1042
7 5 -58 -16.7537 -0.2878
7 5 -55 5.0854 0.7386
7 5 -52 10.9260 0.2852
7 5 -49 -9.0206 -0.4323
7 5 -46 1.9009 -0.2099
7 5 -43 2.6639 0.7453
7 5 -40 -1.9455 0.6598
7 5 -37 53.6180 -0.7809
7 5 -34 14.3768 -1.1654
7 5 -31 -34.7218 0.7644
7 5 -28 20.9288 1.6598
7 5 -25 -0.0635 -1.1318
7 5 -22 -6.8487 -2.3140
7 5 -19 134.5546 0.1949
7 5 -16 -162.9584 2.0900
7 5 -13 -12.4743 0.1658
7 5 -10 -105.0248 -2.7406
7 5 -7 -29.4287 -1.4114
7 5 -4 50.3710 2.8462
7 5 -1 117.1848 2.4978
7 5 2 -118.1678 -2.2454
7 5 5 -138.2271 -3.0266
7 5 8 215.1525 1.7891
7 5 11 -78.3620 3.7249
7 5 14 179.1178 -0.1467
7 5 17 -72.8224 -3.0281
7 5 20 112.5480 -0.4425
7 5 23 44.0221 3.1202
7 5 26 48.1131 1.9129
7 5 29 -1.5785 -2.1721
7 5 32 -3.9731 -2.6061
7 5 35 -72.2918 1.0663
7 5 38 -25.8130 2.7836
7 5 41 4.3626 -0.2851
7 5 44 -5.5234 -2.3469
7 5 47 -3.8857 -0.3683
7 5 50 -18.7801 1.7005
7 5 53 -7.5183 1.1888
7 5 56 17.6142 -1.2660
7 5 59 -1.3962 -1.8013
7 5 62 -0.8372 0.2576
7 6 -62 0.6733 -0.5507
7 6 -59 -8.1437 1.0710
7 6 -56 12.2329 -0.4010
7 6 -53 2.4647 -0.7711
7 6 -50 6.7290 -0.4038
7 6 -47 7.0165 1.1415
7 6 -44 9.7328 0.3215
7 6 -41 -9.8188 -0.7992
7 6 -38 -10.1434 -1.1399
7 6 -35 -22.0209 0.1512
7 6 -32 -43.7339 1.3015
7 6 -29 23.0808 -0.3565
7 6 -26 1.5851 -1.6374
7 6 -23 -113.8342 0.1540
7 6 -20 -20.8125 1.5785
7 6 -17 66.5728 0.1590
7 6 -14 134.1165 -0.9537
7 6 -11 249.2939 -0.2365
7 6 -8 43.4317 1.3101
7 6 -5 51.6979 1.5346
7 6 -2 140.8146 -0.1084
7 6 1 -274.6771 -0.8478
7 6 4 58.5521 0.6008
7 6 7 285.4623 1.4893
7 6 10 -41.5645 -0.4504
7 6 13 86.6218 -1.1703
7 6 16 -47.8268 -0.0029
7 6 19 26.1274 0.8911
7 6 22 45.8998 0.7981
7 6 25 -22.9152 -0.8306
7 6 28 -38.1725 -1.1021
7 6 31 49.4780 0.4517
7 6 34 -3.2225 0.6667
7 6 37 -5.5443 -0.2008
7 6 40 3.6449 -0.6559
7 6 43 7.7922 -0.3900
7 6 46 -2.8908 0.5635
7 6 49 5.4817 0.3348
7 6 52 1.3233 -0.2988
7 6 55 -0.9997 -0.2332
7 6 58 -7.2095 0.5877
7 6 61 2.0369 0.9441
7 7 -60 -11.6710 0.3731
7 7 -57 4.7144 1.0487
7 7 -54 -11.7094 0.6432
7 7 -51 12.5616 -0.0143
7 7 -48 -0.4206 -0.6849
7 7 -45 -21.2035 -0.3733
7 7 -42 1.0211 0.6384
7 7 -39 22.3658 0.5980
7 7 -36 -7.0054 -0.5617
7 7 -33 22.7682 -1.0159
7 7 -30 -55.2094 0.1301
7 7 -27 -16.9992 1.4634
7 7 -24 -36.1673 0.3435
7 7 -21 -6.4336 -1.7118
7 7 -18 40.4988 -0.6631
7 7 -15 127.1167 2.0005
7 7 -12 -138.8718 1.1103
7 7 -9 -49.3727 -1.2789
7 7 -6 -136.5394 -1.2871
7 7 -3 -7.3391 1.3602
7 7 0 2.5356 2.2059
7 7 3 -112.5972 -0.2614
7 7 9 133.5484 -0.2760
7 7 12 106.9413 1.7608
7 7 15 57.7482 0.5842
7 7 18 -97.8340 -1.5110
7 7 21 -2.6340 -1.1290
7 7 24 -13.6006 0.9973
7 7 27 -65.1468 1.6298
7 7 30 -20.6033 -0.3034
7 7 33 11.2037 -1.6381
7 7 36 -49.6621 0.0599
7 7 39 16.8308 1.7827
7 7 42 -13.0774 0.4985
7 7 45 20.7977 -1.1234
7 7 48 -18.9182 -0.6754
7 7 51 2.0993 0.4813
7 7 54 -9.8281 1.2127
7 7 57 13.8822 -0.3264
7 7 60 -7.1873 -0.6527
7 8 -61 -3.7238 0.0304
7 8 -58 7.3972 0.1412
7 8 -55 3.6272 0.4558
7 8 -52 12.5015 -0.5706
7 8 -49 -2.9134 -0.1595
7 8 -46 -2.9593 0.5872
7 8 -43 -12.3610 0.2825
7 8 -40 6.7959 -0.3353
7 8 -37 -43.7401 -0.2465
7 8 -34 -64.5385 0.2970
7 8 -31 -39.6628 0.7651
7 8 -28 -11.4133 -0.0170
7 8 -25 6.1276 -0.6817
7 8 -22 66.8010 -0.0919
7 8 -19 5.6744 0.6894
7 8 -16 33.4668 0.4981
7 8 -13 -31.2932 -0.4434
7 8 -10 -1.7929 -0.6265
7 8 -7 -5.0498 0.2660
7 8 -4 -40.4577 0.6590
7 8 -1 132.1239 -0.7305
7 8 2 -6.9125 -1.4702
7 8 5 112.3727 0.1104
7 8 8 56.5557 0.6998
7 8 11 -201.0594 -0.1547
7 8 14 97.1624 -0.1151
7 8 17 -77.0115 -0.0412
7 8 20 74.0009 -0.2861
7 8 23 49.2556 -0.0615
7 8 26 7.6642 0.3209
7 8 29 -34.4863 0.2484
7 8 32 86.2925 -0.1798
7 8 35 -20.8334 -0.6109
7 8 38 54.2724 -0.0089
7 8 41 -3.6382 0.7014
7 8 44 -17.7264 0.2043
7 8 47 -1.8118 -0.7876
7 8 50 4.1611 -0.4072
7 8 53 3.2171 0.8556
7 8 56 11.8584 0.7005
7 8 59 -7.1383 -0.8783
7 9 -59 -5.0198 0.5297
7 9 -56 1.7950 0.0577
7 9 -53 -4.3480 0.1766
7 9 -50 -1.7640 0.0218
7 9 -47 -26.9175 0.4675
7 9 -44 4.5574 0.1441
7 9 -41 -28.9254 -0.3272
7 9 -38 -0.1482 -0.2809
7 9 -35 -16.5603 0.4701
7 9 -32 19.6414 0.5094
7 9 -29 -11.0292 -0.4123
7 9 -26 8.6070 -0.5252
7 9 -23 -32.3651 0.2915
7 9 -20 76.0850 0.7104
7 9 -17 1.1103 0.0623
7 9 -14 -153.4925 -0.4876
7 9 -11 -22.8839 -0.3956
7 9 -8 -82.1702 0.7701
7 9 -5 -11.8211 0.7065
7 9 -2 110.2843 -0.6920
7 9 1 27.5645 -0.3527
7 9 4 218.2167 0.7108
7 9 7 21.8734 0.4963
7 9 10 -37.5033 -0.3703
7 9 13 -22.8091 -0.8312
7 9 16 84.8357 -0.2085
7 9 19 -73.8371 0.6899
7 9 22 82.0050 0.1333
7 9 25 -47.5770 -0.8048
7 9 28 37.9700 -0.2585
7 9 31 -9.9475 0.5201
7 9 34 -48.4425 0.3873
7 9 37 -19.9977 -0.3343
7 9 40 17.7666 -0.4230
7 9 43 -22.0891 0.2450
7 9 46 17.8762 0.5030
7 9 49 4.5819 -0.2211
7 9 52 18.3473 -0.4718
7 9 55 4.7145 -0.1823
7 9 58 13.6019 0.5842
7 9 61 10.7351 0.0965
7 10 -60 3.8022 0.0316
7 10 -57 9.3966 0.4638
7 10 -54 -6.8108 -0.1443
7 10 -51 2.6391 -0.3891
7 10 -48 -7.3071 0.0376
7 10 -45 -2.7938 0.5356
7 10 -42 18.4819 0.1144
7 10 -39 -34.4991 -0.3053
7 10 -36 -21.5658 -0.0642
7 10 -33 -12.6278 0.3158
7 10 -30 -71.4020 0.2687
7 10 -27 49.4726 -0.0504
7 10 -24 27.3834 -0.4867
7 10 -21 -21.7059 0.0240
7 10 -18 74.0589 0.5596
7 10 -15 -14.0321 0.1256
7 10 -12 -126.3533 -0.8833
7 10 -9 199.2675 -0.5800
7 10 -6 10.4882 0.2168
7 10 -3 81.1793 0.3112
7 10 0 47.4247 -0.7658
7 10 3 28.7480 -0.8941
7 10 6 -86.5482 -0.0845
7 10 9 49.1229 0.6685
7 10 12 -251.9616 0.1793
7 10 15 16.6006 -0.2295
7 10 18 13.0461 0.0105
7 10 21 -12.3248 0.6863
7 10 24 22.8329 0.5747
7 10 27 73.6917 -0.2720
7 10 30 15.9336 -0.1678
7 10 33 50.0732 0.5551
7 10 36 17.7623 0.5711
7 10 39 16.5541 -0.1283
7 10 42 -2.9713 -0.2731
7 10 45 9.6893 0.1359
7 10 48 -14.8608 0.0496
7 10 51 28.0893 -0.2061
7 10 54 -12.8974 -0.3275
7 10 57 3.8966 -0.3805
7 10 60 -5.0678 0.8010
7 11 -58 2.5788 0.1234
7 11 -55 -14.6720 -0.0482
7 11 -52 -2.1172 -0.5581
7 11 -49 -6.2282 -0.2020
7 11 -46 -1.0479 0.4609
7 11 -43 -4.7416 0.4984
7 11 -40 11.0078 -0.1103
7 11 -37 -35.1628 -0.3715
7 11 -34 13.3818 0.1309
7 11 -31 10.3961 0.6274
7 11 -28 50.2100 -0.1265
7 11 -25 0.2426 -0.3900
7 11 -22 30.2469 0.0458
7 11 -19 -107.1436 0.4090
7 11 -16 44.8961 0.3962
7 11 -13 -116.6907 -0.4331
7 11 -10 -43.9470 -0.0898
7 11 -7 39.6775 0.8174
7 11 -4 -84.3038 0.0229
7 11 -1 52.1706 -0.5708
7 11 2 -23.9669 0.2137
7 11 5 -92.2135 0.8197
7 11 8 205.8016 0.1823
7 11 11 9.8742 -0.5551
7 11 14 153.8997 -0.7329
7 11 17 41.6294 0.1858
7 11 20 27.8230 0.5646
7 11 23 -102.2744 -0.5528
7 11 26 43.4370 -0.9025
7 11 29 -48.9016 0.2981
7 11 32 26.6165 0.4407
7 11 35 -7.4056 -0.2245
7 11 38 -53.9868 -0.5600
7 11 41 -12.3350 -0.2542
7 11 44 18.7456 0.5755
7 11 47 -2.1613 0.1994
7 11 50 15.7703 -0.8775
7 11 53 1.6129 -0.1518
7 11 56 4.3296 0.3618
7 11 59 4.2768 0.1326
7 12 -59 -3.5189 0.4768
7 12 -56 5.4465 0.2889
7 12 -53 -14.7927 0.4651
7 12 -50 12.0026 -0.0260
7 12 -47 -16.8165 -0.4008
7 12 -44 12.4876 -0.0339
7 12 -41 -29.3503 0.4925
7 12 -38 8.4764 0.4323
7 12 -35 -46.4983 -0.0634
7 12 -32 2.5360 -0.7017
7 12 -29 2.5447 -0.1579
7 12 -26 14.1048 0.7636
7 12 -23 -25.1928 0.3909
7 12 -20 40.3943 -0.8352
7 12 -17 -80.0522 -0.6881
7 12 -14 109.6802 0.5869
7 12 -11 31.7661 0.6697
7 12 -8 29.0599 -0.6059
7 12 -5 123.3219 -1.1041
7 12 -2 -36.6538 -0.4256
7 12 1 7.8509 0.7187
7 12 4 2.7124 0.5040
7 12 7 -2.4252 -1.0396
7 12 10 -1.6425 -1.0073
7 12 13 -79.9169 0.4728
7 12 16 -44.2569 1.0785
7 12 19 -49.4318 0.0826
7 12 22 8.9579 -0.8058
7 12 25 -87.4380 -0.4802
7 12 28 36.8323 0.6734
7 12 31 -34.3419 0.9017
7 12 34 54.7307 -0.1307
7 12 37 25.8964 -1.0410
7 12 40 32.3688 -0.1735
7 12 43 10.7812 0.9454
7 12 46 23.4620 0.5419
7 12 49 -4.7346 -0.3849
7 12 52 7.9142 -0.6271
7 12 55 -2.5056 0.0570
7 12 58 1.0751 0.8505
7 13 -57 -2.5755 -0.3700
7 13 -54 -10.9506 -0.5269
7 13 -51 1.2033 -0.2406
7 13 -48 -5.8895 0.3818
7 13 -45 3.9882 -0.1813
7 13 -42 -14.2454 -0.5983
7 13 -39 -19.7813 -0.3681
7 13 -36 0.9118 0.2005
7 13 -33 11.7646 0.5490
7 13 -30 14.1766 -0.1442
7 13 -27 56.6488 -0.6555
7 13 -24 2.3585 -0.1923
7 13 -21 -12.7299 0.6847
7 13 -18 18.0697 0.7287
7 13 -15 -40.3435 -0.3203
7 13 -12 -123.0917 -1.0479
7 13 -9 47.8131 0.0022
7 13 -6 -93.9967 1.2895
7 13 -3 -102.6165 0.1299
7 13 0 13.5082 -1.3029
7 13 3 32.3554 -0.5575
7 13 6 -5.0785 0.8291
7 13 9 71.5520 0.9827
7 13 12 -26.1688 -0.3798
7 13 15 50.3493 -1.2746
7 13 18 40.9225 0.1622
7 13 21 18.8452 1.3820
7 13 24 53.3677 0.0765
7 13 27 50.8411 -0.9898
7 13 30 -32.0807 -0.5530
7 13 33 26.5421 0.5178
7 13 36 -15.7301 0.9798
7 13 39 5.4624 -0.1524
7 13 42 -16.8140 -1.0732
7 13 45 11.7132 0.0161
7 13 48 -3.8412 1.0330
7 13 51 -6.0700 -0.1143
7 13 54 -4.2844 -0.8279
7 13 57 0.5772 0.0551
7 14 -58 -5.9845 0.3097
7 14 -55 -8.8968 -0.9802
7 14 -52 7.4772 -0.0627
7 14 -49 3.7596 0.5081
7 14 -46 7.0712 0.7394
7 14 -43 -18.0751 -0.3573
7 14 -40 2.3801 -0.9770
7 14 -37 -25.0606 -0.4573
7 14 -34 27.0991 0.8627
7 14 -31 24.4609 0.7306
7 14 -28 -23.5282 -1.0045
7 14 -25 -4.5510 -1.2800
7 14 -22 -42.8164 0.4231
7 14 -19 -73.9493 1.6179
7 14 -16 82.6133 0.2472
7 14 -13 -153.2502 -1.7804
7 14 -10 83.0170 -0.8755
7 14 -7 40.4041 1.4704
7 14 -4 -91.6858 1.5431
7 14 -1 94.2949 -0.7649
7 14 2 47.4365 -1.7374
7 14 5 76.1073 0.4666
7 14 8 -12.5749 2.1481
7 14 11 -96.0924 0.0484
7 14 14 -52.0943 -1.8803
7 14 17 -75.0835 -0.7301
7 14 20 -25.0071 1.3095
7 14 23 -38.7772 1.4971
7 14 26 81.8255 -0.5873
7 14 29 -13.2874 -1.6098
7 14 32 4.8281 0.1883
7 14 35 -9.5485 1.6632
7 14 38 1.9744 0.2218
7 14 41 15.2481 -1.3673
7 14 44 0.3232 -0.4419
7 14 47 10.5361 0.6354
7 14 50 -5.2838 0.6772
7 14 53 5.1581 -0.4089
7 14 56 3.5653 -0.6306
7 15 -56 -0.6207 -0.0493
7 15 -53 0.5172 -0.7634
7 15 -50 3.7336 -0.3438
7 15 -47 -9.2953 0.0167
7 15 -44 -1.1677 0.4974
7 15 -41 -16.6783 -0.0406
7 15 -38 21.4843 -0.4580
7 15 -35 -27.5407 -0.3141
7 15 -32 69.3910 0.1851
7 15 -29 -39.8638 0.4216
7 15 -26 0.1712 -0.0535
7 15 -23 -8.9324 -0.4597
7 15 -20 22.8477 0.0031
7 15 -17 3.4134 0.6758
7 15 -14 3.7280 0.0066
7 15 -11 2.2760 -0.8133
7 15 -8 -27.6340 -0.5402
7 15 -5 49.1116 0.2040
7 15 -2 -32.6438 0.1336
7 15 1 -10.9840 -0.5202
7 15 4 112.9074 -0.8306
7 15 7 -111.1566 -0.1019
7 15 10 -0.6204 0.3173
7 15 13 1.7617 -0.3065
7 15 16 30.2873 -0.5114
7 15 19 27.7803 0.0263
7 15 22 62.4112 0.3144
7 15 25 -55.9374 -0.1177
7 15 28 143.4761 0.0176
7 15 31 -0.8153 0.0246
7 15 34 6.0098 0.1031
7 15 37 11.8640 0.1088
7 15 40 -8.6292 0.1645
7 15 43 -12.2253 0.0933
7 15 46 8.7846 -0.2459
7 15 49 -11.6113 0.2721
7 15 52 1.9767 0.6267
7 15 55 6.5659 -0.5954
7 16 -57 -0.2881 -2.4640
7 16 -54 6.3702 0.8193
7 16 -51 -10.4113 0.6515
7 16 -48 19.6023 0.0637
7 16 -45 10.4602 -1.1696
7 16 -42 -3.7814 0.0262
7 16 -39 16.4707 1.2019
7 16 -36 -2.2249 0.4671
7 16 -33 19.5160 -1.1719
7 16 -30 -15.1626 -1.0717
7 16 -27 -8.6283 0.8438
7 16 -24 -39.3839 1.4317
7 16 -21 -14.0280 -0.5501
7 16 -18 -23.4622 -1.7198
7 16 -15 -75.4833 0.0981
7 16 -12 25.5817 1.8908
7 16 -9 14.1026 0.3849
7 16 -6 6.1290 -1.4773
7 16 -3 57.3530 -0.8118
7 16 0 7.4933 1.4775
7 16 3 11.3575 1.4983
7 16 6 -35.5351 -0.6223
7 16 9 7.2804 -1.5965
7 16 12 -48.8490 0.2308
7 16 15 80.9308 1.7589
7 16 18 -20.7767 0.0932
7 16 21 52.5228 -1.7931
7 16 24 -26.5799 -0.6672
7 16 27 -14.5702 1.4066
7 16 30 -7.6788 0.8414
7 16 33 -16.7746 -1.1222
7 16 36 -4.8832 -0.8622
7 16 39 19.8443 0.3641
7 16 42 -24.9593 0.9708
7 16 45 16.1713 -0.3356
7 16 48 -9.5972 -1.1432
7 16 51 -5.1996 -0.1677
7 16 54 -8.5386 0.9274
7 16 57 2.4274 1.7182
7 17 -55 12.2138 -0.1706
7 17 -52 -1.3393 0.6412
7 17 -49 4.4437 0.4224
7 17 -46 3.7359 -0.1812
7 17 -43 -4.1878 -0.4106
7 17 -40 -5.9916 0.0817
7 17 -37 13.5288 0.4471
7 17 -34 5.2119 0.1754
7 17 -31 -31.7408 -0.3847
7 17 -28 -25.4746 -0.5112
7 17 -25 -23.6486 0.3403
7 17 -22 1.6019 0.4751
7 17 -19 29.7338 -0.2984
7 17 -16 10.0133 -0.6069
7 17 -13 -0.8415 -0.1923
7 17 -10 91.3915 0.4305
7 17 -7 -26.1239 0.3421
7 17 -4 -5.0998 -0.4820
7 17 -1 45.5090 -0.6626
7 17 2 -50.3944 0.3433
7 17 5 -72.9396 0.3937
7 17 8 -18.0276 -0.1814
7 17 11 -47.5135 -0.5748
7 17 14 77.1611 -0.1337
7 17 17 -4.0238 0.6929
7 17 20 10.2213 0.5112
7 17 23 50.2922 -0.4286
7 17 26 -21.5276 -0.4260
7 17 29 -29.6097 0.5369
7 17 32 -10.6443 0.3534
7 17 35 2.7268 -0.2499
7 17 38 0.6900 -0.1156
7 17 41 11.2483 0.0988
7 17 44 -4.5218 0.4207
7 17 47 3.8455 -0.1138
7 17 50 -7.2208 -0.2508
7 17 53 -5.4096 0.3809
7 17 56 3.3665 0.5901
7 18 -53 0.8909 -0.7473
7 18 -50 12.0961 0.6848
7 18 -47 -3.8517 0.7364
7 18 -44 9.3187 0.1787
7 18 -41 -5.6999 -1.1326
7 18 -38 3.2488 -0.2519
7 18 -35 5.8424 0.9032
7 18 -32 -10.9673 0.8187
7 18 -29 -19.2139 -0.5440
7 18 -26 34.3346 -1.0802
7 18 -23 51.1917 0.1758
7 18 -20 16.2149 1.0973
7 18 -17 -32.5605 0.3951
7 18 -14 31.2541 -0.5989
7 18 -11 -0.0995 -0.6157
7 18 -8 -44.1953 0.7169
7 18 -5 -6.0884 1.0613
7 18 -2 -74.0133 -0.2840
7 18 1 11.8135 -1.0233
7 18 4 12.5028 -0.0502
7 18 7 -17.1458 1.0871
7 18 10 55.1010 0.4914
7 18 13 51.2078 -0.5543
7 18 16 11.1822 -0.4726
7 18 19 -21.7990 0.2385
7 18 22 71.0017 0.5073
7 18 25 -27.4495 -0.1248
7 18 28 45.8553 -0.6137
7 18 31 -24.4962 -0.2658
7 18 34 -2.0911 0.4882
7 18 37 -2.2048 0.5479
7 18 40 1.7207 -0.3162
7 18 43 -4.3476 -0.1167
7 18 46 -9.5410 0.1333
7 18 49 14.3607 0.1810
7 18 52 -6.0272 0.1299
7 18 55 1.9552 -1.7374
7 19 -54 -9.2484 1.0904
7 19 -51 10.6078 -0.2108
7 19 -48 0.2238 -0.1081
7 19 -45 0.2842 0.2070
7 19 -42 -17.8385 0.3197
7 19 -39 -2.1110 -0.2804
7 19 -36 -16.5715 -0.3116
7 19 -33 -14.5749 0.0331
7 19 -30 -13.0454 0.5904
7 19 -27 -26.6191 0.0734
7 19 -24 1.0506 -0.6310
7 19 -21 16.0929 -0.4151
7 19 -18 -76.7433 0.3610
7 19 -15 77.9131 0.4005
7 19 -12 -25.0456 -0.5845
7 19 -9 13.3963 -0.4513
7 19 -6 -4.1311 0.5783
7 19 -3 -44.9455 0.5826
7 19 0 34.1633 -0.3921
7 19 3 17.2601 -0.5180
7 19 6 -1.9786 0.3856
7 19 9 22.1886 0.8070
7 19 12 -22.1124 0.1199
7 19 15 47.7668 -0.7331
7 19 18 -71.4769 -0.2436
7 19 21 -28.9085 0.5908
7 19 24 -9.5666 0.4542
7 19 27 -19.6635 -0.4833
7 19 30 2.0365 -0.4656
7 19 33 8.3978 0.4368
7 19 36 -1.9909 0.4671
7 19 39 0.4861 -0.2329
7 19 42 -15.5897 -0.5977
7 19 45 -5.6771 0.1608
7 19 48 4.9413 0.1143
7 19 51 -4.6713 0.0197
7 19 54 -3.1854 0.4081
7 20 -52 2.0827 1.0775
7 20 -49 -9.0543 -0.2056
7 20 -46 6.3211 -0.1944
7 20 -43 -5.6940 -0.0734
7 20 -40 -11.0999 0.3455
7 20 -37 19.2186 0.5342
7 20 -34 -29.8323 0.0307
7 20 -31 13.4584 -0.5179
7 20 -28 30.2009 -0.0906
7 20 -25 8.3719 0.6106
7 20 -22 44.7916 0.4671
7 20 -19 -20.3783 -0.1469
7 20 -16 16.9550 -0.2120
7 20 -13 -37.7671 0.1754
7 20 -10 3.5747 0.4800
7 20 -7 -18.4041 0.1411
7 20 -4 -75.5742 -0.5435
7 20 -1 49.9397 -0.6139
7 20 2 -62.1813 0.2912
7 20 5 5.7671 0.5375
7 20 8 46.8990 -0.3520
7 20 11 -39.3391 -0.9532
7 20 14 23.2514 -0.2429
7 20 17 21.1453 0.7342
7 20 20 -48.6121 0.2880
7 20 23 44.4616 -0.5486
7 20 26 -25.6820 -0.7222
7 20 29 5.5292 0.2190
7 20 32 37.7023 0.7228
7 20 35 -13.3625 -0.2388
7 20 38 6.2360 -0.8094
7 20 41 3.3815 -0.1949
7 20 44 -10.0981 0.6390
7 20 47 1.7781 0.0337
7 20 50 0.0538 0.2005
7 20 53 1.3759 0.5384
7 21 -50 -2.5313 0.3957
7 21 -47 -11.6169 -0.0010
7 21 -44 10.5088 -0.8004
7 21 -41 -19.3326 0.0163
7 21 -38 -6.6573 0.6461
7 21 -35 2.2777 0.1522
7 21 -32 -13.2141 -0.5589
7 21 -29 9.9731 -0.8464
7 21 -26 27.0588 0.4597
7 21 -23 -27.8172 0.7978
7 21 -20 -34.7590 -0.3759
7 21 -17 10.6198 -0.8850
7 21 -14 -12.8745 -0.0501
7 21 -11 3.9840 1.0414
7 21 -8 -15.7635 0.5319
7 21 -5 45.4091 -0.9759
7 21 -2 39.0193 -0.6186
7 21 1 75.5277 0.8958
7 21 4 -25.7570 1.0350
7 21 7 37.1808 -0.2459
7 21 10 2.2083 -1.1543
7 21 13 -44.7460 0.1073
7 21 16 35.6046 1.5425
7 21 19 -31.9987 0.4781
7 21 22 24.3359 -1.2087
7 21 25 -31.3440 -0.4703
7 21 28 -34.6718 0.8705
7 21 31 0.5844 0.6960
7 21 34 -23.0487 -0.3639
7 21 37 -12.0936 -1.0434
7 21 40 -8.0294 -0.1583
7 21 43 9.9527 0.8877
7 21 46 -4.0054 0.0037
7 21 49 4.2464 -0.5831
7 21 52 0.4660 -1.3852
7 22 -51 8.3498 -0.7046
7 22 -48 -8.9325 1.0451
7 22 -45 -1.5037 -0.1997
7 22 -42 -6.3654 -0.1457
7 22 -39 -0.3935 -0.3762
7 22 -36 -10.1258 0.0870
7 22 -33 26.2491 0.7547
7 22 -30 -7.7191 0.1604
7 22 -27 12.3146 -0.6688
7 22 -24 36.9296 -0.2828
7 22 -21 -21.9141 0.6537
7 22 -18 24.6060 0.4455
7 22 -15 38.8846 -0.1856
7 22 -12 -41.2840 -0.4695
7 22 -9 18.5466 -0.1273
7 22 -6 -36.6846 0.6378
7 22 -3 -4.0541 0.2157
7 22 0 12.9783 -0.6235
7 22 3 -36.5894 -0.6255
7 22 6 -44.5711 0.4028
7 22 9 69.8414 0.4048
7 22 12 -71.4955 -0.4239
7 22 15 21.6141 -0.4035
7 22 18 -37.6267 0.1725
7 22 21 -15.3471 0.2949
7 22 24 45.3962 0.2631
7 22 27 -17.5001 0.1486
7 22 30 -2.6047 -0.2258
7 22 33 7.1096 0.5404
7 22 36 -10.9760 0.2519
7 22 39 -6.5766 0.2589
7 22 42 21.5871 0.3023
7 22 45 -2.5729 -0.0779
7 22 48 -5.0839 -0.1493
7 22 51 11.3861 -0.3556
7 23 -49 3.1314 -1.0937
7 23 -46 8.2265 0.2627
7 23 -43 -11.1625 0.2146
7 23 -40 -4.3260 -0.0116
7 23 -37 -5.4124 -0.1549
7 23 -34 2.2694 0.0358
7 23 -31 26.1791 0.5975
7 23 -28 -4.2773 0.1335
7 23 -25 -3.1899 -0.5092
7 23 -22 -1.1279 -0.4762
7 23 -19 -23.3499 0.5486
7 23 -16 -18.7158 0.5147
7 23 -13 -2.7429 -0.1836
7 23 -10 10.0544 -0.7727
7 23 -7 -22.8923 0.2636
7 23 -4 -6.3029 0.7952
7 23 -1 35.2565 0.0090
7 23 2 -10.1620 -1.0051
7 23 5 19.9908 -0.3654
7 23 8 6.4741 0.9465
7 23 11 6.9731 0.6199
7 23 14 -11.4172 -0.7954
7 23 17 2.2283 -0.6221
7 23 20 -45.6095 0.2870
7 23 23 5.2051 0.6947
7 23 26 2.4323 0.0101
7 23 29 -21.1450 -1.0300
7 23 32 0.3139 -0.1740
7 23 35 -2.2858 0.8401
7 23 38 -3.8214 0.4837
7 23 41 3.6768 -0.2815
7 23 44 -8.8835 -0.0141
7 23 47 -3.8069 0.3065
7 23 50 8.4086 1.8835
7 24 -47 5.5437 -0.7952
7 24 -44 -14.2973 0.3635
7 24 -41 -10.6130 0.0105
7 24 -38 0.5430 0.0104
7 24 -35 25.9945 0.0027
7 24 -32 -23.5797 -0.0231
7 24 -29 16.6403 0.2269
7 24 -26 4.9175 0.1529
7 24 -23 -9.4047 -0.2664
7 24 -20 43.0910 -0.4039
7 24 -17 -7.4175 0.3562
7 24 -14 17.3783 0.2417
7 24 -11 20.1006 -0.2998
7 24 -8 -20.9000 -0.5219
7 24 -5 35.8577 0.0164
7 24 -2 -34.7801 0.5739
7 24 1 1.1669 0.0094
7 24 4 -21.7201 -0.4747
7 24 7 -17.8521 -0.0688
7 24 10 15.6401 0.5327
7 24 13 6.9921 0.2561
7 24 16 -10.7640 -0.6326
7 24 19 22.6918 -0.3257
7 24 22 -17.2551 0.1473
7 24 25 1.6567 0.6154
7 24 28 14.2221 0.1484
7 24 31 0.9832 -0.4590
7 24 34 16.5236 -0.1409
7 24 37 12.5746 0.3975
7 24 40 1.6258 0.1100
7 24 43 15.7684 -0.2285
7 24 46 -3.5077 0.1254
7 24 49 6.1113 -0.2537
7 25 -48 -3.2270 1.0559
7 25 -45 -12.2122 -0.7990
7 25 -42 1.2638 -0.0050
7 25 -39 2.7213 0.3076
7 25 -36 14.4973 0.4825
7 25 -33 0.4663 -0.1569
7 25 -30 -17.7370 -0.5571
7 25 -27 19.0961 0.2693
7 25 -24 -1.3587 0.9111
7 25 -21 -31.7360 0.3356
7 25 -18 -2.5750 -0.6586
7 25 -15 8.3889 -0.4718
7 25 -12 -38.5471 0.7178
7 25 -9 -3.5198 0.8100
7 25 -6 -3.7111 -0.3579
7 25 -3 -1.2890 -1.1565
7 25 0 15.0169 0.1220
7 25 3 20.8817 0.8996
7 25 6 -32.1413 0.0123
7 25 9 30.5945 -0.8990
7 25 12 -42.2530 -0.7288
7 25 15 -22.7470 0.6850
7 25 18 46.9622 0.9323
7 25 21 -10.2288 -0.2912
7 25 24 14.7306 -0.9853
7 25 27 4.2825 0.2808
7 25 30 -6.1770 0.7971
7 25 33 11.7268 -0.3347
7 25 36 9.0371 -0.4916
7 25 39 0.0569 -0.0931
7 25 42 8.9676 0.1528
7 25 45 -1.7944 0.5568
7 25 48 -5.4307 -1.8538
7 26 -46 -8.0973 1.6558
7 26 -43 -2.4679 -0.6135
7 26 -40 11.7275 0.3211
7 26 -37 -2.5363 0.0271
7 26 -34 10.2731 0.6807
7 26 -31 14.4648 0.3094
7 26 -28 -0.5721 -0.8560
7 26 -25 -5.3208 -0.1163
7 26 -22 14.2787 0.8285
7 26 -19 -36.4697 0.3435
7 26 -16 33.2204 -0.9351
7 26 -13 -21.1257 -0.3728
7 26 -10 -7.3865 0.6079
7 26 -7 9.1957 0.5399
7 26 -4 32.7625 -0.3048
7 26 -1 -15.7796 -0.7895
7 26 2 8.7796 0.2128
7 26 5 -22.0390 0.9271
7 26 8 -5.3877 0.0337
7 26 11 3.7216 -0.8852
7 26 14 -50.0970 -0.1745
7 26 17 31.0321 0.8108
7 26 20 -1.9159 0.4476
7 26 23 -2.9365 -0.3910
7 26 26 31.3371 -0.4266
7 26 29 -16.6522 0.6407
7 26 32 10.3789 0.5323
7 26 35 -5.0556 0.4692
7 26 38 -7.8299 -0.0656
7 26 41 -10.2361 -0.2171
7 26 44 4.9733 0.7401
7 27 -44 -0.1812 -0.0515
7 27 -41 -1.9388 -0.8811
7 27 -38 13.8125 -0.0300
7 27 -35 -7.5842 0.0076
7 27 -32 8.5171 0.9037
7 27 -29 6.4844 0.2082
7 27 -26 -4.2913 -0.7025
7 27 -23 9.1362 0.0160
7 27 -20 16.4329 0.5988
7 27 -17 -6.0589 0.4488
7 27 -14 30.3996 -0.3900
7 27 -11 -8.6170 -0.5251
7 27 -8 -6.3787 0.4938
7 27 -5 35.4201 0.7575
7 27 -2 -23.9026 0.0503
7 27 1 -7.5840 -0.7300
7 27 4 20.8484 -0.4552
7 27 7 -3.4160 0.3499
7 27 10 35.8557 0.6341
7 27 13 -5.0603 -0.1933
7 27 16 -19.6772 -0.8486
7 27 19 25.7264 -0.1707
7 27 22 -11.5562 0.3502
7 27 25 -8.3386 0.1112
7 27 28 12.2681 -0.4052
7 27 31 5.3743 -0.7492
7 27 34 17.3230 -0.3524
7 27 37 1.9723 0.0731
7 27 40 -7.1189 0.8089
7 27 43 5.8608 -0.7951
7 28 -42 -9.2509 1.5033
7 28 -39 10.5158 0.0842
7 28 -36 2.7454 -0.2094
7 28 -33 -11.8704 -0.2212
7 28 -30 1.9013 0.6894
7 28 -27 -3.1121 0.2591
7 28 -24 7.4225 -0.7022
7 28 -21 -10.2853 -0.1835
7 28 -18 26.8978 0.4344
7 28 -15 4.9719 0.4610
7 28 -12 -22.1113 -0.5000
7 28 -9 10.7007 -0.6834
7 28 -6 -7.3938 -0.0486
7 28 -3 -5.4047 0.6762
7 28 0 -20.1365 0.1674
7 28 3 -22.5827 -0.7758
7 28 6 -8.6060 -0.2824
7 28 9 -0.2181 0.5198
7 28 12 6.7591 0.3137
7 28 15 10.2563 -0.1652
7 28 18 13.6597 -0.5895
7 28 21 -7.7728 -0.1296
7 28 24 -8.3083 0.6072
7 28 27 0.1326 0.0603
7 28 30 2.0024 -0.6498
7 28 33 -3.1734 -0.3025
7 28 36 -5.1932 0.3206
7 28 39 -5.5070 0.3679
7 28 42 -6.9241 -0.8694
7 29 -40 8.3228 -0.1207
7 29 -37 -25.6581 -0.2296
7 29 -34 -6.4492 0.3292
7 29 -31 -7.7084 0.1803
7 29 -28 -4.8338 0.0503
7 29 -25 1.9296 0.0462
7 29 -22 9.4634 -0.0427
7 29 -19 -8.4933 -0.1511
7 29 -16 16.4112 0.0794
7 29 -13 -16.4137 0.0763
7 29 -10 19.5414 0.3060
7 29 -7 18.3442 -0.1895
7 29 -4 -10.2714 -0.1716
7 29 -1 -7.8928 -0.0049
7 29 2 18.0639 0.3382
7 29 5 9.2713 0.3181
7 29 8 3.5069 -0.2135
7 29 11 -11.9031 -0.5095
7 29 14 6.8868 0.2578
7 29 17 -5.6813 0.3625
7 29 20 1.5011 -0.2248
7 29 23 -6.0709 0.0074
7 29 26 9.9752 -0.0461
7 29 29 -11.5361 0.1430
7 29 32 -2.4809 0.0063
7 29 35 -7.5184 -0.3456
7 29 38 -0.6655 -0.7578
7 29 41 2.1532 -0.6791
7 30 -38 -7.3509 0.5313
7 30 -35 2.4557 0.5144
7 30 -32 16.6021 0.1363
7 30 -29 -5.9287 -0.6720
7 30 -26 -5.6445 -0.2275
7 30 -23 17.4526 0.8751
7 30 -20 9.7267 0.3042
7 30 -17 -2.4652 -0.5826
7 30 -14 1.7290 -0.6198
7 30 -11 -18.0380 0.3805
7 30 -8 -6.7717 0.7398
7 30 -5 10.6489 -0.2451
7 30 -2 -20.0906 -0.8485
7 30 1 14.0534 -0.3876
7 30 4 22.3371 0.6363
7 30 7 -16.5469 0.5238
7 30 10 -8.6905 -0.7916
7 30 13 -5.0111 -0.7918
7 30 16 -17.2242 0.6667
7 30 19 13.0854 0.3728
7 30 22 5.4918 -0.2956
7 30 25 2.0518 -0.6977
7 30 28 26.4456 -0.0392
7 30 31 9.6548 0.1309
7 30 34 -2.9140 0.9084
7 30 37 -4.8501 -0.2753
7 30 40 -3.9439 0.4063
7 31 -36 7.2565 -0.3200
7 31 -33 -15.8175 0.4299
7 31 -30 19.7488 0.3598
7 31 -27 -9.9105 0.0503
7 31 -24 9.6133 -0.4218
7 31 -21 -5.7437 0.0923
7 31 -18 -0.3019 0.2839
7 31 -15 -9.9542 -0.1965
7 31 -12 -24.3855 -0.6993
7 31 -9 31.0549 0.0110
7 31 -6 0.7732 0.4976
7 31 -3 18.3640 0.1736
7 31 0 12.1035 -0.4920
7 31 3 7.3587 -0.3922
7 31 6 20.1539 0.5964
7 31 9 -4.3043 0.7061
7 31 12 -8.9105 -0.1192
7 31 15 -11.8565 -0.5841
7 31 18 -13.4733 0.0047
7 31 21 -1.8596 0.2195
7 31 24 0.7427 -0.3684
7 31 27 -0.6087 -0.7022
7 31 30 -0.0474 -0.5202
7 31 33 3.5964 0.7058
7 31 36 -7.6993 0.1682
7 32 -34 1.8576 0.5453
7 32 -31 10.6808 0.2965
7 32 -28 26.1805 -0.4089
7 32 -25 -15.0165 -0.1759
7 32 -22 22.1529 -0.3715
7 32 -19 -5.2383 0.8246
7 32 -16 -2.2067 0.0569
7 32 -13 1.2481 -0.3725
7 32 -10 10.4078 -0.3146
7 32 -7 4.1531 0.1547
7 32 -4 -2.5650 0.3978
7 32 -1 11.9800 -0.1472
7 32 2 -12.6715 -0.4132
7 32 5 -4.4062 0.0637
7 32 8 -2.0256 0.3279
7 32 11 -8.5140 -0.0941
7 32 14 32.8598 -0.4519
7 32 17 8.3706 -0.2405
7 32 20 -0.8087 0.2395
7 32 23 9.1542 0.4931
7 32 26 -0.5048 -0.2088
7 32 29 -21.0018 -0.5698
7 32 32 10.0561 -0.1969
7 32 35 -4.3970 -0.0817
7 33 -32 10.5812 -0.9187
7 33 -29 -9.2579 0.0352
7 33 -26 8.0563 0.6435
7 33 -23 5.6866 0.2156
7 33 -20 -4.3719 -0.2888
7 33 -17 -15.0391 -0.7912
7 33 -14 20.7684 0.7102
7 33 -11 2.9821 0.4016
7 33 -8 6.3319 0.0495
7 33 -5 26.3844 -0.4113
7 33 -2 -12.1891 0.2116
7 33 1 12.7076 0.4900
7 33 4 -8.4099 -0.1068
7 33 7 -7.1906 -0.2936
7 33 10 4.8270 -0.0030
7 33 13 -9.5363 0.2197
7 33 16 -0.1661 -0.0145
7 33 19 2.7320 -0.5325
7 33 22 6.4048 -0.0437
7 33 25 -3.9026 0.2396
7 33 28 0.9281 0.4534
7 33 31 -7.5336 0.2235
7 33 34 -9.0822 -0.4770
7 34 -30 10.6953 0.0643
7 34 -27 -2.6537 -0.3143
7 34 -24 1.4915 -0.0634
7 34 -21 -7.8942 0.2428
7 34 -18 12.8522 -0.2356
7 34 -15 10.7798 -0.1949
7 34 -12 -10.3641 -0.2463
7 34 -9 22.7742 -0.3414
7 34 -6 -6.4846 0.4107
7 34 -3 -15.3375 0.3310
7 34 0 -1.9289 -0.4471
7 34 3 0.1709 -0.2153
7 34 6 -4.5993 0.3991
7 34 9 5.0276 0.0423
7 34 12 -13.1558 0.1067
7 34 15 17.8863 0.0680
7 34 18 1.3579 0.4393
7 34 21 -4.7770 0.5736
7 34 24 -5.9624 -0.4654
7 34 27 7.2995 -0.5709
7 34 30 -4.6332 0.3362
7 35 -28 5.8515 -1.0474
7 35 -25 -19.1987 0.4865
7 35 -22 10.9945 -0.0265
7 35 -19 3.4766 0.6981
7 35 -16 -5.0060 -0.2110
7 35 -13 2.5544 -0.1909
7 35 -10 4.4089 0.4641
7 35 -7 6.0725 0.6380
7 35 -4 2.0509 -0.0692
7 35 -1 -6.2180 -0.8239
7 35 2 18.5086 -0.2307
7 35 5 17.0856 0.4452
7 35 8 5.1835 -0.1128
7 35 11 3.4894 -0.3671
7 35 14 2.2102 -0.9471
7 35 17 -20.4493 0.6218
7 35 20 -13.8185 -0.1461
7 35 23 -5.2670 -0.1661
7 35 26 16.8519 -0.9241
7 35 29 -11.3022 0.1980
7 36 -26 11.2952 0.2505
7 36 -23 -1.6850 0.0166
7 36 -20 7.5220 -0.5801
7 36 -17 -4.3669 0.0996
7 36 -14 10.1373 0.2697
7 36 -11 3.4506 0.3350
7 36 -8 -8.5656 -0.2265
7 36 -5 9.2234 0.3777
7 36 -2 -15.3731 0.1813
7 36 1 23.6295 -0.3044
7 36 4 -2.3413 0.0349
7 36 7 -6.2713 0.2658
7 36 10 7.4771 0.4991
7 36 13 -13.8603 0.3984
7 36 16 -2.2956 0.3899
7 36 19 3.3517 -0.5939
7 36 22 -2.1970 0.9087
7 36 25 3.0978 0.2870
7 37 -21 -1.6595 -0.7340
7 37 -18 0.9852 0.4219
7 37 -15 -15.5895 -0.3368
7 37 -12 -5.4236 -0.3759
7 37 -9 6.3642 0.7855
7 37 -6 -2.9427 0.1050
7 37 -3 9.4245 -0.9455
7 37 0 27.3224 -0.1225
7 37 3 6.8737 0.6719
7 37 6 -15.9602 0.5299
7 37 9 7.4875 -1.0294
7 37 12 -7.3074 -0.6932
7 37 15 1.9159 -0.2304
7 37 18 -0.9220 -1.7281
7 37 21 -2.7733 -0.1544
7 38 -16 -10.9101 -0.9005
7 38 -13 21.5609 -0.1200
7 38 -10 0.1878 0.8149
7 38 -7 -3.3052 -0.6987
7 38 -4 5.4013 -0.7056
7 38 -1 -0.4524 0.1975
7 38 2 4.7062 0.6055
7 38 5 -12.1654 0.3478
7 38 8 -12.4701 -0.9333
7 38 11 -6.6530 -0.4563
7 38 14 4.4684 1.7922
7 38 17 -5.8572 1.0124
7 39 -11 -1.9841 1.8038
7 39 -8 1.6066 -0.6107
7 39 -5 12.0394 0.0052
7 39 -2 -5.3647 -0.2768
7 39 1 5.3771 -0.3468
7 39 4 -2.1614 0.5730
7 39 7 -4.9110 0.0368
7 39 10 10.8827 -0.5250
8 1 -62 -2.9856 0.6333
8 1 -59 0.6652 1.6146
8 1 -56 -9.1267 -1.4979
8 1 -53 -6.5481 -1.9098
8 1 -50 1.7883 1.6220
8 1 -47 -25.5823 2.2529
8 1 -44 27.5375 -1.2064
8 1 -41 -15.3233 -3.0222
8 1 -38 -23.0526 0.2598
8 1 -35 8.6463 3.5613
8 1 -32 -24.7994 1.4896
8 1 -29 -63.3529 -4.2891
8 1 -26 20.9051 -2.1786
8 1 -23 56.0680 5.2908
8 1 -20 12.0148 3.0981
8 1 -17 33.7052 -4.0981
8 1 -14 -93.3518 -3.3306
8 1 -11 -269.2443 3.1792
8 1 -8 43.1581 5.1310
8 1 -5 -196.7487 -0.8570
8 1 -2 -94.7141 -6.0292
8 1 1 65.5725 -0.1865
8 1 4 -45.5009 6.7904
8 1 7 -96.8420 1.3511
8 1 10 327.5280 -5.6016
8 1 13 -1.2299 -1.9085
8 1 16 141.6528 3.6747
8 1 19 -10.6964 2.7235
8 1 22 -24.4287 -2.6809
8 1 25 -11.2850 -4.2105
8 1 28 15.6042 0.8927
8 1 31 -64.0645 3.8660
8 1 34 43.5289 -0.1309
8 1 37 -35.7752 -3.6695
8 1 40 -19.3008 -1.1645
8 1 43 15.0616 2.9352
8 1 46 -24.8102 2.0972
8 1 49 7.4247 -1.8924
8 1 52 0.8585 -2.1586
8 1 55 2.3977 1.4141
8 1 58 13.9592 2.2979
8 1 61 4.6433 -0.3953
8 2 -63 -2.8622 -3.1279
8 2 -60 -1.8590 -0.9850
8 2 -57 3.1187 0.8060
8 2 -54 6.5251 2.1451
8 2 -51 -8.0426 -0.0485
8 2 -48 23.4532 -2.2071
8 2 -45 -13.8878 -1.5337
8 2 -42 27.8621 1.8310
8 2 -39 -35.3567 2.2972
8 2 -36 31.7032 -0.9599
8 2 -33 -42.2080 -2.9717
8 2 -30 -34.1600 -0.1802
8 2 -27 -67.3820 3.5996
8 2 -24 22.1848 1.6675
8 2 -21 -79.0733 -3.4425
8 2 -18 -127.8275 -2.6818
8 2 -15 -37.7927 2.6049
8 2 -12 172.6995 3.6228
8 2 -9 2.0549 -0.7665
8 2 -6 219.3551 -4.0200
8 2 -3 -67.6216 -1.2800
8 2 0 115.5475 3.6241
8 2 3 121.0810 2.1084
8 2 6 85.4079 -3.6572
8 2 9 -103.3411 -4.3738
8 2 12 273.6394 1.0025
8 2 15 -319.6162 3.7745
8 2 18 -59.5912 0.0427
8 2 21 -48.1981 -3.9711
8 2 24 -44.2618 -1.5491
8 2 27 15.0878 3.5438
8 2 30 -30.7600 2.9605
8 2 33 -37.1619 -2.0749
8 2 36 36.4644 -2.9881
8 2 39 -46.7219 0.9182
8 2 42 47.1232 3.1644
8 2 45 -13.5579 0.3368
8 2 48 17.3796 -2.5083
8 2 51 -2.6084 -1.3493
8 2 54 0.8888 2.0276
8 2 57 -2.5068 2.1047
8 2 60 -1.1147 -1.0091
8 2 63 -8.0336 -1.6566
8 3 -61 1.0593 -1.3561
8 3 -58 1.4348 -0.3023
8 3 -55 1.7744 2.3451
8 3 -52 -18.9851 1.2878
8 3 -49 -4.4502 -1.9943
8 3 -46 -15.3039 -2.0929
8 3 -43 -27.5731 2.0923
8 3 -40 1.4029 3.2649
8 3 -37 -13.5874 -1.3479
8 3 -34 -0.0459 -3.7310
8 3 -31 -23.7159 0.4962
8 3 -28 -41.6144 4.6516
8 3 -25 122.4791 0.9140
8 3 -22 55.7999 -4.2037
8 3 -19 5.6208 -1.7577
8 3 -16 -16.8395 3.9875
8 3 -13 28.8653 4.1491
8 3 -10 -34.1330 -2.4158
8 3 -7 -215.6272 -5.0607
8 3 -4 56.3590 1.0494
8 3 -1 -130.7006 5.3831
8 3 2 41.7952 -0.3264
8 3 5 -220.9608 -5.5890
8 3 8 -291.6152 -1.4823
8 3 11 300.7466 4.6810
8 3 14 -7.3338 2.9487
8 3 17 48.5508 -3.9114
8 3 20 64.3531 -4.1523
8 3 23 12.7008 2.4984
8 3 26 74.9083 4.2704
8 3 29 7.6297 -1.3053
8 3 32 -55.7284 -4.1084
8 3 35 37.4348 -0.0883
8 3 38 9.4374 3.4733
8 3 41 -5.7104 1.2754
8 3 44 0.3816 -2.5002
8 3 47 8.4092 -1.7298
8 3 50 -0.8890 1.5582
8 3 53 8.4460 1.7637
8 3 56 -6.3116 -1.1371
8 3 59 11.4964 -2.3418
8 3 62 -16.1476 0.6832
8 4 -62 -10.7634 1.2231
8 4 -59 -0.4789 0.1908
8 4 -56 2.4536 -0.4865
8 4 -53 -16.8879 -0.8353
8 4 -50 17.5493 0.2740
8 4 -47 -4.4485 1.0149
8 4 -44 42.4303 0.6487
8 4 -41 -10.7507 -1.0468
8 4 -38 13.4831 -0.9508
8 4 -35 -12.9114 1.2311
8 4 -32 -28.5168 1.4563
8 4 -29 -26.7428 -0.8488
8 4 -26 32.8823 -1.5446
8 4 -23 -95.8282 0.3563
8 4 -20 -128.6929 1.5269
8 4 -17 -113.4021 0.4058
8 4 -14 -73.7024 -1.4521
8 4 -11 121.8978 -1.4783
8 4 -8 163.1417 0.9166
8 4 -5 67.3665 1.6590
8 4 -2 -65.1450 -1.2743
8 4 1 145.4346 -2.6517
8 4 4 -94.3968 -0.2266
8 4 7 26.9659 1.7702
8 4 10 235.7461 0.1738
8 4 13 -128.1265 -2.1058
8 4 16 2.7824 -1.6324
8 4 19 33.0494 1.3182
8 4 22 -106.1580 1.7699
8 4 25 -36.5324 -1.3517
8 4 28 -10.2735 -1.9913
8 4 31 -121.8594 0.5015
8 4 34 25.9442 1.9452
8 4 37 14.6409 0.1207
8 4 40 -3.5248 -1.7449
8 4 43 17.1707 -0.5690
8 4 46 -1.3200 1.4765
8 4 49 12.4360 0.6563
8 4 52 12.5764 -1.0414
8 4 55 1.0302 -0.8738
8 4 58 0.6498 0.8485
8 4 61 -0.6865 0.9613
8 5 -60 3.5723 0.7889
8 5 -57 -15.1503 0.7244
8 5 -54 -0.9417 -0.5229
8 5 -51 -9.4757 -1.2267
8 5 -48 8.9188 0.3623
8 5 -45 -20.4812 1.5979
8 5 -42 14.8200 0.1920
8 5 -39 -46.9890 -1.8817
8 5 -36 25.7205 -0.5416
8 5 -33 -39.3302 1.7928
8 5 -30 53.5948 1.1503
8 5 -27 -18.5528 -1.5674
8 5 -24 13.6739 -2.0663
8 5 -21 0.4552 0.8777
8 5 -18 216.5982 2.5855
8 5 -15 100.4338 -0.4769
8 5 -12 297.5280 -3.3060
8 5 -9 -164.8328 -0.2774
8 5 -6 72.7535 2.9861
8 5 -3 -231.9736 0.4496
8 5 0 5.2188 -2.7778
8 5 3 -47.4880 -2.0760
8 5 6 172.6005 1.9504
8 5 9 -97.7528 2.7081
8 5 12 94.7222 -0.8945
8 5 15 -236.6927 -2.6731
8 5 18 110.9018 0.9579
8 5 21 -71.4525 3.3281
8 5 24 26.0772 -0.0046
8 5 27 -33.3302 -2.6018
8 5 30 67.3541 -0.6921
8 5 33 -2.0325 2.2215
8 5 36 68.2406 1.4937
8 5 39 -8.4049 -1.4952
8 5 42 38.0462 -1.7506
8 5 45 -15.5963 0.9910
8 5 48 -3.3555 1.4092
8 5 51 -15.1441 -0.6022
8 5 54 -10.4905 -1.6635
8 5 57 -13.5293 0.0674
8 5 60 -6.3343 1.2007
8 6 -61 -1.2722 -1.2362
8 6 -58 -6.1101 0.4692
8 6 -55 7.2492 0.4974
8 6 -52 4.9130 -0.6116
8 6 -49 13.8030 -0.9082
8 6 -46 25.2791 0.8186
8 6 -43 21.0178 1.4226
8 6 -40 34.4639 -0.3909
8 6 -37 -17.0487 -1.6378
8 6 -34 -13.3627 -0.0468
8 6 -31 9.3128 2.0186
8 6 -28 -21.2159 0.8190
8 6 -25 5.5599 -2.0563
8 6 -22 -20.9243 -1.5237
8 6 -19 -60.8043 2.0375
8 6 -16 -58.6810 2.3774
8 6 -13 49.6727 -1.5126
8 6 -10 -238.1859 -2.8007
8 6 -7 -36.8706 0.6682
8 6 -4 95.1886 2.6248
8 6 -1 -21.5276 0.1328
8 6 2 -2.7343 -3.0890
8 6 5 301.4572 -1.1385
8 6 8 23.3739 2.1005
8 6 11 229.3994 1.5574
8 6 14 -114.0629 -1.7743
8 6 17 -84.4010 -2.3169
8 6 20 -7.8192 1.4097
8 6 23 -69.4159 2.9306
8 6 26 -54.8546 -0.3644
8 6 29 16.1892 -2.4494
8 6 32 10.1111 -0.4376
8 6 35 -2.0301 2.1253
8 6 38 33.5306 1.2379
8 6 41 -36.3441 -1.5774
8 6 44 16.5154 -1.8649
8 6 47 -12.8820 0.8388
8 6 50 -6.3457 1.8057
8 6 53 3.0099 -0.2583
8 6 56 -4.5798 -1.6417
8 6 59 -5.3179 0.1725
8 6 62 -0.2125 1.7930
8 7 -59 -11.5246 -0.8105
8 7 -56 -8.9063 -0.6772
8 7 -53 -3.6675 0.7867
8 7 -50 -5.4647 0.6846
8 7 -47 -7.8572 -0.5950
8 7 -44 -3.0080 -1.5582
8 7 -41 -62.3849 0.4079
8 7 -38 -0.3777 1.9467
8 7 -35 -32.1853 0.0541
8 7 -32 12.7234 -2.1263
8 7 -29 37.7217 -0.7326
8 7 -26 -43.0922 1.8288
8 7 -23 4.6114 1.1272
8 7 -20 41.4201 -1.7771
8 7 -17 25.2885 -2.1135
8 7 -14 206.4680 1.0645
8 7 -11 40.7170 2.2551
8 7 -8 -13.9561 -1.0424
8 7 -5 9.8125 -3.3716
8 7 -2 -91.3599 -0.3197
8 7 1 134.3531 2.9666
8 7 4 -90.1545 1.1671
8 7 7 -54.9475 -2.4530
8 7 10 -53.7425 -1.5678
8 7 13 -40.3208 1.7859
8 7 16 -72.9163 1.8308
8 7 19 -55.3642 -1.2776
8 7 22 20.7102 -2.2144
8 7 25 -82.1553 0.5342
8 7 28 41.5138 2.4075
8 7 31 37.1771 0.0571
8 7 34 41.8855 -2.1487
8 7 37 39.9563 -0.5731
8 7 40 -16.0617 1.2860
8 7 43 -6.6024 0.9250
8 7 46 6.4267 -0.7059
8 7 49 1.3705 -0.8558
8 7 52 -9.5452 0.1896
8 7 55 -14.4946 0.8090
8 7 58 -11.2598 -0.8134
8 7 61 6.3645 -0.7557
8 8 -60 4.0984 -0.2283
8 8 -57 -1.9862 0.2817
8 8 -54 24.8909 0.1750
8 8 -51 -0.8761 -0.5746
8 8 -48 20.3862 -0.2975
8 8 -45 7.0504 0.2602
8 8 -42 17.9688 0.3696
8 8 -39 3.6487 -0.2883
8 8 -36 80.0671 -0.8191
8 8 -33 -40.5722 -0.0606
8 8 -30 39.0726 1.0383
8 8 -27 -50.5701 0.3328
8 8 -24 36.3052 -0.9743
8 8 -21 43.9889 -0.4121
8 8 -18 15.2717 1.3712
8 8 -15 -101.8877 0.9730
8 8 -12 6.3202 -0.8009
8 8 -9 -7.0875 -0.9949
8 8 -6 -6.7825 0.3558
8 8 -3 83.5602 1.3439
8 8 0 140.6649 0.2629
8 8 3 -56.5543 -1.6555
8 8 6 60.3647 -0.8798
8 8 9 -121.1495 1.2140
8 8 12 50.2144 0.7724
8 8 15 25.1552 -1.1143
8 8 18 18.2801 -1.2083
8 8 21 63.5942 0.3199
8 8 24 105.5907 1.0942
8 8 27 -51.0988 -0.0731
8 8 30 95.4447 -1.4238
8 8 33 -48.1426 -0.3091
8 8 36 26.1793 0.8393
8 8 39 11.0647 0.5525
8 8 42 -10.1105 -0.5369
8 8 45 -16.9402 -0.4641
8 8 48 1.2473 0.4498
8 8 51 -13.6671 1.0029
8 8 54 -0.0536 0.0373
8 8 57 12.7358 -0.4457
8 8 60 7.9027 -1.0955
8 9 -58 -6.9623 0.7151
8 9 -55 -5.1319 -1.0088
8 9 -52 -7.8337 -1.6880
8 9 -49 7.8578 0.6315
8 9 -46 -6.3113 1.4834
8 9 -43 -2.2262 -0.0322
8 9 -40 -2.9483 -1.9171
8 9 -37 -9.1155 -0.7793
8 9 -34 9.4037 1.7668
8 9 -31 -0.3761 1.6060
8 9 -28 -15.0114 -1.3367
8 9 -25 11.5574 -2.1316
8 9 -22 -9.3820 0.8898
8 9 -19 1.7008 2.6417
8 9 -16 87.8550 0.0275
8 9 -13 -7.5256 -2.6851
8 9 -10 59.1935 -0.9445
8 9 -7 -68.8908 2.3027
8 9 -4 -12.0147 1.8204
8 9 -1 59.4766 -1.3340
8 9 2 -109.6072 -2.0093
8 9 5 127.9420 0.7624
8 9 8 -158.8807 2.7610
8 9 11 -17.1097 0.4937
8 9 14 -1.8679 -2.0937
8 9 17 9.3522 -0.8379
8 9 20 13.8010 1.7174
8 9 23 70.6239 1.5137
8 9 26 6.5093 -0.9154
8 9 29 32.2995 -1.8218
8 9 32 0.3821 -0.1575
8 9 35 -46.4000 1.6353
8 9 38 19.3604 0.3091
8 9 41 -21.7303 -1.4936
8 9 44 8.4943 -1.1310
8 9 47 2.9658 0.4610
8 9 50 10.0904 1.1776
8 9 53 3.3457 -0.0556
8 9 56 -2.7745 -1.1121
8 9 59 -0.2411 -0.3483
8 10 -59 -1.3240 0.0362
8 10 -56 -0.8603 0.2787
8 10 -53 16.8089 0.4718
8 10 -50 10.1675 -0.4154
8 10 -47 5.9099 -0.3150
8 10 -44 2.8176 0.5409
8 10 -41 27.4674 0.7988
8 10 -38 28.8672 -0.1830
8 10 -35 21.4852 -0.9916
8 10 -32 -40.1489 0.1505
8 10 -29 -9.7752 1.2062
8 10 -26 -67.4989 0.5299
8 10 -23 27.2239 -1.0514
8 10 -20 24.2387 -0.7853
8 10 -17 51.2639 0.9511
8 10 -14 60.6638 1.1908
8 10 -11 -19.5129 -0.1422
8 10 -8 -28.8126 -1.3097
8 10 -5 68.3733 -0.2386
8 10 -2 20.2830 1.4523
8 10 1 -41.7235 0.5398
8 10 4 -75.0220 -1.3876
8 10 7 87.3040 -0.9913
8 10 10 -17.6599 0.5566
8 10 13 54.1935 0.6079
8 10 16 -44.3600 -0.1489
8 10 19 -18.9455 -0.9151
8 10 22 -17.0298 -0.5910
8 10 25 2.7898 0.7812
8 10 28 40.9823 0.7169
8 10 31 24.1531 -0.2901
8 10 34 -8.7826 -0.7158
8 10 37 -14.8681 0.1782
8 10 40 6.7455 0.8947
8 10 43 20.6813 0.5889
8 10 46 -8.3709 -0.6101
8 10 49 -5.7474 -0.7746
8 10 52 3.8574 0.5420
8 10 55 -11.1516 0.4140
8 10 58 6.2516 0.0820
8 11 -57 -0.6258 0.1547
8 11 -54 -1.7217 0.3094
8 11 -51 -2.1932 -0.3991
8 11 -48 -1.4067 -0.5856
8 11 -45 7.2047 0.1223
8 11 -42 25.2028 0.5536
8 11 -39 -14.2805 0.2661
8 11 -36 -0.9054 -0.6241
8 11 -33 -86.5788 -0.2893
8 11 -30 34.7079 0.7322
8 11 -27 34.3135 0.7130
8 11 -24 -9.7786 -0.1929
8 11 -21 60.2535 -0.8115
8 11 -18 36.7850 0.2597
8 11 -15 -30.1888 0.8888
8 11 -12 91.2130 0.2324
8 11 -9 -88.3625 -0.4932
8 11 -6 -67.2324 -0.4810
8 11 -3 58.6044 0.2881
8 11 0 -142.6256 0.8069
8 11 3 -66.5294 0.2429
8 11 6 138.7219 -0.8249
8 11 9 1.3162 -0.7766
8 11 12 128.4643 0.7426
8 11 15 28.3470 0.8268
8 11 18 39.0767 -0.7057
8 11 21 33.4580 -1.0479
8 11 24 -14.8899 -0.1520
8 11 27 -74.5995 1.0373
8 11 30 37.5485 0.3472
8 11 33 19.8434 -1.0524
8 11 36 12.7576 -0.6707
8 11 39 -5.1468 0.6351
8 11 42 -6.5969 0.7602
8 11 45 -9.9899 -0.2254
8 11 48 -9.4904 -1.0191
8 11 51 1.8783 -0.1449
8 11 54 -3.6479 0.7735
8 11 57 3.6920 0.8347
8 12 -58 -9.0264 -0.5093
8 12 -55 8.8639 -0.2766
8 12 -52 6.7356 0.4720
8 12 -49 26.7183 1.1446
8 12 -46 -14.7369 -0.1850
8 12 -43 35.2416 -1.0689
8 12 -40 -18.0779 -0.3544
8 12 -37 -6.1503 1.1644
8 12 -34 -20.1531 0.9363
8 12 -31 -33.7721 -1.2721
8 12 -28 -15.5035 -1.4462
8 12 -25 4.2290 0.6287
8 12 -22 -54.9986 1.6140
8 12 -19 71.6677 -0.4732
8 12 -16 -43.4248 -2.2517
8 12 -13 -44.3704 -0.2413
8 12 -10 -39.8257 2.1709
8 12 -7 -35.9548 0.6326
8 12 -4 75.4545 -1.7804
8 12 -1 75.2938 -0.9919
8 12 2 -61.6993 1.6015
8 12 5 130.1287 1.6089
8 12 8 -21.4917 -0.7863
8 12 11 75.9311 -1.6950
8 12 14 -45.2343 0.4768
8 12 17 -25.3051 1.8766
8 12 20 -27.7520 0.0669
8 12 23 -20.6112 -1.7035
8 12 26 -35.1249 -0.4188
8 12 29 -50.1847 1.0606
8 12 32 25.9936 0.6840
8 12 35 -13.9267 -0.4974
8 12 38 8.8074 -1.1267
8 12 41 2.8028 0.1100
8 12 44 5.4109 1.1537
8 12 47 -4.7119 -0.2802
8 12 50 -0.1559 -0.8057
8 12 53 2.4431 -0.1256
8 12 56 -3.7970 0.0747
8 12 59 0.2874 0.4781
8 13 -56 -0.1108 0.8293
8 13 -53 4.7559 -0.2576
8 13 -50 -4.6909 -0.7258
8 13 -47 -24.7926 0.3205
8 13 -44 -4.4736 0.7489
8 13 -41 8.3493 -0.0472
8 13 -38 -47.2907 -0.9809
8 13 -35 -7.8792 -0.1807
8 13 -32 -28.1402 0.9180
8 13 -29 20.9589 0.4649
8 13 -26 48.7380 -0.7844
8 13 -23 64.3337 -0.8403
8 13 -20 16.4969 0.8118
8 13 -17 41.3479 1.2093
8 13 -14 -24.3543 -0.3517
8 13 -11 -81.5079 -1.1259
8 13 -8 49.8895 0.1171
8 13 -5 -10.7549 1.4249
8 13 -2 -128.2829 0.3581
8 13 1 80.2120 -0.9259
8 13 4 -23.9156 -0.5223
8 13 7 31.3359 0.3353
8 13 10 -10.9317 0.5819
8 13 13 -57.2464 -0.1973
8 13 16 -21.2766 -0.8535
8 13 19 67.6921 -0.2083
8 13 22 -27.1075 0.6574
8 13 25 109.6304 0.2219
8 13 28 -11.9969 -0.5399
8 13 31 -15.4060 -0.3760
8 13 34 27.4883 0.1804
8 13 37 -20.1420 0.1263
8 13 40 6.4230 -0.0346
8 13 43 1.2777 -0.1244
8 13 46 -14.5029 0.1901
8 13 49 6.3940 -0.3336
8 13 52 12.4524 -0.2472
8 13 55 -3.3290 -0.2954
8 13 58 -0.1342 0.5043
8 14 -57 3.6797 0.9607
8 14 -54 -3.8357 -0.5737
8 14 -51 -0.9892 -1.1140
8 14 -48 -3.9395 -0.0980
8 14 -45 13.6113 1.3616
8 14 -42 -13.1435 0.4402
8 14 -39 -12.4049 -1.4229
8 14 -36 -26.1196 -1.3000
8 14 -33 16.8240 1.3045
8 14 -30 16.2964 1.5969
8 14 -27 -16.6362 -0.9158
8 14 -24 -38.2959 -2.1952
8 14 -21 -9.2106 0.1495
8 14 -18 -30.5797 2.2122
8 14 -15 -63.4829 0.1704
8 14 -12 -47.7551 -2.2320
8 14 -9 31.6574 -0.6995
8 14 -6 40.0602 2.1144
8 14 -3 88.8629 1.3822
8 14 0 48.3819 -1.5063
8 14 3 126.0805 -1.9768
8 14 6 77.1149 0.9518
8 14 9 -6.8891 2.5408
8 14 12 -8.5729 0.1155
8 14 15 -38.9598 -1.8891
8 14 18 6.8277 -0.4843
8 14 21 -64.0812 1.6960
8 14 24 -23.0138 1.0455
8 14 27 53.0455 -1.1401
8 14 30 -7.2398 -1.5046
8 14 33 -2.5826 0.7751
8 14 36 -36.3696 1.5669
8 14 39 -15.4196 -0.4373
8 14 42 -13.7482 -1.4280
8 14 45 10.7361 0.0606
8 14 48 -4.6485 0.9467
8 14 51 7.4045 0.3441
8 14 54 2.8787 -0.7716
8 14 57 -0.4308 -0.7575
8 15 -55 7.7964 1.1168
8 15 -52 -14.0253 0.5684
8 15 -49 1.6185 -0.5608
8 15 -46 -9.4204 -0.5031
8 15 -43 -1.8501 0.1643
8 15 -40 -20.3399 0.9497
8 15 -37 2.7514 0.3791
8 15 -34 -22.0298 -0.7736
8 15 -31 24.4512 -0.5125
8 15 -28 1.7800 0.7853
8 15 -25 28.4571 0.8555
8 15 -22 -9.7662 -0.3179
8 15 -19 86.1572 -0.9695
8 15 -16 -37.8650 0.1191
8 15 -13 19.7723 1.1823
8 15 -10 65.9130 0.3893
8 15 -7 18.7541 -0.9282
8 15 -4 -11.6252 -0.6771
8 15 -1 -38.2020 0.7309
8 15 2 -139.4147 0.8308
8 15 5 52.3861 -0.3358
8 15 8 -74.9899 -1.0211
8 15 11 -35.7890 -0.1130
8 15 14 8.4109 0.5098
8 15 17 18.3292 -0.1105
8 15 20 9.4317 -0.6600
8 15 23 -27.6635 -0.4721
8 15 26 -2.2975 0.1077
8 15 29 14.1967 0.1146
8 15 32 -8.1369 -0.0852
8 15 35 11.4077 -0.3716
8 15 38 12.8190 -0.2957
8 15 41 -4.2222 0.1235
8 15 44 16.1250 -0.0002
8 15 47 5.1702 -0.0316
8 15 50 -1.7221 0.2854
8 15 53 16.3568 0.4570
8 15 56 3.3287 0.3355
8 16 -56 0.9698 -0.8709
8 16 -53 0.7215 0.1615
8 16 -50 -11.5519 -0.0807
8 16 -47 13.3455 0.1361
8 16 -44 -6.2342 -0.6134
8 16 -41 11.4209 0.2419
8 16 -38 -25.8509 0.4163
8 16 -35 19.3909 -0.1923
8 16 -32 -4.1336 -0.5525
8 16 -29 -2.9708 0.1191
8 16 -26 6.2990 0.3891
8 16 -23 -21.6637 0.2258
8 16 -20 -29.0368 -0.1954
8 16 -17 -4.8601 -0.4072
8 16 -14 -32.8937 0.4998
8 16 -11 3.6965 0.9775
8 16 -8 41.0212 -0.3789
8 16 -5 8.7291 -1.1203
8 16 -2 -4.0942 0.1549
8 16 1 101.3535 0.8040
8 16 4 -26.8790 0.2547
8 16 7 105.5369 -0.7692
8 16 10 2.1604 -0.4980
8 16 13 34.6613 0.7096
8 16 16 14.2844 1.2028
8 16 19 11.7948 -0.4834
8 16 22 -50.4978 -1.1583
8 16 25 -35.2903 0.1081
8 16 28 -24.6941 0.9090
8 16 31 -44.3882 -0.0703
8 16 34 33.4705 -0.9698
8 16 37 -22.5221 -0.6605
8 16 40 15.7410 0.4116
8 16 43 9.9761 0.3287
8 16 46 4.1822 -0.3071
8 16 49 -0.8345 -0.6240
8 16 52 14.9191 -0.8682
8 16 55 -7.6943 0.3209
8 17 -54 -7.3237 -0.2148
8 17 -51 0.2028 -0.3139
8 17 -48 -3.1523 0.2218
8 17 -45 -7.2095 0.4689
8 17 -42 -12.5115 -0.4496
8 17 -39 -3.1466 -0.3426
8 17 -36 -8.5180 0.2432
8 17 -33 19.2309 0.9110
8 17 -30 -16.0803 0.0954
8 17 -27 -0.9803 -0.6532
8 17 -24 30.3374 -0.3567
8 17 -21 3.0631 0.5288
8 17 -18 14.9432 0.4202
8 17 -15 31.3057 -0.4846
8 17 -12 14.0021 -0.7054
8 17 -9 26.8707 0.0580
8 17 -6 -24.6176 0.8145
8 17 -3 -16.8109 0.0545
8 17 0 -44.3012 -0.8141
8 17 3 20.0975 -0.3163
8 17 6 -25.7191 0.4739
8 17 9 -33.3260 0.6733
8 17 12 18.9439 -0.1245
8 17 15 -38.6313 -0.7318
8 17 18 -22.6430 -0.1867
8 17 21 39.8384 0.7080
8 17 24 -22.4738 0.4767
8 17 27 21.0112 -0.4216
8 17 30 -43.3904 -0.4369
8 17 33 -4.3946 0.4885
8 17 36 8.6103 0.6267
8 17 39 18.1854 0.0026
8 17 42 -2.7257 -0.2194
8 17 45 23.3455 -0.5855
8 17 48 -0.5142 0.3323
8 17 51 1.7541 -0.4148
8 17 54 -6.7158 -0.6575
8 18 -52 -4.9941 -0.5818
8 18 -49 9.9738 -0.5057
8 18 -46 4.1380 0.6469
8 18 -43 -7.9381 0.6072
8 18 -40 -3.2488 -0.3227
8 18 -37 12.0102 -0.3462
8 18 -34 -23.2421 -0.0280
8 18 -31 30.3995 0.6559
8 18 -28 -21.6787 0.1685
8 18 -25 -0.4403 -0.4943
8 18 -22 3.6532 -0.3719
8 18 -19 -22.3809 0.6513
8 18 -16 -44.4963 0.3461
8 18 -13 26.5105 -0.5259
8 18 -10 -55.9377 -0.3332
8 18 -7 -19.4391 0.2953
8 18 -4 -24.3941 0.5131
8 18 -1 14.1386 -0.0804
8 18 2 55.7639 -0.5200
8 18 5 91.0366 0.1001
8 18 8 -51.5019 0.5819
8 18 11 52.3037 -0.1242
8 18 14 -8.2044 -0.7433
8 18 17 -74.7968 -0.1787
8 18 20 2.1722 0.2471
8 18 23 -42.1798 0.1430
8 18 26 3.3096 -0.0867
8 18 29 45.6306 -0.3461
8 18 32 -11.0115 0.2633
8 18 35 21.3015 0.4463
8 18 38 13.3320 -0.0260
8 18 41 -9.8177 -0.0732
8 18 44 7.7394 -0.1518
8 18 47 16.1056 0.5751
8 18 50 -8.7323 0.7105
8 18 53 8.6719 -0.2689
8 19 -53 3.5393 0.6878
8 19 -50 -6.6905 -0.3819
8 19 -47 7.8395 -0.6153
8 19 -44 -0.3150 0.2185
8 19 -41 -12.7336 0.7371
8 19 -38 13.7711 -0.4778
8 19 -35 0.4787 -0.8048
8 19 -32 -17.0972 -0.1628
8 19 -29 13.4632 0.9072
8 19 -26 1.0293 0.2111
8 19 -23 -25.3070 -0.9263
8 19 -20 55.9656 -0.8425
8 19 -17 -27.4089 0.6858
8 19 -14 44.9933 0.6721
8 19 -11 -19.1084 -0.6108
8 19 -8 67.6729 -1.0257
8 19 -5 -3.7668 -0.0027
8 19 -2 -11.2718 1.0192
8 19 1 45.7457 0.1257
8 19 4 -21.0427 -1.1513
8 19 7 26.4763 -0.5290
8 19 10 -59.8851 0.8349
8 19 13 31.5500 1.0557
8 19 16 -1.8134 -0.4583
8 19 19 -4.7019 -1.1802
8 19 22 7.9042 0.3252
8 19 25 -5.5496 0.9696
8 19 28 57.7323 -0.0469
8 19 31 -9.9420 -1.0370
8 19 34 6.1129 -0.3414
8 19 37 -6.9203 0.4578
8 19 40 -1.9547 0.4937
8 19 43 -22.7032 -0.4242
8 19 46 4.6787 -0.6542
8 19 49 -7.2564 -0.1456
8 19 52 -4.9060 0.2364
8 20 -51 -3.2736 0.2743
8 20 -48 -9.5438 -0.0451
8 20 -45 18.0255 0.3459
8 20 -42 -0.4085 -0.1997
8 20 -39 7.5445 -0.0982
8 20 -36 8.8317 -0.1247
8 20 -33 -2.9571 0.0737
8 20 -30 -3.6781 -0.0815
8 20 -27 3.1712 0.0081
8 20 -24 -15.8195 -0.0143
8 20 -21 -8.5707 0.2632
8 20 -18 49.1899 -0.3128
8 20 -15 -33.9296 -0.2454
8 20 -12 1.4984 0.4759
8 20 -9 28.5789 0.1668
8 20 -6 11.2038 -0.3792
8 20 -3 28.3643 -0.0355
8 20 0 22.1585 0.4780
8 20 3 1.5069 0.1978
8 20 6 11.8450 -0.1018
8 20 9 -38.4245 -0.3215
8 20 12 -14.8202 0.0549
8 20 15 29.8554 0.3452
8 20 18 -29.8430 -0.1315
8 20 21 21.8903 -0.3507
8 20 24 -31.6782 -0.0270
8 20 27 -22.4843 0.5600
8 20 30 22.8045 0.1071
8 20 33 3.5924 -0.5033
8 20 36 3.8677 -0.5505
8 20 39 21.5608 -0.0116
8 20 42 2.8311 0.3338
8 20 45 9.7040 -0.7198
8 20 48 6.6437 -0.9338
8 20 51 -5.5210 0.4038
8 21 -52 2.3894 1.0820
8 21 -49 8.8492 0.1872
8 21 -46 2.6828 0.0317
8 21 -43 3.9537 -0.2075
8 21 -40 0.6255 0.0177
8 21 -37 -2.4640 0.4956
8 21 -34 -6.3270 -0.1135
8 21 -31 25.8776 -0.4208
8 21 -28 -40.3725 -0.7670
8 21 -25 19.2301 0.4225
8 21 -22 10.2515 0.5749
8 21 -19 -3.0759 -0.3898
8 21 -16 -3.0675 -0.9399
8 21 -13 20.4608 0.1368
8 21 -10 10.9743 0.7608
8 21 -7 9.5971 0.0031
8 21 -4 32.5191 -0.7213
8 21 -1 -8.6263 -0.4757
8 21 2 -14.0972 0.8279
8 21 5 -4.0405 0.7072
8 21 8 -36.8567 -0.9435
8 21 11 -6.8758 -0.8269
8 21 14 -1.2277 0.7319
8 21 17 -8.0267 1.1402
8 21 20 26.5189 0.0525
8 21 23 65.7114 -0.6122
8 21 26 -19.3496 -0.0708
8 21 29 37.8319 0.7918
8 21 32 -31.0780 0.7224
8 21 35 -21.1129 -0.5319
8 21 38 -1.0228 -0.2782
8 21 41 -1.7104 0.4809
8 21 44 -18.2226 0.3154
8 21 47 5.6912 -0.0366
8 21 50 -5.3475 -0.5562
8 22 -50 3.3009 -1.4703
8 22 -47 6.6218 -0.1764
8 22 -44 -1.0691 0.5184
8 22 -41 -8.0652 0.1248
8 22 -38 5.0297 -0.7734
8 22 -35 -9.7640 -0.2651
8 22 -32 -0.0657 0.6537
8 22 -29 -4.6104 0.8447
8 22 -26 12.2616 -0.5999
8 22 -23 16.7161 -0.8442
8 22 -20 53.5659 0.3324
8 22 -17 -49.1998 0.7996
8 22 -14 69.0100 -0.1680
8 22 -11 -19.0740 -0.9900
8 22 -8 7.5958 -0.1821
8 22 -5 -38.6151 0.9611
8 22 -2 -1.9237 0.3778
8 22 1 15.2080 -0.6464
8 22 4 0.4456 -0.6590
8 22 7 29.2790 0.7633
8 22 10 18.6223 0.8355
8 22 13 21.6478 -0.2325
8 22 16 15.7613 -0.7034
8 22 19 -70.4920 -0.0290
8 22 22 33.3963 0.5075
8 22 25 -41.3972 0.0880
8 22 28 -2.2499 -0.3878
8 22 31 -28.6880 -0.0336
8 22 34 4.8370 0.5055
8 22 37 -3.0669 0.4505
8 22 40 -1.7571 -0.3338
8 22 43 -4.7244 0.2084
8 22 46 16.5561 0.6443
8 22 49 5.8940 -0.4630
8 23 -48 -1.6279 0.1241
8 23 -45 11.8478 0.2491
8 23 -42 -4.4247 0.5929
8 23 -39 -13.3531 -0.6015
8 23 -36 11.7133 -0.5598
8 23 -33 -14.0904 0.4439
8 23 -30 -8.0747 0.4276
8 23 -27 29.3781 -0.1375
8 23 -24 12.8479 -0.8280
8 23 -21 16.0270 0.0390
8 23 -18 35.5750 0.5996
8 23 -15 -58.7193 0.3537
8 23 -12 57.7628 -0.5965
8 23 -9 -14.7817 -0.5324
8 23 -6 -44.7008 1.0052
8 23 -3 7.7092 0.7255
8 23 0 -7.5094 -0.4095
8 23 3 -17.1358 -0.7785
8 23 6 13.7715 0.3166
8 23 9 -19.8830 0.8966
8 23 12 29.7617 0.0550
8 23 15 28.8908 -0.7742
8 23 18 -42.2147 -0.5328
8 23 21 31.0191 0.6191
8 23 24 3.2976 0.6753
8 23 27 12.0014 -0.5507
8 23 30 10.7142 -0.8300
8 23 33 2.7944 0.2731
8 23 36 11.3232 0.3854
8 23 39 -7.8405 -0.3207
8 23 42 11.3115 -0.5320
8 23 45 -16.5116 -0.3221
8 23 48 5.6674 0.3069
8 24 -46 3.0500 -0.9749
8 24 -43 -9.8770 0.2235
8 24 -40 -19.4639 0.6560
8 24 -37 -16.5138 -0.3789
8 24 -34 4.9844 -0.5109
8 24 -31 -21.9284 -0.0113
8 24 -28 7.6238 0.5448
8 24 -25 35.8901 0.7225
8 24 -22 -30.6144 -0.5869
8 24 -19 -16.6902 -0.8361
8 24 -16 7.1978 0.2404
8 24 -13 -30.3399 0.8735
8 24 -10 19.2915 0.1169
8 24 -7 -18.7870 -1.0888
8 24 -4 5.5262 -0.5555
8 24 -1 36.1500 0.8037
8 24 2 26.7036 0.7081
8 24 5 5.9423 -0.6429
8 24 8 19.0132 -1.1016
8 24 11 20.2835 0.0652
8 24 14 14.9355 1.0012
8 24 17 21.4060 0.2101
8 24 20 -7.8643 -0.7057
8 24 23 0.3873 -0.3691
8 24 26 -21.9477 0.5274
8 24 29 -21.0078 0.7182
8 24 32 -29.4629 -0.2305
8 24 35 5.1894 -0.6018
8 24 38 -22.1259 0.0661
8 24 41 7.5926 0.2906
8 24 44 -16.7917 -0.0755
8 24 47 8.7719 -0.0459
8 25 -47 4.4318 0.6345
8 25 -44 -2.8086 -0.4946
8 25 -41 2.8683 -0.4201
8 25 -38 6.1572 -0.1279
8 25 -35 -3.3394 -0.1895
8 25 -32 18.2121 0.1289
8 25 -29 -2.6958 -0.0558
8 25 -26 21.9187 -0.3498
8 25 -23 3.8224 0.1326
8 25 -20 -15.8781 0.0993
8 25 -17 -1.0751 -0.3045
8 25 -14 23.3085 0.0313
8 25 -11 -32.3174 0.1703
8 25 -8 35.8796 0.3618
8 25 -5 -3.4011 0.0556
8 25 -2 32.3412 0.0480
8 25 1 21.5119 0.1013
8 25 4 -19.3708 0.1526
8 25 7 8.5523 0.2265
8 25 10 3.2541 0.0461
8 25 13 -56.7575 -0.1477
8 25 16 25.0297 -0.0675
8 25 19 -23.3814 0.2942
8 25 22 16.8163 0.0261
8 25 25 21.9489 -0.1301
8 25 28 -6.0609 0.2737
8 25 31 6.6088 -0.0538
8 25 34 19.1876 0.0147
8 25 37 -15.6497 0.1570
8 25 40 2.9483 -0.4599
8 25 43 2.1713 0.4572
8 25 46 -0.5392 -0.3398
8 26 -45 1.5216 0.7288
8 26 -42 -18.3404 -0.8150
8 26 -39 11.3233 -0.2140
8 26 -36 7.7576 0.2246
8 26 -33 3.0260 0.7312
8 26 -30 19.1413 -0.5943
8 26 -27 11.3463 -0.6222
8 26 -24 -14.3313 0.1317
8 26 -21 -24.3485 1.0651
8 26 -18 15.1216 0.1734
8 26 -15 -29.8966 -0.9492
8 26 -12 44.8414 -0.4518
8 26 -9 -20.9427 0.7209
8 26 -6 -4.8666 0.7115
8 26 -3 54.5998 -0.4627
8 26 0 -7.8264 -0.7524
8 26 3 15.4667 0.0821
8 26 6 35.8667 0.5356
8 26 9 27.4826 0.1829
8 26 12 6.0988 -0.4084
8 26 15 7.6221 -0.3775
8 26 18 6.0537 0.4197
8 26 21 0.7070 0.7304
8 26 24 -2.3840 -0.2014
8 26 27 -29.3307 -0.3754
8 26 30 1.4138 -0.0054
8 26 33 -8.9142 0.3816
8 26 36 -16.7774 0.6920
8 26 39 -19.3196 0.3941
8 26 42 -4.6226 -0.0361
8 26 45 -8.4701 0.2821
8 27 -43 -6.1551 0.0908
8 27 -40 3.7762 -0.6870
8 27 -37 7.2427 -0.1342
8 27 -34 1.4092 -0.0751
8 27 -31 7.9403 0.3793
8 27 -28 -1.3562 0.0342
8 27 -25 13.1699 -0.3184
8 27 -22 -49.5755 -0.3731
8 27 -19 19.1657 0.2929
8 27 -16 0.5364 0.6419
8 27 -13 -1.4970 -0.2623
8 27 -10 12.0526 -0.5091
8 27 -7 -2.8030 -0.1222
8 27 -4 25.8668 0.5887
8 27 -1 12.7126 0.2772
8 27 2 -14.4165 -0.3648
8 27 5 -1.9793 -0.4491
8 27 8 15.2967 0.2725
8 27 11 11.5265 0.7320
8 27 14 -7.8272 -0.0747
8 27 17 8.9612 -0.7162
8 27 20 -31.2325 0.0513
8 27 23 -0.4104 0.4175
8 27 26 -29.5101 0.1181
8 27 29 0.4010 -0.7033
8 27 32 -13.0149 -0.4706
8 27 35 5.2298 0.1402
8 27 38 -1.4077 0.2406
8 27 41 6.9912 -0.8203
8 27 44 3.3793 0.3361
8 28 -41 -1.3766 0.0259
8 28 -38 -9.0587 -0.2346
8 28 -35 3.5014 -0.0270
8 28 -32 16.3957 0.1828
8 28 -29 -21.4916 0.7134
8 28 -26 13.5201 -0.3041
8 28 -23 -7.3500 -0.3576
8 28 -20 1.9223 0.0991
8 28 -17 34.3905 0.7136
8 28 -14 13.9495 0.2099
8 28 -11 -27.0663 -0.4326
8 28 -8 24.4803 -0.2478
8 28 -5 -27.1636 0.3463
8 28 -2 -1.7169 0.6116
8 28 1 9.8658 -0.1497
8 28 4 -21.8071 -0.6458
8 28 7 16.2067 -0.0860
8 28 10 21.1338 0.5231
8 28 13 -12.1730 0.3635
8 28 16 31.6766 -0.4752
8 28 19 -5.3498 -0.2197
8 28 22 5.0416 0.5295
8 28 25 -7.1932 0.4343
8 28 28 3.6282 0.3775
8 28 31 -6.4891 0.0910
8 28 34 -3.5630 -0.6661
8 28 37 4.6393 0.5355
8 28 40 -9.5454 0.4542
8 29 -39 7.3258 0.6750
8 29 -36 -1.6066 -0.3555
8 29 -33 -7.7700 0.2039
8 29 -30 -13.2263 -0.4955
8 29 -27 -29.3010 0.4480
8 29 -24 -3.1604 0.5711
8 29 -21 5.0404 0.1641
8 29 -18 1.6994 -0.7291
8 29 -15 -9.0999 -0.3923
8 29 -12 -1.3502 0.6754
8 29 -9 -0.1846 0.3773
8 29 -6 19.8076 -0.7101
8 29 -3 14.3614 -0.7107
8 29 0 5.4411 0.3807
8 29 3 23.3008 0.7359
8 29 6 6.9363 -0.4446
8 29 9 -7.2663 -0.9356
8 29 12 2.8280 0.0426
8 29 15 -7.8005 0.8107
8 29 18 4.0939 -0.3401
8 29 21 4.6674 -0.6249
8 29 24 -8.1168 -0.5871
8 29 27 11.9753 -0.0658
8 29 30 10.6560 0.1571
8 29 33 -24.3415 -0.1320
8 29 36 11.6188 -0.4025
8 29 39 -10.1117 1.0254
8 30 -37 -1.5232 0.3557
8 30 -34 -9.4784 -0.2083
8 30 -31 0.7302 0.3698
8 30 -28 1.5061 -0.0519
8 30 -25 0.9294 0.1741
8 30 -22 13.8178 0.2877
8 30 -19 -7.0973 0.1360
8 30 -16 3.4164 0.2360
8 30 -13 -5.0609 -0.1356
8 30 -10 6.5169 0.0555
8 30 -7 3.1399 -0.0672
8 30 -4 -8.9063 0.0863
8 30 -1 4.3576 0.1486
8 30 2 -10.4409 0.0375
8 30 5 13.5407 -0.0132
8 30 8 -5.4654 0.0045
8 30 11 -6.5874 -0.0894
8 30 14 -22.6174 0.3624
8 30 17 0.0969 0.0092
8 30 20 1.4922 0.1418
8 30 23 3.7699 -0.1292
8 30 26 -2.6903 -0.2216
8 30 29 27.5800 0.0188
8 30 32 -6.1243 0.3892
8 30 35 5.2781 -0.1069
8 30 38 5.6799 0.1446
8 31 -35 10.3866 0.7729
8 31 -32 -2.3482 0.2440
8 31 -29 -2.6248 -0.4258
8 31 -26 -2.4470 -0.6860
8 31 -23 1.4107 0.0228
8 31 -20 -23.2215 0.8997
8 31 -17 12.2978 0.4249
8 31 -14 -10.0070 -0.4804
8 31 -11 -18.2902 -0.6854
8 31 -8 19.9642 0.8954
8 31 -5 -10.2044 0.9558
8 31 -2 26.5335 -0.6663
8 31 1 -3.7946 -1.1714
8 31 4 -0.7397 0.1972
8 31 7 17.2370 0.9905
8 31 10 11.8923 -0.0355
8 31 13 -2.3858 -0.6167
8 31 16 10.1755 -0.8620
8 31 19 -3.6320 0.5853
8 31 22 3.8559 0.6329
8 31 25 -4.4593 -0.1275
8 31 28 5.0673 -0.9388
8 31 31 6.7696 -0.1214
8 31 34 -1.8859 0.7255
8 31 37 -0.7392 -0.5273
8 32 -33 -7.7446 0.3247
8 32 -30 -2.1338 0.0111
8 32 -27 2.1229 0.2405
8 32 -24 6.4160 0.0046
8 32 -21 -10.7562 0.2562
8 32 -18 11.7870 0.1887
8 32 -15 2.9989 -0.2269
8 32 -12 3.2081 -0.5038
8 32 -9 7.0481 -0.0726
8 32 -6 7.2315 0.3687
8 32 -3 9.7448 0.2080
8 32 0 -19.2165 -0.2425
8 32 3 -7.3816 0.0167
8 32 6 -6.9040 0.3034
8 32 9 -14.1432 0.2119
8 32 12 3.1072 -0.1455
8 32 15 -5.3906 -0.3905
8 32 18 10.1834 -0.0566
8 32 21 -2.6329 -0.2216
8 32 24 -4.0274 -0.3428
8 32 27 -5.7397 -0.3828
8 32 30 3.2169 -0.3055
8 32 33 3.6583 1.2613
8 33 -31 10.1414 0.3520
8 33 -28 -10.4384 0.1780
8 33 -25 -5.9862 -0.2366
8 33 -22 3.6217 0.3858
8 33 -19 6.4764 -0.2363
8 33 -16 -11.7759 0.2478
8 33 -13 -2.6540 0.3189
8 33 -10 -19.2504 -0.4747
8 33 -7 -0.9633 -0.4594
8 33 -4 -15.4494 0.0623
8 33 -1 -4.9712 0.2905
8 33 2 0.8582 0.0817
8 33 5 12.9483 -0.4338
8 33 8 -1.3437 -0.0403
8 33 11 19.2021 -0.0320
8 33 14 8.8153 0.1297
8 33 17 15.8365 0.5068
8 33 20 -0.8180 -0.2135
8 33 23 12.5136 -0.1594
8 33 26 -1.1388 -0.2513
8 33 29 15.8209 -0.2000
8 33 32 -5.6708 -0.9377
8 34 -29 3.0260 0.0557
8 34 -26 -3.8118 0.0019
8 34 -23 2.3424 0.0861
8 34 -20 5.7573 0.6378
8 34 -17 9.8946 -0.2339
8 34 -14 3.7440 0.3306
8 34 -11 -7.1732 0.0863
8 34 -8 18.1341 -0.2090
8 34 -5 -7.3661 0.1160
8 34 -2 -8.7149 0.2311
8 34 1 0.4797 -0.2046
8 34 4 9.8253 -0.4267
8 34 7 3.1920 0.2987
8 34 10 -5.3584 0.2552
8 34 13 -22.1320 -0.1963
8 34 16 -10.4676 0.1855
8 34 19 -3.8295 0.1468
8 34 22 10.8045 -0.4232
8 34 25 5.3026 0.1876
8 34 28 3.0959 0.8381
8 35 -27 6.3116 -0.2196
8 35 -24 -7.9654 0.3763
8 35 -21 1.5677 0.2103
8 35 -18 3.7803 -0.2403
8 35 -15 -15.6081 0.0025
8 35 -12 -18.9340 -0.1899
8 35 -9 3.5904 0.0328
8 35 -6 -5.5961 0.4860
8 35 -3 -1.1073 0.2935
8 35 0 -1.4537 -0.3411
8 35 3 12.8247 -0.3253
8 35 6 10.4219 0.3555
8 35 9 1.0366 0.1936
8 35 12 5.2189 -0.1136
8 35 15 5.8776 -0.8285
8 35 18 6.1493 0.1225
8 35 21 -6.9789 0.0849
8 35 24 -0.2135 -0.2544
8 35 27 6.1449 1.0757
8 36 -22 1.4646 -0.2302
8 36 -19 5.1346 0.0756
8 36 -16 -10.2673 0.5670
8 36 -13 6.6854 -0.7992
8 36 -10 7.3975 -0.1049
8 36 -7 12.5126 0.0413
8 36 -4 2.0360 0.7939
8 36 -1 19.9034 0.0275
8 36 2 0.9583 -0.8755
8 36 5 1.4877 -0.4083
8 36 8 6.2887 0.2990
8 36 11 -3.9491 0.3320
8 36 14 -1.3075 -0.7526
8 36 17 8.4743 -0.0010
8 36 20 -11.5335 0.4176
8 36 23 11.1494 -0.1636
8 37 -20 -9.7717 0.3272
8 37 -17 -0.7746 -0.0523
8 37 -14 -0.1355 -0.4506
8 37 -11 -4.5217 0.0338
8 37 -8 6.3588 -0.1836
8 37 -5 -7.3965 0.4954
8 37 -2 2.6611 -0.0155
8 37 1 0.3899 -0.2574
8 37 4 -3.3493 0.2257
8 37 7 -3.5453 0.4599
8 37 10 -8.0647 0.0783
8 37 13 9.3895 -0.4922
8 37 16 1.5987 -0.6582
8 37 19 9.1550 0.1042
8 38 -15 -6.3810 -0.8575
8 38 -12 3.4806 1.4638
8 38 -9 12.3809 0.0435
8 38 -6 0.4345 -0.2769
8 38 -3 6.3772 -0.2926
8 38 0 5.7469 0.0870
8 38 3 6.1404 0.1860
8 38 6 -0.5337 -0.3713
8 38 9 -2.0022 -0.8945
8 38 12 6.5224 -0.3431
8 38 15 -5.5515 1.1530
8 39 -4 -10.5194 -0.0087
8 39 -1 -3.3746 -0.5399
8 39 2 0.1303 0.0009
8 39 5 2.1044 0.2045
9 1 -61 -4.5114 -3.3228
9 1 -58 9.5258 0.6071
9 1 -55 -9.8775 3.1907
9 1 -52 10.4664 0.2664
9 1 -49 -3.3416 -4.0335
9 1 -46 15.6132 -2.0780
9 1 -43 13.6365 4.2813
9 1 -40 26.9445 4.2326
9 1 -37 -16.7956 -3.2678
9 1 -34 46.5986 -6.2706
9 1 -31 -95.9919 1.5995
9 1 -28 66.6123 7.2890
9 1 -25 1.7491 0.1322
9 1 -22 11.4494 -8.1280
9 1 -19 -29.5446 -3.2362
9 1 -16 -56.5989 7.0958
9 1 -13 -44.4105 5.3361
9 1 -10 -39.4699 -6.4821
9 1 -7 -51.7946 -8.1199
9 1 -4 90.3541 3.8415
9 1 -1 -160.8765 9.3149
9 1 2 379.6416 -0.5639
9 1 5 -111.6240 -8.5570
9 1 8 65.4477 -1.8073
9 1 11 60.8414 8.2702
9 1 14 79.7935 5.4245
9 1 17 7.9695 -5.3489
9 1 20 78.1209 -5.9761
9 1 23 33.3740 3.6845
9 1 26 12.1081 7.2200
9 1 29 -37.8877 -1.2433
9 1 32 4.6420 -6.9085
9 1 35 -17.3813 -1.0278
9 1 38 7.5961 5.5037
9 1 41 -0.9923 2.3193
9 1 44 4.1422 -4.0049
9 1 47 -21.7752 -3.1065
9 1 50 14.1234 2.1300
9 1 53 -19.7787 3.4476
9 1 56 10.4330 -0.7974
9 1 59 -10.8650 -2.9502
9 1 62 -1.4406 0.7699
9 2 -62 8.2148 -1.5978
9 2 -59 -4.2076 -1.3757
9 2 -56 -0.2822 1.5786
9 2 -53 -7.1411 1.2229
9 2 -50 -19.5804 -1.6538
9 2 -47 12.1977 -2.3679
9 2 -44 -9.5211 1.2534
9 2 -41 -20.1247 3.1904
9 2 -38 -13.3294 -0.4020
9 2 -35 -22.1073 -4.3560
9 2 -32 3.3189 -0.6420
9 2 -29 1.4649 4.9874
9 2 -26 8.0906 2.1617
9 2 -23 -89.7306 -4.7357
9 2 -20 -4.0372 -3.4208
9 2 -17 -75.1910 3.8153
9 2 -14 84.5486 5.4256
9 2 -11 148.8064 -2.2205
9 2 -8 149.0724 -6.7624
9 2 -5 -90.2483 0.8534
9 2 -2 302.1699 7.6962
9 2 1 -306.5036 1.8713
9 2 4 -194.6295 -5.9149
9 2 7 -71.4466 -3.3029
9 2 10 -177.5598 4.6399
9 2 13 147.1746 5.4756
9 2 16 42.1582 -3.4659
9 2 19 -168.6604 -6.4074
9 2 22 0.7065 1.7244
9 2 25 -16.7347 6.7816
9 2 28 -12.5479 0.5739
9 2 31 23.5425 -5.1487
9 2 34 73.4771 -2.2911
9 2 37 -44.4022 3.8183
9 2 40 20.8532 3.2969
9 2 43 -17.8756 -2.7755
9 2 46 16.2909 -3.7183
9 2 49 16.2280 1.1790
9 2 52 -15.2204 2.8877
9 2 55 -12.0937 -0.2591
9 2 58 -0.8678 -3.6231
9 2 61 -10.9032 -0.7214
9 3 -60 -4.5846 1.7360
9 3 -57 12.0342 -0.5417
9 3 -54 -15.6902 -2.3212
9 3 -51 6.2446 -0.1738
9 3 -48 -6.9811 2.6872
9 3 -45 1.0698 0.5201
9 3 -42 -5.8278 -2.4865
9 3 -39 18.3522 -1.0626
9 3 -36 5.3017 2.2036
9 3 -33 47.9307 1.9844
9 3 -30 -40.0610 -1.8135
9 3 -27 -7.7779 -3.0975
9 3 -24 12.7591 0.8151
9 3 -21 -6.8274 3.2931
9 3 -18 11.3754 -0.6535
9 3 -15 25.5717 -4.0361
9 3 -12 71.7222 -0.7784
9 3 -9 213.1294 3.4117
9 3 -6 -131.0869 1.7995
9 3 -3 62.7338 -2.8632
9 3 0 -114.6829 -2.6538
9 3 3 -10.8849 2.3164
9 3 6 -82.9943 3.8213
9 3 9 121.1085 -0.4080
9 3 12 -44.3292 -3.2134
9 3 15 204.0160 0.0034
9 3 18 -0.6269 3.1430
9 3 21 -5.9181 0.1795
9 3 24 81.0942 -2.8022
9 3 27 30.4675 -0.9536
9 3 30 -58.5022 1.7018
9 3 33 8.5890 1.2029
9 3 36 -25.1611 -1.0374
9 3 39 3.2462 -1.6605
9 3 42 6.8014 0.6620
9 3 45 -20.9531 1.4997
9 3 48 0.0640 0.1468
9 3 51 -4.0603 -1.1424
9 3 54 -11.3529 0.1501
9 3 57 4.5983 0.7515
9 3 60 -4.6401 -0.5841
9 4 -61 -7.5465 -0.0293
9 4 -58 11.2435 0.7327
9 4 -55 -19.6270 -0.3997
9 4 -52 2.6259 -0.7212
9 4 -49 1.7323 0.1554
9 4 -46 -5.9728 0.8634
9 4 -43 21.4291 -0.2940
9 4 -40 -4.1748 -1.6546
9 4 -37 -11.2309 -0.3138
9 4 -34 36.7810 1.7052
9 4 -31 -4.7767 0.4245
9 4 -28 -7.7555 -1.9798
9 4 -25 51.5999 -0.9830
9 4 -22 -60.8633 1.8590
9 4 -19 99.9176 1.6087
9 4 -16 24.4820 -1.1269
9 4 -13 -4.5117 -2.0724
9 4 -10 -44.9536 1.5027
9 4 -7 -65.8159 3.6974
9 4 -4 78.1703 0.3479
9 4 -1 -193.5713 -2.3632
9 4 2 290.3281 0.1681
9 4 5 -211.0406 2.9880
9 4 8 2.3188 1.1739
9 4 11 -5.8780 -1.9532
9 4 14 -58.3091 -1.7696
9 4 17 120.8756 1.7263
9 4 20 -8.9602 2.8758
9 4 23 -55.1118 -0.8368
9 4 26 61.2445 -3.0553
9 4 29 -48.9532 -0.0731
9 4 32 -30.2954 2.7074
9 4 35 -7.0582 0.6718
9 4 38 -38.6585 -2.4425
9 4 41 -1.4730 -1.5839
9 4 44 -17.4015 1.5303
9 4 47 -12.3186 1.6910
9 4 50 9.9939 -0.9961
9 4 53 -17.2460 -1.8385
9 4 56 -0.6104 0.4075
9 4 59 -2.7511 2.0881
9 4 62 3.5782 -1.0183
9 5 -62 -7.3390 0.3161
9 5 -59 0.5944 -0.8818
9 5 -56 -8.5836 0.9888
9 5 -53 8.6175 0.4472
9 5 -50 -10.2671 -0.8670
9 5 -47 9.9839 -1.1604
9 5 -44 -14.1198 0.6793
9 5 -41 4.8802 1.1973
9 5 -38 0.0648 -0.2736
9 5 -35 -22.5442 -1.7078
9 5 -32 36.1354 -0.2500
9 5 -29 -42.8984 1.9097
9 5 -26 -49.2996 0.6524
9 5 -23 -7.4907 -1.7716
9 5 -20 -19.8607 -1.0365
9 5 -17 -2.2193 1.1887
9 5 -14 18.3833 1.2248
9 5 -11 -80.1958 -0.3610
9 5 -8 4.6329 -1.2964
9 5 -5 119.1115 0.3348
9 5 -2 -220.4836 2.3187
9 5 1 -4.6036 0.6482
9 5 4 29.5189 -1.3655
9 5 7 92.4233 -0.3566
9 5 10 18.7850 1.2447
9 5 13 -30.4671 0.7197
9 5 16 -88.0129 -0.4579
9 5 19 -42.7910 -0.5222
9 5 22 -86.9975 0.3122
9 5 25 33.5839 0.4374
9 5 28 0.9193 0.0031
9 5 31 -42.8419 -0.5542
9 5 34 -8.6397 -0.2554
9 5 37 -42.2714 0.6175
9 5 40 7.5297 0.2737
9 5 43 -0.0173 -0.3692
9 5 46 3.5153 -0.1993
9 5 49 -13.1042 -0.0098
9 5 52 -7.8419 0.0183
9 5 55 -2.8870 0.1264
9 5 58 -0.1818 0.8497
9 5 61 -0.4617 -0.0899
9 6 -60 -4.0915 -0.9274
9 6 -57 1.8039 -0.9354
9 6 -54 -7.5416 0.6138
9 6 -51 -2.3465 1.0791
9 6 -48 -15.0313 -0.3392
9 6 -45 22.0664 -1.4918
9 6 -42 -21.1707 0.1564
9 6 -39 31.0987 1.5823
9 6 -36 -24.9211 0.4685
9 6 -33 38.9420 -1.6080
9 6 -30 -25.4235 -1.0035
9 6 -27 -11.1929 1.1983
9 6 -24 26.9044 1.7581
9 6 -21 20.7837 -0.9245
9 6 -18 -69.9854 -2.7037
9 6 -15 78.7143 0.3349
9 6 -12 -33.0904 3.1411
9 6 -9 1.4844 0.5748
9 6 -6 95.3006 -2.4409
9 6 -3 -137.6746 -0.8452
9 6 0 136.1274 2.1464
9 6 3 17.2381 1.8397
9 6 6 -58.8034 -1.4801
9 6 9 237.0340 -2.9089
9 6 12 -44.6241 0.2780
9 6 15 41.4313 2.7679
9 6 18 43.9029 0.0128
9 6 21 8.5466 -2.3290
9 6 24 -18.2951 -0.5513
9 6 27 20.4049 1.6686
9 6 30 -25.2185 1.2601
9 6 33 16.9933 -0.9083
9 6 36 13.2851 -1.6899
9 6 39 -18.6618 0.2743
9 6 42 -22.6663 1.8318
9 6 45 -7.9725 0.0815
9 6 48 -20.5151 -1.2707
9 6 51 0.4792 -0.6498
9 6 54 -16.3099 0.7774
9 6 57 -2.0662 0.5137
9 6 60 -0.7552 0.1917
9 7 -61 6.6955 -0.7865
9 7 -58 -3.8532 0.8303
9 7 -55 -9.4301 -0.2448
9 7 -52 -1.8836 -0.2029
9 7 -49 3.0368 0.0407
9 7 -46 -6.1048 0.4025
9 7 -43 12.3614 0.0179
9 7 -40 -24.0125 -0.3893
9 7 -37 24.9835 -0.1811
9 7 -34 -1.3083 0.4652
9 7 -31 -24.5228 -0.0924
9 7 -28 -28.9631 -0.6995
9 7 -25 41.4576 -0.2352
9 7 -22 -88.1826 0.4633
9 7 -19 -77.5326 0.3707
9 7 -16 -63.1735 -0.3182
9 7 -13 -93.4042 -0.8073
9 7 -10 58.0326 0.0259
9 7 -7 118.1118 1.0386
9 7 -4 -127.7009 0.2055
9 7 -1 144.0185 -0.8047
9 7 2 152.6613 -0.0132
9 7 5 -175.6201 0.6470
9 7 8 127.2504 0.4725
9 7 11 95.6296 -0.2669
9 7 14 8.0936 -0.7999
9 7 17 56.9956 0.0337
9 7 20 -67.3667 1.0148
9 7 23 -8.5784 0.0813
9 7 26 -74.7995 -1.1107
9 7 29 -61.0679 -0.2289
9 7 32 -105.9216 0.9066
9 7 35 33.1996 0.4684
9 7 38 -29.7079 -0.5448
9 7 41 -9.0454 -0.9322
9 7 44 7.2800 0.2966
9 7 47 3.0235 1.1198
9 7 50 14.1796 -0.2091
9 7 53 -2.5871 -1.2953
9 7 56 11.1548 -0.4436
9 7 59 1.7010 -0.2161
9 8 -59 0.2723 -0.0967
9 8 -56 -9.1066 0.2742
9 8 -53 3.7186 -0.2076
9 8 -50 -23.2004 -0.0249
9 8 -47 13.6956 0.4600
9 8 -44 -30.0940 0.4396
9 8 -41 17.9509 -0.3417
9 8 -38 4.1452 -0.7570
9 8 -35 12.9090 0.2662
9 8 -32 -4.3006 1.1440
9 8 -29 -20.2806 -0.0742
9 8 -26 -46.4899 -1.3978
9 8 -20 -112.7568 1.2453
9 8 -17 51.9904 0.8729
9 8 -14 50.5409 -1.1709
9 8 -11 62.9298 -1.2264
9 8 -8 137.3845 1.0150
9 8 -5 -99.0108 1.7167
9 8 -2 60.5394 -0.4300
9 8 1 83.5661 -2.1115
9 8 4 -98.5147 -0.2497
9 8 7 -75.1066 2.0219
9 8 10 -30.5213 1.0486
9 8 13 -4.7700 -1.6793
9 8 16 29.8689 -1.1560
9 8 19 34.6967 1.2310
9 8 22 55.3851 1.6339
9 8 25 9.3392 -0.4500
9 8 28 -9.9634 -1.8914
9 8 31 -28.7266 -0.2491
9 8 34 6.6839 1.6226
9 8 37 35.8874 0.3173
9 8 40 5.5736 -1.6443
9 8 43 7.0827 -1.0070
9 8 46 6.4060 0.6826
9 8 49 12.4907 0.7429
9 8 52 -9.2172 -0.5397
9 8 55 -2.0315 -1.3511
9 8 58 1.0954 -0.2517
9 9 -60 -13.6501 -0.0792
9 9 -57 13.0867 0.0568
9 9 -54 -10.7357 0.5938
9 9 -51 -8.3341 -0.3466
9 9 -48 6.0463 0.4481
9 9 -45 19.4385 0.3925
9 9 -42 -20.2227 -0.2913
9 9 -39 46.2844 -0.6449
9 9 -36 -36.9508 0.3265
9 9 -33 3.0607 0.3963
9 9 -30 -17.5726 -0.3410
9 9 -27 -49.5313 -0.6872
9 9 -24 -1.3058 -0.0656
9 9 -21 -11.8656 0.6845
9 9 -18 -100.2768 0.2048
9 9 -15 115.9748 -0.8848
9 9 -12 42.3558 -0.3019
9 9 -9 4.8569 0.9535
9 9 -6 17.1977 0.7015
9 9 -3 50.8924 -0.7758
9 9 0 -73.5111 -1.0003
9 9 3 98.7233 0.5918
9 9 6 30.6341 1.1991
9 9 9 130.0275 -0.1231
9 9 12 109.9964 -0.8154
9 9 15 -1.1952 -0.0614
9 9 18 -2.7615 1.0979
9 9 21 -19.9763 0.7883
9 9 24 -66.9161 -0.7499
9 9 27 -13.8031 -0.7747
9 9 30 -29.9248 0.8751
9 9 33 -61.7106 0.8717
9 9 36 -10.2322 -0.3795
9 9 39 -24.0053 -0.5511
9 9 42 -6.9787 -0.0522
9 9 45 -1.8491 0.4841
9 9 48 -3.2329 0.2700
9 9 51 -0.6012 -0.2968
9 9 54 0.4852 -0.5488
9 9 57 0.9109 0.0516
9 9 60 -1.0340 0.3738
9 10 -58 -2.1070 -0.5316
9 10 -55 1.2862 0.3525
9 10 -52 1.7196 0.8682
9 10 -49 12.5638 0.2612
9 10 -46 7.4000 -1.0270
9 10 -43 5.6153 -0.6007
9 10 -40 -9.5454 1.2603
9 10 -37 30.3643 1.1528
9 10 -34 -18.6154 -1.3964
9 10 -31 -0.4961 -1.5427
9 10 -28 11.2796 1.1073
9 10 -25 -34.7064 2.0259
9 10 -22 -42.5309 -0.7634
9 10 -19 63.2577 -2.5383
9 10 -16 77.9769 -0.0979
9 10 -13 130.3651 2.2582
9 10 -10 -8.0707 0.5356
9 10 -7 -73.6096 -2.5122
9 10 -4 66.3320 -1.4290
9 10 -1 17.2022 2.0249
9 10 2 -16.2286 1.7723
9 10 5 84.4862 -1.7706
9 10 8 17.0865 -2.3079
9 10 11 26.7779 1.0315
9 10 14 -50.8729 2.3905
9 10 17 -111.8656 -0.2983
9 10 20 -53.2198 -2.1488
9 10 23 -78.3508 -0.2634
9 10 26 -62.7163 1.8538
9 10 29 52.6489 0.6714
9 10 32 27.5042 -1.2520
9 10 35 50.4085 -0.7986
9 10 38 -1.4742 0.7603
9 10 41 18.2250 0.8838
9 10 44 16.5267 -0.3416
9 10 47 1.6944 -0.5639
9 10 50 3.6689 0.4113
9 10 53 -1.7105 0.5888
9 10 56 -9.0692 0.3253
9 10 59 -5.8714 -1.2048
9 11 -59 0.2468 -0.1239
9 11 -56 2.5098 0.2792
9 11 -53 9.6793 -0.3322
9 11 -50 -1.7607 -0.0745
9 11 -47 -3.1504 -0.1680
9 11 -44 -8.1351 -0.2423
9 11 -41 21.1418 0.3001
9 11 -38 -16.1640 0.3822
9 11 -35 3.0463 -0.4807
9 11 -32 -71.0660 -0.6137
9 11 -29 3.8092 0.3844
9 11 -26 -14.2618 0.8120
9 11 -23 22.1939 -0.1898
9 11 -20 -0.1663 -1.0246
9 11 -17 107.3838 0.1232
9 11 -14 5.5078 1.2971
9 11 -11 6.2750 0.3286
9 11 -8 -64.1167 -1.2005
9 11 -5 39.8503 -0.7198
9 11 -2 15.5588 1.1109
9 11 1 -29.3448 1.0823
9 11 4 15.8291 -0.8224
9 11 7 88.7558 -1.0607
9 11 10 41.5165 0.7131
9 11 13 59.7132 1.5582
9 11 16 -54.2904 -0.1028
9 11 19 0.6792 -1.2746
9 11 22 5.9293 -0.2728
9 11 25 -56.3559 1.2556
9 11 28 -38.2104 0.4452
9 11 31 64.7334 -1.1006
9 11 34 -34.8904 -0.9996
9 11 37 11.9247 0.6551
9 11 40 -9.1706 1.0504
9 11 43 -7.2120 -0.3481
9 11 46 -20.9373 -1.3438
9 11 49 6.0220 0.4975
9 11 52 -21.5341 1.1460
9 11 55 2.1204 0.7906
9 11 58 14.9668 -1.5386
9 12 -57 5.3529 -0.1804
9 12 -54 -10.6540 -0.9113
9 12 -51 1.4156 0.1764
9 12 -48 -0.2385 1.1615
9 12 -45 1.8929 -0.0285
9 12 -42 9.0942 -1.1107
9 12 -39 9.3511 -0.4115
9 12 -36 -14.7316 0.9818
9 12 -33 26.3620 0.6036
9 12 -30 8.4549 -0.8144
9 12 -27 -12.3704 -0.6919
9 12 -24 23.0983 0.3815
9 12 -21 -9.3542 0.9074
9 12 -18 -9.3097 -0.2263
9 12 -15 46.5369 -1.5577
9 12 -12 -33.8525 -0.1265
9 12 -9 -105.4719 1.3384
9 12 -6 85.2886 0.2480
9 12 -3 20.8399 -1.3211
9 12 0 59.3960 -0.5964
9 12 3 140.1905 0.5357
9 12 6 -53.5051 0.5088
9 12 9 4.2903 -0.2712
9 12 12 -23.2595 -0.5482
9 12 15 -131.0613 0.1007
9 12 18 26.9825 0.9490
9 12 21 -27.3712 0.2167
9 12 24 21.6489 -0.3563
9 12 27 -53.2073 -0.0255
9 12 30 19.1933 0.2523
9 12 33 -20.8939 0.3155
9 12 36 23.4075 -0.1237
9 12 39 9.0569 -0.1902
9 12 42 5.2448 0.1061
9 12 45 -5.8208 0.1436
9 12 48 14.4787 -0.5620
9 12 51 -6.0525 -0.0115
9 12 54 -2.2478 -0.1705
9 12 57 -0.7322 0.1563
9 13 -58 -4.4361 -0.3026
9 13 -55 4.4052 0.2170
9 13 -52 -2.8185 -0.4329
9 13 -49 0.6569 0.0127
9 13 -46 -6.4266 -0.2494
9 13 -43 4.6490 0.4512
9 13 -40 -6.9236 0.3157
9 13 -37 13.6868 -0.3891
9 13 -34 -27.8967 -0.3407
9 13 -31 -19.2746 0.5577
9 13 -28 3.5805 0.3631
9 13 -25 -45.3075 -0.1174
9 13 -22 83.5811 -0.3271
9 13 -19 45.5493 0.1068
9 13 -16 7.9339 0.5753
9 13 -13 24.8694 0.1208
9 13 -10 -19.3741 -0.6785
9 13 -7 61.8720 -0.0799
9 13 -4 79.9470 0.8927
9 13 -1 0.2076 0.0701
9 13 2 -25.4721 -0.6497
9 13 5 -36.7566 -0.0861
9 13 8 -78.6741 0.7199
9 13 11 -17.6163 0.2435
9 13 14 9.4504 -0.5141
9 13 17 17.4266 -0.3683
9 13 20 21.7166 0.3124
9 13 23 65.6823 0.4997
9 13 26 90.6589 -0.0753
9 13 29 11.3392 -0.4303
9 13 32 -0.8380 0.1278
9 13 35 -16.3680 0.7189
9 13 38 -2.2357 -0.1023
9 13 41 0.6810 -0.5472
9 13 44 7.8513 -0.0482
9 13 47 -1.5679 0.4495
9 13 50 4.2577 0.0822
9 13 53 2.2990 -0.7069
9 13 56 7.6587 -0.4659
9 14 -56 4.8019 0.0169
9 14 -53 -1.4982 0.1620
9 14 -50 2.6935 0.3401
9 14 -47 -3.4693 0.2723
9 14 -44 35.1093 -0.0016
9 14 -41 7.2586 -0.1246
9 14 -38 0.3551 -0.4891
9 14 -35 14.9175 0.0979
9 14 -32 -25.1433 0.3950
9 14 -29 63.8436 -0.0311
9 14 -26 -24.4207 -0.5397
9 14 -23 24.8442 -0.0758
9 14 -20 -11.4607 0.2633
9 14 -17 -10.3259 0.1585
9 14 -14 -66.5388 -0.3101
9 14 -11 26.0701 -0.4588
9 14 -8 0.1847 0.1316
9 14 -5 -9.1877 0.3330
9 14 -2 22.8735 -0.0627
9 14 1 -36.9586 -0.2588
9 14 4 9.2733 -0.0692
9 14 7 94.6564 0.1879
9 14 10 -27.5180 0.2167
9 14 13 49.4885 -0.2002
9 14 16 34.6111 -0.1437
9 14 19 -24.0264 0.3874
9 14 22 5.0612 0.1839
9 14 25 -1.6888 -0.1383
9 14 28 -31.1033 -0.0492
9 14 31 42.3398 0.2300
9 14 34 -40.2464 0.2078
9 14 37 -8.3571 -0.0950
9 14 40 -2.8899 -0.1835
9 14 43 1.6260 0.3016
9 14 46 -12.0701 0.3493
9 14 49 14.4693 -0.3942
9 14 52 3.1646 0.3873
9 14 55 -0.9867 0.1518
9 15 -54 -14.4605 0.0583
9 15 -51 2.9803 1.0910
9 15 -48 -6.1465 0.0067
9 15 -45 5.0515 -1.0035
9 15 -42 6.1736 -0.1030
9 15 -39 -17.3414 1.0320
9 15 -36 -3.0285 0.6320
9 15 -33 -2.1511 -0.8695
9 15 -30 -28.8830 -0.8781
9 15 -27 -35.6646 0.7697
9 15 -24 44.0495 1.4960
9 15 -21 -40.6906 -0.1905
9 15 -18 62.8969 -1.8890
9 15 -15 43.2922 -0.1858
9 15 -12 8.2110 2.1012
9 15 -9 40.0748 0.4566
9 15 -6 109.9375 -1.9942
9 15 -3 -24.2666 -1.2253
9 15 0 -27.7546 1.2953
9 15 3 -92.1832 1.6420
9 15 6 -27.6469 -0.9322
9 15 9 12.3549 -2.0824
9 15 12 -34.9043 0.3531
9 15 15 5.1276 2.1284
9 15 18 46.0729 0.1790
9 15 21 -39.2687 -1.8935
9 15 24 25.4166 -0.8163
9 15 27 -30.2745 1.3315
9 15 30 34.5132 1.0615
9 15 33 24.9067 -1.0974
9 15 36 13.6438 -1.6148
9 15 39 4.8486 0.3640
9 15 42 20.3055 1.1481
9 15 45 -5.6865 -0.0337
9 15 48 -5.5236 -1.3895
9 15 51 8.2177 -0.1893
9 15 54 -22.6073 0.9368
9 16 -55 0.0108 1.4792
9 16 -52 10.2593 -0.4164
9 16 -49 -0.0517 -0.1121
9 16 -46 16.6195 -0.3712
9 16 -43 -5.5648 0.6409
9 16 -40 25.3054 0.5858
9 16 -37 -13.3407 -0.5259
9 16 -34 7.6788 -0.8453
9 16 -31 21.5959 0.1166
9 16 -28 25.8684 0.8876
9 16 -25 22.0359 0.1706
9 16 -22 37.3882 -1.2811
9 16 -19 -81.1997 -0.6148
9 16 -16 58.5563 0.9354
9 16 -13 -79.7332 0.9869
9 16 -10 -29.7722 -0.8375
9 16 -7 -28.6815 -1.1858
9 16 -4 -58.1097 0.5838
9 16 -1 -55.2828 1.3764
9 16 2 1.5525 -0.1081
9 16 5 17.9606 -1.2473
9 16 8 108.0424 -0.2669
9 16 11 32.0925 1.2790
9 16 14 36.5364 0.7157
9 16 17 34.2155 -0.8733
9 16 20 56.9626 -0.6728
9 16 23 -26.9592 0.5388
9 16 26 19.5611 1.0544
9 16 29 -73.8680 -0.1633
9 16 32 24.0767 -0.7904
9 16 35 1.5481 0.0268
9 16 38 -5.6767 0.8644
9 16 41 0.1691 0.2479
9 16 44 7.5890 -0.6965
9 16 47 -32.0526 0.0002
9 16 50 6.5409 0.1091
9 16 53 -1.7917 -0.6770
9 17 -53 -1.7290 -0.4313
9 17 -50 8.9003 -0.5288
9 17 -47 -0.5135 0.2180
9 17 -44 -14.6920 -0.1019
9 17 -41 -0.3632 -0.4135
9 17 -38 -12.0633 -0.3925
9 17 -35 -7.3275 0.5659
9 17 -32 -16.7559 0.6685
9 17 -29 5.0830 -0.4215
9 17 -26 -50.8512 -0.7556
9 17 -23 -11.0541 0.2232
9 17 -20 -30.5497 0.7756
9 17 -17 23.0023 0.1739
9 17 -14 1.3214 -0.8531
9 17 -11 12.6651 -0.6015
9 17 -8 6.4782 0.8419
9 17 -5 -4.0184 0.8867
9 17 -2 33.0127 -0.7115
9 17 1 17.8067 -1.3106
9 17 4 15.5607 0.4278
9 17 7 22.1167 1.2120
9 17 10 -29.7759 0.0462
9 17 13 -19.4342 -1.1814
9 17 16 -60.7920 -0.2621
9 17 19 0.0073 0.9105
9 17 22 -36.2041 0.7124
9 17 25 49.7407 -0.5934
9 17 28 -26.2366 -1.1973
9 17 31 35.3626 0.7309
9 17 34 -22.2106 1.3737
9 17 37 5.7297 -0.2043
9 17 40 -7.7562 -0.5689
9 17 43 7.6478 -0.2664
9 17 46 -5.0603 0.7786
9 17 49 3.8618 0.7114
9 17 52 13.8761 -1.3784
9 17 55 -2.7884 -0.2206
9 18 -54 1.5315 0.2445
9 18 -51 -4.4642 0.0535
9 18 -48 3.8325 -0.1308
9 18 -45 -9.2193 -0.2170
9 18 -42 6.1635 0.0907
9 18 -39 9.6700 0.1132
9 18 -36 5.5509 -0.1434
9 18 -33 11.6385 -0.2024
9 18 -30 10.7896 0.0638
9 18 -27 36.5856 0.3550
9 18 -24 0.9225 0.1667
9 18 -21 -0.5330 -0.3692
9 18 -18 54.5791 -0.0846
9 18 -15 -78.5846 0.5051
9 18 -12 6.1029 0.1804
9 18 -9 -55.9615 -0.1559
9 18 -6 0.8718 -0.1260
9 18 -3 -102.8311 0.1739
9 18 0 7.1654 -0.0288
9 18 3 34.8819 -0.1243
9 18 6 20.2709 0.0791
9 18 9 40.6695 0.2575
9 18 12 30.1497 -0.1333
9 18 15 -2.1012 -0.2871
9 18 18 72.1842 -0.1971
9 18 21 -33.6695 0.1461
9 18 24 28.5182 -0.0635
9 18 27 30.4183 -0.5214
9 18 30 -12.2084 -0.3306
9 18 33 -7.2036 0.4221
9 18 36 -9.7501 0.2512
9 18 39 -21.9277 -0.4514
9 18 42 -14.0773 -0.5184
9 18 45 -6.4918 0.0481
9 18 48 -13.0967 1.2917
9 18 51 7.7100 0.3732
9 18 54 -4.5034 0.1291
9 19 -52 2.3207 -0.9837
9 19 -49 -6.5752 0.1556
9 19 -46 0.6161 0.2841
9 19 -43 -2.9798 0.4914
9 19 -40 7.5392 0.2058
9 19 -37 -35.9719 -0.6998
9 19 -34 9.8254 -0.6083
9 19 -31 -17.1118 0.6327
9 19 -28 -19.3519 0.9361
9 19 -25 -60.9825 -0.3957
9 19 -22 -27.4126 -0.8207
9 19 -19 -12.4161 0.1123
9 19 -16 3.5836 1.1988
9 19 -13 -32.9861 0.4681
9 19 -10 38.7459 -1.1581
9 19 -7 71.1887 -0.8803
9 19 -4 35.5297 0.8876
9 19 -1 19.3331 1.3302
9 19 2 57.4604 -0.6990
9 19 5 -8.8868 -1.2498
9 19 8 3.7268 -0.0525
9 19 11 -43.7027 0.9070
9 19 14 24.3884 0.4559
9 19 17 13.0986 -1.1250
9 19 20 3.5214 -0.4399
9 19 23 -70.0279 0.8788
9 19 26 44.8452 0.9720
9 19 29 -26.5737 -0.5862
9 19 32 0.8668 -0.8908
9 19 35 -15.0166 0.3194
9 19 38 2.2790 0.4667
9 19 41 -13.7667 0.0333
9 19 44 5.1724 -0.7304
9 19 47 -7.3148 -0.4605
9 19 50 11.5542 1.0173
9 19 53 -0.2978 0.2972
9 20 -50 1.7695 -0.3678
9 20 -47 -5.2087 0.2462
9 20 -44 5.0872 -0.0161
9 20 -41 12.5970 -0.2880
9 20 -38 -4.8716 0.1533
9 20 -35 8.1705 0.1032
9 20 -32 0.2189 -0.2496
9 20 -29 1.3954 -0.2668
9 20 -26 -43.4227 0.4163
9 20 -23 49.9722 0.5868
9 20 -20 24.3822 -0.1318
9 20 -17 -11.6005 -0.4226
9 20 -14 27.6959 -0.0557
9 20 -11 -40.6377 0.5461
9 20 -8 9.9603 0.3008
9 20 -5 -14.0309 -0.6476
9 20 -2 -67.3933 -0.3329
9 20 1 -29.6877 0.7269
9 20 4 9.7733 0.2137
9 20 7 -5.9489 -0.6213
9 20 10 -6.7403 -0.3230
9 20 13 38.1942 0.3410
9 20 16 5.6445 0.5637
9 20 19 63.8809 -0.1600
9 20 22 -5.0588 -0.7296
9 20 25 6.9482 0.1372
9 20 28 -23.5743 0.6471
9 20 31 -4.0473 0.2338
9 20 34 -31.3661 -0.6211
9 20 37 16.4345 -0.0968
9 20 40 -9.7057 0.6218
9 20 43 6.7738 0.6955
9 20 46 11.1127 -0.7141
9 20 49 -0.5853 -0.5541
9 20 52 7.9859 -0.0956
9 21 -51 -14.6378 0.7574
9 21 -48 7.7106 -0.0844
9 21 -45 -5.3312 -0.0301
9 21 -42 1.4985 0.4871
9 21 -39 7.6215 0.1981
9 21 -36 0.3623 0.0571
9 21 -33 -19.2709 -0.3893
9 21 -30 10.4845 -0.1679
9 21 -27 -37.5468 0.3178
9 21 -24 -25.7993 0.3341
9 21 -21 32.6662 -0.4233
9 21 -18 -54.1925 -0.3984
9 21 -15 -6.0104 0.2672
9 21 -12 43.5455 0.3547
9 21 -9 -55.1309 -0.2079
9 21 -6 73.3924 -0.4654
9 21 -3 -18.8275 0.1172
9 21 0 37.8094 0.5633
9 21 3 76.3418 0.0570
9 21 6 -26.5240 -0.5001
9 21 9 9.0852 -0.1874
9 21 12 29.1846 0.3304
9 21 15 -60.5492 0.4759
9 21 18 4.8604 -0.2077
9 21 21 -13.6476 -0.4764
9 21 24 -43.6127 0.2912
9 21 27 3.4983 0.6189
9 21 30 -24.2081 0.1256
9 21 33 -1.9967 -0.3923
9 21 36 -3.0199 0.5226
9 21 39 0.9413 0.2995
9 21 42 -13.3725 0.0954
9 21 45 17.3491 0.4897
9 21 48 -15.0142 -0.3878
9 21 51 -3.0757 0.2449
9 22 -49 -7.5259 0.3071
9 22 -46 13.2299 -0.4154
9 22 -43 -5.7663 1.0924
9 22 -40 -6.5815 -0.5476
9 22 -37 -5.8247 -0.5685
9 22 -34 -0.3709 0.6359
9 22 -31 -22.7343 0.7488
9 22 -28 9.7096 -0.0809
9 22 -25 -7.7130 -1.0903
9 22 -22 31.5999 -0.0143
9 22 -19 -10.8666 1.0708
9 22 -16 -10.9679 0.5435
9 22 -13 -3.2070 -1.1070
9 22 -10 10.4721 -0.8432
9 22 -7 -33.9142 0.6194
9 22 -4 -23.4727 0.9926
9 22 -1 -34.9859 -0.1706
9 22 2 22.0247 -1.1521
9 22 5 -15.2923 0.0264
9 22 8 -5.9422 1.0690
9 22 11 61.4688 0.1757
9 22 14 1.6750 -0.8635
9 22 17 -11.8520 -0.7499
9 22 20 19.2542 0.6764
9 22 23 -31.8454 1.0187
9 22 26 42.6477 -0.4388
9 22 29 -15.8393 -0.7967
9 22 32 1.4395 0.0972
9 22 35 6.4382 0.6912
9 22 38 15.0913 0.0640
9 22 41 -4.0886 -0.7081
9 22 44 8.5554 0.2316
9 22 47 10.6896 0.0547
9 22 50 1.2819 0.7613
9 23 -47 0.3785 0.5183
9 23 -44 -5.6925 -0.0790
9 23 -41 5.4750 0.4829
9 23 -38 -20.3318 -0.3274
9 23 -35 -1.6533 0.0083
9 23 -32 -11.0101 -0.0224
9 23 -29 -5.5221 0.3586
9 23 -26 -0.4530 0.1166
9 23 -23 33.8129 -0.2229
9 23 -20 -28.5842 -0.1153
9 23 -17 15.1650 0.0455
9 23 -14 -25.7028 0.1984
9 23 -11 7.6800 0.2801
9 23 -8 5.9797 -0.4410
9 23 -5 -26.1147 -0.3071
9 23 -2 21.2387 0.1118
9 23 1 34.6398 0.3481
9 23 4 10.7259 -0.0973
9 23 7 -1.4309 -0.4883
9 23 10 -5.2045 -0.3199
9 23 13 31.1365 0.2710
9 23 16 -21.3374 0.2340
9 23 19 -13.8154 -0.3550
9 23 22 -20.9847 -0.2434
9 23 25 -5.3558 0.1396
9 23 28 4.9201 0.3930
9 23 31 3.0381 -0.0035
9 23 34 7.6539 -0.4763
9 23 37 21.9389 0.0211
9 23 40 -13.1494 0.4713
9 23 43 2.8714 -0.0407
9 23 46 -0.4816 -0.2135
9 24 -45 2.2065 0.4446
9 24 -42 2.4188 0.4650
9 24 -39 5.6788 0.6434
9 24 -36 -11.6100 -1.0086
9 24 -33 11.1986 -0.6628
9 24 -30 -4.0603 0.5825
9 24 -27 0.5407 0.9252
9 24 -24 13.2891 -0.1216
9 24 -21 16.0557 -1.1230
9 24 -18 -20.7562 -0.2811
9 24 -15 23.4255 0.8103
9 24 -12 27.5068 0.4037
9 24 -9 -17.0847 -0.9628
9 24 -6 33.1789 -0.9617
9 24 -3 -19.6485 0.6804
9 24 0 -3.0828 0.9861
9 24 3 2.0646 -0.2114
9 24 6 -44.6700 -1.0242
9 24 9 -6.7288 -0.1877
9 24 12 6.8121 1.0051
9 24 15 15.6846 0.4342
9 24 18 14.3213 -0.6873
9 24 21 44.4989 -0.4461
9 24 24 1.9401 0.3087
9 24 27 26.7820 0.3364
9 24 30 -10.9242 0.2906
9 24 33 2.0000 -0.3626
9 24 36 -9.1177 -0.0742
9 24 39 1.1622 0.2460
9 24 42 -2.2851 -0.1492
9 24 45 7.1400 0.6220
9 25 -46 16.7479 -0.7069
9 25 -43 -13.6106 0.1819
9 25 -40 -5.1292 -0.5946
9 25 -37 1.6391 0.1330
9 25 -34 -10.9809 0.0455
9 25 -31 5.7260 -0.0537
9 25 -28 20.4745 -0.1965
9 25 -25 -11.7108 -0.0350
9 25 -22 -12.1943 0.4247
9 25 -19 7.6474 0.3352
9 25 -16 -18.2157 -0.3234
9 25 -13 24.9100 -0.3028
9 25 -10 3.8405 0.1042
9 25 -7 -32.2237 0.4706
9 25 -4 42.3064 0.0237
9 25 -1 -4.5620 -0.3781
9 25 2 -2.8555 -0.2208
9 25 5 23.7074 0.1888
9 25 8 -9.4747 0.1400
9 25 11 -18.5278 -0.0707
9 25 14 0.4518 -0.1667
9 25 17 -25.8419 0.4026
9 25 20 7.5872 0.2519
9 25 23 0.3718 -0.1646
9 25 26 13.1480 -0.2925
9 25 29 -8.2440 -0.3245
9 25 32 19.8100 0.1333
9 25 35 -1.1786 0.3632
9 25 38 5.0559 0.3906
9 25 41 7.3029 -0.4304
9 25 44 -5.4954 0.3702
9 26 -44 7.5700 -1.1822
9 26 -41 -4.7594 0.5509
9 26 -38 -2.6416 -0.3531
9 26 -35 20.8620 0.7269
9 26 -32 9.3538 -0.3121
9 26 -29 -3.9517 -0.5417
9 26 -26 17.7466 -0.0909
9 26 -23 -12.1133 0.1928
9 26 -20 11.0557 0.4218
9 26 -17 24.8284 -0.3796
9 26 -14 -21.8385 -0.6756
9 26 -11 29.7069 -0.0039
9 26 -8 -34.3896 0.5686
9 26 -5 -6.6694 0.2406
9 26 -2 -8.2786 -0.5468
9 26 1 -35.4438 -0.3540
9 26 4 -17.1922 0.5779
9 26 7 11.9024 0.6815
9 26 10 -15.7686 -0.3533
9 26 13 24.2005 -0.9023
9 26 16 -16.5464 0.1473
9 26 19 -15.9552 0.5598
9 26 22 32.1110 0.3607
9 26 25 -5.6280 -0.1272
9 26 28 0.6642 -0.3688
9 26 31 18.9816 0.5949
9 26 34 2.7837 0.6361
9 26 37 -1.6104 -0.0217
9 26 40 -7.9679 -0.5396
9 26 43 -13.9642 0.6696
9 27 -42 -8.1240 0.7515
9 27 -39 2.6204 0.4277
9 27 -36 3.1318 -0.7992
9 27 -33 4.9856 -0.1804
9 27 -30 -14.0581 0.4688
9 27 -27 12.2902 0.1246
9 27 -24 6.8513 -0.8929
9 27 -21 -0.8258 -0.5007
9 27 -18 4.7987 0.7780
9 27 -15 16.7371 0.6730
9 27 -12 2.2599 -0.5074
9 27 -9 -17.6205 -0.6927
9 27 -6 -1.3540 0.1531
9 27 -3 -12.1424 0.9592
9 27 0 11.7278 0.0922
9 27 3 3.5614 -0.9320
9 27 6 -4.9220 -0.2696
9 27 9 23.2909 0.7917
9 27 12 12.3246 0.4473
9 27 15 3.0138 -0.8958
9 27 18 -11.9771 -0.5792
9 27 21 2.8525 0.1997
9 27 24 -20.4043 0.4035
9 27 27 -6.7971 -0.4728
9 27 30 -9.2063 -0.3875
9 27 33 6.8946 -0.1928
9 27 36 14.4299 0.6862
9 27 39 -5.6859 -0.4838
9 27 42 5.2762 -0.1420
9 28 -40 9.6515 -0.8675
9 28 -37 2.2442 -0.1712
9 28 -34 -17.1603 -0.5024
9 28 -31 13.4484 0.2522
9 28 -28 10.9133 0.6514
9 28 -25 11.0572 -0.2819
9 28 -22 9.6193 -0.3889
9 28 -19 7.8746 0.0469
9 28 -16 -7.0813 0.5279
9 28 -13 3.1270 0.2779
9 28 -10 -19.9124 -0.4367
9 28 -7 -20.9536 -0.6263
9 28 -4 6.0754 0.3660
9 28 -1 -4.7154 0.9080
9 28 2 -4.8688 -0.0715
9 28 5 -18.5790 -0.8551
9 28 8 -7.3433 -0.3860
9 28 11 -5.6097 0.5055
9 28 14 13.9466 0.4828
9 28 17 6.2956 -0.1522
9 28 20 11.6263 -0.3005
9 28 23 3.3760 0.2804
9 28 26 16.2181 0.2802
9 28 29 -5.6411 -0.1863
9 28 32 -9.8832 -0.0291
9 28 35 11.8359 -0.1087
9 28 38 -17.6869 0.1755
9 28 41 -2.5320 -0.7639
9 29 -38 3.1949 0.6059
9 29 -35 9.2315 -0.0432
9 29 -32 -3.5947 -0.8447
9 29 -29 7.7941 -0.2789
9 29 -26 -6.8797 0.6168
9 29 -23 -1.1326 0.1925
9 29 -20 4.9102 -0.5533
9 29 -17 10.1100 -0.6253
9 29 -14 -15.0182 0.6621
9 29 -11 18.0352 1.0709
9 29 -8 -28.4955 -0.4289
9 29 -5 10.9482 -0.9728
9 29 -2 5.1321 0.0915
9 29 1 9.4615 0.8353
9 29 4 -0.3325 0.1182
9 29 7 14.7230 -0.8872
9 29 10 -18.1869 -0.2400
9 29 13 -3.5812 0.8564
9 29 16 -1.3020 0.3845
9 29 19 3.1979 -0.4427
9 29 22 11.8044 -0.5762
9 29 25 2.4805 0.2451
9 29 28 15.5320 0.6379
9 29 31 -6.6782 0.3596
9 29 34 -2.0756 -1.4497
9 29 37 -4.0518 0.5124
9 29 40 -4.4406 0.5730
9 30 -36 7.7451 -0.2220
9 30 -33 5.0180 -0.3823
9 30 -30 -4.1955 0.0275
9 30 -27 1.9335 0.0467
9 30 -24 -1.9895 0.7026
9 30 -21 0.4297 -0.0336
9 30 -18 -6.0464 0.0836
9 30 -15 8.8378 0.1031
9 30 -12 -6.6906 0.0599
9 30 -9 3.2908 0.1201
9 30 -6 14.6846 0.0443
9 30 -3 3.3754 -0.0753
9 30 0 6.7529 0.0767
9 30 3 -19.8063 0.1171
9 30 6 -7.1083 0.0461
9 30 9 16.4310 -0.1298
9 30 12 -5.3552 0.3501
9 30 15 -2.7617 -0.3545
9 30 18 8.7786 0.0790
9 30 21 -3.2333 0.2537
9 30 24 -5.9893 0.1349
9 30 27 7.8718 -0.4696
9 30 30 -1.1346 0.7869
9 30 33 7.6943 -0.3435
9 30 36 -2.7241 0.3562
9 31 -34 0.3064 0.6929
9 31 -31 16.5224 0.1280
9 31 -28 -2.2354 -0.5894
9 31 -25 19.2151 -0.3073
9 31 -22 -9.2565 0.2343
9 31 -19 -1.9711 0.5434
9 31 -16 4.7350 -0.0890
9 31 -13 10.1254 -0.4071
9 31 -10 -9.6310 -0.1213
9 31 -7 1.4008 0.8645
9 31 -4 16.6909 0.4146
9 31 -1 -7.9184 -0.7549
9 31 2 -4.0191 -0.4223
9 31 5 4.9531 0.7320
9 31 8 20.6933 0.5091
9 31 11 17.1021 -0.2242
9 31 14 1.2441 -0.4443
9 31 17 10.1239 -0.1849
9 31 20 0.2951 0.2223
9 31 23 -13.6502 -0.1375
9 31 26 0.7376 -0.9739
9 31 29 -3.1862 -0.0335
9 31 32 -7.6972 -0.2554
9 31 35 7.4980 -0.4503
9 32 -32 8.2874 -0.5514
9 32 -29 -8.5023 0.2204
9 32 -26 1.7869 0.0720
9 32 -23 6.0341 0.1488
9 32 -20 -7.9700 -0.4508
9 32 -17 17.3629 0.3204
9 32 -14 -2.1682 0.4433
9 32 -11 5.4575 0.1961
9 32 -8 -24.0955 -0.7295
9 32 -5 12.4196 -0.2972
9 32 -2 -4.9070 0.3776
9 32 1 -10.1973 0.5483
9 32 4 0.8714 -0.0882
9 32 7 1.6990 -0.7038
9 32 10 10.8518 -0.1798
9 32 13 6.6854 0.2225
9 32 16 -5.6498 0.2532
9 32 19 12.4511 -0.2456
9 32 22 -9.8479 -0.0476
9 32 25 -12.4709 -0.0489
9 32 28 4.0485 -0.0927
9 32 31 -16.6305 -0.8469
9 33 -30 -1.5801 1.2976
9 33 -27 5.6670 0.2295
9 33 -24 -2.2148 -0.4178
9 33 -21 1.1873 0.0468
9 33 -18 2.1796 0.2095
9 33 -15 1.3041 0.8217
9 33 -12 -9.9204 0.4717
9 33 -9 -5.9022 -0.6649
9 33 -6 16.8141 -0.4892
9 33 -3 -11.5169 0.3764
9 33 0 2.2808 0.5005
9 33 3 11.6334 -0.1496
9 33 6 5.2031 -0.4909
9 33 9 5.5621 -0.0119
9 33 12 -8.5960 0.3609
9 33 15 -10.5650 0.5081
9 33 18 8.6101 -0.9065
9 33 21 -7.9979 -0.6412
9 33 24 -2.0466 0.2298
9 33 27 15.3907 0.7598
9 33 30 5.0638 -0.9153
9 34 -28 1.1252 -0.9253
9 34 -25 2.3466 0.4701
9 34 -22 -5.1498 0.0771
9 34 -19 13.0286 0.4289
9 34 -16 -12.4660 0.0743
9 34 -13 -9.4949 -0.3903
9 34 -10 -5.8125 -0.2412
9 34 -7 1.3017 0.1866
9 34 -4 6.1914 0.1143
9 34 -1 -4.1150 -0.5331
9 34 2 15.8790 -0.0550
9 34 5 18.5111 0.2368
9 34 8 -2.7287 -0.0618
9 34 11 -2.2200 -0.5847
9 34 14 -5.4051 0.3816
9 34 17 -10.2809 0.3092
9 34 20 -6.9614 -0.0816
9 34 23 0.9853 -1.1143
9 34 26 2.6957 0.6160
9 35 -23 5.8565 -0.0135
9 35 -20 -11.6732 0.2407
9 35 -17 8.4829 0.2549
9 35 -14 -9.8223 -0.0215
9 35 -11 6.7492 0.0817
9 35 -8 1.9246 -0.3072
9 35 -5 15.6572 0.2479
9 35 -2 -0.8679 -0.2871
9 35 1 -6.3115 -0.1438
9 35 4 13.2053 0.1374
9 35 7 -5.5664 0.1523
9 35 10 -8.4837 -0.0237
9 35 13 -3.0809 -0.6638
9 35 16 -18.4379 -0.6968
9 35 19 4.5526 0.4192
9 35 22 0.8241 -0.7936
9 35 25 -12.1890 0.2600
9 36 -21 -3.2565 1.0072
9 36 -18 1.2220 0.3197
9 36 -15 3.6995 0.5252
9 36 -12 -1.1402 -0.8377
9 36 -9 8.6749 -0.4365
9 36 -6 10.9714 0.3131
9 36 -3 -2.2157 1.0735
9 36 0 4.1396 0.3514
9 36 3 2.7276 -1.0036
9 36 6 -14.3982 -0.3048
9 36 9 -1.4808 0.3328
9 36 12 0.8670 0.0234
9 36 15 -6.4941 -0.6081
9 36 18 15.2111 0.5376
9 36 21 -6.7411 0.9607
9 37 -16 -7.7480 -0.1225
9 37 -13 9.2187 -0.3281
9 37 -10 10.0713 0.5405
9 37 -7 -5.9847 -0.3170
9 37 -4 3.7111 -0.0288
9 37 -1 -0.3931 -0.2290
9 37 2 -6.8733 -0.0475
9 37 5 7.4542 -0.3995
9 37 8 -8.5786 0.0741
9 37 11 -4.8002 0.6512
9 37 14 3.1806 -0.4822
9 37 17 0.7533 0.1468
9 38 -8 -4.1595 -1.7167
9 38 -5 3.0095 0.4587
9 38 -2 -8.1923 0.6644
9 38 1 -2.2515 0.2676
9 38 4 10.3960 -0.4078
9 38 7 -4.5594 -1.1381
9 38 10 -5.4009 1.5344
10 1 -60 -8.6712 -0.7241
10 1 -57 8.8928 -1.1883
10 1 -54 -6.9200 0.8555
10 1 -51 3.0830 2.4549
10 1 -48 -25.0048 -0.6436
10 1 -45 -15.8433 -2.3454
10 1 -42 -19.7639 0.3841
10 1 -39 14.0569 2.6761
10 1 -36 59.3451 0.1059
10 1 -33 17.9591 -2.0935
10 1 -30 -29.7916 -0.9710
10 1 -27 94.4251 1.9450
10 1 -24 -85.2648 1.9557
10 1 -21 69.2207 -2.2903
10 1 -18 38.9948 -3.1734
10 1 -15 -7.7496 2.4860
10 1 -12 119.0963 3.3992
10 1 -9 35.2363 -2.4005
10 1 -6 -142.0610 -3.4130
10 1 -3 33.9125 0.7916
10 1 0 -295.3309 2.0985
10 1 3 -141.4370 -0.1600
10 1 6 226.2024 -3.0224
10 1 9 158.7258 -0.3037
10 1 12 154.8681 3.6283
10 1 15 175.1297 0.9781
10 1 18 -123.3750 -2.7087
10 1 21 152.6551 -0.6072
10 1 24 57.8668 2.9298
10 1 27 4.1834 1.4499
10 1 30 28.1582 -1.7447
10 1 33 -41.9902 -1.6281
10 1 36 -73.2724 1.4296
10 1 39 -3.8353 1.9592
10 1 42 -12.7755 -1.0358
10 1 45 21.8566 -1.8474
10 1 48 -3.7470 0.2675
10 1 51 -12.7636 1.6004
10 1 54 1.9262 -0.2687
10 1 57 7.8832 -1.7410
10 1 60 0.7210 -0.0938
10 2 -61 5.1726 1.9685
10 2 -58 -3.8189 0.7730
10 2 -55 10.4576 -0.6355
10 2 -52 -7.1712 -1.2217
10 2 -49 -6.4803 0.5771
10 2 -46 8.2701 1.3340
10 2 -43 16.9540 0.2768
10 2 -40 26.4754 -1.3991
10 2 -37 17.4917 -1.0772
10 2 -34 -49.7175 1.0644
10 2 -31 -26.4437 1.2449
10 2 -28 -7.4097 -0.6516
10 2 -25 -84.4721 -1.6792
10 2 -22 -129.7365 0.1861
10 2 -19 -50.8774 2.1142
10 2 -16 -228.6328 0.7782
10 2 -13 224.3095 -1.8971
10 2 -10 -9.8856 -1.4198
10 2 -7 23.4197 1.3066
10 2 -4 127.9995 1.8169
10 2 -1 138.1224 -1.0085
10 2 2 92.6027 -2.2630
10 2 5 99.9485 -0.2560
10 2 8 217.5636 1.1980
10 2 11 -67.1599 -0.6103
10 2 14 42.6932 -2.4240
10 2 17 -47.1826 -0.5464
10 2 20 -69.7357 0.9815
10 2 23 -14.7765 0.7639
10 2 26 -145.9888 -0.2085
10 2 29 -94.2525 -1.0463
10 2 32 -44.2530 0.2249
10 2 35 -30.6172 1.1609
10 2 38 30.3738 0.2852
10 2 41 29.5867 -0.6365
10 2 44 9.7876 0.2473
10 2 47 16.7170 0.3436
10 2 50 11.3501 0.2764
10 2 53 10.9792 -0.3608
10 2 56 4.2337 -0.1274
10 2 59 -5.9905 -0.8123
10 2 62 -0.3720 0.4597
10 3 -62 -5.1993 -0.0704
10 3 -59 10.2158 1.5218
10 3 -56 2.6255 0.1504
10 3 -53 -11.4986 -1.9193
10 3 -50 -2.0964 -0.9453
10 3 -47 -9.6443 2.1473
10 3 -44 -23.9298 1.5056
10 3 -41 26.4996 -2.2528
10 3 -38 -26.3658 -2.6003
10 3 -35 35.5300 1.5077
10 3 -32 19.0999 3.5729
10 3 -29 23.9222 -0.6472
10 3 -26 -42.1108 -4.3254
10 3 -23 70.5442 -0.2981
10 3 -20 66.2638 4.9156
10 3 -17 152.2254 1.7031
10 3 -14 68.1073 -4.1373
10 3 -11 -23.3285 -2.9709
10 3 -8 9.5863 2.5776
10 3 -5 -5.8991 3.6902
10 3 -2 -85.0386 -2.2027
10 3 1 -123.8368 -5.7662
10 3 4 114.6212 0.3649
10 3 7 -151.8158 5.7512
10 3 10 -73.6992 1.4397
10 3 13 132.4343 -4.1325
10 3 16 84.4870 -2.2294
10 3 19 23.5084 3.1890
10 3 22 13.1082 3.5910
10 3 25 34.5675 -1.8638
10 3 28 -11.1127 -3.6744
10 3 31 16.2786 0.9250
10 3 34 -53.2775 3.4065
10 3 37 37.8941 0.2141
10 3 40 2.8408 -2.9448
10 3 43 5.1665 -1.2602
10 3 46 -4.1811 2.0052
10 3 49 6.4026 1.5323
10 3 52 0.5824 -1.1912
10 3 55 -4.4874 -1.8368
10 3 58 4.0065 0.1393
10 3 61 5.4603 0.8151
10 4 -60 9.2868 -0.2463
10 4 -57 9.2408 -1.3472
10 4 -54 2.6906 0.1265
10 4 -51 4.7846 1.7826
10 4 -48 -6.1919 0.0320
10 4 -45 29.5316 -1.3375
10 4 -42 29.3025 -1.0164
10 4 -39 4.2547 1.2792
10 4 -36 -17.3787 1.6168
10 4 -33 -17.1819 -0.4463
10 4 -30 -62.9862 -1.8229
10 4 -27 -3.3216 0.2981
10 4 -24 -89.2591 2.3144
10 4 -21 37.1320 0.3596
10 4 -18 -79.1835 -2.2454
10 4 -15 -111.9783 -0.8749
10 4 -12 -90.3974 1.5126
10 4 -9 70.7538 1.3628
10 4 -6 34.6105 -0.5964
10 4 -3 104.6081 -2.3422
10 4 0 81.5491 -0.8297
10 4 3 279.2159 1.9613
10 4 6 322.1229 0.4798
10 4 9 -162.5905 -2.1844
10 4 12 -86.5519 -0.9868
10 4 15 -17.5458 1.3678
10 4 18 -135.5891 1.3842
10 4 21 39.6593 -0.5730
10 4 24 -76.8808 -1.6278
10 4 27 -37.0764 -0.0040
10 4 30 -63.4269 1.5850
10 4 33 4.8488 0.3574
10 4 36 -29.5265 -1.0343
10 4 39 51.6386 -0.4368
10 4 42 0.4390 0.6878
10 4 45 -8.1472 0.7174
10 4 48 -0.3553 -0.3255
10 4 51 7.8235 -0.3360
10 4 54 2.5845 0.4705
10 4 57 11.7710 0.9276
10 4 60 -10.1075 0.0965
10 5 -61 17.4128 0.7573
10 5 -58 -9.5194 -0.8436
10 5 -55 6.6495 -0.7112
10 5 -52 -2.2627 0.6715
10 5 -49 -8.9061 0.7730
10 5 -46 11.0715 -0.7996
10 5 -43 -4.8307 -1.1036
10 5 -40 -34.7105 0.8121
10 5 -37 -12.9066 1.6991
10 5 -34 -15.5693 -0.4136
10 5 -31 39.4264 -2.3266
10 5 -28 23.7778 0.0420
10 5 -25 14.2537 2.4439
10 5 -22 23.1800 0.3607
10 5 -19 142.4582 -2.7166
10 5 -16 -32.2861 -1.7910
10 5 -13 59.1661 1.6995
10 5 -10 27.7128 1.7848
10 5 -7 -28.0299 -2.4465
10 5 -4 120.5462 -3.8271
10 5 -1 112.0662 0.7456
10 5 2 -34.5656 3.5577
10 5 5 48.5878 -0.4366
10 5 8 -105.3218 -3.8975
10 5 11 -184.7263 -0.7906
10 5 14 19.4787 3.6661
10 5 17 -34.0822 2.3073
10 5 20 -16.3816 -2.2668
10 5 23 -57.6804 -2.7071
10 5 26 57.1272 1.8718
10 5 29 21.1986 3.6674
10 5 32 88.8087 -0.5626
10 5 35 -12.8101 -3.3742
10 5 38 -11.5334 -0.0900
10 5 41 7.2248 3.0504
10 5 44 -18.9443 1.0896
10 5 47 14.7262 -2.3256
10 5 50 4.2565 -1.4044
10 5 53 -14.6636 1.3828
10 5 56 2.6461 1.9077
10 5 59 -8.8640 -0.3502
10 6 -59 8.2273 0.9377
10 6 -56 0.1140 -0.6309
10 6 -53 -2.0647 -0.6615
10 6 -50 12.6227 0.3187
10 6 -47 -17.8520 0.4108
10 6 -44 20.0948 -0.3865
10 6 -41 -0.0994 -0.6002
10 6 -38 -12.9297 0.4437
10 6 -35 11.7424 0.5661
10 6 -32 -3.7400 -0.2736
10 6 -29 -52.5914 -0.5456
10 6 -26 60.9172 -0.0633
10 6 -23 -20.3071 0.7523
10 6 -20 -82.9150 0.5286
10 6 -17 -39.0867 -0.9936
10 6 -14 -180.4918 -0.4544
10 6 -11 123.4881 0.8731
10 6 -8 128.7036 0.4372
10 6 -5 26.4036 -0.6055
10 6 -2 178.6852 -0.0761
10 6 1 13.0186 0.8214
10 6 4 -27.5710 0.8656
10 6 7 -136.5189 -0.1764
10 6 10 96.2184 -1.0676
10 6 13 -83.1769 -0.1808
10 6 16 54.5939 1.0173
10 6 19 -77.3296 0.1863
10 6 22 -28.1072 -0.7481
10 6 25 -3.5570 -0.0493
10 6 28 -17.2335 0.5565
10 6 31 -25.6817 -0.2179
10 6 34 32.9287 -0.5811
10 6 37 -4.9231 -0.1513
10 6 40 3.1508 0.5458
10 6 43 -11.3398 0.3357
10 6 46 10.9187 -0.0508
10 6 49 -12.8970 -0.0966
10 6 52 13.1991 0.5310
10 6 55 -3.3676 -0.0785
10 6 58 3.2983 -0.1116
10 6 61 -2.0803 -0.2290
10 7 -60 -2.5564 -1.0889
10 7 -57 -3.6861 -0.0069
10 7 -54 -21.6940 0.6624
10 7 -51 -4.6286 -0.0044
10 7 -48 1.1547 -0.7445
10 7 -45 -7.5515 -0.1901
10 7 -42 -16.1249 0.7423
10 7 -39 -17.1762 0.7110
10 7 -36 -9.9101 -0.7319
10 7 -33 45.0424 -0.9907
10 7 -30 -25.2922 0.3920
10 7 -27 54.8794 1.0024
10 7 -24 9.9681 -0.3195
10 7 -21 -47.0318 -1.0392
10 7 -18 -60.9606 -0.4521
10 7 -15 70.0276 0.6905
10 7 -12 47.8362 0.4248
10 7 -9 178.6402 -0.7962
10 7 -6 -23.4472 -0.7012
10 7 -3 -17.2632 0.1226
10 7 0 8.6661 0.5784
10 7 3 -143.2946 0.3585
10 7 6 -206.5245 -0.6857
10 7 9 -11.1548 -0.1273
10 7 12 -18.8315 0.6315
10 7 15 179.4777 0.2624
10 7 18 44.3482 -0.2300
10 7 21 18.8876 -0.1105
10 7 24 61.4764 0.2734
10 7 27 -4.8397 0.3148
10 7 30 -31.9867 -0.0742
10 7 33 39.0634 -0.3166
10 7 36 -4.7757 -0.1397
10 7 39 -9.7997 0.1179
10 7 42 -16.9964 -0.0713
10 7 45 11.7999 0.0712
10 7 48 -1.9398 -0.2595
10 7 51 0.6424 -0.0597
10 7 54 -13.6828 -0.0035
10 7 57 1.9533 0.9205
10 7 60 -7.1829 -0.5182
10 8 -58 -1.4609 -0.3707
10 8 -55 -5.6233 -0.3589
10 8 -52 -3.2788 0.0638
10 8 -49 2.8517 0.6142
10 8 -46 6.1073 0.2151
10 8 -43 -36.4992 -0.4180
10 8 -40 32.7697 -0.2702
10 8 -37 -1.0715 0.3352
10 8 -34 20.9983 0.3883
10 8 -31 26.8316 -0.1420
10 8 -28 -33.1682 -0.5688
10 8 -25 -12.5074 0.1485
10 8 -22 -1.6952 1.0412
10 8 -19 -34.3412 0.4075
10 8 -16 -8.2787 -0.7914
10 8 -13 105.3347 -0.4794
10 8 -10 -13.7780 0.9481
10 8 -7 65.5589 1.1620
10 8 -4 -55.5986 -0.4943
10 8 -1 -6.0552 -1.0321
10 8 2 -48.4939 0.2777
10 8 5 -29.1873 1.0670
10 8 8 -17.7529 -0.1933
10 8 11 7.0171 -1.6384
10 8 14 38.7378 -0.5527
10 8 17 -54.2754 1.5438
10 8 20 15.0126 0.6549
10 8 23 14.9238 -1.5438
10 8 26 67.1227 -0.9700
10 8 29 -46.8463 1.2297
10 8 32 -33.7094 1.2202
10 8 35 -29.9260 -0.6417
10 8 38 6.8580 -1.3552
10 8 41 24.1846 0.1620
10 8 44 12.5412 1.5188
10 8 47 0.1706 -0.1031
10 8 50 1.6562 -1.6190
10 8 53 -6.5722 -0.0320
10 8 56 0.6515 1.2539
10 8 59 0.3198 1.3750
10 9 -59 -4.4661 -1.5223
10 9 -56 -3.5424 -0.2621
10 9 -53 -9.5604 0.7410
10 9 -50 10.1121 0.4824
10 9 -47 -20.7388 -0.8007
10 9 -44 8.2589 -0.6690
10 9 -41 -16.4284 0.4289
10 9 -38 9.3150 0.9683
10 9 -35 6.9674 -0.0571
10 9 -32 29.7830 -1.0718
10 9 -29 -28.7473 -0.1369
10 9 -26 75.3518 0.6902
10 9 -23 -104.3547 0.5077
10 9 -20 24.1786 -0.4731
10 9 -17 48.3595 -0.6432
10 9 -14 27.2626 0.3484
10 9 -11 9.5715 1.1319
10 9 -8 16.8680 0.3122
10 9 -5 -168.1671 -0.8322
10 9 -2 -30.8278 -0.2774
10 9 1 -145.1537 0.7305
10 9 4 10.4176 0.6163
10 9 7 -39.3563 -0.3062
10 9 10 65.2152 -0.5286
10 9 13 -34.9532 0.1363
10 9 16 63.0629 0.5440
10 9 19 -9.8417 0.4235
10 9 22 47.6024 -0.1625
10 9 25 -11.7085 -0.6233
10 9 28 100.1592 0.0749
10 9 31 -45.2782 0.9709
10 9 34 22.7815 0.4004
10 9 37 -37.6253 -0.3141
10 9 40 -7.4878 -0.3819
10 9 43 -22.4457 0.2521
10 9 46 -4.1726 0.7703
10 9 49 -20.6513 -0.0852
10 9 52 -1.7148 -0.5835
10 9 55 -19.0888 -0.3843
10 9 58 -1.7183 0.4250
10 10 -57 0.3757 0.1099
10 10 -54 -1.2246 0.4490
10 10 -51 5.5423 0.1273
10 10 -48 -2.7000 -0.0861
10 10 -45 -10.0307 -0.1558
10 10 -42 5.7464 0.1687
10 10 -39 2.0628 0.2580
10 10 -36 17.3104 -0.1167
10 10 -33 27.9032 -0.2212
10 10 -30 -51.5665 0.2415
10 10 -27 20.1299 0.5937
10 10 -24 -42.3294 0.1336
10 10 -21 -69.1593 -0.2337
10 10 -18 53.9060 -0.0606
10 10 -15 29.8009 0.4277
10 10 -12 -107.7528 0.4425
10 10 -9 79.9158 -0.3960
10 10 -6 -113.5424 -0.7431
10 10 -3 -36.5645 0.0987
10 10 0 73.4636 0.4454
10 10 3 -20.0939 -0.4060
10 10 6 41.2250 -0.6245
10 10 9 100.7836 -0.3731
10 10 12 -23.5696 -0.1453
10 10 15 -24.5916 0.1077
10 10 18 -23.3236 -0.1416
10 10 21 -21.9345 -0.5471
10 10 24 -58.5968 0.0074
10 10 27 13.2305 0.3160
10 10 30 -23.8104 -0.0617
10 10 33 9.5065 -0.3280
10 10 36 5.6920 0.1466
10 10 39 -24.8737 0.0276
10 10 42 3.2350 -0.0486
10 10 45 -1.7801 0.0588
10 10 48 -9.3936 0.4631
10 10 51 -13.8237 -0.1391
10 10 54 6.1709 0.1624
10 10 57 4.5938 0.2683
10 11 -58 -1.9532 -0.0945
10 11 -55 10.1252 0.0232
10 11 -52 -7.4931 0.1944
10 11 -49 0.6260 -0.2161
10 11 -46 -4.6972 -0.2442
10 11 -43 -19.1278 -0.0132
10 11 -40 32.3396 0.5599
10 11 -37 2.1552 0.2193
10 11 -34 2.2676 -0.7090
10 11 -31 24.1557 -0.5120
10 11 -28 -31.6643 0.5763
10 11 -25 8.2145 0.9075
10 11 -22 22.1408 -0.3020
10 11 -19 -32.8646 -0.5752
10 11 -16 37.0179 0.3310
10 11 -13 -15.7555 0.8179
10 11 -10 -89.6879 -0.1077
10 11 -7 -7.3234 -0.4797
10 11 -4 -43.7835 -0.0298
10 11 -1 47.8577 0.5421
10 11 2 -33.2827 0.3113
10 11 5 -76.5888 -0.4333
10 11 8 -40.2287 -0.6013
10 11 11 24.4587 0.0283
10 11 14 16.4946 0.5213
10 11 17 43.9775 -0.0682
10 11 20 106.0536 -0.8150
10 11 23 -15.0789 -0.0788
10 11 26 -5.6494 0.2960
10 11 29 -32.3545 0.0523
10 11 32 3.1358 -0.2988
10 11 35 17.6749 -0.4267
10 11 38 -0.8880 0.0987
10 11 41 -29.4673 0.3962
10 11 44 -17.0699 -0.3082
10 11 47 -18.6271 -0.5064
10 11 50 -19.1468 -0.0461
10 11 53 -5.0364 0.1716
10 11 56 -6.0279 0.7601
10 12 -56 14.6196 0.6238
10 12 -53 -11.2687 0.1141
10 12 -50 4.1238 0.2154
10 12 -47 -9.8391 -0.5000
10 12 -44 18.8795 -0.3908
10 12 -41 -17.5565 0.3382
10 12 -38 55.8834 0.7761
10 12 -35 -21.4826 -0.0414
10 12 -32 6.7659 -0.8473
10 12 -29 -31.1001 0.1135
10 12 -26 -16.0189 0.8248
10 12 -23 -43.2913 0.3259
10 12 -20 47.0185 -0.5811
10 12 -17 -109.1524 -0.4806
10 12 -14 28.8484 0.2474
10 12 -11 0.6654 0.4091
10 12 -8 -24.4415 -0.0326
10 12 -5 35.7110 -0.3264
10 12 -2 81.4132 -0.4776
10 12 1 6.9140 0.1357
10 12 4 59.7989 0.1059
10 12 7 -40.4557 -0.2434
10 12 10 95.8231 -0.3736
10 12 13 11.8588 0.1264
10 12 16 38.3746 0.2803
10 12 19 -36.0582 0.0513
10 12 22 68.4298 -0.1059
10 12 25 -53.2482 -0.0975
10 12 28 6.7555 -0.1336
10 12 31 -79.2354 -0.0178
10 12 34 -23.4250 0.5225
10 12 37 -12.6807 0.1772
10 12 40 7.9057 -0.5760
10 12 43 -14.4740 -0.1479
10 12 46 17.5496 0.1844
10 12 49 -1.8124 0.4192
10 12 52 4.0368 -0.3257
10 12 55 9.1743 -0.7464
10 12 58 -2.3452 -0.6928
10 13 -57 0.6491 0.0884
10 13 -54 -4.0885 0.8593
10 13 -51 -5.5527 0.3465
10 13 -48 -8.7871 0.0054
10 13 -45 8.8549 -0.3091
10 13 -42 -2.3875 0.2621
10 13 -39 8.3725 0.2900
10 13 -36 19.0004 0.0477
10 13 -33 -15.8258 -0.4590
10 13 -30 -18.2803 0.0087
10 13 -27 9.9373 0.3463
10 13 -24 -7.5623 0.1109
10 13 -21 3.9505 -0.0348
10 13 -18 21.1733 -0.0986
10 13 -15 2.0871 0.2416
10 13 -12 24.0611 0.2752
10 13 -9 41.9063 -0.1736
10 13 -6 -39.7747 -0.0124
10 13 -3 10.0932 0.0949
10 13 0 3.2995 0.0774
10 13 3 -74.1941 -0.1704
10 13 6 8.7852 -0.0983
10 13 9 -23.8604 -0.0274
10 13 12 4.2434 0.1238
10 13 15 58.4410 -0.2507
10 13 18 -54.4241 -0.2746
10 13 21 17.7300 0.0054
10 13 24 5.7990 0.2064
10 13 27 -8.7690 -0.2570
10 13 30 -0.8758 -0.2925
10 13 33 -19.3020 -0.1764
10 13 36 -9.0005 0.0712
10 13 39 2.4697 -0.1032
10 13 42 -9.6177 0.1387
10 13 45 -0.4764 -0.4205
10 13 48 15.0485 0.3320
10 13 51 -10.7776 0.8395
10 13 54 -3.5702 0.0044
10 13 57 7.0344 -0.9206
10 14 -55 -6.3257 -0.7438
10 14 -52 2.5498 0.4967
10 14 -49 4.7567 0.0314
10 14 -46 3.6001 0.3638
10 14 -43 9.2143 0.2796
10 14 -40 -0.5857 -0.2953
10 14 -37 1.3422 -0.4340
10 14 -34 -23.2705 0.1717
10 14 -31 10.8133 0.4943
10 14 -28 -38.7728 0.1159
10 14 -25 44.6178 -0.4106
10 14 -22 2.9964 -0.4696
10 14 -19 -48.2132 0.3516
10 14 -16 63.4923 0.5789
10 14 -13 -13.1553 -0.3714
10 14 -10 -18.0462 -0.7046
10 14 -7 59.8216 0.0477
10 14 -4 -48.6411 0.4455
10 14 -1 3.1841 0.1658
10 14 2 -44.4298 -0.1934
10 14 5 59.8326 -0.5974
10 14 8 76.3122 0.1401
10 14 11 76.6467 0.7857
10 14 14 72.4445 -0.0300
10 14 17 -25.8549 -0.6443
10 14 20 -18.2959 -0.2518
10 14 23 -22.3693 0.4606
10 14 26 -72.3158 0.5188
10 14 29 42.2610 -0.1453
10 14 32 -14.8582 -0.9437
10 14 35 -7.4772 -0.1295
10 14 38 -5.8742 0.8738
10 14 41 -1.1734 0.0399
10 14 44 -15.4469 -0.5936
10 14 47 -4.1701 -0.4700
10 14 50 -7.8055 0.4466
10 14 53 -6.8532 1.0325
10 14 56 9.8144 0.0109
10 15 -56 1.5614 1.0252
10 15 -53 -7.6416 0.5573
10 15 -50 19.8561 0.3626
10 15 -47 -11.3158 -0.8622
10 15 -44 14.0970 -0.0846
10 15 -41 -6.4877 0.6611
10 15 -38 15.7816 0.5528
10 15 -35 -29.5260 -0.4851
10 15 -32 8.3812 -0.8248
10 15 -29 -18.5870 0.2169
10 15 -26 10.7702 0.9601
10 15 -23 2.7554 -0.0793
10 15 -20 -24.3553 -0.7883
10 15 -17 6.6047 -0.1616
10 15 -14 93.5842 0.6881
10 15 -11 -48.7786 0.2955
10 15 -8 -8.9219 -0.5470
10 15 -5 13.5563 -0.6048
10 15 -2 4.4104 0.2172
10 15 1 -29.1185 0.7151
10 15 4 47.8158 -0.4260
10 15 7 35.8470 -0.5878
10 15 10 41.9517 -0.0836
10 15 13 -53.3892 0.0659
10 15 16 -0.7435 -0.1089
10 15 19 -46.9656 -0.4159
10 15 22 35.8993 -0.4292
10 15 25 -117.0447 0.0590
10 15 28 27.2795 0.2339
10 15 31 -0.1842 -0.2222
10 15 34 13.3812 -0.2484
10 15 37 22.4505 0.3113
10 15 40 20.0770 0.0063
10 15 43 -1.1365 -0.2649
10 15 46 10.6243 -0.2189
10 15 49 14.6851 -0.3286
10 15 52 8.9385 -0.1057
10 15 55 6.9266 -0.0515
10 16 -54 -3.2821 0.5652
10 16 -51 4.7034 -0.1256
10 16 -48 -15.7686 0.0453
10 16 -45 3.4803 -0.5018
10 16 -42 -2.4109 0.4528
10 16 -39 4.5106 0.3062
10 16 -36 -3.1490 0.1150
10 16 -33 -10.0364 -0.3326
10 16 -30 3.5164 -0.4512
10 16 -27 32.8597 0.3910
10 16 -24 -27.8458 0.6182
10 16 -21 5.2165 -0.2381
10 16 -18 25.3336 -0.7740
10 16 -15 12.6991 -0.1958
10 16 -12 -37.3748 0.4884
10 16 -9 -17.9900 0.4609
10 16 -6 -44.2784 -0.4747
10 16 -3 62.3486 -0.8123
10 16 0 37.7582 0.4859
10 16 3 -23.3371 1.2411
10 16 6 48.2056 0.1111
10 16 9 9.9394 -1.1279
10 16 12 -67.5169 -0.1847
10 16 15 -8.6211 1.0425
10 16 18 -54.3590 0.7865
10 16 21 25.6389 -0.7744
10 16 24 8.6356 -0.8893
10 16 27 -27.4766 0.4957
10 16 30 10.2929 1.2983
10 16 33 10.1249 -0.0608
10 16 36 -11.7715 -1.2306
10 16 39 -3.7860 0.2220
10 16 42 -3.8352 1.0389
10 16 45 -6.2951 0.6595
10 16 48 -2.8554 -0.7115
10 16 51 -12.8822 -1.2499
10 16 54 -10.2348 -0.2713
10 17 -52 5.2281 0.2497
10 17 -49 -0.3446 0.1177
10 17 -46 -4.1412 0.1147
10 17 -43 6.8359 -0.5338
10 17 -40 -5.8745 -0.2093
10 17 -37 -2.1791 0.2427
10 17 -34 5.3280 0.6885
10 17 -31 20.1821 -0.3582
10 17 -28 6.5349 -0.6589
10 17 -25 10.4611 -0.1445
10 17 -22 -64.2671 0.6395
10 17 -19 26.1053 0.4351
10 17 -16 -13.6111 -0.6336
10 17 -13 -35.3826 -0.8988
10 17 -10 25.1719 0.5175
10 17 -7 0.6795 0.7749
10 17 -4 33.2372 -0.2324
10 17 -1 78.7399 -0.9633
10 17 2 18.8998 0.0455
10 17 5 26.3693 0.9616
10 17 8 21.3528 0.1950
10 17 11 -35.6032 -0.9207
10 17 14 -13.4062 -0.5731
10 17 17 -0.6951 0.4221
10 17 20 -25.6436 0.6014
10 17 23 42.8503 -0.2112
10 17 26 10.5937 -0.9560
10 17 29 8.1356 0.1096
10 17 32 7.0554 1.1108
10 17 35 -9.2432 -0.0190
10 17 38 -13.1001 -0.5976
10 17 41 13.0613 -0.0523
10 17 44 -12.0674 0.1885
10 17 47 6.5448 0.5615
10 17 50 13.2065 0.2941
10 17 53 4.4959 -0.6782
10 18 -53 -3.7036 -0.5925
10 18 -50 9.1831 -0.0733
10 18 -47 -15.1062 0.0965
10 18 -44 9.6394 0.1242
10 18 -41 -0.9509 0.1426
10 18 -38 -13.7364 -0.0155
10 18 -35 5.0916 -0.4466
10 18 -32 19.6844 0.2484
10 18 -29 -34.6064 0.5779
10 18 -26 26.9889 0.1148
10 18 -23 -0.3172 -0.3386
10 18 -20 36.5714 -0.0776
10 18 -17 55.8773 0.3236
10 18 -14 4.3061 0.2043
10 18 -11 16.0885 -0.2450
10 18 -8 36.3939 -0.0732
10 18 -5 41.6408 -0.0187
10 18 -2 -20.4536 0.1969
10 18 1 -14.5595 0.0629
10 18 4 -30.1318 -0.1338
10 18 7 -14.2591 0.0000
10 18 10 -37.0203 0.0516
10 18 13 -21.3053 -0.0290
10 18 16 39.4983 -0.0679
10 18 19 -56.0432 -0.0837
10 18 22 17.3532 0.0678
10 18 25 0.7627 -0.1181
10 18 28 28.0948 -0.2012
10 18 31 11.3927 0.0246
10 18 34 5.7820 0.0121
10 18 37 8.2618 -0.1257
10 18 40 2.0743 -0.1066
10 18 43 15.7142 -0.4096
10 18 46 -2.8958 0.2299
10 18 49 11.9942 0.6602
10 18 52 3.7154 -0.3216
10 19 -51 4.3453 -0.5997
10 19 -48 0.9026 -0.1274
10 19 -45 0.9109 0.0872
10 19 -42 9.9789 0.4104
10 19 -39 11.1701 -0.0941
10 19 -36 4.3382 -0.3403
10 19 -33 28.0513 -0.4159
10 19 -30 9.8028 0.5416
10 19 -27 -3.5000 0.4494
10 19 -24 -2.4907 -0.3957
10 19 -21 21.8068 -0.6598
10 19 -18 -17.1802 0.2148
10 19 -15 11.9567 0.6069
10 19 -12 -31.7769 -0.3818
10 19 -9 43.3244 -0.6257
10 19 -6 30.8042 -0.2628
10 19 -3 -20.7524 0.6097
10 19 0 -3.1678 0.3859
10 19 3 -38.7821 -0.6292
10 19 6 19.5166 -0.5730
10 19 9 -2.8265 0.3889
10 19 12 -54.1433 0.7389
10 19 15 90.2873 0.0354
10 19 18 25.1522 -0.6934
10 19 21 8.9440 -0.2753
10 19 24 30.3406 0.6397
10 19 27 -20.6807 0.1233
10 19 30 4.5389 -0.7034
10 19 33 -6.0230 -0.1693
10 19 36 -4.7102 0.2469
10 19 39 -0.2899 0.3290
10 19 42 4.6810 0.0476
10 19 45 -9.9984 -0.3151
10 19 48 -9.4205 -0.4475
10 19 51 9.1960 -0.0938
10 20 -49 0.6090 -0.0364
10 20 -46 -4.7889 -0.0856
10 20 -43 0.5515 -0.4648
10 20 -40 -6.6068 -0.1557
10 20 -37 14.1108 0.7777
10 20 -34 -3.8757 0.3260
10 20 -31 15.3970 -0.4144
10 20 -28 -9.2661 -0.5309
10 20 -25 -8.1123 0.4692
10 20 -22 15.8023 0.7448
10 20 -19 27.5188 0.1252
10 20 -16 18.4633 -0.6419
10 20 -13 34.3971 -0.2559
10 20 -10 21.0870 0.6646
10 20 -7 39.3791 0.4933
10 20 -4 -17.7161 -0.2251
10 20 -1 8.4395 -0.5021
10 20 2 -40.7338 -0.1349
10 20 5 -11.7468 0.5800
10 20 8 -16.6980 0.4427
10 20 11 -12.7935 -0.6507
10 20 14 -29.6633 -0.3311
10 20 17 31.9972 0.3875
10 20 20 -8.2722 0.3386
10 20 23 7.6414 0.0055
10 20 26 -5.7862 -0.4037
10 20 29 -3.2933 -0.3784
10 20 32 17.1858 0.3391
10 20 35 7.0574 0.3408
10 20 38 0.6669 -0.5400
10 20 41 19.5373 -0.2427
10 20 44 11.4588 0.0300
10 20 47 5.2027 -0.6251
10 20 50 9.0612 0.1160
10 21 -50 -0.3758 0.0086
10 21 -47 -0.3216 0.0712
10 21 -44 -2.7370 -0.1105
10 21 -41 3.6429 -0.2123
10 21 -38 8.7951 0.5722
10 21 -35 14.4853 0.2682
10 21 -32 -7.8511 -0.2220
10 21 -29 3.9040 -0.8292
10 21 -26 28.9474 0.3324
10 21 -23 4.7434 0.7736
10 21 -20 -2.0734 0.0077
10 21 -17 16.3124 -0.7656
10 21 -14 -23.3153 -0.3194
10 21 -11 -12.5044 0.7992
10 21 -8 -29.2665 0.5682
10 21 -5 -32.6672 -0.4307
10 21 -2 -32.4559 -0.7243
10 21 1 14.5118 0.2472
10 21 4 -1.0607 1.0852
10 21 7 16.0409 0.1725
10 21 10 34.9127 -0.9839
10 21 13 -29.1252 -0.4451
10 21 16 3.1787 0.6947
10 21 19 7.8090 0.7269
10 21 22 -1.2400 -0.3203
10 21 25 32.3754 -0.6036
10 21 28 7.4704 0.0907
10 21 31 5.0693 0.5268
10 21 34 14.0605 0.3702
10 21 37 -2.0404 -0.3128
10 21 40 -6.9901 -0.3302
10 21 43 0.7484 0.0147
10 21 46 -4.3269 0.2405
10 21 49 -9.5998 0.4516
10 22 -48 -13.0937 1.3026
10 22 -45 -3.4767 0.6593
10 22 -42 9.1190 0.1179
10 22 -39 18.6899 -0.3041
10 22 -36 -19.3340 -0.2519
10 22 -33 23.7758 0.3603
10 22 -30 -6.5475 0.4475
10 22 -27 -10.0471 -0.2605
10 22 -24 15.9966 -0.7013
10 22 -21 -5.6471 0.1397
10 22 -18 -6.4422 0.6177
10 22 -15 32.3727 0.2011
10 22 -12 -37.9209 -0.5506
10 22 -9 48.5064 -0.2317
10 22 -6 -22.5872 0.2867
10 22 -3 10.9364 0.2284
10 22 0 12.5757 -0.0942
10 22 3 11.7363 -0.4088
10 22 6 -21.3986 -0.0292
10 22 9 35.8227 0.2755
10 22 12 0.3103 0.0238
10 22 15 17.2928 -0.3825
10 22 18 10.5115 -0.2142
10 22 21 -46.9415 -0.2385
10 22 24 6.2607 -0.0490
10 22 27 -9.0561 0.0921
10 22 30 -14.5786 -0.2174
10 22 33 1.5270 -0.0252
10 22 36 0.3007 -0.0281
10 22 39 -19.3454 -0.2232
10 22 42 -6.5538 -0.1864
10 22 45 8.6375 0.3157
10 22 48 -12.8712 -0.4302
10 23 -46 9.3479 -0.4489
10 23 -43 -7.1130 -0.6726
10 23 -40 21.8040 -0.0825
10 23 -37 -12.4474 0.2365
10 23 -34 -12.1685 -0.0300
10 23 -31 19.9906 -0.4735
10 23 -28 -7.8053 0.0040
10 23 -25 2.2049 0.4438
10 23 -22 36.6506 0.2121
10 23 -19 -18.3465 -0.2120
10 23 -16 5.3546 -0.1365
10 23 -13 -8.5682 0.5772
10 23 -10 -12.6078 0.3473
10 23 -7 30.0183 -0.2002
10 23 -4 -16.9011 -0.2702
10 23 -1 -2.9787 0.4606
10 23 2 15.2768 0.3580
10 23 5 -4.3883 -0.1295
10 23 8 -9.3353 -0.3655
10 23 11 23.2015 0.0172
10 23 14 -3.3511 0.4856
10 23 17 36.8333 0.0206
10 23 20 -3.2824 -0.4130
10 23 23 -1.8922 -0.1029
10 23 26 10.1100 0.2783
10 23 29 4.5486 0.0402
10 23 32 -10.7406 -0.7508
10 23 35 -14.2635 -0.3976
10 23 38 11.3963 0.2889
10 23 41 0.4809 -0.3895
10 23 44 13.8091 -0.4925
10 23 47 -7.9277 -1.6359
10 24 -44 -4.2531 0.5148
10 24 -41 8.5981 0.1293
10 24 -38 -5.9017 0.5163
10 24 -35 0.4381 -0.4088
10 24 -32 -0.6986 -0.5902
10 24 -29 -1.1903 0.2510
10 24 -26 -7.5090 0.8573
10 24 -23 -7.3094 -0.2648
10 24 -20 16.3314 -1.0469
10 24 -17 -16.5904 -0.1003
10 24 -14 12.5665 0.7539
10 24 -11 -4.4228 0.4640
10 24 -8 11.0938 -0.7924
10 24 -5 31.7999 -0.7412
10 24 -2 -26.3132 0.4934
10 24 1 32.8446 0.7908
10 24 4 17.2099 -0.2528
10 24 7 -8.4021 -0.8653
10 24 10 7.3876 0.0144
10 24 13 5.3491 0.8835
10 24 16 17.5954 0.0622
10 24 19 24.0661 -0.6076
10 24 22 9.5723 -0.2251
10 24 25 -0.4295 0.7322
10 24 28 9.3202 0.2925
10 24 31 -15.2891 -0.3743
10 24 34 -24.4992 -0.3327
10 24 37 -3.1388 0.7405
10 24 40 -15.1690 0.4084
10 24 43 -10.6560 -0.6148
10 24 46 2.3927 0.5672
10 25 -45 19.9186 -0.3070
10 25 -42 2.5575 0.2316
10 25 -39 -1.6454 -0.7461
10 25 -36 4.4477 0.3627
10 25 -33 3.6596 0.5867
10 25 -30 -18.7460 -0.4320
10 25 -27 3.7558 -1.0021
10 25 -24 0.3034 0.3733
10 25 -21 -9.0913 1.0967
10 25 -18 1.2727 0.0577
10 25 -15 10.8063 -0.9081
10 25 -12 -10.2895 -0.4046
10 25 -9 50.1896 0.8453
10 25 -6 -8.8568 0.9122
10 25 -3 -9.9941 -0.8834
10 25 0 12.7695 -1.0243
10 25 3 13.7696 0.6638
10 25 6 14.3232 1.3242
10 25 9 14.4245 -0.2535
10 25 12 -5.0385 -0.9503
10 25 15 -1.9383 -0.0277
10 25 18 -13.2465 0.7797
10 25 21 -1.9479 0.3121
10 25 24 -11.1124 -0.5588
10 25 27 -1.0868 -0.5172
10 25 30 -4.6601 1.0469
10 25 33 -8.9930 0.7738
10 25 36 3.4836 -0.7801
10 25 39 0.3018 -0.1226
10 25 42 10.8444 -0.0140
10 25 45 16.4194 1.5138
10 26 -43 -12.9052 -0.6317
10 26 -40 2.4971 0.6160
10 26 -37 -13.9217 0.0396
10 26 -34 3.1780 0.6809
10 26 -31 27.9779 -0.6373
10 26 -28 4.8088 -0.3548
10 26 -25 13.8461 0.2312
10 26 -22 13.8546 0.5644
10 26 -19 -14.2895 0.0098
10 26 -16 5.6532 -0.6368
10 26 -13 1.1649 -0.2330
10 26 -10 -0.3400 0.5847
10 26 -7 9.1053 0.5062
10 26 -4 -8.0077 -0.5111
10 26 -1 12.5631 -0.5439
10 26 2 19.5542 0.3082
10 26 5 8.3505 0.7442
10 26 8 -8.3294 0.1046
10 26 11 24.0959 -0.7346
10 26 14 1.0587 -0.2729
10 26 17 -9.8234 0.6362
10 26 20 6.3036 0.2804
10 26 23 -11.8039 -0.2513
10 26 26 0.1326 -0.7136
10 26 29 -7.0908 0.0508
10 26 32 3.2306 0.4234
10 26 35 3.6169 -0.1052
10 26 38 4.1756 -0.2829
10 26 41 6.0914 -0.7086
10 27 -41 -7.8887 -0.4539
10 27 -38 -0.5227 0.5892
10 27 -35 -5.3271 -1.0409
10 27 -32 0.2724 0.0715
10 27 -29 -0.7664 0.8819
10 27 -26 -7.2547 0.0400
10 27 -23 7.7678 -0.9928
10 27 -20 4.0205 -0.2420
10 27 -17 -22.1356 0.9624
10 27 -14 19.7542 0.4143
10 27 -11 3.5893 -0.5606
10 27 -8 0.6515 -0.8974
10 27 -5 9.4252 0.1978
10 27 -2 17.7675 0.7364
10 27 1 18.7069 -0.1466
10 27 4 19.7065 -0.6398
10 27 7 -14.9408 -0.0379
10 27 10 31.3143 0.2472
10 27 13 19.4703 0.0792
10 27 16 -11.0493 -0.1818
10 27 19 2.3276 -0.3381
10 27 22 -4.9031 0.2203
10 27 25 -2.1109 0.0410
10 27 28 -15.3851 -0.5420
10 27 31 -13.6735 -0.3737
10 27 34 0.2824 0.2478
10 27 37 0.9057 -0.4838
10 27 40 5.0616 -0.4874
10 28 -39 -3.9806 0.2587
10 28 -36 5.4270 0.3604
10 28 -33 -8.9536 -0.5672
10 28 -30 2.7194 -0.1930
10 28 -27 10.7082 -0.0050
10 28 -24 -1.3301 0.0196
10 28 -21 3.5009 -0.1170
10 28 -18 -3.7336 -0.3460
10 28 -15 11.4264 0.3331
10 28 -12 15.9549 0.2070
10 28 -9 20.5907 -0.0014
10 28 -6 -17.2775 -0.4775
10 28 -3 15.0728 -0.0744
10 28 0 11.0114 0.4741
10 28 3 -8.4124 0.3351
10 28 6 -19.1885 -0.2508
10 28 9 -17.0247 -0.4647
10 28 12 -13.0765 0.0965
10 28 15 11.3726 0.6152
10 28 18 -3.5974 -0.0838
10 28 21 12.3873 -0.4581
10 28 24 22.7466 0.3142
10 28 27 -3.1987 0.6945
10 28 30 -0.6187 0.1305
10 28 33 11.2857 -0.4293
10 28 36 6.4660 -0.4484
10 28 39 7.8619 0.2814
10 29 -37 -3.7909 -0.4536
10 29 -34 13.2685 -0.3412
10 29 -31 -13.4356 -0.8354
10 29 -28 -2.9934 -0.0288
10 29 -25 -2.9139 0.9320
10 29 -22 -11.3749 -0.3052
10 29 -19 -11.2537 -0.9243
10 29 -16 -6.2479 -0.3363
10 29 -13 23.6827 0.9875
10 29 -10 -1.8165 0.3463
10 29 -7 15.4137 -0.7488
10 29 -4 20.9563 -0.6007
10 29 -1 -2.6656 0.3649
10 29 2 26.3246 0.6429
10 29 5 -7.0277 -0.4138
10 29 8 26.1382 -0.6249
10 29 11 4.5158 0.1171
10 29 14 6.8621 0.6244
10 29 17 2.9584 -0.0041
10 29 20 2.4973 -0.5171
10 29 23 -0.6943 -0.3925
10 29 26 8.9500 -0.2188
10 29 29 -7.6400 0.4408
10 29 32 7.7413 -0.4028
10 29 35 -9.9226 0.4128
10 29 38 -5.2181 0.9201
10 30 -35 -6.0281 -0.3666
10 30 -32 9.0311 0.1703
10 30 -29 -8.7716 -0.2627
10 30 -26 6.5189 -0.8811
10 30 -23 -19.7466 -0.1208
10 30 -20 0.8505 0.0894
10 30 -17 17.9410 0.3778
10 30 -14 35.3248 0.0294
10 30 -11 -0.4513 -0.4688
10 30 -8 3.8969 0.0393
10 30 -5 15.8396 0.4406
10 30 -2 -17.7052 0.1027
10 30 1 1.8149 -0.4224
10 30 4 -17.0320 -0.1519
10 30 7 -9.6272 0.6545
10 30 10 10.5409 -0.0813
10 30 13 -21.3418 -0.6895
10 30 16 -5.6223 -0.1724
10 30 19 6.1907 0.6321
10 30 22 -3.4470 0.6566
10 30 25 0.5818 -0.7742
10 30 28 -5.2652 0.2310
10 30 31 1.0276 -0.1384
10 30 34 17.2405 -0.2188
10 31 -33 -0.7763 -0.5051
10 31 -30 5.8676 -0.1461
10 31 -27 -9.8954 -0.0684
10 31 -24 -8.6802 -0.2322
10 31 -21 -3.3358 0.3775
10 31 -18 11.7602 0.2684
10 31 -15 7.6101 -0.3674
10 31 -12 -15.5497 0.1266
10 31 -9 6.4379 0.2657
10 31 -6 -11.3630 -0.1249
10 31 -3 4.0466 -0.2385
10 31 0 6.0115 -0.2016
10 31 3 -14.8395 0.0176
10 31 6 16.8478 0.0074
10 31 9 19.7942 -0.3179
10 31 12 10.4348 0.0817
10 31 15 19.7522 -0.0736
10 31 18 -5.0501 -0.0161
10 31 21 -3.2794 0.2390
10 31 24 0.4929 -0.4235
10 31 27 -8.5095 -0.0669
10 31 30 -4.7866 0.0725
10 31 33 12.6995 -1.2676
10 32 -31 -2.0670 0.0836
10 32 -28 -1.3983 0.0885
10 32 -25 6.7719 0.3157
10 32 -22 12.0637 -0.5257
10 32 -19 16.3591 -0.3691
10 32 -16 2.1380 0.0674
10 32 -13 12.0830 0.9154
10 32 -10 0.8342 -0.0732
10 32 -7 -1.3013 -0.6277
10 32 -4 -11.6656 -0.1470
10 32 -1 10.8019 0.5395
10 32 2 12.3685 0.3355
10 32 5 -10.6534 -0.4407
10 32 8 7.4604 -0.6990
10 32 11 -11.5584 0.5545
10 32 14 0.7232 0.5110
10 32 17 2.5564 -0.6286
10 32 20 8.6689 -0.8894
10 32 23 0.5146 0.4846
10 32 26 8.3385 0.3474
10 32 29 -16.6551 0.3137
10 32 32 -2.7010 -0.2452
10 33 -29 -14.1098 -0.2826
10 33 -26 12.3887 -0.3274
10 33 -23 -2.0624 -0.0456
10 33 -20 -4.1823 0.2686
10 33 -17 -3.5176 -0.3218
10 33 -14 -4.9945 0.3142
10 33 -11 -8.7899 0.0898
10 33 -8 -20.1634 -0.0151
10 33 -5 -4.6053 -0.3872
10 33 -2 2.6359 -0.2668
10 33 1 9.1465 0.1857
10 33 4 -1.2945 0.3831
10 33 7 2.4868 -0.5916
10 33 10 11.4413 -0.2327
10 33 13 -4.6442 0.5228
10 33 16 -0.1946 0.6957
10 33 19 12.5588 -0.9999
10 33 22 -3.2493 -0.5454
10 33 25 -2.8588 -0.3407
10 33 28 4.4492 -0.6524
10 34 -24 6.7428 0.8747
10 34 -21 -14.0347 0.2523
10 34 -18 4.5128 0.1589
10 34 -15 9.5644 -0.2111
10 34 -12 -9.7518 0.7186
10 34 -9 19.8770 0.1773
10 34 -6 0.7227 -0.4339
10 34 -3 18.5484 -0.4014
10 34 0 -11.3677 0.5296
10 34 3 2.5924 0.5986
10 34 6 0.6553 -0.3624
10 34 9 0.5310 -0.7909
10 34 12 2.3092 -0.1563
10 34 15 2.1496 0.6464
10 34 18 -1.8197 -0.1802
10 34 21 -0.3816 0.3003
10 34 24 -6.6790 0.8290
10 35 -22 5.9515 -1.2422
10 35 -19 -6.3521 -0.1040
10 35 -16 -0.8098 -0.0496
10 35 -13 -3.7169 0.2649
10 35 -10 -12.7066 -0.1611
10 35 -7 -2.5666 0.2992
10 35 -4 13.6984 -0.0134
10 35 -1 -8.9813 0.0521
10 35 2 4.9956 0.0339
10 35 5 -4.3283 0.3447
10 35 8 10.5666 0.2069
10 35 11 15.6866 -0.0648
10 35 14 4.3013 0.4797
10 35 17 9.4815 -0.7064
10 35 20 -1.8596 -0.7865
10 35 23 -5.4473 1.2199
10 36 -17 2.4950 0.3912
10 36 -14 14.8615 0.1092
10 36 -11 -1.6858 -0.0371
10 36 -8 -1.6976 -0.3893
10 36 -5 20.9173 -0.1705
10 36 -2 -14.6862 0.2961
10 36 1 7.9306 0.7640
10 36 4 10.3881 -0.0778
10 36 7 -2.3055 -1.1192
10 36 10 21.6226 -0.4628
10 36 13 -2.4567 -0.0566
10 36 16 0.9308 -0.1018
10 37 -12 -16.2626 0.2696
10 37 -9 -5.6079 -0.4186
10 37 -6 -5.3818 0.3048
10 37 -3 -16.4116 0.0566
10 37 0 0.9578 -0.1021
10 37 3 16.6341 -0.3106
10 37 6 -1.7312 -0.3153
10 37 9 9.7353 0.4648
10 37 12 2.0269 0.2220
11 1 -62 7.1506 0.1186
11 1 -59 2.2129 3.3236
11 1 -56 -9.1379 -0.5640
11 1 -53 8.5519 -3.3162
11 1 -50 0.6477 -0.7980
11 1 -47 -17.6770 4.3180
11 1 -44 -8.6944 2.2549
11 1 -41 -27.8393 -4.2932
11 1 -38 -12.5443 -4.0983
11 1 -35 -9.0059 3.3950
11 1 -32 -9.8015 5.7623
11 1 -29 20.2615 -2.3950
11 1 -26 -18.5754 -7.4474
11 1 -23 -50.8877 0.4456
11 1 -20 -19.2603 8.1028
11 1 -17 134.6037 1.8441
11 1 -14 146.5416 -8.0405
11 1 -11 58.0031 -4.7223
11 1 -8 12.3555 7.2722
11 1 -5 142.4724 7.3730
11 1 -2 -90.6390 -4.7167
11 1 1 -0.4505 -7.9803
11 1 4 -207.8904 3.1393
11 1 7 -73.1241 9.2145
11 1 10 37.6202 0.2327
11 1 13 -245.4889 -8.3074
11 1 16 91.5046 -2.4797
11 1 19 -2.7769 6.8412
11 1 22 25.0788 4.7798
11 1 25 -7.5186 -5.3328
11 1 28 23.2269 -6.0137
11 1 31 42.1125 2.7364
11 1 34 32.2244 5.6696
11 1 37 21.2348 -1.2966
11 1 40 -34.2618 -5.4520
11 1 43 -3.6977 -0.4299
11 1 46 -23.5707 4.1204
11 1 49 2.8495 1.8173
11 1 52 -17.3824 -3.0368
11 1 55 -18.4696 -2.3310
11 1 58 -8.0568 1.6434
11 1 61 5.7316 2.0627
11 2 -60 -2.4098 0.6428
11 2 -57 -5.8660 -0.3721
11 2 -54 8.4376 -0.9837
11 2 -51 -20.6968 -0.1050
11 2 -48 1.6335 1.9106
11 2 -45 -22.1446 0.4129
11 2 -42 16.4004 -2.3293
11 2 -39 0.6590 -1.5335
11 2 -36 30.8445 2.4127
11 2 -33 -28.7570 2.6193
11 2 -30 85.5874 -1.7213
11 2 -27 -74.4339 -3.9638
11 2 -24 34.1690 0.9676
11 2 -21 56.7631 4.8988
11 2 -18 -31.7176 0.5453
11 2 -15 9.8398 -5.3121
11 2 -12 -63.2396 -1.9390
11 2 -9 -192.9471 5.3714
11 2 -6 135.7814 3.6578
11 2 -3 -89.2430 -4.0304
11 2 0 -8.3927 -5.3102
11 2 3 147.3775 2.4843
11 2 6 -100.8095 6.5786
11 2 9 83.7339 -0.5277
11 2 12 180.0954 -7.1027
11 2 15 -32.3075 -2.4826
11 2 18 151.5822 5.7025
11 2 21 -5.5673 3.8289
11 2 24 3.7121 -4.6212
11 2 27 -42.8591 -4.7135
11 2 30 61.5417 3.0548
11 2 33 -65.2279 5.2823
11 2 36 44.7299 -1.0813
11 2 39 -40.0873 -4.6598
11 2 42 -11.3110 -0.5238
11 2 45 -0.4295 4.0519
11 2 48 3.2874 1.4025
11 2 51 -8.7269 -2.6126
11 2 54 8.3995 -2.1873
11 2 57 2.9185 1.4894
11 2 60 3.6882 1.9020
11 3 -61 -5.8875 -0.8511
11 3 -58 7.4440 -2.5830
11 3 -55 9.6244 0.0464
11 3 -52 -3.9242 2.7790
11 3 -49 -0.9563 1.1465
11 3 -46 2.2300 -2.6988
11 3 -43 -28.1060 -1.8214
11 3 -40 -27.5418 2.5210
11 3 -37 -34.4567 2.8051
11 3 -34 23.1875 -1.4862
11 3 -31 -10.4721 -3.3531
11 3 -28 24.1997 0.1954
11 3 -25 -70.2543 4.0431
11 3 -22 116.0388 1.2035
11 3 -19 30.7656 -4.0734
11 3 -16 77.3000 -2.3381
11 3 -13 -6.8717 3.5254
11 3 -10 -17.0150 3.6525
11 3 -7 46.8939 -2.1822
11 3 -4 73.0179 -3.9774
11 3 -1 -100.7915 0.7234
11 3 2 161.7064 4.2166
11 3 5 -120.5521 0.6504
11 3 8 -171.2633 -4.2150
11 3 11 -236.0622 -1.3816
11 3 14 -23.6184 3.8352
11 3 17 40.0461 2.3229
11 3 20 34.0435 -3.0602
11 3 23 -31.9041 -3.2922
11 3 26 51.2454 1.4429
11 3 29 56.6076 2.7187
11 3 32 -8.4591 -0.8832
11 3 35 -5.2126 -2.7141
11 3 38 20.2211 -0.4593
11 3 41 -11.4802 1.7184
11 3 44 2.6402 0.7853
11 3 47 -0.8503 -1.4322
11 3 50 7.0015 -0.8337
11 3 53 -1.3121 1.3035
11 3 56 2.6044 1.2010
11 3 59 -0.2229 -0.5860
11 4 -59 -2.8772 0.8197
11 4 -56 -0.6119 -0.6086
11 4 -53 5.4360 0.3496
11 4 -50 -10.0702 0.5468
11 4 -47 -17.5156 -0.4187
11 4 -44 6.6229 -0.5739
11 4 -41 -19.1941 0.4167
11 4 -38 35.0229 0.5348
11 4 -35 51.4080 -0.0810
11 4 -32 -8.9772 -0.9636
11 4 -29 65.9461 -0.5224
11 4 -26 -21.8858 1.2735
11 4 -23 46.6042 0.7120
11 4 -20 92.2788 -1.4196
11 4 -17 -32.7798 -0.8325
11 4 -14 -216.0657 1.5904
11 4 -11 -18.9273 1.5156
11 4 -8 -163.8860 -0.7409
11 4 -5 130.2577 -1.4110
11 4 -2 -96.4616 0.7853
11 4 1 34.8653 2.4303
11 4 4 -13.1803 -0.0985
11 4 7 41.8750 -2.3300
11 4 10 -49.1135 -0.5055
11 4 13 101.4617 1.8447
11 4 16 70.8039 0.6790
11 4 19 68.8310 -1.6813
11 4 22 32.5539 -1.0235
11 4 25 69.2424 0.8338
11 4 28 85.2940 1.4238
11 4 31 -18.2853 -0.3635
11 4 34 -39.4047 -1.2301
11 4 37 -56.0249 0.0157
11 4 40 -34.2334 1.3625
11 4 43 -5.7962 0.3305
11 4 46 -22.4744 -1.0968
11 4 49 7.6649 -0.4464
11 4 52 -24.1623 0.2942
11 4 55 6.6564 0.8720
11 4 58 4.7810 -0.0692
11 4 61 11.4485 -0.4601
11 5 -60 4.8666 0.2028
11 5 -57 4.7013 0.6014
11 5 -54 19.4846 -0.5782
11 5 -51 -6.7395 -0.7732
11 5 -48 14.1573 0.2385
11 5 -45 -13.7499 0.8000
11 5 -42 22.6706 -0.1153
11 5 -39 -30.0954 -1.0962
11 5 -36 25.5426 -0.4467
11 5 -33 -52.9518 1.3296
11 5 -30 64.3161 1.1840
11 5 -27 -43.9314 -0.7439
11 5 -24 62.3384 -1.5641
11 5 -21 -42.6040 0.6676
11 5 -18 -13.4034 2.0013
11 5 -15 -66.0890 -0.3090
11 5 -12 130.6015 -1.7983
11 5 -9 68.7909 0.0072
11 5 -6 62.9041 1.8485
11 5 -3 146.9480 1.2327
11 5 0 -112.3260 -1.4977
11 5 3 40.2920 -2.1913
11 5 6 107.3039 0.8984
11 5 9 -49.7650 2.0728
11 5 12 152.8031 -0.5103
11 5 15 -183.4675 -2.1864
11 5 18 80.4351 -0.0272
11 5 21 -93.7577 2.0597
11 5 24 39.6990 0.7545
11 5 27 -41.2450 -1.5984
11 5 30 59.1320 -1.4522
11 5 33 -20.2007 1.0633
11 5 36 -1.3377 1.5949
11 5 39 -16.9596 -0.2878
11 5 42 24.3267 -1.4750
11 5 45 3.1583 -0.0965
11 5 48 19.1829 1.1729
11 5 51 11.5239 0.4179
11 5 54 20.8457 -1.2793
11 5 57 6.6168 -2.0757
11 5 60 -15.2116 0.6035
11 6 -58 6.4306 0.1776
11 6 -55 -7.3408 0.3472
11 6 -52 -11.2497 0.0946
11 6 -49 -3.4883 -0.5647
11 6 -46 -19.7787 -0.2564
11 6 -43 -10.8662 0.8717
11 6 -40 34.6680 0.4680
11 6 -37 -8.0823 -0.9857
11 6 -34 51.8905 -0.7316
11 6 -31 -20.6717 0.7812
11 6 -28 13.2935 0.8248
11 6 -25 15.8780 -0.5534
11 6 -22 40.5198 -0.8130
11 6 -19 -69.0728 0.0893
11 6 -16 -5.7041 1.1113
11 6 -13 -90.0867 0.6246
11 6 -10 -14.6734 -1.4228
11 6 -7 -114.5727 -0.9904
11 6 -4 82.2072 1.6578
11 6 -1 -29.5823 1.5318
11 6 2 -17.6022 -0.9836
11 6 5 58.4935 -1.4225
11 6 8 -76.2981 0.0743
11 6 14 126.8709 0.4039
11 6 17 57.3365 -1.6302
11 6 20 34.7042 -1.1915
11 6 23 40.2335 1.4688
11 6 26 -27.2226 1.4895
11 6 29 -16.9706 -1.2990
11 6 32 -1.7293 -1.8166
11 6 35 -46.3992 0.5092
11 6 38 26.6551 1.4785
11 6 41 -22.2012 0.3814
11 6 44 5.9018 -1.4952
11 6 47 2.1591 -0.9273
11 6 50 -15.8991 1.3595
11 6 53 1.8449 1.1119
11 6 56 -0.8442 -1.2761
11 6 59 -11.0754 -1.5996
11 7 -59 6.8207 0.2058
11 7 -56 -4.8966 -0.8070
11 7 -53 11.1974 0.1364
11 7 -50 -7.5092 0.1408
11 7 -47 5.4535 0.0019
11 7 -44 13.0435 -0.5101
11 7 -41 10.8397 -0.1254
11 7 -38 -4.3145 0.4537
11 7 -35 -10.5484 0.5142
11 7 -32 -50.9514 -0.7423
11 7 -29 31.7259 -0.7604
11 7 -26 9.7099 0.4048
11 7 -23 -14.0833 0.6717
11 7 -20 36.6109 -0.4551
11 7 -17 -130.8651 -1.0285
11 7 -14 21.0047 0.0541
11 7 -11 156.8233 1.0781
11 7 -8 -57.3663 -0.0120
11 7 -5 197.4879 -1.4809
11 7 -2 -12.3818 -0.9411
11 7 1 25.0819 0.8844
11 7 4 138.0083 0.8743
11 7 7 24.8845 -0.9494
11 7 10 45.0135 -1.1059
11 7 13 75.9233 0.6167
11 7 16 -5.0288 1.3734
11 7 19 -18.8441 -0.3874
11 7 22 22.5670 -1.2693
11 7 25 -24.0809 0.0153
11 7 28 -84.2865 1.5219
11 7 31 -40.8204 0.4825
11 7 34 -49.1291 -1.0314
11 7 37 37.7964 -0.7076
11 7 40 14.6246 1.0075
11 7 43 2.2462 0.8489
11 7 46 1.9421 -0.7033
11 7 49 17.1320 -1.1051
11 7 52 8.3574 0.1044
11 7 55 4.1206 0.7728
11 7 58 -0.5117 0.6765
11 8 -57 0.0372 0.4809
11 8 -54 -1.4115 -0.6298
11 8 -51 -5.0891 -0.2651
11 8 -48 0.7798 0.4103
11 8 -45 -1.7200 0.3680
11 8 -42 13.9163 -0.7648
11 8 -39 -25.2033 -0.7243
11 8 -36 16.8307 0.6170
11 8 -33 1.9444 0.5348
11 8 -30 46.0963 -0.7141
11 8 -27 -1.0351 -1.0481
11 8 -24 -26.8416 0.0951
11 8 -21 16.2218 1.0114
11 8 -18 25.9269 -0.0624
11 8 -15 -61.3051 -1.4035
11 8 -12 42.8932 0.1173
11 8 -9 -39.2012 1.3657
11 8 -6 -22.3974 0.0770
11 8 -3 80.0944 -0.9256
11 8 0 -67.6628 -0.2428
11 8 3 178.4753 1.0953
11 8 6 73.8843 1.0558
11 8 9 -78.0737 -0.5849
11 8 12 58.3221 -1.1344
11 8 15 -94.3986 0.5351
11 8 18 26.0855 1.4112
11 8 21 -46.6410 -0.0230
11 8 24 39.1841 -1.1623
11 8 27 -18.6915 0.1361
11 8 30 26.4248 0.9201
11 8 33 -37.1423 0.3114
11 8 36 1.8670 -0.8904
11 8 39 4.1784 -0.9447
11 8 42 28.4742 0.6093
11 8 45 2.0550 0.8032
11 8 48 10.9720 -0.7749
11 8 51 15.6068 -0.6796
11 8 54 -20.0981 1.0665
11 8 57 4.4527 0.7353
11 9 -58 14.6494 -0.1715
11 9 -55 7.4138 -0.0672
11 9 -52 6.9261 0.0286
11 9 -49 7.3552 -0.1788
11 9 -46 -8.8422 0.1419
11 9 -43 6.1603 0.2960
11 9 -40 -7.5933 -0.2953
11 9 -37 -56.4952 -0.1306
11 9 -34 28.3909 -0.0823
11 9 -31 -39.6263 -0.0184
11 9 -28 14.9424 0.0751
11 9 -25 25.7573 -0.1884
11 9 -22 -8.1594 -0.3633
11 9 -19 -47.4313 -0.0553
11 9 -16 65.3767 0.2587
11 9 -13 -113.2031 0.1892
11 9 -10 88.8297 -0.4418
11 9 -7 96.9402 -0.4339
11 9 -4 -26.6295 0.4256
11 9 -1 110.2222 0.7220
11 9 2 39.9288 0.1398
11 9 5 105.1942 -0.3734
11 9 8 36.0686 -0.3331
11 9 11 -44.3219 0.6939
11 9 14 -24.0438 0.9453
11 9 17 -5.9488 -0.6006
11 9 20 -23.4431 -1.1692
11 9 23 -47.1846 0.5319
11 9 26 50.6159 1.5223
11 9 29 -1.4186 0.1388
11 9 32 -0.3875 -1.1860
11 9 35 -2.5931 -0.4340
11 9 38 -11.8290 0.9851
11 9 41 -5.5863 0.9170
11 9 44 -8.6210 -0.7140
11 9 47 -23.4637 -0.7670
11 9 50 10.2557 0.5052
11 9 53 -4.2294 0.9295
11 9 56 -0.0591 -0.0934
11 9 59 2.4692 -1.3836
11 10 -56 -8.7180 0.7864
11 10 -53 3.6005 -0.4105
11 10 -50 -11.5144 -1.4045
11 10 -47 9.5254 0.1672
11 10 -44 -11.5258 1.0486
11 10 -41 -9.1980 0.6638
11 10 -38 -9.8679 -1.1990
11 10 -35 19.5175 -1.3210
11 10 -32 17.5540 0.9524
11 10 -29 59.7347 1.6978
11 10 -26 -44.7810 -0.6894
11 10 -23 6.7365 -2.0712
11 10 -20 -50.1734 -0.0061
11 10 -17 -34.6846 1.7937
11 10 -14 13.3707 0.4675
11 10 -11 13.3991 -1.8772
11 10 -8 78.4981 -1.2425
11 10 -5 56.5932 1.4688
11 10 -2 29.1116 1.6412
11 10 1 137.4478 -1.0428
11 10 4 -22.7083 -2.2733
11 10 7 34.6694 0.1551
11 10 10 -93.7441 2.0655
11 10 13 -11.7998 0.0164
11 10 16 -24.7229 -2.0285
11 10 19 5.3025 -0.4746
11 10 22 -84.0990 1.4254
11 10 25 -4.9025 0.6906
11 10 28 -23.5376 -0.9957
11 10 31 24.4858 -1.1366
11 10 34 33.9990 0.3730
11 10 37 5.3866 1.0427
11 10 40 -10.9830 -0.1915
11 10 43 18.5782 -1.1713
11 10 46 1.2112 -0.0700
11 10 49 25.2400 0.5612
11 10 52 -5.0009 -0.0646
11 10 55 6.3605 0.8907
11 10 58 5.1665 0.3529
11 11 -57 2.5809 -0.4154
11 11 -54 2.7548 -0.6278
11 11 -51 -9.1854 0.3334
11 11 -48 4.3255 0.8530
11 11 -45 -6.2467 0.2885
11 11 -42 -24.9787 -0.9508
11 11 -39 8.4538 -0.3205
11 11 -36 -2.2027 0.9389
11 11 -33 -11.6467 0.7336
11 11 -30 9.1603 -0.7618
11 11 -27 -50.6106 -0.9969
11 11 -24 9.3267 0.5920
11 11 -21 18.6505 1.4874
11 11 -18 -13.6167 -0.0252
11 11 -15 0.6705 -1.4838
11 11 -12 125.8051 -0.1191
11 11 -9 88.2035 1.6521
11 11 -6 11.7509 1.1218
11 11 -3 94.8134 -1.0435
11 11 0 -7.2929 -1.2779
11 11 3 -47.3507 1.4535
11 11 6 -83.0955 2.1733
11 11 9 -105.9305 -0.1577
11 11 12 17.2540 -1.5959
11 11 15 -40.4223 0.0775
11 11 18 59.7906 1.7843
11 11 21 15.1507 0.9174
11 11 24 71.0671 -1.3146
11 11 27 -29.4712 -1.3208
11 11 30 -23.8792 0.8291
11 11 33 15.5357 1.4958
11 11 36 -10.6328 -0.6549
11 11 39 18.5134 -1.6297
11 11 42 -9.8239 0.1525
11 11 45 11.3526 0.9837
11 11 48 -5.3563 0.2202
11 11 51 -10.1276 -1.4039
11 11 54 -4.4578 -0.7200
11 11 57 -3.5597 0.4895
11 12 -55 -4.2149 -0.6651
11 12 -52 -12.7015 -0.0914
11 12 -49 -2.5802 -0.2748
11 12 -46 -2.9320 0.0935
11 12 -43 -4.5475 -0.2800
11 12 -40 0.3395 -0.2925
11 12 -37 9.2011 0.4926
11 12 -34 37.4871 0.1410
11 12 -31 6.8216 -0.3375
11 12 -28 1.3644 -0.3307
11 12 -25 29.9520 -0.0690
11 12 -22 -79.4576 0.6943
11 12 -19 -13.1666 0.2723
11 12 -16 -5.0509 -0.9412
11 12 -13 -2.4290 -0.2098
11 12 -10 88.2565 0.9685
11 12 -7 -16.4915 0.3091
11 12 -4 -73.8866 -0.8393
11 12 -1 121.6399 -0.5270
11 12 2 -36.1007 0.5153
11 12 5 -14.9342 0.7202
11 12 8 -28.2934 -0.2992
11 12 11 42.9356 -0.8286
11 12 14 71.7547 0.0074
11 12 17 26.2351 0.9262
11 12 20 -8.4706 0.3349
11 12 23 14.5036 -0.5581
11 12 26 32.2144 -0.4209
11 12 29 -58.6477 0.5689
11 12 32 -5.9249 0.4632
11 12 35 -10.9497 -0.0724
11 12 38 -0.3833 -0.2457
11 12 41 -7.9905 -0.0224
11 12 44 16.3657 0.2834
11 12 47 3.4588 0.3832
11 12 50 2.2257 -0.2396
11 12 53 9.7451 -0.6727
11 12 56 -2.1566 -0.4342
11 13 -56 -9.2294 0.4485
11 13 -53 8.4471 -0.4515
11 13 -50 -3.5442 -0.2379
11 13 -47 7.0914 0.7047
11 13 -44 -30.1474 0.8530
11 13 -41 -0.6825 -0.1981
11 13 -38 -12.1249 -1.0024
11 13 -35 11.1936 -0.0105
11 13 -32 -34.5089 1.1473
11 13 -29 -22.3370 0.4405
11 13 -26 -14.0813 -1.1951
11 13 -23 30.4058 -0.5530
11 13 -20 3.7484 1.2098
11 13 -17 65.8201 0.9434
11 13 -14 115.7400 -0.5315
11 13 -11 47.4748 -1.0026
11 13 -8 61.2159 0.1391
11 13 -5 -26.6168 1.2017
11 13 -2 -59.7800 0.5018
11 13 1 18.9061 -1.1861
11 13 4 -101.5166 -0.3931
11 13 7 -24.6428 1.2886
11 13 10 -36.9224 0.7935
11 13 13 13.1457 -0.5053
11 13 16 -64.3857 -0.8990
11 13 19 -5.0834 0.1918
11 13 22 -25.6430 0.9561
11 13 25 49.7114 -0.0076
11 13 28 48.8090 -1.0707
11 13 31 -3.0882 -0.4260
11 13 34 12.8846 0.9106
11 13 37 15.2098 0.2351
11 13 40 -1.9617 -0.7392
11 13 43 21.9690 -0.2777
11 13 46 -1.7587 0.6572
11 13 49 -0.3125 0.6010
11 13 52 5.7382 0.1934
11 13 55 -7.3173 0.4518
11 14 -54 -3.7013 -0.2739
11 14 -51 -3.3917 -0.3113
11 14 -48 0.0261 -0.4163
11 14 -45 -10.7922 0.3104
11 14 -42 1.8335 0.1157
11 14 -39 20.2374 0.0351
11 14 -36 2.3425 -0.1609
11 14 -33 6.7436 -0.0283
11 14 -30 19.8530 0.0383
11 14 -27 10.7421 0.0364
11 14 -24 -1.1717 -0.1120
11 14 -21 25.5333 -0.0310
11 14 -18 -43.1515 -0.0208
11 14 -15 31.7021 0.2388
11 14 -12 -17.2464 -0.1022
11 14 -9 -116.7327 -0.2309
11 14 -6 -42.9998 0.0696
11 14 -3 7.4115 0.1988
11 14 0 -55.9369 0.0163
11 14 3 68.5248 -0.1880
11 14 6 25.8346 -0.0658
11 14 9 35.0425 0.0560
11 14 12 86.5960 0.1904
11 14 15 -6.1753 -0.1136
11 14 18 55.0345 -0.0578
11 14 21 23.6505 0.1887
11 14 24 -46.4379 0.0534
11 14 27 -8.6719 -0.0028
11 14 30 28.5531 -0.3081
11 14 33 -13.5721 -0.2822
11 14 36 13.1355 0.4595
11 14 39 -11.5958 0.1970
11 14 42 -28.0492 -0.3264
11 14 45 11.5281 -0.1751
11 14 48 -22.1800 0.1714
11 14 51 -12.5176 0.2884
11 14 54 -3.3137 0.6717
11 15 -55 5.0388 -1.1385
11 15 -52 -2.4998 0.7819
11 15 -49 2.2262 -0.0465
11 15 -46 -11.1434 -0.1309
11 15 -43 -10.9162 -0.1793
11 15 -40 -11.7712 0.2939
11 15 -37 8.4245 0.3778
11 15 -34 -13.7855 -0.3021
11 15 -31 -20.2920 -0.3346
11 15 -28 18.5787 0.2203
11 15 -25 -29.4426 0.4649
11 15 -22 -22.9474 -0.1011
11 15 -19 63.0751 -0.4630
11 15 -16 -18.5639 0.0011
11 15 -13 65.0931 0.8801
11 15 -10 -35.6946 0.0746
11 15 -7 17.2419 -0.7756
11 15 -4 66.0365 -0.0884
11 15 -1 47.2214 0.7569
11 15 2 -68.6901 0.1469
11 15 5 -20.1184 -0.7143
11 15 8 -38.4256 -0.3839
11 15 11 -15.1223 0.8836
11 15 14 -55.5841 0.5422
11 15 17 -28.6078 -0.5869
11 15 20 40.6511 -0.7054
11 15 23 -21.5301 0.4741
11 15 26 7.4550 0.9297
11 15 29 31.1233 -0.2239
11 15 32 -6.9656 -1.1803
11 15 35 22.6545 -0.1671
11 15 38 -1.1019 1.1062
11 15 41 3.1328 0.0424
11 15 44 -0.8664 -0.9622
11 15 47 -3.9444 -0.9882
11 15 50 -12.1749 0.1775
11 15 53 11.6750 -0.1175
11 16 -53 8.1063 -0.9883
11 16 -50 -5.1653 0.2458
11 16 -47 -16.6668 0.5170
11 16 -44 -5.8334 0.2847
11 16 -41 13.0942 -0.8554
11 16 -38 -3.9891 -0.6339
11 16 -35 21.5308 0.8007
11 16 -32 -23.1215 0.7027
11 16 -29 38.1770 -0.5186
11 16 -26 22.4461 -0.9877
11 16 -23 -9.6707 0.2268
11 16 -20 35.9141 1.1547
11 16 -17 -24.9785 0.1896
11 16 -14 -0.5367 -1.1167
11 16 -11 -54.9395 -0.1519
11 16 -8 -48.8609 1.3110
11 16 -5 9.0525 0.6758
11 16 -2 -19.8906 -0.9651
11 16 1 44.1390 -0.9167
11 16 4 -21.6136 0.8242
11 16 7 43.6691 1.2039
11 16 10 18.5860 -0.1750
11 16 13 52.4773 -1.2579
11 16 16 -18.0253 -0.0141
11 16 19 76.1549 1.3618
11 16 22 31.6623 0.4607
11 16 25 11.8274 -1.1684
11 16 28 9.0525 -0.3896
11 16 31 -51.1417 1.0327
11 16 34 7.3436 0.8607
11 16 37 -29.6555 -0.6120
11 16 40 -12.5445 -0.6560
11 16 43 -12.1069 0.0245
11 16 46 0.1061 0.6968
11 16 49 2.0569 0.0508
11 16 52 -2.0427 -0.9239
11 17 -51 2.8054 0.4469
11 17 -48 -5.1305 0.7822
11 17 -45 -2.8593 0.0704
11 17 -42 6.4555 -0.6114
11 17 -39 -6.4746 0.1114
11 17 -36 -7.0871 0.5754
11 17 -33 4.6238 0.2771
11 17 -30 -4.6488 -0.8002
11 17 -27 -21.6333 -0.3171
11 17 -24 13.3263 0.7171
11 17 -21 -23.8253 0.9509
11 17 -18 -18.5106 -0.6444
11 17 -15 -19.9029 -0.8018
11 17 -12 28.9853 0.4397
11 17 -9 -4.3335 1.0577
11 17 -6 65.7400 -0.3818
11 17 -3 50.6594 -1.3068
11 17 0 -31.2683 0.0337
11 17 3 42.2354 1.2343
11 17 6 -37.8360 0.0809
11 17 9 -13.5238 -1.2794
11 17 12 43.2613 -0.5899
11 17 15 -25.3404 0.9579
11 17 18 -35.9475 0.6500
11 17 21 30.3664 -0.6832
11 17 24 -16.0676 -0.9778
11 17 27 16.0179 0.4635
11 17 30 1.3412 1.0107
11 17 33 -25.7692 -0.1250
11 17 36 -5.9365 -0.8922
11 17 39 -0.8416 0.0521
11 17 42 -13.9072 0.7944
11 17 45 10.4164 0.1272
11 17 48 -3.2515 -0.1211
11 17 51 -4.1158 0.0872
11 18 -52 -3.9716 1.1369
11 18 -49 1.0803 -1.0331
11 18 -46 -5.8824 -0.4661
11 18 -43 5.6286 0.2272
11 18 -40 -2.9958 0.5387
11 18 -37 14.4905 -0.2207
11 18 -34 -13.2392 -0.8388
11 18 -31 28.7669 0.0925
11 18 -28 -9.4515 0.7946
11 18 -25 29.8651 0.2796
11 18 -22 3.8982 -0.6349
11 18 -19 4.0673 -0.2292
11 18 -16 -36.6521 0.5412
11 18 -13 34.2263 0.5900
11 18 -10 -14.7816 -0.4484
11 18 -7 5.5996 -0.7830
11 18 -4 -35.7391 0.1765
11 18 -1 -23.5517 0.5061
11 18 2 -62.2156 0.0510
11 18 5 58.1094 -0.5902
11 18 8 2.6340 -0.2585
11 18 11 40.0806 0.7666
11 18 14 86.1300 0.4679
11 18 17 19.5291 -0.5801
11 18 20 25.0588 -0.4293
11 18 23 -9.1083 0.1943
11 18 26 -41.5328 0.2044
11 18 29 4.0805 -0.1786
11 18 32 -39.5915 -0.3733
11 18 35 -5.8656 -0.4329
11 18 38 3.2987 0.5762
11 18 41 -10.6918 0.2286
11 18 44 -2.8244 -0.7835
11 18 47 6.8730 -0.3461
11 18 50 0.5116 0.1935
11 19 -50 -5.8559 0.8653
11 19 -47 3.6025 0.1689
11 19 -44 4.4917 0.0488
11 19 -41 -8.6393 -0.4754
11 19 -38 -1.5645 -0.2705
11 19 -35 1.6521 0.4658
11 19 -32 -13.9142 0.2574
11 19 -29 4.1221 -0.3627
11 19 -26 6.6396 -0.5110
11 19 -23 -41.6099 0.2509
11 19 -20 16.7243 0.3400
11 19 -17 -17.1818 -0.0246
11 19 -14 10.2801 -0.5459
11 19 -11 -5.1740 -0.2178
11 19 -8 12.7329 0.3755
11 19 -5 5.9343 0.3616
11 19 -2 34.2281 -0.4527
11 19 1 17.2766 -0.5670
11 19 4 8.2143 0.1431
11 19 7 82.9845 0.4240
11 19 10 -24.2775 -0.1354
11 19 13 30.4474 -0.3100
11 19 16 1.8763 -0.0664
11 19 19 2.7875 0.1899
11 19 22 2.3439 0.1735
11 19 25 -31.9496 -0.0693
11 19 28 2.2295 -0.2111
11 19 31 10.1479 0.1147
11 19 34 -3.8180 0.1263
11 19 37 -1.9634 -0.0792
11 19 40 17.0835 0.2097
11 19 43 6.6024 -0.1822
11 19 46 -4.2208 -0.2945
11 19 49 0.6800 -0.2146
11 20 -48 1.3677 0.5344
11 20 -45 -10.4695 -0.5573
11 20 -42 10.8446 -0.2399
11 20 -39 -7.6120 0.1801
11 20 -36 16.1912 0.4557
11 20 -33 12.7658 -0.1480
11 20 -30 -8.8660 -0.6280
11 20 -27 15.3300 0.0948
11 20 -24 1.2491 0.5584
11 20 -21 -82.1105 0.0549
11 20 -18 52.3281 -0.7383
11 20 -15 -42.6946 -0.3779
11 20 -12 19.5126 0.2103
11 20 -9 -11.0100 0.4341
11 20 -6 -24.8322 -0.3511
11 20 -3 25.7214 -0.8082
11 20 0 -10.0695 0.0379
11 20 3 5.2706 0.8297
11 20 6 43.5140 -0.0336
11 20 9 4.3048 -0.3715
11 20 12 -10.4100 0.0378
11 20 15 3.1222 0.5274
11 20 18 -18.5181 0.2600
11 20 21 36.8961 -0.2113
11 20 24 3.4592 -0.3337
11 20 27 -34.4175 0.3630
11 20 30 19.5825 0.5557
11 20 33 -11.7504 0.3164
11 20 36 15.2046 -0.2832
11 20 39 -10.3952 0.1726
11 20 42 -0.1235 0.4009
11 20 45 -3.3216 0.2465
11 20 48 1.5654 0.9497
11 21 -49 -4.6606 -0.4508
11 21 -46 -9.0589 0.3795
11 21 -43 -3.4752 -0.1486
11 21 -40 4.4147 -0.0794
11 21 -37 -7.9594 -0.0610
11 21 -34 4.2446 -0.1120
11 21 -31 6.8034 0.2777
11 21 -28 -4.6560 -0.1533
11 21 -25 9.8221 -0.5718
11 21 -22 -46.2198 -0.1789
11 21 -19 -15.7275 0.5103
11 21 -16 17.6591 -0.0730
11 21 -13 -24.4270 -0.5612
11 21 -10 23.5715 -0.0039
11 21 -7 -17.2600 0.2064
11 21 -4 49.2853 0.3302
11 21 -1 68.9161 -0.5089
11 21 2 -23.2121 -0.4894
11 21 5 62.7468 0.4945
11 21 8 17.3457 0.4016
11 21 11 -19.0788 -0.3863
11 21 14 -9.3480 -0.5444
11 21 17 -36.3944 0.3666
11 21 20 -39.2466 0.1614
11 21 23 9.6034 0.0519
11 21 26 -10.7025 -0.2281
11 21 29 27.3115 -0.2958
11 21 32 4.6362 0.4473
11 21 35 23.0864 0.5204
11 21 38 -21.7314 -0.8187
11 21 41 16.8112 -0.5170
11 21 44 1.9916 0.5309
11 21 47 -1.8028 0.8401
11 22 -47 -8.6282 -0.6601
11 22 -44 -3.3576 0.3642
11 22 -41 -6.2959 -0.8470
11 22 -38 10.0431 0.6421
11 22 -35 -16.8582 0.3826
11 22 -32 8.2174 -0.2536
11 22 -29 10.4289 -0.3543
11 22 -26 -22.1468 0.0367
11 22 -23 -19.5825 0.3551
11 22 -20 29.7110 0.1484
11 22 -17 -9.2568 -0.3211
11 22 -14 15.3896 -0.2999
11 22 -11 -0.1870 0.1779
11 22 -8 23.6731 0.3338
11 22 -5 12.8503 -0.4018
11 22 -2 28.1162 -0.5256
11 22 1 -24.8522 0.1079
11 22 4 4.7792 0.4691
11 22 7 25.2564 0.1531
11 22 10 -34.2162 -0.5063
11 22 13 27.6556 -0.3928
11 22 16 23.5336 0.3960
11 22 19 0.9673 0.5885
11 22 22 19.8376 -0.1527
11 22 25 5.2152 -0.4543
11 22 28 -0.1286 -0.1468
11 22 31 -3.9039 -0.0442
11 22 34 -1.6527 0.3030
11 22 37 -0.8590 -0.5353
11 22 40 5.8234 -0.7318
11 22 43 -10.5390 0.9163
11 22 46 -6.3928 -0.3272
11 23 -45 -0.1190 -0.3614
11 23 -42 0.1373 0.1237
11 23 -39 -0.3448 0.2257
11 23 -36 9.0904 0.3482
11 23 -33 -11.0101 -0.7976
11 23 -30 -5.7450 -0.3868
11 23 -27 -17.6188 0.4970
11 23 -24 -19.1603 0.4287
11 23 -21 -12.8634 -0.4405
11 23 -18 60.6163 -0.7456
11 23 -15 -34.4291 0.4060
11 23 -12 36.6817 0.8137
11 23 -9 0.5408 -0.3621
11 23 -6 30.2994 -0.8382
11 23 -3 -9.4430 0.0762
11 23 0 1.6800 0.7004
11 23 3 5.7995 -0.0033
11 23 6 -2.6030 -0.8976
11 23 9 -28.6983 0.0353
11 23 12 -8.1780 0.7213
11 23 15 14.8015 0.4854
11 23 18 5.8098 -0.3882
11 23 21 -2.1929 -0.5461
11 23 24 9.0673 0.4665
11 23 27 -14.3322 1.0296
11 23 30 22.0913 -0.2184
11 23 33 -16.1354 -0.5217
11 23 36 9.0521 0.6745
11 23 39 -7.6971 0.6181
11 23 42 7.3263 0.2762
11 23 45 11.5485 -0.6711
11 24 -43 -4.0321 -0.2480
11 24 -40 15.1984 0.2192
11 24 -37 -16.0264 -0.0933
11 24 -34 1.2910 0.2130
11 24 -31 -5.5350 -0.0570
11 24 -28 -19.2096 -0.1914
11 24 -25 6.7452 0.4085
11 24 -22 -5.3529 0.0116
11 24 -19 28.4774 -0.3433
11 24 -16 17.6365 0.0330
11 24 -13 -14.8008 0.3270
11 24 -10 27.8319 -0.0408
11 24 -7 22.8090 -0.1089
11 24 -4 -29.4046 0.0110
11 24 -1 1.3641 -0.1440
11 24 2 -17.5352 0.0208
11 24 5 2.2868 -0.0652
11 24 8 -8.5813 -0.0463
11 24 11 -19.7013 0.2719
11 24 14 -4.7016 -0.1170
11 24 17 38.6801 -0.1494
11 24 20 -0.6894 -0.1655
11 24 23 17.9741 -0.0693
11 24 26 13.2237 0.1902
11 24 29 20.2664 0.2613
11 24 32 -15.1207 -0.4005
11 24 35 4.2818 0.0479
11 24 38 -5.7142 0.7783
11 24 41 13.6249 0.1062
11 24 44 -0.0900 0.5804
11 25 -44 -3.6629 1.1469
11 25 -41 5.9199 -0.3562
11 25 -38 0.3591 0.2251
11 25 -35 -8.9305 0.4408
11 25 -32 12.6443 0.1039
11 25 -29 -16.5520 -0.3483
11 25 -26 -23.1591 -0.3246
11 25 -23 25.3730 0.5723
11 25 -20 8.5582 0.4558
11 25 -17 -7.4930 -0.3776
11 25 -14 8.2605 -0.7324
11 25 -11 -30.0191 0.0137
11 25 -8 26.5897 0.7567
11 25 -5 -21.6047 0.0165
11 25 -2 -22.1062 -0.6312
11 25 1 9.5534 -0.2345
11 25 4 0.8449 0.6442
11 25 7 8.4079 0.4693
11 25 10 5.4325 -0.3693
11 25 13 -14.9625 -0.6062
11 25 16 2.5347 0.1964
11 25 19 -7.4034 0.8098
11 25 22 -19.7851 0.0961
11 25 25 0.7762 -0.5655
11 25 28 23.5570 -0.0073
11 25 31 6.8191 0.1450
11 25 34 8.1791 0.1720
11 25 37 6.3668 -0.0259
11 25 40 -2.9721 -0.1586
11 25 43 -3.6096 0.1969
11 26 -42 2.3077 0.2836
11 26 -39 2.9663 0.0457
11 26 -36 -1.8749 0.2535
11 26 -33 -12.0946 -0.0742
11 26 -30 16.5790 -0.5533
11 26 -27 -2.5958 0.2155
11 26 -24 24.0314 0.1055
11 26 -21 6.1151 0.1060
11 26 -18 1.7422 -0.0075
11 26 -15 -31.7462 -0.0694
11 26 -12 20.1440 0.2394
11 26 -9 -0.3641 0.3639
11 26 -6 -18.4767 -0.0241
11 26 -3 -13.6972 -0.4071
11 26 0 1.1615 0.3108
11 26 3 -9.1516 0.6246
11 26 6 -5.9494 -0.3158
11 26 9 -2.3040 -0.4311
11 26 12 22.6171 0.0185
11 26 15 -11.5187 0.0433
11 26 18 12.6681 -0.0118
11 26 21 -4.7201 -0.2115
11 26 24 17.7249 0.0204
11 26 27 -2.3745 0.1230
11 26 30 11.9685 -0.0205
11 26 33 -7.5270 -0.1644
11 26 36 16.9784 -0.9611
11 26 39 -5.4404 0.3607
11 26 42 4.6315 -1.0113
11 27 -40 0.7736 -0.3410
11 27 -37 -1.9472 0.2878
11 27 -34 10.9948 -0.2707
11 27 -31 -5.7784 0.5083
11 27 -28 23.9296 0.1306
11 27 -25 20.4075 -0.0177
11 27 -22 2.4743 -0.3219
11 27 -19 -2.7475 0.0234
11 27 -16 -21.7068 0.2139
11 27 -13 -5.3282 -0.2497
11 27 -10 -6.5826 -0.1020
11 27 -7 -22.5939 -0.0121
11 27 -4 -22.5645 0.2972
11 27 -1 30.4172 0.0807
11 27 2 -4.6377 -0.4105
11 27 5 2.6690 -0.0792
11 27 8 -9.0235 0.3925
11 27 11 14.3702 0.2942
11 27 14 6.3655 -0.2279
11 27 17 24.6154 -0.2674
11 27 20 -6.5345 -0.1104
11 27 23 12.1595 0.0977
11 27 26 12.1306 0.2575
11 27 29 -13.4467 -0.2964
11 27 32 -10.3266 0.0440
11 27 35 -3.4108 -0.0558
11 27 38 -0.4659 0.8099
11 28 -38 -0.7424 -0.0803
11 28 -35 2.4017 0.7030
11 28 -32 -3.5511 0.2069
11 28 -29 -7.1336 -0.1490
11 28 -26 6.8840 -0.4930
11 28 -23 -2.0853 0.6352
11 28 -20 -7.0852 0.0919
11 28 -17 -6.9325 -0.5218
11 28 -14 18.9550 -0.0446
11 28 -11 -12.3880 0.1654
11 28 -8 10.6915 0.5530
11 28 -5 7.0593 -0.0573
11 28 -2 -21.7381 -0.1626
11 28 1 14.2706 0.1085
11 28 4 -4.4447 0.4567
11 28 7 -18.7095 0.1334
11 28 10 0.3617 -0.5142
11 28 13 -3.3706 -0.0657
11 28 16 10.4909 0.6675
11 28 19 15.3218 0.4498
11 28 22 13.2744 -0.4678
11 28 25 21.5821 -0.3447
11 28 28 4.9684 0.3416
11 28 31 -5.7711 0.1752
11 28 34 -10.9627 0.5521
11 28 37 -1.7219 -0.6112
11 29 -36 -1.7098 -0.4566
11 29 -33 15.8449 0.0134
11 29 -30 5.6490 -0.3178
11 29 -27 -7.2844 0.3689
11 29 -24 -6.1221 0.6643
11 29 -21 -5.9447 -0.3180
11 29 -18 9.1382 -0.5027
11 29 -15 -15.4769 -0.0084
11 29 -12 13.9441 0.5364
11 29 -9 -12.7530 -0.0856
11 29 -6 -1.0478 -0.5144
11 29 -3 -14.7925 -0.1421
11 29 0 -6.7115 0.3629
11 29 3 9.6969 0.2991
11 29 6 -0.4125 -0.1387
11 29 9 4.3048 -0.4094
11 29 12 23.4656 -0.2753
11 29 15 -3.0151 0.3919
11 29 18 21.0868 0.0819
11 29 21 12.7692 -0.3729
11 29 24 4.8836 -0.3986
11 29 27 -4.3663 0.8182
11 29 30 18.5751 -0.5835
11 29 33 -11.2922 0.1518
11 29 36 3.8485 -0.6487
11 30 -34 -0.5632 0.0416
11 30 -31 -13.7247 0.5628
11 30 -28 3.0800 0.4224
11 30 -25 4.5417 -0.5514
11 30 -22 -3.0256 -0.2249
11 30 -19 4.4579 -0.2627
11 30 -16 -12.8617 0.5371
11 30 -13 5.0395 -0.3408
11 30 -10 3.4850 -0.3071
11 30 -7 9.9994 0.2495
11 30 -4 -8.0608 0.4352
11 30 -1 22.8898 -0.1184
11 30 2 -15.2291 -0.3401
11 30 5 13.4386 0.0949
11 30 8 5.0705 0.4887
11 30 11 15.8492 -0.1630
11 30 14 3.1827 -0.6574
11 30 17 -6.0314 0.0182
11 30 20 -3.1111 0.8525
11 30 23 1.8350 -0.2429
11 30 26 -10.5747 0.4040
11 30 29 -5.9992 -0.4172
11 30 32 -3.4064 -0.0055
11 30 35 -1.3199 0.7422
11 31 -32 9.1526 -0.8962
11 31 -29 0.3168 -0.1405
11 31 -26 21.4636 -0.3519
11 31 -23 -6.2354 0.0787
11 31 -20 0.5311 0.2789
11 31 -17 7.7598 -0.3325
11 31 -14 -7.1902 -0.7613
11 31 -11 -4.4031 0.0336
11 31 -8 -2.1894 0.4885
11 31 -5 -20.9130 0.2528
11 31 -2 12.5123 -0.4687
11 31 1 -0.7108 -0.3281
11 31 4 -5.2213 0.1123
11 31 7 9.6440 0.0931
11 31 10 1.6920 0.0886
11 31 13 12.4933 -0.3838
11 31 16 15.2406 -0.3097
11 31 19 10.4269 0.5468
11 31 22 6.0483 -0.6584
11 31 25 -0.5515 -0.3306
11 31 28 -15.0329 0.0387
11 31 31 8.2539 -0.3985
11 32 -30 -6.9156 0.9973
11 32 -27 -7.8642 -0.1810
11 32 -24 -1.4880 0.1746
11 32 -21 -12.2994 -0.0169
11 32 -18 0.8535 -0.2120
11 32 -15 -31.4495 0.1075
11 32 -12 7.1429 0.1872
11 32 -9 2.1824 -0.5472
11 32 -6 -8.1007 -0.5254
11 32 -3 17.8659 0.5172
11 32 0 4.3856 0.2441
11 32 3 10.1035 -0.8499
11 32 6 0.5807 -0.7498
11 32 9 -6.6983 0.5340
11 32 12 7.1711 -0.0722
11 32 15 -8.8620 -0.3734
11 32 18 -7.1378 -0.1080
11 32 21 -5.2362 0.0195
11 32 24 1.5152 0.2451
11 32 27 -0.7620 0.0698
11 32 30 1.6474 -0.9639
11 33 -25 5.0260 -0.2898
11 33 -22 1.9811 -0.4535
11 33 -19 -0.2331 0.0299
11 33 -16 -14.0124 0.0381
11 33 -13 9.8724 -0.1719
11 33 -10 12.4366 -0.2879
11 33 -7 -10.0064 0.4333
11 33 -4 -7.0376 0.1150
11 33 -1 7.6491 -0.5704
11 33 2 -10.7038 -0.4050
11 33 5 3.0436 0.5129
11 33 8 -5.7534 1.2153
11 33 11 -5.4894 0.0149
11 33 14 8.1023 -0.2216
11 33 17 -6.6065 0.0931
11 33 20 6.6726 0.3342
11 33 23 13.4877 0.4420
11 33 26 -0.7775 -0.9479
11 34 -23 -4.1917 -0.4210
11 34 -20 -16.1895 -0.0857
11 34 -17 4.0684 -0.2557
11 34 -14 5.4924 -0.0079
11 34 -11 3.5712 1.1410
11 34 -8 3.8688 0.5567
11 34 -5 3.4371 -0.4273
11 34 -2 6.0081 -0.7049
11 34 1 -7.0652 0.5950
11 34 4 -4.3322 0.4151
11 34 7 4.8929 -1.2389
11 34 10 1.4520 -0.9951
11 34 13 1.3115 0.0039
11 34 16 -4.5696 0.2537
11 34 19 -7.2763 -0.8973
11 34 22 -2.5554 0.6237
11 35 -18 6.4286 0.6315
11 35 -15 17.4247 -0.3190
11 35 -12 6.0329 0.3593
11 35 -9 -2.7790 -0.1652
11 35 -6 -1.9386 -0.6849
11 35 -3 -5.7322 -0.2826
11 35 0 -10.3934 0.5520
11 35 3 -7.6208 -0.0223
11 35 6 -14.6603 -0.1926
11 35 9 5.7259 0.1945
11 35 12 -4.3326 0.3287
11 35 15 -10.4260 1.5080
11 35 18 6.3643 -1.1393
11 36 -13 5.3671 0.1708
11 36 -10 -4.1725 0.5859
11 36 -7 -0.5199 0.5679
11 36 -4 -2.4841 -0.2985
11 36 -1 9.0978 -0.6215
11 36 2 0.5297 0.6279
11 36 5 -5.1047 0.6712
11 36 8 7.9754 -0.9208
11 36 11 0.8629 -0.9646
11 36 14 2.0830 0.6574
11 37 -5 -1.4126 -0.2126
11 37 -2 -6.9430 -0.4115
11 37 1 0.1558 0.2339
11 37 4 -2.7906 0.3772
12 1 -61 1.7241 -1.2307
12 1 -58 -1.0758 -0.8105
12 1 -55 -15.8269 1.4680
12 1 -52 9.5653 1.7609
12 1 -49 -10.2068 -1.8274
12 1 -46 11.2654 -2.3113
12 1 -43 -10.0867 1.1637
12 1 -40 5.4859 2.8737
12 1 -37 13.1975 -0.3865
12 1 -34 6.4816 -2.7390
12 1 -31 3.9790 -0.9643
12 1 -28 25.9529 2.0636
12 1 -25 -7.3446 2.2878
12 1 -22 38.9406 -1.8031
12 1 -19 32.1937 -3.6765
12 1 -16 19.7525 1.1147
12 1 -13 -7.8967 3.1851
12 1 -10 -186.8616 -1.4513
12 1 -7 15.7804 -3.3244
12 1 -4 -39.2500 -0.6786
12 1 -1 -16.6710 1.6463
12 1 2 68.0119 1.5962
12 1 5 -1.5486 -1.4360
12 1 8 247.6835 -2.7550
12 1 11 142.9305 1.0010
12 1 14 87.4155 2.7255
12 1 17 -11.0103 0.2745
12 1 20 14.7541 -0.4782
12 1 23 24.4651 0.0431
12 1 26 -16.8420 0.7526
12 1 29 -16.6336 1.2715
12 1 32 8.7898 -0.1550
12 1 35 -19.1000 -1.2686
12 1 38 -29.1133 -0.1486
12 1 41 2.9970 0.9730
12 1 44 -5.0597 0.7786
12 1 47 -0.1149 -0.2938
12 1 50 -8.0695 -1.0625
12 1 53 -8.7325 -0.4128
12 1 56 6.8079 0.2188
12 1 59 -6.2016 0.4854
12 2 -59 -8.1279 -1.5382
12 2 -56 1.3754 -0.4126
12 2 -53 -1.1988 0.6705
12 2 -50 2.2562 0.4481
12 2 -47 4.2945 -0.8415
12 2 -44 5.6699 -0.4450
12 2 -41 3.6629 0.8418
12 2 -38 21.4125 1.0590
12 2 -35 -44.6442 -0.4427
12 2 -32 -2.2502 -1.6850
12 2 -29 -59.1514 0.2799
12 2 -26 -34.4994 2.0188
12 2 -23 1.6050 0.1170
12 2 -20 -76.4407 -1.9339
12 2 -17 -101.1580 -0.8858
12 2 -14 -35.4365 1.2527
12 2 -11 -114.3846 1.5479
12 2 -8 198.0440 -1.1503
12 2 -5 20.7090 -2.6885
12 2 -2 108.4884 0.4247
12 2 1 236.4199 3.0684
12 2 4 49.0348 0.7419
12 2 7 17.4145 -2.4827
12 2 10 73.9146 -1.5976
12 2 13 -111.9823 1.6440
12 2 16 149.0980 2.0029
12 2 19 -69.7552 -1.7121
12 2 22 -15.1086 -2.9387
12 2 25 -58.0842 0.9175
12 2 28 -58.3410 2.6996
12 2 31 -54.9178 0.1150
12 2 34 43.1820 -2.3221
12 2 37 -8.2062 -1.1519
12 2 40 53.5072 1.8573
12 2 43 -33.1395 1.8751
12 2 46 29.1143 -1.0594
12 2 49 -2.5247 -1.7436
12 2 52 8.1299 1.0555
12 2 55 1.7438 1.7059
12 2 58 6.2444 0.3572
12 2 61 0.9891 -1.7975
12 3 -60 -7.9250 0.8419
12 3 -57 6.8619 -0.7667
12 3 -54 -2.7234 -0.1526
12 3 -51 20.2120 0.9982
12 3 -48 -0.9175 0.9714
12 3 -45 17.2519 -1.0098
12 3 -42 13.3880 -1.4745
12 3 -39 -33.9861 0.5403
12 3 -36 9.0150 1.8365
12 3 -33 24.2164 -0.6342
12 3 -30 -37.0681 -2.3430
12 3 -27 22.9141 -0.5692
12 3 -24 25.1401 2.2066
12 3 -21 -34.1487 0.5753
12 3 -18 85.0638 -2.9072
12 3 -15 -5.5671 -1.8678
12 3 -12 -32.8403 2.5216
12 3 -9 198.3536 2.4432
12 3 -6 18.1070 -2.1698
12 3 -3 -39.3593 -3.3691
12 3 0 122.5243 0.8440
12 3 3 102.0714 3.4984
12 3 6 -129.4115 0.0532
12 3 9 303.5887 -3.2997
12 3 12 -326.7205 -0.5256
12 3 15 119.2220 3.6035
12 3 18 21.9007 1.9686
12 3 21 -58.0999 -2.4157
12 3 24 32.9762 -2.3114
12 3 27 64.7853 1.8697
12 3 30 -33.9493 3.1927
12 3 33 8.9275 -0.7021
12 3 36 -4.2606 -3.0436
12 3 39 -16.4606 -0.3625
12 3 42 26.1542 2.2918
12 3 45 0.3690 0.6124
12 3 48 13.6543 -1.6266
12 3 51 -1.1111 -1.1664
12 3 54 -0.1322 1.0501
12 3 57 8.9782 2.0222
12 3 60 -2.3789 -0.1839
12 4 -61 -0.9713 -0.7905
12 4 -58 12.3329 1.2935
12 4 -55 7.3228 1.7371
12 4 -52 4.4020 -0.4645
12 4 -49 -0.5622 -1.9458
12 4 -46 -4.3630 0.4047
12 4 -43 -5.8875 2.2019
12 4 -40 -25.2106 0.6387
12 4 -37 -2.5991 -2.2638
12 4 -34 -32.8404 -1.1342
12 4 -31 -37.8013 2.1293
12 4 -28 -13.1948 1.5913
12 4 -25 -5.7895 -1.4813
12 4 -22 -94.0502 -2.3213
12 4 -19 24.3884 0.6870
12 4 -16 -56.2845 2.9563
12 4 -13 6.6800 -0.1769
12 4 -10 43.6896 -2.7439
12 4 -7 -58.2335 0.0647
12 4 -4 158.8443 3.1771
12 4 -1 9.2277 1.0995
12 4 2 239.2270 -1.9124
12 4 5 16.9760 -1.2131
12 4 8 86.6606 1.8284
12 4 11 -131.0162 2.3244
12 4 14 -114.6056 -0.8723
12 4 17 -33.0869 -2.1008
12 4 20 1.3588 1.0242
12 4 23 -15.7865 2.3070
12 4 26 11.9998 -0.3701
12 4 29 38.5888 -1.9478
12 4 32 -12.6258 0.1044
12 4 35 55.0467 1.7785
12 4 38 -27.9354 0.4082
12 4 41 29.2558 -1.3979
12 4 44 9.8603 -0.6786
12 4 47 0.2810 1.3773
12 4 50 4.7336 0.5982
12 4 53 6.7753 -1.2491
12 4 56 -1.7337 -1.0887
12 4 59 -12.8681 1.8658
12 5 -59 -4.1226 -0.3000
12 5 -56 4.1940 0.9821
12 5 -53 -0.8278 0.2250
12 5 -50 -2.8508 -0.4483
12 5 -47 20.1556 0.3206
12 5 -44 -29.1124 0.7863
12 5 -41 12.5442 0.1358
12 5 -38 -15.5076 -0.7929
12 5 -35 -49.4962 -0.8574
12 5 -32 -8.8050 0.7807
12 5 -29 -6.8175 0.9739
12 5 -26 -37.8025 -0.7621
12 5 -23 18.2284 -1.8460
12 5 -20 -43.6451 0.0984
12 5 -17 26.5615 1.8116
12 5 -14 165.0265 -0.0419
12 5 -11 23.0078 -2.2558
12 5 -8 6.4610 -1.1614
12 5 -5 158.5182 1.6971
12 5 -2 -3.8342 1.8758
12 5 1 -18.1515 -1.3893
12 5 4 -94.8128 -2.4703
12 5 7 -28.6320 0.5130
12 5 10 50.7199 2.7834
12 5 13 -3.0788 0.1476
12 5 16 -45.8725 -2.4093
12 5 19 24.0743 -0.8077
12 5 22 -48.8689 2.3072
12 5 25 -31.7121 1.4211
12 5 28 65.8806 -1.7810
12 5 31 42.8765 -1.5921
12 5 34 40.6416 0.7463
12 5 37 -11.9498 1.7777
12 5 40 -1.5637 0.1570
12 5 43 -12.4157 -1.5230
12 5 46 17.8543 -0.6376
12 5 49 -16.7602 1.5090
12 5 52 8.6729 0.9878
12 5 55 2.8978 -0.8905
12 5 58 3.5781 -1.6407
12 6 -60 -16.3914 0.6827
12 6 -57 10.3023 -0.7114
12 6 -54 -13.8956 -0.0949
12 6 -51 8.1836 1.1408
12 6 -48 -6.3720 0.3818
12 6 -45 -7.5609 -1.1851
12 6 -42 -19.3705 -0.6004
12 6 -39 -22.8908 1.1565
12 6 -36 -23.7395 0.7511
12 6 -33 -6.7961 -0.9145
12 6 -30 -34.4261 -0.8520
12 6 -27 19.2210 0.7646
12 6 -24 -13.4084 1.3421
12 6 -21 40.2716 0.1047
12 6 -18 25.1662 -1.2421
12 6 -15 120.9226 -0.3537
12 6 -12 -11.6264 1.6946
12 6 -9 -29.3771 1.0117
12 6 -6 24.6413 -1.0993
12 6 0 -40.6426 1.0496
12 6 3 78.0305 1.1130
12 6 6 -70.4902 -0.6079
12 6 9 81.4544 -1.1312
12 6 12 -79.7759 0.0236
12 6 15 -42.9100 1.1779
12 6 18 -1.7575 -0.0413
12 6 21 -13.8324 -0.8023
12 6 24 -3.5648 0.0775
12 6 27 -25.7533 0.4865
12 6 30 18.1263 -0.0856
12 6 33 -1.9782 -0.4448
12 6 36 52.4167 -0.3310
12 6 39 15.4427 0.2231
12 6 42 5.1726 0.3654
12 6 45 -1.2356 -0.2596
12 6 48 15.8222 -0.1171
12 6 51 -14.6240 0.0728
12 6 54 -2.1815 0.5108
12 6 57 3.0066 -0.6750
12 6 60 -8.4517 0.7600
12 7 -58 6.6974 0.6770
12 7 -55 -2.3798 0.0688
12 7 -52 -0.7282 -0.9741
12 7 -49 -0.8465 -0.4789
12 7 -46 -7.0426 0.9095
12 7 -43 9.5827 0.9499
12 7 -40 -19.2444 -0.4342
12 7 -37 2.5906 -1.1455
12 7 -34 -24.7703 0.3729
12 7 -31 -11.0205 1.3551
12 7 -28 1.9512 0.2131
12 7 -25 -3.3399 -1.2528
12 7 -22 3.9437 -0.6414
12 7 -19 106.8490 1.1573
12 7 -16 -29.5019 1.1284
12 7 -13 -61.5908 -0.7293
12 7 -10 -32.5951 -1.3343
12 7 -7 -38.4690 0.1989
12 7 -4 51.6748 1.4988
12 7 -1 -22.4757 0.1085
12 7 2 -12.4730 -1.5101
12 7 5 32.1741 -0.4631
12 7 8 -147.4967 1.5677
12 7 11 64.1278 0.9943
12 7 14 -7.2838 -0.9958
12 7 17 55.6870 -0.9988
12 7 20 70.1427 0.7926
12 7 23 70.9916 1.3368
12 7 26 17.3009 -0.2507
12 7 29 77.8471 -1.3317
12 7 32 -44.6116 0.2712
12 7 35 19.9318 1.1085
12 7 38 -2.1007 0.1401
12 7 41 6.4215 -0.7634
12 7 44 -12.0862 -0.6542
12 7 47 4.0649 0.6412
12 7 50 -5.5267 0.2979
12 7 53 -8.8140 -0.4725
12 7 56 10.9448 -0.9223
12 7 59 -1.5886 1.6223
12 8 -59 -5.2838 -0.1279
12 8 -56 2.5341 -0.1081
12 8 -53 -9.6998 -0.1671
12 8 -50 -12.8695 -0.1253
12 8 -47 -6.6530 0.3594
12 8 -44 -33.3486 0.2461
12 8 -41 -11.5602 -0.1563
12 8 -38 -46.2054 -0.0064
12 8 -35 -29.2870 0.1594
12 8 -32 11.7678 0.4418
12 8 -29 38.5414 0.1543
12 8 -26 -28.2055 -0.3693
12 8 -23 118.9398 -0.2142
12 8 -20 -23.2378 0.3866
12 8 -17 64.0983 0.3822
12 8 -14 -81.5110 0.0927
12 8 -11 -64.9443 -0.4298
12 8 -8 27.8355 -0.3199
12 8 -5 -17.1230 0.4757
12 8 -2 -31.6541 0.2462
12 8 1 -40.5807 -0.6645
12 8 4 111.9471 -1.0433
12 8 7 -54.6296 0.1299
12 8 10 -55.3374 0.6671
12 8 13 -68.7546 -0.2870
12 8 16 -48.0797 -1.0240
12 8 19 -1.9185 -0.5767
12 8 22 7.0341 0.4920
12 8 25 27.0676 0.9021
12 8 28 73.9237 -0.2431
12 8 31 -5.1207 -1.1005
12 8 34 -38.4961 -0.1455
12 8 37 13.3401 1.4100
12 8 40 -0.1958 0.4247
12 8 43 0.2780 -0.7774
12 8 46 -6.1681 -0.4732
12 8 49 17.1721 0.8498
12 8 52 8.1963 0.6762
12 8 55 10.4840 -0.1426
12 8 58 5.8700 -1.5987
12 9 -57 20.4136 -0.8754
12 9 -54 -6.9312 0.2264
12 9 -51 17.8815 0.1698
12 9 -48 -11.3611 -0.2278
12 9 -45 20.7407 -0.0112
12 9 -42 -18.6994 0.2690
12 9 -39 14.3124 0.1216
12 9 -36 -9.1917 -0.2728
12 9 -33 32.3362 0.0035
12 9 -30 18.4391 0.5680
12 9 -27 -22.2383 0.1637
12 9 -24 35.8258 -0.7469
12 9 -21 47.2668 -0.4768
12 9 -18 -72.1405 0.4719
12 9 -15 -35.9735 0.7619
12 9 -12 -109.7376 -0.4737
12 9 -9 45.7742 -1.0214
12 9 -6 20.2734 0.1166
12 9 -3 46.8869 0.9883
12 9 0 -89.3068 -0.0161
12 9 3 77.1959 -1.3746
12 9 6 -86.1686 -0.3202
12 9 9 -7.2845 1.0920
12 9 12 -63.0285 0.5237
12 9 15 81.8284 -0.6433
12 9 18 44.2437 -0.7525
12 9 21 40.1114 0.3914
12 9 24 27.2734 0.9185
12 9 27 58.3739 -0.0851
12 9 30 69.9110 -1.0337
12 9 33 -10.8754 -0.1207
12 9 36 9.5635 0.8462
12 9 39 -34.5502 0.4881
12 9 42 -4.0075 -0.4512
12 9 45 -25.3154 -0.3924
12 9 48 4.6527 0.5060
12 9 51 -9.0378 0.5967
12 9 54 -5.3920 0.0832
12 9 57 4.3294 -0.5361
12 10 -58 -4.4964 -1.6755
12 10 -55 -0.8273 -0.2587
12 10 -52 -5.0017 -0.9619
12 10 -49 -14.4145 0.3854
12 10 -46 1.8948 0.7350
12 10 -43 -6.9270 -0.4328
12 10 -40 -22.5134 -0.6645
12 10 -37 10.6967 0.1561
12 10 -34 -25.9824 0.8247
12 10 -31 34.5535 0.3213
12 10 -28 28.1622 -0.9276
12 10 -25 10.8665 -0.5567
12 10 -22 36.9928 0.6300
12 10 -19 -37.8354 0.7649
12 10 -16 -93.5339 -0.5654
12 10 -13 -7.8749 -0.8769
12 10 -10 44.9942 0.0860
12 10 -7 -33.2278 0.6596
12 10 -4 27.3321 0.1644
12 10 -1 -60.9020 -1.0164
12 10 2 -36.0371 -0.6102
12 10 5 26.6811 0.6265
12 10 8 9.5551 0.6191
12 10 11 22.8083 -0.5635
12 10 14 117.6274 -1.0489
12 10 17 15.5416 0.0375
12 10 20 30.7111 0.7270
12 10 23 28.6704 -0.0845
12 10 26 -65.3342 -0.8033
12 10 29 -18.7781 -0.2147
12 10 32 12.1614 0.6084
12 10 35 -11.7097 0.0635
12 10 38 13.0085 -0.5081
12 10 41 6.3339 -0.4831
12 10 44 -7.8351 -0.0755
12 10 47 7.9527 0.3568
12 10 50 25.9896 -0.3013
12 10 53 -5.2397 -0.6603
12 10 56 16.2295 1.0742
12 11 -56 3.9781 -0.4678
12 11 -53 3.5056 -0.2686
12 11 -50 1.9063 0.5845
12 11 -47 14.3385 0.7897
12 11 -44 -1.6504 -0.4822
12 11 -41 11.1475 -0.8557
12 11 -38 -8.9273 0.0813
12 11 -35 32.3040 0.8209
12 11 -32 19.9408 0.1118
12 11 -29 -5.5812 -1.0041
12 11 -26 -42.2048 -0.5303
12 11 -23 51.2525 1.0315
12 11 -20 -130.2549 0.3240
12 11 -17 31.9355 -1.0119
12 11 -14 -21.5429 -0.5511
12 11 -11 46.4481 0.8367
12 11 -8 53.1254 0.5958
12 11 -5 -43.4645 -0.4073
12 11 -2 2.7104 -1.1067
12 11 1 57.6695 -0.0715
12 11 4 -69.9441 1.0666
12 11 7 17.7356 0.0762
12 11 10 3.7587 -0.9783
12 11 13 36.7448 -0.1138
12 11 16 8.5003 0.9139
12 11 19 -4.5490 0.3228
12 11 22 28.7124 -0.7109
12 11 25 36.6716 -0.4046
12 11 28 -68.0420 0.7635
12 11 31 29.2364 0.6952
12 11 34 -22.3619 -0.3869
12 11 37 3.2813 -0.3888
12 11 40 19.8840 0.3639
12 11 43 -1.5805 0.5895
12 11 46 -9.8089 -0.3908
12 11 49 30.9416 -0.7945
12 11 52 -20.3969 0.1514
12 11 55 -7.0939 0.8347
12 12 -54 -10.4746 0.0702
12 12 -51 7.7810 0.1328
12 12 -48 -8.6769 -0.6735
12 12 -45 3.0521 -0.0776
12 12 -42 -12.4208 0.6257
12 12 -39 1.6634 0.1912
12 12 -36 -6.5520 -0.5122
12 12 -33 24.5764 -0.4964
12 12 -30 -25.6904 0.3213
12 12 -27 18.6530 0.3752
12 12 -24 58.1596 -0.1869
12 12 -21 -42.2458 -0.6067
12 12 -18 -38.4848 -0.0111
12 12 -15 48.4834 0.4821
12 12 -12 -61.6129 -0.1412
12 12 -9 37.5600 -0.5637
12 12 -6 -85.6856 -0.1561
12 12 -3 -112.7158 0.1343
12 12 0 26.4467 0.3803
12 12 3 46.1043 0.0752
12 12 6 21.8190 -0.5414
12 12 9 78.8352 -0.1995
12 12 12 24.7786 0.5075
12 12 15 49.3935 0.2556
12 12 18 13.5419 -0.3221
12 12 21 -23.1086 -0.2190
12 12 24 62.2040 -0.0330
12 12 27 -15.7662 0.2899
12 12 30 -21.6535 0.1963
12 12 33 -23.1323 -0.0741
12 12 36 7.9781 -0.1879
12 12 39 -4.9352 0.0577
12 12 42 11.6812 0.3848
12 12 45 0.4107 0.4571
12 12 48 5.7302 -0.2767
12 12 51 1.6144 0.1067
12 12 54 -11.0407 0.3511
12 13 -55 6.4868 0.1123
12 13 -52 7.2624 -0.5600
12 13 -49 10.4508 -0.2112
12 13 -46 16.2046 0.4633
12 13 -43 -1.5483 0.2434
12 13 -40 9.0923 -0.4794
12 13 -37 7.6960 -0.4876
12 13 -34 8.0325 0.2118
12 13 -31 -4.7668 0.8693
12 13 -28 26.1033 -0.3051
12 13 -25 -76.2111 -0.7255
12 13 -22 -1.2117 -0.0500
12 13 -19 -57.2980 0.9237
12 13 -16 -4.3483 0.5699
12 13 -13 -2.7942 -0.7643
12 13 -10 10.8467 -0.8100
12 13 -7 -23.6136 0.4726
12 13 -4 29.6742 0.9118
12 13 -1 40.6911 -0.3652
12 13 2 89.2965 -1.0920
12 13 5 71.4157 0.1525
12 13 8 -2.2332 1.0749
12 13 11 -5.1914 0.0196
12 13 14 11.1040 -0.9920
12 13 17 -34.0053 -0.5219
12 13 20 -73.2264 0.6924
12 13 23 -43.8952 0.5909
12 13 26 0.9317 -0.6064
12 13 29 13.3895 -0.7973
12 13 32 21.5070 0.2329
12 13 35 -2.5021 0.6910
12 13 38 5.3822 -0.2272
12 13 41 -12.7345 -0.5266
12 13 44 17.7177 0.3290
12 13 47 -9.2807 0.5586
12 13 50 10.8594 0.0693
12 13 53 10.3046 -0.0729
12 13 56 5.0182 0.3375
12 14 -53 -1.0794 1.3679
12 14 -50 2.5018 0.2396
12 14 -47 -7.3705 0.2629
12 14 -44 -11.6936 -0.5916
12 14 -41 9.5232 -0.5104
12 14 -38 -23.7414 0.0931
12 14 -35 18.5805 0.6756
12 14 -32 -47.1190 0.0628
12 14 -29 12.1371 -0.6858
12 14 -26 -9.7620 -0.4414
12 14 -23 0.0707 0.6238
12 14 -20 46.8468 0.4492
12 14 -17 5.6032 -0.2362
12 14 -14 -18.7222 -0.7136
12 14 -11 -24.8663 -0.2054
12 14 -8 -13.1463 0.8804
12 14 -5 -35.7775 0.4675
12 14 -2 9.3372 -0.7673
12 14 1 6.5466 -0.6721
12 14 4 -23.8516 0.4227
12 14 7 3.4327 0.6526
12 14 10 4.9466 -0.1998
12 14 13 -42.9100 -0.6366
12 14 16 40.9447 -0.3631
12 14 19 30.0202 0.5336
12 14 22 -13.3704 0.6237
12 14 25 44.9245 -0.6256
12 14 28 -31.1053 -0.7895
12 14 31 32.3857 0.2609
12 14 34 -0.0224 0.6211
12 14 37 -5.9227 0.2109
12 14 40 -4.4375 -0.5173
12 14 43 5.8907 -0.7650
12 14 46 -19.1786 0.2564
12 14 49 4.6972 0.1905
12 14 52 2.8771 -0.2486
12 14 55 -8.6874 0.0306
12 15 -54 7.2857 -1.1116
12 15 -51 -0.1283 -0.7483
12 15 -48 -3.0657 -0.0783
12 15 -45 6.6558 0.8016
12 15 -42 13.7455 0.0499
12 15 -39 -5.9064 -0.3707
12 15 -36 5.4831 -0.1376
12 15 -33 14.3623 0.4979
12 15 -30 -25.9292 0.5185
12 15 -27 10.1269 -0.2162
12 15 -24 -64.7976 -0.3007
12 15 -21 -33.2765 0.3082
12 15 -18 -45.3581 0.5194
12 15 -15 -27.1394 -0.1696
12 15 -12 -6.8202 -0.4166
12 15 -9 -3.1115 0.0757
12 15 -6 68.4183 0.5114
12 15 -3 70.5873 0.1857
12 15 0 109.9904 -0.2931
12 15 3 59.1081 -0.1660
12 15 6 -66.5772 0.3941
12 15 9 40.9697 0.3616
12 15 12 -62.3705 -0.4224
12 15 15 -39.4254 -0.2259
12 15 18 32.8289 0.1807
12 15 21 -39.9553 0.2703
12 15 24 8.3637 -0.1046
12 15 27 6.3214 -0.2546
12 15 30 -47.7349 0.1316
12 15 33 30.7993 0.4814
12 15 36 0.1779 0.0272
12 15 39 -22.8184 -0.6278
12 15 42 19.3218 -0.0821
12 15 45 11.5524 0.8832
12 15 48 -6.5816 0.2787
12 15 51 18.9777 -1.2581
12 15 54 -6.4335 -0.9383
12 16 -52 -6.8855 -0.4566
12 16 -49 -1.5249 0.5475
12 16 -46 -5.7081 0.0326
12 16 -43 -14.8142 0.3360
12 16 -40 -2.1393 -0.2463
12 16 -37 -23.0873 -0.0767
12 16 -34 -9.9112 0.2485
12 16 -31 -14.7846 -0.0590
12 16 -28 3.3908 0.1082
12 16 -25 -31.4602 0.1102
12 16 -22 89.2179 -0.2132
12 16 -19 -39.2519 -0.2692
12 16 -16 39.2623 0.1179
12 16 -13 61.6408 0.1329
12 16 -10 10.8476 -0.1199
12 16 -7 19.8567 -0.2010
12 16 -4 44.4522 -0.1572
12 16 -1 -89.9026 0.2400
12 16 2 20.0614 0.0932
12 16 5 -112.8724 -0.3330
12 16 8 -43.1726 -0.3240
12 16 11 30.9918 0.2559
12 16 14 -36.4776 0.5188
12 16 17 -40.1356 -0.0676
12 16 20 42.4841 -0.2752
12 16 23 -19.9047 0.0840
12 16 26 73.3906 0.3482
12 16 29 -37.8311 0.1586
12 16 32 10.6076 -0.1847
12 16 35 2.4174 -0.1458
12 16 38 1.8556 0.1537
12 16 41 -15.0323 0.4163
12 16 44 26.8365 0.2350
12 16 47 -16.0661 0.1806
12 16 50 6.0291 0.1229
12 16 53 -10.3099 0.0539
12 17 -50 9.4953 -0.0550
12 17 -47 1.6906 -0.3477
12 17 -44 -1.5786 -0.4559
12 17 -41 -6.8707 -0.0608
12 17 -38 0.6124 0.2561
12 17 -35 -11.2844 0.3267
12 17 -32 -5.0264 -0.4326
12 17 -29 1.2257 -0.1298
12 17 -26 -7.5706 0.4868
12 17 -23 25.9559 0.3181
12 17 -20 -16.3419 -0.2086
12 17 -17 -66.1820 -0.5102
12 17 -14 37.1970 0.1734
12 17 -11 -21.1013 0.5451
12 17 -8 10.1681 0.1628
12 17 -5 -16.2887 -0.4860
12 17 -2 -1.5724 -0.0294
12 17 1 46.1691 0.5771
12 17 4 26.4979 0.0344
12 17 7 -9.9737 -0.2572
12 17 10 71.4259 -0.1253
12 17 13 22.2318 0.1509
12 17 16 -20.5552 0.2103
12 17 19 10.7398 -0.0843
12 17 22 -59.7971 -0.3536
12 17 25 11.1560 0.1241
12 17 28 -20.6176 0.0467
12 17 31 6.9410 -0.1884
12 17 34 -8.2944 -0.4325
12 17 37 19.6339 0.1291
12 17 40 -5.4107 -0.0991
12 17 43 13.0068 -0.4108
12 17 46 5.8978 -0.4573
12 17 49 -3.9233 0.3034
12 17 52 6.4130 1.0981
12 18 -51 -0.3876 0.9774
12 18 -48 -0.6606 -0.4970
12 18 -45 -7.8938 0.1287
12 18 -42 -19.3237 -0.1888
12 18 -39 -10.0555 -0.1633
12 18 -36 -3.7907 -0.0825
12 18 -33 -7.2331 0.2499
12 18 -30 -15.2199 0.3082
12 18 -27 25.4538 -0.0946
12 18 -24 6.3344 -0.1000
12 18 -21 32.5528 0.0268
12 18 -18 38.4266 0.3391
12 18 -15 34.9363 0.3014
12 18 -12 48.6171 -0.2569
12 18 -9 10.1272 -0.3704
12 18 -6 17.2776 0.6327
12 18 -3 -42.7700 0.7434
12 18 0 -12.9571 -0.5206
12 18 3 -52.2254 -0.8940
12 18 6 -58.1523 -0.0334
12 18 9 3.9330 0.8168
12 18 12 -25.2203 0.2818
12 18 15 -25.9226 -0.6767
12 18 18 28.7378 -0.5154
12 18 21 -18.7079 0.6170
12 18 24 -7.6792 0.5386
12 18 27 31.8277 -0.5321
12 18 30 -2.8640 -0.7256
12 18 33 4.6469 -0.0556
12 18 36 18.4475 0.9132
12 18 39 10.4583 0.1258
12 18 42 -9.8042 -0.9118
12 18 45 9.4142 -0.4515
12 18 48 -18.2665 -0.0955
12 18 51 0.8646 -0.2433
12 19 -49 1.4453 -0.1200
12 19 -46 4.9416 0.5206
12 19 -43 -6.8633 0.1951
12 19 -40 9.2356 -0.8597
12 19 -37 -14.0867 -0.4166
12 19 -34 8.2221 0.7586
12 19 -31 -0.4662 0.6067
12 19 -28 28.6946 -0.1670
12 19 -25 7.3006 -0.9159
12 19 -22 -1.5529 0.0741
12 19 -19 -43.7013 0.8904
12 19 -16 27.9893 0.1904
12 19 -13 -49.2321 -0.7464
12 19 -10 -22.9378 -0.1880
12 19 -7 -51.5718 0.7414
12 19 -4 14.8205 0.4796
12 19 -1 -11.0362 -0.3727
12 19 2 29.5546 -0.6616
12 19 5 20.3255 0.0457
12 19 8 15.2243 0.6255
12 19 11 2.9753 0.2065
12 19 14 -18.3581 -0.4682
12 19 17 -14.1298 -0.3835
12 19 20 54.4495 0.3319
12 19 23 -26.6000 0.1896
12 19 26 13.2453 -0.1169
12 19 29 8.0930 -0.0961
12 19 32 9.5207 0.0376
12 19 35 -0.6531 0.1170
12 19 38 3.5710 0.2894
12 19 41 -12.2756 0.0089
12 19 44 19.8698 0.2186
12 19 47 -8.5195 -0.4608
12 19 50 3.3934 -1.0510
12 20 -47 -3.9724 0.3039
12 20 -44 -20.2475 -0.3784
12 20 -41 2.2767 0.4605
12 20 -38 -7.3436 0.2185
12 20 -35 -11.7335 -0.3708
12 20 -32 22.7682 -0.4226
12 20 -29 2.0686 0.0040
12 20 -26 2.4005 0.3469
12 20 -23 22.5621 0.1015
12 20 -20 -20.2772 -0.2006
12 20 -17 28.8949 -0.2878
12 20 -14 29.0172 0.3465
12 20 -11 -13.5847 0.5609
12 20 -8 1.1096 0.0149
12 20 -5 22.8770 -0.3085
12 20 -2 32.0397 -0.1063
12 20 1 -52.5329 0.4291
12 20 4 3.2184 0.3420
12 20 7 -20.9323 -0.4053
12 20 10 -29.8124 -0.4605
12 20 13 -9.7246 0.5412
12 20 16 -62.3034 0.6116
12 20 19 8.9109 -0.3879
12 20 22 27.2696 -0.3621
12 20 25 4.7949 0.0433
12 20 28 26.9214 0.1610
12 20 31 17.2190 0.2043
12 20 34 -14.6224 -0.4506
12 20 37 4.8198 -0.6675
12 20 40 -11.4438 0.0342
12 20 43 -12.3562 0.5530
12 20 46 -3.1711 -0.1986
12 20 49 -4.0989 0.3934
12 21 -48 -8.9511 -0.4421
12 21 -45 -0.1381 0.4166
12 21 -42 -7.2007 0.1123
12 21 -39 8.6078 0.1756
12 21 -36 15.1504 -0.5988
12 21 -33 11.7498 -0.3035
12 21 -30 16.1792 0.4231
12 21 -27 31.8890 0.4011
12 21 -24 -23.0805 -0.2730
12 21 -21 13.8926 -0.4748
12 21 -18 -26.3410 0.2716
12 21 -15 -19.6507 0.6081
12 21 -12 3.2947 -0.0121
12 21 -9 -46.9622 -0.3274
12 21 -6 -10.2171 0.0021
12 21 -3 15.3715 0.3772
12 21 0 -30.9551 0.1993
12 21 3 7.9505 -0.1693
12 21 6 15.3618 -0.2402
12 21 9 -0.1208 -0.1829
12 21 12 23.4843 0.1811
12 21 15 -6.2919 0.1070
12 21 18 -9.6800 -0.2160
12 21 21 44.6805 -0.0611
12 21 24 -33.8254 -0.0722
12 21 27 15.7108 0.1129
12 21 30 -18.0949 -0.0023
12 21 33 -0.7600 -0.1100
12 21 36 11.5564 -0.2085
12 21 39 -6.4579 -0.1865
12 21 42 -19.6611 0.1437
12 21 45 19.8236 0.2230
12 21 48 -1.3938 0.5523
12 22 -46 -4.0383 -1.0538
12 22 -43 -2.7588 -0.1636
12 22 -40 -7.1934 -0.5734
12 22 -37 10.8779 0.1726
12 22 -34 2.0020 0.4490
12 22 -31 -3.5662 0.2159
12 22 -28 28.6657 -0.8343
12 22 -25 -17.7099 -0.4083
12 22 -22 -11.4063 0.5862
12 22 -19 20.9867 0.3223
12 22 -16 -9.7645 -0.3123
12 22 -13 -24.5288 -0.5679
12 22 -10 14.9943 0.0166
12 22 -7 -8.5751 0.6315
12 22 -4 37.9784 0.0195
12 22 -1 -11.3175 -0.6948
12 22 2 -15.4028 -0.2810
12 22 5 9.6203 0.4184
12 22 8 -28.9896 0.5019
12 22 11 3.1543 -0.1722
12 22 14 33.6590 -0.3781
12 22 17 -8.5242 -0.2134
12 22 20 33.0634 0.1611
12 22 23 -14.5975 0.0165
12 22 26 1.7847 -0.0060
12 22 29 -18.9506 -0.4013
12 22 32 -1.0451 0.1930
12 22 35 -9.3007 0.3025
12 22 38 -9.4621 -0.2289
12 22 41 1.8790 -0.3493
12 22 44 2.4443 -0.0974
12 22 47 -3.5826 -1.1845
12 23 -44 -13.4195 -0.0547
12 23 -41 11.6033 1.0942
12 23 -38 2.5999 -0.8024
12 23 -35 7.2020 0.0704
12 23 -32 6.1426 -0.0210
12 23 -29 -7.5592 0.3836
12 23 -26 -0.5963 0.2669
12 23 -23 15.2039 -0.2252
12 23 -20 -0.0502 -0.3062
12 23 -17 19.5666 0.2481
12 23 -14 -12.8164 0.3092
12 23 -11 -7.4717 -0.1892
12 23 -8 5.9250 -0.3191
12 23 -5 -12.1025 0.1733
12 23 -2 -22.2366 0.3442
12 23 1 -3.1708 -0.1961
12 23 4 16.1192 -0.4223
12 23 7 6.1970 0.0576
12 23 10 -0.8966 0.1104
12 23 13 26.0373 -0.2682
12 23 16 14.8231 -0.1178
12 23 19 23.0793 0.1397
12 23 22 -6.6855 0.2825
12 23 25 -3.2122 0.0864
12 23 28 -12.7918 -0.0324
12 23 31 -3.2662 -0.1749
12 23 34 -7.8523 0.2569
12 23 37 -7.9657 0.8171
12 23 40 7.3792 -0.5290
12 23 43 -7.1980 0.5477
12 24 -42 3.3292 -0.2984
12 24 -39 17.4861 -0.4178
12 24 -36 -5.1417 -0.8037
12 24 -33 1.5460 0.2532
12 24 -30 16.0211 0.3250
12 24 -27 -8.4272 0.0452
12 24 -24 -19.4071 -0.6602
12 24 -21 24.1199 -0.3542
12 24 -18 -18.6398 0.6216
12 24 -15 3.7554 0.2281
12 24 -12 1.4502 -0.5566
12 24 -9 -11.6193 -0.8371
12 24 -6 18.1763 0.2361
12 24 -3 -1.7191 0.6285
12 24 0 7.9773 -0.3261
12 24 3 5.3372 -0.5262
12 24 6 9.5878 0.0613
12 24 9 15.2983 0.3686
12 24 12 -27.7024 -0.0089
12 24 15 12.7195 -0.2833
12 24 18 3.5851 -0.2525
12 24 21 -8.1122 0.2455
12 24 24 2.6654 0.1015
12 24 27 13.7363 -0.2719
12 24 30 9.6898 -0.3984
12 24 33 11.7440 0.2903
12 24 36 -14.0733 0.9111
12 24 39 1.3949 -1.1324
12 24 42 -1.7133 0.2324
12 25 -43 12.2338 0.6059
12 25 -40 -3.3325 -1.3899
12 25 -37 -2.0800 1.1659
12 25 -34 -4.1860 -0.2382
12 25 -31 11.6112 -0.2570
12 25 -28 9.2514 0.0875
12 25 -25 -15.1716 0.6217
12 25 -22 12.8485 0.4281
12 25 -19 5.2865 -0.1883
12 25 -16 -32.9662 -0.3172
12 25 -13 7.5035 0.1549
12 25 -10 8.5780 0.4317
12 25 -7 -14.3017 -0.0486
12 25 -4 34.4736 -0.3360
12 25 -1 0.2967 -0.2081
12 25 2 -9.7838 0.4429
12 25 5 30.6529 0.0244
12 25 8 28.5783 -0.5030
12 25 11 -13.3189 -0.0669
12 25 14 1.5607 0.1958
12 25 17 -8.8669 0.0361
12 25 20 -26.7245 -0.1146
12 25 23 2.2551 -0.2322
12 25 26 -11.2881 0.3928
12 25 29 1.2576 0.3059
12 25 32 12.7749 -0.4224
12 25 35 -13.9008 -0.4336
12 25 38 -3.1953 -0.4775
12 25 41 6.5552 0.1694
12 26 -41 7.8461 0.1157
12 26 -38 -4.3865 -0.4015
12 26 -35 12.2089 -0.2450
12 26 -32 -1.0995 -0.2044
12 26 -29 4.9826 0.0231
12 26 -26 4.9009 0.2163
12 26 -23 8.7144 -0.1731
12 26 -20 -7.8087 0.2077
12 26 -17 -1.4788 -0.0845
12 26 -14 -6.6384 -0.0646
12 26 -11 -2.1840 -0.2147
12 26 -8 12.6226 -0.1244
12 26 -5 9.3954 0.1616
12 26 -2 5.7002 0.0881
12 26 1 4.2059 -0.0908
12 26 4 -12.4188 -0.1781
12 26 7 -1.4008 -0.0351
12 26 10 -14.2021 0.2460
12 26 13 2.9766 0.1480
12 26 16 -8.2383 -0.4730
12 26 19 -11.7477 -0.0332
12 26 22 -5.4633 -0.0619
12 26 25 7.8402 -0.2017
12 26 28 3.1824 -0.4798
12 26 31 -1.8795 -0.2104
12 26 34 8.3192 -0.4931
12 26 37 -0.3472 0.5882
12 26 40 2.8509 -0.8031
12 27 -39 -3.3576 0.3264
12 27 -36 -7.8953 -0.2914
12 27 -33 5.0693 1.0267
12 27 -30 -17.0005 0.5525
12 27 -27 3.5816 -0.6066
12 27 -24 -12.5120 -0.3050
12 27 -21 -0.5412 0.5363
12 27 -18 -26.4125 0.9011
12 27 -15 17.2373 -0.2519
12 27 -12 -3.1107 -0.7142
12 27 -9 11.0516 0.1362
12 27 -6 34.0888 0.6699
12 27 -3 -17.6574 0.4438
12 27 0 19.3827 -0.3244
12 27 3 15.8253 -0.7430
12 27 6 -6.7424 0.0318
12 27 9 11.4581 0.6135
12 27 12 -1.2099 0.0780
12 27 15 -1.0613 -0.8539
12 27 18 12.9256 -0.1006
12 27 21 -7.4362 0.3909
12 27 24 2.0759 0.2538
12 27 27 20.3585 -0.7673
12 27 30 -32.7822 -0.0817
12 27 33 -1.2396 0.0017
12 27 36 -5.5792 0.3440
12 27 39 -0.1624 0.4143
12 28 -37 1.5011 -0.1587
12 28 -34 -4.1179 0.0756
12 28 -31 -8.4554 -0.1586
12 28 -28 2.4996 0.1782
12 28 -25 1.4779 -0.0587
12 28 -22 2.2452 0.2166
12 28 -19 20.2096 -0.1096
12 28 -16 -8.6121 0.0617
12 28 -13 24.9628 0.4476
12 28 -10 -3.0634 0.0419
12 28 -7 8.5066 -0.0688
12 28 -4 9.6752 -0.2868
12 28 -1 -26.0695 -0.0325
12 28 2 11.7872 0.3844
12 28 5 -2.6617 0.1861
12 28 8 -18.0091 -0.2288
12 28 11 -15.3633 -0.0871
12 28 14 -14.0212 -0.0845
12 28 17 6.1544 0.0296
12 28 20 -1.7411 -0.3134
12 28 23 -5.3363 0.1185
12 28 26 18.2983 0.2414
12 28 29 2.3771 -0.0536
12 28 32 -9.6705 -0.2986
12 28 35 10.5911 -0.3174
12 29 -35 4.4462 0.4411
12 29 -32 -8.1019 -0.1129
12 29 -29 4.1623 0.5016
12 29 -26 -5.6687 0.2890
12 29 -23 -3.7847 -0.0579
12 29 -20 0.0380 -0.2358
12 29 -17 13.7442 0.2345
12 29 -14 -11.4491 0.2795
12 29 -11 14.2689 0.2243
12 29 -8 15.6594 0.0478
12 29 -5 -2.9009 -0.1500
12 29 -2 -12.6941 0.2984
12 29 1 3.0403 0.2656
12 29 4 6.7587 -0.1214
12 29 7 0.5033 -0.4191
12 29 10 3.0349 -0.0530
12 29 13 -3.1707 0.2178
12 29 16 -11.8622 0.3315
12 29 19 6.5371 -0.2366
12 29 22 -9.9340 -0.7507
12 29 25 -1.1248 0.1619
12 29 28 4.6925 0.2176
12 29 31 -0.7571 0.7045
12 29 34 1.0561 0.3490
12 30 -33 10.7907 0.0740
12 30 -30 -2.8354 0.1743
12 30 -27 8.6696 -0.4358
12 30 -24 0.4918 0.3781
12 30 -21 9.2649 1.0915
12 30 -18 7.9483 0.4793
12 30 -15 9.2986 -0.3333
12 30 -12 2.2387 -0.5749
12 30 -9 18.7175 0.4160
12 30 -6 4.2785 0.2842
12 30 -3 -7.9104 -0.2787
12 30 0 11.4321 -0.3991
12 30 3 -0.4726 0.4212
12 30 6 -6.1456 0.3803
12 30 9 -12.6927 -0.2758
12 30 12 -1.3821 -0.8014
12 30 15 -5.3355 0.2431
12 30 18 1.1339 0.6041
12 30 21 -5.7426 -0.5929
12 30 24 -0.0378 -0.2394
12 30 27 7.9958 -0.3714
12 30 30 -7.5095 -0.7673
12 30 33 7.6794 0.3838
12 31 -31 12.0757 0.3157
12 31 -28 -8.7350 -0.3169
12 31 -25 25.8800 0.0195
12 31 -22 -3.3706 0.4373
12 31 -19 5.7546 0.4482
12 31 -16 -21.5747 -0.0654
12 31 -13 12.0046 -0.8419
12 31 -10 8.9219 -0.0240
12 31 -7 -10.4666 0.5056
12 31 -4 11.0441 0.2784
12 31 -1 -2.7020 -0.4227
12 31 2 11.1514 -0.2122
12 31 5 -2.5400 0.2766
12 31 8 -14.8443 0.9272
12 31 11 8.0634 -0.4507
12 31 14 -2.0631 -0.6512
12 31 17 -2.4975 -0.0622
12 31 20 12.1413 -0.1061
12 31 23 2.9441 0.0054
12 31 26 5.1584 0.4345
12 31 29 -6.6117 -0.9945
12 32 -26 3.2518 -0.9546
12 32 -23 2.8906 0.4126
12 32 -20 -11.3880 0.3303
12 32 -17 2.4432 0.1224
12 32 -14 6.4103 -0.3945
12 32 -11 25.0840 -0.3656
12 32 -8 -10.6034 -0.1373
12 32 -5 2.5808 0.4663
12 32 -2 6.8767 0.6783
12 32 1 -1.5085 -0.4974
12 32 4 10.7047 -0.6742
12 32 7 -22.9281 0.8106
12 32 10 -3.3422 0.4469
12 32 13 11.3499 -0.9026
12 32 16 -6.9606 -0.8142
12 32 19 13.0779 0.4746
12 32 22 5.6084 -0.2983
12 32 25 -3.7244 0.0718
12 32 28 9.5306 0.4977
12 33 -24 -8.9087 1.4308
12 33 -21 4.6654 -0.7648
12 33 -18 -2.2062 0.3023
12 33 -15 6.6324 -0.6189
12 33 -12 -1.2601 -0.0703
12 33 -9 1.8197 -0.4527
12 33 -6 5.7089 0.5675
12 33 -3 -3.8018 0.5933
12 33 0 -5.2987 -0.2699
12 33 3 -1.6338 -0.1821
12 33 6 -10.0321 0.2082
12 33 9 0.7948 0.4843
12 33 12 4.4517 -0.1139
12 33 15 6.6265 -0.0082
12 33 18 -4.0876 0.4672
12 33 21 3.2841 -0.1641
12 33 24 4.5983 -1.3735
12 34 -19 4.0066 0.0370
12 34 -16 4.6422 -0.2583
12 34 -13 -1.0195 -0.1318
12 34 -10 2.8836 0.0577
12 34 -7 -5.9591 0.0421
12 34 -4 4.3041 0.0258
12 34 -1 -11.0441 -0.0886
12 34 2 3.7074 0.2889
12 34 5 -1.6670 0.1485
12 34 8 10.6636 -0.1952
12 34 11 7.5345 -0.8620
12 34 14 9.8221 -0.8592
12 34 17 5.4633 0.5276
12 34 20 3.2120 0.8620
12 35 -14 -5.5292 -0.8971
12 35 -11 3.6688 0.1357
12 35 -8 -15.7443 0.4763
12 35 -5 -0.0036 0.4961
12 35 -2 4.1671 -0.2959
12 35 1 0.2076 -0.6248
12 35 4 -6.1035 -0.3744
12 35 7 6.9793 0.3995
12 35 10 5.9063 0.9494
12 35 13 4.5678 -0.8743
12 35 16 -2.5384 -0.4440
12 36 -9 -10.7947 0.0051
12 36 -6 2.3948 -0.0171
12 36 -3 2.4082 -0.1318
12 36 0 2.4850 -0.1705
12 36 3 5.3559 -0.0953
12 36 6 7.1361 -0.2606
12 36 9 5.5903 0.0631
13 1 -60 -1.5426 -0.8675
13 1 -57 -11.8375 -2.7386
13 1 -54 2.3171 0.7720
13 1 -51 3.7362 3.4410
13 1 -48 -5.9622 0.3930
13 1 -45 24.1612 -3.7696
13 1 -42 -46.1794 -1.3621
13 1 -39 -40.2189 4.1295
13 1 -36 -18.7775 2.7647
13 1 -33 -43.6472 -3.5459
13 1 -30 0.6105 -4.0814
13 1 -27 29.3495 2.8720
13 1 -24 -24.9387 5.4911
13 1 -21 84.6929 -1.6216
13 1 -18 62.3510 -6.7555
13 1 -15 44.9841 -0.2367
13 1 -12 270.5146 7.4187
13 1 -9 100.7964 2.4770
13 1 -6 -44.1053 -6.4704
13 1 -3 97.4947 -4.6590
13 1 0 -71.4963 5.2045
13 1 3 -280.8361 6.0438
13 1 6 -33.4457 -4.2156
13 1 9 -276.7617 -7.3849
13 1 12 -8.5943 2.3067
13 1 15 88.5651 7.3335
13 1 18 -201.3255 -0.5552
13 1 21 41.9590 -6.6402
13 1 24 -34.0238 -1.1504
13 1 27 1.2601 5.1929
13 1 30 54.3201 2.6124
13 1 33 120.9903 -4.2177
13 1 36 -0.9693 -3.9094
13 1 39 42.8132 2.5438
13 1 42 -50.1900 3.9305
13 1 45 8.8800 -1.4420
13 1 48 -3.2178 -3.6464
13 1 51 -22.8425 0.0522
13 1 54 -13.0826 2.4395
13 1 57 -2.5437 0.9575
13 1 60 -14.4609 -3.5471
13 2 -61 6.1425 0.1391
13 2 -58 -8.4981 -0.0794
13 2 -55 4.3282 0.8864
13 2 -52 -9.4503 -0.0429
13 2 -49 22.8913 -1.1534
13 2 -46 -9.1131 -0.8884
13 2 -43 14.8908 0.9649
13 2 -40 -7.2526 1.9791
13 2 -37 41.0795 -0.6246
13 2 -34 34.2838 -2.9122
13 2 -31 30.8220 -0.3328
13 2 -28 0.2751 3.2813
13 2 -25 65.0419 1.4035
13 2 -22 10.3901 -3.1940
13 2 -19 3.1364 -2.5508
13 2 -16 -156.0563 2.6779
13 2 -13 -17.5646 4.2284
13 2 -10 -144.6924 -1.2737
13 2 -7 -48.4998 -5.3792
13 2 -4 -88.6076 -0.2520
13 2 -1 1.7069 5.2780
13 2 2 94.9433 2.0729
13 2 5 -53.7771 -4.5388
13 2 8 92.7221 -3.5789
13 2 11 144.0603 2.8032
13 2 14 129.7199 3.9445
13 2 17 144.3258 -1.6888
13 2 20 5.7063 -5.0282
13 2 23 105.9953 -0.5375
13 2 26 32.0999 4.7363
13 2 29 -57.8196 2.0712
13 2 32 -3.8701 -4.0057
13 2 35 -37.5800 -2.9561
13 2 38 -22.1845 2.7353
13 2 41 17.0113 3.2224
13 2 44 -22.7957 -1.0777
13 2 47 9.6124 -3.2383
13 2 50 -7.7038 -0.0881
13 2 53 -0.8172 2.5514
13 2 56 7.7774 2.2973
13 2 59 -4.9604 -2.1785
13 3 -59 10.9596 -0.0660
13 3 -56 -12.0699 2.2364
13 3 -53 -0.0936 0.1817
13 3 -50 11.0274 -2.9982
13 3 -47 -8.9837 -1.4493
13 3 -44 -21.3792 2.8532
13 3 -41 -1.4300 2.7162
13 3 -38 -57.5206 -2.6761
13 3 -35 21.8554 -3.7148
13 3 -32 -9.0219 2.0982
13 3 -29 -18.6004 4.6668
13 3 -26 64.3894 -0.9761
13 3 -23 -47.2680 -4.9499
13 3 -20 -45.1506 -0.4965
13 3 -17 123.4180 5.1970
13 3 -14 50.3203 2.4727
13 3 -11 202.6049 -4.5715
13 3 -8 23.1222 -3.8308
13 3 -5 114.4566 3.8319
13 3 -2 -120.9926 4.5745
13 3 1 2.6770 -2.6478
13 3 4 -118.7778 -5.2620
13 3 7 -141.3827 0.4790
13 3 10 -40.0714 4.7019
13 3 13 -130.9647 1.4840
13 3 16 52.0610 -4.2889
13 3 19 -56.5068 -2.7768
13 3 22 26.2778 3.2033
13 3 25 40.8880 3.5127
13 3 28 22.4637 -1.9976
13 3 31 46.4501 -3.6034
13 3 34 1.8004 0.7352
13 3 37 -4.4187 2.9038
13 3 40 11.3881 0.2541
13 3 43 -1.5443 -2.8233
13 3 46 12.6298 -1.1136
13 3 49 -0.9862 1.5887
13 3 52 12.4615 1.1056
13 3 55 -8.0692 -1.5997
13 3 58 -2.8467 -0.6960
13 4 -60 -5.8440 -0.1322
13 4 -57 -10.7694 -0.3972
13 4 -54 9.2448 -0.0259
13 4 -51 10.9179 -0.3212
13 4 -48 -2.8839 -0.1463
13 4 -45 2.2209 0.1530
13 4 -42 1.6731 -0.0059
13 4 -39 34.7211 -0.6471
13 4 -36 47.3589 -0.2952
13 4 -33 33.8549 0.5662
13 4 -30 7.3506 0.3945
13 4 -27 54.7565 -0.3670
13 4 -24 -56.5013 -0.6141
13 4 -21 20.2263 0.2471
13 4 -18 24.7235 0.9983
13 4 -15 28.2576 0.1017
13 4 -12 -35.4708 -1.0246
13 4 -9 -170.4996 -0.3063
13 4 -6 -81.4160 1.6523
13 4 -3 -121.8268 0.9106
13 4 0 -107.0699 -1.2590
13 4 3 -105.3376 -1.8905
13 4 6 204.8725 0.0132
13 4 9 193.3186 1.7101
13 4 12 74.4761 -0.0741
13 4 15 91.3266 -2.3199
13 4 18 -44.1408 -0.8240
13 4 21 80.8035 1.6795
13 4 24 40.6880 0.8179
13 4 27 43.4314 -1.5157
13 4 30 -1.4663 -0.9564
13 4 33 13.6840 0.8881
13 4 36 -71.1162 1.3710
13 4 39 -11.0813 0.0188
13 4 42 -21.8700 -1.0749
13 4 45 14.6179 0.0880
13 4 48 -26.2925 1.1721
13 4 51 -8.0623 0.4971
13 4 54 -8.3796 -1.3358
13 4 57 4.4336 -0.2817
13 4 60 -9.6789 0.5885
13 5 -58 -1.3429 -0.1060
13 5 -55 9.5264 -1.2407
13 5 -52 -0.4377 -0.3682
13 5 -49 3.4658 0.7322
13 5 -46 -7.9395 0.4490
13 5 -43 23.6578 -1.0497
13 5 -40 15.9066 -0.9443
13 5 -37 12.2905 0.7008
13 5 -34 -18.7512 1.3902
13 5 -31 -18.0902 -0.1093
13 5 -28 5.2066 -1.6253
13 5 -25 5.6025 -0.0759
13 5 -22 -57.8013 1.8927
13 5 -19 56.3902 0.8816
13 5 -16 43.3997 -2.0468
13 5 -13 58.4344 -1.3653
13 5 -10 -80.3343 1.5611
13 5 -7 93.3613 1.4990
13 5 -4 -95.1720 -1.6266
13 5 -1 198.1028 -2.6386
13 5 2 23.8753 0.1674
13 5 5 23.7818 2.2959
13 5 8 204.2866 -0.1095
13 5 11 -2.0615 -2.9462
13 5 14 -53.9467 -0.5538
13 5 17 16.3687 2.6277
13 5 20 4.2434 1.4342
13 5 23 -57.5700 -1.8413
13 5 26 -58.1612 -1.8489
13 5 29 -34.9671 1.2706
13 5 32 26.3667 2.2277
13 5 35 53.3694 -0.6405
13 5 38 -12.6193 -2.1105
13 5 41 25.2922 -0.0929
13 5 44 -6.3076 1.9919
13 5 47 12.2423 0.5594
13 5 50 -5.9495 -1.3632
13 5 53 12.6857 -0.5870
13 5 56 0.8355 1.4844
13 5 59 -5.1399 0.3110
13 6 -59 3.4020 -0.0596
13 6 -56 -7.6246 1.2373
13 6 -53 1.7312 -0.6071
13 6 -50 7.6945 -0.6310
13 6 -47 -1.9257 -0.0545
13 6 -44 16.6838 0.8055
13 6 -41 15.3262 0.2847
13 6 -38 -1.6919 -0.6885
13 6 -35 26.1164 -0.6550
13 6 -32 -6.0393 0.6588
13 6 -29 -51.1979 0.6221
13 6 -26 40.1825 -0.5478
13 6 -23 -59.5108 -0.3447
13 6 -20 38.3959 0.1724
13 6 -17 112.4178 0.3545
13 6 -14 -119.9344 0.0697
13 6 -11 -61.4231 -0.5575
13 6 -8 -48.7459 -0.1602
13 6 -5 -148.8530 0.2738
13 6 -2 54.5077 0.1088
13 6 1 5.2933 -0.2676
13 6 4 -2.9898 0.5108
13 6 7 92.8183 0.4326
13 6 10 125.3365 -0.4318
13 6 13 -63.0155 -0.1522
13 6 16 90.5530 0.2997
13 6 19 -22.1390 0.2332
13 6 22 -19.2046 -0.2935
13 6 25 -29.3874 -0.1928
13 6 28 -5.7533 -0.0100
13 6 31 -66.1803 0.3215
13 6 34 21.8496 0.2522
13 6 37 -14.3907 -0.6603
13 6 40 13.0930 -0.5033
13 6 43 -15.3193 0.1831
13 6 46 2.5491 0.6281
13 6 49 -16.6890 -0.2277
13 6 52 -1.5768 -0.3154
13 6 55 -5.1532 -0.0673
13 6 58 4.5284 1.0885
13 7 -57 9.3609 0.2123
13 7 -54 -2.5964 1.6805
13 7 -51 1.1147 -0.1449
13 7 -48 6.1375 -1.4786
13 7 -45 9.5599 -0.3674
13 7 -42 7.8653 1.5890
13 7 -39 14.8333 0.9337
13 7 -36 -14.9661 -1.3641
13 7 -33 -24.0656 -1.4012
13 7 -30 -0.2191 0.9321
13 7 -27 -42.4743 2.0478
13 7 -24 18.5241 -0.5611
13 7 -21 10.1954 -2.3199
13 7 -18 19.9080 -0.4698
13 7 -15 -67.6315 2.2320
13 7 -12 -75.3284 0.5046
13 7 -9 12.1974 -2.1309
13 7 -6 -0.7316 -1.4636
13 7 -3 102.8196 1.3030
13 7 0 91.0624 1.8801
13 7 3 111.3584 -0.8683
13 7 6 128.0708 -2.3299
13 7 9 -61.9513 0.3558
13 7 12 -14.5893 2.2966
13 7 15 -58.0532 0.1069
13 7 18 18.4930 -1.9314
13 7 21 25.4517 -0.4281
13 7 24 -16.4925 1.8562
13 7 27 30.4429 0.9527
13 7 30 -50.6097 -1.1846
13 7 33 5.6504 -1.1171
13 7 36 21.7747 0.7446
13 7 39 3.4844 1.1613
13 7 42 5.3565 -0.2793
13 7 45 5.6473 -0.8336
13 7 48 8.7918 -0.0837
13 7 51 -1.4182 0.7417
13 7 54 9.9750 -0.1272
13 7 57 5.4745 -0.1356
13 8 -58 1.0037 -0.4407
13 8 -55 3.8376 -0.2848
13 8 -52 -13.7747 0.2154
13 8 -49 5.9380 -0.0116
13 8 -46 18.5185 -0.0690
13 8 -43 -0.6730 -0.0847
13 8 -40 6.4648 0.0161
13 8 -37 -10.6956 -0.0556
13 8 -34 -42.3833 0.1627
13 8 -31 30.7429 0.2179
13 8 -28 -47.3468 -0.1680
13 8 -25 1.3455 -0.3341
13 8 -22 27.7011 0.3004
13 8 -19 -12.5623 0.6500
13 8 -16 -42.4500 -0.1003
13 8 -13 -26.4813 -0.8188
13 8 -10 -8.5644 -0.2807
13 8 -7 79.9471 0.8856
13 8 -4 73.5051 0.8456
13 8 -1 41.3058 -0.4341
13 8 2 17.6424 -0.6925
13 8 5 75.7176 0.5516
13 8 8 -19.3668 1.1353
13 8 11 -9.2160 -0.3096
13 8 14 -3.4037 -1.0391
13 8 17 -9.2688 0.1298
13 8 20 -35.9946 0.9830
13 8 23 -87.6834 0.1269
13 8 26 16.9464 -0.7884
13 8 29 53.9555 -0.5144
13 8 32 -30.7528 0.4960
13 8 35 -1.1778 0.4760
13 8 38 -30.7858 -0.4790
13 8 41 11.4904 -0.7159
13 8 44 -0.3770 0.4093
13 8 47 20.3239 0.8716
13 8 50 -1.4128 -0.2600
13 8 53 17.4056 -0.6020
13 8 56 0.9381 -0.8866
13 9 -56 2.0347 0.9900
13 9 -53 -3.5289 0.1898
13 9 -50 7.2985 0.2643
13 9 -47 -2.0999 0.1874
13 9 -44 14.7126 -0.2376
13 9 -41 -27.0156 -0.0790
13 9 -38 -1.0934 0.0430
13 9 -35 -32.2958 0.1462
13 9 -32 -18.5305 0.1637
13 9 -29 -46.5183 -0.0890
13 9 -26 52.0979 -0.1695
13 9 -23 -37.8158 0.0528
13 9 -20 25.7320 -0.0200
13 9 -17 -6.9725 -0.0160
13 9 -14 -42.2120 -0.1656
13 9 -11 57.5319 -0.0594
13 9 -8 38.9587 0.7418
13 9 -5 36.6183 0.7289
13 9 -2 62.9591 -0.1822
13 9 1 -66.0013 -0.3600
13 9 4 57.9880 0.2263
13 9 7 -12.3239 0.7872
13 9 10 -6.1600 0.1835
13 9 13 -81.6881 -0.5433
13 9 16 36.7496 -0.5467
13 9 19 -63.3541 0.3108
13 9 22 39.6484 0.5456
13 9 25 -81.6540 -0.0961
13 9 28 90.8509 -1.0771
13 9 31 1.2020 -0.2626
13 9 34 27.7904 0.8214
13 9 37 14.6614 0.2741
13 9 40 15.2763 -0.7807
13 9 43 -16.1356 -0.9030
13 9 46 23.1957 0.4755
13 9 49 1.1365 0.6619
13 9 52 2.9836 -0.4367
13 9 55 6.0807 -1.1814
13 9 58 -4.0719 0.1732
13 10 -57 -12.5135 -0.4366
13 10 -54 -13.4558 -0.0975
13 10 -51 -2.9199 -1.0495
13 10 -48 12.1109 0.3164
13 10 -45 -6.9111 0.8934
13 10 -42 -4.5146 0.2137
13 10 -39 -22.1573 -0.7871
13 10 -36 -9.8198 -0.5495
13 10 -33 -34.0529 0.9388
13 10 -30 -3.7623 0.8261
13 10 -27 -38.8656 -0.4874
13 10 -24 41.4680 -1.0065
13 10 -21 -69.7326 0.3816
13 10 -18 31.8053 1.0985
13 10 -15 0.9820 -0.1377
13 10 -12 26.4355 -1.2313
13 10 -9 14.9715 -0.1387
13 10 -6 64.8494 1.2242
13 10 -3 3.6532 0.4740
13 10 0 6.2224 -0.8905
13 10 3 -19.0068 -0.9030
13 10 6 16.1187 0.4877
13 10 9 -6.9981 1.0552
13 10 12 22.8587 -0.2687
13 10 15 -35.7747 -1.1920
13 10 18 -21.9826 -0.1245
13 10 21 23.6012 1.0209
13 10 24 -45.4601 0.2629
13 10 27 -32.1081 -0.9863
13 10 30 11.3513 -0.5465
13 10 33 0.9275 0.6624
13 10 36 13.9655 0.6293
13 10 39 0.8713 -0.3980
13 10 42 7.7757 -0.9578
13 10 45 3.2480 -0.2353
13 10 48 21.9492 0.3962
13 10 51 -16.0892 0.0735
13 10 54 0.7451 -1.1853
13 10 57 7.6819 0.8001
13 11 -55 2.0215 -0.2287
13 11 -52 1.0362 0.7116
13 11 -49 13.3586 0.2414
13 11 -46 -9.8008 -1.0010
13 11 -43 -12.3287 -0.2925
13 11 -40 -14.2806 0.6934
13 11 -37 -13.3108 0.4693
13 11 -34 -40.3129 -0.6464
13 11 -31 42.5692 -0.9609
13 11 -28 -22.1256 0.2753
13 11 -25 32.3714 1.1497
13 11 -22 44.1269 0.0894
13 11 -19 -32.7957 -1.3624
13 11 -16 87.6223 -0.5185
13 11 -13 36.6097 1.2977
13 11 -10 -9.1459 1.1663
13 11 -7 35.9304 -0.7363
13 11 -4 -49.0541 -1.3827
13 11 -1 -7.6784 0.7408
13 11 2 37.9151 1.9430
13 11 5 -16.4327 0.2252
13 11 8 -39.5590 -1.4446
13 11 11 -21.9449 -0.3517
13 11 14 -60.0119 1.4918
13 11 17 -73.6620 1.1313
13 11 20 8.5841 -1.0853
13 11 23 19.0342 -1.4247
13 11 26 -3.9103 0.7131
13 11 29 49.6779 1.4259
13 11 32 -36.1135 -0.3027
13 11 35 38.7026 -1.4405
13 11 38 14.4013 -0.0809
13 11 41 23.8517 1.3808
13 11 44 -5.5273 0.7642
13 11 47 12.6561 -1.2217
13 11 50 -2.1991 -0.5498
13 11 53 -2.3218 0.4519
13 11 56 0.7027 -0.0734
13 12 -56 -3.5079 0.8826
13 12 -53 -1.5893 0.9362
13 12 -50 7.8167 -0.5070
13 12 -47 -26.9623 -0.9203
13 12 -44 16.4857 -0.6268
13 12 -41 -37.4964 0.8741
13 12 -38 -0.7088 0.6972
13 12 -35 -13.5015 -0.9910
13 12 -32 -17.5980 -1.1746
13 12 -29 7.5687 0.6519
13 12 -26 5.5587 1.5881
13 12 -23 -27.9759 -0.2349
13 12 -20 51.7948 -1.6229
13 12 -17 -22.6919 -0.2029
13 12 -14 -16.4172 1.4998
13 12 -11 -27.8087 0.9529
13 12 -8 -3.9714 -1.1604
13 12 -5 -52.3834 -1.2542
13 12 -2 57.9345 1.0845
13 12 1 -8.3642 1.7760
13 12 4 71.8550 -0.7929
13 12 7 9.7673 -1.9000
13 12 10 -36.4010 -0.0086
13 12 13 -10.7134 1.6115
13 12 16 43.2560 0.3634
13 12 19 -88.4630 -1.2633
13 12 22 71.5675 -0.9089
13 12 25 -42.5255 0.8576
13 12 28 88.9073 1.0044
13 12 31 -16.3921 -0.5316
13 12 34 -8.7877 -1.1829
13 12 37 6.8970 0.2715
13 12 40 8.5833 0.8916
13 12 43 -11.8482 0.0156
13 12 46 9.6461 -0.6412
13 12 49 9.7911 0.0707
13 12 52 -1.9734 1.3557
13 12 55 8.0503 0.1707
13 13 -54 10.1962 0.4874
13 13 -51 -2.9140 -0.8275
13 13 -48 -10.4114 0.2006
13 13 -45 -6.9814 0.4498
13 13 -42 -12.0629 -0.6563
13 13 -39 -26.2896 -0.8196
13 13 -36 15.2776 0.2729
13 13 -33 -5.0150 0.8937
13 13 -30 20.0628 0.0801
13 13 -27 11.9330 -1.0920
13 13 -24 20.1862 -0.2619
13 13 -21 22.4799 1.0775
13 13 -18 49.4449 0.6390
13 13 -15 -54.4159 -1.0140
13 13 -12 -13.8817 -0.8488
13 13 -9 47.2962 0.8633
13 13 -6 -3.1060 1.1538
13 13 -3 20.5260 -0.1781
13 13 0 1.6838 -1.0731
13 13 3 -37.3534 -0.2277
13 13 6 32.9175 1.0426
13 13 9 -119.6005 0.5294
13 13 12 -60.0080 -0.7031
13 13 15 23.3582 -0.7030
13 13 18 -31.3667 0.5497
13 13 21 -13.5966 0.6783
13 13 24 31.2817 -0.4964
13 13 27 -15.9514 -0.9891
13 13 30 47.9581 -0.0964
13 13 33 -1.2774 0.5613
13 13 36 -0.1544 0.0613
13 13 39 1.6150 -0.6907
13 13 42 10.8350 -0.5126
13 13 45 -32.1903 0.1272
13 13 48 19.8191 -0.3558
13 13 51 -14.7224 -0.0855
13 13 54 -0.5124 0.6753
13 14 -52 -9.3935 0.0950
13 14 -49 3.9332 0.0515
13 14 -46 -6.9865 0.2530
13 14 -43 8.5063 -0.1932
13 14 -40 -6.0943 0.2139
13 14 -37 -8.7379 0.1383
13 14 -34 13.8469 0.1378
13 14 -31 18.2715 0.0826
13 14 -28 -41.4940 0.0459
13 14 -25 34.9550 -0.1933
13 14 -22 -10.7105 -0.0127
13 14 -19 -4.2847 0.0505
13 14 -16 22.0172 -0.0098
13 14 -13 -43.9839 -0.0740
13 14 -10 13.5033 0.1176
13 14 -7 44.8673 0.2129
13 14 -4 6.0563 -0.0046
13 14 -1 -3.5583 -0.3523
13 14 2 -13.4675 0.1179
13 14 5 -28.3772 0.3998
13 14 8 -11.0518 -0.1822
13 14 11 -3.2164 -0.3119
13 14 14 41.7943 0.2746
13 14 17 68.7677 0.3201
13 14 20 2.5423 -0.1005
13 14 23 52.9537 -0.2722
13 14 26 -23.5666 -0.2022
13 14 29 12.7725 0.4197
13 14 32 -6.6541 0.3644
13 14 35 9.5248 -0.4750
13 14 38 -28.1482 -0.2466
13 14 41 28.1668 0.0963
13 14 44 -13.3184 0.3003
13 14 47 9.0340 -0.2635
13 14 50 13.0362 -1.3073
13 14 53 -3.8027 -0.1412
13 15 -53 -1.1266 1.2772
13 15 -50 5.6267 -0.8637
13 15 -47 -14.6504 -0.7881
13 15 -44 19.0514 0.6931
13 15 -41 -8.7179 1.0361
13 15 -38 0.4936 -0.4059
13 15 -35 15.1833 -1.3662
13 15 -32 -0.3202 0.0366
13 15 -29 -4.4481 1.4545
13 15 -26 35.7181 0.5168
13 15 -23 2.4084 -1.5368
13 15 -20 24.9224 -0.9845
13 15 -17 -31.9375 1.1027
13 15 -14 -3.1071 1.2786
13 15 -11 28.4826 -0.6717
13 15 -8 4.4447 -1.5582
13 15 -5 -11.6700 0.1566
13 15 -2 -13.1648 1.5439
13 15 1 -41.4133 0.4498
13 15 4 -4.6392 -1.4027
13 15 7 -26.1936 -0.7592
13 15 10 16.9983 1.1938
13 15 13 -13.8564 0.9518
13 15 16 24.6908 -0.5816
13 15 19 -29.9698 -1.0310
13 15 22 64.8395 0.2982
13 15 25 -18.2100 1.1989
13 15 28 -0.7374 -0.0166
13 15 31 -21.9922 -0.5065
13 15 34 -0.7307 -0.1994
13 15 37 -12.4884 0.3126
13 15 40 2.8566 0.2146
13 15 43 9.9322 -0.1149
13 15 46 -8.9963 0.0517
13 15 49 11.8294 -0.0551
13 15 52 -4.4265 -0.3486
13 16 -51 -13.3921 -0.0640
13 16 -48 -1.9454 0.3902
13 16 -45 -3.7925 -0.0568
13 16 -42 -2.0184 -0.4268
13 16 -39 0.0342 0.2913
13 16 -36 21.9836 0.8074
13 16 -33 -1.9592 -0.1494
13 16 -30 -3.6100 -0.8750
13 16 -27 22.8730 -0.1648
13 16 -24 -18.4293 1.0791
13 16 -21 15.8102 0.6926
13 16 -18 -19.8723 -0.8505
13 16 -15 -15.4659 -0.7311
13 16 -12 56.1390 0.4665
13 16 -9 9.7611 1.0232
13 16 -6 -55.4048 -0.0207
13 16 -3 -22.2952 -1.0116
13 16 0 11.7611 -0.1239
13 16 3 2.1133 1.2197
13 16 6 -12.6042 0.6616
13 16 9 34.1688 -1.0031
13 16 12 29.7437 -0.7596
13 16 15 28.6231 0.8040
13 16 18 -19.1193 1.1332
13 16 21 -35.2471 -0.5833
13 16 24 47.1014 -0.9432
13 16 27 -49.3585 -0.1731
13 16 30 -17.1137 1.0808
13 16 33 -0.0611 0.2936
13 16 36 -5.6049 -1.2013
13 16 39 -6.5298 -0.5232
13 16 42 4.7420 0.7198
13 16 45 -7.5163 0.3986
13 16 48 11.2675 0.5338
13 16 51 1.0359 -0.0076
13 17 -49 12.6648 -0.1648
13 17 -46 6.4617 -0.0978
13 17 -43 13.9762 -0.5741
13 17 -40 -5.0181 0.8180
13 17 -37 15.3288 0.4716
13 17 -34 2.4237 -0.2327
13 17 -31 -5.2237 -0.6381
13 17 -28 -5.7756 0.2305
13 17 -25 41.7155 0.4883
13 17 -22 -14.8562 0.1914
13 17 -19 5.3458 -0.7464
13 17 -16 -15.0788 -0.4190
13 17 -13 -27.9410 0.4159
13 17 -10 -8.3714 0.3854
13 17 -7 -19.2145 -0.4408
13 17 -4 -72.8881 -0.5742
13 17 -1 45.1831 0.0918
13 17 2 39.5549 0.4559
13 17 5 -5.3651 -0.0327
13 17 8 75.4162 -0.3762
13 17 11 39.4959 -0.3423
13 17 14 -0.1775 0.4016
13 17 17 53.1065 0.2503
13 17 20 -78.1411 -0.4160
13 17 23 19.8725 -0.0693
13 17 26 -19.7727 0.0947
13 17 29 -8.0341 0.1233
13 17 32 -2.2216 -0.2015
13 17 35 19.9713 0.0389
13 17 38 -4.9999 -0.0666
13 17 41 14.0747 -0.0462
13 17 44 3.8095 -0.3294
13 17 47 -4.6887 -0.1994
13 17 50 2.2590 -0.3123
13 18 -50 1.3652 -0.8535
13 18 -47 -3.3958 0.5497
13 18 -44 1.9547 0.9986
13 18 -41 3.5973 -0.0822
13 18 -38 1.4968 -1.0827
13 18 -35 -8.1535 -0.3131
13 18 -32 1.6117 0.9822
13 18 -29 -9.3951 0.6637
13 18 -26 6.4689 -0.7584
13 18 -23 -4.6106 -0.8211
13 18 -20 -11.1348 0.6067
13 18 -17 9.7022 1.1899
13 18 -14 2.4783 -0.2460
13 18 -11 -23.3319 -1.3390
13 18 -8 14.1162 -0.3666
13 18 -5 -25.3773 1.3073
13 18 -2 37.0958 0.8142
13 18 1 35.9106 -1.2257
13 18 4 -9.2719 -1.0734
13 18 7 35.6407 0.8547
13 18 10 -3.2679 1.3669
13 18 13 -12.5773 -0.2760
13 18 16 34.1511 -1.0658
13 18 19 -20.7798 0.0956
13 18 22 -22.0612 1.1911
13 18 25 -22.4000 0.4461
13 18 28 -13.9144 -0.9133
13 18 31 -7.3969 -0.5473
13 18 34 -9.9253 0.8819
13 18 37 -0.9614 0.6767
13 18 40 -9.4796 -0.2997
13 18 43 15.0492 -0.5149
13 18 46 -20.2565 -0.4867
13 18 49 9.3659 0.1758
13 19 -48 6.1901 -0.2608
13 19 -45 3.8971 -0.0622
13 19 -42 6.0017 0.0498
13 19 -39 19.4189 0.0336
13 19 -36 -14.8626 -0.3907
13 19 -33 14.6956 -0.1883
13 19 -30 12.4115 0.0019
13 19 -27 -15.6009 0.2381
13 19 -24 12.0667 -0.0020
13 19 -21 7.3382 -0.5645
13 19 -18 -41.6704 -0.0190
13 19 -15 42.5999 0.1905
13 19 -12 -44.2853 0.0700
13 19 -9 11.5692 -0.1549
13 19 -6 3.7178 -0.0733
13 19 -3 41.7835 0.1826
13 19 0 13.1126 0.1976
13 19 3 29.5940 0.1004
13 19 6 12.4832 -0.0944
13 19 9 22.6818 -0.0661
13 19 12 -9.0605 0.4215
13 19 15 -30.7196 0.0900
13 19 18 12.4622 -0.0015
13 19 21 -2.0108 -0.1456
13 19 24 31.0217 0.3147
13 19 27 -9.3190 0.1548
13 19 30 19.2779 -0.0045
13 19 33 -12.3719 -0.1432
13 19 36 8.9700 0.1338
13 19 39 -10.5354 0.3350
13 19 42 3.9455 -0.0120
13 19 45 2.9825 0.2328
13 19 48 -0.0640 0.7275
13 20 -46 7.9663 -0.7650
13 20 -43 -10.7803 0.1029
13 20 -40 -6.7481 0.2476
13 20 -37 -6.9744 0.0323
13 20 -34 -31.4313 -0.8830
13 20 -31 14.4586 -0.3036
13 20 -28 -15.3292 0.8725
13 20 -25 8.3323 0.5474
13 20 -22 -21.9914 -0.5952
13 20 -19 -26.4620 -0.4976
13 20 -16 7.6810 0.4032
13 20 -13 -1.5362 0.9938
13 20 -10 22.0115 -0.3020
13 20 -7 37.2100 -1.0039
13 20 -4 30.0827 -0.1034
13 20 -1 46.8042 1.1948
13 20 2 9.6186 0.4909
13 20 5 4.4096 -1.0414
13 20 8 -9.2541 -0.5280
13 20 11 26.2363 0.8964
13 20 14 -65.8495 0.8194
13 20 17 12.3066 -0.3505
13 20 20 -14.3140 -0.7774
13 20 23 0.8591 0.3392
13 20 26 -12.7810 1.0037
13 20 29 9.8330 0.2228
13 20 32 -17.1897 -0.8964
13 20 35 12.4014 -0.0662
13 20 38 -12.9227 0.6862
13 20 41 -7.2350 -0.1080
13 20 44 8.0460 -0.0486
13 20 47 -1.9428 0.0976
13 21 -47 -3.4982 -0.2435
13 21 -44 3.9761 0.4482
13 21 -41 -2.0426 -0.5736
13 21 -38 -5.9520 -0.6633
13 21 -35 -1.0296 0.2011
13 21 -32 8.5624 0.2940
13 21 -29 -13.6590 -0.3992
13 21 -26 25.4067 -0.4600
13 21 -23 -12.3737 0.1391
13 21 -20 11.0895 0.8155
13 21 -17 8.9888 -0.1156
13 21 -14 2.4838 -0.6240
13 21 -11 19.6660 -0.1302
13 21 -8 21.0728 0.7465
13 21 -5 -5.1331 0.5140
13 21 -2 9.7553 -0.3734
13 21 1 -2.4578 -0.2435
13 21 4 -7.2470 0.2567
13 21 7 -8.0078 0.4051
13 21 10 31.7009 0.0283
13 21 13 -1.4046 -0.3746
13 21 16 -23.2621 -0.1032
13 21 19 -4.3649 0.6430
13 21 22 -15.1843 0.3675
13 21 25 -21.3096 -0.3958
13 21 28 8.2644 -0.4458
13 21 31 -12.7306 0.2996
13 21 34 1.7926 0.2445
13 21 37 14.3202 -0.1841
13 21 40 -8.9594 -0.2198
13 21 43 4.3244 0.1618
13 21 46 -1.4252 -0.4637
13 22 -45 -7.5867 0.4407
13 22 -42 -5.7699 -0.7993
13 22 -39 -6.7551 0.0843
13 22 -36 -16.6669 0.1129
13 22 -33 8.7092 0.0597
13 22 -30 -8.4035 0.0259
13 22 -27 -3.4012 -0.6866
13 22 -24 4.7678 0.1770
13 22 -21 -2.3909 0.4451
13 22 -18 -7.8278 0.2724
13 22 -15 50.9150 -0.3780
13 22 -12 -5.7481 -0.2350
13 22 -9 26.9007 0.4075
13 22 -6 7.9737 0.2999
13 22 -3 10.3165 -0.3661
13 22 0 20.9589 -0.3419
13 22 3 29.9570 0.3351
13 22 6 -25.1565 0.2557
13 22 9 22.8817 -0.4541
13 22 12 -1.5641 -0.3265
13 22 15 6.5238 0.2789
13 22 18 20.9959 0.4485
13 22 21 -11.4835 -0.0504
13 22 24 -11.4005 -0.5878
13 22 27 -8.9785 -0.3267
13 22 30 -21.6750 0.4406
13 22 33 -13.6294 0.2375
13 22 36 20.8862 -0.1948
13 22 39 -8.9505 -0.2890
13 22 42 -4.9856 -0.0702
13 22 45 2.0669 -0.4240
13 23 -43 -10.4318 -0.1991
13 23 -40 -1.8016 0.7438
13 23 -37 1.7136 -0.5463
13 23 -34 -0.7406 -0.7762
13 23 -31 15.7757 0.3552
13 23 -28 -13.1262 0.9325
13 23 -25 -5.5205 -0.3182
13 23 -22 22.6875 -0.8714
13 23 -19 0.9761 0.0700
13 23 -16 4.5930 1.0001
13 23 -13 24.6863 0.4328
13 23 -10 -26.1505 -0.9176
13 23 -7 17.6576 -0.3016
13 23 -4 -7.4153 0.7736
13 23 -1 7.7059 0.6312
13 23 2 -5.9346 -0.3629
13 23 5 1.3842 -0.6432
13 23 8 -3.6756 0.1417
13 23 11 -0.1021 0.6646
13 23 14 -13.7086 0.0432
13 23 17 9.8523 -0.7242
13 23 20 -12.9729 0.1796
13 23 23 -1.3056 0.7931
13 23 26 4.0681 0.5862
13 23 29 5.7975 -0.3363
13 23 32 2.7025 -0.2064
13 23 35 -4.0450 0.5593
13 23 38 -0.3840 0.3182
13 23 41 -3.8189 -0.0663
13 23 44 2.6260 -0.1279
13 24 -41 -16.0506 0.0307
13 24 -38 9.9327 -0.3224
13 24 -35 7.0431 -0.7508
13 24 -32 -20.1684 0.3982
13 24 -29 10.1764 -0.1308
13 24 -26 -2.7038 -0.1046
13 24 -23 -0.2215 -0.6966
13 24 -20 11.3125 0.1481
13 24 -17 -7.7581 0.3154
13 24 -14 28.6800 -0.2153
13 24 -11 -5.3380 -0.3160
13 24 -8 -12.7667 -0.2699
13 24 -5 11.6123 0.4226
13 24 -2 11.9278 -0.0110
13 24 1 -20.6129 -0.0743
13 24 4 7.0610 0.0010
13 24 7 16.5271 -0.2214
13 24 10 -6.8023 0.0322
13 24 13 -8.2882 0.2452
13 24 16 -8.3891 -0.0244
13 24 19 0.8627 -0.3084
13 24 22 9.1058 -0.4598
13 24 25 3.1168 0.3688
13 24 28 2.0786 0.0504
13 24 31 32.5143 -0.1934
13 24 34 -5.5557 -0.0104
13 24 37 -3.3839 -0.2363
13 24 40 -3.8607 0.0193
13 24 43 -9.0520 1.1374
13 25 -39 7.5100 -0.7995
13 25 -36 4.5678 0.5356
13 25 -33 12.7543 -0.3905
13 25 -30 8.8579 -0.2227
13 25 -27 0.5267 -0.4335
13 25 -24 -11.0297 0.4062
13 25 -21 -12.8297 0.4368
13 25 -18 -5.7747 -0.5872
13 25 -15 15.5262 -0.4377
13 25 -12 -43.2288 0.0949
13 25 -9 11.7329 0.4040
13 25 -6 0.0217 -0.3347
13 25 -3 11.9899 -0.3725
13 25 0 -1.2331 0.2867
13 25 3 -15.8618 0.2840
13 25 6 10.1160 0.0153
13 25 9 19.1602 -0.5250
13 25 12 3.0817 -0.1363
13 25 15 7.2926 0.5661
13 25 18 -3.3651 0.2007
13 25 21 6.1444 -0.2912
13 25 24 12.1394 -0.4654
13 25 27 -21.3086 -0.2407
13 25 30 16.8106 0.0856
13 25 33 5.6348 -0.2333
13 25 36 -9.0938 -0.1497
13 25 39 -4.1880 -1.6195
13 26 -40 7.1139 -0.4997
13 26 -37 -8.9151 -0.7788
13 26 -34 -1.9862 -0.4613
13 26 -31 -3.5796 0.0962
13 26 -28 0.1264 0.0207
13 26 -25 10.2563 -0.9331
13 26 -22 -0.4074 -0.1388
13 26 -19 16.1260 0.5025
13 26 -16 3.3413 0.4306
13 26 -13 8.5023 -0.2147
13 26 -10 -23.9163 -0.8541
13 26 -7 33.6678 -0.0407
13 26 -4 -13.6397 0.7078
13 26 -1 1.6128 0.0291
13 26 2 -0.1786 -0.7381
13 26 5 -2.3813 -0.1013
13 26 8 10.0172 0.8619
13 26 11 -2.0541 0.4177
13 26 14 -0.7753 -0.6944
13 26 17 9.6953 -0.7525
13 26 20 5.9619 0.7127
13 26 23 13.6194 0.5196
13 26 26 -0.0205 -0.5553
13 26 29 -8.0187 -0.3628
13 26 32 1.0318 -0.0018
13 26 35 -9.1816 0.9641
13 26 38 -2.7462 -0.3685
13 27 -38 6.3944 0.3511
13 27 -35 -6.2056 -0.7342
13 27 -32 0.8527 0.7554
13 27 -29 0.6747 -0.0817
13 27 -26 -5.6535 -0.5058
13 27 -23 -9.1416 -0.0956
13 27 -20 22.3872 0.3127
13 27 -17 -19.5984 0.4508
13 27 -14 1.2215 -0.6230
13 27 -11 -27.8452 -0.6526
13 27 -8 -7.9890 0.1284
13 27 -5 -4.5440 0.6844
13 27 -2 -13.3866 -0.1042
13 27 1 -11.0309 -0.4999
13 27 4 14.2343 -0.1868
13 27 7 2.0454 0.4034
13 27 10 11.1001 0.6266
13 27 13 14.8411 -0.3278
13 27 16 25.5359 -0.7670
13 27 19 9.9055 0.1573
13 27 22 7.5060 0.6720
13 27 25 -0.5293 -0.4532
13 27 28 2.0342 0.0214
13 27 31 -2.6532 0.2005
13 27 34 -1.2154 0.2615
13 27 37 -12.1146 1.4645
13 28 -36 -6.9989 0.2631
13 28 -33 -0.9948 -0.5099
13 28 -30 -11.4399 -0.7419
13 28 -27 -7.1795 0.3341
13 28 -24 -5.5113 0.3779
13 28 -21 12.6041 -0.0282
13 28 -18 7.2331 -0.4928
13 28 -15 -1.2740 0.2461
13 28 -12 -11.1831 0.4672
13 28 -9 32.0173 -0.3080
13 28 -6 -4.4177 -0.8234
13 28 -3 -6.5725 0.1075
13 28 0 11.9052 0.9694
13 28 3 2.4223 0.1864
13 28 6 19.7223 -0.7081
13 28 9 3.4650 -0.2674
13 28 12 -18.2064 0.6953
13 28 15 12.2454 0.3958
13 28 18 -2.0917 -0.4081
13 28 21 -5.4879 -0.4002
13 28 24 7.9786 -0.6489
13 28 27 0.0040 0.0526
13 28 30 12.1164 0.7535
13 28 33 1.7250 -1.4734
13 28 36 -4.9045 1.1609
13 29 -34 10.5081 0.4331
13 29 -31 -0.6134 -0.7318
13 29 -28 8.4577 0.4142
13 29 -25 16.8875 0.2921
13 29 -22 4.2497 -0.0801
13 29 -19 5.8734 -0.2555
13 29 -16 -19.4266 -0.0237
13 29 -13 -20.5121 0.3089
13 29 -10 -23.7784 -0.1499
13 29 -7 -2.1635 -0.4478
13 29 -4 -26.2590 -0.2901
13 29 -1 0.1331 0.5019
13 29 2 5.4410 0.4770
13 29 5 1.2023 -0.2945
13 29 8 20.6316 -0.6189
13 29 11 1.5253 0.0055
13 29 14 12.7589 0.4936
13 29 17 18.1853 -0.1612
13 29 20 -3.3576 -0.2582
13 29 23 -14.9280 0.5910
13 29 26 13.9154 -0.3159
13 29 29 -13.2136 0.2128
13 29 32 11.7001 -0.9299
13 30 -29 -10.6261 0.0892
13 30 -26 8.7597 -0.5321
13 30 -23 -7.6933 0.1616
13 30 -20 -18.7511 0.8871
13 30 -17 -13.8561 -0.4369
13 30 -14 5.8895 -0.2607
13 30 -11 -16.7616 -0.0533
13 30 -8 6.1131 0.6360
13 30 -5 19.7025 0.0021
13 30 -2 13.9915 -0.5416
13 30 1 5.4102 -0.1632
13 30 4 13.9410 0.5935
13 30 7 -5.4003 0.3471
13 30 10 5.8245 -0.4253
13 30 13 -9.3039 -0.3062
13 30 16 -2.9172 -0.1749
13 30 19 -5.3376 -0.8129
13 30 22 -15.6705 0.5757
13 30 25 8.2339 -0.3626
13 30 28 -2.0222 -0.3153
13 30 31 -1.1341 0.5573
13 31 -27 -6.9095 -0.0386
13 31 -24 -1.5696 0.8701
13 31 -21 -12.2711 0.1901
13 31 -18 1.7309 -0.2251
13 31 -15 1.5127 0.4874
13 31 -12 -23.6973 -0.1368
13 31 -9 9.7479 0.0448
13 31 -6 -0.5994 -0.0902
13 31 -3 -1.5739 0.0891
13 31 0 -0.7335 0.2696
13 31 3 8.8253 0.1551
13 31 6 -21.7592 -0.2986
13 31 9 2.5701 -0.0548
13 31 12 6.3532 0.6487
13 31 15 7.5537 0.1146
13 31 18 2.5328 -0.4565
13 31 21 -1.5343 0.0214
13 31 24 14.9595 0.1837
13 31 27 6.8039 -0.3375
13 32 -25 -5.7038 0.5379
13 32 -22 -5.7738 -0.5621
13 32 -19 0.8254 0.4791
13 32 -16 -19.1082 1.0936
13 32 -13 1.1330 0.1979
13 32 -10 6.6933 -0.8138
13 32 -7 18.8649 0.0863
13 32 -4 -8.8201 0.0296
13 32 -1 4.6429 0.3762
13 32 2 19.3825 -0.0492
13 32 5 -1.8129 -0.1760
13 32 8 10.9091 -0.0136
13 32 11 0.8075 -0.4942
13 32 14 -6.9980 -0.0612
13 32 17 -2.8218 -0.7105
13 32 20 -10.7237 -0.0430
13 32 23 1.8134 0.0704
13 33 -20 -0.3101 -0.6395
13 33 -17 5.6083 0.6700
13 33 -14 8.4212 -0.6213
13 33 -11 -3.7162 0.4158
13 33 -8 11.4874 0.0448
13 33 -5 -5.0672 0.2221
13 33 -2 -9.6706 0.1066
13 33 1 -1.1450 -0.2786
13 33 4 -4.4298 0.5386
13 33 7 -5.8894 0.1480
13 33 10 4.0676 -0.6835
13 33 13 -8.4032 0.4928
13 33 16 2.4954 0.7403
13 33 19 0.5060 0.6738
13 33 22 1.3356 -0.7946
13 34 -18 -1.6150 1.9663
13 34 -15 1.8602 -0.3827
13 34 -12 -13.6286 0.1668
13 34 -9 12.6815 0.0068
13 34 -6 1.4860 0.0869
13 34 -3 11.5284 0.1334
13 34 0 -3.9492 0.2856
13 34 3 7.5667 0.0118
13 34 6 0.2096 -0.0013
13 34 9 6.3270 -0.1589
13 34 12 -3.8799 0.2120
13 34 15 2.7300 -1.0328
13 34 18 1.0929 1.1222
13 35 -10 5.6770 -1.0736
13 35 -7 -1.0683 0.3851
13 35 -4 -0.1364 0.4385
13 35 -1 1.6694 -0.0375
13 35 2 5.9232 -0.9222
13 35 5 -7.7506 -0.1374
13 35 8 -5.5348 1.1908
13 35 11 -7.6424 0.0688
14 1 -59 -2.9984 1.7867
14 1 -56 -1.2749 2.4508
14 1 -53 3.3449 -1.6323
14 1 -50 6.2706 -3.7842
14 1 -47 9.5708 0.5085
14 1 -44 21.7778 4.2697
14 1 -41 -4.3917 0.4506
14 1 -38 21.3125 -4.9981
14 1 -35 -17.9472 -2.4588
14 1 -32 -56.3923 4.4024
14 1 -29 1.0952 4.1138
14 1 -26 -53.6552 -3.2904
14 1 -23 6.6399 -5.6137
14 1 -20 -64.8584 1.5697
14 1 -17 -162.6539 6.4586
14 1 -14 -12.7088 0.4707
14 1 -11 183.0287 -7.3964
14 1 -8 -103.6943 -3.3883
14 1 -5 160.7641 6.6948
14 1 -2 -52.3164 5.2796
14 1 1 130.1406 -4.3388
14 1 4 54.3746 -5.8452
14 1 7 -63.1343 2.4463
14 1 10 160.5015 6.3689
14 1 13 99.3402 -0.1082
14 1 16 -84.5108 -5.8074
14 1 19 -66.1854 -1.2108
14 1 22 -5.6040 5.6196
14 1 25 -87.5068 3.0387
14 1 28 -65.2553 -3.5517
14 1 31 -61.8580 -3.6568
14 1 34 -21.7013 1.8105
14 1 37 36.5921 3.6412
14 1 40 -1.7069 -0.4895
14 1 43 9.9140 -3.3772
14 1 46 -3.3718 -0.4217
14 1 49 3.3122 2.9391
14 1 52 -5.2491 1.1205
14 1 55 12.8900 -1.5639
14 1 58 -7.2845 -2.1303
14 2 -60 -5.1713 -0.7914
14 2 -57 -4.3952 0.6566
14 2 -54 -4.9349 0.3789
14 2 -51 -17.1152 -0.9442
14 2 -48 14.4856 -0.5610
14 2 -45 -31.1536 1.1424
14 2 -42 17.5410 0.7682
14 2 -39 -16.6150 -1.3616
14 2 -36 17.6620 -0.9821
14 2 -33 -6.7060 1.1366
14 2 -30 24.8908 1.7412
14 2 -27 -58.8937 -0.6825
14 2 -24 22.0413 -2.5473
14 2 -21 -20.8743 0.0287
14 2 -18 -100.1670 3.0465
14 2 -15 67.2526 0.5157
14 2 -12 70.8148 -2.7428
14 2 -9 -79.6993 -1.0251
14 2 -6 40.9756 2.9163
14 2 -3 -27.6713 2.5391
14 2 0 -75.4692 -1.7862
14 2 3 231.8069 -2.7647
14 2 6 -115.6637 1.8952
14 2 9 -24.4751 3.8826
14 2 12 131.8632 0.1223
14 2 18 85.1893 -1.0568
14 2 21 -7.8471 3.0569
14 2 24 60.6564 2.1903
14 2 27 -36.5884 -1.9967
14 2 30 -5.1387 -2.6172
14 2 33 -52.5574 1.1266
14 2 36 26.1803 2.6175
14 2 39 23.6580 -0.5630
14 2 42 5.3530 -2.5733
14 2 45 3.4365 -0.5485
14 2 48 5.9823 1.7604
14 2 51 0.3734 0.7805
14 2 54 -0.7540 -0.7588
14 2 57 -5.3646 -1.5339
14 2 60 -14.5299 1.1613
14 3 -58 5.9091 -1.0980
14 3 -55 -3.4727 -0.7373
14 3 -52 1.7687 1.1082
14 3 -49 -10.0755 0.6074
14 3 -46 21.2728 -1.1647
14 3 -43 11.0985 -1.3333
14 3 -40 10.7373 0.7041
14 3 -37 -25.9120 1.5396
14 3 -34 -14.6140 -0.5648
14 3 -31 -72.5653 -1.9210
14 3 -28 29.3842 -0.1187
14 3 -25 -69.0113 1.7973
14 3 -22 -50.8025 0.2715
14 3 -19 -77.7155 -1.9092
14 3 -16 4.4692 -0.9266
14 3 -13 37.2003 1.1758
14 3 -10 79.4016 0.7868
14 3 -7 16.6826 -0.9601
14 3 -4 224.0845 -0.7980
14 3 -1 -41.5515 0.5457
14 3 2 144.0467 0.7169
14 3 5 78.5950 -0.1994
14 3 8 48.6651 -0.8921
14 3 11 -106.5977 0.2290
14 3 14 16.6697 1.4482
14 3 17 -134.0112 0.0857
14 3 20 -14.7941 -0.9022
14 3 23 -11.5564 0.1533
14 3 26 -67.9811 0.9210
14 3 29 -53.2177 0.1604
14 3 32 2.9792 -0.8046
14 3 35 -66.7376 -0.1601
14 3 38 41.4875 0.9025
14 3 41 -13.8644 0.5690
14 3 44 13.7276 -1.0548
14 3 47 -0.5784 -0.3481
14 3 50 12.3809 0.5841
14 3 53 -10.6473 0.5666
14 3 56 8.7434 -0.8027
14 3 59 -16.8463 -0.5990
14 4 -59 3.1321 0.9055
14 4 -56 -9.1861 -0.9362
14 4 -53 11.7811 -1.7588
14 4 -50 -13.5955 0.1959
14 4 -47 0.2136 2.3083
14 4 -44 3.5586 0.1786
14 4 -41 -39.7442 -2.3303
14 4 -38 7.6635 -0.9377
14 4 -35 -25.8263 2.4106
14 4 -32 -8.3772 1.7088
14 4 -29 64.5182 -2.1762
14 4 -26 -21.7131 -2.3924
14 4 -23 -51.7792 1.6956
14 4 -20 53.8345 3.1794
14 4 -17 38.4082 -0.8112
14 4 -14 144.2198 -3.3017
14 4 -11 73.3590 0.1552
14 4 -8 -89.4814 3.8487
14 4 -5 117.9659 1.3894
14 4 -2 -54.0094 -2.7599
14 4 1 47.2675 -1.2144
14 4 4 -79.0733 2.8752
14 4 7 40.0715 2.4710
14 4 10 -49.2436 -1.3365
14 4 13 -52.7279 -2.4447
14 4 16 -45.9519 0.6392
14 4 19 -38.0415 2.7329
14 4 22 -11.0482 0.0527
14 4 25 -18.6581 -2.7818
14 4 28 -11.7885 -0.6237
14 4 31 95.6733 2.1261
14 4 34 17.9309 0.9793
14 4 37 3.7596 -1.5275
14 4 40 5.9436 -1.2915
14 4 43 -16.7195 0.9785
14 4 46 3.6230 1.1355
14 4 49 3.6926 -0.7055
14 4 52 -8.0263 -1.7065
14 4 55 -9.4021 -0.2730
14 4 58 -13.7217 0.6187
14 5 -57 -5.8321 0.5982
14 5 -54 5.7685 -0.7336
14 5 -51 8.1195 -0.1630
14 5 -48 16.0402 0.7781
14 5 -45 -7.4599 0.4241
14 5 -42 22.2623 -0.5800
14 5 -39 -13.2168 -0.4975
14 5 -36 -5.5832 0.4070
14 5 -33 -18.7483 0.7396
14 5 -30 -25.9390 -0.2806
14 5 -27 -83.4124 -0.7571
14 5 -24 18.0702 0.1197
14 5 -21 -58.5234 0.7243
14 5 -18 20.0880 -0.1583
14 5 -15 69.9673 -1.3956
14 5 -12 -53.3847 -0.5533
14 5 -9 56.0608 0.9020
14 5 -6 73.7506 0.8342
14 5 -3 -37.4714 -0.4150
14 5 0 96.1845 -0.9596
14 5 3 -73.3372 0.1326
14 5 6 -30.6886 0.8564
14 5 9 44.3088 -0.2272
14 5 12 7.9359 -0.9455
14 5 15 -79.5972 0.0408
14 5 18 54.8543 0.9156
14 5 21 -75.1299 -0.2010
14 5 24 19.4704 -0.7203
14 5 27 -97.2732 -0.3655
14 5 30 17.0788 0.3448
14 5 33 15.3151 0.1754
14 5 36 8.7953 -0.3899
14 5 39 -1.3571 -0.4767
14 5 42 -11.2512 0.2272
14 5 45 -9.9081 0.1304
14 5 48 -6.6881 -0.1089
14 5 51 -8.9978 -0.0113
14 5 54 -4.5214 0.9210
14 5 57 9.8005 0.4605
14 6 -58 2.4009 -1.4181
14 6 -55 -9.8646 1.4327
14 6 -52 6.7671 0.5136
14 6 -49 -22.8876 -0.9395
14 6 -46 5.3361 -1.2849
14 6 -43 -23.6201 1.0323
14 6 -40 -8.3113 1.3992
14 6 -37 -31.3753 -0.7467
14 6 -34 35.8140 -2.1903
14 6 -31 -1.0189 -0.1345
14 6 -28 26.7413 2.2877
14 6 -25 9.6096 0.7656
14 6 -22 24.6709 -2.1034
14 6 -19 14.8128 -1.2830
14 6 -16 121.9415 1.9526
14 6 -13 -24.5184 2.1436
14 6 -10 108.8973 -1.0162
14 6 -7 -17.9077 -2.6969
14 6 -4 -33.6083 0.2812
14 6 -1 70.9085 3.0789
14 6 2 -33.1344 0.5408
14 6 5 -41.2399 -2.6566
14 6 8 -22.7075 -1.3707
14 6 11 -122.5450 1.9383
14 6 14 77.4858 1.7444
14 6 17 -29.0952 -1.3176
14 6 20 10.8615 -2.1638
14 6 23 -8.0153 0.8581
14 6 26 8.8354 2.1871
14 6 29 -52.6959 -0.0638
14 6 32 37.9295 -2.1673
14 6 35 -7.2027 -0.3896
14 6 38 24.1521 1.7572
14 6 41 -14.7221 1.0002
14 6 44 8.7926 -1.1838
14 6 47 -6.3567 -1.1390
14 6 50 1.2526 0.5719
14 6 53 -17.0304 0.9240
14 6 56 -4.5836 -0.2850
14 6 59 -6.6451 -1.1372
14 7 -56 2.7374 -0.3144
14 7 -53 11.3213 -0.8424
14 7 -50 -14.7721 0.8919
14 7 -47 18.2742 0.8571
14 7 -44 -2.0182 -0.8314
14 7 -41 2.8091 -1.1868
14 7 -38 36.5319 0.3642
14 7 -35 6.7490 1.7738
14 7 -32 -14.8253 -0.0771
14 7 -29 -1.9720 -1.9036
14 7 -26 -51.9345 -0.5803
14 7 -23 -22.4101 1.8699
14 7 -20 76.7168 1.0750
14 7 -17 -35.8585 -2.0398
14 7 -14 23.8417 -1.6434
14 7 -11 76.3208 1.4598
14 7 -8 -58.7402 1.8630
14 7 -5 54.0524 -0.8361
14 7 -2 -3.3987 -2.3147
14 7 1 -13.8195 -0.0359
14 7 4 -39.4948 2.2675
14 7 7 0.0222 0.6456
14 7 10 -60.4656 -2.1981
14 7 13 90.6942 -1.0003
14 7 16 0.4885 1.9415
14 7 19 7.6843 1.7672
14 7 22 14.1806 -1.0327
14 7 25 77.2494 -1.9047
14 7 28 15.6028 0.6692
14 7 31 -9.6135 2.0200
14 7 34 -16.6324 0.0929
14 7 37 -26.6265 -1.9874
14 7 40 2.0789 -0.3257
14 7 43 2.9027 1.8212
14 7 46 -4.4084 0.7134
14 7 49 -5.5977 -0.9983
14 7 52 0.5413 -0.7567
14 7 55 0.2639 0.4641
14 7 58 7.6221 1.1047
14 8 -57 -4.1624 0.3831
14 8 -54 -5.2029 -0.5663
14 8 -51 -13.1871 0.6674
14 8 -48 -3.6060 0.4607
14 8 -45 -20.7039 -0.3649
14 8 -42 10.5920 -0.9990
14 8 -39 -16.8485 0.2480
14 8 -36 7.5598 0.8525
14 8 -33 6.9009 0.1234
14 8 -30 -17.5946 -1.2724
14 8 -27 42.2273 -0.5285
14 8 -24 23.0765 1.1932
14 8 -21 -2.5631 0.9100
14 8 -18 75.7618 -0.9213
14 8 -15 2.3673 -1.3584
14 8 -12 17.2244 0.3131
14 8 -9 -6.8391 1.5298
14 8 -6 -70.5941 0.2335
14 8 -3 -17.6986 -1.7483
14 8 0 -68.3104 -0.9312
14 8 3 -45.2996 1.6048
14 8 6 4.3066 1.2049
14 8 9 49.1660 -1.0592
14 8 12 26.9943 -1.4471
14 8 15 -0.2109 0.2978
14 8 18 68.5889 1.5973
14 8 21 -48.2262 0.2508
14 8 24 -11.0482 -1.5347
14 8 27 22.6856 -0.6884
14 8 30 -11.9957 1.1814
14 8 33 23.3989 0.9120
14 8 36 -26.8938 -0.7011
14 8 39 -23.7836 -1.0863
14 8 42 2.4426 0.1829
14 8 45 3.4535 1.2689
14 8 48 -18.1126 0.5945
14 8 51 17.2383 -1.0185
14 8 54 -1.3972 0.3341
14 8 57 1.7875 0.6065
14 9 -55 0.0024 0.3892
14 9 -52 9.1447 -0.3704
14 9 -49 12.5447 -0.5054
14 9 -46 4.2628 0.3965
14 9 -43 19.4093 0.7958
14 9 -40 17.0563 -0.1444
14 9 -37 16.6155 -0.8258
14 9 -34 13.2630 0.2620
14 9 -31 -44.2428 0.7542
14 9 -28 -8.2227 -0.0358
14 9 -25 -7.2587 -0.6820
14 9 -22 -26.9627 -0.2988
14 9 -19 43.4217 0.5488
14 9 -16 79.8294 0.3369
14 9 -13 -20.3875 -0.9040
14 9 -10 4.7434 -0.9345
14 9 -7 -12.7188 0.3539
14 9 -4 17.0440 0.2892
14 9 -1 -8.2461 -0.5176
14 9 2 -34.4355 -0.7079
14 9 5 -13.2809 0.1174
14 9 8 129.2959 0.6617
14 9 11 29.0887 0.0940
14 9 14 36.4157 -0.4058
14 9 17 14.6518 0.2760
14 9 20 33.1151 0.5918
14 9 23 -57.8113 0.1237
14 9 26 35.7261 -0.3401
14 9 29 -22.4579 -0.1255
14 9 32 26.1378 0.4810
14 9 35 3.8332 0.4163
14 9 38 -9.2606 -0.3756
14 9 41 3.4551 -0.5460
14 9 44 11.3010 0.1500
14 9 47 -15.8887 0.3061
14 9 50 -4.5601 0.0134
14 9 53 -8.4680 -0.5576
14 9 56 -4.9627 0.7110
14 10 -56 -2.9872 0.8726
14 10 -53 -4.1130 0.3648
14 10 -50 -10.7361 0.5647
14 10 -47 13.3706 -0.5611
14 10 -44 -7.5480 -0.2179
14 10 -41 23.1211 0.7994
14 10 -38 15.7321 0.3842
14 10 -35 -24.9311 -0.7334
14 10 -32 -15.0800 -0.7581
14 10 -29 66.8909 0.6010
14 10 -26 -28.8761 1.2610
14 10 -23 75.2316 -0.1946
14 10 -20 44.3387 -1.4717
14 10 -17 -21.3843 -0.5204
14 10 -14 53.6109 1.1939
14 10 -11 -97.9117 0.4906
14 10 -8 -169.5922 -1.2860
14 10 -5 52.8176 -1.0098
14 10 -2 -135.4764 1.0463
14 10 1 10.9966 1.2838
14 10 4 9.2256 -0.3016
14 10 7 59.8543 -1.2135
14 10 10 99.1784 0.0080
14 10 13 27.5193 1.3302
14 10 16 -42.5085 0.4638
14 10 19 111.4314 -0.9288
14 10 22 -31.7174 -0.4809
14 10 25 -2.4836 0.8150
14 10 28 -30.1742 0.9411
14 10 31 -55.2785 -0.1458
14 10 34 21.4121 -0.6185
14 10 37 -9.1701 -0.2227
14 10 40 -1.6972 0.8516
14 10 43 1.8026 0.2148
14 10 46 -5.2065 -0.5646
14 10 49 -5.1455 -0.0779
14 10 52 1.1048 -0.4307
14 10 55 4.9504 -0.0396
14 11 -54 -1.2494 -0.2065
14 11 -51 1.1842 0.4744
14 11 -48 5.2267 0.1030
14 11 -45 5.2005 -0.9284
14 11 -42 9.3552 0.0532
14 11 -39 8.2858 1.0634
14 11 -36 -3.4432 0.0612
14 11 -33 -8.0437 -0.9349
14 11 -30 2.5533 -0.4089
14 11 -27 -15.8346 1.1142
14 11 -24 -44.9842 1.0104
14 11 -21 19.1985 -0.5771
14 11 -18 -27.2792 -1.2465
14 11 -15 -24.0321 0.5425
14 11 -12 -38.9144 1.2434
14 11 -9 -23.0124 -0.4345
14 11 -6 47.3790 -1.2783
14 11 -3 76.3624 0.0107
14 11 0 29.7432 1.2051
14 11 3 87.4288 0.4478
14 11 6 49.9895 -0.9912
14 11 9 24.6576 -0.4545
14 11 12 -0.7681 0.9581
14 11 15 -66.7465 0.9173
14 11 18 -15.6531 -0.3947
14 11 21 -25.2243 -0.8379
14 11 24 -27.6121 0.3570
14 11 27 34.9623 0.8554
14 11 30 -32.4801 -0.1980
14 11 33 -15.8463 -0.6271
14 11 36 -3.0110 0.1794
14 11 39 2.4887 0.6912
14 11 42 -14.0580 0.3014
14 11 45 10.3723 -0.3331
14 11 48 -11.7033 -0.2178
14 11 51 -2.3294 0.8938
14 11 54 7.1009 0.1891
14 12 -55 3.4575 -0.3764
14 12 -52 4.1567 0.5549
14 12 -49 1.5925 -0.0932
14 12 -46 -2.7716 0.4313
14 12 -43 13.2550 -0.0590
14 12 -40 -0.1920 -0.3298
14 12 -37 -1.8652 0.0382
14 12 -34 -10.0677 0.2978
14 12 -31 -1.0924 -0.1353
14 12 -28 16.7846 -0.5264
14 12 -25 42.6932 0.1785
14 12 -22 -3.7446 0.3911
14 12 -19 39.1509 0.0163
14 12 -16 -42.1424 -0.5337
14 12 -13 -92.0783 -0.3518
14 12 -10 -6.0733 0.1697
14 12 -7 -13.8151 0.2336
14 12 -4 -40.5856 -0.3967
14 12 -1 -28.0057 -0.3756
14 12 2 -9.0390 0.1605
14 12 5 66.2531 0.2706
14 12 8 21.1856 -0.0675
14 12 11 -23.1546 -0.1583
14 12 14 72.7539 -0.1093
14 12 17 16.2104 0.2998
14 12 20 29.0323 0.1079
14 12 23 -20.7780 -0.1077
14 12 26 25.1292 -0.3443
14 12 29 18.2307 -0.1458
14 12 32 -25.6589 0.1842
14 12 35 -0.7292 0.1982
14 12 38 -0.0409 -0.0451
14 12 41 -17.4541 -0.1559
14 12 44 -19.4126 -0.0617
14 12 47 5.5800 -0.2446
14 12 50 -6.9811 0.5440
14 12 53 14.1682 0.1398
14 13 -53 2.4550 -0.4788
14 13 -50 -0.1721 0.2328
14 13 -47 17.2789 -0.0146
14 13 -44 9.6941 0.3446
14 13 -41 20.1899 -0.0490
14 13 -38 -11.9186 -0.3037
14 13 -35 -13.5729 0.0953
14 13 -32 13.0580 0.5696
14 13 -29 -16.5808 0.0662
14 13 -26 -62.8808 -0.2826
14 13 -23 11.1631 -0.1521
14 13 -20 -62.9385 0.3175
14 13 -17 -32.2096 0.4515
14 13 -14 -37.3200 -0.3554
14 13 -11 -13.4590 -0.4467
14 13 -8 59.3165 0.1877
14 13 -5 128.4803 0.3342
14 13 -2 -25.8401 0.0156
14 13 1 69.8239 -0.5476
14 13 4 81.5723 0.0397
14 13 7 6.5065 0.2991
14 13 10 -18.7052 0.0474
14 13 13 36.8418 -0.3431
14 13 16 -41.9869 -0.0103
14 13 19 19.9268 0.2656
14 13 22 -68.1366 0.0018
14 13 25 -60.8311 -0.2004
14 13 28 24.4937 0.0602
14 13 31 -23.9598 -0.0492
14 13 34 -7.0626 0.0557
14 13 37 -0.6866 -0.0218
14 13 40 -0.3713 -0.1897
14 13 43 5.6513 -0.0360
14 13 46 11.4351 -0.0230
14 13 49 11.1595 -0.8845
14 13 52 8.5011 0.2389
14 14 -51 -9.5634 -0.2988
14 14 -48 -3.9341 -0.1380
14 14 -45 4.7172 -0.4457
14 14 -42 -12.2318 0.6703
14 14 -39 -5.8170 0.7387
14 14 -36 -14.1477 -0.5734
14 14 -33 16.3656 -1.0931
14 14 -30 -15.2228 -0.0569
14 14 -27 -6.0376 0.9937
14 14 -24 5.8336 0.1294
14 14 -21 -4.2908 -1.2450
14 14 -18 1.2329 -0.5691
14 14 -15 4.3488 1.0075
14 14 -12 49.1769 0.6419
14 14 -9 15.9920 -0.9603
14 14 -6 -8.2085 -1.1238
14 14 -3 -8.8884 0.4237
14 14 0 -98.1102 1.0983
14 14 3 25.3012 -0.1964
14 14 6 -19.7398 -1.3951
14 14 9 -18.5531 -0.3488
14 14 12 4.6981 1.1989
14 14 15 9.3724 0.5595
14 14 18 26.4565 -0.9814
14 14 21 74.3138 -0.7485
14 14 24 -22.1816 0.7689
14 14 27 20.3514 1.0748
14 14 30 -0.5106 -0.3136
14 14 33 -23.5012 -1.0129
14 14 36 14.1329 0.3000
14 14 39 3.3907 1.1110
14 14 42 -13.6010 -0.1944
14 14 45 5.6773 -0.8903
14 14 48 -1.0558 -0.2289
14 14 51 -10.4136 1.0359
14 15 -52 7.8925 0.9806
14 15 -49 3.5212 -0.4196
14 15 -46 13.4240 -0.2533
14 15 -43 4.7617 0.0869
14 15 -40 -18.5956 0.6035
14 15 -37 6.6430 0.0094
14 15 -34 -7.7926 -0.9085
14 15 -31 -35.3623 -0.1438
14 15 -28 15.9035 0.7660
14 15 -25 -31.7998 0.5572
14 15 -22 -76.0769 -0.8726
14 15 -19 24.0683 -0.9752
14 15 -16 -56.8614 0.1975
14 15 -13 17.7501 1.0608
14 15 -10 41.9063 -0.1341
14 15 -7 -58.9837 -1.3343
14 15 -4 40.4395 -0.2618
14 15 -1 65.8198 1.3578
14 15 2 16.7070 0.8911
14 15 5 89.5074 -1.0326
14 15 8 10.0798 -1.0962
14 15 11 -1.8319 1.0489
14 15 14 34.5636 1.2479
14 15 17 -81.8167 -0.3221
14 15 20 -12.3285 -1.1367
14 15 23 -17.3787 0.0644
14 15 26 -32.7587 1.3800
14 15 29 3.8192 0.5395
14 15 32 -9.2251 -0.9907
14 15 35 17.6462 -0.8567
14 15 38 -6.8247 0.8257
14 15 41 9.1186 0.7562
14 15 44 0.0341 -0.5201
14 15 47 20.5326 -0.0098
14 15 50 -8.0255 0.4023
14 16 -50 -9.7840 0.6270
14 16 -47 4.4187 0.1360
14 16 -44 -17.8160 0.1528
14 16 -41 -14.8260 -0.4720
14 16 -38 -22.8636 -0.3248
14 16 -35 10.2102 0.2973
14 16 -32 -44.5282 0.2363
14 16 -29 0.5926 -0.5233
14 16 -26 -4.1216 -0.4843
14 16 -23 6.7275 0.3185
14 16 -20 23.7206 0.4676
14 16 -17 46.1809 -0.1025
14 16 -14 3.1043 -0.7770
14 16 -11 57.7456 -0.0502
14 16 -8 -21.2829 0.6367
14 16 -5 0.7202 0.3294
14 16 -2 -44.1490 -0.5431
14 16 1 16.6452 -0.5984
14 16 4 -11.7641 0.3688
14 16 7 -7.8693 0.3375
14 16 10 -50.8551 -0.2232
14 16 13 41.8481 -0.5119
14 16 16 -50.8847 -0.0099
14 16 19 -36.3112 0.4629
14 16 22 9.4480 0.2986
14 16 25 7.8385 -0.5529
14 16 28 19.2880 -0.2333
14 16 31 8.7639 0.3723
14 16 34 29.2505 0.2874
14 16 37 -8.9618 -0.5164
14 16 40 24.6583 0.1432
14 16 43 -15.2222 -0.0131
14 16 46 -1.0140 0.0161
14 16 49 -2.0710 -0.0032
14 16 52 -1.4855 0.4644
14 17 -51 7.9514 -0.5997
14 17 -48 1.8891 -0.1756
14 17 -45 -7.3859 -0.5164
14 17 -42 10.3578 0.1040
14 17 -39 -8.2859 0.3297
14 17 -36 8.7273 -0.0701
14 17 -33 2.7013 -0.2863
14 17 -30 -11.0848 -0.0571
14 17 -27 -26.4661 0.0518
14 17 -24 1.7824 0.1418
14 17 -21 -21.8418 0.1276
14 17 -18 18.3478 -0.1818
14 17 -15 -26.9655 -0.3103
14 17 -12 -11.8241 0.0422
14 17 -9 -32.0756 0.4506
14 17 -6 -23.1066 -0.0112
14 17 -3 27.1153 -0.3096
14 17 0 26.2743 -0.1414
14 17 3 44.8580 0.3240
14 17 6 11.8583 0.3803
14 17 9 -19.8895 -0.3028
14 17 12 11.2874 -0.6599
14 17 15 36.9723 0.0442
14 17 18 -40.9369 0.5079
14 17 21 -5.1576 -0.0178
14 17 24 -9.1062 -0.6636
14 17 27 -22.0551 -0.1466
14 17 30 15.8388 0.0875
14 17 33 -7.6252 0.4021
14 17 36 -5.3826 -0.1918
14 17 39 10.2649 -0.4463
14 17 42 -16.3412 -0.4835
14 17 45 -8.8016 -0.4686
14 17 48 8.2289 0.5573
14 17 51 2.9577 -1.4432
14 18 -49 -7.0252 -1.7962
14 18 -46 0.4180 0.4972
14 18 -43 -5.9647 0.7929
14 18 -40 -15.5690 0.2622
14 18 -37 -1.8180 -0.8150
14 18 -34 -24.7161 -0.1590
14 18 -31 -7.1530 0.6645
14 18 -28 -6.5879 0.4355
14 18 -25 -19.9146 -0.5576
14 18 -22 25.9888 -0.4246
14 18 -19 33.4580 0.3145
14 18 -16 1.6782 0.7264
14 18 -13 8.6513 0.2195
14 18 -10 13.7240 -0.7242
14 18 -7 13.3006 -0.1582
14 18 -4 23.0640 0.8331
14 18 -1 18.1940 0.1410
14 18 2 -66.8851 -0.5942
14 18 5 12.7822 0.0046
14 18 8 -62.5659 0.4372
14 18 11 -50.2609 0.0291
14 18 14 7.5566 -0.4314
14 18 17 1.8356 -0.2001
14 18 20 23.5175 0.1489
14 18 23 46.6572 0.3875
14 18 26 5.4730 -0.0052
14 18 29 24.2140 -0.4425
14 18 32 -0.0731 0.4633
14 18 35 -12.4114 0.4172
14 18 38 -5.6369 -0.3547
14 18 41 6.9511 0.0242
14 18 44 -9.0500 0.5791
14 18 47 1.0343 0.6039
14 19 -47 6.1047 0.3658
14 19 -44 -1.0168 0.2022
14 19 -41 0.2197 -0.4630
14 19 -38 6.9461 0.7790
14 19 -35 0.9806 0.0200
14 19 -32 -1.4569 -0.6021
14 19 -29 6.2080 -0.3947
14 19 -26 -4.7212 0.3555
14 19 -23 12.8641 0.4352
14 19 -20 18.1412 -0.2164
14 19 -17 -3.9951 -0.3940
14 19 -14 -18.6159 0.1413
14 19 -11 -7.9855 0.4492
14 19 -8 -12.4256 -0.1360
14 19 -5 -22.9293 -0.5525
14 19 -2 -30.6869 0.0691
14 19 1 -13.9756 0.5396
14 19 4 -6.7248 -0.0225
14 19 7 -2.2273 -0.3275
14 19 10 9.3297 -0.2639
14 19 13 28.2772 0.0406
14 19 16 5.7992 0.4973
14 19 19 28.0478 -0.2725
14 19 22 9.8154 -0.4287
14 19 25 15.6793 0.3235
14 19 28 -6.9455 0.5361
14 19 31 12.7921 -0.3370
14 19 34 -8.1271 -0.1113
14 19 37 -23.9411 0.2308
14 19 40 4.3289 0.6550
14 19 43 -4.9668 0.8866
14 19 46 5.0538 -0.4427
14 20 -45 -1.1833 -0.5443
14 20 -42 10.0547 1.0140
14 20 -39 -9.3994 0.3465
14 20 -36 8.9024 0.0692
14 20 -33 4.0114 -0.8343
14 20 -30 -20.2981 0.4646
14 20 -27 13.3353 0.7059
14 20 -24 25.6225 0.2315
14 20 -21 -25.2784 -0.6978
14 20 -18 25.8490 -0.7209
14 20 -15 -33.3112 0.7313
14 20 -12 0.5019 0.6536
14 20 -9 20.2800 -0.6153
14 20 -6 -22.7362 -0.9608
14 20 -3 -8.3166 0.3310
14 20 0 0.0272 1.0412
14 20 3 -24.7319 0.0002
14 20 6 -29.5374 -1.0456
14 20 9 25.1171 -0.1156
14 20 12 1.5973 0.8229
14 20 15 5.8524 0.5144
14 20 18 9.7257 -0.6785
14 20 21 -0.8766 -0.6814
14 20 24 21.5687 0.3971
14 20 27 -5.6213 0.4991
14 20 30 3.8795 -0.5274
14 20 33 -13.4232 -0.5849
14 20 36 13.6981 0.1332
14 20 39 -13.2509 0.1918
14 20 42 5.2969 -0.0761
14 20 45 -1.3086 -1.0306
14 21 -46 -3.1545 1.4819
14 21 -43 -3.9783 -0.4765
14 21 -40 7.3437 -0.1101
14 21 -37 -14.5818 -0.7570
14 21 -34 9.2936 0.7130
14 21 -31 8.4125 0.3840
14 21 -28 10.2955 -0.3092
14 21 -25 33.6200 -0.7702
14 21 -22 26.2798 0.3629
14 21 -19 -7.5443 0.9350
14 21 -16 1.4819 0.1395
14 21 -13 -20.6886 -0.7825
14 21 -10 4.8796 -0.3282
14 21 -7 -35.0339 0.8219
14 21 -4 -35.4477 0.5297
14 21 -1 11.2526 -0.5592
14 21 2 -18.2345 -0.4734
14 21 5 -8.5930 0.2216
14 21 8 24.5714 0.7311
14 21 11 27.8104 -0.3254
14 21 14 27.4382 -1.0895
14 21 17 32.4583 0.1512
14 21 20 -34.8365 0.8026
14 21 23 9.0089 0.5305
14 21 26 -18.9809 -0.9144
14 21 29 -17.4205 -0.3123
14 21 32 -18.3123 0.2455
14 21 35 22.4200 0.8845
14 21 38 -13.4888 0.0560
14 21 41 9.0085 -1.0196
14 21 44 -0.7978 -0.2795
14 22 -44 -5.6667 0.4652
14 22 -41 1.0192 -0.4671
14 22 -38 6.2580 1.0303
14 22 -35 -5.0597 0.0720
14 22 -32 -2.6515 -0.0944
14 22 -29 14.0760 -0.4162
14 22 -26 -4.1367 0.1746
14 22 -23 37.0609 0.9501
14 22 -20 -16.7429 -0.0087
14 22 -17 -27.5702 -0.6265
14 22 -14 2.5987 -0.5279
14 22 -11 -15.7160 0.5442
14 22 -8 -22.7419 0.6556
14 22 -5 -16.8814 -0.4712
14 22 -2 -5.1828 -0.6198
14 22 1 21.0314 0.0193
14 22 4 -0.3916 0.6824
14 22 7 7.3298 0.3300
14 22 10 19.7707 -0.3693
14 22 13 7.3305 -0.4838
14 22 16 1.2764 0.5019
14 22 19 -3.0943 0.5133
14 22 22 1.7418 0.0768
14 22 25 9.5805 -0.6129
14 22 28 7.2472 0.1076
14 22 31 -10.3107 0.2770
14 22 34 -7.2003 0.5832
14 22 37 2.6929 -0.0047
14 22 40 1.5418 -0.7252
14 22 43 -1.5030 -0.0856
14 23 -42 6.9885 0.9682
14 23 -39 -6.1723 -0.3664
14 23 -36 15.5127 0.2643
14 23 -33 -4.5836 -0.6494
14 23 -30 21.4649 -0.1896
14 23 -27 11.3731 0.3931
14 23 -24 5.1800 -0.0450
14 23 -21 -28.5989 -0.7945
14 23 -18 20.1307 -0.1602
14 23 -15 -20.6869 0.6756
14 23 -12 23.2058 0.4876
14 23 -9 -17.9123 -0.5818
14 23 -6 -16.9519 -0.5798
14 23 -3 8.2611 0.4569
14 23 0 18.4772 0.7419
14 23 3 -9.0144 -0.1442
14 23 6 23.8684 -0.9709
14 23 9 1.9047 -0.2167
14 23 12 8.5072 0.7227
14 23 15 -6.8586 0.5990
14 23 18 8.8242 -0.5197
14 23 21 1.5825 -0.5151
14 23 24 -2.8255 0.5644
14 23 27 3.1666 0.4822
14 23 30 0.1044 -0.4078
14 23 33 -19.6141 -0.4459
14 23 36 15.9181 -0.1436
14 23 39 -10.3331 0.9242
14 23 42 2.2606 0.8487
14 24 -40 -2.4478 -1.0209
14 24 -37 1.2311 0.0108
14 24 -34 24.1461 0.3516
14 24 -31 1.8189 -0.3292
14 24 -28 6.0964 -0.1782
14 24 -25 7.0800 0.1384
14 24 -22 -15.7802 0.0037
14 24 -19 -16.1521 0.3144
14 24 -16 2.6702 -0.2955
14 24 -13 -15.5277 -0.1198
14 24 -10 -4.1048 0.1808
14 24 -7 -11.2254 -0.0371
14 24 -4 20.7846 -0.2278
14 24 -1 18.2944 -0.3168
14 24 2 -16.1190 0.4090
14 24 5 11.8429 0.5395
14 24 8 8.9973 -0.3619
14 24 11 -8.1309 -0.5096
14 24 14 -28.4722 0.4086
14 24 17 -5.6840 0.6724
14 24 20 3.7114 -0.3797
14 24 23 -3.2258 -0.5103
14 24 26 3.3108 -0.2246
14 24 29 -5.2150 0.2921
14 24 32 0.6678 0.0140
14 24 35 3.2201 -0.7603
14 24 38 -6.8693 -0.2161
14 24 41 -7.5954 0.8105
14 25 -38 11.2134 0.6786
14 25 -35 -11.0107 -0.0164
14 25 -32 8.6788 -0.7096
14 25 -29 2.9476 0.1456
14 25 -26 -13.0280 0.1055
14 25 -23 -4.6604 0.3380
14 25 -20 -25.1713 -0.2348
14 25 -17 1.2263 -0.5209
14 25 -14 25.5208 0.1840
14 25 -11 -23.7496 0.6611
14 25 -8 10.1631 0.2924
14 25 -5 22.1214 -0.5462
14 25 -2 -3.5044 -0.3787
14 25 1 0.1440 0.5622
14 25 4 -3.4168 0.3522
14 25 7 -6.1160 -0.2792
14 25 10 15.2165 -0.3557
14 25 13 2.3920 0.0726
14 25 16 -10.0113 0.5163
14 25 19 21.4127 -0.3278
14 25 22 1.3914 -0.2721
14 25 25 -21.3301 0.1467
14 25 28 -7.9529 0.2794
14 25 31 2.7079 -0.5858
14 25 34 -0.5447 -0.1295
14 25 37 7.7259 -0.4524
14 25 40 -8.7492 -0.1106
14 26 -36 -1.7756 -0.3593
14 26 -33 1.4832 -0.3795
14 26 -30 -1.9130 0.5239
14 26 -27 -3.2324 0.1040
14 26 -24 -5.2014 -0.5794
14 26 -21 -1.4530 -0.2752
14 26 -18 18.1404 0.5810
14 26 -15 -2.3603 0.4532
14 26 -12 12.4222 -0.3235
14 26 -9 0.2732 -0.6149
14 26 -6 11.6394 0.5204
14 26 -3 14.6990 0.3574
14 26 0 2.8193 -0.2830
14 26 3 -12.8978 -0.5978
14 26 6 1.5593 0.3680
14 26 9 -10.8102 0.5835
14 26 12 18.9683 -0.3235
14 26 15 -6.6037 -0.3697
14 26 18 -2.7139 -0.2745
14 26 21 0.5341 -0.1717
14 26 24 -11.6671 -0.3559
14 26 27 -19.1447 -0.0029
14 26 30 8.6858 -0.9902
14 26 33 -15.8429 0.9468
14 26 36 17.7696 1.1635
14 27 -34 6.3021 0.3192
14 27 -31 -9.3977 -0.2831
14 27 -28 13.4966 -0.7078
14 27 -25 1.1898 -0.1412
14 27 -22 6.3656 0.1270
14 27 -19 18.1527 0.1665
14 27 -16 7.0616 0.0401
14 27 -13 -4.6509 -0.5090
14 27 -10 7.3328 -0.0109
14 27 -7 -8.6491 0.4148
14 27 -4 -13.0246 -0.0330
14 27 -1 3.5339 -0.3309
14 27 2 -18.5599 -0.1539
14 27 5 13.8604 0.4964
14 27 8 3.4371 0.0625
14 27 11 -15.8534 -0.4927
14 27 14 9.2629 -0.1111
14 27 17 4.4013 0.3321
14 27 20 -11.8004 0.7790
14 27 23 2.4990 -0.6709
14 27 26 -10.5962 0.2202
14 27 29 0.8462 0.1967
14 27 32 5.7677 0.0617
14 27 35 -5.8075 1.0641
14 28 -32 9.0367 -0.7718
14 28 -29 0.1755 0.2590
14 28 -26 -7.4169 0.7614
14 28 -23 6.7658 -0.1938
14 28 -20 4.0384 -0.5762
14 28 -17 15.1211 -0.3606
14 28 -14 -4.0347 0.7987
14 28 -11 -9.6777 0.7678
14 28 -8 10.9779 -0.7092
14 28 -5 5.2717 -0.8245
14 28 -2 -13.8113 0.2598
14 28 1 9.3714 0.7955
14 28 4 0.5805 -0.0773
14 28 7 14.2464 -0.4735
14 28 10 -11.4545 0.0756
14 28 13 -1.9907 0.5205
14 28 16 -2.0668 -0.3630
14 28 19 -12.6037 -0.3045
14 28 22 -6.3034 -0.8181
14 28 25 -2.9682 -0.4734
14 28 28 -0.5504 0.3632
14 28 31 27.9647 -0.6880
14 28 34 -12.2664 -0.2896
14 29 -30 12.9856 -0.1245
14 29 -27 -3.8866 -0.1805
14 29 -24 3.8841 -0.8646
14 29 -21 2.9575 0.2129
14 29 -18 2.4770 0.0541
14 29 -15 -1.9268 0.3072
14 29 -12 1.9639 0.0745
14 29 -9 7.6776 -0.1125
14 29 -6 -4.2310 -0.1284
14 29 -3 -1.7516 0.2155
14 29 0 -3.1669 0.3885
14 29 3 -17.1290 -0.1769
14 29 6 6.0170 -0.1700
14 29 9 -10.2501 0.4470
14 29 12 -1.8671 0.2617
14 29 15 -1.4420 -0.0509
14 29 18 -8.5658 0.0017
14 29 21 7.9948 0.2492
14 29 24 -0.9163 -0.1643
14 29 27 -4.8177 0.1784
14 29 30 13.8655 0.2641
14 30 -28 -1.9799 -0.0671
14 30 -25 -2.5604 -0.0506
14 30 -22 7.5077 0.3658
14 30 -19 -0.0789 -0.3665
14 30 -16 -3.5587 -0.2419
14 30 -13 6.5304 0.3315
14 30 -10 -1.2876 0.0440
14 30 -7 -7.4702 -0.5149
14 30 -4 4.3788 -0.5039
14 30 -1 22.5159 -0.0661
14 30 2 -11.9646 0.5690
14 30 5 5.1343 0.2537
14 30 8 3.9259 -0.2572
14 30 11 -3.9751 0.0104
14 30 14 8.3544 -0.2251
14 30 17 2.3528 -0.2870
14 30 20 -1.8899 -0.1920
14 30 23 14.3825 -0.3000
14 30 26 8.1760 -1.2401
14 30 29 -3.3523 0.0818
14 31 -26 2.9718 -0.9585
14 31 -23 -3.2131 0.8705
14 31 -20 2.6244 -0.6667
14 31 -17 8.1041 0.2642
14 31 -14 11.7094 1.0641
14 31 -11 -4.6299 0.4247
14 31 -8 2.6232 -0.7719
14 31 -5 3.5701 -0.3000
14 31 -2 -4.5097 0.0729
14 31 1 -1.7533 0.3409
14 31 4 -3.9103 0.1055
14 31 7 -7.6456 -0.5947
14 31 10 -4.6540 0.0198
14 31 13 -10.9034 0.7730
14 31 16 1.4797 -1.0012
14 31 19 2.2881 -0.6651
14 31 22 -1.2102 1.3720
14 31 25 13.8847 -0.5770
14 32 -21 5.5143 -0.5949
14 32 -18 9.7186 0.6803
14 32 -15 -10.1369 0.5464
14 32 -12 -11.1124 0.3354
14 32 -9 -3.1007 -0.5730
14 32 -6 -7.7815 -0.3553
14 32 -3 -4.8071 0.0435
14 32 0 -2.8634 0.4466
14 32 3 -0.0495 0.5214
14 32 6 5.9529 -0.4286
14 32 9 4.5604 -0.1704
14 32 12 0.2157 0.4657
14 32 15 9.0951 0.4076
14 32 18 10.9093 -1.6192
14 32 21 -7.6200 0.3775
14 33 -19 6.7866 -0.2228
14 33 -16 1.6703 0.9173
14 33 -13 -5.7290 -0.4698
14 33 -10 -0.2755 -0.1124
14 33 -7 -2.0620 -0.1347
14 33 -4 -3.1798 -0.5768
14 33 -1 -5.8648 0.3297
14 33 2 -0.3401 1.0163
14 33 5 1.7858 -0.4456
14 33 8 4.5028 -1.2047
14 33 11 -6.5485 0.3487
14 33 14 7.0313 1.1407
14 33 17 1.9871 -0.6588
14 34 -14 -15.6865 -0.3928
14 34 -11 -10.6452 0.1596
14 34 -8 -6.1522 -0.4313
14 34 -5 0.2069 -0.7490
14 34 -2 4.2091 0.2950
14 34 1 6.6339 0.9253
14 34 4 -2.7769 0.0069
14 34 7 0.3060 -0.8703
14 34 10 -0.7741 -0.5265
14 34 13 -2.6718 0.9923
14 35 -3 6.3382 0.5174
14 35 0 0.8501 0.3058
14 35 3 0.2446 -0.1219
15 1 -58 4.4801 -0.2197
15 1 -55 -0.8178 1.7630
15 1 -52 -20.3976 0.1741
15 1 -49 -1.3485 -2.1218
15 1 -46 -11.8010 -0.4884
15 1 -43 -23.2185 2.2235
15 1 -40 -14.0749 1.0860
15 1 -37 -14.2698 -1.8022
15 1 -34 -28.4783 -1.8133
15 1 -31 -12.8586 1.6832
15 1 -28 4.8021 2.8386
15 1 -25 -23.9168 -1.1554
15 1 -22 36.3927 -3.1037
15 1 -19 5.9319 0.5766
15 1 -16 1.5516 3.6562
15 1 -13 184.1020 0.4542
15 1 -10 -2.1280 -3.9432
15 1 -7 116.7043 -2.3282
15 1 -4 76.0581 2.8643
15 1 -1 -2.7829 2.4117
15 1 2 14.5011 -2.7952
15 1 5 -158.5200 -4.0826
15 1 8 -250.6422 1.0616
15 1 11 21.4085 4.0469
15 1 14 66.5660 -0.5781
15 1 17 -8.5024 -4.2647
15 1 20 32.3324 0.5365
15 1 23 8.8232 4.5248
15 1 26 -10.9845 0.6946
15 1 29 38.5934 -3.4400
15 1 32 -43.1943 -1.3034
15 1 35 88.7716 2.1944
15 1 38 -7.4093 1.7561
15 1 41 -7.1480 -1.4083
15 1 44 8.7024 -2.3765
15 1 47 5.5798 0.8358
15 1 50 -11.6369 2.2254
15 1 53 -5.6246 0.0033
15 1 56 -4.8213 -2.4347
15 1 59 -6.8691 -0.3358
15 2 -59 4.5516 -0.7551
15 2 -56 2.9838 -1.7300
15 2 -53 -14.8315 -0.5303
15 2 -50 -5.8278 1.0618
15 2 -47 0.1329 0.9934
15 2 -44 -17.4863 -1.0310
15 2 -41 3.2210 -1.4920
15 2 -38 19.6170 0.3756
15 2 -35 9.1623 1.6878
15 2 -32 65.9340 0.3468
15 2 -29 -5.0109 -1.5402
15 2 -26 32.8760 -1.1333
15 2 -23 23.7766 1.1788
15 2 -20 15.0118 2.1812
15 2 -17 -2.8430 -0.0075
15 2 -14 33.0749 -2.2225
15 2 -11 -151.3262 -0.6142
15 2 -8 16.5687 1.9978
15 2 -5 -110.9321 1.2813
15 2 -2 -119.0607 -1.6334
15 2 1 6.9799 -2.4425
15 2 4 -17.3368 0.6349
15 2 7 -21.8256 2.9985
15 2 10 111.8298 -0.1429
15 2 13 -19.7027 -3.6609
15 2 16 135.6211 -1.1350
15 2 19 36.0055 2.6550
15 2 22 67.9156 1.1542
15 2 25 46.7605 -1.9370
15 2 28 45.6804 -1.5764
15 2 31 -84.3067 0.8391
15 2 34 -32.7939 1.7746
15 2 37 -38.7308 0.1439
15 2 40 9.3163 -1.8226
15 2 43 -12.0799 -0.3880
15 2 46 4.6745 1.6915
15 2 49 -1.6033 0.8445
15 2 52 -3.4884 -1.3388
15 2 55 12.0788 -0.8598
15 2 58 -5.9903 0.8319
15 3 -57 -3.2233 -0.3058
15 3 -54 -9.5215 -2.1841
15 3 -51 -2.5759 0.1041
15 3 -48 -18.7057 2.4641
15 3 -45 9.4341 0.9901
15 3 -42 -5.1761 -3.0907
15 3 -39 15.3142 -1.6092
15 3 -36 16.3211 3.3796
15 3 -33 -7.2259 3.1624
15 3 -30 25.1423 -2.7453
15 3 -27 -19.6309 -4.1225
15 3 -24 27.5899 2.4584
15 3 -21 -34.5292 5.4826
15 3 -18 46.3542 -1.0894
15 3 -15 -31.2269 -6.2145
15 3 -12 -83.0538 -0.9763
15 3 -9 92.5647 5.9995
15 3 -6 -25.8183 2.6126
15 3 -3 100.9793 -5.7754
15 3 0 -66.5558 -5.0861
15 3 3 -50.6582 3.7884
15 3 6 -48.5261 5.5106
15 3 9 55.3159 -2.5494
15 3 12 -105.2912 -6.1914
15 3 15 63.3412 0.5728
15 3 18 -1.2166 5.8174
15 3 21 11.4539 1.3947
15 3 24 16.0881 -4.6978
15 3 27 17.6887 -2.5130
15 3 30 15.9219 3.8787
15 3 33 -4.5057 3.7487
15 3 36 -22.6364 -2.1710
15 3 39 -10.5435 -3.7806
15 3 42 -16.2085 1.1633
15 3 45 -0.1820 3.4006
15 3 48 15.3803 0.2967
15 3 51 -6.0184 -2.4603
15 3 54 0.9700 -0.7462
15 3 57 -1.6146 1.1138
15 4 -58 1.4732 -0.1196
15 4 -55 4.2402 -0.0184
15 4 -52 -3.7814 0.2719
15 4 -49 -3.1960 0.2954
15 4 -46 5.3339 0.0380
15 4 -43 -6.7019 -0.4247
15 4 -40 4.6902 -0.0661
15 4 -37 19.2922 0.4372
15 4 -34 -37.5621 0.1856
15 4 -31 63.2402 -0.3473
15 4 -28 -21.1871 -0.2648
15 4 -25 41.4400 0.2116
15 4 -22 14.6999 0.3264
15 4 -19 -16.5067 -0.1854
15 4 -16 -62.9150 -0.3472
15 4 -13 -11.7294 -0.0789
15 4 -10 -57.6110 0.1506
15 4 -7 -6.8137 0.1542
15 4 -4 -80.2978 -0.0863
15 4 -1 -97.5265 -0.7159
15 4 2 -33.2102 -0.1668
15 4 5 39.8439 0.5578
15 4 8 35.0944 0.2328
15 4 11 138.1494 -0.0200
15 4 14 48.5559 -0.3810
15 4 17 -3.0766 -0.1532
15 4 20 42.5208 0.7455
15 4 23 9.6175 0.1518
15 4 26 -42.2992 -1.0514
15 4 29 20.7328 -0.3567
15 4 32 -21.4817 0.7330
15 4 35 -15.5765 0.5234
15 4 38 -11.7001 -0.0209
15 4 41 -12.9345 -0.7080
15 4 44 -12.5732 -0.3255
15 4 47 7.4635 1.0195
15 4 50 -24.5745 0.5184
15 4 53 8.0091 -0.3889
15 4 56 1.2550 -1.2480
15 4 59 -11.5622 0.9331
15 5 -56 -3.9637 -0.1235
15 5 -53 1.3621 1.6681
15 5 -50 -17.3597 0.9371
15 5 -47 18.7184 -1.2231
15 5 -44 -4.0647 -1.0882
15 5 -41 15.1560 1.3246
15 5 -38 39.7640 1.6184
15 5 -35 -1.8068 -1.1469
15 5 -32 72.2145 -2.0026
15 5 -29 -24.7146 0.5427
15 5 -26 -22.7262 2.1911
15 5 -23 45.0923 0.0369
15 5 -20 -113.5174 -2.4433
15 5 -17 -87.1538 -0.7778
15 5 -14 0.8865 2.2521
15 5 -11 -79.1449 0.9933
15 5 -8 13.0143 -2.9913
15 5 -5 13.6279 -2.1796
15 5 -2 -45.1497 1.8648
15 5 1 147.7285 2.1823
15 5 4 -25.4327 -1.3823
15 5 7 -15.0604 -2.6278
15 5 10 40.7258 0.2768
15 5 13 13.7460 2.2878
15 5 16 40.0764 0.8635
15 5 19 -18.5516 -1.8816
15 5 22 15.0829 -1.0749
15 5 25 -39.1451 1.9628
15 5 28 -91.3600 1.7449
15 5 31 17.4514 -1.2467
15 5 34 -37.8361 -1.8204
15 5 37 29.3131 0.8106
15 5 40 -8.3723 1.5780
15 5 43 -24.9096 -0.2638
15 5 46 4.3311 -1.8620
15 5 49 -4.9954 -0.1431
15 5 52 -9.7334 1.5603
15 5 55 1.7790 1.1474
15 5 58 -7.6348 -0.3888
15 6 -57 -0.6340 -1.2320
15 6 -54 -7.4218 -0.6588
15 6 -51 6.6741 1.0506
15 6 -48 -7.8860 0.4721
15 6 -45 26.9093 -0.8471
15 6 -42 -19.0685 -1.0922
15 6 -39 5.8324 0.6071
15 6 -36 5.5169 1.3061
15 6 -33 6.3539 -0.6840
15 6 -30 -23.3618 -1.5237
15 6 -27 -1.4949 0.3932
15 6 -24 -16.9676 1.8412
15 6 -21 -23.7333 0.1433
15 6 -18 -80.6305 -1.6503
15 6 -15 2.5453 -0.3878
15 6 -12 93.1385 1.5023
15 6 -9 38.8534 1.1365
15 6 -6 -14.9265 -1.0063
15 6 -3 -6.3835 -1.0833
15 6 0 -33.1736 1.2597
15 6 3 1.0939 1.9220
15 6 6 -7.6466 -0.4569
15 6 9 29.2354 -1.5427
15 6 12 42.4446 0.3218
15 6 15 69.8625 1.7765
15 6 18 -87.9155 0.0479
15 6 21 44.3899 -1.5650
15 6 24 20.2656 -0.2136
15 6 27 -60.0136 1.2626
15 6 30 -14.2178 0.6494
15 6 33 -58.9315 -1.1818
15 6 36 -7.5277 -0.9647
15 6 39 4.1225 0.9972
15 6 42 -4.8809 1.0431
15 6 45 -0.8968 -0.9135
15 6 48 10.6020 -1.1435
15 6 51 7.3693 0.1981
15 6 54 -10.5771 0.1889
15 6 57 5.5166 -0.5150
15 7 -55 12.3434 0.0730
15 7 -52 -12.6722 -1.0632
15 7 -49 2.1490 0.5076
15 7 -46 -9.4136 0.6913
15 7 -43 10.4119 -0.3800
15 7 -40 -3.3037 -1.1930
15 7 -37 31.0553 -0.3208
15 7 -34 9.4928 0.9812
15 7 -31 2.1946 0.3135
15 7 -28 -2.5908 -0.9854
15 7 -25 -27.4552 -0.8438
15 7 -22 -99.7512 0.8486
15 7 -19 -48.6802 1.6916
15 7 -16 -60.7359 -0.3852
15 7 -13 64.4124 -1.6793
15 7 -10 -32.3592 -0.0359
15 7 -7 4.5468 1.6360
15 7 -4 -44.4835 0.3720
15 7 -1 60.0567 -1.3998
15 7 2 38.3115 -0.9511
15 7 5 46.6702 0.8714
15 7 8 -19.3847 1.1848
15 7 11 40.0374 -0.7674
15 7 14 57.4095 -1.5876
15 7 17 -49.5296 0.3688
15 7 20 9.3240 1.5534
15 7 23 17.6164 0.1361
15 7 26 -24.1001 -1.2562
15 7 29 24.8060 -0.7826
15 7 32 -17.4124 0.7513
15 7 35 5.3662 1.1401
15 7 38 -15.8548 -0.3189
15 7 41 17.1818 -1.0321
15 7 44 -6.7412 0.4410
15 7 47 4.3986 1.0585
15 7 50 19.3887 0.1130
15 7 53 -22.3027 -0.4219
15 7 56 -1.5370 -0.7564
15 8 -56 5.6639 0.2656
15 8 -53 2.0797 0.5277
15 8 -50 1.8165 0.6000
15 8 -47 4.7451 -0.2217
15 8 -44 4.4548 -0.4745
15 8 -41 15.7888 -0.1385
15 8 -38 -11.5514 0.9633
15 8 -35 -1.9383 0.5269
15 8 -32 -36.9017 -0.5980
15 8 -29 -52.7178 -0.7063
15 8 -26 -15.1735 0.6887
15 8 -23 2.5690 1.2946
15 8 -20 -73.2588 -0.1904
15 8 -17 106.2380 -1.0221
15 8 -14 74.6493 -0.1053
15 8 -11 -27.5599 1.0930
15 8 -8 84.5802 0.6754
15 8 -5 -40.5473 -0.9802
15 8 -2 -6.2075 -1.1826
15 8 1 50.8740 0.7137
15 8 4 -77.2176 1.2243
15 8 7 47.4583 -0.5018
15 8 10 46.3887 -1.9177
15 8 13 -62.1394 -0.3088
15 8 16 14.5413 1.4426
15 8 19 -29.4747 0.3345
15 8 22 -52.8265 -1.5597
15 8 25 -22.5579 -0.8905
15 8 28 -21.1574 1.1242
15 8 31 16.7233 0.8561
15 8 34 -9.6147 -1.1486
15 8 37 -30.3339 -1.2125
15 8 40 5.9679 0.3811
15 8 43 -0.1623 1.2536
15 8 46 -9.3898 -0.3341
15 8 49 4.5604 -0.9781
15 8 52 -20.3381 -0.3768
15 8 55 5.3083 1.6303
15 9 -54 -10.8926 -0.0041
15 9 -51 11.0446 0.2149
15 9 -48 -11.6280 -1.0759
15 9 -45 12.8593 -0.2352
15 9 -42 -10.4488 0.8980
15 9 -39 4.7063 0.5974
15 9 -36 16.1637 -0.5433
15 9 -33 -12.2427 -0.9361
15 9 -30 5.3349 0.3446
15 9 -27 13.5216 1.2022
15 9 -24 -73.2903 0.0140
15 9 -21 18.4197 -1.3793
15 9 -18 -1.3591 -0.3355
15 9 -15 65.7449 1.5864
15 9 -12 -20.0541 0.7064
15 9 -9 -66.7797 -0.9646
15 9 -6 -10.7430 -1.1569
15 9 -3 64.9376 0.5094
15 9 0 -9.4957 1.3700
15 9 3 32.7414 -0.0263
15 9 6 -2.6993 -1.5758
15 9 9 58.3465 -0.4869
15 9 12 -72.7003 1.1037
15 9 15 -18.7325 0.7836
15 9 18 13.6262 -1.1947
15 9 21 -18.7345 -1.0765
15 9 24 -6.1935 0.5507
15 9 27 -21.5253 1.0736
15 9 30 -15.1824 -0.0317
15 9 33 63.3667 -1.1577
15 9 36 -1.6393 -0.4766
15 9 39 14.0736 0.8630
15 9 42 8.2785 0.2931
15 9 45 -2.1571 -0.7021
15 9 48 1.6420 -0.6714
15 9 51 -4.3138 0.2824
15 9 54 -2.1820 0.5424
15 10 -55 20.2347 -0.3347
15 10 -52 -3.3835 -0.4019
15 10 -49 5.2581 1.1733
15 10 -46 -6.2315 0.1756
15 10 -43 0.3429 -0.5305
15 10 -40 -5.9864 -0.6048
15 10 -37 1.2109 0.6637
15 10 -34 -46.8279 1.0015
15 10 -31 -17.9941 -0.2826
15 10 -28 -1.2785 -0.7112
15 10 -25 -72.1900 0.1180
15 10 -22 29.2415 0.9355
15 10 -19 60.6528 0.3589
15 10 -16 8.5440 -0.6053
15 10 -13 52.3515 -0.6043
15 10 -10 -16.2654 0.2008
15 10 -7 -26.0145 0.6226
15 10 -4 83.9146 -0.0932
15 10 -1 5.1578 -0.7658
15 10 2 -18.1709 -0.0780
15 10 5 -38.5861 0.3847
15 10 8 -14.6579 0.1171
15 10 11 -10.0587 -0.4467
15 10 14 -48.0050 -0.4711
15 10 17 -17.8816 -0.0001
15 10 20 11.7576 0.3584
15 10 23 20.6804 0.2055
15 10 26 32.2993 -0.4934
15 10 29 -51.5681 -0.2388
15 10 32 29.8286 0.3965
15 10 35 -7.3464 0.4573
15 10 38 -20.2345 0.0354
15 10 41 2.5331 -0.2130
15 10 44 -11.5193 -0.0247
15 10 47 -21.0009 0.1449
15 10 50 -6.3133 0.2899
15 10 53 -10.9880 -1.2660
15 10 56 -2.0446 -1.7000
15 11 -53 -7.2450 0.3967
15 11 -50 0.4762 -0.3753
15 11 -47 -8.4960 -0.5106
15 11 -44 -3.1424 0.0142
15 11 -41 18.2001 0.0496
15 11 -38 -19.2185 0.2362
15 11 -35 -5.3986 0.0112
15 11 -32 31.0921 -0.2991
15 11 -29 -17.8685 0.0389
15 11 -26 53.0701 0.5700
15 11 -23 17.2513 0.2230
15 11 -20 -8.5782 -0.4992
15 11 -17 41.7081 -0.2211
15 11 -14 -42.9670 -0.0051
15 11 -11 -27.2921 0.2144
15 11 -8 57.6095 0.0333
15 11 -5 -20.4818 -0.3884
15 11 -2 7.8978 -0.3273
15 11 1 67.3196 0.4046
15 11 4 -95.7148 0.0840
15 11 7 30.7610 -0.4376
15 11 10 -9.1951 -0.3019
15 11 13 -62.2268 0.2978
15 11 16 41.3006 0.3442
15 11 19 -50.1536 -0.2203
15 11 22 -34.8461 -0.4692
15 11 25 42.3608 -0.2289
15 11 28 -27.5927 0.2821
15 11 31 21.5701 0.1961
15 11 34 -5.6721 -0.1471
15 11 37 -4.4707 -0.3038
15 11 40 2.4247 0.2003
15 11 43 7.0634 0.6526
15 11 46 -6.8886 -0.0027
15 11 49 5.3541 -0.2078
15 11 52 6.3930 0.2394
15 11 55 -7.1241 1.4128
15 12 -54 2.7399 -1.1442
15 12 -51 0.4422 -0.1468
15 12 -48 -4.0992 0.1619
15 12 -45 4.0369 0.8526
15 12 -42 -14.8023 0.5504
15 12 -39 8.0232 -0.4397
15 12 -36 -33.6873 -0.4067
15 12 -33 35.8599 0.4958
15 12 -30 -46.3556 0.6376
15 12 -27 -20.5972 -0.3700
15 12 -24 7.1246 -0.7615
15 12 -21 23.7085 0.1536
15 12 -18 14.0664 1.0814
15 12 -15 45.4402 0.0955
15 12 -12 12.5637 -0.9655
15 12 -9 54.1266 -0.3921
15 12 -6 70.2852 0.7112
15 12 -3 -28.1189 0.6005
15 12 0 -68.0133 -0.6422
15 12 3 -16.9545 -0.7707
15 12 6 -66.5597 0.4597
15 12 9 17.0884 0.7506
15 12 12 -30.1420 -0.5552
15 12 15 41.0924 -0.8577
15 12 18 24.0097 -0.2153
15 12 21 -18.9297 0.5911
15 12 24 21.3557 0.2053
15 12 27 38.3976 -0.7043
15 12 30 -0.7093 -0.6182
15 12 33 -2.9087 0.6393
15 12 36 6.3791 0.6057
15 12 39 -9.7894 -0.8086
15 12 42 3.0397 -0.5258
15 12 45 3.2530 -0.0769
15 12 48 -16.6388 -0.0016
15 12 51 6.7639 0.0510
15 12 54 -6.1289 0.0658
15 13 -52 -16.1135 -0.2835
15 13 -49 10.0779 0.7848
15 13 -46 7.7950 -0.1972
15 13 -43 -15.4459 -0.5855
15 13 -40 26.0245 0.0678
15 13 -37 -7.9108 0.5777
15 13 -34 7.8336 0.3261
15 13 -31 31.1793 -0.4401
15 13 -28 27.9009 -0.4001
15 13 -25 -1.7303 0.1956
15 13 -22 67.3624 0.4858
15 13 -19 -17.8123 -0.0902
15 13 -16 6.1821 -0.5109
15 13 -13 9.7497 -0.2201
15 13 -10 -38.0318 0.1461
15 13 -7 -15.0407 0.1039
15 13 -4 -8.3324 -0.1808
15 13 -1 -109.6496 -0.5112
15 13 2 4.2869 -0.2787
15 13 5 9.0291 0.4889
15 13 8 15.2430 0.5096
15 13 11 37.5012 -0.3637
15 13 14 7.9150 -0.5419
15 13 17 58.2909 0.0943
15 13 20 44.6867 0.6440
15 13 23 -43.1350 -0.0512
15 13 26 -8.3124 -0.6231
15 13 29 -22.7446 -0.2439
15 13 32 -16.4175 0.4818
15 13 35 -3.0737 0.8198
15 13 38 -9.3629 -0.2855
15 13 41 -15.8884 -0.9601
15 13 44 8.3365 0.1088
15 13 47 -19.5799 0.6283
15 13 50 -1.8972 -0.3250
15 13 53 6.2267 -1.7938
15 14 -50 2.0860 0.3850
15 14 -47 -1.2125 0.3327
15 14 -44 -2.5993 0.0640
15 14 -41 9.9093 0.3071
15 14 -38 -2.4015 0.0352
15 14 -35 -0.1377 -0.2734
15 14 -32 8.0605 -0.2464
15 14 -29 -14.2732 0.1431
15 14 -26 28.4091 0.3504
15 14 -23 -25.0616 -0.2607
15 14 -20 26.5836 -0.4104
15 14 -17 48.7585 0.2137
15 14 -14 30.0613 0.5859
15 14 -11 18.2108 0.0214
15 14 -8 29.1473 -0.6412
15 14 -5 -43.9233 -0.1879
15 14 -2 -3.7172 0.8448
15 14 1 -14.5715 0.5412
15 14 4 -46.3337 -0.4267
15 14 7 28.6013 -0.4117
15 14 10 17.4052 0.4210
15 14 13 -54.9925 0.6717
15 14 16 9.5111 -0.2172
15 14 19 17.5872 -0.6973
15 14 22 5.4695 -0.0069
15 14 25 6.3986 0.9232
15 14 28 21.3352 0.2843
15 14 31 -5.3111 -0.8898
15 14 34 9.9606 -0.4103
15 14 37 -6.8030 0.8369
15 14 40 9.9493 0.8906
15 14 43 20.1328 0.0948
15 14 46 4.5387 -0.2711
15 14 49 -3.9705 -0.1380
15 14 52 4.8518 0.8608
15 15 -51 -6.4100 -0.3967
15 15 -48 -4.0544 0.4129
15 15 -45 0.8933 0.3298
15 15 -42 8.7124 0.1425
15 15 -39 17.0510 -0.6623
15 15 -36 23.5865 0.0303
15 15 -33 27.7610 0.7715
15 15 -30 14.0312 0.4014
15 15 -27 45.9491 -0.6325
15 15 -24 17.3944 -0.4950
15 15 -21 -3.9026 0.3257
15 15 -18 7.2199 0.9897
15 15 -15 -16.4870 -0.1579
15 15 -12 -41.8597 -0.8122
15 15 -9 -50.9470 -0.3096
15 15 -6 -57.0256 0.6059
15 15 -3 -31.2019 0.4748
15 15 0 -9.4193 -0.5089
15 15 3 50.5424 -0.7448
15 15 6 16.1477 0.1052
15 15 9 48.5422 0.9092
15 15 12 15.6859 0.0909
15 15 15 9.3594 -0.8573
15 15 18 3.9614 -0.3369
15 15 21 31.1588 0.8141
15 15 24 -22.6373 0.4509
15 15 27 41.3180 -0.4116
15 15 30 -42.8634 -0.7054
15 15 33 10.9055 -0.0958
15 15 36 -6.2520 0.7207
15 15 39 -11.8099 0.1948
15 15 42 -29.1542 -0.7634
15 15 45 -2.2794 -0.3510
15 15 48 -13.1181 1.2578
15 15 51 2.9942 1.8284
15 16 -49 -3.2629 0.9693
15 16 -46 3.3514 -0.3183
15 16 -43 -5.2975 -0.6874
15 16 -40 9.6308 -0.0634
15 16 -37 -1.4567 0.3710
15 16 -34 -1.6479 0.2837
15 16 -31 12.9019 -0.4381
15 16 -28 -10.2785 -0.4811
15 16 -25 -30.6907 0.3956
15 16 -22 47.6350 0.6857
15 16 -19 -66.4120 -0.2673
15 16 -16 41.8813 -0.7252
15 16 -13 -18.3436 -0.0389
15 16 -10 -12.1038 0.7785
15 16 -7 9.9924 0.4050
15 16 -4 89.1910 -0.5880
15 16 -1 -41.3606 -0.4627
15 16 2 68.1281 0.2984
15 16 5 -11.2454 0.8343
15 16 8 -53.1251 -0.1400
15 16 11 6.5256 -0.8802
15 16 14 -7.0803 -0.0164
15 16 17 -37.9301 0.5903
15 16 20 -4.2957 0.2142
15 16 23 -54.3272 -0.6145
15 16 26 16.8549 -0.3701
15 16 29 -6.5234 0.1399
15 16 32 0.2227 0.1839
15 16 35 0.5228 -0.2973
15 16 38 18.7311 -0.2753
15 16 41 -17.4016 -0.1650
15 16 44 5.7372 -0.2487
15 16 47 15.8210 0.1947
15 16 50 -4.1422 -0.6241
15 17 -50 1.2084 0.5253
15 17 -47 -0.6743 0.1609
15 17 -44 10.1902 -0.0177
15 17 -41 -7.0227 0.4221
15 17 -38 27.4807 0.2632
15 17 -35 -6.3409 0.1720
15 17 -32 21.2891 0.1751
15 17 -29 4.9317 -0.4392
15 17 -26 3.1503 0.2127
15 17 -23 7.1022 0.2695
15 17 -20 21.5296 0.0282
15 17 -17 -21.8983 -0.2802
15 17 -14 -11.3572 -0.2428
15 17 -11 -39.1748 0.0682
15 17 -8 9.4981 0.4405
15 17 -5 -21.5307 -0.3520
15 17 -2 -25.9228 -0.5578
15 17 1 -2.6806 0.1753
15 17 4 28.5563 0.6433
15 17 7 6.0806 0.0274
15 17 10 13.0576 -0.5744
15 17 13 32.5957 0.1194
15 17 16 42.1874 0.2352
15 17 19 31.4293 0.3068
15 17 22 6.2172 -0.1989
15 17 25 -0.0918 -0.1722
15 17 28 -3.3292 0.1872
15 17 31 -3.5332 0.5252
15 17 34 -20.6867 -0.1643
15 17 37 3.1333 -0.2032
15 17 40 6.1143 0.1897
15 17 43 -13.5897 0.0795
15 17 46 12.6953 -0.9042
15 17 49 -16.5614 -1.5035
15 18 -48 -6.1120 0.1252
15 18 -45 17.5130 -0.2846
15 18 -42 5.5024 -0.1558
15 18 -39 2.3828 -0.4249
15 18 -36 17.6253 0.1439
15 18 -33 -13.5552 0.4080
15 18 -30 -6.9512 -0.1601
15 18 -27 2.4356 -0.5028
15 18 -24 -59.9984 -0.2112
15 18 -21 2.2683 0.3539
15 18 -18 0.2899 0.3395
15 18 -15 -20.6971 -0.4647
15 18 -12 28.4129 -0.4182
15 18 -9 17.1285 -0.0211
15 18 -6 52.1748 0.2584
15 18 -3 17.6402 0.1900
15 18 0 13.5931 -0.3908
15 18 3 33.0115 -0.4564
15 18 6 -12.7536 0.1851
15 18 9 -16.9975 0.2340
15 18 12 -0.6693 -0.1586
15 18 15 -1.4022 -0.3833
15 18 18 2.2638 -0.1578
15 18 21 6.9612 0.4699
15 18 24 -31.8957 0.2936
15 18 27 11.1586 -0.1828
15 18 30 -19.1288 -0.2598
15 18 33 -3.3585 0.5216
15 18 36 -22.8410 0.3037
15 18 39 8.9149 0.0709
15 18 42 -9.6967 0.2907
15 18 45 19.9409 0.3104
15 18 48 -9.3986 0.8748
15 19 -46 12.4233 -0.4739
15 19 -43 3.5773 0.1988
15 19 -40 5.6340 -0.4307
15 19 -37 -5.0324 0.3134
15 19 -34 10.2921 0.1080
15 19 -31 -11.3116 -0.1530
15 19 -28 5.8998 0.0371
15 19 -25 -12.1102 0.0085
15 19 -22 23.5549 -0.1690
15 19 -19 -13.4280 -0.1409
15 19 -16 29.8402 0.0564
15 19 -13 -9.2514 -0.0158
15 19 -10 27.1616 0.0058
15 19 -7 10.6472 0.0349
15 19 -4 3.7880 -0.1140
15 19 -1 -43.3698 0.1156
15 19 2 11.2062 0.3070
15 19 5 5.7519 0.1751
15 19 8 -11.4625 -0.1876
15 19 11 27.1674 -0.1998
15 19 14 5.9781 0.2460
15 19 17 -11.7994 0.1490
15 19 20 14.9508 -0.0077
15 19 23 -10.3028 -0.1909
15 19 26 11.2733 0.0433
15 19 29 -9.0973 0.0574
15 19 32 11.9881 0.3378
15 19 35 -7.5787 -0.2226
15 19 38 -1.3072 -0.0559
15 19 41 10.4225 0.7061
15 19 44 0.4834 0.0411
15 19 47 6.9135 0.8745
15 20 -44 1.2894 0.0646
15 20 -41 -1.6047 0.4481
15 20 -38 -2.0534 -0.0129
15 20 -35 -11.0953 -0.1613
15 20 -32 -3.4508 -0.3284
15 20 -29 -23.7702 0.4064
15 20 -26 -8.0245 0.2296
15 20 -23 4.1587 -0.0521
15 20 -20 -5.1537 -0.1350
15 20 -17 -14.1005 -0.0293
15 20 -14 26.6674 0.3489
15 20 -11 3.1154 0.1611
15 20 -8 30.6650 0.0464
15 20 -5 -18.6972 -0.1318
15 20 -2 41.1739 -0.0418
15 20 1 19.6436 -0.0418
15 20 4 12.5210 0.0629
15 20 7 17.1186 -0.0519
15 20 10 15.2484 -0.4009
15 20 13 4.6601 0.1804
15 20 16 -2.6534 0.3099
15 20 19 -45.9256 -0.1878
15 20 22 -3.1318 -0.1262
15 20 25 -15.9544 -0.1835
15 20 28 -10.1587 -0.1904
15 20 31 10.9921 0.0049
15 20 34 10.1420 0.1796
15 20 37 -12.0981 -0.5689
15 20 40 14.8837 -0.9915
15 20 43 -17.1274 0.0904
15 20 46 1.9779 -1.0460
15 21 -45 15.4604 0.9044
15 21 -42 1.8631 -0.9756
15 21 -39 1.2801 0.8611
15 21 -36 2.7320 0.2628
15 21 -33 -13.7429 0.4255
15 21 -30 10.5197 -0.4051
15 21 -27 4.3033 -0.0371
15 21 -24 -7.2995 0.3388
15 21 -21 43.3557 0.3931
15 21 -18 -9.6518 0.0985
15 21 -15 6.7829 -0.3976
15 21 -12 43.4563 -0.1176
15 21 -9 -0.1518 0.6483
15 21 -6 -13.0346 0.4219
15 21 -3 23.5572 -0.4208
15 21 0 -13.8701 -0.6346
15 21 3 9.9983 0.2887
15 21 6 -10.8696 0.6531
15 21 9 4.4228 0.0180
15 21 12 -2.1973 -0.7198
15 21 15 11.9940 -0.0878
15 21 18 -38.3847 0.5087
15 21 21 -3.3306 0.4568
15 21 24 0.2307 -0.6324
15 21 27 1.6592 -0.4803
15 21 30 -16.1093 0.3507
15 21 33 8.5716 0.7139
15 21 36 -3.1723 -0.0085
15 21 39 17.0188 -1.0695
15 21 42 -2.0414 0.3539
15 21 45 -2.1396 -0.2801
15 22 -43 -8.2841 -0.4036
15 22 -40 -9.6649 -0.1814
15 22 -37 -7.3963 1.2326
15 22 -34 6.0792 -0.1671
15 22 -31 -12.3873 -0.4561
15 22 -28 5.0981 -0.2627
15 22 -25 12.7654 0.2271
15 22 -22 12.4111 0.3654
15 22 -19 4.1576 -0.0719
15 22 -16 5.6115 -0.4037
15 22 -13 -1.3969 -0.2363
15 22 -10 15.6776 0.5852
15 22 -7 -21.1337 0.1214
15 22 -4 23.2081 -0.4591
15 22 -1 -0.0096 -0.0879
15 22 2 20.5425 0.2285
15 22 5 13.4530 0.3591
15 22 8 -25.5787 -0.0499
15 22 11 -8.9877 -0.4253
15 22 14 1.0198 0.1947
15 22 17 -8.1272 0.3691
15 22 20 0.2242 0.3123
15 22 23 12.3010 -0.4609
15 22 26 20.3710 0.0882
15 22 29 -14.0692 0.3634
15 22 32 0.0626 -0.0819
15 22 35 -6.6456 0.0461
15 22 38 -0.0256 -0.1160
15 22 41 10.4725 0.3698
15 23 -41 0.6785 1.2318
15 23 -38 -6.0962 -0.1913
15 23 -35 6.5541 0.4571
15 23 -32 0.6294 0.1744
15 23 -29 -15.0995 0.7603
15 23 -26 15.2192 0.3568
15 23 -23 2.2827 -0.3209
15 23 -20 -22.4427 0.0297
15 23 -17 19.4684 0.2588
15 23 -14 4.5115 0.3650
15 23 -11 6.6099 0.0417
15 23 -8 13.9679 -0.3061
15 23 -5 -2.6434 -0.1244
15 23 -2 4.6694 0.4261
15 23 1 0.9106 0.3083
15 23 4 -5.8915 -0.3017
15 23 7 -1.2247 -0.3170
15 23 10 -13.6498 0.2389
15 23 13 -4.6229 0.5286
15 23 16 6.8995 -0.2453
15 23 19 17.5865 -0.5658
15 23 22 15.7506 0.2857
15 23 25 12.6339 0.4589
15 23 28 14.7048 0.0739
15 23 31 -9.8692 -0.6659
15 23 34 7.1361 -0.6532
15 23 37 -13.2045 0.4063
15 23 40 3.5962 0.3366
15 24 -39 -6.6226 -0.1340
15 24 -36 -9.6506 0.1269
15 24 -33 0.0913 -0.1844
15 24 -30 7.7305 -0.3889
15 24 -27 10.8736 0.0445
15 24 -24 -15.3026 -0.0774
15 24 -21 16.9547 -0.3015
15 24 -18 -6.8861 0.0017
15 24 -15 24.7276 -0.3751
15 24 -12 19.1338 0.2024
15 24 -9 -6.6828 0.3101
15 24 -6 2.7995 -0.1846
15 24 -3 18.7576 -0.1048
15 24 0 -14.7432 -0.0206
15 24 3 10.3355 0.0143
15 24 6 -20.0497 0.0641
15 24 9 13.4405 0.3254
15 24 12 -1.8561 0.0507
15 24 15 -2.5475 0.0942
15 24 18 15.5911 -0.2746
15 24 21 24.4296 0.0736
15 24 24 -12.6849 0.1352
15 24 27 14.8243 -0.1854
15 24 30 -17.2673 -0.4688
15 24 33 11.9455 0.0144
15 24 36 12.0891 0.0329
15 24 39 -1.8208 0.1616
15 25 -37 3.6944 1.2367
15 25 -34 1.8432 -0.6728
15 25 -31 6.4512 -0.6154
15 25 -28 13.3263 0.2156
15 25 -25 2.8750 0.6078
15 25 -22 2.6450 0.4766
15 25 -19 16.6587 -0.5138
15 25 -16 -4.4650 -0.4850
15 25 -13 13.0023 0.4422
15 25 -10 -0.3911 0.8695
15 25 -7 -8.3108 -0.2912
15 25 -4 5.7716 -0.8909
15 25 -1 -9.1728 -0.0679
15 25 2 -1.0695 0.8471
15 25 5 -8.9010 0.5351
15 25 8 4.3341 -0.8007
15 25 11 31.8657 -0.4325
15 25 14 7.1271 0.7957
15 25 17 15.3977 0.7347
15 25 20 15.2052 -0.3422
15 25 23 -1.4298 -0.6809
15 25 26 -1.8872 0.2795
15 25 29 -15.6296 -0.0875
15 25 32 -4.5782 -0.0431
15 25 35 14.1385 -0.7118
15 25 38 -12.5255 -0.0611
15 26 -35 -0.9346 -0.6658
15 26 -32 0.6676 0.2010
15 26 -29 -6.6591 -0.1504
15 26 -26 2.4232 0.0808
15 26 -23 17.0354 -0.1086
15 26 -20 -1.1575 0.1912
15 26 -17 21.6346 0.0329
15 26 -14 8.0733 0.0282
15 26 -11 13.4287 0.0590
15 26 -8 8.3229 -0.3459
15 26 -5 -17.9365 0.1605
15 26 -2 10.7059 -0.0725
15 26 1 10.1667 -0.5369
15 26 4 -6.8686 0.1667
15 26 7 -3.4256 0.3640
15 26 10 1.2218 -0.0365
15 26 13 5.1810 0.0197
15 26 16 4.8539 -0.1658
15 26 19 0.2507 0.0736
15 26 22 -3.1447 -0.2151
15 26 25 -2.1775 0.5013
15 26 28 -1.4316 -0.3317
15 26 31 -2.1934 0.0289
15 26 34 1.3483 0.1828
15 27 -33 13.6849 0.6910
15 27 -30 11.7172 -0.1319
15 27 -27 2.8985 -0.5665
15 27 -24 9.8534 0.0414
15 27 -21 7.8915 0.2447
15 27 -18 -26.0686 0.5308
15 27 -15 15.9380 -0.2572
15 27 -12 -17.3774 -0.3890
15 27 -9 -17.1992 0.1755
15 27 -6 -11.5260 0.7664
15 27 -3 -4.5533 -0.1485
15 27 0 -2.8363 -0.5544
15 27 3 10.6435 0.2227
15 27 6 -1.7313 0.5129
15 27 9 18.8474 -0.0192
15 27 12 12.6339 -0.3440
15 27 15 10.2210 -0.0062
15 27 18 6.4384 0.2458
15 27 21 0.8642 -0.3992
15 27 24 -8.0382 0.2949
15 27 27 5.9075 0.3805
15 27 30 5.8727 -0.9440
15 27 33 1.5875 0.9255
15 28 -31 3.8150 -1.1661
15 28 -28 -6.5043 0.2389
15 28 -25 3.2310 0.2491
15 28 -22 -2.5998 -0.5171
15 28 -19 -6.9215 -0.6494
15 28 -16 8.2328 -0.6034
15 28 -13 4.7836 0.1416
15 28 -10 -14.6492 -0.1310
15 28 -7 -7.8139 -0.3339
15 28 -4 16.4293 -0.3695
15 28 -1 -3.8171 0.3165
15 28 2 9.6895 0.4330
15 28 5 2.7814 -0.2091
15 28 8 13.8656 -0.2569
15 28 11 -3.4815 0.0892
15 28 14 -1.1313 -0.0305
15 28 17 -3.8224 0.4514
15 28 20 3.5755 -0.6381
15 28 23 -9.9700 -0.8676
15 28 26 -5.9372 0.6831
15 28 29 4.4484 -1.5494
15 28 32 -0.6759 -0.2008
15 29 -29 6.2961 0.6755
15 29 -26 -8.7026 0.0009
15 29 -23 -1.8263 -0.8461
15 29 -20 -6.6882 -0.0249
15 29 -17 3.7471 -0.4001
15 29 -14 1.2933 0.3494
15 29 -11 -17.2630 -0.4157
15 29 -8 -4.4745 -0.0757
15 29 -5 3.9929 0.3800
15 29 -2 4.1427 -0.0004
15 29 1 -3.8158 -0.5177
15 29 4 -10.5197 -0.2307
15 29 7 4.5345 0.2798
15 29 10 5.6500 0.0310
15 29 13 5.1982 -0.9147
15 29 16 5.0496 0.4213
15 29 19 -4.2190 0.7312
15 29 22 14.4066 -0.5248
15 29 25 -11.6785 0.8102
15 29 28 -6.7899 -0.6448
15 30 -27 -8.3516 -1.4627
15 30 -24 -11.3670 0.6754
15 30 -21 10.7911 -0.0267
15 30 -18 -14.5946 -0.5819
15 30 -15 20.7585 -0.8514
15 30 -12 -5.6562 0.4292
15 30 -9 4.9966 0.6444
15 30 -6 16.3890 0.0689
15 30 -3 8.5582 -0.3038
15 30 0 2.1999 -0.4168
15 30 3 5.5242 0.3858
15 30 6 2.3278 0.9783
15 30 9 11.9679 -0.1144
15 30 12 1.5774 -1.0337
15 30 15 3.8567 -0.5539
15 30 18 1.1329 0.9667
15 30 21 1.1326 -0.3299
15 30 24 0.0538 -0.9144
15 30 27 -1.8267 -0.0372
15 31 -22 1.2915 0.0517
15 31 -19 4.9033 -1.3349
15 31 -16 -1.6847 0.3898
15 31 -13 6.1991 0.3417
15 31 -10 1.4837 -0.1502
15 31 -7 -8.2046 -0.1707
15 31 -4 7.7652 0.2473
15 31 -1 -11.0920 -0.1280
15 31 2 7.3706 -0.7620
15 31 5 8.9510 -0.5197
15 31 8 9.8950 0.3090
15 31 11 2.4472 0.4184
15 31 14 8.0643 0.0539
15 31 17 -7.4342 0.3779
15 31 20 1.6224 0.2132
15 31 23 -2.5942 -0.6414
15 32 -20 -1.0218 -0.8024
15 32 -17 -1.6780 1.1623
15 32 -14 -11.5343 -0.3313
15 32 -11 6.3818 0.3816
15 32 -8 -6.3984 -0.1426
15 32 -5 4.1606 0.2162
15 32 -2 2.7714 -0.1895
15 32 1 7.1957 -0.2910
15 32 4 12.9176 0.2228
15 32 7 14.8249 0.3300
15 32 10 -3.6363 0.8151
15 32 13 5.3419 -0.5070
15 32 16 -3.1543 -0.3094
15 32 19 2.7071 -0.2381
15 33 -15 1.6533 0.0576
15 33 -12 -0.1756 0.7791
15 33 -9 -3.0112 -0.0737
15 33 -6 5.2910 -0.1757
15 33 -3 10.6322 -0.3507
15 33 0 -9.3986 0.2462
15 33 3 11.5704 0.6157
15 33 6 2.2404 -0.5820
15 33 9 -0.5751 -0.3932
15 33 12 1.8553 1.0926
15 33 15 -0.1123 0.5477
15 34 -7 -8.3640 -0.4852
15 34 -4 15.4512 -1.4769
15 34 -1 -1.3678 0.2420
15 34 2 14.4784 1.5419
15 34 5 -0.3050 -0.1236
16 1 -57 -6.0423 -2.6636
16 1 -54 15.6929 -3.1627
16 1 -51 -4.1964 1.3875
16 1 -48 6.1784 4.4750
16 1 -45 12.4905 -0.4047
16 1 -42 10.5237 -5.0990
16 1 -39 29.0256 -1.3042
16 1 -36 -14.4856 5.8236
16 1 -33 -12.8229 3.0677
16 1 -30 -56.0710 -5.1334
16 1 -27 11.5678 -4.6719
16 1 -24 -82.5995 4.1944
16 1 -21 1.8019 6.6796
16 1 -18 -45.1823 -2.4779
16 1 -15 -81.3619 -7.7542
16 1 -12 -15.9562 0.1785
16 1 -9 84.0912 8.2958
16 1 -6 43.9363 2.8358
16 1 -3 177.8443 -7.4907
16 1 0 149.4103 -4.7551
16 1 3 67.3820 6.3201
16 1 6 176.5880 6.0728
16 1 9 -46.6317 -4.4416
16 1 12 -94.9835 -7.0486
16 1 15 13.7935 1.3964
16 1 18 -42.8001 6.5901
16 1 21 -13.3551 0.5394
16 1 24 -50.7504 -5.9322
16 1 27 -34.9228 -2.0621
16 1 30 -93.1245 4.3755
16 1 33 -3.0209 2.9569
16 1 36 15.4018 -3.1417
16 1 39 37.8782 -3.5850
16 1 42 11.7040 1.6978
16 1 45 22.4691 3.4789
16 1 48 6.2785 -0.6478
16 1 51 19.8976 -2.9016
16 1 54 6.1761 -0.3652
16 1 57 3.1546 2.9815
16 2 -58 2.3353 0.2304
16 2 -55 1.8156 -0.6443
16 2 -52 -19.6492 0.8441
16 2 -49 -0.3921 1.0964
16 2 -46 -20.3250 -0.2833
16 2 -43 10.6046 -1.9556
16 2 -40 -8.5370 0.0380
16 2 -37 -27.0922 2.4538
16 2 -34 11.1486 0.6396
16 2 -31 19.0927 -2.8679
16 2 -28 -15.5263 -1.9536
16 2 -25 45.3221 2.9188
16 2 -22 -34.3394 2.8973
16 2 -19 72.0976 -2.3701
16 2 -16 19.0380 -3.8470
16 2 -13 -62.0526 1.5519
16 2 -10 60.8081 4.9718
16 2 -7 115.3054 0.2408
16 2 -4 -57.1166 -4.9611
16 2 -1 67.8954 -1.4883
16 2 2 -54.1690 5.1036
16 2 5 19.8248 3.4886
16 2 8 15.9962 -3.3392
16 2 11 -80.7385 -4.4013
16 2 14 1.6050 2.1984
16 2 17 139.0017 5.2408
16 2 20 2.9459 -0.3168
16 2 23 26.7544 -5.1321
16 2 26 93.9444 -1.2307
16 2 29 47.8453 4.4507
16 2 32 -15.7139 2.5422
16 2 35 7.5093 -3.4791
16 2 38 -21.4747 -2.9415
16 2 41 23.1513 1.7737
16 2 44 10.3972 3.3829
16 2 47 -1.7240 -0.7571
16 2 50 8.3933 -3.3143
16 2 53 -3.6292 -1.2485
16 2 56 -5.3181 2.8318
16 2 59 0.4529 0.7147
16 3 -59 9.7832 -0.8995
16 3 -56 6.6374 1.9698
16 3 -53 11.8758 1.6356
16 3 -50 -2.4253 -1.4861
16 3 -47 17.5561 -2.1052
16 3 -44 5.7358 1.7523
16 3 -41 3.6054 2.7431
16 3 -38 -3.5993 -0.5307
16 3 -35 -28.3753 -2.9754
16 3 -32 -35.1654 -0.3912
16 3 -29 -12.3225 3.1392
16 3 -26 -3.4137 1.4655
16 3 -23 2.6479 -2.7035
16 3 -20 -17.2926 -2.4451
16 3 -17 -3.4840 2.3928
16 3 -14 -141.2431 3.0027
16 3 -11 75.0191 -1.6692
16 3 -8 35.9641 -3.2164
16 3 -5 68.0549 0.3742
16 3 -2 113.3521 2.8818
16 3 1 62.6763 0.6029
16 3 4 68.0399 -2.5564
16 3 7 75.8929 -1.7697
16 3 10 -130.5503 1.5276
16 3 13 -46.3663 1.8885
16 3 16 -10.4429 -1.3208
16 3 19 -83.1387 -2.1650
16 3 22 -49.5401 0.1640
16 3 25 -24.7385 1.6558
16 3 28 -12.6729 0.2252
16 3 31 -25.7473 -1.4520
16 3 34 -6.2664 -0.7385
16 3 37 -12.3137 0.7737
16 3 40 -0.0090 0.8337
16 3 43 -12.3778 -0.2215
16 3 46 11.0982 -0.2689
16 3 49 -13.0076 0.0561
16 3 52 16.1636 0.6943
16 3 55 2.9694 -0.0403
16 3 58 -2.9228 -0.3858
16 4 -57 3.6273 -0.6691
16 4 -54 -1.5333 0.5517
16 4 -51 -6.1797 0.2734
16 4 -48 11.7578 -0.5669
16 4 -45 4.0875 -0.6176
16 4 -42 -35.8847 0.1562
16 4 -39 8.5321 0.3492
16 4 -36 -29.4100 -0.2994
16 4 -33 4.5588 -1.0335
16 4 -30 43.4485 -0.0460
16 4 -27 -5.1744 1.1354
16 4 -24 42.9251 0.0403
16 4 -21 62.5634 -1.0489
16 4 -18 -51.1181 -0.4536
16 4 -15 50.0396 1.3911
16 4 -12 79.9523 1.2128
16 4 -9 52.2024 -0.8310
16 4 -6 138.5520 -1.0621
16 4 -3 1.7610 1.3265
16 4 0 27.1347 2.1360
16 4 3 -72.4445 -0.2979
16 4 6 -53.8785 -2.0719
16 4 9 -121.9003 -0.0194
16 4 12 34.4236 2.0752
16 4 15 -13.4672 0.4540
16 4 18 7.4594 -1.9580
16 4 21 9.1850 -1.0840
16 4 24 -8.3883 1.2731
16 4 27 47.7272 1.1923
16 4 30 33.5562 -0.7645
16 4 33 72.4979 -1.4122
16 4 36 3.5079 0.1244
16 4 39 12.6980 1.3813
16 4 42 -16.8551 -0.0840
16 4 45 24.9141 -1.0384
16 4 48 1.6664 -0.4407
16 4 51 -8.6147 1.1702
16 4 54 9.4597 0.3599
16 4 57 -3.8590 -0.5997
16 5 -58 1.3978 -0.1972
16 5 -55 -0.3630 -0.4250
16 5 -52 4.2757 0.1230
16 5 -49 12.7361 0.0342
16 5 -46 -17.4460 0.0049
16 5 -43 -5.1657 -0.3088
16 5 -40 -26.9462 -0.1569
16 5 -37 8.3081 0.0842
16 5 -34 -10.2129 0.5190
16 5 -31 7.8782 0.1028
16 5 -28 -25.7006 -0.3963
16 5 -25 45.0151 -0.1176
16 5 -22 -22.3765 0.4291
16 5 -19 -35.2893 0.4926
16 5 -16 -22.4447 -0.1440
16 5 -13 67.7242 -0.5222
16 5 -10 29.4461 0.1955
16 5 -7 72.4421 0.7052
16 5 -4 -55.5248 0.1452
16 5 -1 48.3911 -0.7712
16 5 2 26.9296 -0.6159
16 5 5 -55.2693 0.4083
16 5 8 -1.2785 0.4771
16 5 11 30.0967 -0.3342
16 5 14 -15.7669 -0.6267
16 5 17 10.3593 0.1884
16 5 20 19.8869 0.7101
16 5 23 20.3255 0.2386
16 5 26 7.4075 -0.5859
16 5 29 -30.6015 -0.3923
16 5 32 -46.6295 0.9007
16 5 35 16.2604 0.5805
16 5 38 19.6852 -0.5191
16 5 41 -4.3990 -0.5742
16 5 44 -2.8770 0.2333
16 5 47 -2.7373 0.6941
16 5 50 -5.7929 -0.3205
16 5 53 3.7451 -0.9289
16 5 56 -6.8449 -0.0454
16 6 -56 -1.8998 1.8962
16 6 -53 -6.4555 -0.6196
16 6 -50 -10.6181 -1.3810
16 6 -47 -10.8568 0.4400
16 6 -44 -5.0424 1.5397
16 6 -41 -25.8367 -0.3917
16 6 -38 5.3640 -1.6368
16 6 -35 4.6897 -0.1525
16 6 -32 11.1378 1.4979
16 6 -29 19.5746 0.8278
16 6 -26 58.4965 -1.6043
16 6 -23 -36.8258 -1.2142
16 6 -20 -0.1025 1.5356
16 6 -17 12.7928 1.9236
16 6 -14 21.3349 -1.1860
16 6 -11 120.8348 -1.9730
16 6 -8 -2.1822 0.6274
16 6 -5 -6.6139 1.7958
16 6 -2 27.3124 0.1367
16 6 1 -7.1316 -1.8163
16 6 4 -51.6533 -0.6768
16 6 7 -78.7564 1.9016
16 6 10 -37.6129 1.1845
16 6 13 27.4352 -1.3568
16 6 16 -2.1453 -1.5843
16 6 19 -31.7421 1.1024
16 6 22 61.2984 1.8592
16 6 25 -10.0035 -0.2870
16 6 28 47.9145 -1.9805
16 6 31 -31.8296 -0.1076
16 6 34 -5.9652 2.0396
16 6 37 15.8048 0.6550
16 6 40 -6.5139 -1.0084
16 6 43 1.6579 -0.6243
16 6 46 18.3724 0.7857
16 6 49 -6.0864 0.9756
16 6 52 -2.8417 0.2576
16 6 55 -3.5471 -1.5680
16 7 -57 -11.4202 -0.7935
16 7 -54 1.0708 0.1368
16 7 -51 -3.8732 0.7141
16 7 -48 11.7898 -0.1606
16 7 -45 -19.2764 -0.4721
16 7 -42 -23.8084 0.0358
16 7 -39 12.8021 1.3016
16 7 -36 -2.6499 0.4102
16 7 -33 0.2001 -1.3336
16 7 -30 33.0671 -0.4791
16 7 -27 -16.1555 0.9655
16 7 -24 26.9408 0.9317
16 7 -21 8.0496 -0.6963
16 7 -18 -2.3063 -1.4569
16 7 -15 72.3127 0.3791
16 7 -12 58.4241 1.6557
16 7 -9 -32.7144 -0.1907
16 7 -6 64.5911 -1.9230
16 7 -3 -103.4309 -0.4996
16 7 0 -5.4613 1.4953
16 7 3 -12.1466 0.6486
16 7 6 -6.6025 -1.1239
16 7 9 -26.9612 -1.1056
16 7 12 86.4408 0.9237
16 7 15 -32.2624 1.5437
16 7 18 7.5933 -0.4175
16 7 21 26.9889 -1.2873
16 7 24 5.9039 0.1944
16 7 27 52.5856 1.6004
16 7 30 3.7125 0.3186
16 7 33 -20.1985 -1.4005
16 7 36 9.7835 -0.6044
16 7 39 0.7232 0.8299
16 7 42 8.3073 0.8184
16 7 45 2.1921 -0.6841
16 7 48 -0.8112 -0.7309
16 7 51 -4.8376 0.6797
16 7 54 11.7626 0.7081
16 7 57 -2.8016 0.5846
16 8 -55 5.3089 0.1927
16 8 -52 6.4558 0.7076
16 8 -49 -10.1408 -0.5906
16 8 -46 -20.3026 -0.5324
16 8 -43 7.8670 0.4534
16 8 -40 4.5081 0.6737
16 8 -37 25.7953 -0.0557
16 8 -34 10.4337 -0.7717
16 8 -31 32.2507 -0.1884
16 8 -28 17.3088 1.0069
16 8 -25 -7.2783 0.5059
16 8 -22 25.9144 -0.9118
16 8 -19 -23.3554 -0.6895
16 8 -16 36.3409 0.9337
16 8 -13 -13.8445 1.0965
16 8 -10 -76.2585 -0.6074
16 8 -7 4.8629 -1.1860
16 8 -4 -32.6265 0.1878
16 8 -1 -3.2304 1.3965
16 8 2 -10.1014 0.4788
16 8 5 -6.1648 -1.0174
16 8 8 16.8436 -0.5656
16 8 11 24.0753 1.1060
16 8 14 19.1494 1.0031
16 8 17 69.1121 -0.6766
16 8 20 43.8320 -0.9318
16 8 23 -9.0833 0.2813
16 8 26 -42.9627 0.9779
16 8 29 8.0266 0.0992
16 8 32 -4.0084 -1.0348
16 8 35 0.8615 -0.4723
16 8 38 -20.1613 0.5147
16 8 41 -3.5214 0.4349
16 8 44 -33.0022 -0.4259
16 8 47 13.3234 -0.3742
16 8 50 -4.6104 -0.2277
16 8 53 -4.5993 0.8353
16 8 56 1.1552 1.0478
16 9 -53 -5.4547 -0.7138
16 9 -50 -8.1739 -0.3280
16 9 -47 -9.3028 0.7714
16 9 -44 15.2533 0.5939
16 9 -41 -11.7455 -0.4134
16 9 -38 3.9154 -0.8042
16 9 -35 16.0552 0.2235
16 9 -32 -26.0979 0.7191
16 9 -29 11.1768 0.1578
16 9 -26 19.3884 -0.6686
16 9 -23 -47.4503 -0.6635
16 9 -20 41.9050 0.7848
16 9 -17 -0.6750 0.8471
16 9 -14 -35.2467 -0.6575
16 9 -11 49.2708 -1.0768
16 9 -8 -43.9892 0.2669
16 9 -5 23.3015 0.9576
16 9 -2 76.7473 0.3641
16 9 1 -82.3234 -0.9044
16 9 4 2.8627 -0.7350
16 9 7 -5.9956 0.8508
16 9 10 -17.9567 1.1272
16 9 13 8.9795 -0.3354
16 9 16 -10.5047 -0.9210
16 9 19 5.6477 0.1166
16 9 22 56.8544 1.0833
16 9 25 -40.6355 0.5459
16 9 28 -10.5001 -0.8227
16 9 31 9.5995 -0.6951
16 9 34 -5.6769 0.4313
16 9 37 -5.4912 0.7705
16 9 40 32.3743 0.0216
16 9 43 -26.1446 -0.9138
16 9 46 14.3568 -0.1004
16 9 49 2.3907 0.6185
16 9 52 -20.3763 0.5037
16 9 55 12.7267 -1.4734
16 10 -54 5.8053 -0.7856
16 10 -51 -14.4484 -0.5244
16 10 -48 4.6507 -0.0764
16 10 -45 -9.2088 0.9009
16 10 -42 21.0842 0.1638
16 10 -39 14.8190 -0.8433
16 10 -36 21.3211 -0.1996
16 10 -33 35.0416 0.8705
16 10 -30 16.3992 0.8284
16 10 -27 0.5147 -0.8398
16 10 -24 33.9336 -1.1455
16 10 -21 -73.8370 0.4104
16 10 -18 21.4074 1.2501
16 10 -15 -54.0367 0.1446
16 10 -12 22.4748 -1.2284
16 10 -9 -35.0657 -0.5526
16 10 -6 10.9068 1.0820
16 10 -3 -52.0607 0.9229
16 10 0 53.1188 -0.6922
16 10 3 -57.8091 -0.8537
16 10 6 18.5619 0.5420
16 10 9 -17.8281 1.1522
16 10 12 89.4812 0.2064
16 10 15 -4.5302 -0.8544
16 10 18 10.4588 -0.5212
16 10 21 36.2035 0.8039
16 10 24 49.1806 0.8719
16 10 27 -30.7740 -0.3715
16 10 30 -0.8748 -0.8181
16 10 33 -27.2956 0.0687
16 10 36 -8.8842 0.5700
16 10 39 -22.3026 0.4046
16 10 42 -27.4165 -0.0719
16 10 45 -10.2873 -0.4487
16 10 48 7.8270 0.3310
16 10 51 -9.4215 0.6448
16 10 54 3.7252 -0.1034
16 11 -52 -10.9541 0.6942
16 11 -49 4.2377 -0.2837
16 11 -46 -0.5896 -0.4722
16 11 -43 4.4674 0.3185
16 11 -40 0.2922 0.2200
16 11 -37 -9.2417 -0.0611
16 11 -34 4.9444 -0.2513
16 11 -31 -18.5950 -0.1036
16 11 -28 -45.5269 0.0487
16 11 -25 28.5792 -0.1456
16 11 -22 -46.4767 0.1844
16 11 -19 -15.2461 0.0180
16 11 -16 -3.5852 -0.0701
16 11 -13 -5.3020 0.0161
16 11 -10 51.0594 0.2438
16 11 -7 41.5473 0.3101
16 11 -4 -20.2237 -0.1689
16 11 -1 44.1745 -0.6315
16 11 2 14.5790 0.2028
16 11 5 -21.2594 0.6873
16 11 8 53.1012 -0.0873
16 11 11 10.1086 -0.4409
16 11 14 26.6118 -0.0220
16 11 17 -14.6336 0.4189
16 11 20 -67.7014 0.2250
16 11 23 24.3689 -0.6757
16 11 26 -49.4228 -0.5079
16 11 29 21.3891 0.3535
16 11 32 -14.5264 0.6099
16 11 35 -1.6848 -0.4909
16 11 38 0.3285 -0.8312
16 11 41 -2.1739 0.2408
16 11 44 -0.0595 0.8674
16 11 47 7.6078 -0.0125
16 11 50 10.4970 -0.6037
16 11 53 -0.8956 0.3256
16 12 -53 -3.6957 0.2105
16 12 -50 11.0474 -0.4539
16 12 -47 3.7552 0.7497
16 12 -44 5.4489 0.1377
16 12 -41 -0.8480 -0.2312
16 12 -38 5.0490 0.0108
16 12 -35 3.9127 0.5588
16 12 -32 -11.1836 0.1264
16 12 -29 6.2698 -0.6256
16 12 -26 10.7024 -0.1892
16 12 -23 -59.2132 0.4451
16 12 -20 45.1452 0.4010
16 12 -17 -38.4518 -0.7131
16 12 -14 -1.2603 -0.6517
16 12 -11 65.9462 0.6580
16 12 -8 -43.0103 0.6870
16 12 -5 -53.1244 -0.3517
16 12 -2 40.3035 -0.7173
16 12 1 -74.2286 0.1924
16 12 4 39.8806 0.8946
16 12 7 53.0835 0.1225
16 12 10 -7.7331 -0.9314
16 12 13 45.2293 -0.2868
16 12 16 63.4735 0.6360
16 12 19 -26.3572 0.6271
16 12 22 42.6800 -0.6262
16 12 25 -43.0198 -0.5675
16 12 28 -0.9367 0.4034
16 12 31 22.2002 1.0389
16 12 34 -17.7843 -0.2250
16 12 37 -0.6410 -0.8989
16 12 40 5.3865 -0.2133
16 12 43 0.2164 0.5669
16 12 46 -7.5605 -0.3335
16 12 49 10.8175 -1.0241
16 12 52 -8.2124 -0.4384
16 13 -51 -12.8284 0.3713
16 13 -48 24.8993 0.4744
16 13 -45 -10.2488 0.3324
16 13 -42 12.5451 -0.5291
16 13 -39 -2.3913 -0.1688
16 13 -36 -7.4039 0.4871
16 13 -33 8.4111 0.5433
16 13 -30 -20.3293 -0.3964
16 13 -27 -12.3452 -0.7950
16 13 -24 -23.9588 0.2167
16 13 -21 -28.9766 0.6821
16 13 -18 37.4192 0.2663
16 13 -15 -2.8371 -0.5363
16 13 -12 28.4863 -0.4864
16 13 -9 -32.5156 0.2881
16 13 -6 18.8653 0.4784
16 13 -3 14.3352 -0.0846
16 13 0 82.9578 -0.6971
16 13 3 -25.7624 -0.1066
16 13 6 89.8987 0.4722
16 13 9 20.3312 0.0226
16 13 12 -10.6954 -0.2171
16 13 15 -17.9659 -0.2967
16 13 18 11.4242 0.0076
16 13 21 -27.9155 0.3201
16 13 24 4.5116 0.2263
16 13 27 -52.5738 -0.2863
16 13 30 -6.6050 -0.1858
16 13 33 1.2460 0.3248
16 13 36 -9.0863 0.4007
16 13 39 -0.9938 0.1007
16 13 42 31.7204 -0.0175
16 13 45 -12.3051 0.3153
16 13 48 6.2533 0.1730
16 13 51 -8.5862 -0.4013
16 14 -52 -1.2018 0.1059
16 14 -49 18.5923 -0.6692
16 14 -46 -12.1529 0.1723
16 14 -43 4.7094 0.8895
16 14 -40 -0.2552 -0.0932
16 14 -37 -9.8101 -0.8819
16 14 -34 -4.0458 0.1109
16 14 -31 -4.5388 0.8311
16 14 -28 -16.3174 0.5528
16 14 -25 32.7285 -0.8899
16 14 -22 -33.3060 -0.7716
16 14 -19 -13.3242 0.7456
16 14 -16 53.6244 0.9065
16 14 -13 -19.5119 -0.5409
16 14 -10 7.2977 -1.0582
16 14 -7 28.2922 0.3342
16 14 -4 17.8898 1.1918
16 14 -1 70.8346 -0.0144
16 14 2 -2.2453 -1.1820
16 14 5 -21.1043 -0.2151
16 14 8 55.7551 1.1243
16 14 11 -43.7276 0.5878
16 14 14 -44.0467 -0.7602
16 14 17 26.8071 -0.6262
16 14 20 -13.3636 0.7970
16 14 23 35.4785 1.0813
16 14 26 -5.2511 -0.4892
16 14 29 14.9717 -0.8602
16 14 32 16.1946 0.2646
16 14 35 18.7903 1.0791
16 14 38 -21.8833 0.3036
16 14 41 5.6441 -0.5675
16 14 44 -0.4132 0.0519
16 14 47 -5.7913 1.1507
16 14 50 5.0135 0.0752
16 15 -50 0.3164 -0.0804
16 15 -47 -7.7495 0.2604
16 15 -44 -8.5744 -0.1777
16 15 -41 -0.4802 -0.0961
16 15 -38 -4.7725 -0.1031
16 15 -35 -18.2252 0.1364
16 15 -32 -6.1490 0.0791
16 15 -29 0.3929 0.0731
16 15 -26 -19.3723 -0.0746
16 15 -23 23.0289 -0.1999
16 15 -20 -17.5742 0.2556
16 15 -17 15.3013 -0.0547
16 15 -14 10.5864 -0.1899
16 15 -11 -22.0173 0.0844
16 15 -8 1.0226 0.1137
16 15 -5 45.2491 0.2401
16 15 -2 32.0329 -0.2173
16 15 1 -8.4020 -0.3625
16 15 4 7.7236 0.0614
16 15 7 14.5248 0.4745
16 15 10 -6.9863 0.3272
16 15 13 -11.8900 -0.1874
16 15 16 -10.4414 -0.2531
16 15 19 -45.1120 0.1565
16 15 22 -3.7106 0.2090
16 15 25 -3.6208 -0.1950
16 15 28 2.3627 -0.5847
16 15 31 17.4968 -0.1359
16 15 34 -2.3812 0.3788
16 15 37 -2.8735 0.2414
16 15 40 -12.4716 -0.6859
16 15 43 6.4673 -0.6259
16 15 46 -7.5960 -0.0127
16 15 49 -0.6761 0.4710
16 16 -48 4.2230 -0.2443
16 16 -45 -3.6325 -0.2817
16 16 -42 -2.5066 -0.7182
16 16 -39 -0.4200 0.5957
16 16 -36 -10.8884 0.7304
16 16 -33 2.0773 0.1692
16 16 -30 10.7062 -0.8652
16 16 -27 -22.8483 -0.2125
16 16 -24 5.5281 0.8577
16 16 -21 -1.9379 0.7366
16 16 -18 -10.2440 -0.4211
16 16 -15 16.2580 -0.9118
16 16 -12 4.3829 0.3159
16 16 -9 43.7233 1.1362
16 16 -6 65.0250 -0.0197
16 16 -3 -5.3950 -1.1564
16 16 0 30.7458 -0.2911
16 16 3 -9.4138 0.7921
16 16 6 -27.1477 0.5872
16 16 9 3.2691 -0.5852
16 16 12 -43.1446 -0.8435
16 16 15 5.4531 -0.1116
16 16 18 33.3367 0.9850
16 16 21 -38.2009 -0.0415
16 16 24 34.9678 -0.9985
16 16 27 -1.4042 -0.4373
16 16 30 15.2874 0.6773
16 16 33 -4.4353 0.3284
16 16 36 13.3297 -0.4217
16 16 39 -0.8722 -0.6555
16 16 42 -6.5011 0.3972
16 16 45 -8.0945 0.1728
16 16 48 -3.4167 -0.2073
16 17 -46 -7.8475 0.2050
16 17 -43 7.2454 -0.2644
16 17 -40 -21.7849 -0.5313
16 17 -37 7.0894 -0.1485
16 17 -34 -5.0541 0.1738
16 17 -31 17.3942 0.2194
16 17 -28 -11.0730 -0.5440
16 17 -25 20.9018 -0.4343
16 17 -22 -21.6481 0.4557
16 17 -19 37.3663 0.2498
16 17 -16 22.7972 -0.5637
16 17 -13 -4.9334 -0.5720
16 17 -10 17.5375 0.1787
16 17 -7 46.9759 0.3607
16 17 -4 -53.4694 -0.2154
16 17 -1 -7.5426 -0.4319
16 17 2 -15.7937 -0.0110
16 17 5 -35.7121 0.2419
16 17 8 29.3911 0.0721
16 17 11 -12.2006 -0.2632
16 17 14 2.0862 -0.2579
16 17 17 78.5217 0.1697
16 17 20 -14.8054 0.2790
16 17 23 7.5231 -0.1228
16 17 26 12.7758 -0.3251
16 17 29 2.6259 0.2143
16 17 32 -29.5960 0.2676
16 17 35 -4.2201 -0.2115
16 17 38 -7.2643 -0.1910
16 17 41 -6.2492 0.4109
16 17 44 13.0625 -0.2064
16 17 47 -6.8594 -0.2921
16 18 -47 3.0793 1.0520
16 18 -44 -4.8481 0.5839
16 18 -41 1.8576 0.0306
16 18 -38 0.0555 -0.6040
16 18 -35 7.6734 0.6036
16 18 -32 4.7285 0.4921
16 18 -29 -6.6138 -0.0141
16 18 -26 -10.5201 -0.4303
16 18 -23 0.0915 -0.2402
16 18 -20 -7.8960 0.5611
16 18 -17 9.8891 0.1329
16 18 -14 17.3106 -0.3544
16 18 -11 -8.2650 -0.1314
16 18 -8 23.9961 -0.1092
16 18 -5 1.7651 0.1524
16 18 -2 -29.7954 -0.0089
16 18 1 5.8659 -0.1008
16 18 4 15.9955 -0.2753
16 18 7 20.4173 -0.1914
16 18 10 -18.4051 0.3762
16 18 13 13.2310 0.0643
16 18 16 2.0730 -0.4216
16 18 19 42.0279 -0.1802
16 18 22 4.8258 0.3827
16 18 25 12.6187 0.2372
16 18 28 11.3790 -0.1185
16 18 31 -7.5167 -0.0366
16 18 34 -2.7802 -0.1407
16 18 37 2.6001 0.3068
16 18 40 -7.8505 0.5526
16 18 43 14.5567 -0.0226
16 18 46 -3.6400 0.7956
16 19 -45 -3.4500 -0.9454
16 19 -42 -5.6289 -0.4180
16 19 -39 6.4037 0.4303
16 19 -36 4.2502 -0.4137
16 19 -33 5.4263 -0.6054
16 19 -30 19.3643 -0.1971
16 19 -27 -8.0498 0.4188
16 19 -24 18.7964 0.0960
16 19 -21 26.4477 -0.7407
16 19 -18 -5.2430 -0.2891
16 19 -15 52.5648 -0.0156
16 19 -12 -14.8326 0.2623
16 19 -9 2.1554 -0.3255
16 19 -6 -0.1602 -0.3379
16 19 -3 -24.8691 0.2002
16 19 0 -1.6262 0.2211
16 19 3 -4.2402 -0.1491
16 19 6 5.7124 -0.3167
16 19 9 16.5492 -0.0652
16 19 12 13.5581 0.5912
16 19 15 16.8684 0.0370
16 19 18 6.3658 -0.3752
16 19 21 -0.1466 -0.2684
16 19 24 -2.1659 0.3009
16 19 27 7.4651 0.0778
16 19 30 10.5147 0.1693
16 19 33 1.3409 -0.4258
16 19 36 -2.4208 -0.1578
16 19 39 -16.0424 0.2963
16 19 42 -5.0539 0.3510
16 19 45 3.0352 0.0807
16 20 -43 12.4999 0.4732
16 20 -40 -4.0853 -0.3489
16 20 -37 21.7860 -0.3646
16 20 -34 -8.4031 -0.0184
16 20 -31 7.8814 0.1585
16 20 -28 -13.8246 0.1578
16 20 -25 19.5192 -0.1635
16 20 -22 -8.9284 0.2090
16 20 -19 9.3530 -0.2542
16 20 -16 -25.0557 -0.2924
16 20 -13 -11.2445 -0.0081
16 20 -10 -14.0035 0.0749
16 20 -7 -12.3238 0.0871
16 20 -4 -10.7647 -0.2400
16 20 -1 14.1713 -0.1605
16 20 2 2.9099 0.0369
16 20 5 17.7984 0.1636
16 20 8 -1.0890 -0.2917
16 20 11 18.0981 -0.0384
16 20 14 -7.7670 0.2295
16 20 17 3.7222 0.2892
16 20 20 -14.4310 -0.0139
16 20 23 20.6478 -0.3786
16 20 26 -4.8322 -0.1968
16 20 29 -2.2139 0.1647
16 20 32 -0.2639 0.1301
16 20 35 3.2186 -0.3031
16 20 38 5.9419 -0.8638
16 20 41 2.7100 0.4567
16 20 44 -0.0909 -1.2235
16 21 -41 -5.0480 -1.1729
16 21 -38 7.0691 -0.4103
16 21 -35 -6.3535 0.6849
16 21 -32 -7.5002 0.0339
16 21 -29 -3.2954 -1.1132
16 21 -26 11.4696 -0.3831
16 21 -23 6.4354 0.5136
16 21 -20 -0.2020 0.7120
16 21 -17 13.2496 -0.5749
16 21 -14 -17.1934 -0.8891
16 21 -11 1.3809 0.1277
16 21 -8 -3.0212 0.8967
16 21 -5 3.5660 0.0583
16 21 -2 -4.3569 -0.8668
16 21 1 -8.2366 -0.3016
16 21 4 23.6171 0.9079
16 21 7 -30.8788 0.3275
16 21 10 -2.8150 -0.4395
16 21 13 26.5351 -0.3653
16 21 16 -10.4348 0.3057
16 21 19 4.9444 0.8940
16 21 22 0.9067 -0.3059
16 21 25 10.9519 -0.3451
16 21 28 -14.0276 0.0041
16 21 31 8.2922 0.6733
16 21 34 -9.3938 -0.0472
16 21 37 -6.2924 -0.9246
16 21 40 -3.3811 0.3896
16 21 43 -7.8933 0.3329
16 22 -42 2.3062 -0.4108
16 22 -39 14.6073 -0.1888
16 22 -36 -6.2270 -0.0048
16 22 -33 13.6859 -0.4762
16 22 -30 -7.0335 0.4538
16 22 -27 -4.4586 0.0401
16 22 -24 -0.1364 -0.2047
16 22 -21 -21.1465 -0.3352
16 22 -18 -18.3416 0.3357
16 22 -15 -11.5099 0.0904
16 22 -12 -23.0537 -0.2508
16 22 -9 8.3320 -0.0208
16 22 -6 8.3614 0.0999
16 22 -3 -13.2702 0.3094
16 22 0 6.6536 -0.1526
16 22 3 27.2232 -0.4254
16 22 6 3.9694 0.1397
16 22 9 1.9942 0.2839
16 22 12 -4.6909 -0.0334
16 22 15 17.6518 -0.1050
16 22 18 -3.2993 0.3096
16 22 21 13.5862 0.2116
16 22 24 3.3172 0.2391
16 22 27 3.3920 0.1009
16 22 30 1.1307 -0.0845
16 22 33 -16.3755 -0.1394
16 22 36 -11.1499 0.6991
16 22 39 9.8509 -0.3528
16 22 42 8.3778 1.9601
16 23 -40 2.6708 -1.0935
16 23 -37 -6.6150 -0.3266
16 23 -34 -2.1693 -0.0497
16 23 -31 5.9502 -0.0301
16 23 -28 -8.3086 0.4854
16 23 -25 3.6695 -0.5277
16 23 -22 -12.2477 -0.4319
16 23 -19 15.7807 0.1135
16 23 -16 -30.1642 0.3882
16 23 -13 18.5414 -0.2161
16 23 -10 -5.1377 -0.6791
16 23 -7 -0.0724 0.0940
16 23 -4 1.1968 0.6343
16 23 -1 -3.9232 0.2059
16 23 2 0.4787 -0.2056
16 23 5 3.8933 -0.3714
16 23 8 3.0109 0.2508
16 23 11 -14.5630 0.5641
16 23 14 12.6816 -0.2164
16 23 17 14.8905 -0.3020
16 23 20 1.5533 0.1145
16 23 23 4.3629 0.1582
16 23 26 -9.5714 0.0009
16 23 29 7.5361 -0.5228
16 23 32 -3.2574 -0.7669
16 23 35 -0.7233 0.6507
16 23 38 -1.3547 -0.2166
16 24 -38 -0.7150 0.6127
16 24 -35 -0.5232 0.4296
16 24 -32 -9.3487 0.2810
16 24 -29 -5.6775 -0.2439
16 24 -26 -7.3966 0.9665
16 24 -23 -8.9664 0.4456
16 24 -20 1.1880 -0.2300
16 24 -17 -14.3328 -0.2846
16 24 -14 1.7995 0.0980
16 24 -11 23.7497 0.5649
16 24 -8 -1.7021 -0.1619
16 24 -5 0.3750 -0.4801
16 24 -2 11.3407 0.1253
16 24 1 -8.4201 0.4019
16 24 4 14.0097 0.0022
16 24 7 -2.4811 -0.5694
16 24 10 6.8923 0.1173
16 24 13 10.7508 0.2971
16 24 16 -4.7573 -0.0339
16 24 19 -4.2118 -0.0006
16 24 22 4.6542 -0.3375
16 24 25 -6.2563 -0.1075
16 24 28 -15.3408 0.2256
16 24 31 0.4777 -0.1087
16 24 34 -1.8109 -0.4839
16 24 37 -11.5830 0.5719
16 25 -36 -8.2139 -0.0497
16 25 -33 5.3309 0.2843
16 25 -30 3.8918 0.4616
16 25 -27 8.0958 0.2283
16 25 -24 11.9687 0.2182
16 25 -21 -6.7417 0.4427
16 25 -18 1.4445 -0.1437
16 25 -15 15.1717 0.0180
16 25 -12 -5.4104 -0.1162
16 25 -9 11.4625 0.3046
16 25 -6 -12.2868 0.2214
16 25 -3 -14.6401 0.0058
16 25 0 22.9878 -0.1970
16 25 3 -7.5773 -0.1806
16 25 6 -5.9395 0.1860
16 25 9 0.8525 0.1930
16 25 12 7.9309 -0.1930
16 25 15 14.8864 -0.5939
16 25 18 -3.6466 0.3597
16 25 21 -0.7278 0.3040
16 25 24 11.8202 -0.2638
16 25 27 -0.5040 -0.0482
16 25 30 0.9337 0.4262
16 25 33 3.2451 -0.7418
16 25 36 10.2698 0.6990
16 26 -34 -4.4823 1.1892
16 26 -31 11.3653 0.3719
16 26 -28 -17.3044 0.2982
16 26 -25 10.8576 -0.0559
16 26 -22 -1.9660 0.3662
16 26 -19 -3.6661 0.4824
16 26 -16 -0.8981 -0.0087
16 26 -13 6.6461 -0.5538
16 26 -10 -6.7668 0.2487
16 26 -7 8.2898 0.2996
16 26 -4 -7.6769 -0.1610
16 26 -1 19.9008 -0.1805
16 26 2 17.0733 -0.2217
16 26 5 -6.4454 -0.1230
16 26 8 10.3497 0.3218
16 26 11 2.9517 0.3356
16 26 14 -2.6815 -0.1504
16 26 17 3.3106 -0.1936
16 26 20 -22.9859 -0.1197
16 26 23 9.2708 0.1119
16 26 26 14.7170 -0.1132
16 26 29 -11.4755 -0.1223
16 26 32 0.8682 0.4279
16 26 35 -8.2701 0.6302
16 27 -32 1.6912 0.2227
16 27 -29 7.6000 0.2671
16 27 -26 -3.7101 0.6527
16 27 -23 7.1529 0.0200
16 27 -20 -5.6389 -0.0166
16 27 -17 -1.5214 0.2171
16 27 -14 9.6741 -0.1183
16 27 -11 -5.3647 -0.4267
16 27 -8 -4.0845 -0.3368
16 27 -5 -4.1533 0.0602
16 27 -2 0.7886 0.2456
16 27 1 -4.3611 -0.2632
16 27 4 -6.7087 -0.1849
16 27 7 -13.1783 0.0281
16 27 10 0.7672 0.0649
16 27 13 -11.5818 0.5079
16 27 16 7.7048 -0.0244
16 27 19 -2.8630 -0.4553
16 27 22 16.0975 0.7224
16 27 25 7.0389 0.5938
16 27 28 -2.3674 -0.6957
16 27 31 11.1816 0.4536
16 28 -30 1.9962 0.8993
16 28 -27 -11.6432 -0.0558
16 28 -24 -0.0113 -0.0864
16 28 -21 -9.6815 0.5099
16 28 -18 -11.3057 0.2099
16 28 -15 8.8722 -0.0514
16 28 -12 -17.5863 0.0919
16 28 -9 26.2181 0.2331
16 28 -6 4.0790 -0.0492
16 28 -3 -5.0733 -0.0381
16 28 0 21.5805 0.0127
16 28 3 -23.2197 0.4384
16 28 6 3.7415 0.1853
16 28 9 25.5404 -0.3406
16 28 12 -9.6940 0.3352
16 28 15 16.3033 0.1441
16 28 18 2.3185 -0.0671
16 28 21 12.9584 -0.1712
16 28 24 3.8018 0.2543
16 28 27 0.4633 -0.8810
16 28 30 4.8810 -0.7537
16 29 -25 20.7083 -0.4042
16 29 -22 1.3586 0.7750
16 29 -19 7.6678 -0.0297
16 29 -16 18.5539 -1.2420
16 29 -13 11.7843 -0.3375
16 29 -10 1.8691 -0.0761
16 29 -7 4.4284 0.0044
16 29 -4 -9.3851 -0.0547
16 29 -1 -5.5878 -0.1182
16 29 2 -16.7025 -0.0526
16 29 5 -10.7781 0.5727
16 29 8 5.5998 -0.1587
16 29 11 -2.0460 -0.1012
16 29 14 -8.6597 -0.3099
16 29 17 17.2666 1.5150
16 29 20 2.6050 -0.3424
16 29 23 8.4002 -0.4232
16 29 26 5.7355 1.1462
16 30 -23 -5.8690 1.6020
16 30 -20 1.1975 -0.1616
16 30 -17 2.6705 -0.1923
16 30 -14 6.6250 -0.4619
16 30 -11 -10.4495 -0.4183
16 30 -8 -13.1133 0.4811
16 30 -5 -0.9127 0.3791
16 30 -2 -6.6087 -0.3259
16 30 1 -11.3390 -0.7244
16 30 4 13.5132 0.1149
16 30 7 -8.8328 1.0558
16 30 10 13.1710 -0.6241
16 30 13 -2.4358 -0.7983
16 30 16 2.8206 0.8101
16 30 19 12.8012 -0.0399
16 30 22 9.8919 -1.5421
16 31 -21 7.1713 0.7269
16 31 -18 2.7460 -0.5618
16 31 -15 3.0614 0.1236
16 31 -12 4.1622 -0.5290
16 31 -9 5.0622 -0.0861
16 31 -6 -6.3626 0.8164
16 31 -3 -19.1837 0.0727
16 31 0 -3.8204 -0.6683
16 31 3 8.0557 -0.3445
16 31 6 -8.0377 0.4361
16 31 9 -2.7870 -0.0327
16 31 12 -7.7663 -1.1880
16 31 15 5.3259 0.3526
16 31 18 -3.8601 0.9579
16 31 21 -4.3741 -0.9421
16 32 -16 -5.3166 0.2704
16 32 -13 -5.5936 -1.0761
16 32 -10 -5.7905 0.4102
16 32 -7 -6.8836 0.9426
16 32 -4 -11.4695 0.0200
16 32 -1 -6.6496 -0.8264
16 32 2 8.1723 -0.8376
16 32 5 -6.6582 0.7055
16 32 8 5.5195 1.0482
16 32 11 4.5386 -0.3677
16 32 14 5.1045 -1.0639
16 33 -8 -5.3034 0.2176
16 33 -5 2.0984 0.0696
16 33 -2 3.5705 -0.0143
16 33 1 -6.9586 -0.3826
16 33 4 3.0349 -0.5657
16 33 7 -5.8869 0.6721
17 1 -59 -5.2972 1.1323
17 1 -56 -2.5179 2.0594
17 1 -53 5.8208 -0.6974
17 1 -50 -4.3038 -1.3031
17 1 -47 5.8893 1.0277
17 1 -44 -11.3953 1.9231
17 1 -41 10.3816 -0.0938
17 1 -38 -4.0650 -1.5921
17 1 -35 -2.1108 -0.5936
17 1 -32 26.0206 1.2604
17 1 -29 -40.6512 1.0613
17 1 -26 -29.2245 -0.9665
17 1 -23 -12.4608 -1.2832
17 1 -20 58.4163 0.4792
17 1 -17 12.6500 1.1004
17 1 -14 -23.8929 -0.1129
17 1 -11 -21.2289 -1.5705
17 1 -8 5.9554 -1.1196
17 1 -5 73.1671 0.5323
17 1 -2 -76.3982 0.7098
17 1 1 18.8602 -0.1394
17 1 4 79.5004 -0.5416
17 1 7 -126.4143 -0.4212
17 1 10 42.4067 0.2365
17 1 13 3.6969 0.4018
17 1 16 37.5962 -0.1785
17 1 19 41.9088 0.2085
17 1 22 3.7093 0.8967
17 1 25 20.9192 0.2922
17 1 28 13.3901 0.3392
17 1 31 -0.8887 0.4232
17 1 34 -59.0911 -0.4968
17 1 37 18.5817 -0.1409
17 1 40 -18.3270 0.4504
17 1 43 24.8533 0.4948
17 1 46 -14.1940 -0.3930
17 1 49 -1.0291 -0.4144
17 1 52 -4.5057 0.1244
17 1 55 2.2794 0.4904
17 1 58 1.5522 0.8592
17 2 -57 2.8090 0.2228
17 2 -54 1.2372 1.1394
17 2 -51 -6.9139 0.5039
17 2 -48 -1.4923 -1.0599
17 2 -45 -13.0933 -1.0044
17 2 -42 -5.0708 0.9827
17 2 -39 -32.5575 1.4084
17 2 -36 -21.3596 -0.7535
17 2 -33 12.6382 -2.0883
17 2 -30 16.4082 0.2502
17 2 -27 -4.7871 2.2196
17 2 -24 53.3609 0.0173
17 2 -21 48.6075 -2.4308
17 2 -18 32.6818 -1.0188
17 2 -15 21.7240 2.0750
17 2 -12 -74.3026 1.9880
17 2 -9 69.8859 -1.1347
17 2 -6 -54.0006 -2.0894
17 2 -3 -57.9617 0.7467
17 2 0 -92.3790 2.4971
17 2 3 -21.8573 -0.0994
17 2 6 28.5169 -2.1999
17 2 9 -64.6471 -0.2482
17 2 12 0.2202 1.8990
17 2 15 -8.2056 0.9140
17 2 18 24.8538 -1.5013
17 2 21 -20.1033 -1.7497
17 2 24 44.9190 0.8514
17 2 27 24.5675 2.0272
17 2 30 66.4739 -0.3875
17 2 33 -17.6117 -2.1962
17 2 36 -20.9712 -0.0961
17 2 39 5.6386 1.6990
17 2 42 5.8356 0.5262
17 2 45 7.7996 -0.8925
17 2 48 -6.2232 -0.7453
17 2 51 14.9829 0.4541
17 2 54 -1.1768 1.2413
17 2 57 6.0675 -0.6810
17 3 -58 -0.3388 0.0991
17 3 -55 6.0404 0.3645
17 3 -52 2.7628 0.7123
17 3 -49 -14.2004 -0.2159
17 3 -46 16.5788 -1.2113
17 3 -43 -7.2779 -0.2907
17 3 -40 17.3526 1.2582
17 3 -37 25.6411 0.6982
17 3 -34 33.2755 -1.7405
17 3 -31 -30.8484 -1.3402
17 3 -28 50.5955 1.8039
17 3 -25 -69.7268 2.2545
17 3 -22 57.6639 -1.3430
17 3 -19 -12.3238 -3.0512
17 3 -16 -63.0979 0.8650
17 3 -13 -88.7129 3.6215
17 3 -10 -25.4834 -0.0504
17 3 -7 -65.3996 -3.9682
17 3 -4 30.4991 -1.2467
17 3 -1 19.3264 3.3291
17 3 2 -6.9580 2.0847
17 3 5 68.3610 -2.8775
17 3 8 121.3392 -3.4740
17 3 11 -96.3788 1.8753
17 3 14 212.1269 4.2214
17 3 17 -47.4252 -0.7062
17 3 20 26.8757 -4.2030
17 3 23 -9.3086 -0.0311
17 3 26 34.1029 4.1011
17 3 29 0.4966 1.4738
17 3 32 26.2509 -2.8366
17 3 35 -48.2628 -2.3032
17 3 38 -1.7800 1.9629
17 3 41 -21.9273 2.6949
17 3 44 1.7539 -0.8923
17 3 47 -18.1383 -2.5591
17 3 50 10.2202 -0.0195
17 3 53 -9.4453 2.9389
17 3 56 5.0565 0.8299
17 4 -56 9.7055 0.2801
17 4 -53 -2.1736 -1.0300
17 4 -50 0.9026 -0.9396
17 4 -47 -11.8916 1.1106
17 4 -44 3.8701 1.0370
17 4 -41 -26.9527 -0.4260
17 4 -38 -0.1015 -1.3539
17 4 -35 -41.9524 0.0473
17 4 -32 -28.3988 1.5124
17 4 -29 -12.0355 0.3629
17 4 -26 28.8174 -1.6454
17 4 -23 17.0787 -1.0403
17 4 -20 60.8035 1.4212
17 4 -17 -81.5454 1.6207
17 4 -14 48.9673 -0.9641
17 4 -11 -35.4614 -1.8478
17 4 -8 -16.1875 0.5659
17 4 -5 27.0824 1.9754
17 4 -2 -44.8880 0.2549
17 4 1 70.0488 -1.4992
17 4 4 -25.6802 -0.3519
17 4 7 10.1653 1.5912
17 4 10 24.9166 1.3626
17 4 13 -21.8142 -0.9301
17 4 16 2.5796 -1.2810
17 4 19 28.6032 0.8400
17 4 22 -29.7003 1.4644
17 4 25 29.7749 -0.5319
17 4 28 -35.1775 -1.5285
17 4 31 -2.8649 0.0559
17 4 34 42.6953 0.7746
17 4 37 0.4837 -0.1337
17 4 40 9.5305 -0.8726
17 4 43 13.7742 -0.5907
17 4 46 -12.8329 0.4971
17 4 49 15.5248 0.3911
17 4 52 8.0928 -0.5023
17 4 55 5.6465 -0.0118
17 5 -57 -0.5129 -0.2849
17 5 -54 -19.2627 0.5286
17 5 -51 10.5439 -1.5928
17 5 -48 14.0404 -0.5390
17 5 -45 -1.0409 1.1672
17 5 -42 13.5895 1.0153
17 5 -39 -6.2574 -1.0616
17 5 -36 30.0165 -1.5447
17 5 -33 21.0712 1.0074
17 5 -30 5.1377 2.0425
17 5 -27 4.5080 -0.6780
17 5 -24 1.0085 -2.2014
17 5 -21 -49.1814 0.0868
17 5 -18 -56.6496 2.2437
17 5 -15 -32.9364 0.3159
17 5 -12 -102.0274 -2.4685
17 5 -9 9.4500 -1.6772
17 5 -6 -40.4685 1.8115
17 5 -3 5.5221 2.1503
17 5 0 68.5045 -1.7929
17 5 3 -8.5090 -2.7660
17 5 6 3.3455 1.0825
17 5 9 49.5981 2.4469
17 5 12 20.7085 -0.5598
17 5 15 -38.7772 -2.3634
17 5 18 38.1751 0.0828
17 5 21 -26.1173 2.1645
17 5 24 58.0567 0.9092
17 5 27 21.5749 -1.7813
17 5 30 -44.3248 -1.1127
17 5 33 6.5185 1.7205
17 5 36 -16.8592 1.4576
17 5 39 3.7156 -0.9359
17 5 42 -4.0063 -1.0933
17 5 45 6.6347 0.6535
17 5 48 -14.3268 1.1488
17 5 51 6.6022 -0.7247
17 5 54 1.9189 -1.5768
17 5 57 -4.0309 -0.1464
17 6 -55 3.4747 0.4606
17 6 -52 9.2132 0.1528
17 6 -49 -4.8804 -0.8877
17 6 -46 -0.7841 -0.0453
17 6 -43 -18.6035 0.7848
17 6 -40 9.2702 0.4475
17 6 -37 -24.7217 -0.5123
17 6 -34 -39.2270 -0.6775
17 6 -31 -27.4787 0.4291
17 6 -28 38.2413 0.9583
17 6 -25 -36.1668 0.0622
17 6 -22 76.2988 -1.0917
17 6 -19 -28.3673 -0.3702
17 6 -16 3.6847 1.1898
17 6 -13 -1.6455 0.9086
17 6 -10 64.7601 -0.5113
17 6 -7 17.7079 -0.6405
17 6 -4 69.2721 0.4941
17 6 -1 2.0644 0.9507
17 6 2 72.5065 0.1610
17 6 5 37.6527 -0.7949
17 6 8 56.7322 -0.6305
17 6 11 -52.2630 0.9258
17 6 14 61.2351 0.9957
17 6 17 -41.2071 -0.7873
17 6 20 7.9273 -1.1574
17 6 23 1.0340 0.2748
17 6 26 56.9709 0.8862
17 6 29 -40.6422 -0.1741
17 6 32 -4.3009 -0.8914
17 6 35 -3.6762 -0.3916
17 6 38 29.1794 0.7712
17 6 41 -18.4177 0.8772
17 6 44 25.4795 -0.1688
17 6 47 -4.2999 -0.7228
17 6 50 21.8584 0.6985
17 6 53 10.4266 1.0342
17 6 56 -3.5390 -0.5633
17 7 -56 -3.1104 -0.6613
17 7 -53 9.0463 -0.5890
17 7 -50 -1.1244 0.4980
17 7 -47 16.8466 0.7908
17 7 -44 2.6272 -0.1691
17 7 -41 -4.3525 -0.8444
17 7 -38 8.8208 0.4028
17 7 -35 -24.3180 0.8730
17 7 -32 24.9372 0.0369
17 7 -29 35.9974 -0.7990
17 7 -26 -21.3769 -0.0277
17 7 -23 -8.5861 0.7909
17 7 -20 -9.1733 0.4365
17 7 -17 -121.3411 -0.7922
17 7 -14 -18.7894 -0.6816
17 7 -11 -64.4821 0.9723
17 7 -8 -6.9508 0.9079
17 7 -5 87.5005 -0.6162
17 7 -2 -54.5906 -1.1529
17 7 1 77.1840 0.1784
17 7 4 78.7893 0.8572
17 7 7 -32.7600 -0.0330
17 7 10 16.7325 -1.1157
17 7 13 -53.8623 -0.6881
17 7 16 46.8278 0.6104
17 7 19 2.9038 0.7691
17 7 22 -75.3501 -0.4665
17 7 25 25.9760 -1.2525
17 7 28 24.4953 0.1781
17 7 31 15.8084 0.9598
17 7 34 23.6546 0.1835
17 7 37 6.8932 -1.0226
17 7 40 -0.1292 -0.6590
17 7 43 13.8020 0.7823
17 7 46 8.6374 0.8145
17 7 49 -7.4685 -0.2527
17 7 52 10.9200 -0.7058
17 7 55 5.2716 0.9400
17 8 -54 5.8274 0.2058
17 8 -51 16.3793 -0.3792
17 8 -48 1.6616 -0.4563
17 8 -45 -11.4804 0.4205
17 8 -42 -7.3124 0.5310
17 8 -39 -17.1794 -0.0149
17 8 -36 -16.3624 -0.4400
17 8 -33 8.1408 0.1229
17 8 -30 -31.7836 0.3450
17 8 -27 14.4469 0.2272
17 8 -24 -19.3053 -0.5782
17 8 -21 1.3169 -0.6109
17 8 -18 5.1161 0.5333
17 8 -15 6.0927 0.6599
17 8 -12 1.5893 -0.4140
17 8 -9 75.4821 -0.8496
17 8 -6 37.5826 0.0755
17 8 -3 13.8203 0.6270
17 8 0 6.3792 -0.1086
17 8 3 20.8794 -0.8045
17 8 6 -22.2589 -0.3062
17 8 9 -16.8745 0.4706
17 8 12 -61.0284 0.2427
17 8 15 -19.7140 -0.4627
17 8 18 50.2673 -0.7593
17 8 21 -2.8381 0.1874
17 8 24 -3.6794 0.6476
17 8 27 11.7161 -0.3208
17 8 30 -23.5198 -0.6445
17 8 33 23.0821 0.2067
17 8 36 3.5043 0.4887
17 8 39 7.9298 0.1458
17 8 42 -12.8785 -0.5391
17 8 45 9.6796 -0.3042
17 8 48 -17.9307 0.5492
17 8 51 11.0919 -0.5490
17 8 54 7.2302 -0.2494
17 9 -55 8.2421 0.0387
17 9 -52 -2.9848 -0.9492
17 9 -49 -1.8605 -0.8748
17 9 -46 10.8653 1.2139
17 9 -43 -4.2897 1.0267
17 9 -40 13.3079 -0.7561
17 9 -37 -11.3798 -1.1893
17 9 -34 27.2591 0.5023
17 9 -31 15.5793 1.8654
17 9 -28 18.9976 0.4620
17 9 -25 -8.7142 -1.8578
17 9 -22 -27.1999 -0.9505
17 9 -19 -42.3954 1.8303
17 9 -16 -36.1078 1.5076
17 9 -13 7.0897 -1.2952
17 9 -10 29.9940 -2.0567
17 9 -7 1.0148 0.6295
17 9 -4 57.1331 1.9313
17 9 -1 26.3667 -0.1175
17 9 2 60.6884 -2.4433
17 9 5 -5.5125 -0.9878
17 9 8 -27.4975 1.8507
17 9 11 -4.5581 1.6591
17 9 14 45.7868 -1.4609
17 9 17 -81.1770 -1.9596
17 9 20 76.7699 0.6260
17 9 23 -40.6146 2.1372
17 9 26 19.3357 0.1679
17 9 29 -10.4443 -1.7959
17 9 32 0.0325 -0.7251
17 9 35 26.4366 1.6129
17 9 38 2.0273 1.5042
17 9 41 -11.6306 -0.7088
17 9 44 27.7913 -1.4715
17 9 47 11.9163 0.4473
17 9 50 23.9765 1.4990
17 9 53 -1.1895 -0.1364
17 10 -53 3.6757 0.0290
17 10 -50 -3.0962 0.6573
17 10 -47 9.6186 -0.7994
17 10 -44 -37.7872 -0.4569
17 10 -41 -6.1524 -0.0693
17 10 -38 -13.9476 0.4996
17 10 -35 -16.5946 -0.2804
17 10 -32 -14.5351 -0.3800
17 10 -29 -14.2029 0.0801
17 10 -26 -30.8037 0.4259
17 10 -23 21.7632 0.2409
17 10 -20 -15.2166 -0.4601
17 10 -17 -23.7031 -0.4933
17 10 -14 79.7533 0.3065
17 10 -11 73.0364 0.3346
17 10 -8 0.4783 -0.3122
17 10 -5 33.5559 -0.2580
17 10 -2 -60.0718 -0.0124
17 10 1 3.7052 0.1183
17 10 4 -45.2418 0.2867
17 10 7 -124.6296 -0.3558
17 10 10 1.6444 -0.2025
17 10 13 23.4897 0.1258
17 10 16 -84.8926 0.0504
17 10 19 39.5299 -0.1455
17 10 22 18.1463 -0.0743
17 10 25 29.2832 0.0187
17 10 28 59.3291 0.0036
17 10 31 -7.9519 0.1223
17 10 34 -5.4468 0.2751
17 10 37 24.0811 0.0829
17 10 40 -11.5311 -0.1097
17 10 43 -3.5212 -0.1409
17 10 46 13.4833 0.1412
17 10 49 -6.1032 0.6929
17 10 52 -14.5554 -0.1256
17 11 -51 1.4372 -0.5421
17 11 -48 -7.1347 0.3335
17 11 -45 -6.8435 0.0722
17 11 -42 -0.5503 -0.2134
17 11 -39 -0.2708 0.0294
17 11 -36 14.8413 0.4297
17 11 -33 20.2606 -0.2045
17 11 -30 -22.2806 -0.2277
17 11 -27 32.5447 0.3366
17 11 -24 -24.2249 0.5357
17 11 -21 -9.5767 -0.0461
17 11 -18 12.9897 -0.3500
17 11 -15 -17.2963 0.0226
17 11 -12 36.1267 0.4008
17 11 -9 -3.3152 0.0776
17 11 -6 -85.7422 -0.7810
17 11 -3 50.7451 -0.4712
17 11 0 -4.8166 0.5004
17 11 3 34.0732 0.3345
17 11 6 6.3731 -0.7690
17 11 9 -9.5511 -0.4327
17 11 12 68.9589 0.5253
17 11 15 9.0724 0.2265
17 11 18 -18.4248 -0.3747
17 11 21 -8.3059 -0.6356
17 11 24 -38.7030 -0.2122
17 11 27 6.4012 0.4562
17 11 30 -6.6804 0.3649
17 11 33 -10.4227 -0.6836
17 11 36 -3.5340 -0.6247
17 11 39 25.7854 0.3619
17 11 42 -25.6523 0.4260
17 11 45 22.0961 0.0132
17 11 48 5.8863 -0.8280
17 11 51 -5.0506 0.5420
17 12 -52 4.0053 0.3131
17 12 -49 11.1152 -0.3881
17 12 -46 -4.6553 1.0780
17 12 -43 -7.3299 -0.1784
17 12 -40 -8.9913 -1.1012
17 12 -37 2.1197 -0.1971
17 12 -34 -5.0859 0.6959
17 12 -31 -33.4839 0.6130
17 12 -28 3.1330 -0.8073
17 12 -25 -4.3728 -0.7618
17 12 -22 -16.0769 0.4665
17 12 -19 85.7218 0.8966
17 12 -16 3.8908 -0.4384
17 12 -13 47.1850 -0.9569
17 12 -10 24.3182 0.1890
17 12 -7 -25.3300 0.8478
17 12 -4 40.5597 0.1470
17 12 -1 -5.8536 -0.7137
17 12 2 -70.1039 -0.2585
17 12 5 12.1522 0.4677
17 12 8 -74.3791 0.3437
17 12 11 1.4854 -0.4440
17 12 14 6.8584 -0.5509
17 12 17 -30.7144 0.1472
17 12 20 55.4255 0.4299
17 12 23 -6.6036 0.0360
17 12 26 21.0521 -0.4651
17 12 29 8.9087 0.0262
17 12 32 22.6442 0.2188
17 12 35 5.8449 -0.0448
17 12 38 21.5609 -0.1752
17 12 41 13.7633 0.0432
17 12 44 -4.3772 0.1114
17 12 47 5.1425 -0.7125
17 12 50 -6.7692 -0.1698
17 13 -50 -8.0190 0.0915
17 13 -47 -6.6804 -0.5780
17 13 -44 -9.6422 0.5141
17 13 -41 22.2300 -0.0751
17 13 -38 7.7853 -0.0059
17 13 -35 1.2603 -0.1666
17 13 -32 4.7507 0.1970
17 13 -29 29.5461 0.3541
17 13 -26 3.7416 0.1332
17 13 -23 30.9865 -0.0028
17 13 -20 -11.9463 -0.0942
17 13 -17 6.4745 0.2427
17 13 -14 -9.6812 0.1657
17 13 -11 -51.6650 -0.1467
17 13 -8 -92.0884 -0.0097
17 13 -5 34.1979 0.1069
17 13 -2 -50.4404 -0.0360
17 13 1 11.5075 -0.2692
17 13 4 14.0971 0.1913
17 13 7 -4.0858 0.0381
17 13 10 40.7545 -0.0934
17 13 13 19.1250 -0.0322
17 13 16 -13.5122 0.2362
17 13 19 65.2977 0.1952
17 13 22 17.8209 0.0030
17 13 25 -20.5013 -0.3431
17 13 28 -9.1578 0.1014
17 13 31 -0.5966 0.5530
17 13 34 -19.2107 0.1121
17 13 37 -20.5258 -0.1478
17 13 40 -2.5339 -0.0663
17 13 43 -10.6398 0.3274
17 13 46 -0.0953 1.1938
17 13 49 -6.2317 -0.5246
17 14 -51 2.1706 -1.1610
17 14 -48 -9.7749 -0.6423
17 14 -45 5.3441 -1.0266
17 14 -42 4.1763 0.7874
17 14 -39 -2.3714 0.2682
17 14 -36 1.4709 -0.7105
17 14 -33 -5.4370 -0.5530
17 14 -30 -6.3851 0.6140
17 14 -27 18.3603 0.6770
17 14 -24 -5.6353 -0.2253
17 14 -21 8.6901 -0.7988
17 14 -18 4.7432 0.1032
17 14 -15 -5.8582 0.9207
17 14 -12 -1.2280 0.2901
17 14 -9 11.5067 -0.5224
17 14 -6 30.9887 -0.2483
17 14 -3 72.7352 0.5918
17 14 0 -18.7603 0.7766
17 14 3 -40.0920 -0.2994
17 14 6 -24.4727 -0.5786
17 14 9 -8.2631 0.0141
17 14 12 -41.8740 0.5189
17 14 15 -23.3976 0.1066
17 14 18 -53.6334 -0.5712
17 14 21 41.1921 -0.3491
17 14 24 16.2311 0.2880
17 14 27 4.7193 0.0419
17 14 30 31.5132 -0.1477
17 14 33 6.3585 -0.2126
17 14 36 -11.8050 0.0369
17 14 39 13.3268 0.4560
17 14 42 -16.0249 0.3276
17 14 45 7.1103 0.1851
17 14 48 2.3641 0.3752
17 14 51 1.8352 0.6331
17 15 -49 -11.8850 -0.1108
17 15 -46 8.5025 1.1799
17 15 -43 -7.3165 -0.5550
17 15 -40 -2.8382 -0.6087
17 15 -37 8.4014 0.4824
17 15 -34 4.3195 0.7588
17 15 -31 -1.8477 -0.0906
17 15 -28 44.1127 -0.6387
17 15 -25 1.2491 0.1468
17 15 -22 19.6155 0.8188
17 15 -19 -10.9945 -0.0409
17 15 -16 -50.3829 -0.8172
17 15 -13 -18.3686 -0.3549
17 15 -10 -15.8292 0.7833
17 15 -7 -27.5170 0.3787
17 15 -4 -34.6930 -0.5893
17 15 -1 -4.7484 -0.6325
17 15 2 -67.2099 0.3898
17 15 5 24.6664 0.4868
17 15 8 17.8647 -0.1545
17 15 11 10.9554 -0.7238
17 15 14 61.8456 0.0686
17 15 17 10.8799 0.8173
17 15 20 15.0808 -0.0059
17 15 23 22.9902 -0.8236
17 15 26 -4.4261 -0.2530
17 15 29 -13.9578 0.5628
17 15 32 8.9385 0.1093
17 15 35 -10.8191 -0.7363
17 15 38 -6.7944 -0.4622
17 15 41 -13.3016 0.2739
17 15 44 -11.1549 -0.7992
17 15 47 1.1476 -0.3336
17 15 50 8.9641 -0.0666
17 16 -47 9.8150 -0.3678
17 16 -44 0.1514 -0.0294
17 16 -41 6.1926 0.2073
17 16 -38 -14.8710 0.2808
17 16 -35 3.3952 -0.2356
17 16 -32 -9.1596 -0.0651
17 16 -29 -2.4599 -0.0259
17 16 -26 -12.8588 0.4818
17 16 -23 3.7971 0.1937
17 16 -20 -34.4134 -0.4146
17 16 -17 0.3413 -0.2738
17 16 -14 -18.8271 0.3107
17 16 -11 -4.0798 0.2819
17 16 -8 37.2980 -0.3449
17 16 -5 2.6851 -0.1248
17 16 -2 -5.8194 0.0840
17 16 1 42.3413 0.3354
17 16 4 -29.5101 0.0242
17 16 7 33.6989 -0.3493
17 16 10 -13.7820 -0.3850
17 16 13 -2.2114 0.0905
17 16 16 -6.5459 0.3481
17 16 19 -15.9503 -0.3142
17 16 22 -35.3820 -0.2952
17 16 25 1.0158 -0.1459
17 16 28 -34.5273 0.1830
17 16 31 0.4538 0.0922
17 16 34 -1.8293 0.1448
17 16 37 -1.6362 -0.3705
17 16 40 20.3882 -0.4947
17 16 43 3.5341 0.4418
17 16 46 -5.4056 -0.1980
17 17 -45 -6.6138 -0.0286
17 17 -42 9.4175 0.9260
17 17 -39 -16.2222 -0.8013
17 17 -36 11.9059 -0.3647
17 17 -33 4.7771 0.1713
17 17 -30 12.4640 0.8545
17 17 -27 12.9548 0.0329
17 17 -24 1.9342 -0.6217
17 17 -21 -28.8777 -0.3191
17 17 -18 4.4341 0.5684
17 17 -15 -9.7433 0.4902
17 17 -12 -1.3300 -0.6728
17 17 -9 14.2693 -0.7898
17 17 -6 -35.9425 0.5166
17 17 -3 -7.5583 0.7077
17 17 0 -7.1746 -0.1195
17 17 3 -18.8155 -0.6720
17 17 6 60.5709 -0.0724
17 17 9 6.0049 0.4672
17 17 12 -8.2095 0.2508
17 17 15 43.2446 -0.2896
17 17 18 11.4424 -0.4481
17 17 21 11.8475 0.5242
17 17 24 -6.3706 0.4921
17 17 27 -5.5715 0.1318
17 17 30 -10.5440 -0.3196
17 17 33 -6.6459 0.2440
17 17 36 -6.9727 0.4711
17 17 39 2.7830 0.1720
17 17 42 5.3900 0.5865
17 17 45 -7.0368 0.4050
17 18 -46 9.3771 -0.4726
17 18 -43 -0.6967 -1.1517
17 18 -40 11.3190 0.2663
17 18 -37 4.5001 0.0843
17 18 -34 3.3587 0.2855
17 18 -31 7.7805 -0.7004
17 18 -28 3.0021 0.3378
17 18 -25 -27.9341 0.3104
17 18 -22 -7.3715 0.0039
17 18 -19 -19.5359 -0.1637
17 18 -16 -8.2743 -0.0100
17 18 -13 8.4337 0.0751
17 18 -10 0.7929 0.0046
17 18 -7 -15.4341 0.0894
17 18 -4 43.2726 0.0729
17 18 -1 29.6603 0.0194
17 18 2 -6.3743 -0.1470
17 18 5 74.1634 -0.3659
17 18 8 6.2523 0.1637
17 18 11 -13.0306 0.0744
17 18 14 0.8437 -0.3454
17 18 17 -35.1734 -0.0010
17 18 20 -3.8347 0.2516
17 18 23 -19.3292 0.2112
17 18 26 -0.2522 -0.3757
17 18 29 6.4780 -0.1469
17 18 32 -3.2233 -0.1502
17 18 35 4.4442 0.5466
17 18 38 -5.7347 0.3527
17 18 41 8.0659 -0.5255
17 18 44 2.9082 -0.1857
17 19 -44 1.8978 0.9566
17 19 -41 -6.3750 -0.1268
17 19 -38 -3.8786 0.7198
17 19 -35 3.9205 -0.3496
17 19 -32 -0.1069 -0.3908
17 19 -29 2.6172 0.1048
17 19 -26 0.5877 0.6420
17 19 -23 -2.2066 -0.0976
17 19 -20 -10.5744 -0.6612
17 19 -17 21.6132 -0.0159
17 19 -14 7.7442 0.6696
17 19 -11 4.5572 0.2572
17 19 -8 3.1429 -0.6563
17 19 -5 31.2049 -0.5470
17 19 -2 -17.0097 0.4321
17 19 1 28.2376 0.5701
17 19 4 -16.2072 -0.3315
17 19 7 -1.4717 -0.7370
17 19 10 -5.2524 0.1619
17 19 13 -28.9927 0.4447
17 19 16 -25.6993 0.1985
17 19 19 19.6439 -0.7227
17 19 22 -19.1605 -0.5015
17 19 25 6.1949 -0.0917
17 19 28 -4.3013 0.6088
17 19 31 8.6739 -0.2516
17 19 34 23.7356 -0.6164
17 19 37 0.8689 -0.2999
17 19 40 -9.1904 0.2874
17 19 43 -9.8429 -0.2309
17 20 -42 11.2451 0.0074
17 20 -39 -5.1321 -0.4493
17 20 -36 12.0865 0.1017
17 20 -33 13.7665 -0.3639
17 20 -30 -1.4486 0.4484
17 20 -27 6.3726 -0.0407
17 20 -24 -7.6672 -0.2014
17 20 -21 -29.9415 0.2717
17 20 -18 26.2054 0.0621
17 20 -15 -20.8472 0.1348
17 20 -12 -8.9649 -0.1087
17 20 -9 5.8101 -0.0183
17 20 -6 7.6311 -0.1636
17 20 -3 7.6060 -0.0013
17 20 0 21.7144 0.1509
17 20 3 3.6712 -0.0630
17 20 6 3.5434 -0.3901
17 20 9 -0.5220 -0.2038
17 20 12 -3.3778 0.3890
17 20 15 -8.1485 0.4661
17 20 18 3.7876 -0.2980
17 20 21 -6.1390 -0.4119
17 20 24 0.8438 0.4445
17 20 27 11.1983 0.6357
17 20 30 -6.0505 -0.3283
17 20 33 11.4306 -0.5360
17 20 36 10.0112 -0.6036
17 20 39 -15.0682 0.4940
17 20 42 5.9274 -0.5631
17 21 -40 7.6040 0.7614
17 21 -37 -1.3937 -0.9983
17 21 -34 3.6048 0.3081
17 21 -31 -7.3264 -0.2179
17 21 -28 -3.0771 0.1607
17 21 -25 -6.4181 0.2571
17 21 -22 15.5718 -0.0278
17 21 -19 3.0875 0.2931
17 21 -16 26.8998 0.1046
17 21 -13 2.3114 -0.2164
17 21 -10 12.8877 -0.2924
17 21 -7 25.3037 0.1544
17 21 -4 22.6216 0.1833
17 21 -1 -13.9401 -0.1266
17 21 2 6.0930 -0.0152
17 21 5 -10.5300 -0.1925
17 21 8 -31.0763 0.1237
17 21 11 -19.6707 0.0241
17 21 14 6.6602 -0.0048
17 21 17 4.2951 -0.3141
17 21 20 12.8043 -0.3040
17 21 23 -11.5021 0.2689
17 21 26 17.6935 -0.2555
17 21 29 -2.4573 -0.2570
17 21 32 -10.8980 0.2436
17 21 35 6.6224 0.0189
17 21 38 -5.7187 0.4630
17 21 41 2.1781 0.4478
17 22 -38 8.2910 -0.0851
17 22 -35 -7.4289 -0.6030
17 22 -32 6.0956 -0.3752
17 22 -29 -7.0070 0.2604
17 22 -26 -17.5105 0.1698
17 22 -23 11.9469 -0.4632
17 22 -20 4.3153 -0.2754
17 22 -17 12.5736 0.6134
17 22 -14 -7.5414 0.0591
17 22 -11 2.4295 -0.7005
17 22 -8 9.5663 -0.4556
17 22 -5 21.6933 0.3032
17 22 -2 -32.8568 0.5053
17 22 1 9.2405 -0.0288
17 22 4 -13.3730 -0.6537
17 22 7 -2.3950 -0.1460
17 22 10 -7.5334 0.5079
17 22 13 10.9093 0.2404
17 22 16 12.5139 -0.1077
17 22 19 15.7775 -0.4872
17 22 22 -8.6520 0.5100
17 22 25 7.3131 0.4744
17 22 28 16.8857 -0.2969
17 22 31 11.8110 -0.4264
17 22 34 1.8369 0.5213
17 22 37 -11.1111 0.5143
17 22 40 3.9258 0.4360
17 23 -39 -3.1850 -2.1541
17 23 -36 -0.2850 0.4047
17 23 -33 -3.3981 -0.2648
17 23 -30 -1.2658 0.1844
17 23 -27 4.7853 -0.1020
17 23 -24 -3.4473 -0.5503
17 23 -21 5.6312 0.2912
17 23 -18 35.8977 0.4796
17 23 -15 -29.1468 0.1960
17 23 -12 33.8141 -0.5229
17 23 -9 21.6846 -0.3254
17 23 -6 -10.3194 0.4909
17 23 -3 5.2721 0.4236
17 23 0 -7.0315 -0.1798
17 23 3 -9.7595 -0.3118
17 23 6 31.4598 0.1833
17 23 9 -8.5024 0.2844
17 23 12 6.6706 -0.1440
17 23 15 14.7040 -0.2135
17 23 18 -8.8274 -0.0156
17 23 21 10.3984 0.0657
17 23 24 -4.6318 0.4804
17 23 27 -9.0008 -0.2560
17 23 30 18.6914 -0.8582
17 23 33 -13.4635 -0.3684
17 23 36 -0.1489 -0.1444
17 23 39 -2.5045 -1.5724
17 24 -37 -9.9114 -0.4118
17 24 -34 8.2677 -0.0551
17 24 -31 2.2274 -0.8009
17 24 -28 4.8435 -0.4746
17 24 -25 14.3643 0.2162
17 24 -22 22.4525 0.3052
17 24 -19 14.1945 -0.0301
17 24 -16 -0.8488 -0.2318
17 24 -13 -2.7410 -0.0600
17 24 -10 7.1075 0.6930
17 24 -7 -15.0135 0.0762
17 24 -4 -3.0161 -0.4510
17 24 -1 -20.6875 0.0689
17 24 2 2.4627 0.1253
17 24 5 4.4919 0.1314
17 24 8 1.2836 -0.0332
17 24 11 -1.8595 -0.6643
17 24 14 17.4686 -0.0710
17 24 17 -28.0577 0.6946
17 24 20 -0.1752 0.0708
17 24 23 0.9382 -0.5988
17 24 26 5.0298 -0.4347
17 24 29 8.4156 0.7667
17 24 32 -4.4554 -0.1493
17 24 35 0.7588 0.5705
17 25 -35 -7.6795 -2.0022
17 25 -32 13.0202 0.3795
17 25 -29 -10.9121 0.2958
17 25 -26 4.4102 0.1039
17 25 -23 26.5496 -0.3238
17 25 -20 -9.2807 -0.0900
17 25 -17 -11.1334 0.7700
17 25 -14 2.7405 0.4129
17 25 -11 -0.6193 -0.5321
17 25 -8 -7.3343 -0.8231
17 25 -5 10.0265 0.4953
17 25 -2 -22.9160 0.9915
17 25 1 26.4761 0.0605
17 25 4 -7.3575 -0.7698
17 25 7 0.9550 -0.1947
17 25 10 -11.3355 0.3606
17 25 13 15.5006 0.4659
17 25 16 -16.7957 -0.4121
17 25 19 0.7959 -0.3715
17 25 22 15.2735 0.4875
17 25 25 3.9714 0.4680
17 25 28 -2.4164 0.8892
17 25 31 2.4291 -0.7322
17 25 34 -15.5142 -0.0833
17 26 -33 4.4842 0.3735
17 26 -30 6.2343 0.1152
17 26 -27 -4.4278 -0.0454
17 26 -24 -2.6409 -0.0640
17 26 -21 -0.5096 0.5467
17 26 -18 -24.0774 1.1955
17 26 -15 -14.2644 0.1211
17 26 -12 8.2190 -0.4634
17 26 -9 1.0655 -0.0442
17 26 -6 -18.9068 0.7300
17 26 -3 11.7799 0.4793
17 26 0 16.5849 -0.4108
17 26 3 -8.1735 -0.8276
17 26 6 8.5711 -0.1020
17 26 9 -28.4099 0.4845
17 26 12 7.0016 -0.1509
17 26 15 2.8215 -0.5729
17 26 18 -17.5986 -0.0323
17 26 21 7.6644 1.2276
17 26 24 6.7395 -0.5412
17 26 27 -1.1506 -0.2756
17 26 30 9.5133 -0.6649
17 26 33 -6.6909 -1.0088
17 27 -31 -12.1886 -1.1871
17 27 -28 8.5387 0.3483
17 27 -25 0.3030 0.4823
17 27 -22 -0.5091 0.1694
17 27 -19 -13.6302 0.2903
17 27 -16 -0.2709 -0.0611
17 27 -13 -5.7325 0.3608
17 27 -10 13.6343 0.0222
17 27 -7 -2.1975 -0.3376
17 27 -4 4.5015 0.1744
17 27 -1 8.5455 0.1590
17 27 2 -10.1240 -0.1964
17 27 5 -0.5181 -0.3599
17 27 8 10.4159 0.0695
17 27 11 -11.1159 0.4278
17 27 14 7.9230 -0.4230
17 27 17 0.5171 -1.0138
17 27 20 -4.8561 0.6120
17 27 23 10.7070 0.2071
17 27 26 0.0074 -0.6119
17 27 29 -12.2830 0.6433
17 28 -26 -6.0572 -0.2450
17 28 -23 -6.0317 0.6686
17 28 -20 -11.3324 0.4428
17 28 -17 17.2088 0.2131
17 28 -14 -7.3380 -0.2211
17 28 -11 2.0678 -0.4767
17 28 -8 8.1433 -0.1355
17 28 -5 11.9500 0.0907
17 28 -2 -18.8002 0.2929
17 28 1 11.4381 0.1262
17 28 4 -18.6538 -0.3186
17 28 7 12.7232 -0.3372
17 28 10 2.7504 0.5860
17 28 13 -5.5873 0.4243
17 28 16 13.8113 -0.2973
17 28 19 0.7679 -0.1715
17 28 22 2.1078 0.6489
17 28 25 -11.1208 -0.7861
17 28 28 -12.9466 -1.1731
17 29 -24 5.0263 0.5783
17 29 -21 1.2694 1.0096
17 29 -18 4.1218 0.1179
17 29 -15 -2.9605 0.0418
17 29 -12 20.0263 -0.4354
17 29 -9 17.5081 0.3224
17 29 -6 -7.1269 -0.4576
17 29 -3 14.8710 -0.0820
17 29 0 3.1064 0.5781
17 29 3 -13.1205 0.0517
17 29 6 9.8826 -0.3024
17 29 9 -7.2358 -0.6490
17 29 12 4.5859 0.3316
17 29 15 1.2330 0.5338
17 29 18 0.0354 -0.4858
17 29 21 9.1035 0.1254
17 29 24 0.5238 -0.5471
17 30 -19 2.3426 -1.5610
17 30 -16 -3.1351 0.5952
17 30 -13 10.9755 -0.5629
17 30 -10 9.4833 -0.0060
17 30 -7 -11.8675 -0.6323
17 30 -4 -2.0054 -0.2135
17 30 -1 10.6010 0.3345
17 30 2 -0.8216 0.4638
17 30 5 5.5781 -0.2316
17 30 8 5.6634 -0.3285
17 30 11 3.0808 0.1039
17 30 14 6.9965 0.7334
17 30 17 -3.9841 -0.8705
17 30 20 -10.5547 -0.3490
17 31 -17 4.6839 0.3765
17 31 -14 -6.8197 -0.9010
17 31 -11 0.0708 -0.1442
17 31 -8 5.4823 -0.2029
17 31 -5 12.2139 0.8983
17 31 -2 -4.8708 0.4094
17 31 1 13.3456 -0.7126
17 31 4 4.4032 -0.3559
17 31 7 4.3607 0.1994
17 31 10 -0.4374 -0.1483
17 31 13 -4.1990 0.0248
17 31 16 5.0433 0.3124
17 32 -9 11.3077 0.6398
17 32 -6 -0.0156 0.8514
17 32 -3 -1.9982 -0.0822
17 32 0 -5.7102 -0.6461
17 32 3 3.2363 0.0124
17 32 6 -4.2275 1.2152
17 32 9 -0.8914 -0.2172
18 1 -58 6.3482 -2.7313
18 1 -55 -0.7033 1.3873
18 1 -52 -4.9147 3.2159
18 1 -49 10.2271 -1.1443
18 1 -46 11.7851 -4.8050
18 1 -43 -0.8108 0.0563
18 1 -40 22.4009 5.0766
18 1 -37 -19.8811 1.5334
18 1 -34 1.5461 -5.3775
18 1 -31 39.2537 -2.9376
18 1 -28 -45.3956 5.0846
18 1 -25 -16.3245 4.7256
18 1 -22 2.1554 -3.9260
18 1 -19 -54.8565 -5.8435
18 1 -16 -21.4189 2.6435
18 1 -13 54.3127 7.3345
18 1 -10 -72.1585 0.0836
18 1 -7 87.0049 -7.5446
18 1 -4 27.2301 -2.2537
18 1 -1 32.6756 6.6445
18 1 2 179.4602 3.8524
18 1 5 230.4372 -5.8334
18 1 8 -86.1049 -5.4918
18 1 11 108.4365 3.5567
18 1 14 -39.4907 5.8446
18 1 17 -68.3791 -2.2248
18 1 20 32.0434 -6.2150
18 1 23 -50.2615 0.5754
18 1 26 -70.5220 5.6489
18 1 29 19.5176 1.0571
18 1 32 -66.0574 -4.5210
18 1 35 4.7534 -1.5405
18 1 38 29.3636 3.4724
18 1 41 9.4438 2.5169
18 1 44 6.7066 -1.9679
18 1 47 21.6382 -2.4594
18 1 50 -2.5851 1.4963
18 1 53 10.2390 2.3743
18 1 56 1.4690 -0.3417
18 2 -56 11.0626 0.2844
18 2 -53 9.1309 0.2705
18 2 -50 1.2083 -1.4685
18 2 -47 12.5034 -1.2001
18 2 -44 15.1163 0.5637
18 2 -41 -4.9778 1.8096
18 2 -38 -9.3372 -0.3164
18 2 -35 -16.7188 -2.6569
18 2 -32 -9.4115 -0.4807
18 2 -29 -34.5872 2.8480
18 2 -26 -3.0719 1.8205
18 2 -23 10.1117 -2.7970
18 2 -20 -6.5991 -3.0216
18 2 -17 37.1559 2.6995
18 2 -14 55.0530 4.0908
18 2 -11 -19.2202 -1.6633
18 2 -8 89.0606 -4.7930
18 2 -5 -7.8297 0.4072
18 2 -2 -17.3443 5.2541
18 2 1 51.5882 1.4278
18 2 4 -46.3713 -4.7086
18 2 7 33.5442 -2.7317
18 2 10 -33.4434 3.8332
18 2 13 -32.6027 3.7120
18 2 16 38.3724 -2.5259
18 2 19 -63.7998 -4.5029
18 2 22 35.6645 1.2597
18 2 25 -20.1343 4.6307
18 2 28 57.5314 0.3869
18 2 31 66.7848 -4.0147
18 2 34 -21.0093 -1.5707
18 2 37 17.0823 3.0377
18 2 40 3.4262 2.4333
18 2 43 -6.0152 -1.9889
18 2 46 3.7815 -2.4724
18 2 49 3.9813 1.3719
18 2 52 -15.1561 2.7251
18 2 55 5.6381 -0.1570
18 2 58 3.9846 -2.4636
18 3 -57 3.0481 0.5056
18 3 -54 3.7322 -1.6252
18 3 -51 -0.0704 -1.9417
18 3 -48 -2.3455 0.8193
18 3 -45 11.2244 2.5152
18 3 -42 -26.9902 -0.5982
18 3 -39 -8.1008 -2.7826
18 3 -36 12.2968 -0.2121
18 3 -33 -17.7753 3.4511
18 3 -30 7.0506 1.5750
18 3 -27 1.9289 -3.0967
18 3 -24 -6.1446 -2.4720
18 3 -21 -26.2281 2.8035
18 3 -18 34.9786 3.8196
18 3 -15 -2.7634 -1.5702
18 3 -12 3.5422 -4.5659
18 3 -9 -82.8024 0.4289
18 3 -6 -34.3217 4.8287
18 3 -3 17.2933 0.6456
18 3 0 80.9773 -4.9010
18 3 3 20.8336 -1.9927
18 3 6 37.0873 3.5421
18 3 9 13.7194 2.6507
18 3 12 -53.6666 -2.8056
18 3 15 -26.8338 -3.6469
18 3 18 -37.6197 0.9680
18 3 21 16.7604 3.4917
18 3 24 -63.2359 -0.0155
18 3 27 -17.9486 -3.2217
18 3 30 32.0125 -0.9282
18 3 33 -3.7311 2.2479
18 3 36 20.0771 1.6593
18 3 39 -15.2685 -1.7412
18 3 42 2.6731 -1.9534
18 3 45 -13.7853 1.0526
18 3 48 13.6296 1.7419
18 3 51 -8.2856 -0.0445
18 3 54 6.5555 -1.3274
18 3 57 5.6050 0.4400
18 4 -55 -1.9169 1.0907
18 4 -52 -11.3020 -0.4325
18 4 -49 19.3840 0.4269
18 4 -46 -17.5343 -0.1247
18 4 -43 10.1627 -0.1195
18 4 -40 1.4465 -0.1539
18 4 -37 -0.4041 0.2553
18 4 -34 -26.6617 0.5614
18 4 -31 -18.4362 0.3037
18 4 -28 -64.1571 -0.2995
18 4 -25 -15.7438 -0.6645
18 4 -22 -4.8810 0.4752
18 4 -19 32.1229 0.9846
18 4 -16 67.1421 -0.5283
18 4 -13 57.2991 -1.2384
18 4 -10 -58.1939 -0.1424
18 4 -7 132.9780 1.3372
18 4 -4 6.9882 0.7347
18 4 -1 109.7037 -1.4638
18 4 2 -39.5121 -1.4743
18 4 5 -20.5993 0.8418
18 4 8 -29.6862 1.6222
18 4 11 4.1735 -0.3798
18 4 14 -42.0675 -1.6751
18 4 17 -28.0928 -0.2085
18 4 20 32.0997 1.7084
18 4 23 -3.5178 0.8155
18 4 26 -28.8080 -1.2134
18 4 29 27.4908 -1.1103
18 4 32 -1.4245 1.1102
18 4 35 35.0092 1.6467
18 4 38 -0.7868 -0.5534
18 4 41 16.3435 -1.3305
18 4 44 10.9096 -0.2011
18 4 47 6.7359 1.2827
18 4 50 -4.0112 0.6212
18 4 53 7.6807 -1.3066
18 4 56 -6.8342 -0.5116
18 5 -56 -3.2213 -0.6944
18 5 -53 -4.9379 1.5719
18 5 -50 -5.8797 0.4902
18 5 -47 -9.5225 -0.5291
18 5 -44 -7.0180 -0.9962
18 5 -41 -12.8786 0.5568
18 5 -38 -29.5535 1.5349
18 5 -35 -8.3295 -0.0789
18 5 -32 -7.6112 -1.5025
18 5 -29 24.3247 -0.2195
18 5 -26 26.3396 1.8003
18 5 -23 63.7784 1.0090
18 5 -20 17.6754 -1.4463
18 5 -17 65.5318 -1.3469
18 5 -14 -11.7420 1.0564
18 5 -11 -61.3585 1.8535
18 5 -8 14.4492 -0.7633
18 5 -5 -98.0460 -2.1783
18 5 -2 19.5679 -0.1219
18 5 1 -17.0435 2.1492
18 5 4 -55.9631 0.5118
18 5 7 67.5294 -1.9721
18 5 10 -60.1238 -1.3301
18 5 13 -28.4195 1.4601
18 5 16 49.9259 1.6744
18 5 19 -68.4912 -0.7411
18 5 22 55.8062 -1.8555
18 5 25 32.1165 0.4253
18 5 28 -25.9055 1.8475
18 5 31 33.5232 0.2816
18 5 34 -29.5717 -1.4591
18 5 37 16.1320 -0.4255
18 5 40 6.4890 1.2028
18 5 43 6.7368 0.7769
18 5 46 -18.4719 -1.0052
18 5 49 12.8805 -1.2811
18 5 52 -15.2060 0.3610
18 5 55 3.9494 0.4503
18 6 -54 -2.3384 -0.7649
18 6 -51 4.0243 0.2467
18 6 -48 -5.7991 0.7654
18 6 -45 14.4539 0.2491
18 6 -42 -20.1453 -1.0498
18 6 -39 6.7443 0.2359
18 6 -36 -5.6745 1.0563
18 6 -33 -25.4952 -0.1476
18 6 -30 -7.5527 -0.9533
18 6 -27 -6.7498 -0.4565
18 6 -24 -58.4725 0.9556
18 6 -21 69.4931 0.6331
18 6 -18 13.6092 -0.9160
18 6 -15 -56.5580 -1.1506
18 6 -12 2.5371 0.5372
18 6 -9 14.2583 1.2653
18 6 -6 24.7720 -0.4476
18 6 -3 66.2010 -1.3328
18 6 0 -23.4486 0.4868
18 6 3 5.5660 1.5846
18 6 6 27.9038 0.2002
18 6 9 -61.2964 -1.3017
18 6 12 -37.5302 -0.4533
18 6 15 71.8922 1.5225
18 6 18 -79.8148 0.8966
18 6 21 -48.0825 -1.4172
18 6 24 41.3097 -1.3720
18 6 27 -9.6730 0.8141
18 6 30 23.2268 1.3111
18 6 33 -5.6699 -0.4415
18 6 36 -25.6703 -1.2791
18 6 39 8.5493 -0.1142
18 6 42 6.4339 1.5191
18 6 45 -9.2445 0.6190
18 6 48 3.3215 -1.2904
18 6 51 6.6431 0.0734
18 6 54 2.1162 1.0316
18 7 -55 -3.1951 1.1971
18 7 -52 -6.8240 -0.3358
18 7 -49 2.5563 -0.1068
18 7 -46 -13.7558 0.2582
18 7 -43 6.5274 0.3386
18 7 -40 -14.3527 -0.0789
18 7 -37 -22.0851 -1.0264
18 7 -34 -11.3043 -0.5643
18 7 -31 13.4253 0.6338
18 7 -28 7.9678 0.5741
18 7 -25 61.1932 -0.8652
18 7 -22 71.3586 -0.6290
18 7 -19 41.2520 0.6762
18 7 -16 -21.1875 0.7475
18 7 -13 -38.2875 -0.2141
18 7 -10 -46.6010 -0.7930
18 7 -7 78.5174 0.1110
18 7 -4 -85.8606 0.9747
18 7 -1 -25.3702 0.3914
18 7 2 -10.7789 -0.9804
18 7 5 3.8813 -0.5483
18 7 8 -3.7118 0.6361
18 7 11 -16.4480 0.5339
18 7 14 3.8105 -0.5972
18 7 17 74.3582 -0.6622
18 7 20 -37.3679 0.3659
18 7 23 19.3987 0.8599
18 7 26 -4.9780 -0.0865
18 7 29 8.8197 -0.9965
18 7 32 28.5539 -0.3249
18 7 35 3.7547 0.6999
18 7 38 -3.9439 0.1866
18 7 41 19.5086 -0.9304
18 7 44 -4.8283 -0.6112
18 7 47 -9.4343 0.8814
18 7 50 13.8076 0.0981
18 7 53 4.4547 -0.6969
18 8 -53 -5.0787 0.4580
18 8 -50 6.1484 -0.9112
18 8 -47 7.3166 -0.1871
18 8 -44 2.6940 -0.0056
18 8 -41 12.2857 0.1696
18 8 -38 -9.9391 -0.2696
18 8 -35 16.9519 -0.3158
18 8 -32 22.7102 0.3883
18 8 -29 -14.0837 0.2359
18 8 -26 4.9270 -0.3487
18 8 -23 10.9799 -0.3686
18 8 -20 -58.1956 0.2495
18 8 -17 -17.2461 0.3886
18 8 -14 -35.2384 -0.4708
18 8 -11 -58.3087 -0.6517
18 8 -8 91.3838 0.5940
18 8 -5 -35.4467 1.1064
18 8 -2 -11.0382 -0.0223
18 8 1 49.2670 -0.8536
18 8 4 -56.2210 0.2834
18 8 7 34.6649 1.1566
18 8 10 13.9187 0.3521
18 8 13 -52.3051 -0.9796
18 8 16 71.7359 -0.4144
18 8 19 -9.8107 0.7928
18 8 22 11.1739 0.7326
18 8 25 19.9247 -0.6520
18 8 28 -37.3469 -0.7809
18 8 31 13.8093 0.4512
18 8 34 -11.8263 0.8892
18 8 37 -12.1917 -0.1447
18 8 40 -15.5940 -0.9705
18 8 43 23.0469 -0.1391
18 8 46 -25.1116 1.1011
18 8 49 16.1704 0.4155
18 8 52 -6.1519 -1.3143
18 9 -54 -8.2506 0.1654
18 9 -51 -11.7197 0.3781
18 9 -48 -1.9405 0.2925
18 9 -45 -1.8068 -0.9161
18 9 -42 -21.5410 -0.4971
18 9 -39 8.3271 0.5513
18 9 -36 -19.1236 0.1976
18 9 -33 -4.8035 -0.5335
18 9 -30 8.1803 -0.4597
18 9 -27 14.3620 -0.0085
18 9 -24 9.5045 0.6525
18 9 -21 43.8450 0.3719
18 9 -18 -48.8477 -0.4850
18 9 -15 2.7669 -0.4854
18 9 -12 33.4105 0.4358
18 9 -9 -23.8278 0.9426
18 9 -6 -23.2389 0.1666
18 9 -3 -16.8701 -0.7412
18 9 0 -34.4277 -0.0508
18 9 3 44.3467 0.9627
18 9 6 -30.9785 0.5082
18 9 9 31.8534 -0.4871
18 9 12 -22.2007 -0.7612
18 9 15 -0.0961 0.4676
18 9 18 -25.1928 0.8544
18 9 21 18.7877 0.1407
18 9 24 28.8481 -0.9586
18 9 27 15.5901 -0.2336
18 9 30 -30.7159 0.7421
18 9 33 -7.1926 0.6417
18 9 36 23.0996 -0.2179
18 9 39 -9.6650 -0.5227
18 9 42 8.3714 0.2212
18 9 45 5.6202 0.7418
18 9 48 -3.1419 0.3218
18 9 51 8.8128 -0.5727
18 9 54 1.8158 -0.7017
18 10 -52 -0.8743 0.4812
18 10 -49 20.3081 0.9852
18 10 -46 0.2573 0.0777
18 10 -43 -0.1759 -0.8958
18 10 -40 4.5212 0.1388
18 10 -37 6.2027 1.0654
18 10 -34 7.5769 0.2188
18 10 -31 8.9527 -0.5755
18 10 -28 -0.5647 -0.4381
18 10 -25 5.7123 0.4718
18 10 -22 -19.6983 0.7890
18 10 -19 -36.9914 -0.6749
18 10 -16 -38.8978 -0.9510
18 10 -13 12.1256 0.3998
18 10 -10 -2.6813 1.0344
18 10 -7 -10.7382 0.1529
18 10 -4 -31.2733 -0.5887
18 10 -1 44.6251 -0.2021
18 10 2 69.9217 0.7505
18 10 5 -6.4726 0.5819
18 10 8 28.9277 -0.2844
18 10 11 54.2356 -0.5478
18 10 14 -15.3193 0.2670
18 10 17 8.8975 0.5280
18 10 20 -45.2202 -0.0649
18 10 23 1.2561 -0.5338
18 10 26 39.0609 -0.0508
18 10 29 -13.3911 0.1374
18 10 32 7.9024 0.0333
18 10 35 12.7642 -0.2055
18 10 38 -4.8856 -0.4204
18 10 41 -11.6260 -0.1341
18 10 44 7.2738 0.1626
18 10 47 -5.0355 -0.1821
18 10 50 13.5813 1.0104
18 10 53 0.0441 0.1794
18 11 -50 8.5829 -0.8394
18 11 -47 -10.8298 -0.2353
18 11 -44 -4.2957 0.5322
18 11 -41 -1.5943 0.1701
18 11 -38 -9.2054 -0.1230
18 11 -35 -7.7221 -0.3790
18 11 -32 2.4237 0.0961
18 11 -29 -32.6552 0.5734
18 11 -26 35.6968 0.6250
18 11 -23 10.6889 -0.3968
18 11 -20 -1.9400 -0.4735
18 11 -17 22.0442 0.3228
18 11 -14 -6.9916 0.6209
18 11 -11 -28.4094 -0.0152
18 11 -8 13.7705 -0.4232
18 11 -5 -58.1302 -0.2258
18 11 -2 12.7697 0.5362
18 11 1 52.9550 0.5755
18 11 4 5.5651 -0.3848
18 11 7 8.6817 -0.8103
18 11 10 20.4591 0.0270
18 11 13 -32.0238 0.8454
18 11 16 30.4414 -0.0365
18 11 19 -7.0691 -0.9380
18 11 22 -51.3827 -0.1143
18 11 25 9.9332 0.3789
18 11 28 -26.1993 0.3127
18 11 31 -1.2168 -0.3429
18 11 34 15.5873 -0.5998
18 11 37 14.0144 -0.1255
18 11 40 10.2508 0.3407
18 11 43 17.7412 -0.0235
18 11 46 -12.5799 -0.8848
18 11 49 11.4214 -0.3859
18 11 52 -0.8566 0.2981
18 12 -51 4.0227 -0.1715
18 12 -48 11.9093 0.1180
18 12 -45 12.3007 -0.3958
18 12 -42 -5.2903 0.1629
18 12 -39 20.9909 0.2413
18 12 -36 -20.0842 -0.0502
18 12 -33 5.1463 -0.2318
18 12 -30 16.7975 0.2032
18 12 -27 -28.4052 0.6439
18 12 -24 -15.5707 -0.0085
18 12 -21 -27.0882 -0.4596
18 12 -18 -36.7146 0.2846
18 12 -15 1.3906 0.5294
18 12 -12 -5.2121 -0.0380
18 12 -9 -49.3730 -0.4156
18 12 -6 89.5492 -0.0154
18 12 -3 58.9524 0.6497
18 12 0 3.5526 0.4037
18 12 3 127.9614 -0.5390
18 12 6 -48.0292 -0.4045
18 12 9 2.3877 0.5364
18 12 12 19.4394 0.3389
18 12 15 -41.7414 -0.0295
18 12 18 38.8883 -0.4789
18 12 21 -24.1346 0.0507
18 12 24 -38.6604 0.3966
18 12 27 26.5278 0.0919
18 12 30 -25.9150 -0.3388
18 12 33 -3.9992 -0.1578
18 12 36 16.9840 0.7768
18 12 39 -2.4488 0.1976
18 12 42 7.5535 -0.4825
18 12 45 3.4930 0.2103
18 12 48 2.6956 -0.3570
18 12 51 1.9525 -0.1044
18 13 -49 3.7242 0.1583
18 13 -46 -0.3932 -0.8223
18 13 -43 -0.2000 -0.2142
18 13 -40 7.2173 0.4294
18 13 -37 3.5725 0.7997
18 13 -34 -17.5944 -0.2705
18 13 -31 5.8204 -0.8754
18 13 -28 7.5972 0.3159
18 13 -25 -8.5860 0.8752
18 13 -22 14.9582 0.1598
18 13 -19 2.0153 -0.9034
18 13 -16 1.2896 -0.2708
18 13 -13 14.9439 0.4101
18 13 -10 -12.3261 0.3141
18 13 -7 22.4893 -0.3411
18 13 -4 39.9672 -0.8295
18 13 -1 -50.8730 -0.0729
18 13 2 22.1912 0.5336
18 13 5 -30.4149 0.1087
18 13 8 -25.6647 -0.4754
18 13 11 53.2654 -0.1594
18 13 14 -72.9570 0.5076
18 13 17 22.7777 0.1799
18 13 20 22.1590 -0.0318
18 13 23 4.5287 -0.1936
18 13 26 17.5984 -0.2977
18 13 29 -4.3153 0.0226
18 13 32 -4.4554 0.2176
18 13 35 -7.6581 0.4236
18 13 38 6.0185 0.2107
18 13 41 -8.9435 0.0061
18 13 44 14.6840 0.0353
18 13 47 5.9705 0.6563
18 13 50 -2.1428 0.7131
18 14 -47 2.7977 0.1359
18 14 -44 12.1529 0.3920
18 14 -41 -5.5541 -0.2867
18 14 -38 6.9198 0.5670
18 14 -35 -3.6910 -0.0599
18 14 -32 -12.9251 -0.6311
18 14 -29 -7.0571 -0.0904
18 14 -26 16.5275 0.2662
18 14 -23 -44.8626 0.0499
18 14 -20 14.1334 -0.0114
18 14 -17 -25.0882 -0.1052
18 14 -14 11.8762 0.0095
18 14 -11 10.0009 0.4694
18 14 -8 63.0388 0.1376
18 14 -5 -5.5940 -0.5321
18 14 -2 70.7301 -0.1882
18 14 1 32.5191 0.7087
18 14 4 -7.0410 0.2710
18 14 7 -6.8630 -0.4658
18 14 10 27.2783 -0.2415
18 14 13 -22.1306 0.5088
18 14 16 -5.7244 0.5074
18 14 19 -31.4708 -0.0988
18 14 22 -1.6449 -0.7438
18 14 25 6.0985 -0.0338
18 14 28 -15.0323 0.4819
18 14 31 22.2650 0.1484
18 14 34 5.3204 -0.6438
18 14 37 -2.7980 -0.2894
18 14 40 -7.6374 0.5837
18 14 43 -2.0243 0.1150
18 14 46 10.8262 0.0015
18 14 49 8.6255 0.3812
18 15 -48 -0.7434 -0.4169
18 15 -45 2.6070 -0.2086
18 15 -42 -16.8718 0.6251
18 15 -39 -10.7221 -0.2447
18 15 -36 2.1184 -0.5351
18 15 -33 -6.1966 -0.2030
18 15 -30 13.0998 0.4993
18 15 -27 -6.8249 0.1520
18 15 -24 0.9371 -0.4203
18 15 -21 33.6220 -0.4963
18 15 -18 -8.1348 0.2004
18 15 -15 28.0702 0.5338
18 15 -12 18.9804 -0.0129
18 15 -9 9.2047 -0.4465
18 15 -6 15.5857 -0.0618
18 15 -3 -22.3097 0.1999
18 15 0 -35.0096 0.3001
18 15 3 4.4005 -0.1186
18 15 6 -41.0913 -0.4685
18 15 9 8.8897 -0.0830
18 15 12 30.3880 0.5836
18 15 15 -4.3817 0.2856
18 15 18 -10.5367 -0.4161
18 15 21 16.8651 -0.5033
18 15 24 2.6367 0.2837
18 15 27 14.1265 0.3573
18 15 30 -9.3758 -0.0731
18 15 33 7.8946 -0.7935
18 15 36 -3.4334 -0.5887
18 15 39 16.3673 0.2786
18 15 42 -19.8583 -0.0501
18 15 45 4.9305 -0.8730
18 15 48 1.0484 -0.6580
18 16 -46 2.0800 -0.2048
18 16 -43 -1.0399 -0.0550
18 16 -40 5.3543 0.5948
18 16 -37 0.4303 -0.4284
18 16 -34 -9.1803 -1.0843
18 16 -31 6.9356 -0.1272
18 16 -28 -14.6077 0.6279
18 16 -25 -5.4584 0.7165
18 16 -22 26.1652 -0.5606
18 16 -19 -28.2787 -0.4835
18 16 -16 21.4261 0.6911
18 16 -13 13.6866 0.6696
18 16 -10 8.8613 0.0377
18 16 -7 -9.1091 -0.4912
18 16 -4 14.0543 -0.2021
18 16 -1 12.4935 0.8894
18 16 2 36.7377 0.5499
18 16 5 34.5745 -0.4933
18 16 8 -4.3311 -0.7628
18 16 11 20.9509 0.2220
18 16 14 3.7291 0.9127
18 16 17 -9.2183 -0.0830
18 16 20 -0.0663 -0.7872
18 16 23 -8.5096 -0.0301
18 16 26 -16.1429 0.7918
18 16 29 -18.8681 0.0452
18 16 32 4.0880 -0.4320
18 16 35 -17.2557 -0.1673
18 16 38 29.5998 0.1198
18 16 41 -1.7541 0.5816
18 16 44 0.3619 0.2179
18 16 47 3.1684 -0.5072
18 17 -44 -3.7970 0.3740
18 17 -41 -16.2703 0.9900
18 17 -38 3.3706 -0.4835
18 17 -35 -10.2689 -0.6552
18 17 -32 -4.2948 -0.1244
18 17 -29 -1.8017 0.4398
18 17 -26 25.6148 -0.2495
18 17 -23 4.7828 -0.4420
18 17 -20 46.4415 0.2181
18 17 -17 1.3769 0.4823
18 17 -14 34.4024 0.0683
18 17 -11 8.8123 -0.3758
18 17 -8 7.9872 -0.1708
18 17 -5 -17.5833 0.2802
18 17 -2 59.1969 0.2616
18 17 1 -51.6620 -0.3358
18 17 4 9.4590 -0.1104
18 17 7 10.5875 0.4110
18 17 10 -22.8521 0.1557
18 17 13 15.5903 0.0338
18 17 16 -12.3765 0.1396
18 17 19 9.1016 0.1670
18 17 22 26.7676 0.3012
18 17 25 -2.3713 0.1104
18 17 28 3.1320 -0.1843
18 17 31 12.4878 0.0141
18 17 34 -9.8313 0.5769
18 17 37 -6.1010 -0.2210
18 17 40 0.8851 -0.1036
18 17 43 -4.5364 0.6720
18 17 46 1.7509 0.5429
18 18 -45 7.6064 -0.4784
18 18 -42 -8.3999 -0.9436
18 18 -39 -2.4125 -0.5227
18 18 -36 20.8119 0.2023
18 18 -33 -13.5580 0.2291
18 18 -30 10.5051 -0.6026
18 18 -27 19.9881 -0.1548
18 18 -24 -19.4693 -0.0536
18 18 -21 0.8123 0.4515
18 18 -18 -7.3279 0.2279
18 18 -15 -16.3328 -0.3491
18 18 -12 -3.6081 -0.1761
18 18 -9 -25.4809 0.1358
18 18 -6 -3.8583 0.2686
18 18 -3 22.2046 -0.1071
18 18 0 -3.9681 -0.0767
18 18 3 33.0577 0.0353
18 18 6 21.1521 0.3044
18 18 9 4.0519 0.1377
18 18 12 8.6240 -0.1847
18 18 15 -18.8881 -0.1601
18 18 18 5.3321 0.2361
18 18 21 15.4102 0.2809
18 18 24 -13.7441 0.0781
18 18 27 -4.2069 0.0151
18 18 30 -2.7810 -0.2518
18 18 33 11.9179 0.0715
18 18 36 -19.0964 -0.0240
18 18 39 -0.9672 -0.4742
18 18 42 -3.9306 -0.7081
18 18 45 11.0614 0.4881
18 19 -43 -2.6562 0.4362
18 19 -40 1.1716 -0.0086
18 19 -37 -12.6097 -0.4243
18 19 -34 5.0684 -1.3796
18 19 -31 -0.7142 0.2752
18 19 -28 14.6822 0.5648
18 19 -25 20.4121 0.2409
18 19 -22 -2.8606 -0.6251
18 19 -19 0.2456 -0.3539
18 19 -16 24.4774 0.5054
18 19 -13 -15.4405 0.5940
18 19 -10 0.6473 -0.3041
18 19 -7 4.7983 -0.6705
18 19 -4 22.6168 0.0922
18 19 -1 -3.1558 0.8833
18 19 2 2.4189 0.1748
18 19 5 -23.4063 -0.3260
18 19 8 -1.3183 -0.2238
18 19 11 8.7073 0.4107
18 19 14 -32.3610 0.3947
18 19 17 15.7480 -0.2419
18 19 20 -4.3346 -0.2054
18 19 23 8.2140 -0.2421
18 19 26 -2.9430 0.4123
18 19 29 -8.1836 -0.3465
18 19 32 12.5711 -0.1341
18 19 35 -9.5977 -0.3529
18 19 38 -7.3974 -0.2263
18 19 41 -0.3483 -0.3599
18 19 44 -17.2551 -0.1000
18 20 -41 1.2049 0.3098
18 20 -38 11.9628 -1.2706
18 20 -35 -12.8847 -0.6878
18 20 -32 16.5184 -0.1448
18 20 -29 -3.9296 0.2739
18 20 -26 1.1275 -0.2891
18 20 -23 -17.8601 -0.4153
18 20 -20 -3.9592 -0.0533
18 20 -17 -25.9717 0.3504
18 20 -14 2.8403 0.3334
18 20 -11 -26.9354 -0.6017
18 20 -8 11.9241 -0.3246
18 20 -5 -11.4098 0.2882
18 20 -2 14.6814 0.3949
18 20 1 -11.1424 -0.0969
18 20 4 -7.5367 -0.6264
18 20 7 14.0333 -0.3024
18 20 10 17.3027 0.4479
18 20 13 2.6219 0.3434
18 20 16 27.9486 -0.2496
18 20 19 0.2431 -0.2883
18 20 22 3.5725 0.1912
18 20 25 -3.0226 0.2891
18 20 28 -5.4687 -0.0695
18 20 31 -21.7322 -0.3614
18 20 34 15.0344 -0.2444
18 20 37 -12.8520 0.4909
18 20 40 3.1121 -0.2144
18 21 -39 -2.9606 0.9610
18 21 -36 8.7257 -0.4380
18 21 -33 0.4008 -0.0454
18 21 -30 8.3268 -0.5792
18 21 -27 -5.4152 0.2475
18 21 -24 -36.3908 0.2401
18 21 -21 24.3689 -0.3304
18 21 -18 -30.9104 -0.2976
18 21 -15 -1.7530 -0.0159
18 21 -12 8.3181 0.2908
18 21 -9 -6.5800 -0.1768
18 21 -6 21.5501 -0.2235
18 21 -3 5.5805 0.0481
18 21 0 -7.7488 -0.0386
18 21 3 9.7335 0.1403
18 21 6 -2.8944 -0.0322
18 21 9 11.8553 0.2233
18 21 12 -1.7001 0.0604
18 21 15 18.3724 -0.0522
18 21 18 7.5190 -0.1558
18 21 21 -9.0166 0.6524
18 21 24 -18.4232 0.3737
18 21 27 9.0175 -0.3461
18 21 30 -15.5176 -0.6355
18 21 33 6.2719 0.0759
18 21 36 -9.7842 0.5872
18 21 39 3.8351 0.3879
18 22 -37 4.6353 -0.2963
18 22 -34 9.4637 -0.3909
18 22 -31 1.4766 0.1199
18 22 -28 -6.6263 -0.2229
18 22 -25 -1.4724 -0.4048
18 22 -22 -1.3928 -0.3417
18 22 -19 6.6529 0.1592
18 22 -16 3.2491 0.3929
18 22 -13 -6.4957 -0.3050
18 22 -10 1.6919 -0.2683
18 22 -7 7.7435 0.0121
18 22 -4 -8.8480 -0.0524
18 22 -1 0.0801 -0.2344
18 22 2 7.1104 -0.0086
18 22 5 20.1368 -0.0300
18 22 8 21.7104 -0.0442
18 22 11 -1.2816 -0.0418
18 22 14 -3.8965 -0.0366
18 22 17 19.8702 -0.3482
18 22 20 -18.0305 0.2810
18 22 23 -20.7629 0.0690
18 22 26 7.6189 -0.3482
18 22 29 -3.1113 -0.3893
18 22 32 -4.0958 0.8146
18 22 35 0.8686 0.2192
18 22 38 -13.7052 1.0118
18 23 -35 -6.0806 0.7649
18 23 -32 4.2072 0.3855
18 23 -29 -12.0523 -0.3944
18 23 -26 6.3741 -0.5864
18 23 -23 2.5408 0.0363
18 23 -20 -8.5950 0.2665
18 23 -17 10.4624 0.0521
18 23 -14 -7.4627 -0.4009
18 23 -11 -16.6500 -0.5104
18 23 -8 5.8950 0.0203
18 23 -5 -2.9497 0.0947
18 23 -2 -1.6488 -0.2309
18 23 1 1.8532 -0.0378
18 23 4 7.6286 0.3198
18 23 7 17.0236 0.2028
18 23 10 5.2109 -0.2347
18 23 13 0.5017 0.0097
18 23 16 2.4085 -0.4492
18 23 19 0.1291 -0.3238
18 23 22 -7.7906 0.0775
18 23 25 7.2711 0.0254
18 23 28 -2.6107 -0.8650
18 23 31 -2.3126 0.2707
18 23 34 16.4088 -0.0838
18 23 37 -9.0642 -1.1632
18 24 -33 4.5626 0.0522
18 24 -30 -2.8042 -0.4402
18 24 -27 -8.2723 -0.5110
18 24 -24 -10.7982 0.1221
18 24 -21 11.8216 -0.2410
18 24 -18 -23.4332 -0.0392
18 24 -15 12.6311 0.0508
18 24 -12 2.9056 -0.1838
18 24 -9 -22.8205 -0.1812
18 24 -6 23.6257 -0.2814
18 24 -3 8.7982 -0.1626
18 24 0 1.2508 0.3641
18 24 3 32.8901 0.2232
18 24 6 -2.0981 -0.2362
18 24 9 8.7444 -0.5720
18 24 12 11.8804 0.2704
18 24 15 -14.1849 0.3728
18 24 18 -2.0654 0.2292
18 24 21 14.9501 -0.1219
18 24 24 -9.3940 0.5481
18 24 27 6.8451 -0.1413
18 24 30 3.1587 -0.5193
18 24 33 -5.4993 0.8445
18 25 -31 3.3305 0.5599
18 25 -28 -5.5540 -0.3917
18 25 -25 9.6497 0.1995
18 25 -22 2.9123 -0.4856
18 25 -19 -1.7575 -0.2079
18 25 -16 -11.1698 0.0127
18 25 -13 0.0310 0.2353
18 25 -10 -16.0551 0.0974
18 25 -7 8.2976 -0.3977
18 25 -4 5.0113 -0.3604
18 25 -1 0.0275 0.0654
18 25 2 4.8734 0.2641
18 25 5 -6.2095 0.1208
18 25 8 -15.0606 -0.4183
18 25 11 6.2570 -0.5740
18 25 14 0.4894 -0.0098
18 25 17 -5.4422 0.5777
18 25 20 8.4827 -0.3847
18 25 23 6.6093 -0.6827
18 25 26 11.0900 0.6342
18 25 29 7.6250 0.0447
18 25 32 -4.3641 0.9144
18 26 -29 -8.9916 -0.6274
18 26 -26 -8.4339 -0.1253
18 26 -23 -13.5225 -0.3110
18 26 -20 -2.9974 0.3098
18 26 -17 -6.4929 0.3163
18 26 -14 -10.8441 -0.6433
18 26 -11 2.3909 -0.0861
18 26 -8 19.9587 0.4664
18 26 -5 14.2938 0.1260
18 26 -2 1.1307 0.0886
18 26 1 14.6142 -0.0436
18 26 4 10.9691 -0.0796
18 26 7 9.8523 0.5917
18 26 10 0.0112 0.3896
18 26 13 8.5264 -0.5599
18 26 16 -0.3180 0.6381
18 26 19 -4.3180 0.7584
18 26 22 0.4270 0.4212
18 26 25 -3.6170 -0.0192
18 26 28 2.2755 -0.0009
18 26 31 4.8155 0.3633
18 27 -27 3.5389 0.1587
18 27 -24 4.2594 -0.6098
18 27 -21 10.2632 0.1122
18 27 -18 -4.9734 0.5602
18 27 -15 1.3153 -0.2243
18 27 -12 7.8702 0.6785
18 27 -9 -4.2609 0.1129
18 27 -6 17.8967 -0.1145
18 27 -3 -14.0224 0.8135
18 27 0 -13.2987 0.1379
18 27 3 -4.7784 -0.4505
18 27 6 -2.6988 0.3223
18 27 9 1.0131 0.3538
18 27 12 2.4367 -0.2193
18 27 15 8.9360 0.0750
18 27 18 10.1462 0.3795
18 27 21 12.9292 -0.1859
18 27 24 -10.9628 -0.9833
18 27 27 15.2842 0.1925
18 28 -25 5.2735 -2.1127
18 28 -22 0.4208 0.4652
18 28 -19 -6.7755 0.4983
18 28 -16 -5.7041 0.8559
18 28 -13 5.6158 0.6710
18 28 -10 -10.1154 -0.3290
18 28 -7 -10.4093 -0.3222
18 28 -4 -0.5184 0.1969
18 28 -1 -12.7688 0.2233
18 28 2 -5.1659 0.2905
18 28 5 14.4133 0.1915
18 28 8 6.3997 0.0007
18 28 11 4.8306 0.9896
18 28 14 8.8743 -0.4054
18 28 17 -8.9135 -0.3083
18 28 20 8.7342 0.3776
18 28 23 -5.3806 -0.8441
18 29 -20 8.1141 -0.2020
18 29 -17 2.9510 -0.2623
18 29 -14 -2.7483 0.9160
18 29 -11 -0.3216 0.0949
18 29 -8 -4.7408 -0.7202
18 29 -5 -5.2743 -0.3465
18 29 -2 9.1994 0.5361
18 29 1 4.0355 0.9962
18 29 4 4.3764 -0.4878
18 29 7 -5.1101 -0.3605
18 29 10 -11.8419 0.0958
18 29 13 4.4788 0.2423
18 29 16 -8.2514 -0.6314
18 29 19 -8.9382 0.0176
18 29 22 15.2571 0.4060
18 30 -18 -9.5107 0.2423
18 30 -15 -8.4095 1.6791
18 30 -12 -7.7955 -0.3196
18 30 -9 -5.7429 -0.3068
18 30 -6 -2.1942 -0.5378
18 30 -3 -11.9752 -0.2216
18 30 0 2.0260 0.7061
18 30 3 5.7741 0.0400
18 30 6 -11.2734 -0.5508
18 30 9 2.2709 -0.0834
18 30 12 2.2596 0.6481
18 30 15 3.3029 -0.2565
18 30 18 2.3207 -1.7137
18 31 -10 10.4979 -0.0310
18 31 -7 3.7177 -0.9723
18 31 -4 10.0031 -0.4045
18 31 -1 1.4742 1.3251
18 31 2 -0.0248 0.4695
18 31 5 -15.3496 -1.0309
18 31 8 7.0239 -1.1514
18 31 11 -8.8058 1.1222
19 1 -57 2.9151 -0.3485
19 1 -54 -8.0951 -3.2506
19 1 -51 6.0077 -1.0559
19 1 -48 10.4266 2.5792
19 1 -45 7.5134 1.2238
19 1 -42 -14.3294 -2.2818
19 1 -39 17.1043 -2.7509
19 1 -36 4.7862 1.5791
19 1 -33 28.0845 3.2770
19 1 -30 4.0972 -0.3928
19 1 -27 -13.6167 -3.4022
19 1 -24 -7.7371 -1.0764
19 1 -21 -11.0281 3.0355
19 1 -18 -55.3028 2.4319
19 1 -15 38.5696 -2.6384
19 1 -12 -17.8883 -3.8395
19 1 -9 -19.5352 1.6241
19 1 -6 -53.8747 4.3649
19 1 -3 -37.9188 -0.1107
19 1 0 -0.5142 -3.5932
19 1 3 19.3115 -1.1920
19 1 6 28.7150 2.8140
19 1 9 89.8527 2.5142
19 1 12 80.5294 -1.6001
19 1 15 -9.0614 -3.2924
19 1 18 35.7386 0.8159
19 1 21 8.2826 3.4594
19 1 24 5.3990 0.3014
19 1 27 47.3785 -2.6210
19 1 30 -74.3702 -0.9192
19 1 33 -5.5226 2.0282
19 1 36 -52.7830 1.5348
19 1 39 -5.0293 -0.7802
19 1 42 -9.2504 -1.7109
19 1 45 4.2899 0.4971
19 1 48 -13.4569 1.7132
19 1 51 -0.7690 0.1221
19 1 54 2.9879 -1.4784
19 1 57 9.5958 0.4409
19 2 -55 -0.1468 0.2160
19 2 -52 -9.8192 -0.6677
19 2 -49 8.1027 0.1093
19 2 -46 -19.4533 1.0073
19 2 -43 -0.2855 0.2966
19 2 -40 -4.9696 -1.3619
19 2 -37 1.5453 -0.7422
19 2 -34 -16.8425 1.3704
19 2 -31 -2.8815 1.0530
19 2 -28 -1.6732 -1.5663
19 2 -25 21.6119 -1.7014
19 2 -22 -37.7309 1.2218
19 2 -19 31.8994 2.3225
19 2 -16 59.3744 -0.9290
19 2 -13 24.4645 -2.8280
19 2 -10 -11.0586 0.6311
19 2 -7 18.0974 3.3236
19 2 -4 29.6195 0.3062
19 2 -1 44.2579 -2.8726
19 2 2 5.0387 -1.3183
19 2 5 -92.2391 2.8518
19 2 8 94.9070 2.6362
19 2 11 -32.0294 -2.1355
19 2 14 -40.2590 -3.0851
19 2 17 33.2432 1.3961
19 2 20 -31.0134 3.2948
19 2 23 -41.1722 -0.4452
19 2 26 -23.1066 -3.1842
19 2 29 29.1549 -0.9365
19 2 32 12.5239 2.3796
19 2 35 30.2210 1.2404
19 2 38 -8.6211 -2.1967
19 2 41 4.4653 -1.8651
19 2 44 2.4649 1.6659
19 2 47 10.7132 2.0944
19 2 50 0.8728 -0.4780
19 2 53 9.8986 -1.9091
19 2 56 -13.4197 0.7331
19 3 -56 -5.4672 0.7855
19 3 -53 8.8441 0.0061
19 3 -50 1.0253 0.0676
19 3 -47 12.7156 -1.0711
19 3 -44 -8.3535 0.0668
19 3 -41 29.5595 0.9918
19 3 -38 24.8989 0.1313
19 3 -35 11.1690 -1.1682
19 3 -32 14.1594 -0.2036
19 3 -29 -7.5966 0.8416
19 3 -26 -11.1632 0.4046
19 3 -23 -5.7282 -0.8192
19 3 -20 -16.1264 -0.6033
19 3 -17 44.1785 0.6462
19 3 -14 -43.6394 0.3573
19 3 -11 -0.9223 -1.1681
19 3 -8 -105.8202 -0.8771
19 3 -5 40.5026 0.8975
19 3 -2 -49.2278 0.6993
19 3 1 -46.0757 -0.9408
19 3 4 8.5007 -0.6476
19 3 7 74.0268 0.5771
19 3 10 34.8547 0.6229
19 3 13 57.7248 -0.5082
19 3 16 -7.6490 -1.3285
19 3 19 60.1797 0.1393
19 3 22 44.1511 1.4761
19 3 25 -78.0244 0.1739
19 3 28 37.4584 -1.2754
19 3 31 -14.3573 -0.3467
19 3 34 -20.4380 1.0877
19 3 37 15.2899 0.6182
19 3 40 -37.3660 -0.7427
19 3 43 -1.1669 -1.0002
19 3 46 3.7456 0.1802
19 3 49 -23.2471 1.0286
19 3 52 0.6894 -0.2658
19 3 55 0.8411 -0.8967
19 4 -54 1.5805 0.2851
19 4 -51 -0.1424 1.3768
19 4 -48 6.7387 0.8142
19 4 -45 -15.6156 -1.4454
19 4 -42 15.3477 -0.9083
19 4 -39 3.0697 0.8003
19 4 -36 -11.4553 1.6734
19 4 -33 -1.8380 -0.6773
19 4 -30 -12.3632 -2.2844
19 4 -27 -24.5833 -0.2063
19 4 -24 -0.0310 2.1348
19 4 -21 0.7990 0.8324
19 4 -18 16.1062 -2.2496
19 4 -15 75.8807 -1.7489
19 4 -12 -6.6251 1.6977
19 4 -9 -39.8529 2.4485
19 4 -6 60.1826 -0.9951
19 4 -3 6.5194 -2.1468
19 4 0 48.6640 1.0271
19 4 3 -1.3723 2.6281
19 4 6 77.5025 0.2846
19 4 9 -24.0773 -1.6216
19 4 12 51.7572 -0.1832
19 4 15 -69.0523 1.5886
19 4 18 -5.4723 1.1538
19 4 21 57.0385 -0.9545
19 4 24 -65.3189 -1.3816
19 4 27 -11.3612 0.4152
19 4 30 -9.9585 1.2253
19 4 33 -18.3741 -0.1281
19 4 36 31.5965 -1.0767
19 4 39 -10.1443 -0.2577
19 4 42 -3.3399 0.7102
19 4 45 12.9972 0.3227
19 4 48 12.4979 -0.3856
19 4 51 -6.0299 -0.3852
19 4 54 19.3273 -0.4072
19 5 -55 3.9279 0.8847
19 5 -52 -3.0922 -0.5218
19 5 -49 5.7603 0.6928
19 5 -46 2.9188 0.4052
19 5 -43 34.7142 -0.5341
19 5 -40 4.7375 -0.8766
19 5 -37 4.6481 0.1966
19 5 -34 10.7963 0.8764
19 5 -31 -27.0949 -0.1204
19 5 -28 5.8595 -1.0556
19 5 -25 -8.5143 -0.2042
19 5 -22 -10.1631 1.2168
19 5 -19 35.8613 0.2016
19 5 -16 -7.9766 -1.3537
19 5 -13 -55.5339 -0.3109
19 5 -10 12.7580 1.3997
19 5 -7 -8.4534 0.5095
19 5 -4 -23.7117 -0.9011
19 5 -1 55.7862 -0.8717
19 5 2 -63.1868 0.2593
19 5 5 74.0645 0.9786
19 5 8 40.6869 -0.2498
19 5 11 0.4322 -1.6720
19 5 14 62.0666 -0.1211
19 5 17 -62.7430 1.5214
19 5 20 4.5496 0.0368
19 5 23 18.4800 -1.4420
19 5 26 -22.8024 -0.3432
19 5 29 59.1599 0.9577
19 5 32 -36.6543 0.7529
19 5 35 -9.1242 -0.2628
19 5 38 -5.9038 -0.5738
19 5 41 7.3059 0.7076
19 5 44 -14.1398 0.9910
19 5 47 1.3864 -0.1558
19 5 50 -6.0165 -0.6146
19 5 53 -8.6943 0.4239
19 6 -53 4.4735 -1.0186
19 6 -50 -7.2395 -0.4062
19 6 -47 10.6996 0.0117
19 6 -44 8.3554 0.4824
19 6 -41 -5.9070 -0.0880
19 6 -38 -4.9879 -1.0548
19 6 -35 -2.2944 -0.4724
19 6 -32 -19.5324 0.7168
19 6 -29 -0.7399 0.4223
19 6 -26 34.9520 -0.4863
19 6 -23 -15.5456 -0.8653
19 6 -20 31.9499 0.1206
19 6 -17 22.8420 1.0169
19 6 -14 -63.0509 0.1504
19 6 -11 50.1544 -1.2312
19 6 -8 15.4717 -0.5061
19 6 -5 -38.7703 1.0652
19 6 -2 28.7317 0.7769
19 6 1 -27.8686 -0.6273
19 6 4 99.0523 -0.7941
19 6 7 41.2476 0.4442
19 6 10 -34.9185 1.0398
19 6 13 74.4254 0.3340
19 6 16 -7.7463 -0.8763
19 6 19 -17.4496 -0.6644
19 6 22 -11.6245 0.8205
19 6 25 -61.2284 0.9711
19 6 28 30.9439 -0.6767
19 6 31 17.6509 -1.3190
19 6 34 -33.1579 0.1729
19 6 37 7.6607 1.1740
19 6 40 9.3372 0.0323
19 6 43 -17.8289 -0.8626
19 6 46 5.6440 -0.2836
19 6 49 1.4757 1.0246
19 6 52 -2.2866 1.5003
19 6 55 3.8481 0.5873
19 7 -54 -13.2505 0.2213
19 7 -51 2.7904 0.8601
19 7 -48 11.6885 -0.1651
19 7 -45 14.8516 -1.2572
19 7 -42 7.1227 0.0412
19 7 -39 -7.1054 1.2974
19 7 -36 -1.5313 0.7994
19 7 -33 -11.9455 -1.0845
19 7 -30 -6.8310 -1.1807
19 7 -27 -49.7034 0.7904
19 7 -24 0.1453 1.7253
19 7 -21 -8.8453 -0.2953
19 7 -18 -1.5360 -1.6177
19 7 -15 14.5567 -0.2146
19 7 -12 -29.8343 1.7351
19 7 -9 6.1142 0.7948
19 7 -6 64.1347 -1.6202
19 7 -3 -37.2154 -1.3516
19 7 0 61.2851 1.0783
19 7 3 31.7359 1.2526
19 7 6 54.8871 -0.5912
19 7 9 -8.3985 -1.6033
19 7 12 19.4637 -0.0683
19 7 15 -26.9191 1.3864
19 7 18 26.6383 0.4953
19 7 21 -39.9117 -1.2052
19 7 24 -21.7367 -0.7997
19 7 27 -35.1461 0.7886
19 7 30 20.9361 0.9395
19 7 33 -14.1322 -0.3553
19 7 36 -10.3890 -0.7129
19 7 39 15.4133 -0.0477
19 7 42 15.7591 0.8332
19 7 45 -2.8039 -0.2261
19 7 48 21.4796 -0.5352
19 7 51 -17.1090 -1.1390
19 7 54 12.2599 0.3635
19 8 -52 -0.0696 -0.0052
19 8 -49 12.1785 0.4165
19 8 -46 5.7051 -0.2858
19 8 -43 -3.2733 -0.5804
19 8 -40 -19.9718 0.1398
19 8 -37 4.0100 0.3694
19 8 -34 -24.5390 0.2182
19 8 -31 -16.2820 -0.9467
19 8 -28 26.6368 -0.3252
19 8 -25 -30.0435 0.6686
19 8 -22 23.1767 0.7206
19 8 -19 2.6999 -0.6826
19 8 -16 -4.1110 -1.2261
19 8 -13 11.9509 0.1460
19 8 -10 6.2643 0.9229
19 8 -7 -35.7368 -0.1961
19 8 -4 -5.3554 -1.4888
19 8 -1 2.7256 -0.5080
19 8 2 -34.8819 1.3077
19 8 5 6.8017 0.9053
19 8 8 56.7862 -1.1867
19 8 11 -70.0278 -0.9899
19 8 14 24.8824 0.9015
19 8 17 7.6086 1.4605
19 8 20 7.7701 -0.1087
19 8 23 70.5847 -1.5398
19 8 26 -34.3440 -0.1649
19 8 29 7.6194 1.5526
19 8 32 -4.2670 0.6381
19 8 35 -8.5124 -0.8420
19 8 38 -3.0798 -0.5478
19 8 41 5.3799 1.0121
19 8 44 -8.7049 1.0561
19 8 47 2.6663 -0.2477
19 8 50 -4.7332 -1.2573
19 8 53 -6.7850 -0.2988
19 9 -53 -5.5192 0.2514
19 9 -50 -2.4154 0.2102
19 9 -47 1.0182 1.1239
19 9 -44 -10.2717 -0.6856
19 9 -41 -3.5459 -0.4713
19 9 -38 3.8489 0.6567
19 9 -35 -2.0165 0.8021
19 9 -32 -23.6288 -0.2221
19 9 -29 2.0871 -0.7539
19 9 -26 -5.6693 -0.0386
19 9 -23 -17.8703 0.8819
19 9 -20 23.0766 0.7834
19 9 -17 -6.0859 -0.7130
19 9 -14 3.2304 -0.7289
19 9 -11 32.0834 0.4664
19 9 -8 -35.4588 0.9244
19 9 -5 -11.7695 -0.3223
19 9 -2 91.2238 -1.0072
19 9 1 10.8086 -0.0391
19 9 4 27.1244 0.8617
19 9 7 62.9611 0.1867
19 9 10 -27.4700 -0.6386
19 9 13 16.8213 -0.3391
19 9 16 8.9586 0.3891
19 9 19 -69.9082 0.7009
19 9 22 44.6094 -0.0692
19 9 25 -11.6456 -0.3495
19 9 28 -35.4689 0.1183
19 9 31 28.0093 0.1191
19 9 34 -41.7264 -0.0839
19 9 37 -9.1766 0.0584
19 9 40 4.7117 0.1659
19 9 43 5.7439 0.0425
19 9 46 0.9696 0.1873
19 9 49 10.2696 1.0278
19 9 52 -2.1952 0.3136
19 10 -51 -3.0203 -0.2556
19 10 -48 9.1817 -0.9811
19 10 -45 -20.6224 0.1162
19 10 -42 -4.2454 0.5742
19 10 -39 -10.2322 0.2996
19 10 -36 -15.2360 -1.0385
19 10 -33 5.3156 -0.6151
19 10 -30 -17.8115 0.6828
19 10 -27 -18.8018 0.2994
19 10 -24 67.5378 -0.4963
19 10 -21 -36.3719 -0.7880
19 10 -18 31.7374 0.2428
19 10 -15 14.9017 0.8711
19 10 -12 -38.7954 -0.0193
19 10 -9 11.3050 -0.8518
19 10 -6 45.1995 -0.3107
19 10 -3 -74.9167 0.7550
19 10 0 96.1057 0.3910
19 10 3 -66.9338 -0.4708
19 10 6 -3.7993 -0.5271
19 10 9 -22.6843 0.1639
19 10 12 -26.4260 0.6784
19 10 15 22.0698 -0.1296
19 10 18 -0.4715 -0.5575
19 10 21 -51.8118 -0.0031
19 10 24 61.9725 0.3727
19 10 27 -13.7684 0.1774
19 10 30 31.6733 -0.4041
19 10 33 15.5289 -0.0229
19 10 36 12.4187 -0.4566
19 10 39 -0.9657 -0.1110
19 10 42 13.0473 -0.1074
19 10 45 -37.8517 -0.1738
19 10 48 2.3749 0.1227
19 10 51 -6.4783 -0.1965
19 11 -49 5.2466 0.0687
19 11 -46 -13.4469 -0.0098
19 11 -43 4.5131 -0.1953
19 11 -40 1.1111 0.6414
19 11 -37 -13.1505 -0.0777
19 11 -34 -1.5308 -0.4843
19 11 -31 6.6533 -0.3258
19 11 -28 -14.8300 0.7109
19 11 -25 -9.2868 0.3061
19 11 -22 7.8006 -0.3890
19 11 -19 -5.8208 -0.1992
19 11 -16 7.5200 0.1811
19 11 -13 -41.2876 0.3960
19 11 -10 -6.0231 0.0409
19 11 -7 1.7210 -0.2539
19 11 -4 1.6653 -0.1133
19 11 -1 -10.0565 0.2582
19 11 2 23.8228 0.2309
19 11 5 8.9161 -0.2020
19 11 8 37.1318 -0.2551
19 11 11 -30.5612 -0.1347
19 11 14 44.2066 0.2361
19 11 17 35.0063 -0.0335
19 11 20 -47.8420 -0.1475
19 11 23 -3.0102 -0.2422
19 11 26 -16.6947 -0.0308
19 11 29 -5.4259 0.1231
19 11 32 -21.6186 0.1484
19 11 35 6.9934 -0.4487
19 11 38 -19.1289 -0.3418
19 11 41 11.1844 0.1916
19 11 44 -17.3856 0.1926
19 11 47 -11.5677 -0.7451
19 11 50 13.8785 -0.8083
19 12 -50 -8.9235 -0.5758
19 12 -47 -1.0833 0.3921
19 12 -44 5.8089 -0.5811
19 12 -41 4.3346 0.1874
19 12 -38 -1.0625 0.7389
19 12 -35 -11.9131 0.3806
19 12 -32 -8.9587 -0.9286
19 12 -29 14.9992 -0.6368
19 12 -26 0.1125 0.5039
19 12 -23 2.2183 0.7201
19 12 -20 39.5525 -0.1687
19 12 -17 -17.8623 -1.1171
19 12 -14 -10.8981 -0.2510
19 12 -11 35.7642 0.8876
19 12 -8 -7.7115 0.3653
19 12 -5 33.3077 -0.8420
19 12 -2 -8.4540 -0.6121
19 12 1 -44.9845 0.5470
19 12 4 22.9398 0.7921
19 12 7 -26.3540 -0.1424
19 12 10 -26.0166 -0.5964
19 12 13 -10.5457 -0.0662
19 12 16 9.4256 0.5377
19 12 19 11.2061 0.6447
19 12 22 0.1098 -0.2819
19 12 25 17.4865 -0.4030
19 12 28 -3.2511 0.1527
19 12 31 11.9238 0.5031
19 12 34 -13.7785 0.4080
19 12 37 6.6702 -0.0271
19 12 40 -1.5695 -0.2116
19 12 43 19.7845 0.2039
19 12 46 -21.2624 0.5020
19 12 49 14.2586 0.3438
19 13 -48 13.2903 0.0146
19 13 -45 -14.5022 0.3124
19 13 -42 12.7285 -0.5699
19 13 -39 -9.4784 -0.0253
19 13 -36 5.0325 0.1707
19 13 -33 15.0473 0.1660
19 13 -30 -8.8515 -0.4077
19 13 -27 3.5412 -0.2343
19 13 -24 2.9399 0.0816
19 13 -21 -47.0352 0.3555
19 13 -18 18.1387 -0.0242
19 13 -15 -25.0370 -0.6329
19 13 -12 -11.8667 0.0488
19 13 -9 3.9530 0.4426
19 13 -6 -10.6071 0.0499
19 13 -3 -82.2172 -0.5815
19 13 0 29.9541 -0.3793
19 13 3 -43.2413 0.4104
19 13 6 -0.2105 0.2451
19 13 9 47.3719 -0.4475
19 13 12 11.4791 -0.5635
19 13 15 8.5430 0.0480
19 13 18 51.8975 0.5488
19 13 21 -27.4728 -0.1285
19 13 24 61.4396 -0.5372
19 13 27 -2.1826 -0.1536
19 13 30 -8.4861 0.3301
19 13 33 -11.0604 0.5954
19 13 36 -11.6006 -0.0281
19 13 39 -38.7497 -0.3198
19 13 42 13.3503 -0.3077
19 13 45 -14.4394 0.9580
19 13 48 17.4605 0.3559
19 14 -46 -4.5804 0.3932
19 14 -43 7.9263 0.8125
19 14 -40 -7.1715 -0.2855
19 14 -37 -1.8708 -0.0165
19 14 -34 10.1970 -0.2390
19 14 -31 -10.0595 0.4802
19 14 -28 -19.4238 0.3779
19 14 -25 15.6969 -0.2141
19 14 -22 -3.3092 -0.5075
19 14 -19 -11.2239 -0.0274
19 14 -16 -0.5046 0.5544
19 14 -13 -16.1577 0.2116
19 14 -10 -0.9903 -0.5266
19 14 -7 -14.2061 -0.4912
19 14 -4 -35.2674 0.5026
19 14 -1 -2.0104 0.7542
19 14 2 42.0497 -0.0558
19 14 5 -6.7646 -0.8204
19 14 8 22.4559 0.0315
19 14 11 3.1137 0.8735
19 14 14 -8.7190 0.0559
19 14 17 -7.6449 -0.7873
19 14 20 -32.3386 -0.4133
19 14 23 11.1464 0.3609
19 14 26 4.1210 0.5057
19 14 29 -17.5560 -0.3431
19 14 32 -12.2798 -0.6889
19 14 35 16.8879 0.0620
19 14 38 0.2065 0.7228
19 14 41 -8.3226 -0.0272
19 14 44 3.4755 -0.7880
19 14 47 1.4289 -0.8842
19 15 -47 7.2041 0.2640
19 15 -44 -0.0966 -0.2660
19 15 -41 -0.6639 0.4591
19 15 -38 5.0659 0.0676
19 15 -35 -15.7997 -0.4459
19 15 -32 -2.8691 -0.6593
19 15 -29 -1.3119 0.2982
19 15 -26 -16.0784 0.4550
19 15 -23 20.9454 -0.2148
19 15 -20 1.5798 -0.7485
19 15 -17 -22.7828 0.0028
19 15 -14 27.6339 1.0279
19 15 -11 -12.6622 0.0452
19 15 -8 -59.4347 -1.1606
19 15 -5 2.4841 -0.3011
19 15 -2 -26.5149 0.8356
19 15 1 13.6654 0.2050
19 15 4 19.0911 -1.0653
19 15 7 -31.7410 -0.7505
19 15 10 18.3220 0.6620
19 15 13 52.1561 0.8866
19 15 16 -8.9533 -0.5041
19 15 19 16.3708 -0.8409
19 15 22 -3.2188 0.1607
19 15 25 3.4889 0.8307
19 15 28 -19.0139 -0.1805
19 15 31 12.1848 -1.0187
19 15 34 -6.5116 -0.1770
19 15 37 26.7323 1.0348
19 15 40 -12.8230 0.6631
19 15 43 4.8220 -0.9055
19 15 46 -3.0970 -1.6046
19 16 -45 -1.8890 -0.1770
19 16 -42 2.1541 -0.1786
19 16 -39 8.1483 0.5837
19 16 -36 5.4209 0.2512
19 16 -33 -17.4373 0.5289
19 16 -30 9.1538 -0.3277
19 16 -27 -17.7621 -0.0226
19 16 -24 8.1315 0.3325
19 16 -21 -13.5968 0.1967
19 16 -18 -8.8118 0.0440
19 16 -15 -20.4429 -0.3150
19 16 -12 -24.3335 0.1094
19 16 -9 -19.4804 0.4665
19 16 -6 -0.1047 0.1637
19 16 -3 -12.1152 -0.4536
19 16 0 53.0219 -0.4008
19 16 3 20.2940 0.3872
19 16 6 6.2863 0.4258
19 16 9 28.6880 -0.3906
19 16 12 8.1028 -0.3156
19 16 15 -16.8697 0.0495
19 16 18 1.8256 0.5014
19 16 21 -23.1259 0.0968
19 16 24 1.2963 -0.0684
19 16 27 -14.5097 -0.0756
19 16 30 -4.1819 0.5201
19 16 33 -23.4709 0.1096
19 16 36 8.0661 0.0027
19 16 39 -0.6805 0.1865
19 16 42 7.4989 -0.2514
19 16 45 2.6276 1.1378
19 17 -43 3.2648 -0.2652
19 17 -40 -2.8495 -1.1917
19 17 -37 2.8768 0.5423
19 17 -34 -12.6609 0.3721
19 17 -31 -0.9509 -0.2143
19 17 -28 -0.6467 -0.6508
19 17 -25 27.0277 -0.2350
19 17 -22 -23.6842 0.5068
19 17 -19 26.0168 0.2595
19 17 -16 -5.5346 -0.2874
19 17 -13 -14.6074 -0.3984
19 17 -10 14.3271 0.4461
19 17 -7 -6.4310 0.6028
19 17 -4 0.7854 -0.3865
19 17 -1 33.0455 -0.6182
19 17 2 -15.8995 0.0928
19 17 5 -12.5189 0.6655
19 17 8 -17.5990 -0.1100
19 17 11 -14.4191 -0.2316
19 17 14 -9.7065 -0.3570
19 17 17 -2.4531 0.5144
19 17 20 4.0701 0.3995
19 17 23 13.5852 -0.0006
19 17 26 -16.4163 -0.2462
19 17 29 25.7554 0.4451
19 17 32 -0.7165 0.4305
19 17 35 -3.6137 0.2035
19 17 38 13.7639 -0.0154
19 17 41 -11.9147 0.7480
19 17 44 9.9845 0.4165
19 18 -44 -3.6616 0.8474
19 18 -41 2.8467 0.2139
19 18 -38 -2.3118 0.1055
19 18 -35 -1.6180 0.2596
19 18 -32 11.3593 0.1883
19 18 -29 11.0806 0.0108
19 18 -26 9.0091 -0.4526
19 18 -23 4.0729 0.0346
19 18 -20 -23.2868 0.7030
19 18 -17 -9.4437 0.2702
19 18 -14 -17.6000 -0.0626
19 18 -11 -20.7065 -0.2592
19 18 -8 -17.3065 0.3338
19 18 -5 22.6922 0.4685
19 18 -2 -1.3313 -0.4166
19 18 1 -7.5111 -0.2343
19 18 4 9.2046 0.1329
19 18 7 12.1089 0.1393
19 18 10 12.8638 0.0449
19 18 13 19.2895 -0.3382
19 18 16 -25.7143 -0.0693
19 18 19 23.2605 0.2474
19 18 22 12.4560 -0.1403
19 18 25 -1.4126 0.0932
19 18 28 0.3906 -0.2275
19 18 31 17.1830 -0.0117
19 18 34 -14.9359 -0.0849
19 18 37 5.6317 -0.6630
19 18 40 -13.0536 -0.3046
19 18 43 -2.9451 -0.8827
19 19 -42 -5.7516 -0.2414
19 19 -39 4.1740 0.5463
19 19 -36 -6.1315 -0.2865
19 19 -33 -4.2191 -0.3509
19 19 -30 11.4409 0.2659
19 19 -27 -3.9782 0.1172
19 19 -24 -4.3068 -0.0895
19 19 -21 2.1282 -0.2210
19 19 -18 -21.1868 -0.0713
19 19 -15 33.2733 0.1970
19 19 -12 2.9026 0.3511
19 19 -9 10.0663 -0.0874
19 19 -6 6.3924 -0.4079
19 19 -3 7.9194 -0.0112
19 19 0 15.8012 0.4878
19 19 3 -22.7173 0.0676
19 19 6 -11.7322 -0.1246
19 19 9 16.0505 -0.1356
19 19 12 -15.8821 -0.0895
19 19 15 9.3868 0.2059
19 19 18 -1.3176 0.1758
19 19 21 10.1357 -0.6724
19 19 24 7.1820 0.1872
19 19 27 -23.0880 0.3552
19 19 30 2.8530 -0.2420
19 19 33 7.8556 -0.3607
19 19 36 5.6184 -0.3529
19 19 39 8.3269 -0.7171
19 19 42 -1.7095 -0.3697
19 20 -40 -2.2780 0.7179
19 20 -37 23.6077 0.2936
19 20 -34 -2.9034 0.3001
19 20 -31 15.9056 -0.1557
19 20 -28 5.0332 0.0193
19 20 -25 6.9059 0.3745
19 20 -22 -4.1821 0.4343
19 20 -19 12.3438 -0.3001
19 20 -16 -7.4610 0.2518
19 20 -13 0.8471 0.3302
19 20 -10 -2.5898 0.0414
19 20 -7 -18.6446 -0.1656
19 20 -4 -12.4552 -0.1334
19 20 -1 7.5029 0.2263
19 20 2 -33.1952 0.0519
19 20 5 9.0294 -0.1660
19 20 8 4.1687 -0.1300
19 20 11 5.8536 0.0818
19 20 14 20.1675 -0.0789
19 20 17 8.6671 0.3502
19 20 20 -19.3262 -0.0470
19 20 23 31.8346 -0.1830
19 20 26 -13.9629 0.3360
19 20 29 16.4095 0.0112
19 20 32 -7.2840 -0.2366
19 20 35 -13.7495 0.8157
19 20 38 11.5517 0.1635
19 20 41 -11.3499 0.8048
19 21 -38 -2.2586 -0.1817
19 21 -35 -4.8423 0.6129
19 21 -32 -6.0180 -0.0457
19 21 -29 -2.8359 -0.7200
19 21 -26 -8.4916 -0.1043
19 21 -23 2.2307 0.6580
19 21 -20 -1.1274 0.2693
19 21 -17 25.7552 -0.4523
19 21 -14 4.8941 -0.6826
19 21 -11 12.7906 0.3231
19 21 -8 7.3381 0.7536
19 21 -5 10.9976 0.2011
19 21 -2 5.1521 -0.5946
19 21 1 -6.3710 -0.4765
19 21 4 12.6572 0.6292
19 21 7 -3.9676 0.7450
19 21 10 -8.8451 -0.2156
19 21 13 8.5207 -0.8517
19 21 16 -2.6871 -0.0946
19 21 19 -3.2363 0.8304
19 21 22 -7.6577 -0.2042
19 21 25 1.2761 -0.6282
19 21 28 -9.7970 -0.6491
19 21 31 5.1728 0.5953
19 21 34 -0.8467 0.6983
19 21 37 -1.8111 0.1952
19 22 -36 4.4828 0.8029
19 22 -33 13.4428 -0.1016
19 22 -30 13.9128 0.0310
19 22 -27 0.9975 -0.3069
19 22 -24 6.4949 0.0263
19 22 -21 8.6998 0.0343
19 22 -18 3.5422 -0.0807
19 22 -15 7.5263 -0.1244
19 22 -12 -33.3133 -0.2468
19 22 -9 -10.8578 0.1299
19 22 -6 -1.3416 0.2388
19 22 -3 -24.8938 -0.3742
19 22 0 10.9303 -0.3753
19 22 3 -12.0496 0.3493
19 22 6 13.1936 0.1092
19 22 9 22.6474 -0.1654
19 22 12 -15.1632 -0.3849
19 22 15 8.5641 -0.2235
19 22 18 6.6537 0.8889
19 22 21 -7.0145 0.0648
19 22 24 7.0992 -0.1213
19 22 27 -6.0651 -0.6808
19 22 30 10.9336 0.7099
19 22 33 14.9607 0.2367
19 22 36 -2.6866 -0.3206
19 23 -34 -1.4142 -0.2180
19 23 -31 2.1182 -0.6503
19 23 -28 -1.0528 -0.7585
19 23 -25 22.6243 -0.2402
19 23 -22 -0.7592 -0.2007
19 23 -19 7.4318 -0.6301
19 23 -16 -11.6093 -0.2229
19 23 -13 -2.4080 0.0782
19 23 -10 -21.5926 -0.0109
19 23 -7 -6.0459 -0.4338
19 23 -4 -2.3623 -0.4706
19 23 -1 0.1349 0.3220
19 23 2 -13.4112 0.3763
19 23 5 -5.7814 -0.2224
19 23 8 2.6267 -0.1118
19 23 11 -1.9966 0.2287
19 23 14 -23.7087 -0.1957
19 23 17 17.9169 -0.5352
19 23 20 -9.2560 -0.1135
19 23 23 2.5547 0.5422
19 23 26 -6.4294 -0.3567
19 23 29 -7.8572 -0.1647
19 23 32 -7.4108 -0.1793
19 23 35 -8.0721 -1.4498
19 24 -32 2.9954 0.7201
19 24 -29 13.4307 -0.8221
19 24 -26 1.4467 0.4752
19 24 -23 -0.1204 0.5791
19 24 -20 -0.6468 -0.8829
19 24 -17 -8.3412 -0.9209
19 24 -14 -8.0418 0.3234
19 24 -11 -9.8701 0.6717
19 24 -8 -10.2656 -0.0746
19 24 -5 12.7173 -0.9004
19 24 -2 -2.5744 -0.0943
19 24 1 -4.8990 0.7898
19 24 4 -6.6750 0.2472
19 24 7 -13.3886 -0.5687
19 24 10 18.3505 -0.9498
19 24 13 -14.9415 0.4531
19 24 16 5.9236 0.7589
19 24 19 3.7197 -0.1235
19 24 22 -2.0012 -0.1726
19 24 25 13.1009 0.2658
19 24 28 -7.7759 -0.1447
19 24 31 8.5415 1.5081
19 25 -30 1.6404 0.2094
19 25 -27 -7.2701 -0.9679
19 25 -24 1.7380 -0.1490
19 25 -21 -4.4912 -0.3066
19 25 -18 -6.7926 -0.6234
19 25 -15 6.0567 -0.6332
19 25 -12 -12.7758 0.1500
19 25 -9 9.3642 0.2755
19 25 -6 17.8559 -0.3945
19 25 -3 -24.0710 -0.3538
19 25 0 12.8804 0.2538
19 25 3 -16.2011 0.2525
19 25 6 2.9159 -0.3190
19 25 9 -1.3151 -0.3144
19 25 12 -17.6071 -0.4191
19 25 15 12.5500 0.5303
19 25 18 11.0721 0.2456
19 25 21 -12.5800 -0.9711
19 25 24 10.7862 0.1526
19 25 27 -3.4159 -0.5480
19 25 30 -2.0298 0.6013
19 26 -28 3.0459 0.3611
19 26 -25 10.7756 -0.4727
19 26 -22 -27.2160 0.1218
19 26 -19 4.0188 0.0546
19 26 -16 -3.1612 -0.3366
19 26 -13 0.1940 -0.1632
19 26 -10 -14.9128 0.3652
19 26 -7 11.9907 0.4766
19 26 -4 -18.1687 -0.4659
19 26 -1 -19.3061 -0.6630
19 26 2 -0.9811 -0.1015
19 26 5 15.6153 0.4302
19 26 8 -3.9087 -0.0483
19 26 11 4.9978 -0.6224
19 26 14 -1.1676 -0.2225
19 26 17 10.8955 1.0498
19 26 20 -15.0876 -0.7441
19 26 23 -11.9662 0.1914
19 26 26 6.8887 0.0227
19 26 29 -2.4443 -1.3700
19 27 -26 -6.5634 0.0203
19 27 -23 0.0116 -0.3104
19 27 -20 -1.6007 -0.2143
19 27 -17 11.3955 -0.6937
19 27 -14 -1.7593 0.4127
19 27 -11 -4.8986 0.4086
19 27 -8 4.2525 0.4313
19 27 -5 8.2171 -0.2887
19 27 -2 -10.2562 -0.1474
19 27 1 6.6120 -0.0005
19 27 4 15.2403 0.1402
19 27 7 -9.1213 0.2334
19 27 10 4.7995 -0.7446
19 27 13 -7.9992 -0.2740
19 27 16 -4.3924 0.8462
19 27 19 0.7955 -0.9835
19 27 22 -3.3996 -1.3507
19 27 25 -10.5815 1.5595
19 28 -21 2.7136 0.5843
19 28 -18 -3.1459 -0.7639
19 28 -15 -6.6085 1.1594
19 28 -12 -17.6167 0.3619
19 28 -9 -0.1918 -0.1852
19 28 -6 -12.0557 0.0915
19 28 -3 -13.8030 -0.0361
19 28 0 20.5192 -0.2226
19 28 3 -12.2691 -0.3704
19 28 6 5.2405 0.3490
19 28 9 -8.5506 -0.1067
19 28 12 6.5957 -0.3702
19 28 15 8.2133 1.1127
19 28 18 2.4330 -0.1852
19 28 21 5.4887 -1.3648
19 29 -16 4.4380 0.1996
19 29 -13 1.6251 0.2262
19 29 -10 3.1964 0.8172
19 29 -7 7.8883 -0.5581
19 29 -4 -2.2124 -0.5554
19 29 -1 24.7556 0.0568
19 29 2 -3.1275 0.2164
19 29 5 -1.5719 0.7031
19 29 8 -6.9029 0.3163
19 29 11 8.9074 -1.2605
19 29 14 -3.8310 -0.2483
19 29 17 -3.5707 0.5912
19 30 -11 -12.4277 -0.2654
19 30 -8 -3.2807 -0.3883
19 30 -5 5.4921 0.3681
19 30 -2 1.9623 -0.8447
19 30 1 -9.8444 -0.5525
19 30 4 3.2976 0.1322
19 30 7 -8.9635 0.3482
19 30 10 4.8580 -0.1450
19 30 13 -4.6190 -0.9105
19 31 -3 -6.2103 -0.6719
19 31 0 0.7155 0.8204
19 31 3 -3.5557 1.0903
20 1 -56 0.0057 1.7742
20 1 -53 -18.4003 -0.7332
20 1 -50 6.5131 -1.8792
20 1 -47 -17.8515 0.7014
20 1 -44 3.6441 3.3836
20 1 -41 -2.4552 0.2095
20 1 -38 13.1532 -3.6422
20 1 -35 -3.1136 -0.9016
20 1 -32 29.8020 3.6081
20 1 -29 14.3228 2.0848
20 1 -26 35.8738 -3.4448
20 1 -23 -13.7767 -2.9590
20 1 -20 -29.8788 3.2291
20 1 -17 -71.8422 4.3332
20 1 -14 20.1712 -2.3050
20 1 -11 -57.6249 -4.8835
20 1 -8 0.2278 0.5741
20 1 -5 8.4445 4.2811
20 1 -2 -26.8617 0.4812
20 1 1 75.9457 -4.3854
20 1 4 -20.0780 -1.8993
20 1 7 -2.2970 3.7631
20 1 10 99.1422 2.3924
20 1 13 -76.7401 -3.2535
20 1 16 77.7050 -3.3716
20 1 19 -29.3101 2.0193
20 1 22 -22.7385 3.8107
20 1 25 35.4104 -0.8450
20 1 28 -21.0850 -3.8070
20 1 31 -12.0027 0.1865
20 1 34 13.0306 3.3792
20 1 37 -37.4844 0.9603
20 1 40 -4.6102 -2.4402
20 1 43 6.4160 -1.0452
20 1 46 -4.2062 2.3008
20 1 49 1.5561 1.9073
20 1 52 4.6987 -0.5407
20 1 55 -3.6713 -0.7133
20 2 -54 6.5194 -0.8975
20 2 -51 7.9663 0.6192
20 2 -48 1.7146 1.2919
20 2 -45 7.1687 0.1065
20 2 -42 7.0142 -0.9052
20 2 -39 0.6356 -0.6515
20 2 -36 -3.0293 1.1893
20 2 -33 -46.8498 1.5696
20 2 -30 -8.0106 -0.8564
20 2 -27 -26.8332 -1.8296
20 2 -24 -34.3873 0.5700
20 2 -21 -44.4604 2.1107
20 2 -18 -11.8970 0.0197
20 2 -15 32.1260 -2.4078
20 2 -12 35.0488 -1.2220
20 2 -9 77.7756 2.0192
20 2 -6 11.5016 2.1675
20 2 -3 70.1276 -1.6156
20 2 0 -42.0943 -2.9347
20 2 3 -17.7138 0.6843
20 2 6 -21.1528 2.9959
20 2 9 13.4369 0.0105
20 2 12 -73.1626 -2.8833
20 2 15 24.6699 -1.0932
20 2 18 -1.9036 2.5441
20 2 21 -28.6516 1.9653
20 2 24 -5.5959 -1.9409
20 2 27 -23.9991 -2.2431
20 2 30 -21.3635 1.2809
20 2 33 34.9526 1.8389
20 2 36 -13.1206 -0.7571
20 2 39 -3.1214 -2.0028
20 2 42 2.9313 -0.0908
20 2 45 11.7063 1.6049
20 2 48 -11.0988 0.4818
20 2 51 11.6706 -1.5869
20 2 54 -1.9717 -0.0933
20 3 -55 -9.5673 -0.7350
20 3 -52 -5.2082 1.6202
20 3 -49 -13.7112 2.3840
20 3 -46 -7.7839 -0.8190
20 3 -43 -10.1412 -3.4121
20 3 -40 12.1028 -0.1028
20 3 -37 -10.2919 3.8643
20 3 -34 7.9796 1.3695
20 3 -31 31.2294 -4.2263
20 3 -28 41.2532 -2.5154
20 3 -25 -37.1335 4.1393
20 3 -22 5.9355 3.9637
20 3 -19 -21.3780 -3.0547
20 3 -16 27.9819 -4.9548
20 3 -13 0.6359 1.7755
20 3 -10 -11.9798 6.0167
20 3 -7 -71.8989 -0.1349
20 3 -4 51.4587 -6.5451
20 3 -1 -85.4024 -1.7391
20 3 2 -31.7791 5.7934
20 3 5 -29.9976 2.9885
20 3 8 51.1017 -5.0087
20 3 11 -64.8498 -4.2333
20 3 14 86.3618 3.1499
20 3 17 -19.8538 4.8505
20 3 20 87.9232 -1.5754
20 3 23 -8.4510 -5.2096
20 3 26 -11.7546 -0.0531
20 3 29 -20.3253 4.6947
20 3 32 12.6499 1.4174
20 3 35 18.5795 -3.8502
20 3 38 -7.2293 -2.1138
20 3 41 -15.4244 2.6216
20 3 44 18.5835 2.4649
20 3 47 -10.8633 -1.7674
20 3 50 6.9099 -2.5916
20 3 53 -8.6065 0.4700
20 3 56 -7.4426 1.5240
20 4 -53 0.4628 -0.3335
20 4 -50 11.4140 0.0056
20 4 -47 0.4147 -0.3320
20 4 -44 1.9936 0.2980
20 4 -41 15.3312 0.3252
20 4 -38 -7.9090 -0.2386
20 4 -35 -6.2864 -0.3524
20 4 -32 12.2447 -0.0037
20 4 -29 -62.4507 0.1195
20 4 -26 -1.9749 0.2594
20 4 -23 -75.2390 -0.1557
20 4 -20 3.9121 -0.2970
20 4 -17 -20.2140 -0.0723
20 4 -14 70.1865 0.1486
20 4 -11 11.3896 0.0487
20 4 -8 34.7955 -0.5710
20 4 -5 2.7980 -0.6909
20 4 -2 -12.9347 0.1162
20 4 1 -23.3220 0.5184
20 4 4 1.4555 0.0845
20 4 7 -48.5465 -0.4801
20 4 10 59.0863 -0.2857
20 4 13 -49.3334 0.5278
20 4 16 -26.8890 0.4146
20 4 19 14.4642 -0.2290
20 4 22 -7.6831 -0.1670
20 4 25 -20.9053 0.1017
20 4 28 7.0414 0.3669
20 4 31 -57.0231 0.4616
20 4 34 0.6113 -0.2410
20 4 37 -10.4706 -0.5945
20 4 40 -24.4674 0.2151
20 4 43 14.4434 0.4705
20 4 46 -15.6159 0.1250
20 4 49 -6.0618 -0.4950
20 4 52 1.6647 -0.7638
20 4 55 -7.0253 -0.4362
20 5 -54 0.0148 -0.0462
20 5 -51 -17.4722 -1.3654
20 5 -48 -3.5137 -1.0802
20 5 -45 -8.2380 0.7684
20 5 -42 2.5481 1.3475
20 5 -39 -5.2359 -0.9427
20 5 -36 3.2347 -1.7625
20 5 -33 28.0458 -0.0401
20 5 -30 3.9532 1.9642
20 5 -27 25.9088 0.4745
20 5 -24 11.0532 -2.0939
20 5 -21 11.8060 -1.4824
20 5 -18 36.5069 2.0645
20 5 -15 27.5076 2.4725
20 5 -12 -14.5113 -1.6754
20 5 -9 8.8324 -3.0719
20 5 -6 -94.2842 0.7026
20 5 -3 -25.5829 3.2328
20 5 0 -12.5290 0.2134
20 5 3 -1.2421 -3.2497
20 5 6 -33.4469 -1.2797
20 5 9 -24.5191 2.7744
20 5 12 48.9379 2.0182
20 5 15 -0.9063 -2.1355
20 5 18 -1.9169 -2.5076
20 5 21 -1.4517 1.4124
20 5 24 -19.2589 2.6104
20 5 27 57.3711 -0.4892
20 5 30 -3.8726 -2.3116
20 5 33 3.7725 -0.3185
20 5 36 10.0271 1.8590
20 5 39 -11.7405 1.0810
20 5 42 -8.7099 -1.4310
20 5 45 9.5750 -1.4070
20 5 48 -9.7433 1.2711
20 5 51 7.0254 1.4745
20 5 54 -5.7426 0.1114
20 6 -52 9.5269 0.1796
20 6 -49 4.0154 0.4175
20 6 -46 20.9589 -0.2470
20 6 -43 -2.4516 -0.4214
20 6 -40 15.4416 0.5240
20 6 -37 5.6132 0.3322
20 6 -34 -3.6712 -0.6507
20 6 -31 -11.0597 -0.4166
20 6 -28 -43.1643 0.5839
20 6 -25 -55.2025 0.6559
20 6 -22 18.1327 -0.6606
20 6 -19 -21.5152 -0.9106
20 6 -16 14.9238 0.6151
20 6 -13 8.1815 0.8242
20 6 -10 -1.1246 -0.3813
20 6 -7 15.6089 -0.9448
20 6 -4 54.5210 -0.0083
20 6 -1 -71.3467 1.2683
20 6 2 59.0013 0.2859
20 6 5 -40.1553 -1.1349
20 6 8 -2.4452 -0.4547
20 6 11 12.3684 0.9116
20 6 14 21.1303 0.4809
20 6 17 -31.0260 -0.9541
20 6 20 34.0418 -1.0060
20 6 23 -78.3969 0.4620
20 6 26 30.8570 0.8817
20 6 29 10.7842 -0.4382
20 6 32 -9.4570 -1.3223
20 6 35 -1.0844 0.0001
20 6 38 -6.4944 1.0091
20 6 41 -7.5675 0.3616
20 6 44 -7.2409 -0.9289
20 6 47 -0.7158 -0.7920
20 6 50 -16.5838 1.0467
20 6 53 -0.7429 0.5992
20 7 -53 -15.3951 -1.4972
20 7 -50 3.2726 0.5442
20 7 -47 -17.2241 0.3128
20 7 -44 4.8901 -0.4739
20 7 -41 2.9352 -0.6913
20 7 -38 7.9016 0.2120
20 7 -35 -4.5292 1.3737
20 7 -32 -6.5038 0.4926
20 7 -29 16.6148 -1.3392
20 7 -26 4.6257 -0.4350
20 7 -23 17.8185 1.1217
20 7 -20 60.5436 1.1559
20 7 -17 -13.9022 -0.9121
20 7 -14 67.7040 -1.7738
20 7 -11 -62.7830 0.6413
20 7 -8 -33.3518 1.7699
20 7 -5 -17.0640 -0.0382
20 7 -2 -56.7892 -1.5684
20 7 1 -53.7839 -0.3656
20 7 4 26.9662 1.2955
20 7 7 -38.0303 0.8290
20 7 10 84.4702 -1.0360
20 7 13 -41.1711 -1.3885
20 7 16 39.4130 0.6142
20 7 19 72.8364 1.4708
20 7 22 -19.8716 0.0488
20 7 25 -20.7742 -1.4687
20 7 28 -5.4043 -0.2964
20 7 31 -12.4333 1.1734
20 7 34 0.2826 0.7857
20 7 37 -7.2715 -0.6124
20 7 40 10.8102 -0.9477
20 7 43 -0.9585 0.4171
20 7 46 8.1943 0.8135
20 7 49 -12.5417 -0.1067
20 7 52 -0.6526 -1.4019
20 8 -51 -1.7292 -0.6875
20 8 -48 6.1679 1.4498
20 8 -45 21.1856 -0.2086
20 8 -42 3.4298 0.0021
20 8 -39 13.5091 0.0625
20 8 -36 17.7707 0.7089
20 8 -33 -16.7353 0.3577
20 8 -30 -13.7193 -0.6418
20 8 -27 9.2459 -0.5461
20 8 -24 -33.8804 0.4547
20 8 -21 -2.9820 0.4810
20 8 -18 13.0654 -0.6045
20 8 -15 20.2616 -0.6962
20 8 -12 -15.6406 0.2580
20 8 -9 10.0440 0.6766
20 8 -6 -14.5021 -0.1403
20 8 -3 79.0976 -0.7978
20 8 0 -23.7493 -0.3065
20 8 3 -22.6012 0.7184
20 8 6 22.2142 0.5957
20 8 9 28.1781 -0.5441
20 8 12 -11.9273 -0.6902
20 8 15 -15.1272 0.3583
20 8 18 -23.4103 0.6971
20 8 21 36.1698 -0.3248
20 8 24 3.8432 -0.6485
20 8 27 -4.5782 0.1940
20 8 30 17.1521 0.7255
20 8 33 -13.9392 0.1008
20 8 36 -10.1458 -0.1869
20 8 39 23.7733 0.3080
20 8 42 -21.3337 0.3357
20 8 45 17.7434 0.1990
20 8 48 -6.1980 -0.0749
20 8 51 -6.8312 -0.2777
20 9 -52 1.7481 -0.1096
20 9 -49 -10.3548 -0.0855
20 9 -46 11.3009 0.1530
20 9 -43 -22.0258 0.9954
20 9 -40 15.5977 0.4837
20 9 -37 -1.7033 -0.5464
20 9 -34 -23.3786 -0.2606
20 9 -31 17.6612 0.9285
20 9 -28 5.5309 0.6359
20 9 -25 32.4974 -0.3113
20 9 -22 39.5580 -0.8981
20 9 -19 10.4327 0.1146
20 9 -16 15.6380 1.3476
20 9 -13 -7.1696 0.5276
20 9 -10 -42.1111 -0.9773
20 9 -7 -16.7341 -0.6353
20 9 -4 -26.2608 0.9874
20 9 -1 -53.5347 1.2074
20 9 2 1.0661 -0.2977
20 9 5 3.4194 -1.5060
20 9 8 40.1772 -0.2566
20 9 11 2.6056 1.4040
20 9 14 36.0850 0.4614
20 9 17 -32.3513 -1.0428
20 9 20 26.2205 -1.0371
20 9 23 9.0847 0.6872
20 9 26 -12.0797 1.0871
20 9 29 14.1425 -0.1125
20 9 32 -9.3154 -1.4556
20 9 35 -12.5800 -0.4173
20 9 38 -3.7201 1.4068
20 9 41 -22.6360 0.5851
20 9 44 -23.0112 -1.1834
20 9 47 3.4536 -0.5824
20 9 50 -10.5867 0.8699
20 10 -50 -4.2571 0.4891
20 10 -47 12.1261 -0.9869
20 10 -44 8.2817 0.0966
20 10 -41 11.2415 0.5872
20 10 -38 -8.2193 0.0162
20 10 -35 -7.4741 -0.6110
20 10 -32 2.9973 -0.5095
20 10 -29 11.6384 0.3311
20 10 -26 -25.2076 0.4041
20 10 -23 30.5896 -0.5174
20 10 -20 -5.9447 -0.6410
20 10 -17 -32.4768 0.3020
20 10 -14 3.1016 0.8162
20 10 -11 -42.5578 -0.0651
20 10 -8 27.2062 -1.0107
20 10 -5 39.2514 0.0228
20 10 -2 -10.6691 0.8995
20 10 1 37.3275 0.1668
20 10 4 28.8472 -0.8014
20 10 7 -9.8583 -0.3421
20 10 10 -4.0512 0.7781
20 10 13 -7.3509 0.5206
20 10 16 -3.8735 -0.5527
20 10 19 -40.1842 -0.7006
20 10 22 -29.5778 0.4055
20 10 25 -25.1868 0.6216
20 10 28 14.1946 -0.1911
20 10 31 12.4073 -0.8426
20 10 34 4.7390 -0.5218
20 10 37 12.0529 0.3649
20 10 40 9.8732 0.2042
20 10 43 -9.1925 -0.4757
20 10 46 4.2170 -0.6814
20 10 49 -0.2438 -0.2514
20 11 -48 14.2012 1.2561
20 11 -45 4.3362 0.2176
20 11 -42 -2.5146 -0.3307
20 11 -39 -8.2785 -0.5201
20 11 -36 1.0621 0.6049
20 11 -33 0.0274 0.7170
20 11 -30 7.7418 -0.3526
20 11 -27 35.0264 -0.4508
20 11 -24 -35.0997 -0.1113
20 11 -21 45.4823 0.5251
20 11 -18 6.7463 0.4281
20 11 -15 -21.0658 -0.4570
20 11 -12 2.2842 -0.5299
20 11 -9 44.6695 0.4753
20 11 -6 -61.4057 0.4796
20 11 -3 26.3555 -0.4724
20 11 0 -90.9255 -0.6262
20 11 3 -7.4515 -0.0112
20 11 6 51.9436 0.2215
20 11 9 -40.5627 -0.0569
20 11 12 6.7945 -0.5749
20 11 15 51.5809 -0.3126
20 11 18 5.1941 0.3754
20 11 21 28.7304 0.2493
20 11 24 -9.9207 -0.5148
20 11 27 -7.0151 -0.2852
20 11 30 2.6652 0.4423
20 11 33 -20.1377 0.2093
20 11 36 -15.0784 -0.5021
20 11 39 7.9664 -0.1120
20 11 42 -3.7991 0.4123
20 11 45 -13.8460 0.0025
20 11 48 5.7491 -0.1289
20 12 -49 14.3888 0.4146
20 12 -46 -5.4194 1.0777
20 12 -43 9.8536 -0.9935
20 12 -40 -2.6013 -0.5968
20 12 -37 3.6077 0.0126
20 12 -34 15.2473 0.3965
20 12 -31 -9.0712 -0.3417
20 12 -28 5.2824 -0.9685
20 12 -25 -15.4230 -0.3343
20 12 -22 -33.2007 0.8086
20 12 -19 5.3015 0.3760
20 12 -16 -33.6902 -0.8447
20 12 -13 -0.6478 -0.8082
20 12 -10 30.4685 0.8038
20 12 -7 -4.4247 1.0385
20 12 -4 17.1675 -0.4474
20 12 -1 14.3312 -1.1969
20 12 2 16.7290 0.2989
20 12 5 76.1914 1.2908
20 12 8 -26.1538 0.2169
20 12 11 -6.5244 -0.9610
20 12 14 -3.3662 -0.3039
20 12 17 -16.5712 0.9972
20 12 20 -8.0107 0.6870
20 12 23 -13.5710 -0.5957
20 12 26 -9.6114 -0.4861
20 12 29 -8.4585 0.5069
20 12 32 -6.9581 0.9494
20 12 35 -10.7476 -0.0479
20 12 38 -15.8995 -0.6330
20 12 41 22.3464 0.2701
20 12 44 -4.4199 0.8982
20 12 47 10.8604 0.5460
20 13 -47 1.4202 0.0932
20 13 -44 -4.2930 1.1084
20 13 -41 4.8778 0.5475
20 13 -38 -13.2384 0.0659
20 13 -35 21.4524 -0.4061
20 13 -32 -0.0390 0.0509
20 13 -29 -4.8363 0.6281
20 13 -26 6.9306 -0.2091
20 13 -23 15.1505 -0.6972
20 13 -20 -11.1595 -0.0170
20 13 -17 20.9911 0.6613
20 13 -14 26.4851 -0.0047
20 13 -11 22.4076 -0.5604
20 13 -8 -7.3270 -0.0873
20 13 -5 -0.8401 0.7224
20 13 -2 -48.9543 0.1291
20 13 1 15.5592 -0.6673
20 13 4 -29.7390 -0.2322
20 13 7 -7.4560 0.3256
20 13 10 6.2570 0.2497
20 13 13 4.4380 -0.2957
20 13 16 11.4903 -0.3077
20 13 19 16.5690 0.3461
20 13 22 24.0330 0.2661
20 13 25 25.5575 -0.1716
20 13 28 2.7472 -0.5082
20 13 31 13.8797 0.2891
20 13 34 14.2094 0.4939
20 13 37 -15.9944 -0.1268
20 13 40 -5.1726 -0.6999
20 13 43 1.1034 0.2342
20 13 46 3.7532 0.2051
20 14 -45 4.5446 -1.0727
20 14 -42 -6.1168 -0.3574
20 14 -39 6.3207 -0.1107
20 14 -36 12.4476 0.0451
20 14 -33 13.0014 -0.3366
20 14 -30 -7.1249 0.2589
20 14 -27 4.7576 -0.1191
20 14 -24 -34.2307 -0.4269
20 14 -21 24.8840 -0.1348
20 14 -18 -17.4759 0.3293
20 14 -15 9.6394 0.3791
20 14 -12 21.7342 -0.0017
20 14 -9 -23.1658 -0.0264
20 14 -6 1.4349 0.0955
20 14 -3 45.5098 0.6729
20 14 0 15.4581 0.2131
20 14 3 41.5870 -0.4697
20 14 6 36.4659 -0.2097
20 14 9 -2.0282 0.4404
20 14 12 10.6181 0.2370
20 14 15 26.5673 -0.4843
20 14 18 -49.6502 -0.5617
20 14 21 -3.1858 0.1392
20 14 24 -26.5948 0.2115
20 14 27 -3.4914 0.1373
20 14 30 -8.4158 -0.7792
20 14 33 1.8435 -0.3590
20 14 36 -1.4080 0.4383
20 14 39 -6.0123 0.1600
20 14 42 0.3645 -0.5094
20 14 45 -9.6436 -0.9429
20 15 -46 -5.1651 0.9586
20 15 -43 0.5917 -0.2405
20 15 -40 1.3574 0.6897
20 15 -37 3.1693 0.2124
20 15 -34 -4.6141 0.4702
20 15 -31 -15.8848 -0.1250
20 15 -28 -2.0635 -0.1530
20 15 -25 2.0698 0.4265
20 15 -22 18.1606 0.2047
20 15 -19 29.0398 -0.2331
20 15 -16 1.1401 0.0067
20 15 -13 33.4691 0.1838
20 15 -10 6.1404 0.0919
20 15 -7 6.6735 0.0382
20 15 -4 -1.3555 -0.0581
20 15 -1 -3.2690 0.0224
20 15 2 3.0396 -0.0210
20 15 5 -26.3135 -0.2665
20 15 8 -43.9334 0.0152
20 15 11 -7.7087 0.0350
20 15 14 -1.4119 0.0072
20 15 17 4.6665 -0.0014
20 15 20 1.5773 0.1430
20 15 23 9.8373 0.0851
20 15 26 30.6071 0.1488
20 15 29 -1.2034 -0.0879
20 15 32 2.6886 -0.1976
20 15 35 17.2388 0.3514
20 15 38 0.0680 0.5107
20 15 41 11.3463 -0.5918
20 15 44 -10.3969 0.0025
20 16 -44 3.3105 0.5410
20 16 -41 8.7273 -0.5374
20 16 -38 -1.1103 -0.1342
20 16 -35 1.5445 0.0723
20 16 -32 -8.2605 0.4897
20 16 -29 -8.9351 -0.4452
20 16 -26 4.5134 -0.2255
20 16 -23 13.0974 -0.0527
20 16 -20 -7.0975 0.6195
20 16 -17 25.7554 0.2824
20 16 -14 -15.4941 -0.5292
20 16 -11 -12.9648 -0.2987
20 16 -8 11.9596 0.8394
20 16 -5 -0.8723 0.6456
20 16 -2 -22.0449 -0.4407
20 16 1 46.4790 -0.6658
20 16 4 -33.9826 0.1082
20 16 7 6.4796 0.7231
20 16 10 1.3126 0.2560
20 16 13 5.0314 -0.5790
20 16 16 5.6644 -0.5300
20 16 19 6.4124 0.4444
20 16 22 -26.4694 0.5000
20 16 25 5.2130 -0.5268
20 16 28 0.1442 -0.3252
20 16 31 -16.4309 0.0871
20 16 34 -12.5874 0.5256
20 16 37 -13.3193 0.8694
20 16 40 -7.9234 -0.6159
20 16 43 10.2935 0.4667
20 17 -42 -0.5743 0.3705
20 17 -39 3.5873 -0.2639
20 17 -36 -10.3011 0.7053
20 17 -33 3.1519 0.3367
20 17 -30 -9.9934 -0.3144
20 17 -27 5.7186 -0.6329
20 17 -24 -1.8934 0.2290
20 17 -21 8.5401 0.8860
20 17 -18 7.9032 -0.2274
20 17 -15 6.8630 -0.8457
20 17 -12 -1.5061 -0.2702
20 17 -9 23.6878 0.7523
20 17 -6 14.0233 0.2849
20 17 -3 1.3779 -0.6292
20 17 0 8.0616 -0.7148
20 17 3 -19.9114 0.1355
20 17 6 11.4417 0.7345
20 17 9 -19.5700 -0.2141
20 17 12 -6.1115 -0.4729
20 17 15 10.8553 0.0750
20 17 18 -15.1409 0.5851
20 17 21 24.5165 0.5585
20 17 24 -13.9056 -0.3792
20 17 27 25.0736 -0.1497
20 17 30 -0.6270 0.2786
20 17 33 -5.2046 0.1779
20 17 36 4.7519 -0.1114
20 17 39 -12.0741 -0.4674
20 17 42 9.7605 -0.3602
20 18 -40 6.5656 -0.5176
20 18 -37 -4.5154 -0.1873
20 18 -34 -2.8536 -0.2560
20 18 -31 4.4953 -0.4771
20 18 -28 12.2010 0.3376
20 18 -25 2.7156 0.1996
20 18 -22 20.8509 -0.1914
20 18 -19 -11.5881 -0.3191
20 18 -16 6.7271 0.0902
20 18 -13 -14.6246 0.4072
20 18 -10 0.2688 -0.1695
20 18 -7 -28.2395 -0.1634
20 18 -4 -6.9056 0.1198
20 18 -1 -18.0432 0.1933
20 18 2 -16.1300 0.0105
20 18 5 -11.4326 -0.3276
20 18 8 12.4557 -0.0667
20 18 11 18.2030 0.2736
20 18 14 10.6574 0.0759
20 18 17 -4.2118 -0.3972
20 18 20 14.3457 -0.2160
20 18 23 -4.2854 0.3591
20 18 26 -4.8624 -0.1106
20 18 29 1.5911 -0.3133
20 18 32 -11.8374 -0.6179
20 18 35 -4.7719 -0.8338
20 18 38 -4.4372 0.2431
20 18 41 -4.9348 -0.7878
20 19 -41 -6.2632 -0.2751
20 19 -38 4.0448 0.3171
20 19 -35 -14.4740 -0.3188
20 19 -32 -3.5115 0.4626
20 19 -29 -3.5255 -0.0535
20 19 -26 0.9543 -0.1714
20 19 -23 1.4110 0.3397
20 19 -20 -11.6177 0.1842
20 19 -17 7.2096 0.0564
20 19 -14 -11.0848 -0.1034
20 19 -11 31.6557 0.1985
20 19 -8 7.2337 0.6310
20 19 -5 -6.2193 0.0354
20 19 -2 1.1576 -0.3657
20 19 1 16.2881 -0.1695
20 19 4 -8.1138 0.1613
20 19 7 7.5589 0.0392
20 19 10 20.1435 -0.0461
20 19 13 10.4715 -0.0696
20 19 16 -18.6071 0.0988
20 19 19 -5.3073 -0.2192
20 19 22 1.8568 0.2926
20 19 25 3.9482 -0.0804
20 19 28 -9.2700 0.0754
20 19 31 -19.5911 -0.3197
20 19 34 -3.7477 0.2637
20 19 37 15.5392 -0.3121
20 19 40 -4.5057 0.4554
20 20 -39 -11.9742 -0.1403
20 20 -36 4.3948 0.4706
20 20 -33 -1.4338 0.3353
20 20 -30 2.7299 -0.0871
20 20 -27 13.3728 -0.2732
20 20 -24 5.3336 0.7296
20 20 -21 15.5099 0.5297
20 20 -18 11.8980 -0.5549
20 20 -15 -0.7413 -0.3736
20 20 -12 12.2565 0.4579
20 20 -9 1.9632 0.8912
20 20 -6 -25.6279 -0.0501
20 20 -3 2.1288 -0.6434
20 20 0 2.2839 -0.1325
20 20 3 1.2871 0.6274
20 20 6 13.6810 0.3592
20 20 9 -16.1404 -0.6942
20 20 12 20.6115 -0.3398
20 20 15 5.3767 0.8157
20 20 18 -19.4883 0.5491
20 20 21 22.2223 -0.5177
20 20 24 -8.0043 -0.5651
20 20 27 4.3855 0.5907
20 20 30 0.9174 0.1557
20 20 33 -5.2831 0.5719
20 20 36 9.2092 -0.6834
20 20 39 1.8848 0.4915
20 21 -37 3.0434 0.0408
20 21 -34 4.4050 0.5229
20 21 -31 2.1377 -0.2560
20 21 -28 5.7085 0.4925
20 21 -25 1.9532 0.3317
20 21 -22 12.2132 -0.0847
20 21 -19 -23.4489 0.4794
20 21 -16 3.9810 0.1776
20 21 -13 -1.0491 -0.0241
20 21 -10 0.5072 0.0646
20 21 -7 -18.0174 0.2197
20 21 -4 8.9860 0.2995
20 21 -1 -2.2253 -0.1663
20 21 2 21.1686 -0.1610
20 21 5 4.0126 0.2677
20 21 8 3.9606 0.4499
20 21 11 -11.1776 -0.3221
20 21 14 -1.1559 -0.0066
20 21 17 -14.2600 0.2776
20 21 20 11.8367 0.0084
20 21 23 -4.4536 -0.0508
20 21 26 -6.3124 -0.1586
20 21 29 4.5202 -0.1152
20 21 32 -3.9816 0.5141
20 21 35 -3.9247 0.3459
20 22 -35 -9.7626 0.0745
20 22 -32 0.5343 0.2622
20 22 -29 11.2867 0.1484
20 22 -26 15.2935 0.1241
20 22 -23 -6.5808 0.6606
20 22 -20 -4.6953 0.0323
20 22 -17 11.4691 -0.0058
20 22 -14 8.4191 0.0742
20 22 -11 9.3812 -0.0758
20 22 -8 -18.7803 0.4183
20 22 -5 22.1456 0.4721
20 22 -2 13.2926 -0.2679
20 22 1 9.9696 -0.4479
20 22 4 -4.5861 0.2752
20 22 7 -0.2151 0.5207
20 22 10 -1.3182 -0.1647
20 22 13 -12.1118 -0.1218
20 22 16 0.7452 -0.0012
20 22 19 2.2497 0.2541
20 22 22 1.0766 0.3803
20 22 25 -2.6012 -0.5263
20 22 28 -11.7268 -0.3001
20 22 31 6.6156 -0.5246
20 22 34 4.1585 0.0640
20 23 -33 7.0400 -0.5531
20 23 -30 6.0495 0.4449
20 23 -27 6.9605 0.1171
20 23 -24 -16.7617 0.7472
20 23 -21 0.9849 -0.1465
20 23 -18 -1.0805 -0.3609
20 23 -15 -8.2731 0.4454
20 23 -12 4.3642 0.3139
20 23 -9 -6.8712 -0.0012
20 23 -6 -4.4934 -0.2941
20 23 -3 25.3907 0.0744
20 23 0 -10.0501 0.4327
20 23 3 -11.8979 -0.3550
20 23 6 2.2541 -0.1171
20 23 9 3.7906 0.2778
20 23 12 8.4540 0.4528
20 23 15 16.3869 0.2941
20 23 18 -3.5105 -0.7412
20 23 21 25.6302 -0.2240
20 23 24 -1.0922 -0.6374
20 23 27 -13.7748 0.5413
20 23 30 4.2641 0.0106
20 23 33 -0.4334 -1.5040
20 24 -31 -7.6134 0.4786
20 24 -28 5.7790 -0.2549
20 24 -25 -7.5165 -0.1653
20 24 -22 -0.2089 -0.3821
20 24 -19 1.2877 -0.0628
20 24 -16 18.1073 -0.4066
20 24 -13 13.1049 -0.5785
20 24 -10 8.1714 0.1621
20 24 -7 12.0498 -0.1439
20 24 -4 10.8195 -0.1142
20 24 -1 -3.5898 -0.1848
20 24 2 8.6443 0.2481
20 24 5 -9.1766 0.2542
20 24 8 11.0515 0.4376
20 24 11 -1.4074 0.1657
20 24 14 8.4748 -0.3755
20 24 17 1.4574 0.3397
20 24 20 -0.3539 1.3735
20 24 23 -3.4508 -0.1499
20 24 26 -0.3846 -0.8286
20 24 29 -3.0257 0.5983
20 25 -29 5.8693 1.2111
20 25 -26 -4.6152 -0.0056
20 25 -23 -3.2690 0.3557
20 25 -20 15.0061 -0.6010
20 25 -17 18.9030 -0.4078
20 25 -14 11.4054 -0.5124
20 25 -11 1.7289 0.5562
20 25 -8 2.6207 0.0939
20 25 -5 -0.9267 -0.8369
20 25 -2 -16.8742 -0.4200
20 25 1 0.9116 0.9659
20 25 4 -5.3669 0.7878
20 25 7 3.3501 -0.7339
20 25 10 -0.1596 -0.0613
20 25 13 -0.9911 0.3087
20 25 16 5.8131 0.1014
20 25 19 -8.4805 -0.3883
20 25 22 -7.5811 -0.5401
20 25 25 12.8998 -0.8610
20 25 28 -8.5714 0.7523
20 26 -24 3.5163 -1.0886
20 26 -21 5.6523 -0.3389
20 26 -18 16.4393 -0.7636
20 26 -15 -8.7813 -0.5563
20 26 -12 0.5768 0.0388
20 26 -9 2.6798 -0.6708
20 26 -6 -22.7471 0.0643
20 26 -3 11.7494 0.4971
20 26 0 -7.8547 0.6153
20 26 3 7.6435 0.1146
20 26 6 18.4418 -0.3194
20 26 9 -5.0947 0.4917
20 26 12 2.0150 0.4646
20 26 15 8.7554 -0.1098
20 26 18 -4.2502 -1.3481
20 26 21 -1.7906 0.4549
20 26 24 -4.5981 1.0532
20 27 -22 10.5967 -0.0843
20 27 -19 0.9513 0.0143
20 27 -16 7.8760 -1.2414
20 27 -13 -11.3809 -0.1421
20 27 -10 0.3220 -0.1356
20 27 -7 -11.8300 0.2168
20 27 -4 -0.8600 0.4509
20 27 -1 3.1631 0.0942
20 27 2 -1.0308 0.2071
20 27 5 3.9151 0.0958
20 27 8 5.6489 -0.2670
20 27 11 0.4137 -0.0009
20 27 14 3.8139 0.3502
20 27 17 10.4913 -0.8452
20 27 20 -8.5894 -0.7280
20 27 23 4.6024 0.4756
20 28 -17 3.6945 -1.8494
20 28 -14 -15.6554 0.7185
20 28 -11 -15.7329 -0.3911
20 28 -8 -2.7441 0.4894
20 28 -5 -3.1882 -0.0891
20 28 -2 3.6147 -0.4750
20 28 1 5.9035 0.1353
20 28 4 -5.0226 0.1254
20 28 7 4.5881 -0.1676
20 28 10 -2.9681 -0.4278
20 28 13 -5.6702 0.1912
20 28 16 3.5760 1.1073
20 28 19 -2.0624 -1.7505
20 29 -12 -4.6477 -1.2166
20 29 -9 12.2948 1.0173
20 29 -6 -0.4931 0.3517
20 29 -3 5.5470 -0.7673
20 29 0 8.2950 -0.2681
20 29 3 1.0833 0.5546
20 29 6 -1.1589 0.6347
20 29 9 -3.1815 -0.4842
20 29 12 9.5597 -1.7339
20 30 -4 -8.6648 0.1132
20 30 -1 9.7576 -1.5050
20 30 2 -5.4515 -0.1605
20 30 5 1.0441 1.6214
21 1 -55 3.8953 -0.7918
21 1 -52 -2.9786 4.0388
21 1 -49 1.0892 1.9648
21 1 -46 -12.1576 -3.4080
21 1 -43 3.9576 -2.9170
21 1 -40 -7.1654 2.6982
21 1 -37 8.1434 4.3083
21 1 -34 -11.1854 -1.4516
21 1 -31 -2.6562 -5.2910
21 1 -28 29.3705 0.2892
21 1 -25 -0.5100 5.4171
21 1 -22 45.2402 1.5401
21 1 -19 1.9027 -4.8104
21 1 -16 -6.4208 -3.3196
21 1 -13 11.9370 3.8882
21 1 -10 -2.8507 5.3689
21 1 -7 80.5604 -2.0608
21 1 -4 -20.4697 -6.1891
21 1 -1 -9.9567 0.4926
21 1 2 -39.4822 6.1354
21 1 5 -7.1850 0.8661
21 1 8 3.9639 -5.3376
21 1 11 23.7864 -2.7389
21 1 14 83.6012 3.5634
21 1 17 11.1381 3.4702
21 1 20 14.9620 -2.3636
21 1 23 54.3114 -4.0952
21 1 26 -4.4280 0.5804
21 1 29 25.0134 3.8164
21 1 32 0.7734 0.0303
21 1 35 -13.4887 -3.0340
21 1 38 -6.3208 -0.8473
21 1 41 8.3930 2.3712
21 1 44 -20.2010 1.3761
21 1 47 5.3483 -0.8413
21 1 50 1.0667 -0.8781
21 1 53 2.0392 0.4737
21 1 56 2.0481 0.6033
21 2 -53 12.2508 1.1156
21 2 -50 -2.2370 -0.1358
21 2 -47 -12.3446 -1.0956
21 2 -44 17.4457 -1.0851
21 2 -41 -9.2975 1.0066
21 2 -38 19.5854 1.7282
21 2 -35 4.5250 -0.8963
21 2 -32 -10.7737 -2.7006
21 2 -29 26.8018 0.0772
21 2 -26 -6.6736 3.1900
21 2 -23 -6.8302 1.2199
21 2 -20 -25.8469 -3.2512
21 2 -17 5.8808 -2.3853
21 2 -14 -66.6840 2.8656
21 2 -11 31.9552 3.7976
21 2 -8 43.4637 -2.0011
21 2 -5 26.5588 -4.5637
21 2 -2 44.3645 1.2243
21 2 1 -19.0444 5.5228
21 2 4 -24.2832 0.9972
21 2 7 78.0628 -4.6799
21 2 10 -51.4605 -2.2139
21 2 13 -7.2448 3.9819
21 2 16 68.4471 3.8109
21 2 19 -59.3958 -2.6647
21 2 22 27.7424 -4.5449
21 2 25 -45.5030 1.1925
21 2 28 -33.3564 4.4691
21 2 31 34.3215 -0.2182
21 2 34 -6.5380 -4.5373
21 2 37 -3.1439 -1.5265
21 2 40 12.4021 3.3077
21 2 43 5.5984 2.0649
21 2 46 -1.0730 -2.3011
21 2 49 22.1896 -3.0792
21 2 52 -10.6430 1.5881
21 2 55 2.5812 3.9363
21 3 -54 -6.7311 -1.5701
21 3 -51 5.6834 -0.6511
21 3 -48 -8.6451 -0.8341
21 3 -45 2.6049 1.4915
21 3 -42 -2.9012 0.7511
21 3 -39 -7.7005 -1.3955
21 3 -36 -5.1626 -1.2638
21 3 -33 0.3898 1.3342
21 3 -30 7.2201 1.7359
21 3 -27 6.9879 -0.9227
21 3 -24 35.5963 -1.8600
21 3 -21 -5.8969 0.0129
21 3 -18 28.8354 2.1102
21 3 -15 1.6564 0.6305
21 3 -12 55.9594 -1.9600
21 3 -9 19.5711 -1.0373
21 3 -6 4.7637 1.7672
21 3 -3 -32.6048 1.2435
21 3 0 -33.8864 -1.4825
21 3 3 -47.2128 -1.2421
21 3 6 4.8772 0.4994
21 3 9 -28.5965 1.1722
21 3 12 13.8467 0.0249
21 3 15 -24.3392 -1.2499
21 3 18 2.5135 -0.8388
21 3 21 51.1919 0.7212
21 3 24 34.5423 0.9199
21 3 27 -4.5389 -0.2941
21 3 30 -13.2462 -0.2636
21 3 33 8.4808 0.1906
21 3 36 10.7369 0.4738
21 3 39 -0.8195 0.4312
21 3 42 19.0677 -0.2222
21 3 45 -13.2387 -0.3386
21 3 48 6.0369 0.1074
21 3 51 6.3389 0.1986
21 3 54 -4.5479 -0.9566
21 4 -52 1.1671 0.1216
21 4 -49 -2.0056 -1.1458
21 4 -46 -1.2271 -0.5738
21 4 -43 10.6685 1.2891
21 4 -40 1.9525 0.3336
21 4 -37 6.0715 -1.2785
21 4 -34 35.6405 -1.1370
21 4 -31 27.6772 1.2310
21 4 -28 0.4203 1.9812
21 4 -25 32.1485 -0.9394
21 4 -22 -42.2014 -2.1399
21 4 -19 -45.3462 0.6515
21 4 -16 -26.0304 2.4228
21 4 -13 11.1736 0.2388
21 4 -10 -2.1603 -2.1073
21 4 -7 28.7927 -0.8149
21 4 -4 -49.8545 2.2693
21 4 -1 88.1748 2.0515
21 4 2 23.0384 -1.5727
21 4 5 -17.5399 -2.4345
21 4 8 39.9349 1.5133
21 4 11 32.8314 3.0445
21 4 14 13.1622 -0.3175
21 4 17 -19.7416 -2.6247
21 4 20 -10.4894 -0.0154
21 4 23 45.0532 2.3315
21 4 26 -6.2509 0.7366
21 4 29 -22.1473 -1.8472
21 4 32 -13.3585 -1.3160
21 4 35 3.9892 1.2691
21 4 38 -29.0825 1.5022
21 4 41 -5.2027 -0.6970
21 4 44 -2.8628 -1.5511
21 4 47 -5.1642 1.1872
21 4 50 11.8022 1.6470
21 4 53 -3.8642 -0.1167
21 5 -53 6.7309 -0.5840
21 5 -50 -17.7953 -0.0952
21 5 -47 5.8807 -0.1894
21 5 -44 -5.6847 0.0257
21 5 -41 -13.7078 0.1719
21 5 -38 -4.4912 0.1116
21 5 -35 -7.4529 -0.1104
21 5 -32 -8.3776 0.0118
21 5 -29 -11.1060 0.3099
21 5 -26 -11.1143 0.1772
21 5 -23 11.7718 0.0120
21 5 -20 -13.8021 -0.2244
21 5 -17 -1.0138 0.3097
21 5 -14 17.2617 0.7435
21 5 -11 74.0904 -0.0759
21 5 -8 16.1625 -0.4055
21 5 -5 -9.2544 0.1186
21 5 -2 -28.7529 0.5072
21 5 1 44.8275 -0.0943
21 5 4 -69.7724 -0.4603
21 5 7 34.6107 -0.2317
21 5 10 -33.1432 -0.0048
21 5 13 -22.4775 0.1139
21 5 16 54.9918 -0.2881
21 5 19 -79.1206 -0.4112
21 5 22 9.6459 -0.1846
21 5 25 24.7639 0.2102
21 5 28 -19.8982 0.2421
21 5 31 22.9516 -0.2529
21 5 34 6.8367 -0.5141
21 5 37 6.1799 -0.1110
21 5 40 9.5077 0.5265
21 5 43 13.8877 0.1980
21 5 46 -18.8849 -0.3363
21 5 49 11.0159 -0.2703
21 5 52 -5.7196 0.7046
21 6 -51 7.5391 0.7947
21 6 -48 0.1839 0.6075
21 6 -45 5.7950 0.3010
21 6 -42 -6.9585 -0.7031
21 6 -39 12.8839 -0.3366
21 6 -36 6.9689 1.1672
21 6 -33 18.8496 1.0012
21 6 -30 14.4010 -0.8402
21 6 -27 -1.5526 -1.2550
21 6 -24 -15.0326 0.7582
21 6 -21 -13.1876 1.1239
21 6 -18 -40.1115 -0.4089
21 6 -15 18.5674 -1.5301
21 6 -12 15.5594 -0.5536
21 6 -9 -50.4411 1.3580
21 6 -6 20.2030 0.6364
21 6 -3 -13.8791 -1.6912
21 6 0 -4.0768 -1.1506
21 6 3 37.6747 1.1013
21 6 6 -27.8713 1.3632
21 6 9 22.0869 -0.6021
21 6 12 -8.5436 -1.3390
21 6 15 34.6342 0.2368
21 6 18 41.2507 1.4106
21 6 21 -20.9227 0.4357
21 6 24 -11.9265 -1.1003
21 6 27 -6.6553 -0.7231
21 6 30 -30.7966 0.6715
21 6 33 38.7512 0.9528
21 6 36 -11.3180 -0.3677
21 6 39 -3.6771 -1.3367
21 6 42 8.2913 -0.0404
21 6 45 -10.7823 0.9354
21 6 48 8.3148 -0.2427
21 6 51 6.1117 -0.8097
21 7 -52 -9.5897 0.2964
21 7 -49 10.3906 -0.1793
21 7 -46 -21.1279 0.1583
21 7 -43 2.7954 1.2757
21 7 -40 1.7317 0.2876
21 7 -37 -5.5933 -0.7365
21 7 -34 -9.5765 -0.6815
21 7 -31 -18.5911 0.7770
21 7 -28 -35.8144 1.0249
21 7 -25 -9.1017 -0.6575
21 7 -22 -40.2213 -1.2529
21 7 -19 10.8707 0.0707
21 7 -16 71.1446 1.4887
21 7 -13 33.1177 0.3172
21 7 -10 -16.5001 -1.0577
21 7 -7 82.5756 -0.4983
21 7 -4 -3.8335 0.9622
21 7 -1 58.8083 0.7863
21 7 2 -13.3705 -0.6447
21 7 5 -24.1028 -0.8972
21 7 8 48.8956 0.4097
21 7 11 -2.6496 0.9783
21 7 14 -46.5846 -0.1065
21 7 17 44.6884 -0.8639
21 7 20 20.6127 -0.2051
21 7 23 -1.3361 0.7869
21 7 26 -10.5631 0.1723
21 7 29 -28.7673 -0.8310
21 7 32 -3.0513 -0.0985
21 7 35 3.4676 0.7013
21 7 38 -23.0562 0.2063
21 7 41 9.6976 -0.4333
21 7 44 14.3016 0.1243
21 7 47 -2.6549 0.2069
21 7 50 2.1498 -0.0700
21 8 -50 -11.0313 -0.6074
21 8 -47 6.5469 -0.1425
21 8 -44 -4.7755 0.8480
21 8 -41 16.6535 0.0648
21 8 -38 7.2901 -0.7858
21 8 -35 -5.5628 -0.0703
21 8 -32 16.3984 0.7270
21 8 -29 10.3124 0.5746
21 8 -26 -1.8734 -0.6640
21 8 -23 25.1044 -1.0637
21 8 -20 -47.1713 0.1976
21 8 -17 33.0802 1.0340
21 8 -14 -3.0393 -0.0153
21 8 -11 -31.7107 -1.4828
21 8 -8 -2.6004 -0.5132
21 8 -5 -0.2146 1.1978
21 8 -2 -5.2214 0.8045
21 8 1 10.5984 -0.8708
21 8 4 -54.8776 -1.0514
21 8 7 8.3781 0.5154
21 8 10 9.3925 1.2719
21 8 13 -22.6345 0.1086
21 8 16 27.9523 -1.0189
21 8 19 4.3169 -0.4461
21 8 22 21.3609 1.0358
21 8 25 15.3812 0.7304
21 8 28 0.6189 -0.3970
21 8 31 25.6968 -0.7248
21 8 34 -4.0484 0.0558
21 8 37 3.0599 1.0029
21 8 40 -22.6587 0.2590
21 8 43 0.9887 -0.5692
21 8 46 0.8200 -0.4238
21 8 49 -2.3124 0.6875
21 8 52 -0.9639 0.7680
21 9 -51 -3.7221 0.9380
21 9 -48 -2.0778 0.0655
21 9 -45 1.1693 -1.2645
21 9 -42 -14.4285 0.2491
21 9 -39 16.6672 0.2625
21 9 -36 -12.0751 -0.1649
21 9 -33 -9.6506 -0.4535
21 9 -30 15.5257 -0.2672
21 9 -27 -55.7599 0.0711
21 9 -24 5.4835 0.0095
21 9 -21 0.6631 -0.3867
21 9 -18 8.5739 0.2172
21 9 -15 38.8600 0.4558
21 9 -12 17.3426 -0.0843
21 9 -9 14.1423 -0.2463
21 9 -6 69.9589 0.3977
21 9 -3 24.0876 0.4649
21 9 0 -21.3658 0.0377
21 9 3 46.6552 -0.5692
21 9 6 -64.5689 0.0216
21 9 9 52.1776 0.7223
21 9 12 15.9425 0.1354
21 9 15 -25.0656 -0.7471
21 9 18 9.5082 -0.4692
21 9 21 -33.8564 0.7417
21 9 24 6.5831 0.6558
21 9 27 16.6146 -0.7075
21 9 30 -5.1018 -0.9526
21 9 33 -12.6088 0.1788
21 9 36 1.7330 0.9051
21 9 39 -24.4172 0.1166
21 9 42 -17.9238 -0.9171
21 9 45 2.5971 -0.1606
21 9 48 -1.1682 1.8069
21 9 51 0.4233 1.2721
21 10 -49 4.0969 0.4118
21 10 -46 -7.1108 0.9438
21 10 -43 14.4337 0.3491
21 10 -40 -1.4596 -0.6438
21 10 -37 2.3351 -0.2050
21 10 -34 -3.3672 0.8595
21 10 -31 14.1741 0.6690
21 10 -28 0.7086 -0.6231
21 10 -25 10.1708 -0.7916
21 10 -22 12.2563 0.1047
21 10 -19 27.5004 0.8049
21 10 -16 -20.3124 -0.1900
21 10 -13 -10.9312 -1.0421
21 10 -10 14.3167 -0.0236
21 10 -7 10.8818 0.7820
21 10 -4 -15.7836 0.3939
21 10 -1 -21.0232 -0.4068
21 10 2 13.6032 -0.3338
21 10 5 -12.7661 0.2375
21 10 8 4.4033 0.7959
21 10 11 12.7896 0.0714
21 10 14 -27.3590 -0.7099
21 10 17 53.5291 -0.1678
21 10 20 -25.5902 0.4951
21 10 23 -8.1521 0.2549
21 10 26 1.4759 -0.4257
21 10 29 13.9820 -0.3450
21 10 32 -5.2483 -0.0145
21 10 35 19.7038 0.2354
21 10 38 13.2805 -0.1775
21 10 41 -7.9552 -0.4898
21 10 44 1.4459 -0.6588
21 10 47 -8.0379 -0.4306
21 10 50 0.2784 -1.0206
21 11 -47 3.0705 0.0513
21 11 -44 4.5551 -0.2896
21 11 -41 -6.7217 0.0897
21 11 -38 -11.6605 -0.2512
21 11 -35 -13.0880 0.0794
21 11 -32 -7.3886 0.1760
21 11 -29 -14.9428 0.0475
21 11 -26 -4.5788 -0.1721
21 11 -23 -18.0635 -0.1159
21 11 -20 26.9135 0.3318
21 11 -17 6.9691 -0.1632
21 11 -14 17.3105 -0.2632
21 11 -11 20.7804 0.4088
21 11 -8 28.1354 0.4146
21 11 -5 -13.7868 -0.1272
21 11 -2 -6.1882 -0.2600
21 11 1 -21.4495 0.2780
21 11 4 -7.7135 0.1586
21 11 7 -2.0811 -0.3640
21 11 10 0.4940 -0.2871
21 11 13 -4.4968 0.2452
21 11 16 20.3988 0.4301
21 11 19 3.0095 -0.3953
21 11 22 9.9682 -0.5108
21 11 25 -7.8190 0.2352
21 11 28 -1.5400 0.8095
21 11 31 -3.0527 0.3324
21 11 34 -19.2085 -0.5893
21 11 37 -6.3258 0.0627
21 11 40 -3.3402 1.1441
21 11 43 12.0372 1.0162
21 11 46 5.5482 -0.8519
21 11 49 -5.8115 -1.1289
21 12 -48 11.6048 1.0891
21 12 -45 -3.1422 -0.3013
21 12 -42 -0.7111 0.7823
21 12 -39 8.4611 -0.0099
21 12 -36 11.5791 -0.5351
21 12 -33 -2.0542 0.0425
21 12 -30 14.6441 0.6690
21 12 -27 -15.4425 0.1935
21 12 -24 12.0593 -0.7023
21 12 -21 14.4758 -0.0241
21 12 -18 -18.9400 0.3131
21 12 -15 20.2149 0.1955
21 12 -12 6.1843 -0.0310
21 12 -9 -32.3500 -0.2252
21 12 -6 35.7152 0.0414
21 12 -3 -16.7079 0.3349
21 12 0 -21.5942 0.2399
21 12 3 60.2745 -0.2217
21 12 6 18.0051 0.0086
21 12 9 26.6421 0.3547
21 12 12 24.0515 0.4029
21 12 15 -19.8831 0.1343
21 12 18 22.7250 -0.2840
21 12 21 15.1620 0.0893
21 12 24 -26.4602 0.4571
21 12 27 -8.0212 -0.1877
21 12 30 -0.0369 0.1087
21 12 33 -18.6157 0.1795
21 12 36 -9.7951 0.1936
21 12 39 -6.9174 0.3159
21 12 42 6.6313 0.0529
21 12 45 9.2824 0.4275
21 12 48 0.2326 1.8374
21 13 -46 0.5358 0.0138
21 13 -43 -5.8292 -0.5650
21 13 -40 -4.1511 -0.6972
21 13 -37 8.2892 0.1509
21 13 -34 -12.2313 0.0200
21 13 -31 -6.3970 0.3205
21 13 -28 4.1263 -0.3957
21 13 -25 -8.3846 -0.5212
21 13 -22 18.9890 0.3237
21 13 -19 -4.7191 0.5030
21 13 -16 9.7103 0.0169
21 13 -13 27.0310 -0.5250
21 13 -10 -6.2315 -0.0034
21 13 -7 9.6997 0.3583
21 13 -4 2.7522 0.3543
21 13 -1 13.2453 -0.2654
21 13 2 -6.2013 -0.4920
21 13 5 -2.4099 0.0069
21 13 8 -6.3603 0.2103
21 13 11 6.4965 -0.1172
21 13 14 -8.3262 -0.3205
21 13 17 7.4384 -0.3396
21 13 20 -4.1903 0.3053
21 13 23 21.9503 0.2044
21 13 26 -9.5104 -0.3225
21 13 29 26.2479 -0.2865
21 13 32 14.7528 0.4369
21 13 35 -2.0486 0.0524
21 13 38 4.0631 -0.6248
21 13 41 -9.8195 -0.0147
21 13 44 -4.5222 -0.5934
21 13 47 -1.2938 0.1418
21 14 -44 11.9635 0.4317
21 14 -41 -9.1736 -0.3627
21 14 -38 9.4825 -0.3925
21 14 -35 -2.1974 0.0681
21 14 -32 -4.9163 0.4096
21 14 -29 3.6460 0.0559
21 14 -26 10.9563 -0.8692
21 14 -23 -17.7006 0.1275
21 14 -20 17.9954 0.6448
21 14 -17 -26.1458 0.2163
21 14 -14 8.6805 -0.5017
21 14 -11 -16.0073 -0.4571
21 14 -8 5.0835 0.5783
21 14 -5 -26.0238 0.5942
21 14 -2 42.2761 -0.1880
21 14 1 -12.5754 -0.5452
21 14 4 23.6486 0.1323
21 14 7 20.6185 0.6095
21 14 10 6.7230 0.1678
21 14 13 8.5548 -0.3016
21 14 16 12.9004 -0.2870
21 14 19 -26.7449 0.3018
21 14 22 7.6975 0.2823
21 14 25 -24.0001 -0.0807
21 14 28 -16.9482 -0.4900
21 14 31 -1.8549 0.0723
21 14 34 -4.7155 0.3389
21 14 37 -6.7906 0.0565
21 14 40 12.7802 0.0100
21 14 43 -14.1579 0.0848
21 14 46 -1.1965 -2.1250
21 15 -45 2.2435 -1.4248
21 15 -42 0.4406 -0.5222
21 15 -39 -4.2138 0.0955
21 15 -36 -2.0690 -0.5039
21 15 -33 -12.8122 0.2834
21 15 -30 10.8502 -0.0982
21 15 -27 -8.4007 0.0027
21 15 -24 9.0041 -0.3627
21 15 -21 6.7179 -0.0882
21 15 -18 4.6137 -0.0933
21 15 -15 12.9013 -0.1589
21 15 -12 7.9961 -0.2455
21 15 -9 3.8957 0.0444
21 15 -6 40.2371 0.4608
21 15 -3 1.4909 -0.1191
21 15 0 -9.5068 -0.3225
21 15 3 28.0558 0.0196
21 15 6 -30.0695 0.2899
21 15 9 -15.4383 -0.1320
21 15 12 5.6132 -0.4060
21 15 15 -4.5053 -0.0549
21 15 18 5.9486 0.5905
21 15 21 -12.3480 0.2056
21 15 24 -7.9898 -0.2089
21 15 27 28.2315 -0.3174
21 15 30 -3.7653 0.3885
21 15 33 3.3641 0.7335
21 15 36 -2.0168 0.2130
21 15 39 11.2767 -0.8671
21 15 42 0.7705 0.8100
21 15 45 -8.3197 0.6988
21 16 -43 -8.9357 0.2460
21 16 -40 7.6730 -0.0964
21 16 -37 1.7452 -0.3104
21 16 -34 13.1266 -0.4131
21 16 -31 9.2898 -0.0860
21 16 -28 6.8349 -0.2784
21 16 -25 -6.4362 0.5726
21 16 -22 9.8486 -0.2703
21 16 -19 -14.6196 -0.3194
21 16 -16 -3.7847 -0.1390
21 16 -13 -5.8555 -0.0860
21 16 -10 -3.8717 0.2213
21 16 -7 14.9605 0.1088
21 16 -4 -9.4024 -0.1180
21 16 -1 -12.0731 -0.0474
21 16 2 -7.1724 0.3984
21 16 5 8.8884 0.1526
21 16 8 5.3738 -0.4869
21 16 11 -8.2986 -0.4477
21 16 14 8.6158 0.3778
21 16 17 32.0934 0.4756
21 16 20 -11.1829 0.0085
21 16 23 18.6718 -0.6416
21 16 26 3.4054 0.1877
21 16 29 5.4517 0.6592
21 16 32 -6.1551 0.1837
21 16 35 -16.6972 -0.4619
21 16 38 -6.1993 -0.2444
21 16 41 0.6424 0.9687
21 17 -41 -4.9897 -0.4453
21 17 -38 8.8126 -0.4070
21 17 -35 -13.8853 0.3433
21 17 -32 7.4790 0.0882
21 17 -29 -11.5177 -0.0261
21 17 -26 -8.8864 -0.6938
21 17 -23 -11.8569 -0.1268
21 17 -20 17.6235 -0.1383
21 17 -17 -7.6392 -0.1410
21 17 -14 24.0760 -0.2360
21 17 -11 8.5726 -0.4639
21 17 -8 31.9400 0.1906
21 17 -5 -2.2870 0.3499
21 17 -2 22.4138 0.0998
21 17 1 -7.3263 -0.3976
21 17 4 13.6368 -0.3845
21 17 7 9.5492 0.3743
21 17 10 -12.4277 0.6145
21 17 13 -8.2838 -0.2941
21 17 16 13.4222 -0.5393
21 17 19 -14.5928 0.3090
21 17 22 1.2902 0.5389
21 17 25 -6.5567 0.1238
21 17 28 3.6878 -0.3966
21 17 31 3.3761 -0.4429
21 17 34 10.1223 -0.3040
21 17 37 -0.4390 1.0089
21 17 40 2.3516 -1.0185
21 18 -39 -3.2918 -0.2962
21 18 -36 10.5516 -0.3144
21 18 -33 2.6065 0.5150
21 18 -30 10.4286 -0.2747
21 18 -27 -4.6762 0.0380
21 18 -24 -1.7593 -0.2845
21 18 -21 10.9173 0.1341
21 18 -18 -8.2583 0.1026
21 18 -15 1.8361 -0.1374
21 18 -12 -2.3618 -0.2688
21 18 -9 -4.8755 -0.1587
21 18 -6 -4.5044 0.1939
21 18 -3 -27.9949 0.0981
21 18 0 9.8935 -0.0514
21 18 3 14.2309 -0.2037
21 18 6 -9.7747 -0.1373
21 18 9 30.6519 0.2565
21 18 12 18.0040 0.0113
21 18 15 -7.4533 -0.5533
21 18 18 19.6264 -0.0148
21 18 21 -4.0429 0.2942
21 18 24 6.3394 -0.1137
21 18 27 7.1116 -0.4610
21 18 30 -16.8582 -0.3298
21 18 33 9.1064 -0.3713
21 18 36 0.4494 0.4929
21 18 39 -10.8426 -0.9951
21 19 -37 8.5418 -0.0701
21 19 -34 -6.4805 -0.1164
21 19 -31 -9.5809 0.5163
21 19 -28 -25.1082 -0.5989
21 19 -25 15.7639 0.2162
21 19 -22 4.6115 -0.3054
21 19 -19 0.3775 0.0622
21 19 -16 25.5875 -0.0692
21 19 -13 1.4107 -0.3797
21 19 -10 16.6701 -0.0144
21 19 -7 10.3321 -0.1422
21 19 -4 -24.6168 0.0026
21 19 -1 27.0801 0.3159
21 19 2 3.6785 0.0627
21 19 5 -2.5897 -0.2267
21 19 8 -0.4642 -0.2072
21 19 11 10.4674 0.2613
21 19 14 -5.8098 0.2824
21 19 17 17.1187 -0.1339
21 19 20 -19.8350 0.1393
21 19 23 10.9266 0.1240
21 19 26 9.0744 -0.0894
21 19 29 -3.3385 0.3693
21 19 32 -8.3227 0.4511
21 19 35 4.8525 -0.1538
21 19 38 -5.4937 1.0252
21 20 -35 -9.8642 0.0420
21 20 -32 6.7896 -0.0510
21 20 -29 -10.4116 -0.1594
21 20 -26 14.8881 0.2495
21 20 -23 0.4265 0.4939
21 20 -20 6.2387 -0.1769
21 20 -17 -6.5128 -0.2974
21 20 -14 0.6295 -0.0595
21 20 -11 -1.2180 0.1148
21 20 -8 -11.4047 0.0040
21 20 -5 -18.9621 -0.1820
21 20 -2 11.4750 -0.0808
21 20 1 -7.4873 0.1145
21 20 4 8.8603 0.4260
21 20 7 -11.5875 -0.3653
21 20 10 -2.3425 -0.5539
21 20 13 5.7127 0.3855
21 20 16 -4.0551 -0.0999
21 20 19 -1.2266 0.1063
21 20 22 3.5531 0.2387
21 20 25 3.3538 -0.5068
21 20 28 9.9699 -0.2549
21 20 31 -8.5977 0.9483
21 20 34 6.4139 -0.2181
21 20 37 -10.4200 1.0330
21 21 -36 -1.8064 -0.7884
21 21 -33 -8.1706 -0.4291
21 21 -30 3.5753 0.0910
21 21 -27 4.9042 0.8967
21 21 -24 -19.4707 0.0670
21 21 -21 19.8993 0.0397
21 21 -18 -16.9763 -0.0712
21 21 -15 -20.7875 -0.0059
21 21 -12 10.3708 0.2351
21 21 -9 -25.2755 -0.1033
21 21 -6 13.8226 -0.1168
21 21 -3 7.9261 0.2404
21 21 0 -6.6563 0.1606
21 21 3 18.5141 0.1296
21 21 6 -22.6591 -0.4593
21 21 9 5.2003 -0.4188
21 21 12 0.2149 0.7101
21 21 15 -8.6459 0.3403
21 21 18 11.4611 -0.0809
21 21 21 0.9516 -0.2830
21 21 24 -4.4480 0.2862
21 21 27 7.2614 0.7419
21 21 30 -3.4372 0.7502
21 21 33 10.3360 0.2135
21 21 36 1.9331 -0.9457
21 22 -34 0.4596 -1.4212
21 22 -31 -0.3240 1.0719
21 22 -28 -0.4844 -0.0173
21 22 -25 19.1656 -0.2207
21 22 -22 -6.5761 0.3589
21 22 -19 -7.2235 0.6137
21 22 -16 -8.4987 0.3202
21 22 -13 1.4851 -0.3905
21 22 -10 -7.7695 -0.5573
21 22 -7 8.3112 0.1658
21 22 -4 -6.2109 0.6739
21 22 -1 -0.1578 0.0852
21 22 2 -10.7270 -0.6372
21 22 5 1.0946 -0.3326
21 22 8 7.4792 0.2858
21 22 11 15.0119 0.4892
21 22 14 0.1431 0.0626
21 22 17 8.1030 -0.1841
21 22 20 7.3603 0.0227
21 22 23 -6.2438 0.1981
21 22 26 -3.3098 0.3900
21 22 29 -3.9902 -0.8928
21 22 32 -6.1855 -0.7153
21 23 -29 3.3039 0.8720
21 23 -26 5.5845 -0.5663
21 23 -23 -4.1941 0.9466
21 23 -20 -5.5064 -0.0488
21 23 -17 -0.7178 0.5674
21 23 -14 16.0216 -0.0800
21 23 -11 -4.8621 -0.5708
21 23 -8 -1.4492 0.0322
21 23 -5 11.5752 0.1577
21 23 -2 -10.8756 -0.0090
21 23 1 -4.3600 -0.2819
21 23 4 1.3060 -0.2859
21 23 7 -15.9176 0.1929
21 23 10 6.5522 0.5674
21 23 13 6.7750 -0.1602
21 23 16 -17.8386 -0.1716
21 23 19 11.5184 -0.0085
21 23 22 0.5446 -0.3744
21 23 25 -0.1596 0.0555
21 23 28 -2.8233 -0.3165
21 23 31 -1.2507 -1.1370
21 24 -27 -3.2035 0.2917
21 24 -24 -5.1586 -0.0071
21 24 -21 13.1921 0.2630
21 24 -18 -11.3454 0.9135
21 24 -15 11.9805 0.6672
21 24 -12 13.2324 -0.3881
21 24 -9 -11.7645 -0.4850
21 24 -6 6.6096 0.3538
21 24 -3 -10.4284 0.2790
21 24 0 -12.5748 -0.5930
21 24 3 18.3818 -0.0748
21 24 6 -14.2796 -0.1933
21 24 9 14.3110 0.4478
21 24 12 11.4159 0.6360
21 24 15 -11.2061 -0.5760
21 24 18 3.8433 0.3688
21 24 21 15.5097 0.1276
21 24 24 2.1212 -0.1078
21 24 27 2.6249 1.5901
21 25 -25 7.4684 -0.0548
21 25 -22 -2.2361 0.5790
21 25 -19 1.7394 0.7630
21 25 -16 -0.1158 -0.5980
21 25 -13 3.0418 -0.9750
21 25 -10 2.5698 0.0380
21 25 -7 -8.6962 0.0067
21 25 -4 -17.0007 -0.4066
21 25 -1 8.6746 -0.2150
21 25 2 5.5286 0.1923
21 25 5 12.2570 -0.3794
21 25 8 -5.3983 0.2342
21 25 11 -5.4405 0.1822
21 25 14 -1.2846 -1.0843
21 25 17 -5.2659 -0.4034
21 25 20 -5.8393 1.1745
21 25 23 0.4714 -1.5394
21 25 26 -5.5297 -0.1772
21 26 -23 -1.5295 0.0801
21 26 -20 -8.7279 0.7401
21 26 -17 5.6714 -0.4297
21 26 -14 -13.0406 0.2480
21 26 -11 -1.1813 -0.3063
21 26 -8 -14.6830 -0.9532
21 26 -5 -1.7146 -0.2257
21 26 -2 5.9183 0.8191
21 26 1 -4.7719 0.0638
21 26 4 4.0282 -1.1940
21 26 7 -8.2243 -0.2396
21 26 10 0.4000 1.3213
21 26 13 0.4359 -0.2942
21 26 16 6.8892 -1.4476
21 26 19 -1.1084 1.1708
21 26 22 8.5428 0.8876
21 27 -18 -9.0823 0.2142
21 27 -15 -3.1370 -0.0660
21 27 -12 4.2892 -1.0182
21 27 -9 -9.2060 -0.4374
21 27 -6 6.8009 0.3660
21 27 -3 15.5611 0.9354
21 27 0 -6.5396 0.5407
21 27 3 -3.5910 -0.8475
21 27 6 -6.5397 -0.4601
21 27 9 3.6752 1.3287
21 27 12 -11.7327 0.2708
21 27 15 6.1654 -1.4507
21 27 18 6.7606 -0.2750
21 28 -13 5.1283 -0.2170
21 28 -10 7.4397 -0.2685
21 28 -7 -4.5958 0.0162
21 28 -4 0.1866 0.9043
21 28 -1 1.4799 0.1527
21 28 2 -17.0979 -1.0593
21 28 5 -6.7079 -0.9627
21 28 8 7.2924 0.2217
21 28 11 0.3674 0.9661
21 28 14 14.9289 -0.4896
21 29 -5 -4.7134 0.6021
21 29 -2 -8.0033 -0.5650
21 29 1 -11.5243 -0.4151
21 29 4 6.7531 0.9263
21 29 7 -6.2328 0.0233
22 1 -54 0.9403 -1.2607
22 1 -51 -5.5733 -1.0897
22 1 -48 -14.4986 0.5840
22 1 -45 14.7426 0.9904
22 1 -42 -0.8959 -1.2065
22 1 -39 -14.9777 -0.9790
22 1 -36 3.1321 1.0655
22 1 -33 7.5267 0.9952
22 1 -30 2.0155 -0.7490
22 1 -27 37.1129 -0.9312
22 1 -24 -16.7420 0.4326
22 1 -21 27.6735 1.1730
22 1 -18 -8.7202 -0.6051
22 1 -15 -6.8003 -1.4801
22 1 -12 -46.4552 0.6548
22 1 -9 29.3194 1.4795
22 1 -6 17.8742 -0.9530
22 1 -3 -44.2005 -1.2944
22 1 0 -18.7980 0.7705
22 1 3 30.5845 1.0474
22 1 6 -22.9368 -0.3406
22 1 9 -29.0554 -1.3045
22 1 12 6.9497 0.0563
22 1 15 -5.1774 1.6156
22 1 18 48.1960 0.4645
22 1 21 -20.0366 -1.4896
22 1 24 -3.9194 -0.6283
22 1 27 68.8984 1.3744
22 1 30 14.3878 0.8301
22 1 33 9.9991 -0.9339
22 1 36 -16.9453 -1.3708
22 1 39 16.5789 0.7822
22 1 42 -11.7865 1.3248
22 1 45 5.4398 -0.2235
22 1 48 -5.4245 -1.0688
22 1 51 3.6124 -0.2594
22 1 54 -1.0328 1.4233
22 2 -52 -1.8271 0.4957
22 2 -49 -1.2666 -1.3667
22 2 -46 3.2650 -0.7210
22 2 -43 10.8024 0.6060
22 2 -40 -24.0088 0.8936
22 2 -37 7.1829 -0.6577
22 2 -34 -17.7787 -0.6262
22 2 -31 -21.5100 0.1331
22 2 -28 8.9519 1.2382
22 2 -25 -9.5738 0.1852
22 2 -22 1.6811 -1.1581
22 2 -19 2.8522 -0.7908
22 2 -16 4.3545 0.9670
22 2 -13 -30.1664 1.1817
22 2 -10 39.2477 -0.9430
22 2 -7 17.9765 -1.3262
22 2 -4 -1.9787 0.3432
22 2 -1 33.3527 1.0567
22 2 2 32.4209 0.1785
22 2 5 31.2204 -1.1275
22 2 8 5.1631 -0.7335
22 2 11 6.8242 0.9825
22 2 14 -3.3773 1.0260
22 2 17 16.2702 -0.6988
22 2 20 46.8657 -1.0325
22 2 23 -16.8981 0.4950
22 2 26 -37.5053 1.0769
22 2 29 4.3838 -0.0261
22 2 32 -43.5355 -1.2114
22 2 35 9.4013 -0.5590
22 2 38 -1.5789 0.9844
22 2 41 0.5760 0.2955
22 2 44 -15.9216 -0.6411
22 2 47 9.0778 -0.5495
22 2 50 3.3442 0.1806
22 2 53 2.1124 0.1973
22 3 -53 -7.9683 0.4197
22 3 -50 -7.1425 -1.6008
22 3 -47 17.7496 -1.8761
22 3 -44 -9.9591 0.7936
22 3 -41 -2.6578 2.6648
22 3 -38 -6.7887 -0.0139
22 3 -35 9.6668 -2.7818
22 3 -32 18.2194 -1.0384
22 3 -29 15.2965 3.3374
22 3 -26 14.5024 2.1765
22 3 -23 13.3224 -3.4951
22 3 -20 -15.4303 -2.8307
22 3 -17 -17.1881 2.7743
22 3 -14 -26.7808 3.6758
22 3 -11 4.1938 -1.9271
22 3 -8 -48.4733 -4.5262
22 3 -5 -9.4730 0.5503
22 3 -2 31.3335 4.6405
22 3 1 3.0801 0.8597
22 3 4 2.4263 -4.6528
22 3 7 -16.7858 -2.0239
22 3 10 -32.6053 4.2465
22 3 13 56.7823 3.0798
22 3 16 -68.0265 -3.0070
22 3 19 34.5782 -3.5846
22 3 22 45.7715 1.9680
22 3 25 -1.2695 4.2813
22 3 28 27.1171 -0.2417
22 3 31 2.7389 -3.7732
22 3 34 -7.7694 -0.3785
22 3 37 22.4521 3.3578
22 3 40 -0.1867 1.3138
22 3 43 3.2766 -2.6958
22 3 46 10.8213 -1.3631
22 3 49 -1.4162 1.6213
22 3 52 -2.0867 1.7409
22 4 -51 14.6318 0.1113
22 4 -48 5.3086 0.6281
22 4 -45 4.8239 0.7768
22 4 -42 -18.2233 -0.1405
22 4 -39 -8.6511 -0.6213
22 4 -36 8.4026 0.3125
22 4 -33 -10.7393 0.5407
22 4 -30 -15.9969 0.3929
22 4 -27 5.3449 -0.7629
22 4 -24 -6.1101 -0.3444
22 4 -21 -3.1262 0.5771
22 4 -18 -46.6340 0.6376
22 4 -15 -15.7431 -0.4747
22 4 -12 34.8485 -0.7635
22 4 -9 -4.6240 -0.1738
22 4 -6 15.4380 0.4103
22 4 -3 15.6210 0.3840
22 4 0 97.1526 -0.6501
22 4 3 -24.3735 -0.6356
22 4 6 18.8785 0.6603
22 4 9 -56.9407 0.5765
22 4 12 22.7287 -0.1962
22 4 15 -1.8853 -0.4315
22 4 18 -52.9626 0.0589
22 4 21 12.4932 0.5527
22 4 24 46.0795 0.4594
22 4 27 -10.3671 -0.3855
22 4 30 -5.2467 -0.5551
22 4 33 -2.8059 0.3896
22 4 36 -16.3735 0.1201
22 4 39 13.5687 -0.0028
22 4 42 -34.3425 -0.1061
22 4 45 -15.0513 0.2888
22 4 48 12.6358 0.6441
22 4 51 0.0471 0.1321
22 5 -52 6.5321 0.1470
22 5 -49 -10.4307 0.5299
22 5 -46 -0.4705 1.2920
22 5 -43 -4.6110 -0.0580
22 5 -40 -7.4868 -0.7837
22 5 -37 17.8396 0.3117
22 5 -34 5.6310 1.3772
22 5 -31 -1.7611 0.5331
22 5 -28 36.2952 -1.3699
22 5 -25 -12.3919 -0.7177
22 5 -22 -1.9181 1.2574
22 5 -19 1.9099 0.9110
22 5 -16 -23.6048 -1.0393
22 5 -13 -12.0850 -1.5305
22 5 -10 27.9040 0.4870
22 5 -7 -37.2819 2.0858
22 5 -4 41.5989 0.1330
22 5 -1 41.7257 -2.1281
22 5 2 2.4102 -0.5688
22 5 5 0.1078 1.8555
22 5 8 7.7688 0.8850
22 5 11 -37.2637 -1.5000
22 5 14 84.4569 -1.3543
22 5 17 -22.3271 1.0238
22 5 20 -23.2503 1.5484
22 5 23 16.8199 -0.8080
22 5 26 -23.0220 -1.7587
22 5 29 18.3767 0.0335
22 5 32 32.0345 1.4316
22 5 35 -1.1337 0.0989
22 5 38 9.0877 -1.5304
22 5 41 18.1186 -0.5670
22 5 44 -12.5258 1.1913
22 5 47 14.4783 -0.0125
22 5 50 4.1674 -0.4636
22 5 53 3.6718 -0.4967
22 6 -50 10.4659 -0.4393
22 6 -47 0.0765 -1.0848
22 6 -44 -13.8945 0.4599
22 6 -41 7.2279 0.9848
22 6 -38 -15.0144 -0.4130
22 6 -35 -0.1880 -0.9439
22 6 -32 -1.5959 0.4837
22 6 -29 -21.2799 1.0718
22 6 -26 13.4092 0.2145
22 6 -23 -8.5159 -1.1624
22 6 -20 -9.0064 -0.1435
22 6 -17 15.5859 1.0269
22 6 -14 -14.1425 0.3175
22 6 -11 19.2445 -0.9997
22 6 -8 33.9543 -0.4067
22 6 -5 28.4524 0.5433
22 6 -2 37.4052 0.3504
22 6 1 -41.5910 -0.2707
22 6 4 -16.0285 -0.6505
22 6 7 1.6879 -0.3038
22 6 10 -51.0225 0.5536
22 6 13 37.0678 0.2660
22 6 16 -22.1753 -0.6060
22 6 19 20.5425 -0.5264
22 6 22 19.4718 0.1413
22 6 25 -27.7075 0.4186
22 6 28 -0.5798 -0.1893
22 6 31 23.7064 -0.4626
22 6 34 15.3983 0.0218
22 6 37 7.4646 0.6307
22 6 40 24.7023 0.0390
22 6 43 5.4762 -0.3683
22 6 46 -5.7414 -0.4126
22 6 49 -0.9776 0.0199
22 6 52 7.4233 -0.4302
22 7 -51 -7.4887 1.1361
22 7 -48 5.7087 -0.7427
22 7 -45 -14.2552 0.0780
22 7 -42 16.2642 0.3338
22 7 -39 4.6146 0.2227
22 7 -36 -0.6174 0.4270
22 7 -33 10.3505 -0.3695
22 7 -30 5.9851 -0.4349
22 7 -27 -0.8135 0.6363
22 7 -24 9.0184 0.6612
22 7 -21 -48.1553 -0.2379
22 7 -18 18.8131 -0.8267
22 7 -15 16.2398 -0.2075
22 7 -12 -9.1474 1.0521
22 7 -9 -4.1822 0.3388
22 7 -6 20.6967 -1.1084
22 7 -3 -31.1835 -0.5747
22 7 0 43.2707 0.6184
22 7 3 -76.8824 0.6316
22 7 6 62.0220 -0.6507
22 7 9 6.0387 -1.0043
22 7 12 19.8712 0.2961
22 7 15 11.6981 0.8715
22 7 18 -8.7706 0.2840
22 7 21 17.6847 -0.8972
22 7 24 7.1690 -0.4176
22 7 27 -31.0723 0.6323
22 7 30 -11.3001 0.8466
22 7 33 -6.8503 0.0605
22 7 36 -17.1824 -0.5384
22 7 39 -17.2144 0.1618
22 7 42 9.6866 0.9401
22 7 45 0.7402 0.9560
22 7 48 18.3746 -0.7163
22 7 51 3.1792 -1.4850
22 8 -49 -1.0115 -0.2431
22 8 -46 2.6992 -0.3528
22 8 -43 6.5474 0.5289
22 8 -40 6.9522 -0.0997
22 8 -37 4.3756 -0.3906
22 8 -34 -2.4981 -0.2314
22 8 -31 -1.3359 -0.1398
22 8 -28 4.4340 0.2939
22 8 -25 -15.3449 -0.0407
22 8 -22 11.6428 -0.2685
22 8 -19 -3.9434 -0.2945
22 8 -16 6.0115 -0.0701
22 8 -13 -22.1643 0.0236
22 8 -10 64.3266 -0.3458
22 8 -7 -44.4932 -0.2251
22 8 -4 67.4121 -0.0431
22 8 -1 0.6940 -0.2201
22 8 2 -32.0772 -0.0126
22 8 5 -7.6177 0.1345
22 8 8 29.8904 -0.0664
22 8 11 -58.2386 -0.3237
22 8 14 19.1107 -0.0026
22 8 17 -53.9845 0.1797
22 8 20 -1.7421 0.2370
22 8 23 41.4231 -0.2144
22 8 26 8.3404 -0.4216
22 8 29 14.9054 -0.0881
22 8 32 21.2612 0.6792
22 8 35 10.1165 0.1875
22 8 38 -2.5335 -0.6304
22 8 41 13.2076 -0.3555
22 8 44 -3.2345 0.4461
22 8 47 13.1459 0.0856
22 8 50 13.0958 0.3067
22 9 -50 3.9087 -0.6627
22 9 -47 -1.9160 -0.2211
22 9 -44 -1.3550 0.4494
22 9 -41 3.6604 -0.3976
22 9 -38 -17.2576 -0.7171
22 9 -35 2.4558 0.5090
22 9 -32 7.3492 0.7529
22 9 -29 -7.1661 -0.2935
22 9 -26 21.2759 -0.8744
22 9 -23 -2.3025 0.1584
22 9 -20 -8.0511 0.8521
22 9 -17 3.2815 0.2326
22 9 -14 -22.7218 -0.7338
22 9 -11 40.1003 -0.6958
22 9 -8 -22.5762 0.7329
22 9 -5 -24.3941 0.8695
22 9 -2 -15.6531 -0.4525
22 9 1 -3.4292 -1.1489
22 9 4 -15.4564 -0.2463
22 9 7 -3.5731 0.9195
22 9 10 -0.5052 0.1588
22 9 13 17.6350 -0.9064
22 9 16 -1.8802 -0.9677
22 9 19 10.7881 0.4735
22 9 22 -10.1602 1.0147
22 9 25 28.1971 -0.2453
22 9 28 -13.0690 -1.3531
22 9 31 -0.5037 -0.2732
22 9 34 8.5364 1.1129
22 9 37 -9.6185 0.3171
22 9 40 -19.5894 -0.9354
22 9 43 -6.8107 -0.7391
22 9 46 -11.0480 0.0149
22 9 49 -2.3517 0.9869
22 10 -48 10.2178 -1.3194
22 10 -45 -6.9868 -0.3144
22 10 -42 14.0585 -0.0179
22 10 -39 -13.9429 0.1169
22 10 -36 -1.6669 -0.9315
22 10 -33 16.2882 -0.2400
22 10 -30 -13.7393 0.2960
22 10 -27 -22.8408 0.3861
22 10 -24 11.3005 -0.5011
22 10 -21 -29.3734 -0.7591
22 10 -18 16.4283 0.0058
22 10 -15 -11.0168 0.3230
22 10 -12 -13.5637 0.0289
22 10 -9 -11.4535 -0.8509
22 10 -6 25.2320 -0.3622
22 10 -3 -47.7027 0.5314
22 10 0 76.1169 0.2675
22 10 3 -20.5280 -0.3807
22 10 6 5.3043 -0.3258
22 10 9 12.7799 -0.0110
22 10 12 -28.0300 0.4010
22 10 15 -8.3018 -0.0783
22 10 18 12.7849 -0.1198
22 10 21 -31.0461 -0.0798
22 10 24 8.5522 0.0441
22 10 27 -10.1659 -0.0777
22 10 30 -18.9186 0.0626
22 10 33 7.3347 0.1801
22 10 36 17.5772 -0.1694
22 10 39 9.7362 -0.0291
22 10 42 28.3505 -0.2107
22 10 45 4.8132 -0.0896
22 10 48 2.2172 -0.5795
22 11 -46 -5.8981 0.0134
22 11 -43 -2.6000 -0.3161
22 11 -40 -1.6685 0.5711
22 11 -37 -0.3534 0.3342
22 11 -34 -13.7655 -0.3629
22 11 -31 2.2123 -0.3357
22 11 -28 3.4000 0.3228
22 11 -25 -0.3327 0.7255
22 11 -22 14.0328 -0.1133
22 11 -19 -19.6569 -0.5429
22 11 -16 13.3812 -0.1624
22 11 -13 2.9313 0.5573
22 11 -10 -5.0355 0.3141
22 11 -7 -8.0201 -0.4456
22 11 -4 13.6488 -0.3618
22 11 -1 -24.7065 0.3989
22 11 2 18.9359 0.4941
22 11 5 -29.8802 -0.3547
22 11 8 22.2191 -0.8261
22 11 11 -35.8174 -0.0259
22 11 14 23.0962 0.3466
22 11 17 22.4544 -0.0746
22 11 20 41.4023 -0.6183
22 11 23 3.9483 -0.2358
22 11 26 4.0994 0.5060
22 11 29 15.5214 0.7072
22 11 32 -3.2266 0.0382
22 11 35 1.6152 -0.6049
22 11 38 3.7780 -0.0952
22 11 41 -6.8748 0.6319
22 11 44 4.2330 0.2993
22 11 47 -7.2461 0.0024
22 12 -47 2.9666 -0.6321
22 12 -44 -5.0428 -0.5379
22 12 -41 7.6552 0.5238
22 12 -38 4.2428 0.3616
22 12 -35 -3.8007 -0.0034
22 12 -32 3.1551 -0.4347
22 12 -29 4.1449 0.0050
22 12 -26 -4.9951 -0.2082
22 12 -23 -5.0493 0.4331
22 12 -20 -4.2468 -0.1517
22 12 -17 0.8445 -0.6653
22 12 -14 4.9566 -0.1325
22 12 -11 -18.8752 0.2738
22 12 -8 -5.7345 0.0612
22 12 -5 25.4940 -0.4373
22 12 -2 24.1949 -0.0224
22 12 1 30.8865 0.3467
22 12 4 -30.0364 0.1016
22 12 7 37.6577 -0.1741
22 12 10 4.7149 0.0843
22 12 13 -5.8167 0.1816
22 12 16 -12.2494 0.0137
22 12 19 12.2782 -0.3289
22 12 22 -11.1948 0.1227
22 12 25 -5.7843 0.2705
22 12 28 -12.4760 0.0983
22 12 31 17.0944 -0.1166
22 12 34 -10.0379 0.0088
22 12 37 8.7055 0.0821
22 12 40 -23.2847 0.3468
22 12 43 12.1419 -0.7577
22 12 46 -2.3865 0.6639
22 13 -45 7.8729 0.8410
22 13 -42 -1.5138 -0.2322
22 13 -39 -11.6871 -0.3082
22 13 -36 6.4659 -0.3165
22 13 -33 -11.1679 0.8775
22 13 -30 9.4535 0.3983
22 13 -27 -4.3070 -0.2700
22 13 -24 9.0691 -0.2805
22 13 -21 -19.7790 0.5328
22 13 -18 7.3889 0.6231
22 13 -15 -2.1104 -0.3513
22 13 -12 -23.0894 -0.5798
22 13 -9 19.6518 0.1739
22 13 -6 32.4586 0.7552
22 13 -3 -15.0526 0.2114
22 13 0 53.5449 -0.3814
22 13 3 -59.2551 -0.1431
22 13 6 3.8899 0.1847
22 13 9 26.0374 0.1344
22 13 12 -38.8042 -0.2446
22 13 15 16.6104 -0.3774
22 13 18 -3.3218 -0.1780
22 13 21 1.8878 0.4324
22 13 24 10.6587 -0.0073
22 13 27 -1.4087 -0.4368
22 13 30 21.0332 0.0716
22 13 33 8.3876 0.3090
22 13 36 21.5999 -0.6099
22 13 39 -13.6823 -0.0775
22 13 42 -9.7995 -0.9780
22 13 45 -0.1534 0.3499
22 14 -43 1.5363 0.1530
22 14 -40 4.2648 0.2485
22 14 -37 -2.4838 0.3069
22 14 -34 6.0788 -0.5992
22 14 -31 20.4744 0.2513
22 14 -28 8.2190 0.1824
22 14 -25 8.0183 0.3437
22 14 -22 6.8169 -0.1049
22 14 -19 -9.5804 -0.2332
22 14 -16 6.3957 0.1248
22 14 -13 -9.1168 0.3074
22 14 -10 3.0480 -0.0033
22 14 -7 3.4740 -0.4304
22 14 -4 13.7618 -0.0626
22 14 -1 -30.5488 0.6031
22 14 2 -11.8945 0.4387
22 14 5 -0.8230 -0.1912
22 14 8 12.2596 -0.5630
22 14 11 1.5259 -0.0230
22 14 14 27.3864 0.4015
22 14 17 -9.1234 -0.0782
22 14 20 11.6829 -0.5785
22 14 23 -0.9620 -0.1879
22 14 26 -11.0443 0.1214
22 14 29 6.7742 0.0293
22 14 32 -16.9434 0.1667
22 14 35 -10.5373 -0.4202
22 14 38 -1.0827 0.1263
22 14 41 -9.1950 1.0720
22 14 44 -6.4553 -0.8148
22 15 -41 10.5737 0.4789
22 15 -38 2.7715 -0.1707
22 15 -35 -7.1287 -0.0632
22 15 -32 0.4296 -0.9801
22 15 -29 -1.0053 0.0805
22 15 -26 -25.6393 0.6533
22 15 -23 2.2114 0.4271
22 15 -20 -16.4519 -0.7684
22 15 -17 -5.6801 -0.4128
22 15 -14 9.1638 0.7536
22 15 -11 15.7483 0.4428
22 15 -8 4.0393 -0.5755
22 15 -5 26.4728 -0.6439
22 15 -2 -8.6091 -0.0754
22 15 1 -15.3463 0.7002
22 15 4 28.2361 -0.0209
22 15 7 -13.4644 -1.0076
22 15 10 -28.1373 -0.5419
22 15 13 11.7210 0.7699
22 15 16 -14.4154 0.6755
22 15 19 11.9221 -0.7078
22 15 22 0.0514 -0.4183
22 15 25 -9.8900 0.6119
22 15 28 0.3759 0.1913
22 15 31 9.5348 0.0905
22 15 34 -19.4882 -0.3104
22 15 37 10.2331 0.1388
22 15 40 1.8551 1.7644
22 15 43 3.8607 0.6919
22 16 -42 -5.3700 -0.8605
22 16 -39 -5.8414 0.1754
22 16 -36 8.7176 0.6344
22 16 -33 5.3575 -0.1275
22 16 -30 12.2585 -0.1571
22 16 -27 1.1719 0.1916
22 16 -24 -13.3723 0.1061
22 16 -21 7.2426 -0.0978
22 16 -18 2.9848 -0.0300
22 16 -15 -10.0944 0.0020
22 16 -12 -5.9446 -0.0342
22 16 -9 -0.5931 0.1734
22 16 -6 -4.1064 0.0735
22 16 -3 -16.2852 0.0152
22 16 0 -12.3501 0.0983
22 16 3 -3.2397 0.3267
22 16 6 7.7510 0.0540
22 16 9 17.7406 -0.0926
22 16 12 -17.8339 -0.2500
22 16 15 33.2188 0.6596
22 16 18 -4.5639 0.2991
22 16 21 -2.6434 -0.3399
22 16 24 -6.1913 -0.0384
22 16 27 -4.3222 0.0120
22 16 30 22.8159 0.3689
22 16 33 -19.1492 -0.3284
22 16 36 -5.0404 -0.0342
22 16 39 -6.8354 -0.2510
22 16 42 -9.6301 1.7615
22 17 -40 4.9766 -1.5713
22 17 -37 11.3041 -0.3852
22 17 -34 3.6581 -1.2659
22 17 -31 -3.1582 -0.3697
22 17 -28 -16.0388 -0.1436
22 17 -25 -8.9712 -0.0630
22 17 -22 -10.0094 -0.0170
22 17 -19 10.6900 -0.1313
22 17 -16 0.0617 0.1814
22 17 -13 2.7235 -0.0595
22 17 -10 15.5204 -0.3117
22 17 -7 15.4254 -0.0975
22 17 -4 15.3779 0.1252
22 17 -1 -6.0645 0.1621
22 17 2 28.6631 -0.4909
22 17 5 19.0000 -0.5542
22 17 8 11.3029 -0.1011
22 17 11 -6.1215 0.1253
22 17 14 -7.2186 0.0661
22 17 17 0.8445 0.2231
22 17 20 -13.4134 -0.2458
22 17 23 -2.6654 -0.0915
22 17 26 -23.1310 0.1256
22 17 29 4.8289 -0.2851
22 17 32 -1.0229 -0.8660
22 17 35 -7.9948 0.5884
22 17 38 12.0064 -1.0232
22 18 -38 -4.7465 -0.7630
22 18 -35 -12.3004 -0.5096
22 18 -32 -4.6367 0.2773
22 18 -29 -2.8853 0.1043
22 18 -26 2.6302 -0.1787
22 18 -23 29.1178 -0.7029
22 18 -20 -2.2873 -0.0055
22 18 -17 18.8554 0.5079
22 18 -14 5.4565 0.1808
22 18 -11 -5.4326 -0.4851
22 18 -8 1.4659 -0.3491
22 18 -5 2.4196 0.4952
22 18 -2 -16.7086 0.1907
22 18 1 10.3675 -0.1184
22 18 4 -5.3455 -0.1925
22 18 7 -5.3958 0.3933
22 18 10 2.3813 0.1278
22 18 13 8.9785 -0.5347
22 18 16 -3.4866 -0.2286
22 18 19 0.2726 0.1694
22 18 22 -2.6252 -0.2081
22 18 25 10.7330 -0.1673
22 18 28 -9.0105 -0.5262
22 18 31 11.0030 -0.5788
22 18 34 -0.5976 0.4535
22 18 37 2.9648 -0.1096
22 19 -36 7.3959 -1.5849
22 19 -33 -4.3768 -0.1276
22 19 -30 -2.9566 -0.6182
22 19 -27 -4.7812 -0.0656
22 19 -24 -1.3750 -0.1491
22 19 -21 6.6044 -0.3576
22 19 -18 -19.1942 -0.1867
22 19 -15 0.3262 0.1912
22 19 -12 -5.7148 0.3644
22 19 -9 15.1108 -0.0181
22 19 -6 -2.1679 -0.3744
22 19 -3 6.7360 -0.0225
22 19 0 34.0646 0.3867
22 19 3 4.2899 0.0394
22 19 6 5.1578 -0.4009
22 19 9 2.9088 -0.0595
22 19 12 -25.8165 0.2062
22 19 15 17.7372 0.3956
22 19 18 -15.4572 0.3349
22 19 21 -2.6763 -0.4095
22 19 24 11.7094 0.5098
22 19 27 -2.0616 0.6160
22 19 30 0.9316 1.2804
22 19 33 -12.7817 -0.3885
22 19 36 -5.0030 1.0191
22 20 -34 -5.4269 -0.0501
22 20 -31 6.7239 -0.3173
22 20 -28 4.2012 0.0009
22 20 -25 17.0220 0.5286
22 20 -22 0.3165 -0.2099
22 20 -19 20.5353 -0.4231
22 20 -16 -12.8059 0.1830
22 20 -13 6.9922 0.8243
22 20 -10 24.9819 -0.0912
22 20 -7 -7.3810 -0.8722
22 20 -4 -2.0441 0.0547
22 20 -1 0.2229 0.9265
22 20 2 -10.7371 0.2601
22 20 5 -5.8483 -0.5744
22 20 8 -14.5732 -0.2527
22 20 11 -10.0696 0.3639
22 20 14 4.6783 0.5459
22 20 17 9.4750 -0.2171
22 20 20 -18.2574 -0.4161
22 20 23 12.1142 -0.0184
22 20 26 4.4562 -0.5806
22 20 29 5.8072 0.7579
22 20 32 3.3675 -0.6079
22 20 35 -2.4559 -0.4815
22 21 -32 0.3092 -0.4748
22 21 -29 7.0751 -0.1452
22 21 -26 -2.0344 -0.3050
22 21 -23 -10.0727 -0.3589
22 21 -20 -18.9462 0.2060
22 21 -17 11.6082 0.4081
22 21 -14 -19.1181 -0.2035
22 21 -11 18.4727 -0.3607
22 21 -8 5.5796 0.0460
22 21 -5 15.9811 0.2796
22 21 -2 -4.3850 0.2461
22 21 1 7.9310 0.2373
22 21 4 10.6333 -0.2124
22 21 7 2.5723 -0.0384
22 21 10 1.9535 0.3543
22 21 13 -4.8351 0.1139
22 21 16 5.7992 0.1901
22 21 19 5.7012 0.0784
22 21 22 -24.7721 0.6151
22 21 25 19.9202 0.1875
22 21 28 -17.0498 -0.1642
22 21 31 -1.3195 0.6650
22 21 34 3.6241 -1.6289
22 22 -30 8.6527 0.8959
22 22 -27 -12.8306 -0.6649
22 22 -24 2.8498 -0.0049
22 22 -21 -8.3515 0.6852
22 22 -18 2.3964 0.5594
22 22 -15 12.5981 0.6818
22 22 -12 4.5596 0.2618
22 22 -9 11.0770 -0.3512
22 22 -6 15.5801 0.2183
22 22 -3 -14.5357 0.2192
22 22 0 1.9391 -0.0880
22 22 3 -13.4862 -0.4122
22 22 6 -13.0561 -0.0685
22 22 9 6.8802 0.5438
22 22 12 -2.0632 0.2215
22 22 15 5.5775 -0.1854
22 22 18 7.4393 -0.2629
22 22 21 -6.2254 -0.4280
22 22 24 11.7424 0.9269
22 22 27 -9.3700 -1.3284
22 22 30 -2.0276 -0.4963
22 23 -28 -13.0636 -0.3227
22 23 -25 8.6765 -0.3542
22 23 -22 4.4288 0.5133
22 23 -19 9.2802 0.1518
22 23 -16 -1.7609 0.7295
22 23 -13 18.2493 0.0638
22 23 -10 -2.1078 -0.3682
22 23 -7 -5.6081 0.3943
22 23 -4 -11.5231 0.4357
22 23 -1 -2.2781 -0.1137
22 23 2 10.6490 -0.1085
22 23 5 -3.4732 0.1800
22 23 8 2.3159 0.1189
22 23 11 11.7682 0.2334
22 23 14 -9.5558 0.6864
22 23 17 -2.2477 -0.2910
22 23 20 5.3644 -0.6792
22 23 23 -0.3749 0.6458
22 23 26 -7.7902 0.0073
22 23 29 -1.1852 -0.8477
22 24 -26 -2.5803 0.2623
22 24 -23 11.6475 0.1015
22 24 -20 3.0261 0.3479
22 24 -17 15.0974 0.1624
22 24 -14 8.3156 0.0753
22 24 -11 5.2116 0.0367
22 24 -8 3.6619 -0.1183
22 24 -5 -7.8764 -0.4555
22 24 -2 4.0829 -0.3510
22 24 1 17.0377 -0.1468
22 24 4 -7.9459 0.7405
22 24 7 -17.2211 0.4210
22 24 10 2.6204 -1.0387
22 24 13 -3.2523 -0.0790
22 24 16 -3.8939 1.0470
22 24 19 -1.2295 -0.1364
22 24 22 -5.9356 -0.0111
22 24 25 5.0938 0.5098
22 25 -21 -11.0980 0.7979
22 25 -18 12.6205 1.0848
22 25 -15 2.0667 0.7595
22 25 -12 -14.7214 -0.2070
22 25 -9 3.9707 -0.2975
22 25 -6 6.2136 0.0575
22 25 -3 -8.1603 -0.3733
22 25 0 9.2767 -0.0305
22 25 3 -6.7766 0.5285
22 25 6 0.5387 0.1507
22 25 9 -1.3286 0.4246
22 25 12 -0.5936 -0.9883
22 25 15 -2.9338 0.6679
22 25 18 7.9216 -0.2680
22 25 21 -4.2030 -0.8020
22 26 -19 -6.0110 1.3954
22 26 -16 6.0903 -0.4467
22 26 -13 1.1909 0.2809
22 26 -10 5.2436 -0.3640
22 26 -7 11.7219 -0.2410
22 26 -4 12.4859 0.4855
22 26 -1 -3.5143 0.0974
22 26 2 -6.0585 -0.7114
22 26 5 -0.0886 0.1422
22 26 8 1.3648 0.5898
22 26 11 0.1066 -0.6577
22 26 14 -0.6416 0.0361
22 26 17 -2.4094 -0.2913
22 26 20 -1.1255 0.7783
22 27 -14 0.7057 0.9398
22 27 -11 3.8604 -1.6286
22 27 -8 -0.3241 -0.1907
22 27 -5 9.4958 0.3836
22 27 -2 2.4000 -0.2427
22 27 1 1.4057 -0.0051
22 27 4 1.6782 0.4548
22 27 7 12.4743 0.6779
22 27 10 8.4824 0.2914
22 27 13 -1.1112 -0.6650
22 28 -6 8.5685 -0.5300
22 28 -3 -14.7914 0.7346
22 28 0 6.8167 1.3992
22 28 3 -6.8589 -0.5568
22 28 6 4.2187 -1.2865
23 1 -53 1.4475 1.0281
23 1 -50 0.3410 -4.1611
23 1 -47 -13.9202 -2.5918
23 1 -44 1.0382 3.3171
23 1 -41 -14.6923 3.7112
23 1 -38 -18.3812 -2.5766
23 1 -35 -13.3485 -4.8517
23 1 -32 -1.7058 1.3430
23 1 -29 -23.7480 5.9747
23 1 -26 36.2071 0.4151
23 1 -23 27.4749 -6.2385
23 1 -20 100.3318 -1.7231
23 1 -17 21.9855 6.2309
23 1 -14 34.3107 3.5414
23 1 -11 -27.1454 -4.8960
23 1 -8 9.5949 -5.0140
23 1 -5 -18.5608 2.8205
23 1 -2 -72.9026 6.0053
23 1 1 9.2550 -0.9177
23 1 4 47.5937 -6.7292
23 1 7 -92.9239 -1.0660
23 1 10 92.6726 5.9066
23 1 13 -128.4137 1.9465
23 1 16 70.4840 -5.1740
23 1 19 -0.0609 -3.1874
23 1 22 -67.1601 3.3974
23 1 25 12.5634 3.6392
23 1 28 26.7798 -1.9046
23 1 31 7.2454 -4.0135
23 1 34 32.2788 0.7127
23 1 37 5.5277 3.8863
23 1 40 9.5513 0.2351
23 1 43 14.2767 -2.9366
23 1 46 -6.4019 -0.9622
23 1 49 -8.4201 1.8437
23 1 52 5.9147 1.3900
23 2 -51 3.4190 -1.0112
23 2 -48 15.0054 1.0889
23 2 -45 1.2963 1.1923
23 2 -42 9.9767 0.2146
23 2 -39 -0.3288 -1.3211
23 2 -36 21.2283 -1.0540
23 2 -33 -8.8441 1.5705
23 2 -30 2.3328 1.8167
23 2 -27 -40.0763 -0.8968
23 2 -24 4.5557 -2.4805
23 2 -21 8.8920 0.0611
23 2 -18 -45.7681 2.8805
23 2 -15 -18.3216 1.1105
23 2 -12 -62.9677 -2.8696
23 2 -9 -37.4130 -2.7132
23 2 -6 43.8036 2.6719
23 2 -3 22.4061 3.9288
23 2 0 30.1464 -1.6918
23 2 3 62.8160 -4.3958
23 2 6 16.1789 0.5335
23 2 9 12.2763 4.5867
23 2 12 10.8608 0.8980
23 2 15 -38.9305 -3.8098
23 2 18 21.9540 -2.1630
23 2 21 -10.7659 3.0324
23 2 24 -13.1575 3.1270
23 2 27 7.5768 -1.7598
23 2 30 -37.2224 -3.4991
23 2 33 -21.0422 0.7358
23 2 36 0.1251 3.0444
23 2 39 -1.7165 0.4621
23 2 42 -1.4865 -2.6305
23 2 45 15.0132 -1.1920
23 2 48 -2.8689 1.6686
23 2 51 4.7874 1.5333
23 3 -52 -1.4310 1.7919
23 3 -49 -3.5519 1.0775
23 3 -46 -7.7509 1.5462
23 3 -43 -9.9043 -1.9654
23 3 -40 -11.0016 -1.8212
23 3 -37 -16.8628 1.5553
23 3 -34 -23.4175 2.6623
23 3 -31 -25.2986 -1.2375
23 3 -28 17.9078 -2.8380
23 3 -25 21.5280 0.4088
23 3 -22 59.2535 3.3001
23 3 -19 10.4015 0.8894
23 3 -16 -1.5269 -3.0216
23 3 -13 62.0907 -2.0884
23 3 -10 -21.2572 2.6644
23 3 -7 24.0703 3.2296
23 3 -4 -1.3656 -2.0157
23 3 -1 -6.5826 -3.8582
23 3 2 24.8772 0.9292
23 3 5 -67.6096 3.5743
23 3 8 -11.9825 0.0199
23 3 11 -25.4635 -3.5095
23 3 14 -22.7828 -1.5263
23 3 17 -46.8477 2.1377
23 3 20 22.5915 2.2745
23 3 23 0.5395 -1.6211
23 3 26 51.5852 -2.4655
23 3 29 -5.8346 0.6820
23 3 32 -12.2683 2.4630
23 3 35 20.0461 0.2801
23 3 38 12.3662 -1.6158
23 3 41 -14.8115 -0.7401
23 3 44 20.0702 1.3921
23 3 47 -0.9283 1.4994
23 3 50 8.0063 -0.5220
23 3 53 -2.9568 -0.9080
23 4 -50 7.4237 -0.8400
23 4 -47 -6.4827 0.5686
23 4 -44 10.0571 0.0833
23 4 -41 -13.6864 -1.0183
23 4 -38 10.3326 0.1937
23 4 -35 8.2737 0.6509
23 4 -32 0.6226 0.1728
23 4 -29 13.3801 -0.9673
23 4 -26 38.2944 -0.7225
23 4 -23 -17.7264 0.9400
23 4 -20 15.0064 1.5556
23 4 -17 -98.4111 -0.8674
23 4 -14 -4.3582 -1.9729
23 4 -11 -42.5830 0.5395
23 4 -8 5.7476 2.1196
23 4 -5 -19.9482 0.0982
23 4 -2 46.2160 -2.0801
23 4 1 -4.9916 -0.8595
23 4 4 51.7527 1.6304
23 4 7 -71.8746 1.7405
23 4 10 87.4345 -1.2431
23 4 13 -24.6738 -2.2948
23 4 16 14.0080 0.8879
23 4 19 -10.9059 2.6104
23 4 22 -16.2792 -0.1332
23 4 25 26.5622 -2.3797
23 4 28 19.0281 -0.4382
23 4 31 -8.2821 1.7641
23 4 34 -0.0420 1.2059
23 4 37 2.8180 -1.2728
23 4 40 -0.3774 -1.7218
23 4 43 -18.7518 0.7851
23 4 46 -7.0091 2.3179
23 4 49 -11.5582 0.1807
23 4 52 4.9526 -1.0662
23 5 -51 0.6005 0.7166
23 5 -48 -3.5733 0.0026
23 5 -45 -5.7863 -0.8060
23 5 -42 -14.5264 0.0034
23 5 -39 -9.3957 0.9046
23 5 -36 -17.6728 -0.5453
23 5 -33 -29.4821 -1.0609
23 5 -30 0.6418 -0.0133
23 5 -27 -2.6359 0.8831
23 5 -24 22.9414 0.4868
23 5 -21 0.9312 -0.9957
23 5 -18 12.0280 -0.6842
23 5 -15 24.0958 1.3759
23 5 -12 8.9756 1.1974
23 5 -9 42.3746 -1.0603
23 5 -6 -2.2281 -1.0855
23 5 -3 7.0285 0.8060
23 5 0 -49.3682 1.3788
23 5 3 38.1041 -0.1189
23 5 6 8.9153 -1.3447
23 5 9 -65.1243 -0.4250
23 5 12 33.9759 1.1548
23 5 15 -48.9316 0.6314
23 5 18 21.9743 -1.1042
23 5 21 -8.0719 -1.0660
23 5 24 -31.9373 0.7481
23 5 27 18.6526 1.1962
23 5 30 -1.7235 -0.6174
23 5 33 3.9823 -1.1590
23 5 36 14.4367 -0.0326
23 5 39 22.6721 0.7851
23 5 42 -15.4861 0.1297
23 5 45 12.4554 -1.7011
23 5 48 -1.7297 -0.8441
23 5 51 -0.1219 0.5643
23 6 -49 5.7455 -0.5452
23 6 -46 2.6856 0.1149
23 6 -43 3.2991 -0.4631
23 6 -40 8.3136 0.8273
23 6 -37 -4.7748 0.6519
23 6 -34 1.0361 -0.9579
23 6 -31 36.9097 -0.9709
23 6 -28 16.1962 0.7722
23 6 -25 1.5411 1.3188
23 6 -22 -2.8579 -0.6037
23 6 -19 -9.4409 -1.5652
23 6 -16 -20.2930 0.1110
23 6 -13 -28.0720 1.4958
23 6 -10 -52.1649 0.2166
23 6 -7 -16.6968 -1.6683
23 6 -4 17.2326 -0.8543
23 6 -1 -14.0100 1.4983
23 6 2 33.7151 1.3437
23 6 5 56.2654 -1.1529
23 6 8 -26.5669 -1.7572
23 6 11 18.7423 0.8844
23 6 14 14.9383 1.7307
23 6 17 -20.8550 -0.1979
23 6 20 46.3643 -1.7475
23 6 23 -22.8472 -0.3707
23 6 26 -10.9302 1.7868
23 6 29 14.9398 0.9404
23 6 32 -19.9427 -1.2149
23 6 35 10.0857 -1.0303
23 6 38 3.8097 0.7399
23 6 41 -1.2490 1.1535
23 6 44 9.9057 -0.5588
23 6 47 2.8324 -1.3893
23 6 50 -4.5601 -0.2220
23 7 -50 4.4431 -0.6894
23 7 -47 -5.8526 0.1520
23 7 -44 -0.4277 0.5882
23 7 -41 -9.7759 -1.0062
23 7 -38 -1.8356 -1.0667
23 7 -35 -4.3336 0.5506
23 7 -32 -9.7199 0.6968
23 7 -29 11.6144 -0.4990
23 7 -26 2.8646 -0.9619
23 7 -23 -28.2963 0.2551
23 7 -20 26.5700 1.3170
23 7 -17 -11.3392 0.2260
23 7 -14 10.9587 -1.2693
23 7 -11 45.5276 -0.4392
23 7 -8 17.6018 1.2396
23 7 -5 7.5115 1.0776
23 7 -2 57.8781 -0.9291
23 7 1 -59.0238 -0.9462
23 7 4 55.4024 1.0627
23 7 7 -35.2904 1.2313
23 7 10 9.0996 -0.1010
23 7 13 -13.8447 -1.1338
23 7 16 -5.2312 0.0857
23 7 19 4.4528 1.2698
23 7 22 51.4189 0.3168
23 7 25 -12.8296 -1.1278
23 7 28 14.5367 -0.5548
23 7 31 1.4274 0.9729
23 7 34 -16.5630 0.7008
23 7 37 -4.6859 -0.5234
23 7 40 -8.7974 -0.5049
23 7 43 -8.6748 0.8981
23 7 46 6.1492 1.6107
23 7 49 -1.3805 -0.0265
23 8 -48 9.9165 0.9674
23 8 -45 3.3067 -0.3443
23 8 -42 -2.4946 -0.7826
23 8 -39 7.0817 -0.0602
23 8 -36 11.8804 1.0617
23 8 -33 22.2421 0.2488
23 8 -30 1.4432 -0.9649
23 8 -27 16.2548 -0.3776
23 8 -24 -11.9633 1.0346
23 8 -21 -10.7069 0.9804
23 8 -18 -6.8417 -0.5783
23 8 -15 -37.5206 -1.1141
23 8 -12 -4.2808 -0.1028
23 8 -9 10.4059 1.3885
23 8 -6 -80.2185 0.5325
23 8 -3 66.0010 -1.2612
23 8 0 10.8260 -0.6794
23 8 3 18.5566 1.1018
23 8 6 42.1778 0.9693
23 8 9 -41.4834 -0.7577
23 8 12 47.4702 -1.2237
23 8 15 4.6479 0.4380
23 8 18 -43.1184 1.3873
23 8 21 19.2081 -0.0764
23 8 24 -6.9976 -1.1687
23 8 27 -1.9694 -0.4062
23 8 30 -1.6194 0.8030
23 8 33 14.9075 0.5600
23 8 36 -11.0039 -0.5724
23 8 39 7.6431 -0.7129
23 8 42 -3.7372 0.3715
23 8 45 1.8917 0.2871
23 8 48 9.2253 0.3864
23 9 -46 -5.4451 -0.3021
23 9 -43 -2.5933 0.3946
23 9 -40 -4.4952 0.8906
23 9 -37 -3.3044 -0.3957
23 9 -34 6.8472 -0.9428
23 9 -31 -9.1124 0.2167
23 9 -28 -22.0391 0.7589
23 9 -25 11.0281 0.5723
23 9 -22 -1.7299 -0.5337
23 9 -19 -9.6031 -0.5105
23 9 -16 -7.6247 0.3564
23 9 -13 35.9160 0.8607
23 9 -10 4.7391 0.1233
23 9 -7 29.1274 -0.5168
23 9 -4 21.0168 -0.3510
23 9 -1 18.2042 0.7642
23 9 2 10.6948 0.9320
23 9 5 -8.6469 -0.1454
23 9 8 -36.5929 -0.8768
23 9 11 11.7091 -0.1218
23 9 14 22.0790 0.7794
23 9 17 -44.3447 0.2938
23 9 20 35.0259 -0.9875
23 9 23 -16.2226 -0.5501
23 9 26 13.9985 0.1571
23 9 29 -1.0425 0.3725
23 9 32 -0.2204 -0.1656
23 9 35 14.0569 -0.5052
23 9 38 8.7797 0.0071
23 9 41 5.7553 0.6330
23 9 44 -12.5772 -0.2769
23 9 47 -1.1217 -0.7985
23 10 -47 -7.1147 -0.3845
23 10 -44 3.8685 -0.1762
23 10 -41 8.4681 0.1194
23 10 -38 -2.6022 0.8436
23 10 -35 -1.1976 0.3382
23 10 -32 -7.8517 -0.8528
23 10 -29 13.7797 -0.1956
23 10 -26 -13.5715 0.9068
23 10 -23 6.7524 0.4276
23 10 -20 9.3274 -0.7223
23 10 -17 -7.4241 -0.6061
23 10 -14 22.1441 0.7232
23 10 -11 -10.6517 1.0099
23 10 -8 -18.7054 -0.4872
23 10 -5 3.4235 -1.3179
23 10 -2 17.1931 -0.0882
23 10 1 25.7227 1.0769
23 10 4 19.2566 0.2437
23 10 7 19.6270 -0.9991
23 10 10 -0.7696 -0.6656
23 10 13 38.4790 0.6477
23 10 16 5.0632 0.7293
23 10 19 17.1407 -0.4998
23 10 22 -18.1111 -0.9743
23 10 25 -10.9699 -0.1185
23 10 28 -11.6680 0.8617
23 10 31 -17.0823 0.3114
23 10 34 -0.4440 -0.7314
23 10 37 -0.8484 -0.1472
23 10 40 15.0055 0.7370
23 10 43 3.2597 1.2074
23 10 46 8.7303 -0.5400
23 11 -45 3.3925 -0.8300
23 11 -42 -0.6885 0.0901
23 11 -39 1.0250 0.6107
23 11 -36 0.8021 0.0045
23 11 -33 -14.7702 -0.3631
23 11 -30 -18.8669 -0.1886
23 11 -27 -1.1151 0.5363
23 11 -24 -13.3255 0.0337
23 11 -21 9.7414 -0.3000
23 11 -18 3.3780 -0.3705
23 11 -15 15.2973 0.4860
23 11 -12 -4.8602 0.4524
23 11 -9 27.2800 -0.2572
23 11 -6 5.2230 -0.6138
23 11 -3 48.6478 0.2965
23 11 0 12.5439 0.6219
23 11 3 -41.8277 -0.2235
23 11 6 28.9911 -0.6964
23 11 9 -29.0080 -0.0812
23 11 12 -6.2209 0.6045
23 11 15 -8.9266 0.3357
23 11 18 -17.7708 -0.5978
23 11 21 7.4378 -0.3244
23 11 24 2.3153 0.7023
23 11 27 10.3129 0.8054
23 11 30 -2.8150 -0.4478
23 11 33 12.0672 -0.5578
23 11 36 -17.4024 0.5426
23 11 39 1.9896 0.5218
23 11 42 11.2202 0.2373
23 11 45 -1.0865 0.5255
23 12 -43 10.0158 -0.0072
23 12 -40 -1.7890 -0.2120
23 12 -37 3.7769 -0.9812
23 12 -34 -6.2965 -0.0171
23 12 -31 -2.6798 0.0978
23 12 -28 -7.2693 -0.0949
23 12 -25 29.8682 -0.8543
23 12 -22 -19.3635 -0.0123
23 12 -19 4.6328 0.6933
23 12 -16 12.7335 0.0425
23 12 -13 -3.2084 -0.7679
23 12 -10 -12.6664 -0.5481
23 12 -7 35.2972 0.6753
23 12 -4 -28.2040 0.5234
23 12 -1 37.6103 -0.4449
23 12 2 -0.1170 -0.7451
23 12 5 -2.9946 0.2939
23 12 8 58.8175 0.9574
23 12 11 14.3689 0.0411
23 12 14 -5.2635 -0.9785
23 12 17 17.8861 -0.2071
23 12 20 -3.1543 0.8151
23 12 23 -1.6008 0.4735
23 12 26 0.5232 -0.7331
23 12 29 -23.2631 -0.7298
23 12 32 4.9793 0.4735
23 12 35 0.2945 0.6068
23 12 38 -15.0113 -0.4596
23 12 41 -2.7381 -1.2268
23 12 44 -0.5576 0.3423
23 13 -44 17.6676 0.2374
23 13 -41 1.8104 0.3044
23 13 -38 -17.1567 0.8042
23 13 -35 -6.5539 -0.5639
23 13 -32 -0.8086 -0.5450
23 13 -29 7.0205 -0.3908
23 13 -26 3.1506 -0.1367
23 13 -23 16.4369 0.3404
23 13 -20 -8.4307 -0.3807
23 13 -17 18.3348 -0.4416
23 13 -14 12.5850 0.1035
23 13 -11 -5.4365 0.2319
23 13 -8 22.9188 -0.0780
23 13 -5 30.3525 -0.2013
23 13 -2 0.3411 -0.1603
23 13 1 29.9963 0.1181
23 13 4 -37.7117 0.2769
23 13 7 16.7659 0.1636
23 13 10 -3.6672 -0.5614
23 13 13 -21.2476 -0.3364
23 13 16 -8.5979 0.1836
23 13 19 -8.8969 0.4545
23 13 22 -2.1971 -0.0835
23 13 25 4.1355 -0.5308
23 13 28 -13.2907 -0.0931
23 13 31 -3.9442 0.2621
23 13 34 13.7567 0.0778
23 13 37 8.2247 -0.6212
23 13 40 7.4498 -0.8389
23 13 43 -10.4137 -0.7366
23 14 -42 -9.6633 -0.6793
23 14 -39 0.7092 0.5949
23 14 -36 -20.5594 -0.3102
23 14 -33 7.1088 -1.5359
23 14 -30 4.4114 -0.2624
23 14 -27 15.9143 0.6111
23 14 -24 -20.7405 0.6210
23 14 -21 14.4942 -1.0688
23 14 -18 -13.4014 -0.7977
23 14 -15 -5.1404 0.5712
23 14 -12 6.4522 0.9306
23 14 -9 -8.1955 -0.0746
23 14 -6 -10.6439 -1.1330
23 14 -3 15.7873 -0.0711
23 14 0 -13.3094 1.1940
23 14 3 -1.6394 0.6221
23 14 6 22.2387 -0.8075
23 14 9 5.1484 -0.5018
23 14 12 12.7443 0.8083
23 14 15 24.6954 0.7709
23 14 18 -12.9910 -0.6605
23 14 21 35.7383 -0.4787
23 14 24 -23.9311 0.1095
23 14 27 10.7868 0.8717
23 14 30 -20.5254 -0.0317
23 14 33 -11.4877 -0.5125
23 14 36 8.8095 0.0432
23 14 39 -7.3637 1.1926
23 14 42 6.1240 -0.8957
23 15 -40 -9.0784 0.3208
23 15 -37 0.1105 -0.0874
23 15 -34 12.0988 0.0976
23 15 -31 1.8965 -0.3536
23 15 -28 8.6287 0.1613
23 15 -25 0.0776 0.2164
23 15 -22 2.3829 -0.1421
23 15 -19 18.3887 -0.1926
23 15 -16 -13.0791 0.1662
23 15 -13 12.6864 0.4010
23 15 -10 9.5330 -0.0621
23 15 -7 14.7425 -0.3908
23 15 -4 2.9022 -0.1908
23 15 -1 3.1519 0.4329
23 15 2 17.4264 0.4779
23 15 5 2.4967 -0.2929
23 15 8 10.9267 -0.3398
23 15 11 -16.2026 0.3876
23 15 14 -7.2908 0.4862
23 15 17 -1.0725 -0.2068
23 15 20 -2.0418 -0.4467
23 15 23 -10.9395 -0.0640
23 15 26 4.2371 0.2942
23 15 29 2.9895 0.0110
23 15 32 -13.6140 -0.1058
23 15 35 11.8576 -0.1065
23 15 38 -3.3387 1.1209
23 15 41 -3.5729 1.2336
23 16 -38 -6.1340 -0.0701
23 16 -35 2.9142 -0.6383
23 16 -32 9.6888 -0.3674
23 16 -29 -9.2634 -0.0982
23 16 -26 0.7388 0.1249
23 16 -23 -1.3430 0.1358
23 16 -20 -1.3802 -0.3015
23 16 -17 8.8430 0.0858
23 16 -14 6.2125 0.5395
23 16 -11 -7.1593 -0.1338
23 16 -8 8.2983 -0.4596
23 16 -5 8.8369 -0.3153
23 16 -2 -17.4421 0.5624
23 16 1 21.6449 0.3990
23 16 4 -0.7221 -0.1954
23 16 7 7.2048 -0.3482
23 16 10 -7.4792 0.2005
23 16 13 4.5776 0.5024
23 16 16 -6.7500 -0.0549
23 16 19 29.8069 -0.6785
23 16 22 -4.9462 0.0118
23 16 25 -6.6124 0.5450
23 16 28 8.3392 -0.1732
23 16 31 10.2279 -0.8726
23 16 34 10.3012 0.0859
23 16 37 1.9798 -0.2803
23 16 40 -7.7735 1.1232
23 17 -39 -2.0072 0.5551
23 17 -36 -2.0585 0.3269
23 17 -33 4.2822 -0.1258
23 17 -30 -1.5110 0.6773
23 17 -27 12.3930 0.0248
23 17 -24 -20.5556 -0.2659
23 17 -21 8.3664 -0.0234
23 17 -18 -13.9037 0.2565
23 17 -15 8.3633 0.1470
23 17 -12 -15.3607 -0.4189
23 17 -9 -6.5982 -0.3205
23 17 -6 11.7370 0.1372
23 17 -3 30.6916 0.0904
23 17 0 -6.9518 -0.3363
23 17 3 24.9783 -0.2515
23 17 6 13.0012 0.4967
23 17 9 -3.3107 0.2034
23 17 12 18.1885 -0.0739
23 17 15 -14.1405 0.1268
23 17 18 -2.8037 -0.1256
23 17 21 30.1322 0.3072
23 17 24 -39.2148 0.2926
23 17 27 15.1330 -0.2254
23 17 30 -2.5459 -1.2716
23 17 33 -0.2302 0.7250
23 17 36 5.4376 -0.4832
23 17 39 -4.3282 -1.1412
23 18 -37 17.5978 -0.5859
23 18 -34 -3.0047 -0.2236
23 18 -31 -0.8018 -0.7649
23 18 -28 12.7266 -0.1568
23 18 -25 -7.6413 0.2877
23 18 -22 12.8208 -0.5361
23 18 -19 -1.7702 0.1117
23 18 -16 0.5842 -0.0790
23 18 -13 3.4776 -0.0133
23 18 -10 -3.5913 0.1087
23 18 -7 -22.0434 0.0392
23 18 -4 18.7706 0.0422
23 18 -1 -20.0742 -0.3515
23 18 2 9.3296 -0.0839
23 18 5 -25.5491 0.2287
23 18 8 1.7511 0.0599
23 18 11 5.9407 -0.5740
23 18 14 3.2290 0.1246
23 18 17 8.4435 0.0817
23 18 20 7.0335 -0.0876
23 18 23 1.6976 -0.2179
23 18 26 -1.6144 -0.1491
23 18 29 -4.0438 -0.0915
23 18 32 -6.2722 0.7403
23 18 35 -0.1803 0.4157
23 19 -35 -5.1210 -0.3336
23 19 -32 5.6628 0.3828
23 19 -29 -2.2274 -0.5541
23 19 -26 -0.5861 0.2945
23 19 -23 -8.8608 -0.4700
23 19 -20 3.4974 -0.4637
23 19 -17 -3.9386 -0.1081
23 19 -14 -18.0267 0.1540
23 19 -11 7.0684 0.1288
23 19 -8 -0.8602 -0.3341
23 19 -5 18.2230 -0.2696
23 19 -2 2.2006 0.1483
23 19 1 8.9457 0.3620
23 19 4 3.9880 -0.0946
23 19 7 4.5798 -0.3044
23 19 10 -1.9317 -0.5434
23 19 13 20.3244 0.4727
23 19 16 11.6969 0.8187
23 19 19 -5.5236 -0.2255
23 19 22 11.9879 0.1218
23 19 25 1.3269 0.7807
23 19 28 0.3010 1.1111
23 19 31 10.5380 -0.4446
23 19 34 -11.4983 0.2342
23 20 -33 -1.9425 -0.8469
23 20 -30 0.9664 0.1991
23 20 -27 -5.0943 -0.2871
23 20 -24 -24.6634 -1.1195
23 20 -21 -0.5025 -0.1785
23 20 -18 9.8393 -0.1049
23 20 -15 -22.0885 -0.0843
23 20 -12 0.2087 0.0849
23 20 -9 16.4956 -0.3717
23 20 -6 -4.0665 -0.3139
23 20 -3 10.0004 -0.3246
23 20 0 -18.3807 0.0169
23 20 3 13.6524 -0.0741
23 20 6 13.7486 0.1649
23 20 9 -11.6459 0.0003
23 20 12 12.9510 -0.2016
23 20 15 14.3565 0.0519
23 20 18 -14.1997 -0.1536
23 20 21 5.6381 0.0569
23 20 24 -9.8454 -0.2750
23 20 27 1.1001 0.9582
23 20 30 4.9913 -0.5704
23 20 33 -5.1798 0.1448
23 21 -31 1.9696 -0.3823
23 21 -28 -9.4441 0.2994
23 21 -25 -5.7801 -0.6645
23 21 -22 4.0915 -0.1274
23 21 -19 -1.9398 0.2735
23 21 -16 -4.7995 -0.0302
23 21 -13 -9.5869 0.0200
23 21 -10 8.4774 -0.0190
23 21 -7 -5.0713 0.0897
23 21 -4 9.1324 0.1048
23 21 -1 -15.7494 -0.2025
23 21 2 8.7558 -0.1043
23 21 5 2.6586 0.0481
23 21 8 24.8510 -0.1560
23 21 11 -3.3625 0.1505
23 21 14 3.1483 -0.2148
23 21 17 1.9383 0.2876
23 21 20 -6.3508 0.6562
23 21 23 -3.1614 -0.2175
23 21 26 -0.5342 0.0231
23 21 29 2.3782 0.3723
23 22 -29 -10.3368 -1.0394
23 22 -26 0.9634 -1.2105
23 22 -23 7.5905 0.2158
23 22 -20 7.3257 -0.7102
23 22 -17 -4.3198 -0.4582
23 22 -14 -1.3766 -0.3933
23 22 -11 12.2480 0.3240
23 22 -8 -7.7003 -0.3234
23 22 -5 2.5201 -0.1332
23 22 -2 9.8088 0.3902
23 22 1 11.6983 0.0810
23 22 4 11.7134 -0.2631
23 22 7 17.6699 0.0283
23 22 10 -1.1935 -0.0051
23 22 13 10.8136 0.5418
23 22 16 2.8155 -0.3347
23 22 19 -11.9256 -0.2922
23 22 22 4.9491 0.4585
23 22 25 -4.2874 -0.4273
23 22 28 -6.2451 -0.6367
23 23 -24 -4.0350 -0.2220
23 23 -21 2.8113 -0.0495
23 23 -18 -0.2736 -0.3316
23 23 -15 -24.9027 0.3961
23 23 -12 -2.2146 0.5458
23 23 -9 2.2955 -0.3655
23 23 -6 -23.2642 0.0179
23 23 -3 19.1087 -0.0908
23 23 0 3.1965 -0.5087
23 23 3 3.6008 0.2560
23 23 6 -0.7659 0.0980
23 23 9 -2.2935 -0.7569
23 23 12 2.6756 -0.3048
23 23 15 6.2056 0.8762
23 23 18 -7.4056 -0.6455
23 23 21 19.7706 0.4022
23 23 24 6.3124 0.0400
23 24 -22 2.6339 -1.6424
23 24 -19 -6.6528 0.5037
23 24 -16 -10.3710 -0.2687
23 24 -13 -14.1835 -0.0551
23 24 -10 4.8416 1.0123
23 24 -7 10.2555 0.4467
23 24 -4 -11.7662 -0.1830
23 24 -1 8.6418 -0.5876
23 24 2 12.0535 0.3062
23 24 5 -7.4041 0.0913
23 24 8 12.2946 -0.9331
23 24 11 -5.4392 0.0479
23 24 14 5.1509 1.2840
23 24 17 11.6425 -0.3989
23 24 20 -10.1327 -0.1634
23 24 23 1.3468 2.1280
23 25 -20 -16.7188 -0.6666
23 25 -17 -5.8974 -0.5611
23 25 -14 -5.9965 0.5343
23 25 -11 0.0606 0.2129
23 25 -8 3.3782 0.1800
23 25 -5 7.2663 -0.8349
23 25 -2 6.8907 -1.0502
23 25 1 1.7941 0.3877
23 25 4 2.4341 1.1166
23 25 7 1.9751 -0.8747
23 25 10 -9.3920 -0.6714
23 25 13 13.5113 1.3082
23 25 16 -4.6442 0.6992
23 25 19 0.0556 -1.0015
23 26 -15 -2.5139 0.0986
23 26 -12 12.1659 0.9995
23 26 -9 3.1409 -0.0139
23 26 -6 -0.7757 -0.4252
23 26 -3 4.3814 -0.5757
23 26 0 -12.6319 0.2474
23 26 3 -5.2301 0.7770
23 26 6 2.1892 -0.1249
23 26 9 0.7256 -0.7754
23 26 12 3.5877 -0.4739
23 26 15 1.3332 2.5309
23 27 -7 8.5995 -0.1983
23 27 -4 -10.8600 -0.0274
23 27 -1 3.2576 -0.8100
23 27 2 2.3573 0.0013
23 27 5 -3.4021 0.8580
23 27 8 13.6938 0.1017
24 1 -52 4.8953 0.2585
24 1 -49 2.9630 2.6985
24 1 -46 13.2326 0.6505
24 1 -43 3.9234 -2.4050
24 1 -40 3.2835 -0.7329
24 1 -37 7.7785 2.2865
24 1 -34 -0.1494 1.3225
24 1 -31 -5.5342 -1.6266
24 1 -28 0.5322 -2.0374
24 1 -25 -17.9078 0.6876
24 1 -22 6.8820 2.1392
24 1 -19 24.6744 -0.0745
24 1 -16 14.2334 -2.2558
24 1 -13 -0.6888 -0.8143
24 1 -10 2.6592 1.9068
24 1 -7 -14.4277 1.3623
24 1 -4 5.2438 -0.9107
24 1 -1 4.0872 -1.6160
24 1 2 11.5504 -0.1904
24 1 5 15.1594 1.4243
24 1 8 49.1462 1.0113
24 1 11 -66.9072 -1.4009
24 1 14 41.8352 -1.3298
24 1 17 11.5462 0.8411
24 1 20 -23.7888 1.3775
24 1 23 25.2623 -0.0256
24 1 26 -27.2630 -1.1679
24 1 29 -5.1579 -0.5757
24 1 32 28.9778 0.6283
24 1 35 -7.0359 1.1035
24 1 38 -0.9271 -0.5577
24 1 41 16.5567 -1.2027
24 1 44 -2.1074 0.2451
24 1 47 -7.3802 0.1355
24 1 50 -2.7555 1.1608
24 1 53 -9.7821 -1.0176
24 2 -50 6.1910 0.0361
24 2 -47 4.6230 1.2641
24 2 -44 -17.1787 -0.3708
24 2 -41 5.2526 -1.5067
24 2 -38 -4.8866 0.3518
24 2 -35 -9.1349 1.7117
24 2 -32 3.7104 -0.1166
24 2 -29 0.4434 -2.2237
24 2 -26 -6.1033 -0.6059
24 2 -23 16.5740 2.3815
24 2 -20 -4.3423 1.0926
24 2 -17 3.1168 -2.0260
24 2 -14 6.0238 -1.9563
24 2 -11 -15.3901 1.0651
24 2 -8 -70.3261 2.5859
24 2 -5 34.7735 -0.5290
24 2 -2 -2.2030 -3.1756
24 2 1 47.3953 0.0314
24 2 4 -27.9356 3.3760
24 2 7 87.8693 0.9811
24 2 10 15.6481 -2.7974
24 2 13 12.7708 -1.5894
24 2 16 71.9646 1.9497
24 2 19 -13.7749 2.5269
24 2 22 42.1256 -1.2986
24 2 25 -1.1397 -2.5377
24 2 28 -44.6287 0.5327
24 2 31 8.6810 2.3867
24 2 34 -9.3503 0.3817
24 2 37 -12.2373 -2.0219
24 2 40 -14.8588 -0.6142
24 2 43 12.4972 2.1905
24 2 46 -22.7877 1.6591
24 2 49 15.8021 -1.5913
24 2 52 -8.6090 -1.5792
24 3 -51 8.5986 0.3642
24 3 -48 8.5403 0.7261
24 3 -45 -9.0045 0.6195
24 3 -42 19.2908 -0.3356
24 3 -39 -0.0875 -0.9001
24 3 -36 -0.9764 -0.1209
24 3 -33 3.0287 0.9240
24 3 -30 -37.1563 0.1564
24 3 -27 -7.7361 -1.3804
24 3 -24 -2.8670 -0.8666
24 3 -21 -38.8806 1.2737
24 3 -18 10.0683 1.2025
24 3 -15 11.1545 -1.5205
24 3 -12 13.2470 -1.7340
24 3 -9 -39.2543 1.5014
24 3 -6 59.3868 2.2015
24 3 -3 -18.7172 -1.0139
24 3 0 51.7781 -2.4660
24 3 3 12.9438 0.2885
24 3 6 -12.3248 2.6621
24 3 9 36.9267 0.5720
24 3 12 8.4885 -2.5547
24 3 15 -37.6825 -1.1665
24 3 18 7.4250 2.6779
24 3 21 -46.6383 1.9352
24 3 24 11.6291 -1.8037
24 3 27 16.5688 -2.1779
24 3 30 -20.1235 1.2442
24 3 33 9.3296 2.2903
24 3 36 -3.8805 -0.2674
24 3 39 -14.3861 -2.3796
24 3 42 8.5891 -0.5619
24 3 45 2.9620 1.9441
24 3 48 -0.0660 1.2257
24 3 51 8.3974 -1.9408
24 4 -49 -2.3800 0.5351
24 4 -46 -6.3676 -1.0096
24 4 -43 14.8294 -1.0661
24 4 -40 -18.0451 0.6149
24 4 -37 -4.5528 0.7935
24 4 -34 -12.9649 -0.6758
24 4 -31 -7.8866 -0.9992
24 4 -28 -0.7952 -0.1783
24 4 -25 16.7471 0.9000
24 4 -22 13.7376 0.5178
24 4 -19 23.8038 -0.9875
24 4 -16 9.2896 -0.6004
24 4 -13 -14.2533 1.0132
24 4 -10 -25.9274 1.0604
24 4 -7 33.5144 -0.7670
24 4 -4 -40.7258 -1.1251
24 4 -1 14.4323 0.5726
24 4 2 49.2442 1.2996
24 4 5 3.5087 -0.1372
24 4 8 11.5820 -0.9835
24 4 11 36.9679 -0.1642
24 4 14 -11.5346 0.7597
24 4 17 48.1697 0.4234
24 4 20 -46.0237 -0.7970
24 4 23 -17.7749 -0.8768
24 4 26 42.0443 0.2111
24 4 29 -8.6729 0.4804
24 4 32 11.8533 -0.4532
24 4 35 12.8471 -0.7452
24 4 38 -19.0645 0.0863
24 4 41 1.8222 0.5448
24 4 44 -7.5342 -0.0339
24 4 47 -19.5828 -0.3830
24 4 50 -2.2871 0.6034
24 5 -50 2.6454 0.0886
24 5 -47 -1.6070 -0.4618
24 5 -44 7.0360 -1.6112
24 5 -41 -3.6193 -0.0250
24 5 -38 1.8326 1.3090
24 5 -35 -16.0360 0.2239
24 5 -32 3.0999 -1.4659
24 5 -29 -1.6022 -1.0499
24 5 -26 -38.7237 1.0856
24 5 -23 24.7620 1.2960
24 5 -20 -11.1361 -1.0820
24 5 -17 14.6882 -1.3448
24 5 -14 -36.0441 0.9139
24 5 -11 1.9915 1.4980
24 5 -8 18.0654 -0.1473
24 5 -5 40.8012 -1.6565
24 5 -2 -27.9039 -0.3210
24 5 1 33.6573 1.6345
24 5 4 29.9509 0.8412
24 5 7 11.7223 -1.7091
24 5 10 42.0366 -0.9942
24 5 13 -12.5571 1.2751
24 5 16 27.6592 1.0460
24 5 19 -11.8468 -0.9660
24 5 22 -50.0134 -1.3517
24 5 25 2.1186 0.4723
24 5 28 -10.9765 1.3563
24 5 31 -15.3467 -0.1172
24 5 34 -6.5734 -1.4219
24 5 37 2.5805 -0.2109
24 5 40 -3.5796 1.0471
24 5 43 16.2506 0.1848
24 5 46 -10.3387 -1.6864
24 5 49 2.0940 -0.7734
24 6 -48 5.5711 0.0335
24 6 -45 3.8612 0.1710
24 6 -42 -3.4336 -0.1657
24 6 -39 2.0009 -0.6474
24 6 -36 -17.3720 0.0185
24 6 -33 -8.0289 0.7001
24 6 -30 -8.9736 -0.0626
24 6 -27 6.3875 -0.5632
24 6 -24 12.8957 -0.5533
24 6 -21 24.9360 0.6754
24 6 -18 31.1689 0.8251
24 6 -15 -6.0702 -0.5768
24 6 -12 -5.8537 -0.9803
24 6 -9 0.0185 0.3755
24 6 -6 -13.7881 0.7637
24 6 -3 -12.7057 -0.2991
24 6 0 -31.0126 -0.8505
24 6 3 44.9291 -0.1245
24 6 6 -11.1883 0.4925
24 6 9 21.5306 0.4930
24 6 12 -19.7617 -0.2788
24 6 15 -23.8570 -0.5482
24 6 18 34.1032 0.2621
24 6 21 -22.8955 0.9254
24 6 24 4.9767 0.1601
24 6 27 10.8541 -0.4701
24 6 30 -18.1880 0.0382
24 6 33 -19.3654 0.5716
24 6 36 12.7643 0.5441
24 6 39 -0.8014 -0.1007
24 6 42 11.9054 -0.2946
24 6 45 17.8905 0.6461
24 6 48 0.1407 1.1023
24 7 -49 11.0144 0.1074
24 7 -46 7.4984 0.6347
24 7 -43 5.4495 0.1335
24 7 -40 -8.6732 -0.1164
24 7 -37 5.9953 0.3702
24 7 -34 -13.7203 -0.3963
24 7 -31 -6.3467 -0.2689
24 7 -28 -4.9392 0.2178
24 7 -25 4.6626 0.2097
24 7 -22 -19.8453 0.0010
24 7 -19 -19.0784 -0.3800
24 7 -16 -12.6424 0.1387
24 7 -13 -14.7910 0.4189
24 7 -10 8.1477 0.2233
24 7 -7 10.6149 -0.5282
24 7 -4 -8.8306 -0.1904
24 7 -1 46.9603 0.4544
24 7 2 5.6174 0.2382
24 7 5 23.6413 -0.2672
24 7 8 8.3488 -0.1364
24 7 11 17.9323 0.1864
24 7 14 -18.5361 0.1499
24 7 17 -7.1697 -0.1712
24 7 20 -8.3026 -0.0415
24 7 23 22.6646 0.1662
24 7 26 -7.9072 0.3255
24 7 29 5.0867 -0.1930
24 7 32 -14.9951 -0.0328
24 7 35 -22.8876 0.3136
24 7 38 -7.6593 0.1406
24 7 41 -21.2824 0.1322
24 7 44 8.8595 -0.0559
24 7 47 -13.2343 0.3375
24 8 -47 5.1088 -0.5010
24 8 -44 -12.1999 0.3754
24 8 -41 -8.1240 0.4996
24 8 -38 1.3140 0.7177
24 8 -35 -16.3397 0.1321
24 8 -32 10.4494 -0.4091
24 8 -29 3.5969 -0.0145
24 8 -26 -8.8637 0.2835
24 8 -23 52.4497 0.3209
24 8 -20 -23.9102 -0.5088
24 8 -17 13.8827 -0.1804
24 8 -14 0.8525 0.2760
24 8 -11 0.1162 0.1161
24 8 -8 4.2987 -0.0644
24 8 -5 -23.7687 -0.5782
24 8 -2 -19.0041 -0.2303
24 8 1 14.3675 0.5981
24 8 4 -2.8508 0.2413
24 8 7 -11.3037 -0.5290
24 8 10 -10.1918 -0.2238
24 8 13 27.8154 0.5441
24 8 16 -26.2111 0.4858
24 8 19 18.5334 -0.1934
24 8 22 3.2031 -0.5772
24 8 25 -1.0908 0.0981
24 8 28 8.1831 0.5782
24 8 31 -3.1554 0.0951
24 8 34 3.8589 -0.7754
24 8 37 29.1122 -0.3250
24 8 40 -11.9683 0.4055
24 8 43 3.7833 -0.0898
24 8 46 -2.7786 -1.1184
24 9 -45 -5.0388 -0.1291
24 9 -42 -2.6851 -0.9574
24 9 -39 -4.1533 0.4514
24 9 -36 -2.0736 0.4905
24 9 -33 -5.6520 -0.4811
24 9 -30 9.8387 -0.3815
24 9 -27 -15.0876 0.2544
24 9 -24 0.1329 0.5777
24 9 -21 -6.5689 0.1701
24 9 -18 -26.6709 -0.2527
24 9 -15 -10.0832 0.0806
24 9 -12 6.0207 0.6941
24 9 -9 -13.7514 0.0880
24 9 -6 -14.0671 -0.5013
24 9 -3 24.1635 -0.4130
24 9 0 -4.4554 0.5076
24 9 3 42.7804 0.3519
24 9 6 -20.5977 -0.4406
24 9 9 -24.8958 -0.4204
24 9 12 53.2388 0.1138
24 9 15 -23.2874 0.3346
24 9 18 9.5580 -0.1959
24 9 21 -9.1602 -0.5798
24 9 24 -7.9303 -0.1237
24 9 27 16.9114 0.1100
24 9 30 -2.7513 0.1070
24 9 33 -12.1040 -0.6147
24 9 36 15.5433 0.0936
24 9 39 8.8954 0.2378
24 9 42 -11.2753 -0.2085
24 9 45 -7.6611 -1.0467
24 10 -46 -12.0363 1.7438
24 10 -43 1.7543 0.3032
24 10 -40 -15.2509 0.0389
24 10 -37 14.2001 0.2300
24 10 -34 -19.4455 0.5819
24 10 -31 -5.6363 0.2729
24 10 -28 13.9685 -0.5170
24 10 -25 2.8745 -0.2175
24 10 -22 -0.7681 0.1558
24 10 -19 14.0878 0.3453
24 10 -16 -6.5549 -0.0172
24 10 -13 -8.2090 -0.4436
24 10 -10 1.5830 -0.5296
24 10 -7 -31.8313 0.0928
24 10 -4 -14.7964 0.2006
24 10 -1 12.2174 -0.2463
24 10 2 -28.6459 -0.5211
24 10 5 31.7158 -0.0891
24 10 8 -7.2014 0.3687
24 10 11 17.2691 0.1550
24 10 14 -3.8527 -0.2952
24 10 17 17.1667 -0.3374
24 10 20 1.8085 0.0169
24 10 23 19.4590 0.4146
24 10 26 -5.8177 0.1685
24 10 29 5.7330 -0.0359
24 10 32 -2.4794 -0.3678
24 10 35 -21.0724 0.3767
24 10 38 24.5974 0.3400
24 10 41 -1.6061 0.7151
24 10 44 3.0196 0.2046
24 11 -44 3.5084 -0.3908
24 11 -41 1.1305 0.5840
24 11 -38 6.4349 -0.6477
24 11 -35 -6.5148 -0.1123
24 11 -32 -1.5106 -0.0537
24 11 -29 -3.1651 0.2292
24 11 -26 -4.2876 -0.1644
24 11 -23 9.3369 -0.0771
24 11 -20 -19.3622 0.2715
24 11 -17 7.0525 0.0625
24 11 -14 -0.2942 -0.1486
24 11 -11 -20.3141 0.1342
24 11 -8 12.3099 0.2175
24 11 -5 -5.1096 -0.2335
24 11 -2 14.2646 -0.2929
24 11 1 6.0925 -0.0247
24 11 4 -4.4771 0.2339
24 11 7 3.6722 0.0842
24 11 10 -15.2443 -0.4155
24 11 13 -9.4161 -0.2894
24 11 16 1.2970 0.3745
24 11 19 -5.4611 0.1244
24 11 22 7.8752 -0.4320
24 11 25 11.2957 0.0102
24 11 28 -2.4893 0.3771
24 11 31 25.8593 0.0424
24 11 34 3.1414 -0.4217
24 11 37 -9.0872 -0.3787
24 11 40 -7.0979 0.3959
24 11 43 -8.0272 0.7911
24 12 -42 1.7271 0.9676
24 12 -39 -7.0444 0.4302
24 12 -36 1.7373 -0.1130
24 12 -33 -4.1361 0.2401
24 12 -30 17.3477 0.0691
24 12 -27 -10.6458 0.0304
24 12 -24 13.5598 -0.5380
24 12 -21 1.7327 -0.1130
24 12 -18 -2.1678 -0.2223
24 12 -15 5.3023 -0.0221
24 12 -12 -5.2229 -0.0032
24 12 -9 -36.4680 -0.4252
24 12 -6 24.6053 0.0514
24 12 -3 -29.9540 -0.0414
24 12 0 -1.0367 -0.3078
24 12 3 4.3764 -0.1566
24 12 6 -1.8929 0.0600
24 12 9 32.4467 0.1411
24 12 12 12.3036 -0.1903
24 12 15 -2.6759 0.1421
24 12 18 17.0747 0.0958
24 12 21 5.1832 -0.0674
24 12 24 27.7736 -0.0613
24 12 27 -9.0239 -0.3902
24 12 30 3.5918 -0.1901
24 12 33 1.1087 -0.0586
24 12 36 -6.0618 -0.2950
24 12 39 -2.7797 -0.6804
24 12 42 -17.3677 -0.8204
24 13 -43 6.4468 -0.7290
24 13 -40 3.9901 -1.0044
24 13 -37 1.7682 0.2353
24 13 -34 6.9267 0.0874
24 13 -31 -6.5025 -0.0503
24 13 -28 12.0198 -0.6021
24 13 -25 -14.0512 0.2501
24 13 -22 4.7477 0.3335
24 13 -19 -10.9917 0.0266
24 13 -16 -24.9557 -0.2635
24 13 -13 11.7069 -0.1115
24 13 -10 -21.5259 0.4158
24 13 -7 -14.0516 0.3126
24 13 -4 -7.4558 -0.2242
24 13 -1 19.9445 -0.6575
24 13 2 -14.4968 -0.1650
24 13 5 11.6046 0.1590
24 13 8 5.9298 0.2144
24 13 11 -6.1939 -0.6312
24 13 14 3.9621 -0.4062
24 13 17 4.3870 0.4293
24 13 20 -17.1556 0.4173
24 13 23 26.4903 -0.2926
24 13 26 -24.6183 -0.4371
24 13 29 -7.9594 0.3101
24 13 32 9.8059 0.5069
24 13 35 -5.2196 0.7254
24 13 38 10.6841 -0.4290
24 13 41 6.1848 -1.1083
24 14 -41 0.5800 1.0664
24 14 -38 5.8019 0.1864
24 14 -35 -0.6524 0.4992
24 14 -32 1.3049 -0.0099
24 14 -29 -8.9315 0.0008
24 14 -26 13.9639 -0.5176
24 14 -23 1.3664 0.0801
24 14 -20 -0.4554 -0.0744
24 14 -17 -9.0812 0.3460
24 14 -14 2.8972 -0.0409
24 14 -11 -17.5779 -0.2858
24 14 -8 9.8912 0.0340
24 14 -5 -44.4355 0.0650
24 14 -2 8.3729 0.1455
24 14 1 0.5922 -0.2962
24 14 4 -7.0196 -0.3231
24 14 7 1.6300 0.1135
24 14 10 6.9405 0.3356
24 14 13 20.7895 -0.3393
24 14 16 22.6667 -0.2161
24 14 19 6.1740 0.2538
24 14 22 15.8333 0.2214
24 14 25 19.6565 0.1925
24 14 28 -3.2133 0.2264
24 14 31 -9.9903 -0.1761
24 14 34 -2.3918 0.3666
24 14 37 -17.6066 0.6902
24 14 40 2.4876 0.3380
24 15 -39 -8.9779 -0.0121
24 15 -36 0.6069 -0.7299
24 15 -33 4.6909 0.2810
24 15 -30 -12.2288 0.1997
24 15 -27 -10.3485 0.0583
24 15 -24 -2.7888 -0.6313
24 15 -21 -16.5500 -0.0011
24 15 -18 -8.8944 0.2947
24 15 -15 -5.7516 0.1541
24 15 -12 -16.5660 -0.3565
24 15 -9 -9.1497 -0.3580
24 15 -6 18.6536 0.1430
24 15 -3 -17.0444 0.3445
24 15 0 41.6054 -0.3324
24 15 3 10.2151 -0.5542
24 15 6 2.2931 -0.0529
24 15 9 8.9147 0.7372
24 15 12 5.2587 -0.0012
24 15 15 -18.1653 -0.8087
24 15 18 28.7850 -0.0834
24 15 21 -29.5021 0.5547
24 15 24 0.2261 -0.0505
24 15 27 5.1959 -0.1715
24 15 30 -9.4969 -0.5764
24 15 33 -2.1782 0.5453
24 15 36 -2.5769 1.2617
24 15 39 -2.3253 0.2033
24 16 -37 -5.5636 1.1458
24 16 -34 -2.5795 0.0989
24 16 -31 -0.2953 -0.1529
24 16 -28 6.7979 -0.4492
24 16 -25 1.7817 0.5486
24 16 -22 8.0530 0.2983
24 16 -19 2.1184 -0.2452
24 16 -16 -8.4467 -0.7919
24 16 -13 2.5570 0.1047
24 16 -10 -25.1607 0.7822
24 16 -7 0.2308 0.1622
24 16 -4 -2.1763 -0.5046
24 16 -1 -1.1158 -0.3721
24 16 2 -19.5498 0.2790
24 16 5 3.0626 0.5321
24 16 8 9.4965 -0.0376
24 16 11 10.8070 -0.3396
24 16 14 -20.0301 -0.1491
24 16 17 17.1481 0.4373
24 16 20 1.1799 0.4135
24 16 23 2.4383 -0.5556
24 16 26 6.2002 -0.3357
24 16 29 3.2373 0.4435
24 16 32 12.2336 0.7278
24 16 35 7.2701 -0.4594
24 16 38 -8.1968 -1.0172
24 17 -35 -11.2658 -0.9818
24 17 -32 -1.7093 -0.3651
24 17 -29 -1.6299 -0.0114
24 17 -26 7.9687 -0.1171
24 17 -23 -8.6055 -0.2307
24 17 -20 -0.0181 -0.1923
24 17 -17 -19.0152 -0.0440
24 17 -14 15.2985 0.0095
24 17 -11 -14.6702 -0.0727
24 17 -8 -1.1831 0.2487
24 17 -5 18.1898 0.0882
24 17 -2 23.0735 -0.0433
24 17 1 4.5321 0.0270
24 17 4 5.0525 0.0166
24 17 7 1.9921 -0.2723
24 17 10 18.1451 -0.0057
24 17 13 -11.6330 -0.0142
24 17 16 -9.9861 -0.4456
24 17 19 15.8170 0.0144
24 17 22 -13.3135 -0.0637
24 17 25 -6.5178 -0.2053
24 17 28 -20.7585 -0.8415
24 17 31 -11.9615 -0.1896
24 17 34 4.9735 -0.8382
24 17 37 -11.1043 -1.2260
24 18 -33 -0.2238 1.3488
24 18 -30 9.0053 -0.0029
24 18 -27 8.5579 -0.3949
24 18 -24 -1.1778 -0.4246
24 18 -21 2.6435 0.4486
24 18 -18 -4.9878 0.3316
24 18 -15 -0.4617 -0.5088
24 18 -12 -1.8551 -0.7512
24 18 -9 -15.5874 0.3089
24 18 -6 11.8924 0.2188
24 18 -3 -14.3310 -0.2261
24 18 0 4.7800 -0.4375
24 18 3 -0.9456 -0.0761
24 18 6 -14.4182 0.0218
24 18 9 5.5433 0.3106
24 18 12 15.6061 0.0489
24 18 15 -17.5472 -0.5937
24 18 18 27.0015 -0.3960
24 18 21 -10.1242 0.2975
24 18 24 14.5094 0.3728
24 18 27 5.4091 0.1730
24 18 30 1.5725 0.0351
24 18 33 -5.1485 0.4819
24 19 -31 17.1468 0.5178
24 19 -28 -6.9513 -0.5094
24 19 -25 -0.8418 -0.1454
24 19 -22 -7.6517 -0.2859
24 19 -19 0.4327 -0.1047
24 19 -16 -2.2962 -0.6094
24 19 -13 0.7209 -0.0220
24 19 -10 -3.0425 0.3395
24 19 -7 8.8062 -0.0710
24 19 -4 -3.6396 -0.2121
24 19 -1 -5.2146 -0.2572
24 19 2 -0.3707 0.0447
24 19 5 13.0914 0.0036
24 19 8 -9.0644 -0.1881
24 19 11 3.0279 0.2286
24 19 14 -12.5564 0.1034
24 19 17 4.7555 0.3983
24 19 20 -7.3766 0.3005
24 19 23 8.0984 0.3920
24 19 26 -7.0423 0.6814
24 19 29 5.7815 -0.6715
24 19 32 -9.3502 0.4828
24 20 -29 1.2820 0.8528
24 20 -26 3.3782 -0.3336
24 20 -23 -1.5098 0.1704
24 20 -20 5.8827 0.2907
24 20 -17 5.6340 -0.6172
24 20 -14 4.9757 -0.6388
24 20 -11 -1.2469 -0.3717
24 20 -8 -3.5167 0.0896
24 20 -5 8.3289 0.3211
24 20 -2 -20.8791 -0.2391
24 20 1 -14.1017 -0.3134
24 20 4 6.6755 0.1034
24 20 7 -3.6782 0.1433
24 20 10 -7.2775 -0.0646
24 20 13 6.6200 -0.2879
24 20 16 -10.1753 -0.3652
24 20 19 8.5367 0.6150
24 20 22 -8.2926 -0.3897
24 20 25 -1.0533 0.5085
24 20 28 4.4129 -1.0069
24 20 31 2.6907 -0.4090
24 21 -27 -4.1355 0.1630
24 21 -24 -7.1089 -0.1378
24 21 -21 3.5563 0.6046
24 21 -18 -4.2773 -1.1801
24 21 -15 -5.2556 -1.0705
24 21 -12 0.9718 0.1689
24 21 -9 -19.8155 0.4129
24 21 -6 -1.7418 0.1132
24 21 -3 2.0005 -0.7035
24 21 0 -8.0294 -0.4048
24 21 3 4.7330 0.1956
24 21 6 -0.7289 0.9162
24 21 9 -13.4939 -0.3532
24 21 12 6.4103 -0.7604
24 21 15 -17.3707 -0.2549
24 21 18 9.3967 1.5567
24 21 21 11.5756 -0.5251
24 21 24 -7.1316 -0.2646
24 21 27 4.5837 0.4384
24 22 -25 -0.6862 0.3164
24 22 -22 3.2254 -0.1577
24 22 -19 5.1266 -0.4187
24 22 -16 -10.3624 -0.3352
24 22 -13 -1.6746 0.2989
24 22 -10 -10.8426 0.5054
24 22 -7 -9.6459 -0.0860
24 22 -4 -6.5047 0.1295
24 22 -1 4.3667 0.4005
24 22 2 -17.5595 -0.3550
24 22 5 -0.5720 -0.3853
24 22 8 -12.6864 0.1065
24 22 11 -0.2220 -0.1905
24 22 14 4.0613 -0.4370
24 22 17 5.7818 0.5696
24 22 20 7.7092 -0.1279
24 22 23 1.6048 -0.8550
24 22 26 -3.7480 0.1253
24 23 -23 6.5322 -1.5433
24 23 -20 4.3342 -0.3356
24 23 -17 -12.0410 -0.4112
24 23 -14 -4.1435 -0.2991
24 23 -11 -8.5015 -0.0549
24 23 -8 -7.8281 0.8156
24 23 -5 4.8218 0.7254
24 23 -2 3.5318 0.4923
24 23 1 3.8916 -0.9420
24 23 4 -7.4331 -0.2630
24 23 7 -6.8088 0.4281
24 23 10 1.3058 1.2436
24 23 13 4.3500 -0.9519
24 23 16 -4.2938 0.0988
24 23 19 -0.4136 1.4472
24 23 22 -4.9897 0.0617
24 24 -18 -3.6386 0.3445
24 24 -15 5.2497 -0.4037
24 24 -12 6.8065 0.4529
24 24 -9 -7.9242 0.7080
24 24 -6 16.1089 -0.4372
24 24 -3 -3.8845 -0.0720
24 24 0 -14.2239 -0.0241
24 24 3 -5.2541 -0.1677
24 24 6 -7.6883 -0.7056
24 24 9 -4.5720 0.2314
24 24 12 8.7125 -0.8618
24 24 15 -2.2318 0.0438
24 24 18 9.5986 0.1473
24 25 -16 -3.2011 -1.4063
24 25 -13 3.2097 1.6878
24 25 -10 2.9653 0.8710
24 25 -7 4.8495 0.1907
24 25 -4 -6.1213 0.2749
24 25 -1 1.2746 -0.6638
24 25 2 -8.7041 -0.4948
24 25 5 17.9800 0.0714
24 25 8 7.2627 0.3477
24 25 11 -2.8491 -0.0657
24 25 14 10.0967 0.9205
24 26 -8 -6.3409 0.9477
24 26 -5 -0.1636 -1.0077
24 26 -2 -5.2852 -1.0469
24 26 1 -3.7003 0.6091
24 26 4 6.5063 0.8998
24 26 7 -2.4679 -0.5971
25 1 -51 7.4155 -1.7746
25 1 -48 -11.5862 2.7174
25 1 -45 -2.4021 3.0029
25 1 -42 -17.8891 -2.3789
25 1 -39 -0.1883 -3.5391
25 1 -36 -3.5305 1.5841
25 1 -33 -11.0719 4.4294
25 1 -30 -8.9205 -0.4456
25 1 -27 33.8839 -4.9131
25 1 -24 -16.4194 -0.7812
25 1 -21 12.3552 5.0299
25 1 -18 28.4654 2.4977
25 1 -15 28.5723 -4.9699
25 1 -12 16.0695 -3.8064
25 1 -9 14.8476 4.1113
25 1 -6 -12.1246 4.1408
25 1 -3 47.9379 -3.0326
25 1 0 -66.3511 -4.6946
25 1 3 -64.6481 1.0098
25 1 6 23.1516 4.7664
25 1 9 -31.9465 0.0713
25 1 12 -24.0488 -4.9843
25 1 15 -5.1334 -1.5526
25 1 18 -21.9497 4.6026
25 1 21 19.1814 2.2823
25 1 24 -30.9026 -3.3201
25 1 27 -40.0535 -2.6894
25 1 30 19.5813 2.0700
25 1 33 15.0199 3.1764
25 1 36 -13.5686 -1.0334
25 1 39 24.3564 -2.9897
25 1 42 15.2929 0.2251
25 1 45 5.2251 2.9603
25 1 48 22.3802 0.4712
25 1 51 -5.9011 -2.8168
25 2 -49 11.8363 1.2394
25 2 -46 5.4995 -1.0955
25 2 -43 1.1204 -0.9241
25 2 -40 24.5587 0.0892
25 2 -37 2.1370 1.3162
25 2 -34 2.0346 0.5064
25 2 -31 -4.9309 -1.6693
25 2 -28 -3.5250 -1.3284
25 2 -25 -20.6047 1.2523
25 2 -22 -43.1612 2.1299
25 2 -19 -3.0852 -1.0686
25 2 -16 5.6866 -2.5923
25 2 -13 1.7803 0.4644
25 2 -10 7.2657 2.9394
25 2 -7 -8.1488 0.4782
25 2 -4 54.0125 -2.8360
25 2 -1 -19.2376 -1.7829
25 2 2 -33.8213 2.0877
25 2 5 0.3247 2.6745
25 2 8 24.8976 -1.3163
25 2 11 5.5535 -3.3084
25 2 14 11.7057 0.5986
25 2 17 -26.1727 3.3161
25 2 20 45.4984 0.2084
25 2 23 27.3647 -2.7156
25 2 26 -10.5523 -1.1308
25 2 29 27.3865 2.1158
25 2 32 -11.6991 1.7674
25 2 35 -5.9298 -1.3344
25 2 38 -17.3558 -1.9369
25 2 41 13.0345 1.1165
25 2 44 -7.1686 2.7779
25 2 47 2.4474 0.0010
25 2 50 -6.9061 -1.6616
25 3 -50 -7.8501 -1.2250
25 3 -47 -5.4065 -2.1152
25 3 -44 -13.6163 -1.3866
25 3 -41 9.7967 2.1159
25 3 -38 -11.9578 1.8838
25 3 -35 -2.8871 -1.4522
25 3 -32 -4.5077 -2.9854
25 3 -29 -17.0695 0.8835
25 3 -26 25.3822 3.8155
25 3 -23 -17.1077 0.1050
25 3 -20 33.1371 -3.7877
25 3 -17 25.8243 -1.3522
25 3 -14 18.6864 3.7583
25 3 -11 69.3975 2.4953
25 3 -8 -27.1843 -2.8542
25 3 -5 0.8753 -3.5719
25 3 -2 -48.2184 1.5234
25 3 1 -62.2257 4.4092
25 3 4 -23.4881 -0.5353
25 3 7 -5.9316 -4.4853
25 3 10 -10.2738 -0.7098
25 3 13 30.4705 3.8942
25 3 16 -26.9461 1.4214
25 3 19 6.0934 -3.1027
25 3 22 11.0632 -2.3181
25 3 25 7.8830 1.7920
25 3 28 2.6781 2.8306
25 3 31 26.8954 -0.7980
25 3 34 -0.9539 -3.0370
25 3 37 -13.8759 0.2113
25 3 40 6.0549 2.4151
25 3 43 -14.7806 0.0417
25 3 46 0.5169 -1.8753
25 3 49 2.8975 0.2552
25 4 -48 -6.2515 0.6834
25 4 -45 12.4174 -0.0406
25 4 -42 8.6718 -0.3174
25 4 -39 9.7952 0.2762
25 4 -36 6.7821 -0.4083
25 4 -33 4.2788 -0.0097
25 4 -30 3.6303 0.1546
25 4 -27 2.3683 -0.0110
25 4 -24 -14.9066 0.1857
25 4 -21 33.2430 -0.3672
25 4 -18 18.9839 -0.3599
25 4 -15 -22.4051 0.2608
25 4 -12 7.1765 0.5309
25 4 -9 -37.0453 -0.2024
25 4 -6 -8.1333 -1.1452
25 4 -3 -47.3496 -0.0280
25 4 0 -11.2743 0.9532
25 4 3 4.8660 0.0978
25 4 6 50.8003 -1.0542
25 4 9 -7.7397 -0.5448
25 4 12 -19.0550 0.8973
25 4 15 17.2148 0.7165
25 4 18 4.6297 -0.4555
25 4 21 -34.7067 -1.0451
25 4 24 17.3825 0.0239
25 4 27 8.4388 1.2175
25 4 30 -0.9244 0.5119
25 4 33 30.5548 -1.1916
25 4 36 -7.4743 -0.7452
25 4 39 13.9483 0.3569
25 4 42 6.6104 0.6478
25 4 45 -23.5235 -0.5723
25 4 48 3.8693 -1.2161
25 5 -49 7.8288 -0.2046
25 5 -46 4.2995 0.5177
25 5 -43 7.5498 1.2863
25 5 -40 0.6349 -0.2770
25 5 -37 -9.1317 -1.2597
25 5 -34 -2.8902 0.4853
25 5 -31 -9.3921 1.6059
25 5 -28 5.8088 -0.2253
25 5 -25 -4.0827 -1.7577
25 5 -22 27.4741 -0.5737
25 5 -19 17.9997 1.5824
25 5 -16 30.2260 1.2523
25 5 -13 -33.6966 -1.4399
25 5 -10 23.8847 -1.4304
25 5 -7 -28.2581 1.0405
25 5 -4 -16.4511 1.9207
25 5 -1 -38.3094 -0.4502
25 5 2 13.8050 -1.9564
25 5 5 13.1178 -0.0880
25 5 8 23.2223 1.8820
25 5 11 -57.2550 0.8229
25 5 14 35.4944 -1.6616
25 5 17 24.3057 -1.3910
25 5 20 11.2206 1.2162
25 5 23 3.5462 1.4221
25 5 26 10.5321 -0.6416
25 5 29 -10.1798 -1.4303
25 5 32 0.6297 0.1601
25 5 35 -2.6921 1.1235
25 5 38 -11.5817 0.2118
25 5 41 18.4035 -1.2528
25 5 44 -3.0710 -0.5320
25 5 47 -10.1371 -0.0831
25 6 -47 5.8853 -0.0927
25 6 -44 2.1492 0.3873
25 6 -41 2.7578 0.9899
25 6 -38 -9.2552 -0.6758
25 6 -35 3.2722 -0.8027
25 6 -32 12.7243 0.4944
25 6 -29 -16.8978 1.3024
25 6 -26 31.6874 -0.3329
25 6 -23 -0.7352 -1.6020
25 6 -20 4.3164 -0.0872
25 6 -17 21.3571 1.4498
25 6 -14 -25.9461 0.3582
25 6 -11 -25.2635 -1.3826
25 6 -8 8.8851 -0.8396
25 6 -5 -53.0892 1.1382
25 6 -2 14.5035 0.9918
25 6 1 10.1817 -0.9112
25 6 4 -7.0536 -1.3295
25 6 7 23.2256 0.4226
25 6 10 -18.7333 1.2857
25 6 13 12.5677 -0.1796
25 6 16 5.2309 -1.3256
25 6 19 17.2982 -0.1469
25 6 22 -7.4079 1.3531
25 6 25 3.0929 0.6573
25 6 28 -18.4068 -0.7841
25 6 31 9.1760 -0.4700
25 6 34 -13.8900 0.4614
25 6 37 -5.5124 0.6421
25 6 40 0.8682 0.0688
25 6 43 8.6156 -0.5670
25 6 46 -8.0496 0.5477
25 6 49 5.3173 1.3539
25 7 -48 15.6112 0.6620
25 7 -45 5.5481 0.0975
25 7 -42 -2.7387 -0.6633
25 7 -39 9.1301 0.3106
25 7 -36 3.0707 0.7366
25 7 -33 -1.9146 0.3514
25 7 -30 -5.3265 -1.0887
25 7 -27 -10.6511 -0.1821
25 7 -24 20.9381 0.7819
25 7 -21 -14.5614 0.4724
25 7 -18 -6.7311 -0.9354
25 7 -15 8.2711 -0.6282
25 7 -12 -6.1512 0.8429
25 7 -9 9.0192 1.3906
25 7 -6 3.0670 -0.1834
25 7 -3 -19.6429 -1.1470
25 7 0 37.6197 0.1643
25 7 3 -47.8599 1.5782
25 7 6 16.5670 0.1631
25 7 9 0.2719 -1.2128
25 7 12 9.6886 -0.3313
25 7 15 23.3915 1.0642
25 7 18 16.2013 0.6890
25 7 21 -10.1243 -0.8990
25 7 24 26.4891 -0.9894
25 7 27 2.6266 0.1417
25 7 30 8.5639 1.1218
25 7 33 12.0870 -0.0806
25 7 36 9.2036 -1.2330
25 7 39 -25.1282 -0.2774
25 7 42 -0.7258 0.7529
25 7 45 -13.9368 1.2673
25 7 48 10.4168 0.9481
25 8 -46 3.1489 0.0053
25 8 -43 -6.3410 0.1385
25 8 -40 -5.1353 -0.0804
25 8 -37 4.3387 0.6033
25 8 -34 -10.9160 -0.4427
25 8 -31 5.8148 -0.3261
25 8 -28 9.0516 0.1433
25 8 -25 -2.6966 0.5814
25 8 -22 13.4797 -0.5163
25 8 -19 -21.3604 -0.5442
25 8 -16 13.9788 0.4031
25 8 -13 -26.3489 0.5993
25 8 -10 16.8392 -0.0022
25 8 -7 -46.4994 -0.3738
25 8 -4 34.5560 -0.2115
25 8 -1 -11.8500 0.3264
25 8 2 27.2570 0.3010
25 8 5 -8.0579 -0.6092
25 8 8 40.1702 -0.4478
25 8 11 5.5797 0.3820
25 8 14 43.0180 0.3392
25 8 17 -15.1796 -0.4263
25 8 20 -2.6057 -0.1847
25 8 23 -21.0132 0.3842
25 8 26 3.6525 0.3508
25 8 29 -5.6579 -0.0436
25 8 32 -17.3955 -0.2701
25 8 35 10.9990 0.1534
25 8 38 1.7263 0.2727
25 8 41 -11.1261 -0.5366
25 8 44 -2.5959 -1.0291
25 8 47 -7.3880 -1.0247
25 9 -44 4.8791 1.6209
25 9 -41 9.5111 -0.3188
25 9 -38 0.6577 -0.9120
25 9 -35 6.8289 0.5406
25 9 -32 -1.7719 1.2582
25 9 -29 -7.3010 0.5070
25 9 -26 11.8990 -1.2511
25 9 -23 -20.0058 -0.5524
25 9 -20 5.1859 0.6934
25 9 -17 4.7149 1.4034
25 9 -14 -21.2002 -0.2892
25 9 -11 20.5014 -1.3437
25 9 -8 15.0964 0.1516
25 9 -5 -11.7543 1.5942
25 9 -2 10.6158 0.6542
25 9 1 -14.7930 -1.3506
25 9 4 -7.3507 -1.0292
25 9 7 -1.6441 1.0255
25 9 10 -11.4114 1.3579
25 9 13 16.6212 -0.3758
25 9 16 -3.5145 -1.7233
25 9 19 -0.6464 -0.2509
25 9 22 -14.3828 1.3779
25 9 25 7.8593 0.4366
25 9 28 7.8720 -1.0204
25 9 31 -6.0278 -1.2819
25 9 34 -3.6832 0.8872
25 9 37 6.9109 1.4458
25 9 40 -10.0649 -0.3140
25 9 43 4.2809 -0.8075
25 9 46 -1.7959 -0.9587
25 10 -45 -6.8080 0.4748
25 10 -42 1.3990 -0.8744
25 10 -39 -5.2235 -0.2024
25 10 -36 -0.0247 0.1442
25 10 -33 -10.3355 0.0215
25 10 -30 11.1289 -0.1274
25 10 -27 -17.6420 0.2637
25 10 -24 7.4813 -0.4534
25 10 -21 -4.0884 -0.2485
25 10 -18 14.7601 0.3888
25 10 -15 8.6230 0.3460
25 10 -12 -8.8178 0.0003
25 10 -9 17.3031 -0.4927
25 10 -6 7.3050 0.0121
25 10 -3 -29.3177 0.4589
25 10 0 13.6681 0.0169
25 10 3 12.4178 -0.5495
25 10 6 27.2012 -0.4187
25 10 9 20.9834 0.5107
25 10 12 -0.0426 0.5375
25 10 15 17.8844 -0.6442
25 10 18 -6.2324 -0.3356
25 10 21 1.0384 0.2390
25 10 24 -5.7913 0.5608
25 10 27 8.1332 0.0072
25 10 30 2.0837 -0.4513
25 10 33 -33.8997 -0.2617
25 10 36 -19.4471 0.6837
25 10 39 -16.6227 1.4621
25 10 42 4.1378 0.9770
25 10 45 9.6686 1.3473
25 11 -43 0.5610 0.7629
25 11 -40 6.2214 0.1525
25 11 -37 2.6093 0.7724
25 11 -34 3.7257 -0.0136
25 11 -31 7.7254 -0.0678
25 11 -28 -5.3727 -0.1015
25 11 -25 -11.8006 0.3709
25 11 -22 24.3382 -0.1203
25 11 -19 -12.7643 0.2878
25 11 -16 4.2939 -0.0504
25 11 -13 7.3704 -0.1935
25 11 -10 9.2919 0.2965
25 11 -7 -10.8148 0.3876
25 11 -4 29.3513 0.0976
25 11 -1 -41.3746 -0.2853
25 11 2 31.6880 -0.0626
25 11 5 -3.3027 0.2407
25 11 8 5.0286 0.2339
25 11 11 -33.5496 -0.0262
25 11 14 -3.5348 -0.1413
25 11 17 -32.0892 0.0658
25 11 20 9.3856 0.2541
25 11 23 -5.9918 0.1840
25 11 26 -8.2022 -0.2534
25 11 29 17.7083 0.0888
25 11 32 -1.2479 0.2749
25 11 35 -4.7825 -0.1675
25 11 38 16.3674 -0.3615
25 11 41 -20.4584 -0.1434
25 11 44 16.7943 -0.7235
25 12 -41 11.0117 -1.0221
25 12 -38 -11.0423 -0.4670
25 12 -35 3.3811 0.6755
25 12 -32 -21.6283 0.4376
25 12 -29 0.5434 -0.7266
25 12 -26 -6.7361 -0.6507
25 12 -23 1.2923 0.8310
25 12 -20 10.8166 0.6720
25 12 -17 8.9933 -0.5216
25 12 -14 13.1623 -0.7312
25 12 -11 17.6444 0.4111
25 12 -8 -16.3819 1.0221
25 12 -5 4.6700 -0.0450
25 12 -2 1.4738 -0.7964
25 12 1 0.1907 -0.0878
25 12 4 7.3068 0.8224
25 12 7 -5.8335 0.2756
25 12 10 -0.8432 -0.6727
25 12 13 19.2345 -0.4210
25 12 16 -10.5881 0.3652
25 12 19 0.7061 0.2762
25 12 22 6.6910 -0.4134
25 12 25 -8.5446 -0.8165
25 12 28 -10.0046 0.2475
25 12 31 7.7386 0.2805
25 12 34 -21.5627 -0.3973
25 12 37 15.6755 -1.2043
25 12 40 -6.7949 -0.1579
25 12 43 -0.1985 -0.7490
25 13 -39 -6.0405 0.2615
25 13 -36 7.5539 -0.0706
25 13 -33 1.9846 0.4636
25 13 -30 -1.5690 0.2364
25 13 -27 0.9897 -0.2509
25 13 -24 7.7469 -0.0376
25 13 -21 8.4816 0.4900
25 13 -18 5.5348 0.5723
25 13 -15 1.7853 -0.0414
25 13 -12 0.0963 -0.2992
25 13 -9 11.7292 0.1110
25 13 -6 -19.6199 0.4555
25 13 -3 1.4734 0.2298
25 13 0 37.5797 -0.3738
25 13 3 3.0095 -0.1806
25 13 6 -7.2951 0.1274
25 13 9 3.1065 0.1341
25 13 12 -3.3039 -0.2039
25 13 15 10.1618 -0.0002
25 13 18 -34.7419 0.0401
25 13 21 7.3682 -0.1737
25 13 24 -2.2587 -0.3017
25 13 27 -12.0355 0.2486
25 13 30 -5.5409 0.2823
25 13 33 -18.6002 0.0393
25 13 36 14.3033 -0.2148
25 13 39 12.1735 0.2172
25 14 -40 -2.9909 -0.3306
25 14 -37 -4.9868 -1.1381
25 14 -34 -0.2123 0.1374
25 14 -31 -23.7541 0.5185
25 14 -28 -8.4842 0.7204
25 14 -25 18.0866 -0.1529
25 14 -22 18.1962 -0.0358
25 14 -19 2.4476 0.4566
25 14 -16 16.2094 0.6006
25 14 -13 6.4953 -0.2710
25 14 -10 9.8606 -0.3053
25 14 -7 -11.9141 0.1148
25 14 -4 1.5682 0.4639
25 14 -1 -11.4916 -0.1017
25 14 2 1.7457 -0.8281
25 14 5 -17.5528 -0.1138
25 14 8 -21.8169 0.5335
25 14 11 2.3715 0.3447
25 14 14 4.7058 -0.3126
25 14 17 2.6095 -0.4459
25 14 20 0.9322 0.1066
25 14 23 19.3094 0.5973
25 14 26 16.9127 0.0440
25 14 29 16.1014 -0.2321
25 14 32 3.5357 0.2935
25 14 35 -7.4693 0.8930
25 14 38 9.7831 -0.0800
25 15 -38 -1.7625 -0.6482
25 15 -35 -2.7258 1.0332
25 15 -32 -4.0593 0.0370
25 15 -29 12.8201 -0.0254
25 15 -26 4.9461 0.0335
25 15 -23 16.2910 0.5510
25 15 -20 -8.1059 0.6842
25 15 -17 -3.0401 -0.3256
25 15 -14 4.4776 -0.4709
25 15 -11 0.8865 0.5167
25 15 -8 -2.4659 0.4238
25 15 -5 3.6154 -0.0738
25 15 -2 -6.0256 -0.2215
25 15 1 -1.3466 -0.0561
25 15 4 -0.8243 0.3440
25 15 7 6.6790 0.2111
25 15 10 -3.5364 -0.3061
25 15 13 -9.1526 -0.4588
25 15 16 5.1647 0.3039
25 15 19 -9.4122 0.4885
25 15 22 3.8222 -0.3029
25 15 25 8.5942 -0.5858
25 15 28 -9.5750 0.0014
25 15 31 11.9029 0.1667
25 15 34 -15.0449 0.4237
25 15 37 3.9581 -0.3086
25 16 -36 -2.3161 0.2001
25 16 -33 -10.7244 0.3619
25 16 -30 4.9892 0.1385
25 16 -27 17.7770 0.0482
25 16 -24 1.8739 0.5452
25 16 -21 7.6926 0.4795
25 16 -18 9.6582 0.0195
25 16 -15 16.8052 -0.4800
25 16 -12 -4.0737 0.2666
25 16 -9 0.3712 0.4765
25 16 -6 -10.2624 0.1182
25 16 -3 5.3230 -0.2204
25 16 0 4.1183 -0.2601
25 16 3 -38.2387 0.1485
25 16 6 -12.2900 0.2079
25 16 9 10.8268 0.1273
25 16 12 -30.1888 -0.5219
25 16 15 25.4715 0.1547
25 16 18 -16.7059 0.6767
25 16 21 20.4577 0.1592
25 16 24 1.4007 -0.5554
25 16 27 -3.8145 0.1369
25 16 30 16.2082 0.3885
25 16 33 7.5278 -0.3783
25 16 36 15.6792 -0.6812
25 17 -34 8.4406 -0.2572
25 17 -31 11.0411 0.3923
25 17 -28 9.2363 -0.0402
25 17 -25 14.4646 0.1796
25 17 -22 -12.6027 0.1851
25 17 -19 2.1620 0.2070
25 17 -16 -4.0959 0.1331
25 17 -13 -6.4621 -0.0920
25 17 -10 -5.4422 0.0509
25 17 -7 -10.0076 0.4195
25 17 -4 -4.4624 0.3283
25 17 -1 2.6280 -0.2570
25 17 2 -13.8052 -0.1916
25 17 5 0.5856 0.0108
25 17 8 11.5963 0.1513
25 17 11 19.1599 -0.1619
25 17 14 -3.0114 -0.5165
25 17 17 12.6716 0.0149
25 17 20 4.8479 0.5777
25 17 23 9.9491 -0.4872
25 17 26 -2.7334 -0.6258
25 17 29 -13.2023 0.3217
25 17 32 -6.4035 -0.6483
25 17 35 0.6707 -0.1031
25 18 -32 8.2386 0.7489
25 18 -29 -3.4546 -0.4563
25 18 -26 -2.4532 -0.1393
25 18 -23 18.4726 0.1008
25 18 -20 -5.7700 0.3828
25 18 -17 20.0502 0.3400
25 18 -14 9.5294 -0.3411
25 18 -11 3.9290 -0.0133
25 18 -8 -1.5158 0.3701
25 18 -5 4.5223 0.5028
25 18 -2 -8.4791 0.2640
25 18 1 6.9884 -0.0245
25 18 4 -6.4048 -0.4387
25 18 7 -3.3049 -0.2376
25 18 10 -1.8051 0.4932
25 18 13 -1.2514 -0.0340
25 18 16 2.0478 -0.3508
25 18 19 -1.9119 0.2251
25 18 22 -10.3496 0.8150
25 18 25 6.9478 -0.0160
25 18 28 -16.9645 0.0984
25 18 31 7.1614 -0.0870
25 19 -30 -6.1966 -0.1648
25 19 -27 1.9132 0.7177
25 19 -24 -3.8395 0.6961
25 19 -21 -1.6782 0.2085
25 19 -18 2.0005 -0.2398
25 19 -15 3.4789 -0.1089
25 19 -12 -16.1799 0.2173
25 19 -9 3.0466 -0.4127
25 19 -6 -13.8287 0.3243
25 19 -3 -1.5249 0.2500
25 19 0 -4.8453 -0.0080
25 19 3 3.5449 -0.0745
25 19 6 11.7388 -0.0782
25 19 9 9.9857 -0.2381
25 19 12 -1.6727 0.3204
25 19 15 3.3731 -0.5432
25 19 18 -2.9895 -0.2246
25 19 21 0.1075 -0.0614
25 19 24 4.0564 0.0774
25 19 27 1.3070 -0.1843
25 19 30 8.4735 0.1437
25 20 -28 -4.2773 0.9666
25 20 -25 3.7861 -0.3381
25 20 -22 -6.4406 -0.1488
25 20 -19 12.5508 -0.1691
25 20 -16 5.5753 -0.7695
25 20 -13 -0.2669 -0.0951
25 20 -10 6.1479 -0.3034
25 20 -7 -0.4087 0.4282
25 20 -4 7.9672 -0.3114
25 20 -1 2.8437 -0.2737
25 20 2 8.6599 0.2384
25 20 5 10.8953 0.2350
25 20 8 -2.4717 -0.2838
25 20 11 8.0729 -0.4874
25 20 14 -23.1838 0.2368
25 20 17 16.1355 0.4186
25 20 20 -7.3636 0.1744
25 20 23 -16.2997 0.1836
25 20 26 6.7089 -0.3680
25 20 29 -0.0479 0.1478
25 21 -26 -2.1247 1.3251
25 21 -23 15.9619 0.5318
25 21 -20 -6.6862 0.6708
25 21 -17 4.3137 -0.5109
25 21 -14 -4.2243 -0.6568
25 21 -11 -16.6346 0.0195
25 21 -8 -5.4641 0.6488
25 21 -5 7.2602 -0.1353
25 21 -2 -13.6079 -0.3244
25 21 1 2.3320 0.3091
25 21 4 -9.4093 0.0406
25 21 7 8.6262 0.4257
25 21 10 5.9217 -0.4788
25 21 13 -5.3107 -0.6159
25 21 16 5.2506 1.1829
25 21 19 -1.5512 -0.4727
25 21 22 -10.1558 -0.7747
25 21 25 8.3800 -0.4934
25 22 -21 -4.9629 -0.3740
25 22 -18 -7.9001 -0.3305
25 22 -15 5.4837 -0.4446
25 22 -12 -10.1467 -0.6838
25 22 -9 0.4661 -0.2600
25 22 -6 15.9627 -0.0610
25 22 -3 2.9992 0.4149
25 22 0 11.9887 0.5249
25 22 3 -2.1423 -0.3149
25 22 6 7.9923 0.1728
25 22 9 3.1594 -0.0465
25 22 12 -2.5851 -0.7914
25 22 15 -2.8134 0.5681
25 22 18 9.5840 -0.4611
25 22 21 -0.9696 -1.2588
25 23 -19 -0.4771 1.4777
25 23 -16 3.4291 -1.2505
25 23 -13 -1.0493 -0.7428
25 23 -10 -3.1287 -1.1941
25 23 -7 10.6425 -0.1680
25 23 -4 -15.6775 1.1777
25 23 -1 -0.8146 0.3717
25 23 2 0.2922 -1.5168
25 23 5 -4.2973 0.1404
25 23 8 -0.1363 0.5215
25 23 11 13.4124 -0.2804
25 23 14 -5.3437 0.3874
25 23 17 11.1787 0.6030
25 23 20 -3.8466 0.6677
25 24 -14 3.6768 -1.4077
25 24 -11 -6.0060 -0.4847
25 24 -8 7.2162 0.4819
25 24 -5 -2.6826 0.0790
25 24 -2 -3.1925 0.1136
25 24 1 5.2667 -0.1617
25 24 4 6.2626 0.1048
25 24 7 0.0182 0.5265
25 24 10 -8.3111 0.6039
25 24 13 -1.2914 -1.8061
25 24 16 -0.9073 1.0918
25 25 -9 -1.9974 -1.3988
25 25 -6 3.9137 0.0251
25 25 -3 -4.1487 1.3026
25 25 0 2.6083 0.0226
25 25 3 0.4744 -1.5244
25 25 6 6.3552 -0.3013
25 25 9 -7.6247 1.8343
26 1 -50 9.9084 0.2359
26 1 -47 -8.8174 -3.7694
26 1 -44 4.1175 -0.7451
26 1 -41 -0.7236 3.3480
26 1 -38 2.7741 1.6508
26 1 -35 -7.8048 -3.2903
26 1 -32 -2.9144 -2.6963
26 1 -29 4.3161 2.6074
26 1 -26 -18.1789 3.8092
26 1 -23 -50.3727 -1.6795
26 1 -20 -7.0243 -4.4232
26 1 -17 -0.1070 0.3109
26 1 -14 56.8761 4.5341
26 1 -11 5.4516 1.3543
26 1 -8 40.5603 -3.9775
26 1 -5 20.9736 -2.3492
26 1 -2 33.2707 2.9985
26 1 1 -93.6229 3.3804
26 1 4 39.9900 -1.5131
26 1 7 -77.4675 -3.9188
26 1 10 95.8681 0.2513
26 1 13 -71.3801 3.5679
26 1 16 1.8240 0.8824
26 1 19 33.1783 -3.0722
26 1 22 -12.3994 -1.6793
26 1 25 -38.0242 2.0459
26 1 28 -3.6708 1.9157
26 1 31 -27.9011 -1.0828
26 1 34 12.8756 -1.9064
26 1 37 2.3918 0.2132
26 1 40 -4.6041 2.0788
26 1 43 10.9460 0.0434
26 1 46 4.2782 -0.6610
26 1 49 -2.6575 -1.3737
26 2 -48 1.4894 -0.6537
26 2 -45 -0.9040 -0.6102
26 2 -42 -2.2379 1.3875
26 2 -39 12.8157 1.0623
26 2 -36 -2.7147 -1.1452
26 2 -33 7.7523 -1.5779
26 2 -30 32.5642 0.9766
26 2 -27 -15.9946 2.7183
26 2 -24 0.3205 -0.2985
26 2 -21 -32.1610 -3.0926
26 2 -18 14.4287 -0.7113
26 2 -15 1.9293 3.3835
26 2 -12 2.0282 1.8664
26 2 -9 -52.4885 -3.0353
26 2 -6 -13.2538 -2.6674
26 2 -3 6.0892 2.3519
26 2 0 -27.3548 3.8692
26 2 3 11.5686 -0.8303
26 2 6 24.8397 -4.2460
26 2 9 -2.2530 -0.1857
26 2 12 62.4061 4.0561
26 2 15 -20.4196 1.6964
26 2 18 44.1697 -3.5718
26 2 21 28.4040 -2.3143
26 2 24 -2.1802 2.5768
26 2 27 9.8541 2.9820
26 2 30 17.2235 -1.3813
26 2 33 -8.5545 -2.9436
26 2 36 0.4162 0.2533
26 2 39 -14.2703 3.0632
26 2 42 -17.8565 1.0157
26 2 45 15.9130 -2.5226
26 2 48 7.4248 -0.4081
26 3 -49 -2.6437 -0.3244
26 3 -46 8.7904 1.2797
26 3 -43 7.7704 -0.1444
26 3 -40 -0.5261 -0.8461
26 3 -37 7.2251 -0.2993
26 3 -34 4.1065 0.9316
26 3 -31 -13.8117 0.4690
26 3 -28 -14.7960 -0.9703
26 3 -25 -39.7474 -0.7609
26 3 -22 -21.8434 0.5393
26 3 -19 23.0588 0.6445
26 3 -16 -32.9573 -0.3579
26 3 -13 30.0299 -0.7159
26 3 -10 31.4065 0.4795
26 3 -7 11.8344 0.7771
26 3 -4 69.3053 -0.1192
26 3 -1 -3.2983 -0.2960
26 3 2 32.9514 -0.0386
26 3 5 13.6673 0.3536
26 3 8 -12.7628 0.3294
26 3 11 11.1553 -0.1261
26 3 14 -2.6277 0.2680
26 3 17 -6.8357 0.0835
26 3 20 -21.4411 -0.1986
26 3 23 -10.2765 -0.3570
26 3 26 -4.3187 0.2467
26 3 29 0.1082 0.1142
26 3 32 -2.7382 -0.4954
26 3 35 -10.2143 -0.5102
26 3 38 -6.6097 -0.2124
26 3 41 -4.7994 0.2604
26 3 44 -6.6739 -0.8023
26 3 47 2.6447 -0.6562
26 3 50 2.9149 0.2707
26 4 -47 -1.8412 -0.3593
26 4 -44 9.3052 1.4437
26 4 -41 -12.0110 0.1800
26 4 -38 13.2251 -1.1090
26 4 -35 6.1612 -0.2704
26 4 -32 -0.3976 1.6321
26 4 -29 9.1176 0.9053
26 4 -26 -6.1362 -1.3378
26 4 -23 1.8926 -1.0786
26 4 -20 54.1929 1.0077
26 4 -17 -21.3016 1.7120
26 4 -14 5.4102 -0.7367
26 4 -11 1.8020 -1.8673
26 4 -8 -4.6799 0.3240
26 4 -5 -14.6115 2.1932
26 4 -2 0.5673 0.3942
26 4 1 -36.6491 -2.1661
26 4 4 49.5095 -0.9070
26 4 7 -57.9496 1.8418
26 4 10 29.3947 1.4204
26 4 13 -3.3448 -1.3580
26 4 16 25.8091 -1.8244
26 4 19 1.3900 0.3028
26 4 22 -7.7292 1.6793
26 4 25 -20.0163 -0.0190
26 4 28 3.7992 -1.8034
26 4 31 5.9696 -0.8272
26 4 34 -1.3463 1.2453
26 4 37 1.8859 0.8403
26 4 40 18.4696 -1.2558
26 4 43 -8.0805 -1.3610
26 4 46 0.8123 0.3408
26 4 49 -1.7354 0.6797
26 5 -48 16.6130 0.2447
26 5 -45 -1.9163 -0.3768
26 5 -42 -2.8396 0.4957
26 5 -39 11.5745 0.2299
26 5 -36 -8.3547 -0.8116
26 5 -33 1.3454 -0.5856
26 5 -30 -24.9576 0.8279
26 5 -27 -33.3090 1.0719
26 5 -24 -2.5888 -0.6788
26 5 -21 -16.5919 -1.2787
26 5 -18 -7.0134 0.3504
26 5 -15 13.0626 1.4918
26 5 -12 0.4373 0.0957
26 5 -9 31.4824 -1.3322
26 5 -6 48.2713 -0.0868
26 5 -3 23.4456 1.3046
26 5 0 30.2723 0.6188
26 5 3 -25.7710 -1.0139
26 5 6 45.6393 -1.1474
26 5 9 -44.5874 0.5485
26 5 12 36.9481 1.3841
26 5 15 -21.6443 -0.2823
26 5 18 -3.9238 -1.6203
26 5 21 3.1078 0.0722
26 5 24 -19.0515 1.1743
26 5 27 -11.8133 0.4812
26 5 30 10.2442 -0.8494
26 5 33 -18.5767 -0.6602
26 5 36 -11.8568 0.6210
26 5 39 11.6501 1.2778
26 5 42 2.8720 0.2627
26 5 45 11.0932 -0.9678
26 5 48 12.7166 0.6321
26 6 -46 -3.1123 1.3767
26 6 -43 4.9991 -0.0481
26 6 -40 -5.1450 0.2063
26 6 -37 3.4236 0.5941
26 6 -34 -13.2547 0.0845
26 6 -31 -9.5041 -0.4266
26 6 -28 9.7131 0.3348
26 6 -25 11.1064 0.6664
26 6 -22 13.3351 -0.1810
26 6 -19 19.4870 -0.5846
26 6 -16 17.8283 -0.4215
26 6 -13 44.8290 0.7823
26 6 -10 -20.3365 0.8718
26 6 -7 20.9496 -0.6147
26 6 -4 -17.2579 -1.2236
26 6 -1 -9.8205 0.3926
26 6 2 -47.3795 1.2441
26 6 5 25.4847 -0.2345
26 6 8 -11.4576 -1.0099
26 6 11 2.8143 -0.0057
26 6 14 -3.5211 0.9795
26 6 17 -2.2326 0.5830
26 6 20 13.2207 -0.3926
26 6 23 13.2412 -0.7767
26 6 26 -12.2343 0.4456
26 6 29 6.0474 1.1662
26 6 32 12.0246 -0.0612
26 6 35 -13.7434 -1.0887
26 6 38 -11.1887 -0.3612
26 6 41 11.4135 0.5484
26 6 44 -3.6000 0.6118
26 6 47 6.9232 -0.2331
26 7 -44 9.6343 -0.0539
26 7 -41 -15.6475 -0.3858
26 7 -38 11.4821 0.0140
26 7 -35 -7.7413 -0.3269
26 7 -32 -16.7595 0.6021
26 7 -29 3.0347 0.4017
26 7 -26 -14.0670 -0.8207
26 7 -23 -8.4454 -0.4328
26 7 -20 6.7565 0.5459
26 7 -17 -8.5910 0.7704
26 7 -14 22.2720 -0.1705
26 7 -11 18.4608 -0.8863
26 7 -8 13.1656 0.3587
26 7 -5 27.0581 1.1661
26 7 -2 38.8461 0.0566
26 7 1 -29.6289 -0.6336
26 7 4 10.7436 -0.2988
26 7 7 -9.1436 0.7152
26 7 10 19.1078 0.4693
26 7 13 -8.7022 -0.5081
26 7 16 -3.5724 -0.4214
26 7 19 -15.9625 0.1283
26 7 22 -4.2232 0.3106
26 7 25 11.3081 -0.4910
26 7 28 -7.3059 -0.5204
26 7 31 18.7363 0.1049
26 7 34 15.8877 0.4704
26 7 37 -9.6350 -0.4860
26 7 40 2.5146 -1.0196
26 7 43 -14.3557 0.3206
26 7 46 -5.2904 0.5316
26 8 -45 -4.3467 0.6934
26 8 -42 -7.3337 0.0443
26 8 -39 0.4034 -0.1897
26 8 -36 -0.0964 -0.7100
26 8 -33 3.5336 0.0669
26 8 -30 -9.3749 0.9064
26 8 -27 18.3296 -0.3396
26 8 -24 18.3876 -0.8316
26 8 -21 0.6584 0.1047
26 8 -18 35.2646 1.1231
26 8 -15 15.0665 0.1805
26 8 -12 7.8518 -1.0761
26 8 -9 18.7786 -0.3865
26 8 -6 -22.7136 1.1864
26 8 -3 -13.8629 0.7286
26 8 0 -20.3428 -0.7577
26 8 3 -22.5868 -1.1197
26 8 6 18.0256 0.5068
26 8 9 -1.3505 1.0907
26 8 12 10.9003 0.2061
26 8 15 6.0986 -0.9730
26 8 18 0.5288 -0.2961
26 8 21 -1.4325 1.1455
26 8 24 3.4314 0.5540
26 8 27 3.7162 -0.8805
26 8 30 -15.6041 -0.9373
26 8 33 5.6302 0.5708
26 8 36 -0.0298 0.7178
26 8 39 5.6318 -0.4380
26 8 42 5.8919 -1.4106
26 8 45 -5.6281 -1.4361
26 9 -43 10.1151 -0.1399
26 9 -40 -7.5528 0.0009
26 9 -37 -5.7285 -0.9485
26 9 -34 4.2847 -0.3515
26 9 -31 -1.2724 0.3902
26 9 -28 3.1454 0.3710
26 9 -25 17.0954 -0.6214
26 9 -22 -13.6648 -0.4909
26 9 -19 28.9998 0.7019
26 9 -16 -12.9639 0.4938
26 9 -13 12.3789 -0.1699
26 9 -10 -12.3095 -0.5242
26 9 -7 28.9528 0.2751
26 9 -4 -10.0154 0.9816
26 9 -1 6.8486 0.0327
26 9 2 18.0910 -1.0353
26 9 5 11.4687 0.0359
26 9 8 0.1274 0.9761
26 9 11 -16.0829 0.2479
26 9 14 -0.2313 -0.9020
26 9 17 9.0253 -0.1733
26 9 20 -4.1926 0.5444
26 9 23 -5.8479 0.4345
26 9 26 13.0773 -0.6257
26 9 29 1.2533 -0.6496
26 9 32 -9.2223 0.7138
26 9 35 6.9890 0.9582
26 9 38 -0.6804 0.4262
26 9 41 11.0689 -0.8778
26 9 44 5.5026 0.0927
26 10 -41 -10.3032 -0.0225
26 10 -38 -3.9038 -0.0213
26 10 -35 -1.5583 0.5134
26 10 -32 -9.8844 -0.6719
26 10 -29 22.3424 -1.0824
26 10 -26 -14.1143 0.5865
26 10 -23 7.4491 0.5894
26 10 -20 24.7171 -0.2632
26 10 -17 -3.8868 -0.8125
26 10 -14 14.1849 -0.3064
26 10 -11 3.2364 0.8792
26 10 -8 -2.5838 0.7076
26 10 -5 13.7601 -0.4736
26 10 -2 -41.9560 -0.9179
26 10 1 -15.5819 0.3251
26 10 4 1.7259 0.8017
26 10 7 6.3631 0.0114
26 10 10 -22.6600 -0.5182
26 10 13 3.3356 -0.2373
26 10 16 9.0347 0.4797
26 10 19 24.4783 0.6175
26 10 22 -0.5185 -0.0564
26 10 25 7.4577 -0.4750
26 10 28 11.6733 -0.0689
26 10 31 0.6022 0.7071
26 10 34 3.8867 0.5690
26 10 37 -10.9550 -0.0777
26 10 40 -16.0681 0.5083
26 10 43 10.8368 1.9873
26 11 -42 -0.5349 -0.5665
26 11 -39 0.0480 -0.5303
26 11 -36 4.7313 0.1205
26 11 -33 10.6076 -0.4633
26 11 -30 8.9817 0.3701
26 11 -27 0.8259 0.2518
26 11 -24 -10.6542 -0.2455
26 11 -21 20.5607 -0.5783
26 11 -18 8.1050 -0.0161
26 11 -15 -9.4465 0.4517
26 11 -12 1.7007 0.4628
26 11 -9 2.2461 -0.0666
26 11 -6 -7.5123 -0.4532
26 11 -3 0.0476 0.3675
26 11 0 4.6221 0.8707
26 11 3 3.8276 0.0476
26 11 6 17.6452 -0.7714
26 11 9 -7.3801 -0.0084
26 11 12 -0.3539 0.8249
26 11 15 -0.8496 0.5589
26 11 18 0.9391 -0.3727
26 11 21 -12.0363 -0.4588
26 11 24 -19.3621 0.2056
26 11 27 17.3933 0.6925
26 11 30 1.9517 -0.0301
26 11 33 6.8983 -0.8521
26 11 36 22.6211 -0.4414
26 11 39 -14.9630 0.3170
26 11 42 2.2236 -0.2094
26 12 -40 -6.4191 -0.8308
26 12 -37 -0.1606 -0.4635
26 12 -34 16.3640 -0.0776
26 12 -31 -6.8652 0.3871
26 12 -28 -10.6552 -0.0415
26 12 -25 14.1276 -0.3630
26 12 -22 -5.6140 0.1914
26 12 -19 6.4697 0.4101
26 12 -16 -14.0249 0.2635
26 12 -13 15.6707 -0.2617
26 12 -10 -4.4076 -0.6529
26 12 -7 2.9997 0.2811
26 12 -4 -10.3537 0.5447
26 12 -1 12.2970 -0.2277
26 12 2 0.2286 -0.7096
26 12 5 -6.5465 -0.0891
26 12 8 -6.8950 0.2654
26 12 11 29.6635 0.3148
26 12 14 0.5107 -0.2814
26 12 17 15.2849 -0.6441
26 12 20 7.1445 0.1345
26 12 23 7.5359 0.5751
26 12 26 10.4551 -0.0053
26 12 29 2.0373 -0.0907
26 12 32 0.9647 -0.1924
26 12 35 16.2973 -0.2873
26 12 38 -12.3262 0.0676
26 12 41 -3.6810 -1.8949
26 13 -38 9.0023 0.6407
26 13 -35 0.8210 -0.3134
26 13 -32 -2.4327 0.3299
26 13 -29 -2.1744 0.0503
26 13 -26 -8.2468 0.6666
26 13 -23 10.3780 -0.0465
26 13 -20 -12.9392 -0.1386
26 13 -17 -4.0133 0.0552
26 13 -14 3.9139 -0.2246
26 13 -11 -0.6936 -0.1824
26 13 -8 -3.7738 -0.0111
26 13 -5 0.7041 0.1150
26 13 -2 -8.2360 0.4465
26 13 1 9.0242 0.0902
26 13 4 18.6864 -0.1804
26 13 7 -16.1714 -0.0082
26 13 10 10.5984 0.0745
26 13 13 28.4442 0.0384
26 13 16 -10.2191 -0.6134
26 13 19 0.2530 0.3298
26 13 22 -0.5737 0.7618
26 13 25 -2.5392 0.0706
26 13 28 2.7703 -0.0285
26 13 31 -20.0082 0.7075
26 13 34 -4.9999 0.4235
26 13 37 -7.9994 -0.0345
26 13 40 3.6112 0.1634
26 14 -36 1.0118 -0.2906
26 14 -33 -4.2834 -0.0329
26 14 -30 -7.8038 0.1316
26 14 -27 -0.8527 0.2167
26 14 -24 -10.4279 -0.3199
26 14 -21 6.8924 0.2857
26 14 -18 -14.5123 0.1137
26 14 -15 2.1051 -0.2767
26 14 -12 -5.1335 -0.3141
26 14 -9 13.1409 0.0250
26 14 -6 -15.8406 -0.0350
26 14 -3 16.6127 0.0264
26 14 0 -6.8260 -0.0354
26 14 3 17.3737 0.1832
26 14 6 -1.4389 -0.1028
26 14 9 -6.9831 -0.3261
26 14 12 11.2314 0.2433
26 14 15 10.2948 0.2174
26 14 18 -16.7533 -0.2283
26 14 21 22.3747 -0.1146
26 14 24 -13.8619 0.2767
26 14 27 23.6197 0.2340
26 14 30 0.7157 0.2873
26 14 33 -16.1497 0.3020
26 14 36 1.4312 -0.2085
26 15 -34 -13.9009 0.6114
26 15 -31 -1.4457 -0.3288
26 15 -28 5.0495 0.5631
26 15 -25 -5.9965 -0.3470
26 15 -22 -8.6617 0.4467
26 15 -19 15.3147 -0.1356
26 15 -16 -9.6215 -0.5150
26 15 -13 4.5156 -0.0545
26 15 -10 5.6467 0.2894
26 15 -7 2.6355 -0.1247
26 15 -4 6.2963 -0.3711
26 15 -1 -8.2032 -0.1089
26 15 2 4.3256 0.8825
26 15 5 0.3393 0.5524
26 15 8 17.0145 -0.4540
26 15 11 7.5807 -0.3788
26 15 14 5.1480 0.6649
26 15 17 -0.7446 0.3065
26 15 20 -0.2295 -0.4242
26 15 23 -1.0121 -0.5978
26 15 26 -12.7607 0.0941
26 15 29 11.1291 0.0221
26 15 32 -8.0727 0.9387
26 15 35 -9.1559 -0.9410
26 16 -35 -2.7670 -1.8635
26 16 -32 5.7999 -0.1022
26 16 -29 -0.6209 0.1840
26 16 -26 -7.9481 0.0769
26 16 -23 3.3477 0.0551
26 16 -20 -5.9674 -0.4160
26 16 -17 4.6701 -0.0220
26 16 -14 3.0438 0.2540
26 16 -11 4.3837 0.3474
26 16 -8 3.3371 -0.7232
26 16 -5 2.9511 -0.4890
26 16 -2 -4.4711 0.0654
26 16 1 5.6249 0.5761
26 16 4 2.7784 0.1244
26 16 7 2.3795 -0.9405
26 16 10 8.8048 -0.3784
26 16 13 5.4271 0.7890
26 16 16 -17.7291 0.6601
26 16 19 -2.9168 -0.6675
26 16 22 5.3524 -0.6003
26 16 25 -29.6687 0.5871
26 16 28 5.8276 -0.1514
26 16 31 -10.0854 -0.2370
26 16 34 1.5726 -1.0506
26 17 -33 -7.2564 -0.5223
26 17 -30 -12.0665 0.5683
26 17 -27 2.9610 -0.2200
26 17 -24 -2.0331 0.0769
26 17 -21 4.8041 0.4239
26 17 -18 -5.4855 1.0548
26 17 -15 7.3411 0.4633
26 17 -12 -3.3405 -0.8458
26 17 -9 8.5943 -0.5506
26 17 -6 -16.3285 0.4372
26 17 -3 20.6537 0.6183
26 17 0 6.1751 -0.0608
26 17 3 1.2783 -0.2524
26 17 6 10.6328 -0.0847
26 17 9 -4.5668 0.3272
26 17 12 6.7036 0.5080
26 17 15 -1.4040 -0.7632
26 17 18 -18.9230 -0.9143
26 17 21 22.1512 0.2723
26 17 24 -23.9112 -0.0896
26 17 27 17.7057 -0.1585
26 17 30 -9.1050 -0.8383
26 17 33 -9.5661 -0.1288
26 18 -31 1.1947 -1.3660
26 18 -28 3.4772 0.0189
26 18 -25 -1.3598 0.2139
26 18 -22 4.8966 0.1745
26 18 -19 9.9516 0.1180
26 18 -16 -5.4650 0.0653
26 18 -13 7.5298 -0.5984
26 18 -10 21.7930 -0.4554
26 18 -7 -24.0538 -0.0899
26 18 -4 5.1324 0.2079
26 18 -1 1.9211 0.0662
26 18 2 1.5215 -0.1197
26 18 5 3.5949 -0.3316
26 18 8 -4.7353 -0.0221
26 18 11 -3.8027 0.3019
26 18 14 3.1061 0.2109
26 18 17 -5.1653 -0.0154
26 18 20 -0.6281 1.0289
26 18 23 5.4223 0.6602
26 18 26 9.4815 0.3107
26 18 29 -8.1281 -0.0799
26 19 -29 -7.4473 -0.1140
26 19 -26 10.5629 1.0648
26 19 -23 4.0624 0.0839
26 19 -20 9.4587 0.1566
26 19 -17 0.1967 0.1955
26 19 -14 -1.0532 0.0709
26 19 -11 7.5473 0.2821
26 19 -8 -9.4923 -1.0282
26 19 -5 -4.4515 -0.2255
26 19 -2 8.7734 0.3987
26 19 1 -9.4035 0.4227
26 19 4 6.3126 -0.2837
26 19 7 -9.8209 -0.2818
26 19 10 -5.3078 -0.1063
26 19 13 -5.2524 0.4287
26 19 16 1.9979 -0.1633
26 19 19 -9.0476 -0.3172
26 19 22 -1.8529 0.2070
26 19 25 10.7297 -0.9791
26 19 28 -3.0990 0.8985
26 20 -24 -2.0028 -0.4181
26 20 -21 -5.0441 0.6652
26 20 -18 -7.1398 0.2253
26 20 -15 0.7106 0.4743
26 20 -12 -5.0922 -0.2725
26 20 -9 1.0363 -0.2765
26 20 -6 -2.3794 0.3019
26 20 -3 11.9838 -0.2156
26 20 0 -15.5602 0.6391
26 20 3 1.5738 0.5305
26 20 6 -2.2055 -0.4425
26 20 9 -8.5039 -0.3843
26 20 12 -7.6893 0.4431
26 20 15 6.2162 -0.3178
26 20 18 6.2476 -0.4506
26 20 21 3.1208 0.6900
26 20 24 2.9272 -0.7050
26 21 -22 -1.8482 0.2954
26 21 -19 -12.6433 0.5708
26 21 -16 2.4067 0.0756
26 21 -13 9.6597 0.4150
26 21 -10 -11.8215 -0.0791
26 21 -7 -0.7651 -0.5187
26 21 -4 -2.6361 -0.0990
26 21 -1 -3.0373 0.7423
26 21 2 -3.2815 0.3279
26 21 5 -12.9280 -0.5823
26 21 8 9.3451 -0.9840
26 21 11 -6.9140 1.2765
26 21 14 3.0854 0.4412
26 21 17 8.2142 -0.9148
26 21 20 -13.9536 0.6716
26 21 23 11.4539 -0.2006
26 22 -20 3.8296 0.4844
26 22 -17 -3.0073 0.6932
26 22 -14 4.7527 0.4489
26 22 -11 -5.9544 -1.0054
26 22 -8 6.3797 -0.2309
26 22 -5 -4.4676 0.0032
26 22 -2 4.7797 0.6499
26 22 1 -0.9895 0.4933
26 22 4 -9.2091 0.0797
26 22 7 4.4824 -0.6558
26 22 10 10.7436 0.5857
26 22 13 0.6661 0.5358
26 22 16 6.2049 -0.7903
26 22 19 -10.7831 -0.9187
26 23 -15 5.8091 -0.6619
26 23 -12 -3.6478 -0.5337
26 23 -9 10.9024 -0.0289
26 23 -6 -9.6011 0.0612
26 23 -3 -6.6639 0.5650
26 23 0 -0.1425 0.6020
26 23 3 0.2528 -0.4380
26 23 6 -3.6813 -0.8118
26 23 9 -5.3546 0.4993
26 23 12 -0.2505 -0.2910
26 23 15 -2.3786 0.1026
26 24 -7 -3.0400 0.1777
26 24 -4 -7.0067 0.6979
26 24 -1 2.0426 -0.2040
26 24 2 -1.3994 -0.2191
26 24 5 -3.0931 0.3558
26 24 8 1.2687 -0.7572
27 1 -49 -6.3072 1.0007
27 1 -46 4.3741 -0.9756
27 1 -43 -6.7589 -1.9405
27 1 -40 -0.9866 0.8401
27 1 -37 -1.2178 2.6690
27 1 -34 -15.8468 -0.4136
27 1 -31 14.4320 -2.7732
27 1 -28 4.1261 0.0466
27 1 -25 -12.9017 2.8465
27 1 -22 30.2059 0.4954
27 1 -19 -22.9236 -3.0244
27 1 -16 30.9496 -1.4172
27 1 -13 8.9226 2.5733
27 1 -10 7.8584 2.0894
27 1 -7 30.8275 -2.7151
27 1 -4 21.6875 -2.9609
27 1 -1 15.1563 2.1968
27 1 2 2.2632 3.2360
27 1 5 -22.1320 -1.8776
27 1 8 25.6547 -3.1656
27 1 11 -33.0359 1.0452
27 1 14 -1.3247 3.3089
27 1 17 -5.0560 0.2276
27 1 20 -5.3983 -3.0107
27 1 23 3.6750 -0.6183
27 1 26 14.7511 2.7414
27 1 29 -14.4789 1.4770
27 1 32 -17.4224 -2.1149
27 1 35 1.8562 -1.8169
27 1 38 -17.4707 1.4784
27 1 41 -2.6572 2.0829
27 1 44 21.1450 -0.7454
27 1 47 -0.7416 -2.1838
27 1 50 6.9691 -0.5589
27 2 -47 0.9162 -1.3055
27 2 -44 0.9569 0.6276
27 2 -41 -2.0027 1.3488
27 2 -38 3.7513 0.1536
27 2 -35 -5.0550 -1.3298
27 2 -32 10.1957 -0.2597
27 2 -29 -9.4827 1.7778
27 2 -26 6.0032 0.6195
27 2 -23 36.0205 -1.2899
27 2 -20 -33.9269 -1.0823
27 2 -17 40.0261 0.6722
27 2 -14 -6.6421 1.4057
27 2 -11 34.5961 -0.5558
27 2 -8 12.0229 -1.9988
27 2 -5 -6.4411 0.0492
27 2 -2 -8.6123 1.9224
27 2 1 28.4684 0.3384
27 2 4 -50.0161 -1.6267
27 2 7 -9.6823 -0.8832
27 2 10 13.4239 1.3698
27 2 13 -43.0748 1.5020
27 2 16 14.7578 -0.6815
27 2 19 -20.9639 -1.4820
27 2 22 22.1223 0.4759
27 2 25 50.4885 1.5753
27 2 28 -3.9962 -0.0401
27 2 31 6.2275 -1.1667
27 2 34 24.0513 -0.3131
27 2 37 4.3414 0.9076
27 2 40 -16.8545 1.1939
27 2 43 5.5966 -0.6525
27 2 46 -9.6141 -0.0364
27 2 49 4.3193 0.8965
27 3 -48 1.2692 0.3631
27 3 -45 2.1498 1.5085
27 3 -42 -3.5508 1.4919
27 3 -39 -0.0446 -1.4948
27 3 -36 5.4446 -1.9551
27 3 -33 8.3425 1.4244
27 3 -30 -2.4073 2.6535
27 3 -27 11.7086 -0.6902
27 3 -24 20.9916 -3.5056
27 3 -21 -21.2701 0.0442
27 3 -18 3.5550 3.8242
27 3 -15 -25.0444 0.7962
27 3 -12 -10.7771 -3.8688
27 3 -9 28.0849 -2.1045
27 3 -6 -35.5350 3.4888
27 3 -3 13.2260 3.1743
27 3 0 8.7125 -2.7057
27 3 3 5.7175 -4.0154
27 3 6 -40.9091 1.3268
27 3 9 0.9467 4.2787
27 3 12 6.7563 -0.2713
27 3 15 -19.7047 -4.3009
27 3 18 24.4167 -0.8744
27 3 21 -16.6456 3.7598
27 3 24 11.1472 1.9680
27 3 27 9.6940 -3.0981
27 3 30 -12.3481 -2.7657
27 3 33 14.1578 1.8237
27 3 36 5.7188 2.9090
27 3 39 -6.0796 -1.1418
27 3 42 -4.0336 -3.5033
27 3 45 -1.2941 -0.3541
27 3 48 -0.3360 2.5820
27 4 -46 0.3221 -0.6780
27 4 -43 -5.3688 -0.2241
27 4 -40 -8.3812 0.0780
27 4 -37 3.9319 0.4693
27 4 -34 -3.4036 0.4820
27 4 -31 15.4231 -0.5218
27 4 -28 2.9484 -0.5189
27 4 -25 2.7177 0.3103
27 4 -22 20.3785 0.4326
27 4 -19 -22.6011 0.0458
27 4 -16 23.7565 -0.7728
27 4 -13 0.5260 -0.5947
27 4 -10 2.5890 0.1642
27 4 -7 25.9666 0.3157
27 4 -4 -10.4404 -0.2954
27 4 -1 -2.8939 -0.4707
27 4 2 11.6044 -0.4249
27 4 5 -14.7805 0.3346
27 4 8 -13.5524 0.6463
27 4 11 -3.7006 -0.4095
27 4 14 -22.2764 -0.5823
27 4 17 12.6692 0.3197
27 4 20 10.4386 0.4927
27 4 23 3.4774 0.0510
27 4 26 -15.2542 -0.2373
27 4 29 12.1260 -0.6596
27 4 32 -15.7107 0.1105
27 4 35 10.0689 0.5991
27 4 38 22.2245 -0.1381
27 4 41 5.0964 -1.0314
27 4 44 9.6582 -0.7692
27 4 47 -3.9912 -0.6145
27 5 -47 5.4920 0.2027
27 5 -44 -1.6264 -0.0389
27 5 -41 -2.8732 -0.0556
27 5 -38 5.9270 0.4792
27 5 -35 -4.9912 0.9408
27 5 -32 8.6512 -0.7968
27 5 -29 12.5720 -1.0368
27 5 -26 -18.2775 0.2344
27 5 -23 10.0315 1.1990
27 5 -20 -34.1049 -0.1269
27 5 -17 -2.6924 -1.4932
27 5 -14 -9.7797 -0.4083
27 5 -11 -16.6294 1.4902
27 5 -8 -13.9862 0.8308
27 5 -5 6.5296 -1.1715
27 5 -2 -26.3344 -1.0530
27 5 1 20.4777 0.6122
27 5 4 -28.9811 1.4502
27 5 7 0.3569 -0.5244
27 5 10 2.2032 -1.7372
27 5 13 0.7956 -0.1086
27 5 16 33.8598 1.5341
27 5 19 11.8991 0.2907
27 5 22 25.9104 -1.5116
27 5 25 -9.6816 -0.5535
27 5 28 10.1946 0.9371
27 5 31 14.8121 0.8504
27 5 34 -7.8516 -0.3492
27 5 37 8.3207 -0.8394
27 5 40 -4.2253 1.2349
27 5 43 -1.2895 2.0303
27 5 46 9.7276 0.2426
27 6 -45 -9.9398 0.0641
27 6 -42 -6.5299 -0.7941
27 6 -39 4.7181 -0.6071
27 6 -36 9.7488 -0.3053
27 6 -33 -6.7724 0.4555
27 6 -30 -2.1898 0.0864
27 6 -27 11.3103 -0.5532
27 6 -24 -28.3262 -0.4221
27 6 -21 3.9654 0.5447
27 6 -18 0.0890 0.0240
27 6 -15 16.2106 -0.6422
27 6 -12 14.9812 -0.5763
27 6 -9 -12.3708 -0.0739
27 6 -6 -3.3384 0.5208
27 6 -3 19.2886 -0.0835
27 6 0 -34.5723 -0.6653
27 6 3 -17.1584 -0.0306
27 6 6 -11.1627 0.3063
27 6 9 22.1055 -0.0780
27 6 12 7.9782 -0.4197
27 6 15 -21.4211 0.0181
27 6 18 5.4393 0.3509
27 6 21 16.0185 0.1756
27 6 24 -1.7218 -0.2131
27 6 27 -6.5682 -0.0856
27 6 30 17.0355 0.2982
27 6 33 2.5738 -0.1086
27 6 36 -3.7140 -0.1036
27 6 39 -4.3498 -0.7462
27 6 42 -8.8865 -0.4395
27 6 45 1.8998 0.4358
27 7 -43 16.1096 0.0876
27 7 -40 3.1181 0.1136
27 7 -37 25.2455 0.2512
27 7 -34 -10.0477 -0.7996
27 7 -31 3.4480 -0.3009
27 7 -28 -0.0530 0.5669
27 7 -25 -7.5880 0.8015
27 7 -22 -8.1599 -0.5165
27 7 -19 -13.9424 -0.5302
27 7 -16 -3.0011 0.0882
27 7 -13 -7.5201 0.8129
27 7 -10 -26.2025 -0.1048
27 7 -7 -3.5776 -0.6799
27 7 -4 11.7262 -0.1141
27 7 -1 12.9525 0.6739
27 7 2 9.9463 0.3725
27 7 5 16.4163 -0.4739
27 7 8 15.6366 -0.5640
27 7 11 23.2722 0.3276
27 7 14 -7.4645 0.6723
27 7 17 12.5783 -0.5769
27 7 20 10.9532 -0.8154
27 7 23 -0.0354 -0.0014
27 7 26 -14.0051 0.7282
27 7 29 10.6197 0.2368
27 7 32 14.8726 -0.6019
27 7 35 8.8485 -0.4847
27 7 38 2.3729 0.1102
27 7 41 -6.7759 -0.6171
27 7 44 -1.7088 -0.6153
27 8 -44 3.3792 -0.3162
27 8 -41 0.6535 0.1304
27 8 -38 -10.1816 -0.1173
27 8 -35 3.9415 -0.5287
27 8 -32 -1.0496 0.1221
27 8 -29 2.5075 0.5468
27 8 -26 -14.1481 -0.2615
27 8 -23 7.9595 -0.0864
27 8 -20 -13.9225 0.1949
27 8 -17 10.1335 0.2774
27 8 -14 -0.1046 -0.4743
27 8 -11 1.5047 -0.3478
27 8 -8 -0.2679 -0.0901
27 8 -5 28.6179 0.3222
27 8 -2 -20.6111 -0.0339
27 8 1 10.8064 -0.4607
27 8 4 0.0005 -0.0208
27 8 7 -11.9555 0.3281
27 8 10 0.4424 -0.2563
27 8 13 6.9899 -0.2541
27 8 16 5.9093 -0.0333
27 8 19 5.1359 0.3513
27 8 22 -0.8937 0.0240
27 8 25 3.4941 -0.3538
27 8 28 -5.5879 -0.0040
27 8 31 -13.1601 0.6211
27 8 34 -5.1732 0.4120
27 8 37 -16.0086 -0.3275
27 8 40 8.9021 -0.4828
27 8 43 -3.6013 -0.5160
27 9 -42 1.9791 -1.1003
27 9 -39 3.4388 -0.0121
27 9 -36 8.0950 0.5176
27 9 -33 -4.0148 -0.2672
27 9 -30 5.2300 -0.6375
27 9 -27 4.6453 -0.0103
27 9 -24 -23.1860 0.8333
27 9 -21 15.8447 1.2176
27 9 -18 -7.6762 -0.3964
27 9 -15 -22.4321 -0.7289
27 9 -12 7.8131 0.1608
27 9 -9 -18.5937 0.8444
27 9 -6 23.3764 0.4142
27 9 -3 -7.5957 -0.9102
27 9 0 -5.3099 -0.5565
27 9 3 30.7282 0.8659
27 9 6 3.7173 0.8603
27 9 9 -10.6748 -0.7064
27 9 12 -4.5750 -1.0926
27 9 15 1.8918 0.2102
27 9 18 15.0848 1.0350
27 9 21 -19.8494 0.1990
27 9 24 -2.2817 -1.0125
27 9 27 -10.5500 -0.8356
27 9 30 6.0035 0.8970
27 9 33 -11.4211 1.1602
27 9 36 -16.5280 -0.0925
27 9 39 3.2150 -0.0398
27 9 42 5.4637 0.6272
27 10 -40 -13.2004 0.4747
27 10 -37 -1.9987 -0.2753
27 10 -34 -6.6704 -0.0331
27 10 -31 -6.3872 -0.1839
27 10 -28 -0.2196 0.2790
27 10 -25 -1.2408 0.3470
27 10 -22 -3.5547 -0.2098
27 10 -19 8.4926 0.2303
27 10 -16 -13.9714 0.0570
27 10 -13 11.0783 0.1522
27 10 -10 2.4051 0.0789
27 10 -7 24.3854 -0.1820
27 10 -4 3.3393 -0.2269
27 10 -1 18.9169 0.0875
27 10 2 -19.1291 0.5591
27 10 5 1.3921 0.2181
27 10 8 2.2997 -0.7056
27 10 11 -12.5491 -0.1208
27 10 14 -3.4693 0.4808
27 10 17 29.3977 0.3246
27 10 20 -23.1004 -0.5789
27 10 23 14.5019 -0.2236
27 10 26 0.1571 0.2453
27 10 29 3.3632 0.2117
27 10 32 12.8816 0.3797
27 10 35 -16.1818 -0.1638
27 10 38 -7.3278 0.2146
27 10 41 -6.9462 1.1161
27 11 -38 -11.9511 -0.3801
27 11 -35 11.3121 -0.8888
27 11 -32 0.5391 -0.5701
27 11 -29 -10.4037 0.2309
27 11 -26 2.4405 0.4276
27 11 -23 -0.0633 -0.1759
27 11 -20 -17.6550 -0.2915
27 11 -17 13.8945 0.1514
27 11 -14 0.9327 0.4670
27 11 -11 -11.2855 0.7065
27 11 -8 17.7532 -0.1722
27 11 -5 2.8105 -0.4465
27 11 -2 10.0842 0.3472
27 11 1 2.3144 0.7677
27 11 4 -2.7485 -0.0228
27 11 7 4.3786 -0.6425
27 11 10 10.6454 -0.1718
27 11 13 -13.8240 0.3365
27 11 16 6.3237 0.4145
27 11 19 -1.8111 -0.4864
27 11 22 -25.8350 -0.5047
27 11 25 5.2403 0.1597
27 11 28 -26.1472 0.3991
27 11 31 4.0631 -0.3415
27 11 34 12.4842 -0.8767
27 11 37 -0.0714 -1.5281
27 11 40 10.5673 -0.5455
27 12 -39 -2.3994 -0.1509
27 12 -36 -4.8871 0.1063
27 12 -33 -9.3796 -0.4524
27 12 -30 -1.4239 0.1651
27 12 -27 -5.2551 0.2364
27 12 -24 -3.7679 0.1923
27 12 -21 7.6884 -0.1847
27 12 -18 2.7914 -0.3293
27 12 -15 10.4603 0.3681
27 12 -12 19.0954 0.4654
27 12 -9 0.2690 -0.1161
27 12 -6 23.3692 -0.1504
27 12 -3 4.1920 0.2274
27 12 0 4.6251 0.4564
27 12 3 -6.1803 -0.1167
27 12 6 -11.9793 -0.2573
27 12 9 -5.2959 -0.0214
27 12 12 12.1012 0.0904
27 12 15 -14.8820 0.1921
27 12 18 0.8475 -0.1867
27 12 21 -19.0862 -0.1123
27 12 24 14.9833 -0.2117
27 12 27 -16.2637 -0.0330
27 12 30 2.1103 -0.1125
27 12 33 -2.2832 -0.3096
27 12 36 9.7151 -0.6449
27 12 39 -4.8325 -0.4057
27 13 -37 8.1697 -0.7268
27 13 -34 -6.9070 -0.3724
27 13 -31 5.9420 -1.3112
27 13 -28 1.4215 -0.3556
27 13 -25 1.3181 0.0271
27 13 -22 -0.4108 -0.1477
27 13 -19 4.1997 0.0179
27 13 -16 -0.4751 0.0634
27 13 -13 7.1496 0.2650
27 13 -10 14.9172 0.1899
27 13 -7 0.5847 0.1406
27 13 -4 -3.4949 0.0579
27 13 -1 11.1042 0.0535
27 13 2 -10.6484 0.0968
27 13 5 14.5549 -0.1307
27 13 8 4.8564 -0.0594
27 13 11 -0.5863 0.1800
27 13 14 7.6871 -0.2574
27 13 17 8.2688 0.0215
27 13 20 -11.1372 0.0747
27 13 23 12.0234 0.7463
27 13 26 -3.1179 0.1095
27 13 29 -5.5934 0.0490
27 13 32 -5.9075 0.3060
27 13 35 1.1885 0.2927
27 13 38 -10.5563 1.4662
27 14 -35 -3.9813 -0.5483
27 14 -32 10.4096 0.4147
27 14 -29 -8.5764 0.2366
27 14 -26 4.6016 -0.0746
27 14 -23 8.6966 -0.6494
27 14 -20 9.9995 0.3632
27 14 -17 21.1783 0.2328
27 14 -14 7.6082 0.4252
27 14 -11 5.2130 -0.0062
27 14 -8 31.4192 -0.5667
27 14 -5 -12.3246 -0.0955
27 14 -2 -14.8048 0.4613
27 14 1 -11.9660 0.2354
27 14 4 -8.1447 -0.3546
27 14 7 -15.2555 -0.4793
27 14 10 -7.3358 0.2716
27 14 13 -10.1538 0.1874
27 14 16 -2.4241 0.0840
27 14 19 5.4132 -0.2211
27 14 22 -21.7700 0.4571
27 14 25 17.7720 0.4729
27 14 28 9.0256 -0.3367
27 14 31 7.3512 0.6237
27 14 34 9.0431 -0.4746
27 15 -33 0.0373 -0.9811
27 15 -30 10.0361 -0.2596
27 15 -27 -6.0611 -0.4970
27 15 -24 1.6113 -0.2472
27 15 -21 -1.1876 -0.1176
27 15 -18 0.7357 -0.4533
27 15 -15 -8.0462 0.3771
27 15 -12 -3.0807 0.4944
27 15 -9 -11.4028 -0.0099
27 15 -6 19.3165 -0.5632
27 15 -3 -20.6724 -0.0524
27 15 0 3.0161 0.7303
27 15 3 10.0979 0.5187
27 15 6 3.4501 -0.6368
27 15 9 5.3722 -0.2756
27 15 12 6.1540 0.5398
27 15 15 -16.8567 0.4350
27 15 18 24.5662 -0.8496
27 15 21 -12.9093 0.0257
27 15 24 -3.3559 0.4376
27 15 27 4.4938 0.4455
27 15 30 6.0571 0.8445
27 15 33 1.4190 -0.4921
27 16 -31 11.3878 -0.2809
27 16 -28 1.1166 0.4192
27 16 -25 -3.7595 0.0641
27 16 -22 18.6249 0.7081
27 16 -19 2.4165 -0.2444
27 16 -16 10.2868 -0.0354
27 16 -13 12.8920 0.6108
27 16 -10 0.4651 0.1125
27 16 -7 1.5522 -0.3682
27 16 -4 -3.4890 -0.1776
27 16 -1 -3.8751 0.0111
27 16 2 -14.5687 0.2931
27 16 5 -13.1146 0.2190
27 16 8 -17.1449 -0.4371
27 16 11 2.2774 0.1807
27 16 14 -6.0489 0.5814
27 16 17 -4.5816 0.0722
27 16 20 10.3542 0.0281
27 16 23 -7.4271 0.2059
27 16 26 0.8888 -0.8928
27 16 29 -0.3265 -0.6251
27 16 32 0.0707 -0.0337
27 17 -29 -11.7174 -0.4942
27 17 -26 3.7688 -0.3435
27 17 -23 12.0795 -0.1836
27 17 -20 -1.8267 -0.2184
27 17 -17 -5.5176 0.1765
27 17 -14 -2.5928 0.2883
27 17 -11 -3.5913 -0.3262
27 17 -8 -6.3724 -0.0770
27 17 -5 -9.4523 0.1398
27 17 -2 -1.6533 0.4225
27 17 1 13.4235 -0.0657
27 17 4 2.0217 -0.0231
27 17 7 5.0748 0.2723
27 17 10 11.5412 -0.1207
27 17 13 9.1692 0.4072
27 17 16 -14.4547 -0.6986
27 17 19 15.2120 -0.5642
27 17 22 -10.7851 0.1581
27 17 25 10.3265 0.6209
27 17 28 -10.2840 -1.4772
27 17 31 -6.8327 1.0057
27 18 -27 4.3140 0.4848
27 18 -24 5.0066 -0.5283
27 18 -21 -0.7926 0.2741
27 18 -18 -1.0560 0.2134
27 18 -15 0.3338 0.8008
27 18 -12 5.5566 0.1736
27 18 -9 11.8453 -0.0515
27 18 -6 3.3449 -0.1510
27 18 -3 7.1231 -0.0893
27 18 0 4.5091 -0.0932
27 18 3 3.9395 0.2009
27 18 6 -6.6701 0.0850
27 18 9 -22.5892 0.1461
27 18 12 8.3832 0.1058
27 18 15 -3.2294 0.2242
27 18 18 3.9068 0.0833
27 18 21 -2.3507 -0.5076
27 18 24 4.9730 0.7232
27 18 27 4.3616 -0.1179
27 19 -25 -2.8847 -0.9696
27 19 -22 2.7978 -0.5349
27 19 -19 -5.8788 0.0936
27 19 -16 2.4659 0.7384
27 19 -13 1.2957 0.6819
27 19 -10 -7.6708 -0.0394
27 19 -7 -5.3705 -0.0463
27 19 -4 -9.3887 0.2839
27 19 -1 -9.1113 0.1649
27 19 2 -8.4560 0.2951
27 19 5 5.3358 -0.1027
27 19 8 -8.5123 0.1156
27 19 11 14.7751 0.4630
27 19 14 5.5410 -0.3381
27 19 17 -3.7995 0.5826
27 19 20 6.1799 -0.6042
27 19 23 -9.6618 -0.2206
27 19 26 -4.7510 0.0875
27 20 -23 5.3858 -0.7440
27 20 -20 -0.6848 0.6309
27 20 -17 -5.1119 0.5006
27 20 -14 13.9392 0.9849
27 20 -11 5.7428 -0.2058
27 20 -8 1.8400 -0.3534
27 20 -5 30.3969 -0.6934
27 20 -2 -2.3074 -0.5483
27 20 1 4.3516 0.1814
27 20 4 1.8610 0.3995
27 20 7 3.8608 0.3462
27 20 10 3.2973 0.2869
27 20 13 2.6475 -0.5264
27 20 16 -9.8339 -0.1008
27 20 19 3.7611 0.8268
27 20 22 -6.9337 -0.5268
27 21 -18 -7.4779 1.0925
27 21 -15 1.2775 0.5704
27 21 -12 19.7411 0.8516
27 21 -9 -10.6398 0.2437
27 21 -6 3.2344 -1.2372
27 21 -3 -7.6045 -0.3202
27 21 0 -9.3729 0.6721
27 21 3 -5.7792 0.4652
27 21 6 1.7707 -0.2080
27 21 9 6.0386 -0.1022
27 21 12 -3.2526 -0.3510
27 21 15 2.7800 -0.3487
27 21 18 -7.3651 -0.7656
27 22 -13 12.4665 1.2514
27 22 -10 1.0422 -1.1499
27 22 -7 6.5888 -0.2679
27 22 -4 -1.4381 -0.1888
27 22 -1 20.2164 0.2339
27 22 2 4.1897 0.4392
27 22 5 5.0310 -0.2147
27 22 8 0.7997 -0.3719
27 22 11 -0.9876 1.6340
27 22 14 -0.6813 -0.6884
27 23 -8 -0.8344 -0.1198
27 23 -5 4.3886 -1.8444
27 23 -2 -4.8306 0.1232
27 23 1 6.2314 1.8088
27 23 4 0.4825 0.1353
27 23 7 -2.5649 -2.1598
28 1 -48 -0.0989 -0.4549
28 1 -45 17.6848 2.9056
28 1 -42 -9.7789 1.5103
28 1 -39 -0.2081 -3.1180
28 1 -36 -10.2495 -2.5396
28 1 -33 -8.9581 3.4635
28 1 -30 -4.7016 3.5768
28 1 -27 2.6834 -2.6031
28 1 -24 8.9635 -4.5538
28 1 -21 19.5887 1.4001
28 1 -18 -14.1592 5.1536
28 1 -15 3.8378 0.1927
28 1 -12 -11.4958 -5.1383
28 1 -9 -0.3506 -1.9984
28 1 -6 6.9752 4.7576
28 1 -3 17.9643 3.4543
28 1 0 34.6386 -3.5974
28 1 3 2.9292 -4.3165
28 1 6 7.0613 2.2316
28 1 9 -9.2952 4.3835
28 1 12 -30.3339 -0.8642
28 1 15 20.5035 -4.2828
28 1 18 -28.8015 -0.7589
28 1 21 10.9084 3.5568
28 1 24 2.7587 1.6723
28 1 27 -11.7945 -2.8130
28 1 30 -9.8283 -2.2789
28 1 33 6.3377 1.7905
28 1 36 -29.9899 2.5671
28 1 39 -1.6425 -0.8352
28 1 42 -7.9420 -1.9187
28 1 45 -7.9444 -0.3922
28 1 48 21.4137 1.1695
28 2 -46 2.8733 0.6320
28 2 -43 9.4784 0.9985
28 2 -40 -7.6051 -2.1561
28 2 -37 4.6953 -0.1688
28 2 -34 9.2181 1.2990
28 2 -31 12.0193 0.9785
28 2 -28 -6.6761 -1.7733
28 2 -25 50.0867 -2.0142
28 2 -22 3.8026 1.4171
28 2 -19 -34.0374 2.7520
28 2 -16 8.1822 -0.6581
28 2 -13 -54.2906 -3.2242
28 2 -10 5.0136 -0.3291
28 2 -7 -20.6781 3.1893
28 2 -4 -19.4249 1.3274
28 2 -1 65.7372 -2.9880
28 2 2 34.0011 -2.3826
28 2 5 -8.7194 2.3655
28 2 8 12.6406 3.4862
28 2 11 7.4417 -1.1326
28 2 14 38.8169 -3.7463
28 2 17 -20.3913 0.1937
28 2 20 2.6136 3.8031
28 2 23 -0.5753 1.1634
28 2 26 22.0858 -2.9833
28 2 29 -15.2342 -1.6311
28 2 32 2.6466 2.3750
28 2 35 -0.5266 2.0883
28 2 38 -15.9694 -1.3008
28 2 41 -2.1643 -2.9619
28 2 44 -4.0545 0.6901
28 2 47 0.8851 2.3481
28 3 -47 3.7147 -0.0275
28 3 -44 3.3859 -1.3934
28 3 -41 -17.1846 -0.3036
28 3 -38 3.8305 1.2556
28 3 -35 2.4842 1.3531
28 3 -32 -2.7216 -1.6583
28 3 -29 -8.3444 -1.9086
28 3 -26 12.7603 1.2562
28 3 -23 -9.3870 2.1681
28 3 -20 -26.2586 -0.5638
28 3 -17 -19.8247 -2.2448
28 3 -14 -26.7399 -0.3121
28 3 -11 15.8547 2.2320
28 3 -8 43.7356 1.2890
28 3 -5 2.6533 -1.6584
28 3 -2 79.1637 -1.6291
28 3 1 32.5247 1.2980
28 3 4 -14.8668 1.9553
28 3 7 8.7366 -0.4525
28 3 10 -25.9642 -2.0578
28 3 13 35.0833 -0.2086
28 3 16 -23.1617 1.8785
28 3 19 -15.3504 0.5599
28 3 22 -14.6399 -1.5038
28 3 25 11.4388 -1.1852
28 3 28 -19.8284 0.6579
28 3 31 -2.0596 0.9943
28 3 34 19.2792 -0.5531
28 3 37 -0.2776 -0.8991
28 3 40 2.2379 -0.2740
28 3 43 -7.1047 0.3288
28 3 46 -3.9606 -0.4536
28 4 -45 -4.2393 -0.1934
28 4 -42 -21.2922 -1.8556
28 4 -39 13.4533 -0.0620
28 4 -36 -17.1368 0.8559
28 4 -33 6.8520 0.1143
28 4 -30 13.9070 -1.9852
28 4 -27 2.2202 -0.1421
28 4 -24 1.3176 1.5327
28 4 -21 -2.1179 1.2310
28 4 -18 -6.6390 -1.0890
28 4 -15 18.1778 -1.6403
28 4 -12 -2.2294 0.9181
28 4 -9 18.5842 2.0459
28 4 -6 -4.7887 -0.5844
28 4 -3 -5.7454 -2.1558
28 4 0 13.0183 -0.3810
28 4 3 -37.8575 2.1704
28 4 6 -4.0902 0.7471
28 4 9 20.9573 -2.0969
28 4 12 -21.5202 -1.5961
28 4 15 21.2801 1.5187
28 4 18 -18.6778 1.7751
28 4 21 -14.3261 -0.9720
28 4 24 11.9985 -1.8646
28 4 27 -8.7243 -0.0374
28 4 30 -15.0279 1.8282
28 4 33 -5.6852 0.5881
28 4 36 -3.8672 -1.4804
28 4 39 -2.6731 -1.0239
28 4 42 9.7220 1.1869
28 4 45 2.4623 0.7290
28 5 -43 2.5551 0.2038
28 5 -40 7.6210 0.1966
28 5 -37 -16.0869 -0.3251
28 5 -34 2.5742 -0.4942
28 5 -31 -7.4909 -0.1138
28 5 -28 -1.7227 0.2430
28 5 -25 0.5078 -0.2022
28 5 -22 -22.4010 -0.5505
28 5 -19 -7.9479 0.4352
28 5 -16 21.1458 0.5638
28 5 -13 -22.3559 -0.0660
28 5 -10 39.8489 -0.5555
28 5 -7 4.7468 -0.2096
28 5 -4 48.8339 0.7806
28 5 -1 18.2388 0.2618
28 5 2 17.8113 -0.5896
28 5 5 5.5573 -0.3729
28 5 8 62.9354 0.2724
28 5 11 -27.9412 0.4455
28 5 14 -10.4247 -0.1520
28 5 17 -14.4010 -0.5316
28 5 20 4.7395 0.2309
28 5 23 -0.2756 0.8531
28 5 26 -0.6563 0.2875
28 5 29 5.9567 -0.6769
28 5 32 0.7993 -0.1773
28 5 35 3.8453 0.7561
28 5 38 -6.5403 0.6927
28 5 41 4.4795 0.1468
28 5 44 10.4117 0.4474
28 6 -44 3.7624 -1.0398
28 6 -41 -1.9860 0.9077
28 6 -38 -11.4741 0.3475
28 6 -35 4.9647 -0.5624
28 6 -32 -5.1748 -0.6213
28 6 -29 0.2841 0.1632
28 6 -26 11.1542 0.2445
28 6 -23 -19.7628 -0.4249
28 6 -20 26.0564 -0.6641
28 6 -17 11.6511 0.4058
28 6 -14 23.5263 0.7600
28 6 -11 12.4116 -0.1332
28 6 -8 8.2675 -0.9477
28 6 -5 0.5309 -0.2211
28 6 -2 10.1031 1.0314
28 6 1 -13.9867 0.4424
28 6 4 2.2324 -1.0389
28 6 7 -6.9895 -0.5788
28 6 10 -1.7481 0.8546
28 6 13 -9.9403 0.8600
28 6 16 -25.1243 -0.8315
28 6 19 6.1449 -1.0380
28 6 22 14.2159 0.2414
28 6 25 -5.0488 0.9408
28 6 28 13.8944 0.0038
28 6 31 -6.8841 -1.4065
28 6 34 19.3952 -0.8321
28 6 37 -17.7647 0.0925
28 6 40 -4.0759 -0.5308
28 6 43 -1.7459 -0.5815
28 7 -42 -0.7288 -0.7762
28 7 -39 -0.4865 0.2847
28 7 -36 11.5845 0.6468
28 7 -33 -6.3960 -0.2845
28 7 -30 15.2831 -1.2857
28 7 -27 -15.5409 -0.6361
28 7 -24 6.2703 0.8189
28 7 -21 25.1105 0.8723
28 7 -18 -7.9389 -0.9049
28 7 -15 24.0254 -1.1984
28 7 -12 3.1584 0.3154
28 7 -9 0.4746 1.4824
28 7 -6 20.8889 0.0691
28 7 -3 5.3421 -1.0930
28 7 0 22.3045 -0.4574
28 7 3 31.3115 1.3783
28 7 6 -26.4918 0.8527
28 7 9 27.9054 -0.9625
28 7 12 -16.1544 -0.9358
28 7 15 -13.3564 0.4480
28 7 18 -12.6796 1.2042
28 7 21 11.7869 -0.4428
28 7 24 -25.8109 -1.0076
28 7 27 6.6852 -0.0738
28 7 30 -21.5024 1.0375
28 7 33 -2.6377 -0.1085
28 7 36 28.6494 -0.7495
28 7 39 10.1938 -0.8169
28 7 42 9.6877 0.1344
28 8 -40 8.4667 -0.4385
28 8 -37 -13.9968 0.3115
28 8 -34 0.8994 -0.4239
28 8 -31 -13.1642 -0.7669
28 8 -28 5.1676 -0.4603
28 8 -25 -1.1830 0.5120
28 8 -22 10.6353 0.3632
28 8 -19 1.5266 -0.5832
28 8 -16 3.3763 -1.0110
28 8 -13 5.1008 -0.0896
28 8 -10 32.0587 1.0729
28 8 -7 -25.6825 -0.0522
28 8 -4 31.8486 -1.0917
28 8 -1 -15.7557 -0.5242
28 8 2 25.6749 0.7926
28 8 5 -24.7257 0.9772
28 8 8 -2.4307 -0.7896
28 8 11 -22.6222 -1.0409
28 8 14 16.4305 0.0442
28 8 17 -1.3162 1.0793
28 8 20 21.7108 0.4057
28 8 23 -8.2026 -0.8243
28 8 26 5.9898 -0.4253
28 8 29 4.0475 1.1096
28 8 32 -15.0157 0.6220
28 8 35 2.5530 -0.0312
28 8 38 8.7350 -0.1487
28 8 41 1.6827 -0.5535
28 9 -41 -12.3218 0.9198
28 9 -38 -8.7925 -0.0055
28 9 -35 7.4078 0.0892
28 9 -32 -5.0746 0.2849
28 9 -29 5.1889 -0.4925
28 9 -26 22.9033 -0.4622
28 9 -23 -4.1662 0.1152
28 9 -20 25.8003 0.0148
28 9 -17 -3.7346 -0.5094
28 9 -14 -7.0388 -0.0067
28 9 -11 2.3234 0.2477
28 9 -8 -1.9763 0.0759
28 9 -5 0.2935 -0.4237
28 9 -2 10.4806 0.1311
28 9 1 -13.8912 0.2964
28 9 4 4.1019 0.0417
28 9 7 -10.9635 -0.5212
28 9 10 -7.0648 -0.2447
28 9 13 1.6472 0.2796
28 9 16 14.9583 0.1390
28 9 19 0.6129 -0.4651
28 9 22 12.5604 -0.3597
28 9 25 -6.4393 0.3085
28 9 28 6.6053 0.5835
28 9 31 -6.5842 -0.1240
28 9 34 8.2623 0.0037
28 9 37 -6.1808 0.6980
28 9 40 6.9691 1.6360
28 10 -39 4.1018 0.7551
28 10 -36 1.8717 -0.5159
28 10 -33 -11.1053 -1.7744
28 10 -30 6.8592 0.0175
28 10 -27 -6.3650 0.9869
28 10 -24 11.9455 0.2262
28 10 -21 -3.9345 -1.3315
28 10 -18 -14.2891 -0.4878
28 10 -15 17.9269 0.8070
28 10 -12 -15.2483 0.8268
28 10 -9 6.6331 -0.5747
28 10 -6 19.1803 -1.5154
28 10 -3 -1.2115 -0.0719
28 10 0 -4.1216 1.3634
28 10 3 -8.1471 0.3906
28 10 6 -11.8439 -1.2895
28 10 9 21.7473 -0.6440
28 10 12 -19.1000 1.1283
28 10 15 15.7578 1.0420
28 10 18 -2.7489 -0.6795
28 10 21 11.2801 -1.1059
28 10 24 -11.0246 0.3366
28 10 27 7.9970 1.0279
28 10 30 19.9631 0.0621
28 10 33 11.7587 -1.0457
28 10 36 9.1869 -0.7541
28 10 39 -6.7655 1.4614
28 11 -37 -20.8322 1.0522
28 11 -34 0.9547 0.3383
28 11 -31 3.0663 -0.0958
28 11 -28 18.9225 0.1277
28 11 -25 14.9449 -0.1294
28 11 -22 -0.9563 -0.2781
28 11 -19 -4.0708 0.0899
28 11 -16 6.7959 0.0346
28 11 -13 -4.3070 -0.1333
28 11 -10 -5.0829 0.0155
28 11 -7 -20.0872 -0.2107
28 11 -4 26.5198 0.1055
28 11 -1 -15.3528 0.1434
28 11 2 -14.4342 -0.2687
28 11 5 12.8278 -0.0081
28 11 8 9.2632 0.2806
28 11 11 9.9983 -0.0902
28 11 14 16.0004 0.0657
28 11 17 -6.7317 -0.1658
28 11 20 19.3339 -0.1920
28 11 23 4.8218 -0.0324
28 11 26 -14.8539 -0.3279
28 11 29 1.7270 -0.5439
28 11 32 7.9473 -0.9161
28 11 35 -6.0698 -0.5717
28 11 38 6.2522 -0.5314
28 12 -35 4.5924 0.3055
28 12 -32 -2.2409 -0.2672
28 12 -29 9.6398 -1.2896
28 12 -26 10.5952 0.0210
28 12 -23 -27.8722 0.4678
28 12 -20 5.0838 0.6513
28 12 -17 0.3877 -0.4208
28 12 -14 -7.9223 -0.2194
28 12 -11 16.8784 0.2380
28 12 -8 -1.8378 0.4250
28 12 -5 -3.5674 0.0147
28 12 -2 29.7551 -0.6855
28 12 1 -21.8244 -0.4115
28 12 4 22.5595 0.6433
28 12 7 -0.0719 0.7264
28 12 10 -4.5845 -0.7822
28 12 13 14.3911 -0.8115
28 12 16 -0.4708 0.2755
28 12 19 -14.2538 0.3523
28 12 22 17.4453 -0.3878
28 12 25 -8.3295 -0.2692
28 12 28 -22.5702 -0.3062
28 12 31 5.5827 0.2799
28 12 34 -7.1009 0.7747
28 12 37 0.3735 -1.0150
28 13 -36 -1.8535 0.0149
28 13 -33 -1.4656 0.4866
28 13 -30 5.1325 0.2900
28 13 -27 3.3884 0.0949
28 13 -24 -1.2668 -0.5970
28 13 -21 -0.8211 -0.6534
28 13 -18 1.3272 0.5148
28 13 -15 4.4964 0.3982
28 13 -12 -20.6144 -0.1397
28 13 -9 20.5287 -0.4342
28 13 -6 -9.3058 0.2514
28 13 -3 -3.9866 0.1205
28 13 0 7.7027 -0.0239
28 13 3 19.2377 -0.0598
28 13 6 8.5328 0.3197
28 13 9 28.9876 0.2699
28 13 12 -15.8855 0.0137
28 13 15 30.1160 0.2237
28 13 18 -0.3751 0.2048
28 13 21 2.6456 -0.1335
28 13 24 3.4754 -0.2977
28 13 27 -1.7053 0.6064
28 13 30 7.4523 0.2626
28 13 33 -20.1233 0.1946
28 13 36 -2.6585 0.7979
28 14 -34 15.8425 -0.4243
28 14 -31 8.3673 -0.9619
28 14 -28 -12.3930 0.1254
28 14 -25 -8.9171 -0.8322
28 14 -22 -9.0181 -0.2781
28 14 -19 -0.0510 -0.3408
28 14 -16 -0.3195 0.3531
28 14 -13 -4.1340 0.4336
28 14 -10 -0.8576 0.0361
28 14 -7 8.0498 -0.3927
28 14 -4 1.1219 -0.1670
28 14 -1 -6.1390 0.3750
28 14 2 14.4979 -0.1076
28 14 5 13.1694 -0.1306
28 14 8 3.7882 0.0319
28 14 11 -9.8411 0.1607
28 14 14 0.9235 0.2309
28 14 17 15.5222 -0.0057
28 14 20 -22.5107 -0.5338
28 14 23 -11.1819 -0.5816
28 14 26 -8.4562 0.5084
28 14 29 -0.5797 0.4381
28 14 32 2.0111 -0.6636
28 15 -32 -7.7408 -0.4586
28 15 -29 -5.7060 -0.1444
28 15 -26 -6.1035 0.0417
28 15 -23 6.4551 0.5803
28 15 -20 -4.0987 -0.1657
28 15 -17 9.3064 -0.2488
28 15 -14 -10.4308 0.0909
28 15 -11 -0.4313 0.7813
28 15 -8 1.4399 -0.0853
28 15 -5 14.2771 -0.1926
28 15 -2 8.9449 -0.0008
28 15 1 -1.5746 0.1095
28 15 4 10.6154 0.4222
28 15 7 17.3448 0.1550
28 15 10 2.6808 -0.0834
28 15 13 2.2804 0.2491
28 15 16 6.5143 0.2186
28 15 19 -0.7577 0.4083
28 15 22 -1.4040 0.1826
28 15 25 4.9359 0.3329
28 15 28 -0.4328 0.4614
28 15 31 14.5243 -0.3181
28 16 -30 -15.7615 -0.2411
28 16 -27 10.7822 -0.7244
28 16 -24 -8.6374 -0.4169
28 16 -21 -6.1261 -0.6908
28 16 -18 -8.7980 0.3463
28 16 -15 3.8071 -0.4149
28 16 -12 -12.3736 -0.0508
28 16 -9 25.6018 -0.0597
28 16 -6 -1.7391 0.1844
28 16 -3 12.1374 -0.1806
28 16 0 19.3654 -0.4957
28 16 3 6.2152 -0.4278
28 16 6 -2.2872 0.5362
28 16 9 6.7686 0.1395
28 16 12 -21.8552 -0.1679
28 16 15 7.1475 -0.5079
28 16 18 -1.8524 -0.4752
28 16 21 -5.6541 0.4816
28 16 24 1.8932 -0.3300
28 16 27 -2.6679 -0.4850
28 16 30 -8.8447 0.0602
28 17 -28 -11.3418 -0.2086
28 17 -25 5.2150 -1.0164
28 17 -22 -3.8778 0.8077
28 17 -19 1.2564 -0.1969
28 17 -16 9.1329 -0.5211
28 17 -13 -9.7594 0.3416
28 17 -10 12.5720 0.4448
28 17 -7 5.4058 0.9725
28 17 -4 -4.2839 -0.5048
28 17 -1 13.5909 -0.1971
28 17 2 9.8119 0.0062
28 17 5 -7.0983 0.2478
28 17 8 -5.6866 0.4453
28 17 11 9.2526 -0.1619
28 17 14 2.2071 0.2990
28 17 17 10.3302 0.3368
28 17 20 -5.7016 0.3853
28 17 23 7.0512 0.3386
28 17 26 15.4253 -0.5457
28 18 -23 17.4642 -1.4862
28 18 -20 -10.1575 -0.5649
28 18 -17 10.8944 -0.9293
28 18 -14 -4.0360 0.0418
28 18 -11 -3.5343 0.5831
28 18 -8 20.3846 -0.4044
28 18 -5 -2.2446 -0.5806
28 18 -2 2.2903 -0.2879
28 18 1 10.3191 0.1341
28 18 4 2.7111 0.4940
28 18 7 1.7269 0.3362
28 18 10 -0.2826 -0.1559
28 18 13 4.4407 0.4608
28 18 16 2.1748 0.9978
28 18 19 3.3857 -0.0600
28 18 22 -4.8765 0.1800
28 18 25 6.0589 0.9404
28 19 -21 -2.9818 -0.1069
28 19 -18 -10.1363 -0.7202
28 19 -15 8.4117 0.2721
28 19 -12 -6.1019 -0.1508
28 19 -9 8.7176 -0.4858
28 19 -6 1.0755 -0.2186
28 19 -3 3.3819 -0.3124
28 19 0 -0.7271 -0.5567
28 19 3 6.9846 0.0988
28 19 6 -3.0041 0.7253
28 19 9 3.4200 -0.9050
28 19 12 -0.6475 -0.2133
28 19 15 1.4198 0.1566
28 19 18 5.6699 -0.9002
28 19 21 5.8006 -0.6698
28 20 -19 -6.0013 -0.8826
28 20 -16 3.7274 -0.9523
28 20 -13 0.7044 0.7166
28 20 -10 -0.0895 0.1674
28 20 -7 1.0551 0.8515
28 20 -4 4.1678 0.3248
28 20 -1 0.1138 -0.9966
28 20 2 8.6058 0.0078
28 20 5 8.6068 0.9625
28 20 8 6.4859 0.2798
28 20 11 4.7966 -0.2682
28 20 14 1.6495 0.7868
28 20 17 -1.6733 0.7219
28 21 -14 -4.7718 -0.6205
28 21 -11 -4.1867 0.3357
28 21 -8 -0.6372 0.6549
28 21 -5 6.3280 -0.4752
28 21 -2 -3.8209 -1.0498
28 21 1 7.8159 -0.0200
28 21 4 -3.6741 0.8913
28 21 7 -0.9120 0.3591
28 21 10 10.5766 -0.4094
28 21 13 3.2808 -1.6363
28 22 -6 10.7853 0.5634
28 22 -3 -2.7701 -0.2735
28 22 0 11.4937 -0.5366
28 22 3 -4.3231 0.2546
28 22 6 1.3362 0.7247
29 1 -47 -3.5421 -0.8038
29 1 -44 4.0968 -0.8051
29 1 -41 -4.5456 0.4616
29 1 -38 12.5735 1.7868
29 1 -35 -20.6145 -1.0372
29 1 -32 -0.7291 -1.5432
29 1 -29 -9.9392 0.3378
29 1 -26 -2.8701 0.9675
29 1 -23 16.5412 -0.1427
29 1 -20 -4.0612 -0.9636
29 1 -17 -51.3020 -0.3282
29 1 -14 43.3106 0.6454
29 1 -11 -34.2422 0.5543
29 1 -8 10.5754 -0.5580
29 1 -5 25.5495 -0.5285
29 1 -2 16.1782 0.5003
29 1 1 9.8073 0.3936
29 1 4 47.1754 -0.4156
29 1 7 -40.9977 0.0705
29 1 10 50.3150 0.4162
29 1 13 4.9970 -0.5689
29 1 16 -30.8163 -0.3711
29 1 19 14.1510 0.6726
29 1 22 -5.3934 0.3113
29 1 25 -1.0780 -0.2190
29 1 28 10.3379 -0.5159
29 1 31 1.2122 -0.0623
29 1 34 -16.9485 0.6107
29 1 37 -1.3422 -0.0210
29 1 40 -0.4241 -0.9929
29 1 43 -14.6225 -0.3209
29 1 46 1.7586 0.3743
29 2 -45 -10.7571 -0.3554
29 2 -42 -10.2111 -0.6376
29 2 -39 -6.0024 -0.2647
29 2 -36 -11.2297 0.7937
29 2 -33 -6.0852 -0.2260
29 2 -30 2.3194 -0.5585
29 2 -27 3.8955 -0.4899
29 2 -24 38.1872 0.4945
29 2 -21 0.5309 0.6755
29 2 -18 19.4294 -0.7406
29 2 -15 21.9292 -0.4503
29 2 -12 35.7993 0.5603
29 2 -9 -1.8621 0.6552
29 2 -6 9.8921 -0.4886
29 2 -3 -46.8163 -0.7842
29 2 0 23.0408 0.0601
29 2 3 -51.2981 1.1803
29 2 6 40.1746 0.6083
29 2 9 -61.5736 -1.0424
29 2 12 40.7921 -0.5600
29 2 15 -23.7430 1.0366
29 2 18 -23.2008 0.9165
29 2 21 -0.8940 -0.5828
29 2 24 14.9368 -1.0912
29 2 27 -10.5574 0.6835
29 2 30 12.7867 1.1137
29 2 33 10.3369 -0.3616
29 2 36 14.2674 -1.0947
29 2 39 13.3964 -0.1562
29 2 42 -10.8884 1.0490
29 2 45 -0.1982 0.0980
29 3 -46 2.3025 0.7474
29 3 -43 7.0428 -0.8177
29 3 -40 -8.5280 -1.5197
29 3 -37 5.1068 0.5021
29 3 -34 -0.7608 1.8010
29 3 -31 -8.7814 -0.7376
29 3 -28 24.6817 -2.3785
29 3 -25 -7.7938 0.1459
29 3 -22 6.5826 2.3789
29 3 -19 -3.3905 0.5780
29 3 -16 -33.4068 -2.5677
29 3 -13 -4.5294 -1.0136
29 3 -10 -26.8237 2.6828
29 3 -7 -22.2836 1.8411
29 3 -4 -6.1898 -2.5929
29 3 -1 10.2569 -2.4124
29 3 2 15.7407 1.9445
29 3 5 27.7873 3.2482
29 3 8 14.3246 -1.0971
29 3 11 -4.5553 -3.2991
29 3 14 27.8418 -0.0164
29 3 17 -2.3565 3.4258
29 3 20 -0.5128 1.0686
29 3 23 14.7348 -2.8482
29 3 26 -10.1156 -1.6153
29 3 29 -3.9322 2.2355
29 3 32 7.3495 1.8372
29 3 35 -9.4142 -1.4753
29 3 38 7.2453 -1.8296
29 3 41 5.7823 0.1887
29 3 44 -6.5496 1.5609
29 4 -44 0.8661 0.7413
29 4 -41 -15.4521 1.3247
29 4 -38 -3.0524 0.5279
29 4 -35 -13.7807 -0.5614
29 4 -32 6.4962 -0.0913
29 4 -29 1.7068 0.7160
29 4 -26 12.5368 0.4111
29 4 -23 0.2970 -0.6214
29 4 -20 11.8410 -0.7213
29 4 -17 11.2149 0.5084
29 4 -14 15.3335 0.4626
29 4 -11 -3.8292 -0.2455
29 4 -8 8.7867 -0.8231
29 4 -5 -13.6021 -0.3329
29 4 -2 -13.7532 0.5884
29 4 1 -9.7879 0.4888
29 4 4 15.5646 -0.7044
29 4 7 -13.1380 -0.6353
29 4 10 -4.3938 0.7918
29 4 13 -18.6125 0.6249
29 4 16 17.7625 -0.2550
29 4 19 9.3925 -0.7427
29 4 22 -4.3015 0.1042
29 4 25 22.9900 0.4351
29 4 28 -0.8846 0.1550
29 4 31 -1.0239 -0.3653
29 4 34 -4.7905 -0.0674
29 4 37 -11.3774 0.4261
29 4 40 11.3685 0.1225
29 4 43 -10.4396 0.6921
29 5 -42 3.8053 0.0252
29 5 -39 13.2101 0.1716
29 5 -36 -3.8928 -0.3762
29 5 -33 18.1350 -0.7793
29 5 -30 4.6014 0.7671
29 5 -27 8.9262 0.9966
29 5 -24 4.1954 -0.2345
29 5 -21 -13.9903 -0.9177
29 5 -18 13.0698 -0.1036
29 5 -15 -27.5980 1.4062
29 5 -12 -33.2296 0.7067
29 5 -9 -31.5526 -1.4033
29 5 -6 -12.1086 -0.9439
29 5 -3 -16.0508 1.3127
29 5 0 31.7781 1.3637
29 5 3 -13.3133 -0.9646
29 5 6 43.8498 -1.3022
29 5 9 -4.7629 0.7064
29 5 12 23.0434 1.6196
29 5 15 0.7674 0.0772
29 5 18 11.6456 -1.6568
29 5 21 2.3481 -0.1850
29 5 24 17.2746 1.2725
29 5 27 -5.3691 0.8871
29 5 30 2.1592 -1.2257
29 5 33 18.9755 -0.8195
29 5 36 -14.9066 0.8610
29 5 39 -0.5595 1.5849
29 5 42 -1.8680 1.2570
29 6 -43 12.5190 0.2274
29 6 -40 -1.1666 -0.1133
29 6 -37 -3.5906 1.1096
29 6 -34 -8.6955 1.1452
29 6 -31 -4.9975 -0.6559
29 6 -28 9.2649 -0.9495
29 6 -25 -10.3344 0.4767
29 6 -22 4.4233 0.9629
29 6 -19 12.2598 -0.2307
29 6 -16 -24.7701 -1.0018
29 6 -13 24.9245 -0.2361
29 6 -10 -15.6530 0.8030
29 6 -7 0.0221 0.3938
29 6 -4 15.0819 -1.0290
29 6 -1 0.6997 -1.0133
29 6 2 5.5966 0.6450
29 6 5 5.2164 1.1686
29 6 8 2.6709 -0.2980
29 6 11 6.1105 -1.1713
29 6 14 -4.4541 0.2242
29 6 17 2.4751 0.7456
29 6 20 2.3271 0.2960
29 6 23 9.0048 -0.5559
29 6 26 0.1779 -0.3672
29 6 29 -8.8497 0.3439
29 6 32 7.8845 0.6551
29 6 35 14.8671 -0.9269
29 6 38 -11.0536 -1.2606
29 6 41 -3.4665 -1.0093
29 7 -41 1.7594 0.0228
29 7 -38 -9.6565 -0.2357
29 7 -35 10.9172 -0.5133
29 7 -32 4.8146 0.3330
29 7 -29 2.5006 -0.0405
29 7 -26 -8.4202 0.0964
29 7 -23 0.6778 -0.2781
29 7 -20 -0.0250 0.0296
29 7 -17 -20.4127 0.5818
29 7 -14 -13.6989 0.1015
29 7 -11 -1.0384 -0.2489
29 7 -8 -28.1465 0.0424
29 7 -5 1.9145 0.0322
29 7 -2 7.5505 0.0496
29 7 1 28.9876 -0.1672
29 7 4 11.2876 -0.0179
29 7 7 -15.2254 0.3428
29 7 10 17.8690 0.0535
29 7 13 13.5543 -0.3455
29 7 16 6.4087 -0.2099
29 7 19 3.2179 0.1667
29 7 22 -15.3828 0.2482
29 7 25 9.8035 -0.2157
29 7 28 -9.6204 -0.0240
29 7 31 -25.9846 0.2333
29 7 34 15.3465 0.3057
29 7 37 -11.8247 -0.5804
29 7 40 4.0099 -1.5653
29 8 -39 3.9205 0.5974
29 8 -36 -4.4587 -0.2842
29 8 -33 9.0767 0.2101
29 8 -30 -20.8083 0.6002
29 8 -27 -1.4670 -0.5189
29 8 -24 6.2239 -0.5627
29 8 -21 -7.7940 0.0605
29 8 -18 -1.5414 0.4768
29 8 -15 -7.3902 0.3591
29 8 -12 -2.9258 -0.4906
29 8 -9 23.8554 -0.4027
29 8 -6 -11.3189 -0.0660
29 8 -3 -4.9353 0.2688
29 8 0 24.2140 -0.1144
29 8 3 -4.7418 -0.7019
29 8 6 0.4653 -0.0122
29 8 9 5.0934 0.3348
29 8 12 13.3961 0.2515
29 8 15 8.4780 -0.4632
29 8 18 0.6210 -0.3278
29 8 21 -2.5095 0.1361
29 8 24 6.9115 0.4431
29 8 27 17.8695 0.4357
29 8 30 -20.8908 -0.3471
29 8 33 10.2794 0.0277
29 8 36 -12.7711 0.6663
29 8 39 1.9844 0.6569
29 9 -40 -9.4001 1.1967
29 9 -37 -4.7813 -0.2729
29 9 -34 -13.9289 -0.6593
29 9 -31 -4.1231 -0.6543
29 9 -28 -9.3479 0.6610
29 9 -25 4.2991 -0.2807
29 9 -22 -7.9041 -0.5572
29 9 -19 -9.0211 -0.6218
29 9 -16 -10.9090 0.2555
29 9 -13 -4.5815 0.3463
29 9 -10 -19.0900 -0.1943
29 9 -7 2.0883 -0.6261
29 9 -4 3.8760 -0.0214
29 9 -1 1.6200 0.6642
29 9 2 19.1711 0.2013
29 9 5 3.3894 -0.7872
29 9 8 9.4954 -0.4664
29 9 11 24.8095 0.2741
29 9 14 -10.4039 0.2004
29 9 17 14.3263 -0.1034
29 9 20 1.1377 -0.4308
29 9 23 0.0455 0.2772
29 9 26 3.5322 0.6547
29 9 29 2.8765 -0.1018
29 9 32 -6.6169 -0.2895
29 9 35 -2.0258 0.4275
29 9 38 -23.4832 1.5391
29 10 -38 5.7810 1.2330
29 10 -35 -5.4315 0.2863
29 10 -32 -3.4233 0.3211
29 10 -29 2.1848 -0.5646
29 10 -26 -11.0987 -0.2909
29 10 -23 4.0250 -0.2602
29 10 -20 -8.4780 -0.1057
29 10 -17 2.3126 -0.2564
29 10 -14 -4.7046 -0.5920
29 10 -11 2.3027 0.0829
29 10 -8 -16.9512 0.1975
29 10 -5 31.2700 0.0191
29 10 -2 0.7346 -0.0253
29 10 1 -5.6810 -0.0616
29 10 4 0.0259 -0.3893
29 10 7 0.6725 0.2127
29 10 10 9.8240 0.4698
29 10 13 -0.6194 -0.0690
29 10 16 -24.8648 -0.3753
29 10 19 22.9366 -0.0023
29 10 22 4.3465 0.3259
29 10 25 -6.8310 0.1917
29 10 28 10.4749 -0.3557
29 10 31 -7.5039 -0.5653
29 10 34 12.4739 -0.4038
29 10 37 -3.5115 -0.2516
29 11 -36 -14.0401 0.1924
29 11 -33 -12.0223 -0.4313
29 11 -30 -6.5432 0.3011
29 11 -27 17.6865 -1.1846
29 11 -24 -14.6323 -0.3351
29 11 -21 3.6899 -0.5637
29 11 -18 6.3840 -0.0809
29 11 -15 -2.0835 -0.4591
29 11 -12 8.8272 -0.5846
29 11 -9 0.6238 0.3486
29 11 -6 -9.8247 0.3895
29 11 -3 30.0438 -0.1053
29 11 0 -1.7026 -0.1957
29 11 3 1.9733 -0.2848
29 11 6 16.3079 0.1279
29 11 9 1.6641 0.1441
29 11 12 11.8998 -0.0992
29 11 15 -11.1085 -0.2998
29 11 18 -6.5224 -0.0708
29 11 21 28.9558 -0.0650
29 11 24 -25.7589 -0.0937
29 11 27 -3.0033 -0.7014
29 11 30 -5.0349 -0.5033
29 11 33 -1.3907 -1.3130
29 11 36 6.9258 -0.4563
29 12 -34 -8.6138 0.7444
29 12 -31 6.1735 0.0448
29 12 -28 3.6710 0.2563
29 12 -25 2.2612 -0.6874
29 12 -22 -4.1066 -0.1838
29 12 -19 20.9213 -0.2626
29 12 -16 -13.5015 -0.4033
29 12 -13 17.2702 -0.5142
29 12 -10 -4.3948 -0.2339
29 12 -7 -0.9832 0.3964
29 12 -4 -1.0115 0.1962
29 12 -1 -0.1663 -0.3214
29 12 2 2.5016 -0.4941
29 12 5 0.3629 0.0604
29 12 8 -15.5288 0.2006
29 12 11 6.3919 -0.2180
29 12 14 -11.3860 -0.3134
29 12 17 -3.4684 -0.0446
29 12 20 -0.7098 -0.2800
29 12 23 0.1176 -0.3094
29 12 26 -2.1952 0.0906
29 12 29 2.9690 0.5805
29 12 32 -15.1606 -0.0727
29 12 35 6.2354 0.7842
29 13 -32 -0.3503 0.3810
29 13 -29 -0.3407 -0.7688
29 13 -26 -11.6980 0.1183
29 13 -23 22.7153 -1.1974
29 13 -20 -1.0866 0.1682
29 13 -17 -3.8292 -0.1362
29 13 -14 3.7046 -0.4131
29 13 -11 -10.7711 0.0639
29 13 -8 -6.2689 -0.4103
29 13 -5 15.0020 0.0732
29 13 -2 -12.1040 0.2655
29 13 1 -1.1973 -0.1880
29 13 4 18.4710 -0.2704
29 13 7 -7.8825 -0.0090
29 13 10 -4.2467 0.3820
29 13 13 12.2490 -0.2274
29 13 16 -7.7223 -0.0079
29 13 19 11.8200 -0.0167
29 13 22 0.5478 0.1574
29 13 25 -2.8798 0.8110
29 13 28 18.8983 0.2333
29 13 31 -8.3028 -0.2934
29 13 34 2.3019 1.4472
29 14 -30 -1.3534 0.7580
29 14 -27 18.0131 -0.4906
29 14 -24 -9.3429 0.0148
29 14 -21 8.1823 0.0479
29 14 -18 -1.9978 -0.0110
29 14 -15 -3.1595 -0.9321
29 14 -12 -10.9225 -1.0201
29 14 -9 2.4236 0.1440
29 14 -6 -6.0800 0.3308
29 14 -3 9.7160 -0.2137
29 14 0 -25.6895 -0.6229
29 14 3 3.9761 -0.3645
29 14 6 6.7750 0.4017
29 14 9 -21.4674 0.2002
29 14 12 -9.9142 -0.9029
29 14 15 6.1675 -0.5810
29 14 18 -2.4077 0.1494
29 14 21 5.3709 -0.5858
29 14 24 -7.2554 0.0377
29 14 27 9.3142 0.7753
29 14 30 3.6851 -0.6459
29 15 -28 5.3957 0.7680
29 15 -25 -2.2716 -0.9555
29 15 -22 -8.6975 0.3507
29 15 -19 3.1777 -0.7556
29 15 -16 -15.6606 -0.7754
29 15 -13 -2.6484 -0.4938
29 15 -10 -4.4102 0.2152
29 15 -7 -18.1055 0.8507
29 15 -4 4.3214 0.3124
29 15 -1 5.0951 -0.4588
29 15 2 -7.9307 -0.7526
29 15 5 0.9075 0.3824
29 15 8 -0.3198 0.9227
29 15 11 -1.0361 -0.8930
29 15 14 7.5813 -0.1176
29 15 17 7.6280 0.4974
29 15 20 -0.4577 0.6867
29 15 23 18.2690 -0.3815
29 15 26 -10.8594 0.6356
29 15 29 -2.0916 -0.9753
29 16 -26 15.8975 0.7905
29 16 -23 8.6237 0.6884
29 16 -20 -9.0010 0.0412
29 16 -17 5.6973 -0.0622
29 16 -14 -5.6746 -0.5281
29 16 -11 -7.0706 0.4919
29 16 -8 -1.2270 0.1967
29 16 -5 -1.4553 -0.3884
29 16 -2 -4.3596 0.1054
29 16 1 -15.0577 -0.3833
29 16 4 -8.8874 -0.3084
29 16 7 -5.8421 0.1566
29 16 10 -1.7799 0.1189
29 16 13 12.2668 -0.6023
29 16 16 -3.7885 0.2201
29 16 19 4.3917 0.2762
29 16 22 5.0492 -1.3251
29 16 25 -0.1138 -0.5138
29 17 -24 -6.0827 -0.8043
29 17 -21 -8.4326 -0.3948
29 17 -18 -0.8055 -0.3150
29 17 -15 -5.8102 -0.7599
29 17 -12 -11.9231 -0.2916
29 17 -9 12.5591 1.0430
29 17 -6 -19.7329 0.3505
29 17 -3 6.1369 0.0791
29 17 0 -11.2852 -0.0988
29 17 3 1.1431 -0.3657
29 17 6 3.8811 0.1259
29 17 9 -1.3110 -0.0196
29 17 12 2.1510 0.1538
29 17 15 10.0969 -0.6838
29 17 18 -0.6776 0.8588
29 17 21 -1.4002 -0.0152
29 17 24 1.3355 0.2287
29 18 -22 -0.5994 -0.1459
29 18 -19 4.6971 0.0355
29 18 -16 -1.4654 -0.8631
29 18 -13 1.9421 0.4860
29 18 -10 -4.2391 0.5527
29 18 -7 0.5616 0.0206
29 18 -4 -11.1001 0.3745
29 18 -1 3.4354 -0.6837
29 18 2 -3.6375 -1.0507
29 18 5 -2.4915 -0.1409
29 18 8 3.2813 0.3242
29 18 11 -8.3747 0.6097
29 18 14 9.3705 0.1192
29 18 17 4.5692 0.4151
29 18 20 -2.9884 0.8169
29 19 -17 1.7059 -0.7947
29 19 -14 -7.6841 0.2067
29 19 -11 -8.2800 -0.2485
29 19 -8 4.4342 0.5558
29 19 -5 -12.7441 0.8600
29 19 -2 -4.6301 -0.3676
29 19 1 -8.1073 -0.4557
29 19 4 2.8109 0.1032
29 19 7 1.5273 0.3313
29 19 10 -1.3417 0.4573
29 19 13 3.4772 -0.5634
29 19 16 -8.4329 0.2938
29 20 -12 -0.1882 0.2282
29 20 -9 7.2911 1.1385
29 20 -6 -4.0701 0.2129
29 20 -3 10.2827 -0.7089
29 20 0 -4.5976 -0.9208
29 20 3 1.9859 0.2802
29 20 6 8.7012 0.6843
29 20 9 -3.0704 -1.1761
29 20 12 -5.4921 0.1226
29 21 -7 0.4207 1.7558
29 21 -4 -5.1080 -0.4655
29 21 -1 2.8549 -1.4302
29 21 2 -4.2070 0.2746
29 21 5 -2.9112 1.4530
30 1 -46 10.9614 0.8400
30 1 -43 -9.0090 -1.5801
30 1 -40 15.5243 -1.4523
30 1 -37 9.6226 2.7622
30 1 -34 -11.4517 2.3018
30 1 -31 7.8271 -2.4736
30 1 -28 0.0443 -3.3148
30 1 -25 -22.5365 2.1632
30 1 -22 21.6570 4.1831
30 1 -19 -29.1840 -1.1349
30 1 -16 3.7290 -4.9123
30 1 -13 18.7383 0.0613
30 1 -10 -35.8992 4.9484
30 1 -7 18.9846 1.2994
30 1 -4 -5.2236 -4.4580
30 1 -1 -2.9446 -2.8988
30 1 2 29.6213 3.6733
30 1 5 -8.6784 3.5677
30 1 8 28.3250 -2.6440
30 1 11 2.5243 -4.0220
30 1 14 7.4034 1.2149
30 1 17 1.3528 4.1926
30 1 20 18.1145 -0.4237
30 1 23 -10.6409 -3.6203
30 1 26 -1.0442 -0.8360
30 1 29 13.0322 3.1237
30 1 32 -0.3650 1.4931
30 1 35 7.6770 -2.3267
30 1 38 -8.3969 -2.2866
30 1 41 -12.7150 0.7275
30 1 44 6.8534 1.6875
30 2 -44 -1.6398 -1.3771
30 2 -41 1.6674 0.4152
30 2 -38 -5.2109 0.2571
30 2 -35 4.6480 -0.4170
30 2 -32 -18.8407 -1.6891
30 2 -29 -3.2641 -0.2207
30 2 -26 -15.0187 1.6243
30 2 -23 -3.7633 1.0875
30 2 -20 0.5091 -2.0023
30 2 -17 8.5923 -1.9206
30 2 -14 7.8263 1.5163
30 2 -11 12.4909 2.3392
30 2 -8 -3.7864 -0.7496
30 2 -5 -2.1317 -3.0214
30 2 -2 -14.3324 -0.3717
30 2 1 28.4868 2.9698
30 2 4 -33.7200 1.3167
30 2 7 27.3999 -2.8133
30 2 10 -12.6364 -2.0322
30 2 13 17.5709 1.8075
30 2 16 24.2634 2.7610
30 2 19 -23.2883 -1.0267
30 2 22 -15.3282 -3.0732
30 2 25 1.0959 0.1139
30 2 28 -1.5242 2.9188
30 2 31 -4.5658 0.8760
30 2 34 2.2134 -2.5358
30 2 37 9.7425 -2.2999
30 2 40 -1.6856 1.2394
30 2 43 -5.3571 1.1229
30 3 -42 -4.8215 1.7497
30 3 -39 10.8009 0.1168
30 3 -36 2.3106 -1.5978
30 3 -33 4.0601 -0.7113
30 3 -30 -7.0725 2.0277
30 3 -27 1.7115 2.2289
30 3 -24 -25.3513 -1.9114
30 3 -21 22.8409 -2.7696
30 3 -18 -8.5650 1.4053
30 3 -15 4.4446 3.1248
30 3 -12 -19.9431 -0.4339
30 3 -9 -5.9458 -3.0837
30 3 -6 -3.0969 -0.4404
30 3 -3 -2.1271 2.8855
30 3 0 -8.4754 1.5900
30 3 3 37.6157 -2.7551
30 3 6 7.1099 -2.6412
30 3 9 12.0850 1.6799
30 3 12 16.8682 2.7113
30 3 15 10.4739 -1.1150
30 3 18 1.1671 -2.8740
30 3 21 -2.7805 -0.3413
30 3 24 -8.3631 2.6502
30 3 27 6.6965 0.7573
30 3 30 5.8494 -2.2952
30 3 33 5.4156 -1.3905
30 3 36 8.3275 1.5798
30 3 39 12.9600 1.0051
30 3 42 -0.8401 -0.9151
30 4 -43 2.4010 0.1721
30 4 -40 8.3100 -0.0157
30 4 -37 -22.1784 0.2336
30 4 -34 -25.6649 -0.1212
30 4 -31 4.3114 0.1753
30 4 -28 -25.1055 0.8215
30 4 -25 -0.6081 -0.1237
30 4 -22 29.6466 -1.2224
30 4 -19 -11.4843 -0.0688
30 4 -16 25.6089 0.9500
30 4 -13 -4.7125 0.5209
30 4 -10 -10.0809 -0.8770
30 4 -7 48.7404 -0.9068
30 4 -4 -6.6635 0.5535
30 4 -1 -11.7200 1.1636
30 4 2 18.7326 -0.4445
30 4 5 12.1321 -1.6482
30 4 8 1.9958 -0.0220
30 4 11 -5.5729 1.4687
30 4 14 -4.9111 0.4417
30 4 17 0.5355 -1.4914
30 4 20 0.2993 -0.4680
30 4 23 -8.5825 1.2310
30 4 26 -12.9250 1.2126
30 4 29 24.2877 -0.3509
30 4 32 -5.5967 -1.0731
30 4 35 -39.4652 0.6191
30 4 38 3.7038 1.6737
30 4 41 0.6375 0.7305
30 5 -41 5.3011 -0.0182
30 5 -38 -8.5033 0.0765
30 5 -35 6.0354 1.0885
30 5 -32 -2.2039 1.0035
30 5 -29 2.9005 -0.1885
30 5 -26 3.7682 -1.3231
30 5 -23 7.2447 0.2473
30 5 -20 3.5667 0.7660
30 5 -17 10.2679 -0.0776
30 5 -14 -22.3687 -1.2730
30 5 -11 4.7817 -0.3569
30 5 -8 -19.2439 0.9854
30 5 -5 15.6493 0.7136
30 5 -2 -12.8851 -0.8008
30 5 1 12.7221 -0.9541
30 5 4 -0.9061 0.6824
30 5 7 12.0851 1.0117
30 5 10 -13.8667 -0.0621
30 5 13 9.9762 -0.9247
30 5 16 -0.7904 -0.2984
30 5 19 -11.2008 1.1105
30 5 22 7.3843 0.2650
30 5 25 4.5229 -0.7118
30 5 28 -2.4694 -0.5075
30 5 31 13.4009 0.4041
30 5 34 -1.5947 0.0539
30 5 37 3.8696 -0.8094
30 5 40 3.0455 -0.7848
30 6 -39 -1.0587 -1.0775
30 6 -36 -3.0642 0.0531
30 6 -33 -4.5424 0.6883
30 6 -30 -22.6566 1.2510
30 6 -27 22.8586 -0.4748
30 6 -24 -20.8084 -1.2235
30 6 -21 27.2337 0.4102
30 6 -18 2.8556 0.5462
30 6 -15 1.8334 -0.2231
30 6 -12 25.6315 -1.0319
30 6 -9 9.6206 -0.0506
30 6 -6 2.0982 1.1919
30 6 -3 15.3369 0.1361
30 6 0 -4.6299 -0.9332
30 6 3 5.0422 -0.3338
30 6 6 -26.5870 1.0288
30 6 9 6.5412 0.6954
30 6 12 -0.4904 -0.5587
30 6 15 -12.3319 -0.7168
30 6 18 -14.5162 -0.0299
30 6 21 -13.5975 0.7296
30 6 24 8.9509 -0.2310
30 6 27 -6.4442 -1.0546
30 6 30 5.2558 0.0394
30 6 33 -0.6611 0.1862
30 6 36 6.1336 -0.1601
30 6 39 15.9558 -1.2792
30 7 -40 8.1270 1.2248
30 7 -37 -20.3107 -0.1783
30 7 -34 9.9537 0.6128
30 7 -31 5.1564 0.3848
30 7 -28 -3.7741 0.7198
30 7 -25 25.1505 0.9024
30 7 -22 9.6606 -0.5224
30 7 -19 -7.5393 -0.9510
30 7 -16 14.9749 -0.0686
30 7 -13 -0.1083 1.0012
30 7 -10 11.2372 0.2026
30 7 -7 -5.8653 -0.8246
30 7 -4 -39.5258 -0.4338
30 7 -1 11.0186 0.8290
30 7 2 -0.8590 0.7231
30 7 5 -16.9581 -0.4520
30 7 8 7.5060 -1.0238
30 7 11 5.3083 0.3187
30 7 14 1.5404 1.1885
30 7 17 9.4867 -0.1665
30 7 20 -28.4364 -0.8568
30 7 23 20.1410 -0.2144
30 7 26 -6.4705 0.8786
30 7 29 -20.1288 0.8865
30 7 32 2.7982 0.2617
30 7 35 -10.0813 -1.1929
30 7 38 15.1998 0.6361
30 8 -38 -4.3552 -0.3982
30 8 -35 9.9473 -1.0793
30 8 -32 -1.1337 1.0779
30 8 -29 -7.7686 0.3773
30 8 -26 -1.8694 0.2797
30 8 -23 7.1701 -0.6066
30 8 -20 -13.7866 -0.2492
30 8 -17 18.4617 0.8764
30 8 -14 -15.9572 0.3452
30 8 -11 10.5332 -0.7766
30 8 -8 0.8839 -0.7990
30 8 -5 0.7633 0.4774
30 8 -2 -12.6827 0.7529
30 8 1 5.1101 -0.1932
30 8 4 -13.0033 -0.9134
30 8 7 5.8600 -0.0432
30 8 10 -4.9509 0.9001
30 8 13 -2.9758 0.5665
30 8 16 9.6532 -0.7538
30 8 19 -17.5790 -0.6485
30 8 22 6.6975 0.4066
30 8 25 18.9624 0.8510
30 8 28 -4.0582 -0.0548
30 8 31 3.7571 0.1930
30 8 34 13.1594 0.3508
30 8 37 -24.1272 0.7100
30 9 -36 2.7294 0.9526
30 9 -33 -5.8651 0.6782
30 9 -30 6.2368 0.6194
30 9 -27 19.6065 -0.5222
30 9 -24 -9.9408 -0.1828
30 9 -21 32.8221 1.0905
30 9 -18 -4.7299 0.7619
30 9 -15 10.1541 -0.2329
30 9 -12 -0.1251 -0.9714
30 9 -9 -9.8081 0.2286
30 9 -6 -5.0339 1.0345
30 9 -3 -16.6845 -0.1024
30 9 0 -20.5083 -1.1124
30 9 3 1.9103 -0.6061
30 9 6 1.0346 0.7976
30 9 9 7.2109 1.2142
30 9 12 -3.9087 -0.5925
30 9 15 -8.9310 -1.3841
30 9 18 16.7130 0.2316
30 9 21 -6.1759 1.3157
30 9 24 11.6474 -0.0288
30 9 27 -3.5565 -1.1449
30 9 30 4.1697 -0.4853
30 9 33 7.5182 0.9705
30 9 36 -6.4403 1.5917
30 10 -34 -1.8712 -0.1614
30 10 -31 9.9605 0.2037
30 10 -28 -7.5162 0.7176
30 10 -25 2.8659 -0.6570
30 10 -22 3.7427 0.2070
30 10 -19 -6.1840 0.4612
30 10 -16 13.6331 0.6880
30 10 -13 -4.2810 -0.3952
30 10 -10 -8.7321 -0.4480
30 10 -7 -3.5835 0.0617
30 10 -4 -7.4683 0.7112
30 10 -1 12.1877 0.0244
30 10 2 -1.3772 -0.6862
30 10 5 -8.6599 -0.3288
30 10 8 13.1414 0.7920
30 10 11 -1.2774 0.4160
30 10 14 -21.8870 -0.7397
30 10 17 11.0022 -0.3929
30 10 20 -5.1823 0.5776
30 10 23 4.8558 0.1735
30 10 26 6.6307 -0.3306
30 10 29 -7.0473 -0.7887
30 10 32 27.2469 -0.5132
30 10 35 -7.7854 0.2249
30 11 -35 1.4272 -0.6342
30 11 -32 5.0108 1.4178
30 11 -29 -5.1181 -0.0904
30 11 -26 8.1951 0.3278
30 11 -23 20.3250 0.8736
30 11 -20 -5.4650 0.5088
30 11 -17 17.6924 -0.0085
30 11 -14 -10.0718 -0.2205
30 11 -11 -3.7836 0.0726
30 11 -8 -10.7501 0.1141
30 11 -5 -14.9518 0.0586
30 11 -2 -13.7121 -0.1230
30 11 1 4.2446 -0.4137
30 11 4 -8.1453 -0.1730
30 11 7 -4.2865 0.5088
30 11 10 9.4820 -0.1035
30 11 13 2.2692 -0.4663
30 11 16 -4.5476 0.0905
30 11 19 14.8643 0.4515
30 11 22 8.5893 -0.5260
30 11 25 18.3266 -0.7052
30 11 28 -16.4489 -0.3845
30 11 31 -5.6351 -0.4021
30 11 34 3.4170 0.0337
30 12 -33 -11.5726 -0.1755
30 12 -30 3.3414 -0.2522
30 12 -27 -1.5703 -0.1977
30 12 -24 1.3341 0.8513
30 12 -21 11.3199 -0.2815
30 12 -18 -6.4176 -0.3406
30 12 -15 1.5923 -0.3822
30 12 -12 7.3982 0.2300
30 12 -9 -8.2962 0.4025
30 12 -6 3.8627 -0.3427
30 12 -3 -6.0171 -0.2224
30 12 0 12.5759 0.3686
30 12 3 18.8979 0.3209
30 12 6 -9.7549 -0.1435
30 12 9 -6.5626 -0.4186
30 12 12 15.3856 0.0718
30 12 15 -21.9296 -0.0919
30 12 18 10.3481 0.1287
30 12 21 -5.1192 -0.5129
30 12 24 -4.2556 0.1872
30 12 27 2.0421 0.1719
30 12 30 -2.1079 0.7776
30 12 33 -8.7608 0.1971
30 13 -31 -1.1691 0.0830
30 13 -28 -1.9848 1.1032
30 13 -25 -7.5840 -0.2453
30 13 -22 11.3173 -0.1919
30 13 -19 -7.5805 0.2249
30 13 -16 -1.4756 -0.1479
30 13 -13 -4.4722 -0.3040
30 13 -10 -2.2061 -0.4339
30 13 -7 -17.2231 0.4590
30 13 -4 4.2396 0.6856
30 13 -1 -5.7924 -0.2736
30 13 2 5.9965 -0.4788
30 13 5 0.7194 -0.2944
30 13 8 -0.3835 0.3478
30 13 11 10.7677 0.7170
30 13 14 1.2786 -0.1782
30 13 17 15.0838 0.1071
30 13 20 12.3616 -0.4853
30 13 23 2.5167 1.1539
30 13 26 14.7163 -0.8403
30 13 29 3.7500 -0.0522
30 14 -29 -3.0836 0.9018
30 14 -26 8.3065 -0.2057
30 14 -23 4.8804 -0.1466
30 14 -20 -10.2378 0.7138
30 14 -17 9.7107 -0.2334
30 14 -14 0.0765 -0.6382
30 14 -11 -0.2368 -0.8503
30 14 -8 -7.2842 0.4576
30 14 -5 24.9392 0.6611
30 14 -2 -3.7219 0.2183
30 14 1 2.1711 -0.4189
30 14 4 -0.1897 -0.2018
30 14 7 -0.9834 0.4596
30 14 10 -1.2251 0.1781
30 14 13 0.2824 -0.8076
30 14 16 -9.2926 -0.2727
30 14 19 10.4631 -0.0116
30 14 22 -16.1691 0.8159
30 14 25 -5.4177 -0.1560
30 14 28 -4.2685 -0.2232
30 15 -27 -2.7553 1.0962
30 15 -24 -4.9149 0.5994
30 15 -21 -3.6973 -0.3062
30 15 -18 -1.2039 0.0112
30 15 -15 -0.3522 -0.1491
30 15 -12 6.7427 -0.2662
30 15 -9 -9.8712 0.8383
30 15 -6 13.4611 -0.1577
30 15 -3 -0.2757 0.3101
30 15 0 -7.5499 0.6263
30 15 3 -2.4560 0.2520
30 15 6 -3.3417 -0.2356
30 15 9 2.1003 -0.1092
30 15 12 13.5138 -0.9781
30 15 15 -14.4196 0.2162
30 15 18 9.8744 -0.0041
30 15 21 7.4413 -0.2341
30 15 24 -0.1341 -0.0138
30 15 27 4.1279 -0.4209
30 16 -22 5.6430 0.4761
30 16 -19 -1.4862 0.1710
30 16 -16 5.6573 -0.5883
30 16 -13 11.2882 -0.6365
30 16 -10 -1.6175 0.1853
30 16 -7 -6.2568 0.2457
30 16 -4 9.6720 -0.4032
30 16 -1 4.3260 -0.0732
30 16 2 -3.5070 -0.2075
30 16 5 4.3315 0.2006
30 16 8 3.6415 -0.0937
30 16 11 -9.1098 -0.4761
30 16 14 4.5744 -0.0919
30 16 17 -10.2776 0.4237
30 16 20 6.8574 -0.5680
30 16 23 -11.6614 -0.6127
30 17 -20 3.7046 0.7491
30 17 -17 11.4605 -0.4945
30 17 -14 1.0698 -0.9750
30 17 -11 -3.3090 -0.1962
30 17 -8 3.8714 -0.5932
30 17 -5 1.8537 -0.3391
30 17 -2 -3.3729 0.5311
30 17 1 -5.6728 0.0884
30 17 4 -1.5236 -0.3628
30 17 7 4.2022 0.1363
30 17 10 -5.3971 -0.2754
30 17 13 17.7645 -0.0007
30 17 16 -12.0594 0.3592
30 17 19 -3.4231 0.9121
30 18 -18 2.2405 0.7270
30 18 -15 -5.1896 -1.5109
30 18 -12 4.8060 -1.0360
30 18 -9 -6.5021 -0.7355
30 18 -6 1.4508 -0.5309
30 18 -3 3.5017 1.5175
30 18 0 -1.9265 0.2515
30 18 3 19.2430 -0.8147
30 18 6 10.3869 -0.7858
30 18 9 -4.6697 0.7086
30 18 12 0.1588 -0.4164
30 18 15 -11.3484 -0.8291
30 18 18 6.6987 1.0905
30 19 -13 2.3200 0.1424
30 19 -10 -2.7364 -2.2972
30 19 -7 2.9825 -0.0142
30 19 -4 4.4239 0.9392
30 19 -1 -2.4020 0.3161
30 19 2 0.1340 -1.1069
30 19 5 1.7360 -0.8162
30 19 8 -7.8353 0.0551
30 19 11 -5.1428 1.7147
30 20 -5 5.2361 -0.1970
30 20 -2 1.5827 1.3843
30 20 1 2.2571 0.1478
30 20 4 -4.8420 -1.3162
31 1 -42 -4.7983 2.4251
31 1 -39 9.7204 -0.5919
31 1 -36 5.5800 -3.1965
31 1 -33 -3.3301 -0.5088
31 1 -30 0.7991 3.3558
31 1 -27 -11.6856 1.7420
31 1 -24 -14.0810 -2.7389
31 1 -21 -4.3380 -2.2121
31 1 -18 4.1380 1.7400
31 1 -15 22.6149 3.1869
31 1 -12 -6.7444 -0.4125
31 1 -9 2.9461 -3.0163
31 1 -6 -11.6568 -0.5894
31 1 -3 0.2266 3.0913
31 1 0 3.5971 1.8687
31 1 3 -18.4575 -2.1570
31 1 6 6.9500 -2.1213
31 1 9 39.2491 1.3209
31 1 12 -20.7682 2.1875
31 1 15 12.1126 -0.3326
31 1 18 -2.7389 -2.3785
31 1 21 -11.7975 -0.6996
31 1 24 7.6342 1.7619
31 1 27 10.1439 1.1575
31 1 30 -22.3308 -1.0921
31 1 33 36.7989 -1.7307
31 1 36 8.5580 -0.1008
31 1 39 -1.5638 0.7206
31 1 42 2.4853 -0.0442
31 2 -43 3.6615 2.1337
31 2 -40 -2.9168 0.4958
31 2 -37 -6.9245 -0.7878
31 2 -34 6.5041 -0.3987
31 2 -31 -7.9462 1.2108
31 2 -28 -6.6434 1.5993
31 2 -25 15.0707 -0.3711
31 2 -22 -2.0001 -1.7057
31 2 -19 36.5669 0.3406
31 2 -16 32.8829 2.1935
31 2 -13 3.7612 0.2793
31 2 -10 45.9926 -1.8982
31 2 -7 -2.4709 -0.7776
31 2 -4 -12.7756 2.0211
31 2 -1 -5.5488 1.4069
31 2 2 -0.9967 -1.6165
31 2 5 -3.6735 -1.9848
31 2 8 10.6089 1.1629
31 2 11 -38.0471 2.6840
31 2 14 4.8793 -0.0843
31 2 17 0.0034 -2.2811
31 2 20 7.5370 -0.5833
31 2 23 -12.7151 2.6333
31 2 26 10.2279 1.2061
31 2 29 -10.5860 -2.0943
31 2 32 11.0669 -1.4382
31 2 35 4.8536 1.0202
31 2 38 -4.3107 1.0097
31 2 41 5.5822 -0.7839
31 2 44 1.3685 -3.0853
31 3 -41 -1.0474 0.7653
31 3 -38 3.5013 0.6410
31 3 -35 6.0228 0.2265
31 3 -32 8.2783 -0.3029
31 3 -29 1.6192 0.0052
31 3 -26 -3.4275 1.1291
31 3 -23 7.9481 0.5374
31 3 -20 25.0856 -0.8760
31 3 -17 -5.8226 -0.1903
31 3 -14 -4.3176 0.5699
31 3 -11 -14.4870 0.6851
31 3 -8 -13.2120 -0.4140
31 3 -5 -18.1252 -0.7283
31 3 -2 -15.5874 0.4570
31 3 1 -1.3755 0.9797
31 3 4 20.7531 -0.5696
31 3 7 2.8228 -0.8377
31 3 10 -19.8106 0.6290
31 3 13 28.8113 1.0402
31 3 16 15.4208 -0.1283
31 3 19 22.7753 -1.3307
31 3 22 -1.8862 -0.2381
31 3 25 -2.4022 0.9324
31 3 28 16.2923 -0.0735
31 3 31 -15.8072 -1.4468
31 3 34 -11.3393 0.0054
31 3 37 4.4526 0.3454
31 3 40 0.6780 1.1828
31 3 43 -0.5833 -0.2710
31 4 -42 -3.9726 -0.3385
31 4 -39 13.9232 -0.5130
31 4 -36 -9.7285 0.2192
31 4 -33 -1.7597 0.8132
31 4 -30 0.4025 0.6722
31 4 -27 -0.0522 -0.7310
31 4 -24 3.0579 -0.2896
31 4 -21 20.4155 1.4582
31 4 -18 -1.9235 0.7411
31 4 -15 14.3031 -0.8557
31 4 -12 -3.8258 -1.2768
31 4 -9 10.4766 0.5417
31 4 -6 26.5276 1.5722
31 4 -3 -5.9111 -0.2732
31 4 0 0.5637 -1.8217
31 4 3 -8.3019 -0.2647
31 4 6 -6.2106 1.3684
31 4 9 -5.1181 0.6929
31 4 12 -24.0945 -1.4362
31 4 15 12.4108 -0.9456
31 4 18 2.7787 1.1142
31 4 21 6.9039 1.1858
31 4 24 -12.9001 -0.5324
31 4 27 12.7935 -1.4187
31 4 30 11.2249 -0.1340
31 4 33 1.7276 1.6618
31 4 36 8.7168 0.9084
31 4 39 -13.9723 -0.5957
31 4 42 2.3318 1.6409
31 5 -40 8.3008 -0.6700
31 5 -37 -14.2858 -0.2475
31 5 -34 12.8509 0.1979
31 5 -31 -17.8622 0.3421
31 5 -28 12.6077 0.5111
31 5 -25 7.9394 -0.6924
31 5 -22 -9.6265 -0.2065
31 5 -19 17.4998 0.7817
31 5 -16 -6.9408 0.6285
31 5 -13 -8.0733 -0.3686
31 5 -10 14.5114 -0.7559
31 5 -7 -28.5626 0.4806
31 5 -4 3.8256 1.1128
31 5 -1 2.3080 -0.2045
31 5 2 -15.4962 -1.1834
31 5 5 2.9449 0.0099
31 5 8 6.7524 1.1655
31 5 11 6.3844 0.3524
31 5 14 29.7456 -0.7570
31 5 17 -2.8954 -0.3309
31 5 20 17.2397 0.8676
31 5 23 -3.2914 0.4425
31 5 26 -5.1775 -0.5944
31 5 29 11.4896 -0.9604
31 5 32 -5.0537 -0.4691
31 5 35 -4.8361 0.6867
31 5 38 1.7047 0.0655
31 5 41 -8.6385 -1.1207
31 6 -38 -11.9209 -0.2785
31 6 -35 12.3854 -0.3354
31 6 -32 -7.3311 -0.7426
31 6 -29 -5.4196 0.0863
31 6 -26 9.8451 1.4922
31 6 -23 -3.7038 -0.0414
31 6 -20 -2.1996 -1.1569
31 6 -17 -5.6198 -0.1777
31 6 -14 7.2420 1.3975
31 6 -11 3.8023 0.4769
31 6 -8 -3.5276 -0.9559
31 6 -5 -9.6333 -1.1032
31 6 -2 17.5964 0.7705
31 6 1 -16.9580 1.5683
31 6 4 16.5003 -0.5511
31 6 7 -17.1445 -1.4855
31 6 10 22.9923 -0.1144
31 6 13 16.6130 1.4884
31 6 16 -5.8122 0.3111
31 6 19 -10.2826 -1.4391
31 6 22 14.8971 -0.8899
31 6 25 -24.0892 0.6252
31 6 28 20.0520 1.0235
31 6 31 -3.4997 -0.7457
31 6 34 3.1630 -1.5042
31 6 37 9.8311 0.0598
31 6 40 4.1155 -1.0501
31 7 -36 -7.8077 -0.8681
31 7 -33 -5.3175 0.3170
31 7 -30 4.0011 0.6628
31 7 -27 -3.3575 -0.5852
31 7 -24 -3.5780 -0.0541
31 7 -21 3.8872 0.0340
31 7 -18 -7.4323 0.1242
31 7 -15 23.7811 -0.2830
31 7 -12 -0.9891 -0.2801
31 7 -9 12.3466 0.3459
31 7 -6 5.3323 0.4451
31 7 -3 -22.4480 -0.1795
31 7 0 1.1075 0.0729
31 7 3 16.4002 0.2983
31 7 6 -1.1447 0.0336
31 7 9 18.5208 -0.0003
31 7 12 -1.2781 0.3575
31 7 15 26.2608 -0.0895
31 7 18 -17.8333 0.2619
31 7 21 4.9260 -0.0915
31 7 24 -6.0532 -0.2579
31 7 27 10.4966 0.5084
31 7 30 -1.3925 0.9417
31 7 33 -20.6763 -0.2906
31 7 36 -9.9331 -0.1580
31 8 -37 -6.9924 -0.1086
31 8 -34 9.0883 0.8802
31 8 -31 -8.4066 0.0777
31 8 -28 11.3931 -0.1888
31 8 -25 -18.0896 0.1688
31 8 -22 -8.3904 0.7096
31 8 -19 4.0084 0.2609
31 8 -16 -2.8824 -0.1700
31 8 -13 -9.3859 -0.4554
31 8 -10 12.6933 -0.2554
31 8 -7 -9.8672 0.8536
31 8 -4 7.8511 0.2545
31 8 -1 3.7597 -0.8864
31 8 2 12.3794 -0.4645
31 8 5 21.4472 0.8627
31 8 8 12.4050 0.6229
31 8 11 -1.2824 -0.3616
31 8 14 24.7085 -0.8619
31 8 17 -6.3875 0.1686
31 8 20 -6.2010 0.9018
31 8 23 14.9703 -0.1088
31 8 26 -5.7435 -0.4091
31 8 29 4.7056 -0.0642
31 8 32 5.0924 1.0203
31 8 35 -9.7906 1.4277
31 9 -35 6.7421 -0.6261
31 9 -32 2.7965 0.9971
31 9 -29 -10.6948 0.7939
31 9 -26 -3.8296 0.2533
31 9 -23 -12.2355 -0.5807
31 9 -20 9.1951 0.6707
31 9 -17 8.5151 0.2120
31 9 -14 3.6096 -0.6383
31 9 -11 -8.9161 -1.0718
31 9 -8 17.2840 0.1509
31 9 -5 -10.1620 0.9551
31 9 -2 7.9870 0.5221
31 9 1 -6.3473 -0.3519
31 9 4 8.6990 -0.1638
31 9 7 2.8899 0.2267
31 9 10 2.7212 0.5691
31 9 13 -13.5474 0.0852
31 9 16 6.2490 -0.6061
31 9 19 -9.1205 0.3722
31 9 22 9.8750 0.5876
31 9 25 -6.7724 0.2337
31 9 28 2.6814 -0.4452
31 9 31 7.6964 1.1774
31 9 34 -10.1414 0.5980
31 10 -33 3.3723 -0.4055
31 10 -30 0.2534 0.7152
31 10 -27 -11.0495 0.2477
31 10 -24 7.4210 1.3521
31 10 -21 2.1336 -0.0021
31 10 -18 -2.5667 -0.5530
31 10 -15 17.6601 -0.0123
31 10 -12 -8.5729 0.5581
31 10 -9 6.5532 0.0910
31 10 -6 5.3866 -0.9488
31 10 -3 -3.7115 -0.5750
31 10 0 23.3962 0.7991
31 10 3 1.8354 0.9001
31 10 6 -5.1605 -0.2782
31 10 9 13.9166 -0.5749
31 10 12 -17.5297 0.0910
31 10 15 3.7198 0.8742
31 10 18 -5.5610 0.2250
31 10 21 -0.2213 -0.5253
31 10 24 -8.5455 -0.4983
31 10 27 -6.7934 0.2534
31 10 30 -3.1858 0.3716
31 10 33 1.3247 -0.7963
31 11 -31 -15.5291 -0.2254
31 11 -28 2.8505 0.3123
31 11 -25 -2.4057 0.8382
31 11 -22 6.0501 0.8420
31 11 -19 10.7687 -0.5440
31 11 -16 1.5120 0.1883
31 11 -13 1.8255 0.3569
31 11 -10 12.4268 -0.6329
31 11 -7 -15.3171 -0.4710
31 11 -4 6.5517 -0.2248
31 11 -1 14.3081 0.4656
31 11 2 -10.5788 0.4038
31 11 5 1.3722 -0.2153
31 11 8 -11.4233 -0.0599
31 11 11 -2.3630 0.0337
31 11 14 0.4653 0.1703
31 11 17 -3.9083 -0.0917
31 11 20 -14.0539 -0.5368
31 11 23 14.8281 -0.1695
31 11 26 5.6260 -0.0843
31 11 29 -7.7415 -0.2548
31 11 32 6.3201 -0.3660
31 12 -29 -1.6926 -0.4050
31 12 -26 1.2306 0.8675
31 12 -23 10.4769 0.0233
31 12 -20 5.6211 1.1946
31 12 -17 3.7368 -0.1259
31 12 -14 -7.6153 -0.4900
31 12 -11 9.5068 -0.5259
31 12 -8 6.3178 -0.1821
31 12 -5 -2.0531 -0.0140
31 12 -2 11.4982 -0.2391
31 12 1 -0.8071 -0.2267
31 12 4 3.1879 0.2280
31 12 7 -8.0898 0.3225
31 12 10 -0.0601 0.0377
31 12 13 0.8288 0.1494
31 12 16 9.2304 -0.2953
31 12 19 -23.7286 0.7961
31 12 22 7.5302 0.0152
31 12 25 6.6043 0.6381
31 12 28 -11.3411 0.0774
31 12 31 -2.4155 1.0265
31 13 -27 -3.8280 0.0875
31 13 -24 9.0712 0.1787
31 13 -21 -6.0122 -0.5203
31 13 -18 -4.4202 0.3517
31 13 -15 19.2254 0.0970
31 13 -12 -16.4845 -0.3720
31 13 -9 19.4609 -0.5554
31 13 -6 2.5390 -0.5193
31 13 -3 -3.0771 0.6394
31 13 0 0.8605 0.4975
31 13 3 2.2880 0.0147
31 13 6 -9.4158 -0.3370
31 13 9 11.6987 0.2035
31 13 12 -8.9170 0.5055
31 13 15 9.8935 -0.3129
31 13 18 1.5847 0.0266
31 13 21 4.0083 0.0078
31 13 24 0.0069 0.1948
31 13 27 0.4970 -0.3029
31 14 -25 7.2359 -0.3524
31 14 -22 -7.3113 0.7852
31 14 -19 -1.6808 -0.7854
31 14 -16 3.8201 0.5174
31 14 -13 -3.4322 0.1669
31 14 -10 4.8911 -0.7076
31 14 -7 -14.3272 -0.2863
31 14 -4 3.3424 -0.2024
31 14 -1 -8.0029 0.3129
31 14 2 -6.5404 0.5826
31 14 5 -0.6459 -0.3709
31 14 8 0.8018 -0.1720
31 14 11 4.3476 0.4965
31 14 14 -4.4655 0.1403
31 14 17 7.8435 -0.0986
31 14 20 6.5560 0.2033
31 14 23 -2.1261 0.7259
31 14 26 -8.3440 -1.3543
31 15 -23 5.7964 0.7000
31 15 -20 -2.0413 0.4014
31 15 -17 11.6835 -0.3559
31 15 -14 -3.2237 -0.0208
31 15 -11 7.4194 0.0587
31 15 -8 -9.0358 -0.5029
31 15 -5 1.3918 -0.3810
31 15 -2 -1.7911 -0.0706
31 15 1 -14.3424 1.2405
31 15 4 -5.7038 0.2321
31 15 7 5.5623 -1.0724
31 15 10 5.2453 -0.1921
31 15 13 11.1591 0.6251
31 15 16 -8.7204 -0.4854
31 15 19 -2.5909 -0.0184
31 15 22 -1.2292 -0.1342
31 16 -21 -2.1851 0.0106
31 16 -18 3.5843 1.1110
31 16 -15 -2.7756 0.5989
31 16 -12 -12.4880 -0.6362
31 16 -9 4.5311 0.0667
31 16 -6 -9.3586 -0.2682
31 16 -3 1.0999 0.2704
31 16 0 -1.3535 1.3684
31 16 3 -0.2453 -0.1143
31 16 6 2.8425 -0.6100
31 16 9 13.1285 -0.7903
31 16 12 -1.9017 0.0755
31 16 15 -3.3642 -0.6051
31 16 18 1.1245 -0.8167
31 16 21 7.1168 -0.4426
31 17 -16 -3.1014 -0.3534
31 17 -13 4.5866 -0.4520
31 17 -10 -0.1234 -0.1444
31 17 -7 0.0484 -0.0303
31 17 -4 -5.3482 0.4025
31 17 -1 3.8112 0.5112
31 17 2 1.7421 -0.0609
31 17 5 3.1083 -0.3329
31 17 8 -17.0490 0.0014
31 17 11 -0.7286 0.1484
31 17 14 -8.3748 0.0534
31 17 17 5.4845 1.0282
31 18 -11 -5.8997 -0.3549
31 18 -8 -3.9952 -0.7116
31 18 -5 1.1950 0.2198
31 18 -2 -1.8022 0.9169
31 18 1 -1.9742 -0.2503
31 18 4 5.3716 -0.1508
31 18 7 -5.1923 -0.5132
31 18 10 9.8557 -0.1518
31 19 -3 2.6179 1.4538
31 19 0 -6.7406 0.6584
31 19 3 -2.4660 -1.0954
32 1 -41 1.1121 1.9702
32 1 -38 12.9708 1.3613
32 1 -35 8.3491 -1.7461
32 1 -32 12.5409 -1.8788
32 1 -29 1.4148 1.6831
32 1 -26 1.1123 2.5745
32 1 -23 -8.1205 -1.1110
32 1 -20 -21.2078 -3.2661
32 1 -17 1.2585 0.5105
32 1 -14 -11.2368 3.5102
32 1 -11 -24.3670 0.0346
32 1 -8 -8.4608 -3.5816
32 1 -5 -14.6345 -0.8914
32 1 -2 5.2594 3.4113
32 1 1 3.1640 1.8205
32 1 4 6.3068 -2.9977
32 1 7 -18.4529 -2.5545
32 1 10 16.0731 2.3454
32 1 13 7.8224 3.1828
32 1 16 5.4569 -1.5544
32 1 19 18.4459 -3.1271
32 1 22 -9.9100 0.6540
32 1 25 21.5941 3.0257
32 1 28 -10.1693 -0.1109
32 1 31 9.8095 -2.4902
32 1 34 7.1863 -1.0629
32 1 37 -7.2849 1.9011
32 1 40 8.5899 1.1365
32 1 43 -6.0930 -2.0023
32 2 -42 -1.2426 0.4734
32 2 -39 -1.6532 -1.0870
32 2 -36 -9.3702 -0.1860
32 2 -33 5.6535 0.4557
32 2 -30 -8.0083 0.9120
32 2 -27 -7.8303 -0.0203
32 2 -24 -3.4181 -1.0200
32 2 -21 -27.2282 -0.2708
32 2 -18 25.9452 1.1980
32 2 -15 -40.1104 1.0882
32 2 -12 30.9451 -1.2851
32 2 -9 19.5596 -1.2213
32 2 -6 21.5247 0.8064
32 2 -3 17.0327 1.5074
32 2 0 17.9789 -0.2640
32 2 3 -26.1931 -1.6063
32 2 6 20.4409 -0.3201
32 2 9 -25.9321 1.3351
32 2 12 11.1654 0.7638
32 2 15 0.8391 -1.1808
32 2 18 -7.3199 -1.2197
32 2 21 -20.6146 0.7819
32 2 24 15.5186 1.3664
32 2 27 -25.7339 -0.2954
32 2 30 -4.7925 -1.2550
32 2 33 1.2753 0.1995
32 2 36 0.4194 0.7930
32 2 39 3.3853 -0.1851
32 2 42 6.2125 -1.5021
32 3 -40 8.6738 -0.7240
32 3 -37 -3.4445 -0.0432
32 3 -34 10.1191 1.4186
32 3 -31 -3.9282 0.5959
32 3 -28 5.3836 -1.7912
32 3 -25 -20.7247 -1.8543
32 3 -22 -2.9824 1.7857
32 3 -19 1.0245 2.9384
32 3 -16 -28.3225 -1.6086
32 3 -13 8.0394 -3.4276
32 3 -10 -3.9011 0.6740
32 3 -7 -6.4311 3.7781
32 3 -4 12.3918 0.0656
32 3 -1 -28.2191 -3.8831
32 3 2 4.4042 -1.5975
32 3 5 8.8279 3.1663
32 3 8 6.3301 2.3367
32 3 11 -1.4177 -2.4806
32 3 14 9.0465 -3.0907
32 3 17 20.1429 1.2967
32 3 20 6.7841 3.4243
32 3 23 1.4792 -0.2838
32 3 26 -1.9574 -3.1083
32 3 29 -6.4060 -0.5183
32 3 32 14.2237 2.9287
32 3 35 -19.5264 1.2709
32 3 38 -4.5210 -1.7384
32 3 41 6.7853 -1.0696
32 4 -38 -12.7150 0.1512
32 4 -35 8.8382 -0.8633
32 4 -32 -8.3665 0.2484
32 4 -29 -15.1286 0.0553
32 4 -26 -2.9760 -0.1102
32 4 -23 -5.9373 0.6607
32 4 -20 -4.1345 0.4896
32 4 -17 0.7326 -0.2495
32 4 -14 -5.0748 -0.4275
32 4 -11 11.8989 -0.0101
32 4 -8 1.0473 0.2767
32 4 -5 20.3909 0.3364
32 4 -2 8.5452 -0.5163
32 4 1 -2.0882 -0.6028
32 4 4 -11.9931 0.4019
32 4 7 5.5959 0.9680
32 4 10 -1.1455 -0.3150
32 4 13 -9.9422 -1.0412
32 4 16 -12.1127 0.2150
32 4 19 3.0619 0.7972
32 4 22 -16.9983 0.5962
32 4 25 7.8457 -0.8413
32 4 28 -3.2171 -0.6876
32 4 31 3.8866 0.8450
32 4 34 4.7105 1.8093
32 4 37 0.2330 -0.1766
32 4 40 2.6019 -0.2617
32 5 -39 -8.0365 -1.0173
32 5 -36 15.1918 0.7382
32 5 -33 -5.3838 -0.9567
32 5 -30 -1.7651 -0.8030
32 5 -27 9.9789 1.4635
32 5 -24 8.5261 1.8939
32 5 -21 -15.3123 -0.4851
32 5 -18 23.6138 -1.1400
32 5 -15 -0.1780 0.1752
32 5 -12 7.1334 1.3407
32 5 -9 -4.1759 -0.0147
32 5 -6 -10.5376 -1.7358
32 5 -3 -2.2973 -0.6247
32 5 0 -3.4027 1.8681
32 5 3 -22.3659 0.9430
32 5 6 10.1820 -1.2340
32 5 9 -9.8105 -1.2524
32 5 12 8.9727 0.8061
32 5 15 -17.1839 1.6643
32 5 18 1.9612 -0.4608
32 5 21 11.1837 -1.8037
32 5 24 -9.4254 -0.3484
32 5 27 5.5056 1.4730
32 5 30 3.8298 -0.9743
32 5 33 1.7348 -1.6713
32 5 36 13.5447 -1.8376
32 5 39 -4.8495 -0.0054
32 6 -37 1.9210 -0.6278
32 6 -34 -12.5752 0.7660
32 6 -31 3.4053 -1.2469
32 6 -28 4.3432 0.1573
32 6 -25 -9.8170 0.8859
32 6 -22 15.3996 1.0416
32 6 -19 -6.8110 0.2574
32 6 -16 -4.6136 -0.8272
32 6 -13 18.4020 0.5378
32 6 -10 -0.9945 0.9822
32 6 -7 3.0949 -0.1607
32 6 -4 16.4913 -1.0234
32 6 -1 -7.4892 -0.2370
32 6 2 8.3243 0.8100
32 6 5 1.4253 0.3068
32 6 8 -14.8209 -0.6001
32 6 11 20.0336 -0.5566
32 6 14 -16.2724 0.5049
32 6 17 -9.9748 0.8332
32 6 20 3.5106 -0.5137
32 6 23 -11.8668 -0.9602
32 6 26 0.8863 0.3385
32 6 29 -2.6495 -0.0743
32 6 32 -4.6754 -0.3574
32 6 35 -0.0787 -0.4218
32 6 38 1.1064 -0.7560
32 7 -35 -1.5217 -1.0954
32 7 -32 4.4699 0.8069
32 7 -29 4.2395 -0.2595
32 7 -26 5.3558 0.6797
32 7 -23 11.1544 0.3045
32 7 -20 -6.3168 0.7628
32 7 -17 14.7441 0.7024
32 7 -14 -15.0583 0.2274
32 7 -11 19.0092 -0.3594
32 7 -8 -11.8297 -0.1862
32 7 -5 10.4934 0.6019
32 7 -2 -22.4622 0.4346
32 7 1 -0.3874 -0.3926
32 7 4 -3.0708 -0.4429
32 7 7 -2.3577 0.2388
32 7 10 -8.7388 0.5154
32 7 13 -1.5375 -0.2492
32 7 16 -7.5243 -0.3709
32 7 19 11.3572 -0.1537
32 7 22 -12.3635 0.5332
32 7 25 5.7963 0.3812
32 7 28 3.2476 0.0971
32 7 31 -5.2829 -0.5292
32 7 34 4.9261 0.7848
32 8 -33 -0.5077 -0.6376
32 8 -30 -1.8791 0.3982
32 8 -27 11.5089 -0.7442
32 8 -24 -11.9366 0.1922
32 8 -21 -2.6995 0.1858
32 8 -18 14.2239 0.6757
32 8 -15 -7.6557 -0.1592
32 8 -12 4.3847 -0.1184
32 8 -9 16.3624 0.3153
32 8 -6 12.4668 0.4807
32 8 -3 -8.4312 -0.3284
32 8 0 0.2694 -0.5988
32 8 3 2.0430 -0.1084
32 8 6 1.3153 0.4573
32 8 9 -8.9155 0.3046
32 8 12 -6.4669 -0.2639
32 8 15 7.4168 -0.2210
32 8 18 7.4816 0.0881
32 8 21 -1.9876 0.6233
32 8 24 -13.9720 -0.3697
32 8 27 14.1073 0.1085
32 8 30 -0.6206 -0.0283
32 8 33 -6.7002 0.5074
32 9 -31 17.4699 -1.8525
32 9 -28 -2.1708 1.0049
32 9 -25 -11.3474 0.2171
32 9 -22 7.7406 0.7275
32 9 -19 -1.5102 -1.0136
32 9 -16 -16.9269 0.0981
32 9 -13 27.2614 1.1302
32 9 -10 -32.8887 0.5922
32 9 -7 10.8012 -0.6413
32 9 -4 -12.4650 -1.0659
32 9 -1 -19.8727 0.3927
32 9 2 1.4321 1.2583
32 9 5 -0.8213 0.1156
32 9 8 -17.4337 -0.9552
32 9 11 8.0886 -0.7227
32 9 14 -9.2639 1.0993
32 9 17 11.2386 0.2211
32 9 20 9.8629 -0.3163
32 9 23 -11.7349 -0.7019
32 9 26 7.1761 0.0652
32 9 29 0.1550 0.8801
32 9 32 4.7792 0.2801
32 10 -32 0.6092 0.6083
32 10 -29 8.7636 -1.4717
32 10 -26 -10.9611 0.3516
32 10 -23 16.3679 0.3438
32 10 -20 -12.1805 0.6821
32 10 -17 3.3685 -0.7698
32 10 -14 0.0595 0.2296
32 10 -11 8.5134 0.4346
32 10 -8 -17.6843 0.1201
32 10 -5 10.6378 -0.1376
32 10 -2 -11.6031 -0.1211
32 10 1 -7.6629 0.3052
32 10 4 -1.0790 0.1333
32 10 7 -5.5113 -0.4629
32 10 10 -10.2594 -0.3740
32 10 13 22.5540 0.2128
32 10 16 -14.2760 0.3287
32 10 19 2.7690 0.0351
32 10 22 6.7547 -0.2201
32 10 25 6.8091 0.3048
32 10 28 0.4322 -0.1446
32 10 31 4.5958 0.2519
32 11 -30 -4.8498 -0.1213
32 11 -27 13.2916 -1.1860
32 11 -24 -5.2235 0.9438
32 11 -21 -0.8417 -0.5120
32 11 -18 2.0748 0.3128
32 11 -15 -1.4222 0.2333
32 11 -12 -3.4134 0.2644
32 11 -9 10.3734 0.0603
32 11 -6 -15.6831 -0.2793
32 11 -3 -4.7346 -0.1596
32 11 0 3.9815 0.1621
32 11 3 -4.3049 0.6665
32 11 6 3.8288 -0.1976
32 11 9 -3.1259 -0.8158
32 11 12 14.5585 0.2346
32 11 15 14.9104 0.0180
32 11 18 -14.8714 -0.0572
32 11 21 14.6335 -1.1547
32 11 24 -0.1470 1.2700
32 11 27 -3.8297 -0.0067
32 11 30 0.0069 0.2428
32 12 -28 -6.2524 0.8713
32 12 -25 1.2496 -0.3862
32 12 -22 -8.5800 -0.0441
32 12 -19 4.1773 0.3420
32 12 -16 -1.1311 0.7363
32 12 -13 8.9460 0.5711
32 12 -10 2.4363 -0.3701
32 12 -7 4.2805 -0.2172
32 12 -4 -4.4219 0.4246
32 12 -1 5.8935 -0.0962
32 12 2 5.6184 0.0859
32 12 5 -6.1121 0.0819
32 12 8 -13.6986 0.4701
32 12 11 5.8062 0.1650
32 12 14 0.5018 0.2664
32 12 17 2.8663 0.5074
32 12 20 -10.4581 -0.2727
32 12 23 0.6916 0.9056
32 12 26 1.9412 -0.4220
32 13 -23 8.1758 -0.4734
32 13 -20 -5.1766 0.9367
32 13 -17 8.8197 -0.4164
32 13 -14 -0.0695 0.6422
32 13 -11 0.0060 0.6402
32 13 -8 -10.7195 -0.5476
32 13 -5 8.0697 -0.1553
32 13 -2 -15.1163 -0.1085
32 13 1 -7.2088 0.3809
32 13 4 1.4956 0.0896
32 13 7 8.7924 -0.2811
32 13 10 -5.1674 0.4394
32 13 13 15.1380 -0.1538
32 13 16 -9.1193 0.7340
32 13 19 -1.7061 -0.0490
32 13 22 0.3954 -0.2378
32 13 25 -3.0111 0.3553
32 14 -21 1.4934 0.2802
32 14 -18 11.0532 -0.0032
32 14 -15 -3.6999 1.4017
32 14 -12 6.0536 0.1715
32 14 -9 8.9465 -0.0571
32 14 -6 -2.4694 -0.3042
32 14 -3 12.2563 -0.6476
32 14 0 -2.3270 0.3522
32 14 3 3.3641 0.4117
32 14 6 12.9990 0.0078
32 14 9 -7.3833 -0.2126
32 14 12 -5.8020 0.0903
32 14 15 -2.2829 0.0191
32 14 18 -11.7082 0.1531
32 14 21 6.9438 -0.4084
32 15 -19 12.4560 0.4342
32 15 -16 -9.3557 1.0121
32 15 -13 0.3310 1.0123
32 15 -10 2.2990 -0.7127
32 15 -7 -14.3135 -0.6515
32 15 -4 -12.0179 -0.5033
32 15 -1 10.5083 0.3654
32 15 2 -13.5512 0.6795
32 15 5 -1.8852 0.3189
32 15 8 -1.5820 0.3094
32 15 11 -3.2321 0.5674
32 15 14 -0.5322 0.3433
32 15 17 -1.9412 -0.8690
32 15 20 0.7143 -0.6862
32 16 -14 1.8651 1.3306
32 16 -11 4.8108 -0.5042
32 16 -8 0.2704 -0.3082
32 16 -5 2.4958 -1.1803
32 16 -2 12.7983 -0.5348
32 16 1 3.3923 0.6719
32 16 4 3.4622 0.5583
32 16 7 -2.8341 -0.5272
32 16 10 -0.6534 0.6581
32 16 13 3.4661 0.2030
32 16 16 -3.1691 -0.6573
32 17 -9 0.8963 0.7375
32 17 -6 3.8799 -1.7159
32 17 -3 7.5073 -0.2650
32 17 0 -4.0560 1.0495
32 17 3 -1.6086 0.8848
32 17 6 -1.3055 -0.2558
32 17 9 -9.1792 -1.0561
33 1 -40 -1.9754 -2.5111
33 1 -37 -8.1855 -0.2241
33 1 -34 4.0479 3.5050
33 1 -31 1.7983 0.2514
33 1 -28 13.1930 -3.9790
33 1 -25 27.0264 -1.8710
33 1 -22 19.0011 3.2077
33 1 -19 -8.2275 3.1847
33 1 -16 9.7970 -2.3925
33 1 -13 3.8096 -3.7596
33 1 -10 -9.7403 0.8545
33 1 -7 18.9919 4.0711
33 1 -4 -21.8428 0.3325
33 1 -1 9.3959 -3.9507
33 1 2 7.6190 -1.4493
33 1 5 -8.3996 3.2059
33 1 8 8.8915 2.7643
33 1 11 -1.0081 -2.5056
33 1 14 6.7148 -2.7907
33 1 17 -19.4575 1.2436
33 1 20 4.9473 2.7016
33 1 23 5.2492 -0.0218
33 1 26 -9.1277 -2.3962
33 1 29 3.8189 -0.1628
33 1 32 -8.1963 0.9957
33 1 35 -1.5980 1.1071
33 1 38 3.1526 -1.0876
33 1 41 0.8807 -0.6286
33 2 -38 -9.0824 -0.1927
33 2 -35 15.3858 1.0729
33 2 -32 -1.5647 -0.7422
33 2 -29 7.9461 -2.4205
33 2 -26 5.4195 -0.9791
33 2 -23 -13.2475 1.9169
33 2 -20 -5.9503 1.7350
33 2 -17 -3.8029 -1.7081
33 2 -14 -17.5157 -2.6585
33 2 -11 32.7763 1.0885
33 2 -8 13.9430 3.2642
33 2 -5 3.4859 -0.4392
33 2 -2 13.0509 -3.2701
33 2 1 8.9734 -0.8369
33 2 4 -2.9117 3.2086
33 2 7 1.2005 1.7066
33 2 10 -22.9607 -2.6553
33 2 13 -3.1058 -2.5647
33 2 16 -6.0307 1.7332
33 2 19 -8.4850 3.4024
33 2 22 5.6830 -0.8436
33 2 25 5.4553 -3.1728
33 2 28 -8.2225 -0.1132
33 2 31 6.7263 3.0681
33 2 34 -19.3787 0.6326
33 2 37 0.7631 -2.0702
33 2 40 -1.5774 -2.7210
33 3 -39 -0.6051 0.2327
33 3 -36 -5.1976 -0.2390
33 3 -33 16.4135 -1.6345
33 3 -30 -4.6502 0.1027
33 3 -27 16.3367 0.7814
33 3 -24 -1.7409 0.0750
33 3 -21 15.6813 -0.5609
33 3 -18 -13.3441 -0.4381
33 3 -15 19.2762 0.4851
33 3 -12 2.0020 0.9122
33 3 -9 7.0852 -0.4074
33 3 -6 -9.1454 -1.0308
33 3 -3 6.0994 -0.0334
33 3 0 -24.2337 0.9668
33 3 3 3.4228 0.2915
33 3 6 -9.4701 -0.6294
33 3 9 5.3677 -0.5725
33 3 12 -2.8247 0.1221
33 3 15 -3.6179 0.4315
33 3 18 20.4410 0.2776
33 3 21 10.9578 -0.5386
33 3 24 0.0759 -0.3936
33 3 27 -5.1154 0.5048
33 3 30 3.3180 1.1591
33 3 33 -8.7669 -0.2676
33 3 36 -1.7363 0.2196
33 3 39 6.2821 0.6467
33 4 -37 -0.6467 0.2610
33 4 -34 3.5984 -0.0462
33 4 -31 3.5270 -2.0180
33 4 -28 -4.1591 -0.2527
33 4 -25 5.0890 0.8363
33 4 -22 -18.2731 0.1577
33 4 -19 -11.6444 -1.6251
33 4 -16 10.9215 -0.6161
33 4 -13 -9.4335 1.6229
33 4 -10 -12.9886 0.8522
33 4 -7 12.5537 -1.4744
33 4 -4 3.8662 -1.0788
33 4 -1 16.7063 0.9463
33 4 2 -5.6142 1.4095
33 4 5 3.7036 -0.4733
33 4 8 4.7417 -1.7696
33 4 11 -0.2491 -0.5290
33 4 14 -16.4452 1.6735
33 4 17 13.4425 0.8680
33 4 20 -12.0229 -1.5489
33 4 23 11.6199 -0.5073
33 4 26 -13.9864 1.0591
33 4 29 3.2647 1.3591
33 4 32 15.1278 -0.5498
33 4 35 2.0205 -1.6556
33 4 38 -6.6456 1.4936
33 5 -35 13.7530 0.6722
33 5 -32 -6.8040 0.0828
33 5 -29 2.0844 -1.0289
33 5 -26 -1.6155 -0.5208
33 5 -23 4.1896 0.1268
33 5 -20 -9.9603 0.4242
33 5 -17 22.8131 -0.0252
33 5 -14 -12.7887 -0.5244
33 5 -11 9.2031 0.1989
33 5 -8 -22.8212 0.5661
33 5 -5 3.2861 -0.0379
33 5 -2 0.6891 -0.4027
33 5 1 -7.5613 -0.3447
33 5 4 1.4654 0.7356
33 5 7 2.3970 0.3320
33 5 10 0.8988 -0.4336
33 5 13 -4.8994 -0.3344
33 5 16 3.8767 0.0777
33 5 19 -2.0512 0.0249
33 5 22 23.2503 0.1483
33 5 25 9.1470 -0.1174
33 5 28 -11.3656 -0.7424
33 5 31 14.3357 0.2029
33 5 34 -5.5388 -1.1208
33 5 37 0.2158 -1.2324
33 6 -36 3.4814 -0.4500
33 6 -33 2.9991 0.0555
33 6 -30 -5.4974 0.8124
33 6 -27 18.6717 0.2410
33 6 -24 -8.1691 -0.8497
33 6 -21 8.1263 -0.1241
33 6 -18 -3.8787 1.1631
33 6 -15 -0.4683 -0.1020
33 6 -12 -6.8355 -0.3557
33 6 -9 13.0981 -0.1885
33 6 -6 -4.9867 0.0720
33 6 -3 16.5055 0.5530
33 6 0 4.7235 -0.3810
33 6 3 18.0533 -0.4528
33 6 6 -10.8392 0.1866
33 6 9 21.2257 0.2503
33 6 12 -5.0386 0.0536
33 6 15 -0.0842 -0.4920
33 6 18 9.2970 -0.7160
33 6 21 -10.3514 0.6475
33 6 24 2.2455 0.6103
33 6 27 -11.7132 -0.7679
33 6 30 1.7656 -1.3255
33 6 33 2.2318 0.3372
33 6 36 -4.0801 -0.4335
33 7 -34 -12.4499 0.1471
33 7 -31 3.8050 -0.5144
33 7 -28 -18.7710 0.1766
33 7 -25 7.5945 0.4020
33 7 -22 -8.7541 0.7103
33 7 -19 6.9361 -0.5409
33 7 -16 2.7387 -0.1437
33 7 -13 -6.6534 0.2349
33 7 -10 17.0026 0.5316
33 7 -7 16.7495 -0.3307
33 7 -4 -9.1954 -0.4755
33 7 -1 8.2303 -0.2698
33 7 2 7.2158 0.7285
33 7 5 -20.4211 0.5403
33 7 8 9.4202 -0.7550
33 7 11 -17.7187 -0.1150
33 7 14 -2.9054 0.3316
33 7 17 24.2546 0.0743
33 7 20 -13.9373 -0.2145
33 7 23 3.2544 -0.2689
33 7 26 8.7228 0.2890
33 7 29 -8.8551 -0.2978
33 7 32 4.8579 0.6385
33 8 -32 8.8390 -0.4168
33 8 -29 -2.6527 -0.1519
33 8 -26 -0.0815 0.7559
33 8 -23 7.7486 0.7845
33 8 -20 -5.7804 -0.1488
33 8 -17 2.3591 -0.0754
33 8 -14 -12.2832 0.4888
33 8 -11 3.1697 0.6724
33 8 -8 -7.8452 -0.3141
33 8 -5 18.6606 -0.7336
33 8 -2 -8.5860 -0.1859
33 8 1 14.4666 0.3216
33 8 4 0.4373 0.2081
33 8 7 6.1292 -0.3095
33 8 10 0.1988 -0.2868
33 8 13 7.7573 0.3709
33 8 16 9.3198 0.9356
33 8 19 7.6311 -0.3545
33 8 22 -16.4914 -0.4661
33 8 25 0.9122 -0.3531
33 8 28 -8.7239 0.4235
33 8 31 1.1362 1.0323
33 9 -30 3.5596 -0.3125
33 9 -27 6.5466 -0.3927
33 9 -24 -5.9477 0.1239
33 9 -21 15.3466 0.3520
33 9 -18 -9.6400 0.0752
33 9 -15 11.3253 -0.0403
33 9 -12 14.1457 0.0470
33 9 -9 -7.5043 0.5718
33 9 -6 19.4922 -0.2556
33 9 -3 5.4264 -0.4096
33 9 0 -7.1682 0.0028
33 9 3 -1.3509 0.1152
33 9 6 3.0081 0.1447
33 9 9 -4.7694 0.0495
33 9 12 6.0768 -0.1305
33 9 15 -17.0988 0.1531
33 9 18 13.1905 -0.4871
33 9 21 2.7078 0.4208
33 9 24 -17.1504 -0.0658
33 9 27 5.6077 0.2813
33 9 30 -1.7758 -0.4444
33 10 -28 -1.1812 -0.4481
33 10 -25 6.5702 -0.2650
33 10 -22 0.3159 -0.0697
33 10 -19 -13.5188 0.1913
33 10 -16 6.4326 1.3351
33 10 -13 -6.4080 0.6617
33 10 -10 1.2307 -0.4391
33 10 -7 3.8287 -0.4688
33 10 -4 0.4868 0.4077
33 10 -1 17.4754 0.0454
33 10 2 -2.0899 0.3026
33 10 5 3.7430 0.2810
33 10 8 2.4608 0.0496
33 10 11 11.8020 0.5652
33 10 14 3.1666 -0.0179
33 10 17 -2.8585 -0.9876
33 10 20 -0.0204 -0.2692
33 10 23 -16.1479 -0.3740
33 10 26 9.6332 -0.0767
33 10 29 -18.4714 -0.7439
33 11 -26 4.1838 -0.2936
33 11 -23 8.6047 -0.2441
33 11 -20 -1.7682 0.4496
33 11 -17 12.4224 0.2281
33 11 -14 3.0974 0.1612
33 11 -11 1.1268 0.4717
33 11 -8 9.4492 0.1731
33 11 -5 10.9040 0.1346
33 11 -2 -12.4131 -0.4638
33 11 1 5.8828 -0.3291
33 11 4 -3.8913 0.5971
33 11 7 -12.9077 0.3753
33 11 10 13.5807 -0.6845
33 11 13 0.2799 -0.1837
33 11 16 -14.0283 0.2439
33 11 19 3.2461 0.3258
33 11 22 -12.3460 -0.2216
33 11 25 18.3221 0.3445
33 12 -24 0.1374 -1.2122
33 12 -21 5.2698 -0.6159
33 12 -18 -8.4717 -0.1221
33 12 -15 8.0407 -0.5199
33 12 -12 1.8569 0.6743
33 12 -9 8.3392 0.9703
33 12 -6 17.2981 -0.2965
33 12 -3 -6.8104 -0.6100
33 12 0 -0.5040 0.0758
33 12 3 22.1258 0.6641
33 12 6 -1.6521 0.1709
33 12 9 3.5279 -0.7709
33 12 12 4.5469 0.1895
33 12 15 -4.4808 1.0051
33 12 18 12.3254 0.6078
33 12 21 -6.0782 -0.8095
33 12 24 -7.7838 1.0525
33 13 -22 -4.9863 0.3052
33 13 -19 1.6277 -0.4161
33 13 -16 1.9772 -0.4138
33 13 -13 0.7918 -0.0465
33 13 -10 3.0805 -0.2142
33 13 -7 -1.4879 0.0606
33 13 -4 -1.2219 0.1534
33 13 -1 -2.3213 -0.3603
33 13 2 5.5948 0.2142
33 13 5 0.5187 0.1793
33 13 8 2.1434 -0.0209
33 13 11 -9.7451 0.0794
33 13 14 5.7925 0.7381
33 13 17 -4.9029 0.0545
33 13 20 0.6300 -1.0645
33 14 -17 -3.3541 -0.7613
33 14 -14 -4.8607 1.0224
33 14 -11 3.9414 -0.0611
33 14 -8 -7.3282 -0.7433
33 14 -5 4.4636 1.1308
33 14 -2 -4.9498 0.2372
33 14 1 0.6646 -0.5943
33 14 4 6.4785 -0.1998
33 14 7 8.2072 0.6861
33 14 10 1.9145 0.5914
33 14 13 6.1593 0.1923
33 14 16 -3.8286 0.5278
33 14 19 -0.9501 -0.5507
33 15 -15 5.0779 -0.2827
33 15 -12 7.6943 -0.3683
33 15 -9 -6.3599 0.5284
33 15 -6 13.7046 -0.0314
33 15 -3 2.8139 -0.2080
33 15 0 10.1674 -0.3269
33 15 3 8.8248 0.1675
33 15 6 -7.3292 0.6858
33 15 9 -1.6534 -0.3418
33 15 12 3.0534 -0.3136
33 15 15 2.1071 -0.7145
33 16 -7 4.1243 1.0092
33 16 -4 -3.8148 0.5046
33 16 -1 10.2416 -0.2875
33 16 2 3.8007 -0.3829
33 16 5 0.8891 1.3868
33 16 8 0.3239 0.9191
34 1 -39 -1.3691 -1.5442
34 1 -36 7.1373 -0.7633
34 1 -33 13.2823 -0.4203
34 1 -30 -2.0981 1.1479
34 1 -27 10.9478 -0.2426
34 1 -24 7.1901 -1.4151
34 1 -21 -1.7947 -0.2731
34 1 -18 -11.7263 0.7537
34 1 -15 3.6556 0.5591
34 1 -12 -6.5107 -0.7643
34 1 -9 11.6358 -0.0843
34 1 -6 -24.4728 1.1245
34 1 -3 -11.5899 0.2360
34 1 0 15.8651 -0.9869
34 1 3 -11.4805 -0.1471
34 1 6 -18.6104 1.3975
34 1 9 12.4479 0.2605
34 1 12 9.6966 -1.1423
34 1 15 16.5868 -0.2810
34 1 18 -6.6759 0.9524
34 1 21 7.2919 0.3141
34 1 24 -11.7311 -0.7842
34 1 27 11.6916 -0.8687
34 1 30 -5.5719 0.6071
34 1 33 -12.1812 1.4317
34 1 36 11.6859 -0.1283
34 1 39 1.9816 -1.7559
34 2 -37 -12.6154 1.1020
34 2 -34 -3.7503 0.1067
34 2 -31 -8.1648 -0.7663
34 2 -28 -1.9101 0.0526
34 2 -25 11.4380 0.8725
34 2 -22 -7.4875 0.1223
34 2 -19 0.3713 -0.3145
34 2 -16 -11.2939 -0.3380
34 2 -13 2.5178 0.3785
34 2 -10 3.9155 0.7945
34 2 -7 12.3224 -0.1542
34 2 -4 4.5844 -0.8150
34 2 -1 22.0670 -0.2660
34 2 2 -6.8597 0.7492
34 2 5 29.3349 0.3514
34 2 8 -3.7223 -0.6123
34 2 11 23.9183 -0.3896
34 2 14 4.8324 0.6369
34 2 17 -23.8845 0.5711
34 2 20 6.7432 -0.4473
34 2 23 -27.1569 -0.7126
34 2 26 1.8968 0.1894
34 2 29 2.8977 1.3602
34 2 32 -14.6456 -0.2530
34 2 35 3.2891 -0.6210
34 2 38 9.6633 -0.0345
34 3 -35 0.2958 -0.6149
34 3 -32 4.1297 -1.6694
34 3 -29 7.4624 -1.0273
34 3 -26 -15.1709 1.1228
34 3 -23 4.1649 1.0728
34 3 -20 -1.0385 -1.4170
34 3 -17 -6.2144 -2.2852
34 3 -14 15.3197 0.9790
34 3 -11 -23.7302 2.5310
34 3 -8 2.1570 -0.4091
34 3 -5 3.6236 -2.8581
34 3 -2 -7.1042 -0.1292
34 3 1 -9.8836 2.6921
34 3 4 19.3266 1.0388
34 3 7 -5.9455 -2.2332
34 3 10 7.6668 -1.6178
34 3 13 2.7894 2.1360
34 3 16 -14.4831 2.2077
34 3 19 12.2060 -1.0729
34 3 22 11.1886 -2.5041
34 3 25 -6.2358 0.4110
34 3 28 20.5543 3.3954
34 3 31 -8.2723 0.4882
34 3 34 7.2493 -1.6385
34 3 37 -1.6621 -0.1026
34 4 -36 4.9983 0.7985
34 4 -33 2.6656 0.9105
34 4 -30 -10.8279 1.2884
34 4 -27 16.5642 -0.8678
34 4 -24 0.2688 -0.7967
34 4 -21 -3.1616 0.0949
34 4 -18 11.0346 0.2650
34 4 -15 6.6651 0.9071
34 4 -12 -19.1700 -0.2411
34 4 -9 -1.4416 -0.7505
34 4 -6 -1.4490 0.1565
34 4 -3 6.9949 0.7995
34 4 0 12.2009 -0.2037
34 4 3 9.0412 -0.6837
34 4 6 7.8610 -0.2432
34 4 9 20.6694 0.6667
34 4 12 -9.0207 0.2775
34 4 15 -11.8198 -0.4819
34 4 18 4.3125 0.1830
34 4 21 1.6242 -0.0956
34 4 24 0.7575 0.5324
34 4 27 -7.1182 0.3152
34 4 30 5.9571 -0.1421
34 4 33 -6.7245 -0.5411
34 4 36 28.9286 -0.0075
34 5 -34 3.9148 0.2153
34 5 -31 -10.8096 -0.0845
34 5 -28 10.7922 0.8240
34 5 -25 2.5868 -1.4059
34 5 -22 -15.2588 -1.5174
34 5 -19 18.3432 0.9491
34 5 -16 -19.0603 1.8248
34 5 -13 2.4141 -0.4340
34 5 -10 6.7778 -1.6036
34 5 -7 -5.2583 0.0781
34 5 -4 8.7340 1.8596
34 5 -1 24.6314 0.8623
34 5 2 -15.6237 -1.3222
34 5 5 13.7516 -1.2629
34 5 8 -0.0719 1.1610
34 5 11 -10.4773 1.6066
34 5 14 -9.4895 -0.7505
34 5 17 -5.4477 -2.0844
34 5 20 -7.4385 0.2534
34 5 23 16.7107 1.7492
34 5 26 -11.4547 -0.7607
34 5 29 5.2758 -1.5909
34 5 32 12.9815 -1.1232
34 5 35 0.2029 -1.2361
34 6 -32 6.5479 0.3854
34 6 -29 -10.9816 -0.7417
34 6 -26 -0.8102 -0.3390
34 6 -23 8.3424 -0.6890
34 6 -20 7.4942 -0.1799
34 6 -17 -6.3695 -0.1442
34 6 -14 -3.2536 0.1215
34 6 -11 -10.7277 0.5993
34 6 -8 4.4191 0.1375
34 6 -5 -15.6850 -0.7986
34 6 -2 8.4207 0.0703
34 6 1 -3.3975 0.1414
34 6 4 3.4504 -0.3825
34 6 7 -1.3546 -0.3850
34 6 10 -8.1359 -0.1404
34 6 13 1.9094 0.5054
34 6 16 14.8913 -0.0758
34 6 19 -18.9059 -0.1170
34 6 22 14.6482 0.6947
34 6 25 -5.0281 0.1776
34 6 28 -1.1988 0.4672
34 6 31 -3.7039 0.6889
34 7 -30 -11.4894 0.1110
34 7 -27 2.5462 -1.4330
34 7 -24 4.1820 -0.4193
34 7 -21 -1.6972 -0.8249
34 7 -18 2.8067 -0.4636
34 7 -15 -2.9114 -0.4493
34 7 -12 -5.0671 -0.3129
34 7 -9 9.2513 0.4467
34 7 -6 13.0217 0.4652
34 7 -3 1.8734 -0.3015
34 7 0 6.2898 -0.6996
34 7 3 -2.1513 0.2552
34 7 6 3.6050 0.5675
34 7 9 -5.8089 -0.2929
34 7 12 -13.3638 -0.3897
34 7 15 16.3410 0.3316
34 7 18 -8.0930 0.2359
34 7 21 -0.0236 0.0768
34 7 24 4.0167 -0.2950
34 7 27 -11.1835 -0.1750
34 7 30 18.4672 0.8990
34 8 -28 2.2525 0.9448
34 8 -25 0.2720 -1.3856
34 8 -22 -11.7191 -0.2426
34 8 -19 7.6901 -0.8339
34 8 -16 -13.2468 -0.3761
34 8 -13 -7.2301 -1.0297
34 8 -10 3.5747 -0.1559
34 8 -7 -8.8318 0.5751
34 8 -4 -0.1470 -0.0019
34 8 -1 -0.7497 -0.5803
34 8 2 -17.4108 -0.4028
34 8 5 16.5650 0.2478
34 8 8 -12.0579 0.7331
34 8 11 -8.1914 0.1093
34 8 14 10.5417 -0.8284
34 8 17 6.6635 -0.3914
34 8 20 2.3983 0.2071
34 8 23 5.3182 -0.1473
34 8 26 -4.2293 -0.2413
34 8 29 5.1260 -0.2526
34 9 -26 14.3106 -0.2456
34 9 -23 2.5654 -1.3349
34 9 -20 -8.5686 -0.1337
34 9 -17 1.0690 0.0688
34 9 -14 -15.9557 -0.1783
34 9 -11 -2.3093 -0.8944
34 9 -8 -1.2311 -0.4404
34 9 -5 -10.7442 0.8455
34 9 -2 12.1994 0.7819
34 9 1 -9.4431 -0.2523
34 9 4 -5.2863 -0.6999
34 9 7 11.8209 -0.0087
34 9 10 5.5963 0.7990
34 9 13 -0.6316 0.2909
34 9 16 -2.1119 -0.6217
34 9 19 -6.0848 -0.1602
34 9 22 8.1983 0.0002
34 9 25 -3.2546 1.2898
34 9 28 -3.4724 -0.3547
34 10 -24 6.5177 1.5200
34 10 -21 -8.3065 -1.4987
34 10 -18 -0.2292 0.1902
34 10 -15 2.2517 -0.4730
34 10 -12 -3.6931 -0.0201
34 10 -9 5.6003 0.5574
34 10 -6 -5.9538 0.1552
34 10 -3 -7.2787 -0.4228
34 10 0 3.2366 -0.3318
34 10 3 -15.2879 0.0021
34 10 6 -0.0344 0.4999
34 10 9 8.1535 -0.5251
34 10 12 -5.9762 -0.6934
34 10 15 4.9839 -0.5113
34 10 18 6.3438 -0.4039
34 10 21 4.6233 -0.5707
34 10 24 -0.1942 -0.1531
34 11 -22 -6.7536 0.3365
34 11 -19 8.5410 -0.8662
34 11 -16 -10.7890 0.1213
34 11 -13 -0.9301 -0.4197
34 11 -10 2.3400 0.4981
34 11 -7 -10.4088 0.8791
34 11 -4 -2.3695 -0.6112
34 11 -1 7.1695 0.0509
34 11 2 -2.7233 0.1996
34 11 5 5.6018 0.3672
34 11 8 -9.0202 -0.1622
34 11 11 7.9538 -0.2698
34 11 14 -6.3717 -1.0297
34 11 17 1.8050 -0.0293
34 11 20 -9.4161 0.1155
34 11 23 -9.7204 -0.6110
34 12 -20 7.2144 1.1423
34 12 -17 -0.6526 -0.3859
34 12 -14 2.5306 -0.1219
34 12 -11 -8.1083 1.2098
34 12 -8 7.7494 0.1451
34 12 -5 -5.8033 -0.1648
34 12 -2 -5.2782 -0.4056
34 12 1 -2.8640 -0.8835
34 12 4 4.1012 -0.5540
34 12 7 -1.2105 -0.1710
34 12 10 2.6587 0.2517
34 12 13 -13.4557 0.2342
34 12 16 2.3329 -0.0069
34 12 19 1.7331 1.0499
34 13 -18 -12.7149 -0.7134
34 13 -15 6.4406 0.1466
34 13 -12 -15.2306 -0.2123
34 13 -9 -4.7336 0.2348
34 13 -6 5.2323 0.0159
34 13 -3 -8.3065 0.3166
34 13 0 0.5346 -0.3751
34 13 3 9.8634 -0.4256
34 13 6 -4.9225 -0.1719
34 13 9 11.5833 -0.2136
34 13 12 -14.3548 -0.1404
34 13 15 5.7782 0.3131
34 13 18 3.9253 -0.3437
34 14 -13 -0.2028 0.6148
34 14 -10 -3.3005 0.6578
34 14 -7 4.5700 -0.0474
34 14 -4 -10.9697 0.1654
34 14 -1 12.1946 -0.8099
34 14 2 -5.0997 -0.7508
34 14 5 -2.7917 0.0505
34 14 8 -3.1220 0.0044
34 14 11 -0.2693 0.8639
34 14 14 -4.5413 0.2648
34 15 -5 -7.1893 1.1969
34 15 -2 2.5949 -1.3348
34 15 1 -4.0536 -0.9174
34 15 4 -5.7238 0.7680
34 15 7 -4.5342 1.3275
35 1 -35 -2.3149 0.4076
35 1 -32 3.3117 -2.7573
35 1 -29 -3.8824 -1.3527
35 1 -26 2.2917 4.0716
35 1 -23 28.3524 2.1818
35 1 -20 -4.4905 -3.0467
35 1 -17 19.6154 -3.2080
35 1 -14 0.8386 2.4138
35 1 -11 5.0916 3.6411
35 1 -8 -4.1441 -1.5012
35 1 -5 -19.9436 -4.1860
35 1 -2 -11.0204 -0.1107
35 1 1 4.6509 4.2273
35 1 4 -0.1920 1.1428
35 1 7 -8.7561 -3.6796
35 1 10 2.2443 -2.2848
35 1 13 1.9705 2.8821
35 1 16 -4.0197 2.8893
35 1 19 -11.4677 -2.1045
35 1 22 -1.5404 -2.7494
35 1 25 14.0825 1.1984
35 1 28 -13.6117 2.3680
35 1 31 3.1724 0.4958
35 1 34 8.2073 -2.7042
35 1 37 1.7509 -0.7563
35 2 -36 -1.4805 0.9177
35 2 -33 -6.8551 -1.6917
35 2 -30 4.8577 1.2654
35 2 -27 -15.5701 2.0644
35 2 -24 10.7399 -0.0781
35 2 -21 -0.1615 -3.0171
35 2 -18 3.3547 -1.3252
35 2 -15 -11.8341 1.8021
35 2 -12 -4.5813 2.0370
35 2 -9 -5.7115 -1.5433
35 2 -6 6.6813 -2.8278
35 2 -3 -0.8084 0.9109
35 2 0 9.2100 3.1698
35 2 3 8.1435 0.1664
35 2 6 8.1680 -3.3983
35 2 9 -6.3314 -1.4454
35 2 12 6.5677 2.9960
35 2 15 -4.0279 1.9750
35 2 18 1.6779 -2.2919
35 2 21 0.8605 -2.5673
35 2 24 -15.1685 1.3729
35 2 27 4.0083 3.1429
35 2 30 0.9953 -0.5721
35 2 33 3.0109 -1.6194
35 2 36 -9.1205 -1.2721
35 3 -34 -4.7865 1.4407
35 3 -31 -3.2066 2.4019
35 3 -28 23.7353 0.7388
35 3 -25 1.7366 -1.4548
35 3 -22 12.5267 -0.8028
35 3 -19 -3.5851 1.1892
35 3 -16 -8.0849 1.2728
35 3 -13 12.1983 -1.2661
35 3 -10 -13.7276 -2.1709
35 3 -7 0.4288 0.8512
35 3 -4 17.3889 2.5622
35 3 -1 -23.8756 -0.3732
35 3 2 12.5898 -2.4593
35 3 5 -7.7709 -0.1739
35 3 8 -9.4481 2.2730
35 3 11 7.2922 0.9462
35 3 14 -15.7845 -1.6460
35 3 17 5.3217 -1.4769
35 3 20 10.1345 0.9556
35 3 23 -18.3465 0.8578
35 3 26 24.6111 0.3668
35 3 29 -10.3541 -1.0436
35 3 32 8.6812 0.6791
35 3 35 7.3243 1.7453
35 4 -32 9.9028 1.2104
35 4 -29 5.2705 0.7245
35 4 -26 5.2599 -0.0265
35 4 -23 -7.9261 -1.7363
35 4 -20 -11.6242 -0.2214
35 4 -17 7.5429 0.6834
35 4 -14 -10.6334 -0.0371
35 4 -11 -9.8595 -1.9281
35 4 -8 -14.8433 -0.5542
35 4 -5 -0.7483 1.8223
35 4 -2 -3.3051 0.9463
35 4 1 3.6878 -1.6150
35 4 4 1.2147 -1.5560
35 4 7 0.4752 1.1706
35 4 10 7.0234 2.0454
35 4 13 0.5824 -0.5909
35 4 16 -16.1033 -1.9055
35 4 19 15.6464 -0.0667
35 4 22 -17.7949 1.6902
35 4 25 11.9662 1.2350
35 4 28 -4.9973 -1.1928
35 4 31 0.0633 -1.7490
35 4 34 -8.6276 0.9581
35 5 -30 2.9727 1.1665
35 5 -27 -4.6379 0.2657
35 5 -24 0.9425 0.5508
35 5 -21 6.4688 -0.3486
35 5 -18 0.3414 0.0702
35 5 -15 4.3151 -0.7174
35 5 -12 8.6070 0.3095
35 5 -9 3.1504 0.6307
35 5 -6 -6.1383 -0.4269
35 5 -3 -6.3573 -0.7471
35 5 0 -0.0677 0.2608
35 5 3 -0.4564 0.5677
35 5 6 -5.9345 -0.1695
35 5 9 -6.7111 -0.1297
35 5 12 14.4905 -0.3571
35 5 15 -9.8179 0.4206
35 5 18 1.6360 0.4403
35 5 21 4.9452 -0.6067
35 5 24 -0.7912 -0.5720
35 5 27 6.7053 0.2240
35 5 30 -6.9011 -1.1573
35 6 -31 2.3613 0.5972
35 6 -28 9.5004 -0.1568
35 6 -25 -12.6774 -0.4452
35 6 -22 16.8930 0.8293
35 6 -19 -3.7798 0.1815
35 6 -16 -2.9884 -0.6508
35 6 -13 21.7250 -0.6420
35 6 -10 -18.2290 0.4671
35 6 -7 4.1610 0.6161
35 6 -4 -2.9458 -0.4570
35 6 -1 -5.8576 -0.6893
35 6 2 7.8634 -0.0595
35 6 5 -1.0280 0.4738
35 6 8 -16.7870 0.2339
35 6 11 14.4739 -1.0852
35 6 14 4.0887 0.0446
35 6 17 -6.1628 0.5709
35 6 20 -2.9230 0.1032
35 6 23 -6.6024 -0.6519
35 6 26 -3.6737 -0.4048
35 6 29 0.9693 0.6652
35 7 -29 -9.0146 -0.1172
35 7 -26 -3.4429 0.7657
35 7 -23 1.9360 -0.6796
35 7 -20 5.3203 0.5017
35 7 -17 23.4568 -0.0130
35 7 -14 -10.9329 0.5400
35 7 -11 8.4142 -0.0218
35 7 -8 -12.0066 -0.6888
35 7 -5 1.3754 0.5289
35 7 -2 -2.4655 0.4102
35 7 1 2.3249 -0.5014
35 7 4 1.9622 -0.7663
35 7 7 1.7136 0.2613
35 7 10 -6.2501 0.9647
35 7 13 16.7265 0.0054
35 7 16 -2.1148 -0.0824
35 7 19 -6.4639 -0.0475
35 7 22 4.8246 0.8586
35 7 25 4.2437 0.1442
35 7 28 -2.7950 0.2850
35 8 -27 3.1529 0.3528
35 8 -24 -0.4658 -0.9857
35 8 -21 2.4014 -0.8556
35 8 -18 4.0338 1.1144
35 8 -15 0.3701 -0.1537
35 8 -12 -8.6735 -0.5714
35 8 -9 -0.7489 -0.5011
35 8 -6 -4.0392 0.7771
35 8 -3 15.0892 0.4578
35 8 0 0.1245 -0.3605
35 8 3 0.4451 -0.7722
35 8 6 17.7178 0.0256
35 8 9 2.2259 1.4026
35 8 12 4.3201 0.3730
35 8 15 0.0696 -0.3465
35 8 18 -9.6570 -0.6669
35 8 21 19.8151 0.6745
35 8 24 -17.2618 0.4104
35 8 27 -3.5366 -0.1602
35 9 -25 3.4814 0.2196
35 9 -22 2.7352 0.8091
35 9 -19 0.6365 -1.0979
35 9 -16 1.1898 0.1322
35 9 -13 2.2439 0.0544
35 9 -10 -10.1095 -0.2661
35 9 -7 -4.9944 0.7970
35 9 -4 5.4162 -0.2750
35 9 -1 -1.8441 -0.1981
35 9 2 -13.0895 0.3052
35 9 5 1.1081 0.5849
35 9 8 -2.2635 0.1913
35 9 11 0.3531 -1.0631
35 9 14 -5.8284 0.0768
35 9 17 -8.4136 -0.0642
35 9 20 6.8119 0.5575
35 9 23 5.7775 -0.7776
35 10 -23 0.9676 0.6754
35 10 -20 4.8422 -0.6670
35 10 -17 5.5414 0.2458
35 10 -14 -19.9435 -0.8776
35 10 -11 14.0072 -0.7385
35 10 -8 -10.4984 0.3292
35 10 -5 7.1206 0.5874
35 10 -2 1.8777 0.1705
35 10 1 0.3724 -0.4684
35 10 4 -4.0819 -0.1817
35 10 7 14.2231 0.3938
35 10 10 -8.3258 0.3355
35 10 13 6.7672 -0.8859
35 10 16 -2.9829 -0.2681
35 10 19 -4.9837 0.6520
35 10 22 7.6789 -1.3961
35 11 -18 4.7819 0.1880
35 11 -15 -5.3419 -0.8573
35 11 -12 4.1356 -1.0091
35 11 -9 6.2531 0.1186
35 11 -6 -2.4020 -0.0815
35 11 -3 -2.8511 0.0323
35 11 0 -3.1913 0.0739
35 11 3 -8.0656 0.1836
35 11 6 -3.1094 0.2099
35 11 9 -9.4813 -0.4180
35 11 12 -8.8111 -0.1646
35 11 15 10.5806 -0.4217
35 11 18 -3.1378 0.6253
35 12 -16 -2.2671 -0.1604
35 12 -13 2.4073 -1.2539
35 12 -10 -8.9398 -0.2730
35 12 -7 10.2530 -0.0695
35 12 -4 -2.0545 0.0050
35 12 -1 1.1769 1.0424
35 12 2 4.7876 -0.0520
35 12 5 1.5549 -0.9676
35 12 8 0.4765 0.1124
35 12 11 -1.2348 0.8871
35 12 14 -2.9212 -0.4181
35 13 -11 7.4871 -0.4934
35 13 -8 2.5316 -1.2482
35 13 -5 5.3031 0.2457
35 13 -2 2.3250 0.7000
35 13 1 -3.0004 0.1923
35 13 4 -2.7138 -0.4143
35 13 7 2.8226 -0.2059
35 13 10 -1.5569 1.3328
35 14 -3 -1.4362 0.9051
35 14 0 -0.2090 0.8899
35 14 3 -6.9354 -0.6426
36 1 -34 -4.1071 0.8311
36 1 -31 2.6578 1.1949
36 1 -28 -9.6877 0.1673
36 1 -25 2.3693 -1.0690
36 1 -22 10.9985 -0.0723
36 1 -19 8.5055 1.5098
36 1 -16 19.6362 0.5806
36 1 -13 0.8741 -0.9801
36 1 -10 13.3126 -0.8258
36 1 -7 14.5396 0.5218
36 1 -4 -21.3437 1.2607
36 1 -1 5.8477 0.0654
36 1 2 -5.3690 -0.8402
36 1 5 -16.7446 -1.0405
36 1 8 2.0417 0.5053
36 1 11 -11.6435 1.7246
36 1 14 17.0150 0.0577
36 1 17 4.6940 -1.1779
36 1 20 -23.3103 -0.6681
36 1 23 12.8185 0.7652
36 1 26 -2.8463 -0.0372
36 1 29 -4.2436 -0.2599
36 1 32 13.8622 -1.3883
36 1 35 -8.3928 -0.5142
36 2 -32 -5.8700 0.7547
36 2 -29 3.7721 0.6592
36 2 -26 -4.8951 0.1608
36 2 -23 4.4649 0.0115
36 2 -20 9.6425 0.6986
36 2 -17 10.9454 0.9584
36 2 -14 -16.2724 -0.7452
36 2 -11 1.1859 -0.9030
36 2 -8 -14.9327 0.0755
36 2 -5 15.6759 1.1562
36 2 -2 -5.5594 0.2543
36 2 1 8.3619 -1.1696
36 2 4 -0.1146 -0.4768
36 2 7 21.6894 0.7481
36 2 10 1.0511 0.7826
36 2 13 7.0298 -0.6470
36 2 16 16.3280 -1.1104
36 2 19 -6.0072 0.4610
36 2 22 3.4699 1.5823
36 2 25 3.9692 0.3243
36 2 28 -15.6250 -1.6590
36 2 31 12.1694 0.1029
36 2 34 8.7949 0.9615
36 3 -33 8.5014 0.2926
36 3 -30 -14.6233 0.5990
36 3 -27 -1.7498 0.4575
36 3 -24 -7.8299 -0.6534
36 3 -21 0.7933 -0.7844
36 3 -18 -1.6731 0.5216
36 3 -15 2.0949 1.2506
36 3 -12 -5.2277 -0.6174
36 3 -9 30.4564 -1.6560
36 3 -6 -0.8672 0.4610
36 3 -3 14.9300 1.7938
36 3 0 -10.7996 0.3607
36 3 3 14.7232 -1.4194
36 3 6 -5.4743 -0.2856
36 3 9 5.9862 1.6121
36 3 12 -8.9110 1.0123
36 3 15 -6.1546 -1.1523
36 3 18 17.1212 -1.0128
36 3 21 -7.6523 0.7244
36 3 24 3.1148 1.8775
36 3 27 5.9783 -0.8916
36 3 30 4.4316 -1.6310
36 3 33 -4.7591 2.1895
36 4 -31 5.1400 -1.0244
36 4 -28 -2.8795 -0.0171
36 4 -25 12.7492 0.8717
36 4 -22 -1.5333 1.4525
36 4 -19 -8.1264 -0.5620
36 4 -16 -1.7795 -0.7290
36 4 -13 10.1757 -0.5935
36 4 -10 -9.8247 0.4161
36 4 -7 -4.8598 0.9366
36 4 -4 -19.2314 -0.2320
36 4 -1 8.6739 -0.9973
36 4 2 -9.0254 0.2395
36 4 5 -3.0604 1.0097
36 4 8 -3.5194 -0.6066
36 4 11 22.6985 -0.9247
36 4 14 -5.1445 -0.7187
36 4 17 10.4774 0.9317
36 4 20 -1.4442 -0.1955
36 4 23 -0.5431 -0.8479
36 4 26 0.5683 -1.2098
36 4 29 -8.6674 -0.6999
36 5 -29 14.3578 0.3192
36 5 -26 -16.3919 -0.0431
36 5 -23 5.9614 -0.0010
36 5 -20 -2.9634 0.6345
36 5 -17 -1.2686 -0.9546
36 5 -14 5.9793 -1.4226
36 5 -11 8.9371 0.2284
36 5 -8 -8.8106 1.1477
36 5 -5 11.6612 0.4823
36 5 -2 -2.5777 -0.8717
36 5 1 0.6373 -0.4611
36 5 4 8.3907 1.0635
36 5 7 0.1143 0.5803
36 5 10 19.1413 -0.7065
36 5 13 -0.4725 -0.8389
36 5 16 -6.0799 0.7787
36 5 19 -5.6133 0.6034
36 5 22 -13.3288 -0.5264
36 5 25 6.3960 -0.6790
36 5 28 6.8312 -0.3016
36 6 -27 3.9339 0.9449
36 6 -24 -4.9799 0.4241
36 6 -21 19.7280 -0.4867
36 6 -18 -10.1533 0.0097
36 6 -15 16.9579 -0.4583
36 6 -12 -4.4791 0.1462
36 6 -9 -1.4736 -0.4137
36 6 -6 -9.7734 -0.5577
36 6 -3 -5.3158 0.2934
36 6 0 -5.2352 0.7148
36 6 3 18.9851 -0.2667
36 6 6 -20.8796 -0.3782
36 6 9 16.9190 0.1933
36 6 12 0.4042 -0.4602
36 6 15 4.8646 0.3187
36 6 18 2.6964 -0.0497
36 6 21 -2.8614 -0.4839
36 6 24 5.1409 0.5996
36 6 27 2.1829 0.9199
36 7 -25 8.3512 1.0681
36 7 -22 -9.4574 0.0198
36 7 -19 -9.4395 -0.6604
36 7 -16 14.3922 -0.4422
36 7 -13 -2.4920 -0.2212
36 7 -10 -7.0797 -0.2253
36 7 -7 19.5205 -0.2618
36 7 -4 -1.8633 -0.0835
36 7 -1 5.7264 0.2010
36 7 2 14.0822 0.5784
36 7 5 -0.1653 0.1384
36 7 8 7.6650 -0.1357
36 7 11 -1.8298 0.4347
36 7 14 -13.5016 0.6741
36 7 17 -4.5183 0.0774
36 7 20 -1.2367 -0.8765
36 7 23 -10.7771 -0.7062
36 7 26 8.9169 0.7968
36 8 -23 -3.1668 0.3653
36 8 -20 0.4037 1.0293
36 8 -17 3.2672 -0.6361
36 8 -14 0.8443 -0.2180
36 8 -11 -11.0035 0.1570
36 8 -8 1.2822 -0.2315
36 8 -5 0.2858 -0.1204
36 8 -2 -5.5736 0.1846
36 8 1 7.7571 0.5549
36 8 4 1.1514 -0.0786
36 8 7 7.5453 -0.1335
36 8 10 -6.0636 -0.0893
36 8 13 -0.3870 0.5838
36 8 16 -6.8019 0.6353
36 8 19 6.0538 0.7218
36 8 22 2.4709 0.0303
36 9 -21 14.0080 0.8731
36 9 -18 -12.1770 0.6878
36 9 -15 12.7299 -0.9355
36 9 -12 -0.7743 -0.2329
36 9 -9 8.3508 0.0042
36 9 -6 -4.8107 0.8788
36 9 -3 9.4253 0.2052
36 9 0 5.7823 -0.4818
36 9 3 -4.0021 -0.0199
36 9 6 2.0600 0.4668
36 9 9 0.5249 0.5191
36 9 12 4.5788 -0.3411
36 9 15 0.4859 0.2725
36 9 18 -7.1904 0.2364
36 9 21 10.9751 0.2963
36 10 -16 3.9763 1.6807
36 10 -13 -8.0616 0.2464
36 10 -10 -1.7325 -0.7989
36 10 -7 -4.3718 0.6859
36 10 -4 -8.7168 -0.3014
36 10 -1 9.6040 -0.4426
36 10 2 -0.3617 0.3485
36 10 5 -4.6015 -0.3792
36 10 8 0.1604 0.1403
36 10 11 -0.6565 0.5822
36 10 14 4.5454 -0.0440
36 10 17 -2.8658 -1.4179
36 11 -14 0.6718 -0.3367
36 11 -11 4.0765 -0.1851
36 11 -8 7.1366 -0.0306
36 11 -5 3.4841 -0.4728
36 11 -2 -3.9126 0.2473
36 11 1 11.3711 -0.0526
36 11 4 -4.5937 -0.4256
36 11 7 -2.0070 0.7724
36 11 10 1.8609 0.3890
36 11 13 1.4606 -0.0972
36 12 -9 -12.0541 0.4268
36 12 -6 3.3679 0.0007
36 12 -3 7.1242 -0.9518
36 12 0 -3.3142 0.0647
36 12 3 2.4006 0.7082
36 12 6 -0.3486 -0.1632
36 12 9 4.0144 -0.9185
37 1 -33 5.2222 -1.1885
37 1 -30 -2.1771 3.0423
37 1 -27 6.6714 1.5413
37 1 -24 -7.6973 -1.5991
37 1 -21 -4.7510 -1.3150
37 1 -18 8.4221 2.9283
37 1 -15 -16.6732 2.3718
37 1 -12 -3.8506 -1.7048
37 1 -9 23.8767 -2.3270
37 1 -6 2.9767 1.3290
37 1 -3 -6.4511 2.8447
37 1 0 8.2933 -0.3229
37 1 3 5.3579 -2.8981
37 1 6 0.0191 -0.5143
37 1 9 -9.7684 2.5493
37 1 12 -19.5046 1.4253
37 1 15 13.8767 -2.5169
37 1 18 -1.3914 -1.9227
37 1 21 0.0281 1.6012
37 1 24 -2.0304 2.0646
37 1 27 2.8469 -0.7540
37 1 30 10.2603 -2.7648
37 1 33 -1.9216 -0.4129
37 2 -31 -6.4488 0.4236
37 2 -28 -5.8160 -0.6712
37 2 -25 4.6112 -0.5833
37 2 -22 -12.7579 1.0329
37 2 -19 13.7713 1.6901
37 2 -16 -22.2263 0.2781
37 2 -13 11.5686 -2.2681
37 2 -10 5.0014 -1.0155
37 2 -7 -1.9384 1.3458
37 2 -4 -2.0177 1.2898
37 2 -1 6.4519 -1.1040
37 2 2 -14.5815 -1.7945
37 2 5 11.6646 0.2686
37 2 8 -22.5531 2.1551
37 2 11 -8.1803 0.5770
37 2 14 15.0477 -2.5492
37 2 17 -2.1950 -1.0267
37 2 20 -1.5608 2.0499
37 2 23 -7.4709 1.1287
37 2 26 -3.8124 -1.2864
37 2 29 4.4367 -0.4337
37 2 32 -9.8217 -0.0380
37 3 -29 12.3633 -2.7277
37 3 -26 -7.8680 0.7608
37 3 -23 4.3663 2.8298
37 3 -20 -15.9008 1.4483
37 3 -17 3.4919 -2.2758
37 3 -14 -6.6171 -1.0388
37 3 -11 -5.0897 1.2424
37 3 -8 1.4896 2.3681
37 3 -5 5.1856 -0.8182
37 3 -2 3.8591 -3.0295
37 3 1 -6.3108 0.1092
37 3 4 3.1041 3.0888
37 3 7 1.7491 0.7846
37 3 10 -8.5989 -2.4703
37 3 13 6.4816 -0.8184
37 3 16 -3.9347 2.1770
37 3 19 -5.6372 1.9157
37 3 22 2.0004 -1.5318
37 3 25 -4.9351 -1.6539
37 3 28 4.1445 1.3801
37 4 -27 -5.8259 0.4490
37 4 -24 3.9098 0.0903
37 4 -21 2.1223 1.2390
37 4 -18 2.7560 0.2948
37 4 -15 -2.2110 -0.9570
37 4 -12 16.8115 -0.4102
37 4 -9 6.2586 0.5714
37 4 -6 -6.1346 -0.0715
37 4 -3 -1.9659 -1.6055
37 4 0 -4.0679 -0.3111
37 4 3 -8.9721 1.1815
37 4 6 -2.1246 0.4006
37 4 9 -5.1727 -0.9876
37 4 12 2.8418 -0.5628
37 4 15 5.2455 0.0919
37 4 18 -7.0819 0.9373
37 4 21 8.5461 0.5329
37 4 24 7.1721 -0.8785
37 4 27 -8.2722 -1.3355
37 5 -25 9.8433 0.2095
37 5 -22 -0.0283 0.2058
37 5 -19 -1.3112 0.1162
37 5 -16 -8.1630 0.7027
37 5 -13 7.6343 0.7760
37 5 -10 0.7078 0.0497
37 5 -7 -10.0280 -1.4332
37 5 -4 -2.4209 -0.1498
37 5 -1 11.5446 1.7727
37 5 2 -10.1823 0.3095
37 5 5 -1.2705 -1.3047
37 5 8 -0.6354 -0.5979
37 5 11 11.3066 0.8727
37 5 14 6.9528 0.2770
37 5 17 -8.1715 -0.6520
37 5 20 1.9197 -0.8194
37 5 23 -2.7522 0.0096
37 5 26 -8.1290 -0.2796
37 6 -23 -4.9968 0.7260
37 6 -20 -5.6931 -0.5443
37 6 -17 9.8599 -0.8572
37 6 -14 -3.0742 1.0239
37 6 -11 6.6905 0.8850
37 6 -8 -0.1028 -0.9197
37 6 -5 1.8534 -1.2809
37 6 -2 -16.4657 0.2768
37 6 1 3.2226 1.0413
37 6 4 -8.2112 0.0839
37 6 7 -9.1675 -0.8503
37 6 10 3.2935 -0.4009
37 6 13 -12.2720 0.5049
37 6 16 10.2692 0.3574
37 6 19 -1.9125 -0.6448
37 6 22 -8.8530 0.2564
37 6 25 13.9088 1.5742
37 7 -21 0.4346 -0.3410
37 7 -18 3.2234 0.4439
37 7 -15 0.5166 -0.6197
37 7 -12 5.2345 0.7915
37 7 -9 -11.7258 -0.1891
37 7 -6 4.6989 -0.5125
37 7 -3 -4.5808 0.1551
37 7 0 0.0438 0.4316
37 7 3 -4.2412 0.3681
37 7 6 6.6937 -0.0626
37 7 9 5.8038 -0.6949
37 7 12 -5.4670 -0.9297
37 7 15 8.1822 0.5686
37 7 18 4.1514 0.6230
37 7 21 -1.5409 -0.1930
37 8 -19 -12.2843 0.0759
37 8 -16 -3.5611 -0.5752
37 8 -13 -1.7800 -0.1889
37 8 -10 -10.1271 -0.3482
37 8 -7 7.1088 0.1919
37 8 -4 -7.4200 -0.3107
37 8 -1 7.5111 -0.5039
37 8 2 -16.7410 0.3060
37 8 5 7.7120 0.0326
37 8 8 2.3436 0.0094
37 8 11 -11.2769 -0.3345
37 8 14 -2.1114 0.6939
37 8 17 -6.0118 0.0090
37 8 20 1.6815 0.5432
37 9 -17 3.0005 0.8139
37 9 -14 0.2743 0.9991
37 9 -11 -8.8393 -0.4602
37 9 -8 8.4586 -1.5788
37 9 -5 -24.6019 -0.0204
37 9 -2 -4.1109 1.1025
37 9 1 -1.1394 0.6325
37 9 4 -14.9064 -0.9914
37 9 7 4.4954 -1.1139
37 9 10 -4.3174 0.3700
37 9 13 2.4083 1.2599
37 9 16 4.6788 -0.3113
37 10 -12 9.1435 -0.0844
37 10 -9 2.9567 -1.0750
37 10 -6 0.0420 0.0391
37 10 -3 3.6708 -0.2686
37 10 0 9.4221 0.1136
37 10 3 -3.0905 -0.3122
37 10 6 -0.6086 -0.6140
37 10 9 1.3694 0.2364
37 10 12 0.3970 0.5857
37 11 -4 -1.2481 -2.0991
37 11 -1 -0.0980 0.2823
37 11 2 -4.3555 1.7534
37 11 5 1.8821 0.0578
38 1 -29 8.7000 -2.7752
38 1 -26 -22.7800 -0.4169
38 1 -23 -3.9902 2.0083
38 1 -20 -13.1886 1.5858
38 1 -17 11.0399 -2.2908
38 1 -14 -9.5472 -1.3215
38 1 -11 7.1418 1.9583
38 1 -8 3.9048 2.2562
38 1 -5 6.6225 -1.4974
38 1 -2 -7.3686 -2.3301
38 1 1 -7.3422 0.5135
38 1 4 -0.9210 2.5290
38 1 7 -12.5387 0.6090
38 1 10 -7.3089 -2.1205
38 1 13 -5.5164 -1.0104
38 1 16 -8.9435 1.8036
38 1 19 5.7349 1.6831
38 1 22 -1.4507 -0.1372
38 1 25 6.6202 -0.3914
38 1 28 8.6303 -0.2808
38 2 -27 -23.5540 -0.7738
38 2 -24 5.5023 1.5633
38 2 -21 -4.4990 0.2719
38 2 -18 6.8868 -0.8334
38 2 -15 0.5868 -0.8718
38 2 -12 -0.2585 1.8237
38 2 -9 1.8582 1.7549
38 2 -6 2.0962 -1.3090
38 2 -3 -2.2134 -2.1595
38 2 0 -8.6183 0.7041
38 2 3 10.1321 2.8172
38 2 6 1.9988 -0.1367
38 2 9 -4.3369 -2.8647
38 2 12 3.1910 -1.2322
38 2 15 2.7942 1.3778
38 2 18 13.8505 1.8854
38 2 21 15.5637 -1.6596
38 2 24 -4.7973 -1.4272
38 2 27 8.7720 1.5722
38 3 -25 -4.5843 -0.5025
38 3 -22 8.0827 0.4433
38 3 -19 -14.4874 0.6231
38 3 -16 2.2204 0.0975
38 3 -13 2.1959 -0.6736
38 3 -10 -11.0707 -0.4598
38 3 -7 9.5062 1.0228
38 3 -4 7.4586 0.5571
38 3 -1 4.6065 -0.8909
38 3 2 4.9134 -0.6566
38 3 5 5.4862 0.8497
38 3 8 -4.3979 0.9192
38 3 11 6.1583 -0.1337
38 3 14 -5.7485 -0.8499
38 3 17 -12.4394 0.5452
38 3 20 12.8298 0.7810
38 3 23 -16.6457 -1.6490
38 3 26 3.4033 -1.0131
38 4 -23 10.2018 -0.7580
38 4 -20 -6.8400 0.1556
38 4 -17 10.4003 0.3342
38 4 -14 -17.1635 2.2000
38 4 -11 -0.4002 0.2745
38 4 -8 -7.2153 -0.9073
38 4 -5 -8.8990 -0.0332
38 4 -2 3.9417 0.9843
38 4 1 -6.4784 0.2006
38 4 4 -10.4407 -1.1200
38 4 7 7.7996 -0.8054
38 4 10 6.7387 0.8533
38 4 13 10.4491 0.8913
38 4 16 -1.9347 -0.4011
38 4 19 5.4975 -1.6170
38 4 22 2.7808 0.1777
38 4 25 0.7619 -0.6654
38 5 -21 5.6095 -0.3582
38 5 -18 2.4182 0.8187
38 5 -15 -2.5397 0.1638
38 5 -12 2.8772 0.1310
38 5 -9 5.7651 0.1309
38 5 -6 7.5604 -1.2725
38 5 -3 4.3347 -0.3350
38 5 0 1.9291 1.1994
38 5 3 11.0991 0.4986
38 5 6 4.1263 -0.7695
38 5 9 2.5221 -0.6695
38 5 12 -0.0860 0.1250
38 5 15 2.4269 -0.1709
38 5 18 -5.8516 -0.2814
38 5 21 7.5768 0.1364
38 6 -19 -4.6965 0.3456
38 6 -16 -10.3734 1.3302
38 6 -13 -0.4180 -0.0202
38 6 -10 0.4443 0.3196
38 6 -7 6.5244 0.5481
38 6 -4 11.1677 0.0542
38 6 -1 -10.7343 -0.3081
38 6 2 4.7373 0.0207
38 6 5 14.3382 0.8970
38 6 8 -19.3055 0.3791
38 6 11 -2.6392 -0.3346
38 6 14 0.0437 -0.6439
38 6 17 -1.8544 -0.0094
38 6 20 1.3033 0.0010
38 7 -17 7.2080 0.6941
38 7 -14 -5.3553 0.1870
38 7 -11 17.3481 0.7715
38 7 -8 4.8532 -0.2953
38 7 -5 3.1603 -0.1726
38 7 -2 -2.8136 -0.1091
38 7 1 2.1486 0.0700
38 7 4 4.7834 0.2670
38 7 7 9.5738 -0.1867
38 7 10 -13.2000 0.4362
38 7 13 4.6512 0.3871
38 7 16 0.4033 -0.0327
38 8 -15 5.1487 -0.0895
38 8 -12 3.8310 0.9811
38 8 -9 -2.8881 0.0441
38 8 -6 4.8963 0.2102
38 8 -3 -0.3893 1.1833
38 8 0 9.4596 0.1703
38 8 3 -1.1962 -0.6279
38 8 6 6.9813 -0.6289
38 8 9 -3.9461 -0.0306
38 8 12 4.7047 0.4651
38 8 15 7.9576 1.3064
38 9 -10 -2.4279 -0.1830
38 9 -7 3.3724 0.1990
38 9 -4 -2.9338 -0.5414
38 9 -1 2.8784 0.0532
38 9 2 0.4243 -0.0077
38 9 5 5.0235 0.2195
38 9 8 -5.2263 0.7792
39 1 -25 1.1456 -1.0816
39 1 -22 -0.6126 0.5702
39 1 -19 -10.5868 1.4091
39 1 -16 -3.8010 -0.8021
39 1 -13 0.3023 -0.9463
39 1 -10 -16.1701 1.6692
39 1 -7 19.8476 1.6795
39 1 -4 -4.1955 -1.4101
39 1 -1 17.6811 -1.6667
39 1 2 6.6540 1.0123
39 1 5 6.6942 1.7151
39 1 8 2.5013 -1.0964
39 1 11 -0.4683 -1.3944
39 1 14 -7.4434 0.3478
39 1 17 -0.0660 1.5805
39 1 20 -14.2784 -0.3083
39 1 23 -3.6678 -1.1326
39 1 26 -2.8458 -0.9709
39 2 -26 -12.9196 -0.4722
39 2 -23 6.4889 0.1566
39 2 -20 -10.4659 -0.3894
39 2 -17 15.9674 -0.6387
39 2 -14 4.0791 0.2837
39 2 -11 -4.2108 1.3381
39 2 -8 4.3635 0.3412
39 2 -5 2.7399 -1.2591
39 2 -2 -3.4462 -0.9316
39 2 1 2.9915 0.7103
39 2 4 0.1722 1.3103
39 2 7 6.6869 -0.0854
39 2 10 2.4081 -1.1525
39 2 13 -14.2098 0.6490
39 2 16 -1.1239 1.3635
39 2 19 3.7008 -0.0606
39 2 22 -10.1367 -0.4786
39 2 25 6.2093 1.4942
39 3 -24 2.6508 -1.5051
39 3 -21 -7.8516 -2.7427
39 3 -18 -2.6406 0.0763
39 3 -15 2.2483 2.3735
39 3 -12 -26.1388 1.0077
39 3 -9 6.6096 -1.3878
39 3 -6 -8.3698 -1.6241
39 3 -3 20.1353 1.2172
39 3 0 11.1727 1.5785
39 3 3 6.6300 -0.8158
39 3 6 0.6406 -1.9563
39 3 9 18.6934 0.2221
39 3 12 -12.2748 2.3712
39 3 15 -11.0229 1.2891
39 3 18 4.9898 -1.5016
39 3 21 -2.1677 -1.4053
39 3 24 -2.9394 2.4716
39 4 -22 -0.2316 -0.1040
39 4 -19 -0.3206 0.1767
39 4 -16 -1.2455 0.0378
39 4 -13 -0.2997 -0.4764
39 4 -10 -5.8173 0.1387
39 4 -7 19.9669 -0.4699
39 4 -4 -14.1812 -0.1897
39 4 -1 15.0169 0.3188
39 4 2 -9.3641 -0.0250
39 4 5 -3.2623 -0.1956
39 4 8 -9.7803 0.2138
39 4 11 -7.6607 0.7038
39 4 14 -10.1567 -0.3297
39 4 17 4.6830 -0.3871
39 4 20 -4.8871 -1.0464
39 5 -17 -5.4854 -0.0016
39 5 -14 -9.9399 0.1232
39 5 -11 -3.0095 -0.7687
39 5 -8 -0.8569 0.4377
39 5 -5 0.1466 0.8497
39 5 -2 0.1452 -0.1613
39 5 1 -1.5469 -0.9257
39 5 4 5.3622 -0.2258
39 5 7 -15.6563 1.6330
39 5 10 0.9235 -0.6185
39 5 13 2.9774 -0.9552
39 5 16 0.1476 -0.5667
39 5 19 -5.9750 0.7508
39 6 -15 0.3383 -0.3086
39 6 -12 -5.8270 -0.9332
39 6 -9 7.3521 0.1341
39 6 -6 -7.8361 -0.3600
39 6 -3 4.4682 -0.5194
39 6 0 -16.6480 -0.4888
39 6 3 -3.9986 0.4122
39 6 6 -8.2129 0.6865
39 6 9 -10.1362 -0.4227
39 6 12 -1.2801 -0.0582
39 6 15 -2.3283 -1.0663
39 7 -10 -14.1539 0.3465
39 7 -7 15.9809 0.4423
39 7 -4 -10.2833 -0.5792
39 7 -1 3.0165 -0.7313
39 7 2 -4.6177 0.3507
39 7 5 0.9528 0.7185
39 7 8 -2.4130 -0.7321
39 7 11 6.2968 -0.1668
39 8 -5 -8.1732 -0.5667
39 8 -2 -8.2125 -0.0469
39 8 1 1.3392 -0.0980
39 8 4 0.0878 -0.1857
40 1 -24 3.6165 0.1131
40 1 -21 -5.9367 -3.6418
40 1 -18 2.9855 -0.7984
40 1 -15 -4.3842 0.7335
40 1 -12 -4.3964 1.6855
40 1 -9 -9.1586 -1.5376
40 1 -6 -10.0528 -2.1481
40 1 -3 -0.3593 1.5802
40 1 0 -6.2688 2.6076
40 1 3 -5.6944 -0.7868
40 1 6 3.7658 -2.8395
40 1 9 5.3191 -0.6076
40 1 12 -15.7458 2.2642
40 1 15 6.9189 0.6143
40 1 18 2.3681 -1.4472
40 1 21 6.8124 -0.1031
40 1 24 1.9139 0.4370
40 2 -22 -10.5482 -1.9498
40 2 -19 7.1683 -0.6705
40 2 -16 -3.0877 1.8534
40 2 -13 2.5118 0.0747
40 2 -10 -6.5204 -1.1517
40 2 -7 4.3690 -0.7243
40 2 -4 5.8450 1.6011
40 2 -1 2.0629 1.1079
40 2 2 -16.0018 -1.4253
40 2 5 15.7849 -1.7110
40 2 8 7.3928 0.7383
40 2 11 -3.6028 2.5475
40 2 14 5.4020 0.1149
40 2 17 0.9287 -2.4253
40 2 20 -0.8447 -1.4633
40 3 -20 -4.9086 -0.3187
40 3 -17 0.3676 -1.0394
40 3 -14 -5.1094 -0.2604
40 3 -11 -5.8699 0.2678
40 3 -8 -9.3047 0.6790
40 3 -5 -7.9235 1.0324
40 3 -2 -5.5760 -0.1408
40 3 1 4.4254 -0.8903
40 3 4 2.2751 -0.1528
40 3 7 7.9795 0.1222
40 3 10 5.0062 -0.2289
40 3 13 -0.4505 0.5605
40 3 16 7.7102 0.5117
40 3 19 -13.3112 0.2306
40 4 -15 -4.9522 -0.2103
40 4 -12 -0.5123 0.0458
40 4 -9 -10.0781 0.6318
40 4 -6 0.0549 0.8451
40 4 -3 0.3340 0.4912
40 4 0 -2.7356 -0.5595
40 4 3 3.1718 -0.7406
40 4 6 -0.3339 0.0570
40 4 9 10.1816 0.7799
40 4 12 -3.6164 -0.4580
40 4 15 4.5925 0.4281
40 5 -13 -4.4992 0.2186
40 5 -10 2.2851 -0.1287
40 5 -7 5.4460 -0.0423
40 5 -4 -7.7420 -0.0078
40 5 -1 2.1622 0.4244
40 5 2 1.2553 0.1119
40 5 5 9.3638 -0.7458
40 5 8 -4.6782 0.0790
40 5 11 -1.6376 -0.1794
40 5 14 3.3488 -0.0452
40 6 -8 10.3388 1.2867
40 6 -5 -11.6943 0.3693
40 6 -2 8.8707 -0.7117
40 6 1 8.4464 -0.8008
40 6 4 -6.0844 0.6518
40 6 7 3.2575 0.7821
41 1 -20 -6.6779 0.4069
41 1 -17 3.2235 -0.0859
41 1 -14 -5.5701 -0.3365
41 1 -11 2.0226 0.3219
41 1 -8 1.2572 0.5045
41 1 -5 7.5808 -0.6026
41 1 -2 1.7379 -0.4022
41 1 1 -2.8603 -0.0284
41 1 4 12.2031 0.3279
41 1 7 4.1080 0.1560
41 1 10 3.8512 0.4372
41 1 13 3.3146 0.0405
41 1 16 -3.1970 -0.3459
41 1 19 -7.1013 0.0145
41 2 -18 3.9132 1.0744
41 2 -15 2.1048 -0.7413
41 2 -12 10.6853 -0.2984
41 2 -9 2.7363 0.3392
41 2 -6 -1.5389 0.4590
41 2 -3 12.4976 0.4013
41 2 0 -4.1358 -0.2421
41 2 3 11.6595 -0.2057
41 2 6 -4.1264 0.5292
41 2 9 -1.4088 0.7720
41 2 12 -5.2682 -0.4774
41 2 15 1.2460 -1.3864
41 2 18 -13.7240 1.2282
41 3 -13 4.9230 -2.1887
41 3 -10 -6.2884 -0.8984
41 3 -7 1.7978 0.5714
41 3 -4 5.9763 1.5593
41 3 -1 -4.8623 -0.4294
41 3 2 5.4367 -1.9131
41 3 5 3.5583 0.2586
41 3 8 -2.0728 1.7432
41 3 11 5.3776 0.1097
41 3 14 -1.7896 -1.2028
41 4 -11 1.7303 0.2547
41 4 -8 0.9019 -0.5182
41 4 -5 -5.9284 -0.1270
41 4 -2 -4.0300 0.7913
41 4 1 11.1583 0.8003
41 4 4 -7.0041 -0.5804
41 4 7 -8.0618 -1.1860
41 4 10 -3.3092 0.5853
41 5 -3 6.9472 -0.4120
41 5 0 0.1497 -0.1738
41 5 3 -8.0862 0.4596
42 1 -13 0.1105 -2.3301
42 1 -10 -13.8865 -0.9358
42 1 -7 2.4764 2.4106
42 1 -4 -5.2191 1.2984
42 1 -1 -11.7951 -1.5456
42 1 2 -4.3118 -1.6692
42 1 5 -3.1447 1.2471
42 1 8 -1.7715 1.6148
42 1 11 3.9799 -1.0416
42 1 14 3.1225 -1.8364
42 2 -11 6.3005 -0.8356
42 2 -8 9.0497 1.7929
42 2 -5 -3.4076 0.7664
42 2 -2 -8.3389 -1.3820
42 2 1 -1.0728 -0.9876
42 2 4 -7.8833 1.0537
42 2 7 -4.4661 2.0121
42 2 10 -0.9667 -0.7413
42 3 -6 -18.3759 -1.9177
42 3 -3 -1.4301 0.7685
42 3 0 -1.6575 2.2317
42 3 3 -6.6651 -0.2228
42 3 6 0.1889 -2.2702
43 1 -6 -1.5824 -1.8601
43 1 -3 5.2011 -0.5314
43 1 0 3.5595 1.2131
43 1 3 5.5747 0.9082
43 1 6 1.0330 -0.5940
0 0 0 0.0 0.0
;
_shelx_fab_checksum              54154
_olex2_submission_special_instructions 'No special instructions were received'
loop_
_space_group_symop_operation_xyz
'x, y, z'
'-y, x-y, z'
'-x+y, -x, z'
'x+2/3, y+1/3, z+1/3'
'-y+2/3, x-y+1/3, z+1/3'
'-x+y+2/3, -x+1/3, z+1/3'
'x+1/3, y+2/3, z+2/3'
'-y+1/3, x-y+2/3, z+2/3'
'-x+y+1/3, -x+2/3, z+2/3'
'-x, -y, -z'
'y, -x+y, -z'
'x-y, x, -z'
'-x+2/3, -y+1/3, -z+1/3'
'y+2/3, -x+y+1/3, -z+1/3'
'x-y+2/3, x+1/3, -z+1/3'
'-x+1/3, -y+2/3, -z+2/3'
'y+1/3, -x+y+2/3, -z+2/3'
'x-y+1/3, x+2/3, -z+2/3'
loop_
_atom_site_label
_atom_site_type_symbol
_atom_site_fract_x
_atom_site_fract_y
_atom_site_fract_z
_atom_site_U_iso_or_equiv
_atom_site_adp_type
_atom_site_occupancy
_atom_site_site_symmetry_order
_atom_site_calc_flag
_atom_site_refinement_flags_posn
_atom_site_refinement_flags_adp
_atom_site_refinement_flags_occupancy
_atom_site_disorder_assembly
_atom_site_disorder_group
Ce1 Ce 0.53444(2) 0.55898(2) 0.25839(2) 0.04653(11) Uani 1 1 d . . . . .
Cl1 Cl 0.51074(6) 0.54681(7) 0.10462(4) 0.1210(6) Uani 1 1 d . . . . .
Cl2 Cl 0.54552(8) 0.50334(7) 0.11229(5) 0.1365(8) Uani 1 1 d . . . . .
Cl3 Cl 0.58264(7) 0.56942(8) 0.08480(9) 0.1938(16) Uani 1 1 d . . . . .
N4 N 0.49900(9) 0.58824(9) 0.24359(6) 0.0451(7) Uani 1 1 d . . . . .
Cl6 Cl 0.66514(13) 0.70150(9) 0.28411(8) 0.219(2) Uani 1 1 d . . . . .
N7 N 0.54312(10) 0.59787(10) 0.29636(6) 0.0512(8) Uani 1 1 d . . . . .
N3 N 0.53719(9) 0.55875(9) 0.21226(7) 0.0470(8) Uani 1 1 d . . . . .
N1 N 0.47105(9) 0.52586(9) 0.27553(7) 0.0488(8) Uani 1 1 d . . . . .
N6 N 0.58741(10) 0.62282(10) 0.25162(7) 0.0538(8) Uani 1 1 d . . . . .
C16 C 0.45659(11) 0.57594(12) 0.27901(8) 0.0509(9) Uani 1 1 d . . . . .
N2 N 0.50450(10) 0.49398(9) 0.24250(7) 0.0525(8) Uani 1 1 d . . . . .
N5 N 0.59209(10) 0.55679(10) 0.25095(7) 0.0543(8) Uani 1 1 d . . . . .
C11 C 0.53010(11) 0.61217(10) 0.20342(8) 0.0470(9) Uani 1 1 d . . . . .
Cl4 Cl 0.69676(18) 0.75967(13) 0.31907(9) 0.252(2) Uani 1 1 d . . . . .
N8 N 0.54590(10) 0.53014(10) 0.29518(7) 0.0564(9) Uani 1 1 d . . . . .
C33 C 0.60388(12) 0.68098(11) 0.23774(9) 0.0559(10) Uani 1 1 d . . . . .
H33 H 0.604146 0.703598 0.235757 0.067 Uiso 1 1 calc R U . . .
C14 C 0.47773(12) 0.62892(12) 0.24893(8) 0.0511(10) Uani 1 1 d . . . . .
H14 H 0.466158 0.641138 0.256251 0.061 Uiso 1 1 calc R U . . .
C6 C 0.53960(12) 0.50203(12) 0.20341(9) 0.0570(11) Uani 1 1 d . . . . .
C13 C 0.49712(11) 0.63820(11) 0.22771(8) 0.0505(10) Uani 1 1 d . . . . .
H13 H 0.501346 0.657930 0.216966 0.061 Uiso 1 1 calc R U . . .
C17 C 0.45310(12) 0.54247(12) 0.28646(7) 0.0531(10) Uani 1 1 d . . . . .
C71 C 0.54453(14) 0.68867(12) 0.15095(8) 0.0586(11) Uani 1 1 d . . . . .
C1 C 0.46166(11) 0.46316(12) 0.27698(10) 0.0606(12) Uani 1 1 d . . . . .
C12 C 0.51052(11) 0.61263(10) 0.22410(8) 0.0460(9) Uani 1 1 d . . . . .
C10 C 0.54240(11) 0.58767(11) 0.19763(7) 0.0468(9) Uani 1 1 d . . . . .
C28 C 0.64199(14) 0.56011(14) 0.23013(9) 0.0626(11) Uani 1 1 d . . . . .
H28 H 0.663499 0.569337 0.220146 0.075 Uiso 1 1 calc R U . . .
C69 C 0.53536(12) 0.63829(11) 0.18397(8) 0.0496(9) Uani 1 1 d . . . . .
C120 C 0.55684(13) 0.71650(14) 0.27672(9) 0.0607(11) Uani 1 1 d . . . . .
C91 C 0.43242(13) 0.58772(14) 0.29213(9) 0.0595(11) Uani 1 1 d . . . . .
C15 C 0.47774(11) 0.59693(12) 0.25855(8) 0.0501(9) Uani 1 1 d . . . . .
C79 C 0.55490(14) 0.68373(13) 0.12423(9) 0.0627(12) Uani 1 1 d . . . . .
C32 C 0.62298(13) 0.66912(12) 0.22394(9) 0.0567(11) Uani 1 1 d . . . . .
H32 H 0.639683 0.682264 0.210847 0.068 Uiso 1 1 calc R U . . .
C70 C 0.53855(13) 0.65934(12) 0.16814(8) 0.0557(10) Uani 1 1 d . . . . .
C90 C 0.51167(14) 0.69484(12) 0.14865(8) 0.0592(11) Uani 1 1 d . . . . .
O5 O 0.68925(13) 0.61176(15) 0.14578(9) 0.1068(15) Uani 1 1 d . . . . .
C228 C 0.55339(14) 0.37383(15) 0.26509(11) 0.0719(14) Uani 1 1 d . . . . .
C8 C 0.56036(12) 0.55542(12) 0.17441(8) 0.0538(10) Uani 1 1 d . . . . .
H8 H 0.569616 0.546930 0.161418 0.065 Uiso 1 1 calc R U . . .
C63 C 0.55064(15) 0.48357(13) 0.18494(10) 0.0678(13) Uani 1 1 d . . . . .
C37 C 0.53896(13) 0.64212(14) 0.31898(9) 0.0605(11) Uani 1 1 d . . . . .
H37 H 0.539835 0.664576 0.323021 0.073 Uiso 1 1 calc R U . . .
C121 C 0.55148(15) 0.74764(14) 0.27811(9) 0.0646(12) Uani 1 1 d . . . . .
C113 C 0.66000(13) 0.62932(13) 0.20658(9) 0.0589(11) Uani 1 1 d . . . . .
C27 C 0.62624(14) 0.52878(14) 0.24260(10) 0.0658(12) Uani 1 1 d . . . . .
H27 H 0.633773 0.510872 0.242602 0.079 Uiso 1 1 calc R U . . .
C20 C 0.45518(11) 0.49123(13) 0.28557(9) 0.0575(11) Uani 1 1 d . . . . .
C41 C 0.44252(13) 0.42900(14) 0.29045(11) 0.0695(14) Uani 1 1 d . . . . .
C19 C 0.42817(13) 0.48634(14) 0.30373(9) 0.0650(13) Uani 1 1 d . . . . .
H19 H 0.414071 0.464964 0.313560 0.078 Uiso 1 1 calc R U . . .
C7 C 0.54683(11) 0.53816(12) 0.19772(8) 0.0517(10) Uani 1 1 d . . . . .
C107 C 0.58666(14) 0.36260(13) 0.30738(11) 0.0666(13) Uani 1 1 d . . . . .
C38 C 0.52820(12) 0.61287(14) 0.33417(9) 0.0616(12) Uani 1 1 d . . . . .
H38 H 0.520620 0.611174 0.351047 0.074 Uiso 1 1 calc R U . . .
C119 C 0.56137(13) 0.69009(12) 0.27624(8) 0.0567(10) Uani 1 1 d . . . . .
C9 C 0.55775(12) 0.58596(12) 0.17400(8) 0.0547(10) Uani 1 1 d . . . . .
H9 H 0.564669 0.603122 0.160709 0.066 Uiso 1 1 calc R U . . .
C89 C 0.47859(16) 0.67601(14) 0.16049(9) 0.0678(13) Uani 1 1 d . . . . .
H89 H 0.473868 0.656182 0.171286 0.081 Uiso 1 1 calc R U . . .
C92 C 0.40252(14) 0.58530(16) 0.27969(10) 0.0712(13) Uani 1 1 d . . . . .
H92 H 0.397613 0.577204 0.262867 0.085 Uiso 1 1 calc R U . . .
C21 C 0.52895(12) 0.52529(13) 0.31788(9) 0.0571(11) Uani 1 1 d . . . . .
C96 C 0.43866(15) 0.59841(16) 0.31715(9) 0.0704(13) Uani 1 1 d . . . . .
H96 H 0.458677 0.599184 0.325944 0.084 Uiso 1 1 calc R U . . .
C5 C 0.51855(12) 0.48208(11) 0.22394(9) 0.0571(11) Uani 1 1 d . . . . .
C122 C 0.54309(14) 0.75902(13) 0.25262(9) 0.0633(12) Uani 1 1 d . . . . .
C85 C 0.51967(16) 0.72528(14) 0.13293(9) 0.0685(13) Uani 1 1 d . . . . .
C2 C 0.48266(11) 0.46415(11) 0.25660(9) 0.0545(11) Uani 1 1 d . . . . .
C72 C 0.57696(14) 0.72573(12) 0.15966(9) 0.0614(12) Uani 1 1 d . . . . .
C18 C 0.42630(13) 0.51719(14) 0.30440(8) 0.0603(11) Uani 1 1 d . . . . .
H18 H 0.410531 0.521759 0.314623 0.072 Uiso 1 1 calc R U . . .
C31 C 0.61340(12) 0.63308(12) 0.23272(8) 0.0531(10) Uani 1 1 d . . . . .
C108 C 0.58450(14) 0.34771(14) 0.33106(12) 0.0725(14) Uani 1 1 d . . . . .
H108 H 0.584258 0.325057 0.332721 0.087 Uiso 1 1 calc R U . . .
C39 C 0.53026(12) 0.58490(13) 0.32029(8) 0.0571(11) Uani 1 1 d . . . . .
O4 O 0.42150(16) 0.61857(17) 0.35352(9) 0.130(2) Uani 1 1 d D . . . .
C84 C 0.56125(16) 0.71341(14) 0.10866(10) 0.0717(14) Uani 1 1 d . . . . .
C34 C 0.58350(13) 0.65350(12) 0.25561(9) 0.0577(11) Uani 1 1 d . . . . .
O6 O 0.75273(12) 0.70761(13) 0.20603(12) 0.1232(19) Uani 1 1 d . . . . .
C3 C 0.48393(13) 0.43244(13) 0.24745(11) 0.0674(13) Uani 1 1 d . . . . .
H3 H 0.471617 0.408431 0.254441 0.081 Uiso 1 1 calc R U . . .
C29 C 0.62040(12) 0.57785(12) 0.23450(8) 0.0534(10) Uani 1 1 d . . . . .
C22 C 0.52114(13) 0.48979(14) 0.32770(10) 0.0676(14) Uani 1 1 d . . . . .
H22 H 0.508416 0.478893 0.342752 0.081 Uiso 1 1 calc R U . . .
C36 C 0.54886(13) 0.63286(12) 0.29552(8) 0.0552(10) Uani 1 1 d . . . . .
C4 C 0.50537(13) 0.44298(12) 0.22755(10) 0.0607(12) Uani 1 1 d . . . . .
H4 H 0.511125 0.427918 0.217481 0.073 Uiso 1 1 calc R U . . .
C77 C 0.58375(16) 0.75478(14) 0.14386(10) 0.0706(13) Uani 1 1 d . . . . .
C73 C 0.59800(14) 0.73204(13) 0.18079(10) 0.0661(12) Uani 1 1 d . . . . .
H73 H 0.593764 0.712162 0.191390 0.079 Uiso 1 1 calc R U . . .
C184 C 0.55486(14) 0.34124(14) 0.26805(10) 0.0676(13) Uani 1 1 d . . . . .
C24 C 0.55155(12) 0.50025(12) 0.29161(10) 0.0587(11) Uani 1 1 d . . . . .
C98 C 0.58267(14) 0.44080(14) 0.27608(11) 0.0687(13) Uani 1 1 d . . . . .
C95 C 0.41542(17) 0.60778(17) 0.32880(10) 0.0785(15) Uani 1 1 d D . . . .
C123 C 0.54223(15) 0.74341(13) 0.22960(9) 0.0651(12) Uani 1 1 d . . . . .
H123 H 0.546803 0.723478 0.228344 0.078 Uiso 1 1 calc R U . . .
C99 C 0.58564(14) 0.40724(14) 0.27829(11) 0.0679(13) Uani 1 1 d . . . . .
C26 C 0.59585(12) 0.52661(12) 0.25607(9) 0.0552(10) Uani 1 1 d . . . . .
C40 C 0.52220(13) 0.55050(14) 0.32969(9) 0.0619(12) Uani 1 1 d . . . . .
C106 C 0.58862(14) 0.34705(14) 0.28258(11) 0.0713(14) Uani 1 1 d . . . . .
H106 H 0.590121 0.324092 0.284132 0.086 Uiso 1 1 calc R U . . .
C23 C 0.53491(13) 0.47516(14) 0.31195(11) 0.0677(13) Uani 1 1 d . . . . .
H23 H 0.533859 0.452164 0.313882 0.081 Uiso 1 1 calc R U . . .
C80 C 0.55751(15) 0.65436(15) 0.11535(10) 0.0687(13) Uani 1 1 d . . . . .
H80 H 0.553477 0.634791 0.126195 0.082 Uiso 1 1 calc R U . . .
C134 C 0.51907(17) 0.74104(16) 0.29500(10) 0.0734(14) Uani 1 1 d . . . . .
C114 C 0.65745(14) 0.61144(16) 0.18405(10) 0.0705(13) Uani 1 1 d . . . . .
H114 H 0.635661 0.589361 0.179684 0.085 Uiso 1 1 calc R U . . .
C30 C 0.62925(12) 0.61248(12) 0.22496(8) 0.0552(10) Uani 1 1 d . . . . .
C86 C 0.4919(2) 0.73395(17) 0.12953(11) 0.0826(17) Uani 1 1 d . . . . .
H86 H 0.496051 0.753440 0.118587 0.099 Uiso 1 1 calc R U . . .
C100 C 0.61984(14) 0.41024(14) 0.26681(11) 0.0709(13) Uani 1 1 d . . . . .
C97 C 0.57899(13) 0.46716(14) 0.27450(10) 0.0672(13) Uani 1 1 d . . . . .
C88 C 0.45186(18) 0.68567(17) 0.15686(10) 0.0777(15) Uani 1 1 d . . . . .
H88 H 0.428573 0.672271 0.164780 0.093 Uiso 1 1 calc R U . . .
C76 C 0.61152(18) 0.79023(14) 0.14965(12) 0.0837(17) Uani 1 1 d . . . . .
H76 H 0.616279 0.810108 0.138889 0.100 Uiso 1 1 calc R U . . .
C25 C 0.57438(12) 0.49867(12) 0.27354(9) 0.0573(11) Uani 1 1 d . . . . .
C127 C 0.53634(15) 0.78853(14) 0.25405(10) 0.0679(13) Uani 1 1 d . . . . .
C118 C 0.69249(14) 0.66222(14) 0.21252(12) 0.0734(14) Uani 1 1 d . . . . .
H118 H 0.693840 0.675088 0.227412 0.088 Uiso 1 1 calc R U . . .
C105 C 0.62182(14) 0.37807(14) 0.26893(11) 0.0689(13) Uani 1 1 d . . . . .
C101 C 0.64797(15) 0.44045(15) 0.25455(11) 0.0734(14) Uani 1 1 d . . . . .
H101 H 0.647087 0.462540 0.253035 0.088 Uiso 1 1 calc R U . . .
C87 C 0.4597(2) 0.71540(18) 0.14137(11) 0.0853(17) Uani 1 1 d . . . . .
H87 H 0.441715 0.722614 0.139177 0.102 Uiso 1 1 calc R U . . .
C94 C 0.38636(19) 0.6054(2) 0.31750(14) 0.096(2) Uani 1 1 d . . . . .
H94 H 0.370086 0.610766 0.326487 0.115 Uiso 1 1 calc R U . . .
Cl5 Cl 0.7380(2) 0.73108(16) 0.29479(17) 0.332(4) Uani 1 1 d . . . . .
C35 C 0.56388(12) 0.65727(12) 0.27532(8) 0.0549(10) Uani 1 1 d . . . . .
C109 C 0.58273(15) 0.36572(15) 0.35191(11) 0.0718(14) Uani 1 1 d . . . . .
H109 H 0.581682 0.355659 0.367959 0.086 Uiso 1 1 calc R U . . .
C102 C 0.67687(16) 0.43828(18) 0.24470(13) 0.0875(17) Uani 1 1 d . . . . .
H102 H 0.696173 0.459079 0.236550 0.105 Uiso 1 1 calc R U . . .
C110 C 0.58246(15) 0.39874(15) 0.34972(12) 0.0768(15) Uani 1 1 d . . . . .
H110 H 0.581549 0.411296 0.364199 0.092 Uiso 1 1 calc R U . . .
O7 O 0.42839(18) 0.5196(2) 0.39492(10) 0.156(3) Uani 1 1 d . . . . .
C78 C 0.55687(17) 0.74294(14) 0.12221(10) 0.0752(15) Uani 1 1 d . . . . .
H78 H 0.561778 0.763988 0.111045 0.090 Uiso 1 1 calc R U . . .
C124 C 0.53455(17) 0.75754(16) 0.20843(11) 0.0772(15) Uani 1 1 d . . . . .
H124 H 0.534433 0.747210 0.192647 0.093 Uiso 1 1 calc R U . . .
C112 C 0.58497(13) 0.39527(14) 0.30567(10) 0.0637(12) Uani 1 1 d . . . . .
O3 O 0.34948(14) 0.59369(17) 0.28211(12) 0.1195(18) Uani 1 1 d D . . . .
C126 C 0.52859(19) 0.80190(16) 0.23272(12) 0.0856(17) Uani 1 1 d . . . . .
H126 H 0.524181 0.821973 0.233589 0.103 Uiso 1 1 calc R U . . .
C83 C 0.56991(17) 0.71231(16) 0.08394(10) 0.0773(15) Uani 1 1 d . . . . .
H83 H 0.574269 0.731977 0.073092 0.093 Uiso 1 1 calc R U . . .
C133 C 0.49640(18) 0.70952(18) 0.30718(12) 0.0846(16) Uani 1 1 d . . . . .
H133 H 0.499615 0.688738 0.305755 0.102 Uiso 1 1 calc R U . . .
C129 C 0.5137(2) 0.77207(18) 0.29653(12) 0.0859(17) Uani 1 1 d . . . . .
C111 C 0.58352(15) 0.41301(15) 0.32622(11) 0.0725(14) Uani 1 1 d . . . . .
H111 H 0.583234 0.435398 0.324590 0.087 Uiso 1 1 calc R U . . .
C82 C 0.57223(18) 0.6830(2) 0.07500(11) 0.0894(18) Uani 1 1 d . . . . .
H82 H 0.578150 0.682598 0.057943 0.107 Uiso 1 1 calc R U . . .
C74 C 0.62527(17) 0.76739(14) 0.18647(11) 0.0789(15) Uani 1 1 d . . . . .
H74 H 0.639561 0.771898 0.201157 0.095 Uiso 1 1 calc R U . . .
C42 C 0.42714(16) 0.40156(15) 0.30237(13) 0.0827(17) Uani 1 1 d . . . . .
C125 C 0.52734(18) 0.78510(17) 0.20951(11) 0.0824(16) Uani 1 1 d . . . . .
H125 H 0.521372 0.793463 0.194726 0.099 Uiso 1 1 calc R U . . .
C104 C 0.65109(14) 0.37670(16) 0.25884(11) 0.0752(14) Uani 1 1 d . . . . .
H104 H 0.652340 0.354824 0.260542 0.090 Uiso 1 1 calc R U . . .
C115 C 0.68829(18) 0.62719(19) 0.16792(12) 0.0869(17) Uani 1 1 d . . . . .
C141 C 0.50950(17) 0.54337(16) 0.35636(10) 0.0753(15) Uani 1 1 d . . . . .
O2 O 0.6334(2) 0.4848(2) 0.16323(14) 0.154(2) Uani 1 1 d D . . . .
C75 C 0.63189(19) 0.79646(15) 0.17072(13) 0.0871(17) Uani 1 1 d . . . . .
H75 H 0.650684 0.820731 0.174704 0.104 Uiso 1 1 calc R U . . .
C68 C 0.58696(17) 0.49289(18) 0.18224(12) 0.0829(16) Uani 1 1 d . . . . .
H68 H 0.604981 0.511640 0.192555 0.100 Uiso 1 1 calc R U . . .
C103 C 0.67832(17) 0.40575(19) 0.24648(13) 0.0887(17) Uani 1 1 d . . . . .
H103 H 0.698034 0.404063 0.239155 0.106 Uiso 1 1 calc R U . . .
C93 C 0.37939(16) 0.5952(2) 0.29259(13) 0.0856(17) Uani 1 1 d . . . . .
C135 C 0.58464(17) 0.78338(15) 0.28791(10) 0.0742(14) Uani 1 1 d . . . . .
C81 C 0.56609(16) 0.65351(16) 0.09040(10) 0.0749(14) Uani 1 1 d . . . . .
H81 H 0.567753 0.633323 0.083932 0.090 Uiso 1 1 calc R U . . .
C182 C 0.52590(17) 0.37436(17) 0.25168(13) 0.0866(18) Uani 1 1 d . . . . .
H182 H 0.525028 0.396398 0.249739 0.104 Uiso 1 1 calc R U . . .
O1 O 0.5115(2) 0.41509(19) 0.13520(14) 0.158(3) Uani 1 1 d . . . . .
C142 C 0.47444(19) 0.5342(2) 0.36247(10) 0.094(2) Uani 1 1 d . . . . .
H142 H 0.457635 0.531819 0.349746 0.113 Uiso 1 1 calc R U . . .
C64 C 0.52360(19) 0.45653(16) 0.16934(12) 0.0847(17) Uani 1 1 d . . . . .
H64 H 0.498407 0.449486 0.171120 0.102 Uiso 1 1 calc R U . . .
C146 C 0.5349(2) 0.5470(2) 0.37462(12) 0.100(2) Uani 1 1 d . . . . .
H146 H 0.558886 0.552200 0.369942 0.120 Uiso 1 1 calc R U . . .
C130 C 0.4864(2) 0.7701(2) 0.31122(13) 0.102(2) Uani 1 1 d . . . . .
H130 H 0.483243 0.790864 0.312864 0.122 Uiso 1 1 calc R U . . .
C185 C 0.52881(15) 0.30957(17) 0.25682(13) 0.0869(17) Uani 1 1 d . . . . .
H185 H 0.530449 0.287851 0.257940 0.104 Uiso 1 1 calc R U . . .
C128 C 0.54083(18) 0.80395(16) 0.28022(11) 0.0809(16) Uani 1 1 d . . . . .
H128 H 0.536931 0.825557 0.280984 0.097 Uiso 1 1 calc R U . . .
C140 C 0.57909(19) 0.81336(16) 0.28876(11) 0.0813(16) Uani 1 1 d . . . . .
C66 C 0.5711(3) 0.4491(2) 0.14893(16) 0.118(3) Uani 1 1 d . . . . .
H66 H 0.577753 0.437158 0.136643 0.141 Uiso 1 1 calc R U . . .
C117 C 0.72173(16) 0.67546(16) 0.19700(13) 0.0845(17) Uani 1 1 d . . . . .
C139 C 0.6063(2) 0.84710(18) 0.29673(12) 0.106(2) Uani 1 1 d . . . . .
H139 H 0.602095 0.867257 0.297923 0.127 Uiso 1 1 calc R U . . .
C188 C 0.49869(19) 0.3408(2) 0.24073(17) 0.110(3) Uani 1 1 d . . . . .
H188 H 0.479280 0.340077 0.231190 0.132 Uiso 1 1 calc R U . . .
C65 C 0.5349(3) 0.4404(2) 0.15125(15) 0.110(2) Uani 1 1 d . . . . .
C136 C 0.61836(17) 0.78670(17) 0.29445(10) 0.0806(15) Uani 1 1 d . . . . .
H136 H 0.622054 0.766169 0.293681 0.097 Uiso 1 1 calc R U . . .
C116 C 0.72026(17) 0.65857(18) 0.17455(13) 0.0918(19) Uani 1 1 d . . . . .
H116 H 0.741056 0.668514 0.163827 0.110 Uiso 1 1 calc R U . . .
C132 C 0.4676(2) 0.7079(2) 0.32218(14) 0.109(2) Uani 1 1 d . . . . .
H132 H 0.451482 0.686046 0.331034 0.130 Uiso 1 1 calc R U . . .
C57 C 0.3653(2) 0.34485(18) 0.3093(2) 0.129(3) Uani 1 1 d . U . . .
C67 C 0.5982(2) 0.4755(2) 0.16473(16) 0.110(2) Uani 1 1 d . . . . .
O8 O 0.5476(3) 0.5476(2) 0.41869(10) 0.168(3) Uani 1 1 d D . . . .
C186 C 0.50075(19) 0.3091(2) 0.24413(15) 0.104(2) Uani 1 1 d . . . . .
H186 H 0.481999 0.286537 0.237385 0.125 Uiso 1 1 calc R U . . .
C163 C 0.6570(2) 0.5801(2) 0.13745(14) 0.108(2) Uani 1 1 d . . . . .
H16A H 0.636652 0.585554 0.135892 0.130 Uiso 1 1 calc R U . . .
H16B H 0.649530 0.559843 0.149566 0.130 Uiso 1 1 calc R U . . .
C131 C 0.4636(3) 0.7383(3) 0.32363(17) 0.121(3) Uani 1 1 d . . . . .
H131 H 0.444395 0.737239 0.333575 0.146 Uiso 1 1 calc R U . . .
C50 C 0.3715(3) 0.3127(4) 0.3437(3) 0.178(5) Uani 1 1 d . U . . .
H50 H 0.357548 0.290354 0.354411 0.214 Uiso 1 1 calc R U . . .
C137 C 0.6472(2) 0.8220(2) 0.30235(12) 0.103(2) Uani 1 1 d . . . . .
H137 H 0.670415 0.825126 0.306996 0.123 Uiso 1 1 calc R U . . .
C143 C 0.4631(2) 0.5284(2) 0.38723(13) 0.120(3) Uani 1 1 d . . . . .
C138 C 0.6414(2) 0.8514(2) 0.30323(14) 0.107(2) Uani 1 1 d . . . . .
H138 H 0.660902 0.874788 0.308194 0.129 Uiso 1 1 calc R U . . .
C179 C 0.5399(2) 0.5321(2) 0.09185(17) 0.115(2) Uani 1 1 d . . . . .
H179 H 0.528488 0.518227 0.076132 0.138 Uiso 1 1 calc R U . . .
C49 C 0.4025(3) 0.3104(3) 0.3293(2) 0.155(4) Uani 1 1 d . U . . .
C58 C 0.3481(2) 0.3539(2) 0.2918(2) 0.152(4) Uani 1 1 d . U . . .
H58 H 0.360512 0.375856 0.282296 0.182 Uiso 1 1 calc R U . . .
C171 C 0.4019(2) 0.5143(4) 0.37534(17) 0.149(4) Uani 1 1 d D U . . .
H17A H 0.399165 0.494919 0.363581 0.179 Uiso 1 1 calc R U . . .
H17B H 0.410239 0.537434 0.365914 0.179 Uiso 1 1 calc R U . . .
C56 C 0.4098(3) 0.3793(3) 0.3457(2) 0.134(3) Uani 1 1 d . U . . .
C43 C 0.4082(2) 0.3685(2) 0.31773(18) 0.115(3) Uani 1 1 d . U . . .
C44 C 0.4227(3) 0.3428(3) 0.3159(2) 0.145(4) Uani 1 1 d . U . . .
C145 C 0.5252(3) 0.5430(3) 0.39901(14) 0.125(3) Uani 1 1 d D . . . .
C55 C 0.4271(2) 0.4130(4) 0.35537(16) 0.138(4) Uani 1 1 d . U . . .
H55 H 0.440370 0.433184 0.344373 0.165 Uiso 1 1 calc R U . . .
C144 C 0.4879(3) 0.5308(3) 0.40540(14) 0.160(5) Uani 1 1 d . . . . .
H144 H 0.479921 0.524200 0.422147 0.192 Uiso 1 1 calc R U . . .
C147 C 0.4739(4) 0.4027(3) 0.1379(2) 0.162(4) Uani 1 1 d . . . . .
H14A H 0.469275 0.423669 0.138067 0.194 Uiso 1 1 calc R U . . .
H14B H 0.464180 0.388466 0.153476 0.194 Uiso 1 1 calc R U . . .
C45 C 0.4532(3) 0.3483(3) 0.3014(2) 0.160(4) Uani 1 1 d . U . . .
H45 H 0.467011 0.370224 0.291999 0.193 Uiso 1 1 calc R U . . .
C164 C 0.6650(3) 0.5690(4) 0.1121(2) 0.190(7) Uani 1 1 d . . . . .
H16C H 0.680483 0.557741 0.115230 0.228 Uiso 1 1 calc R U . . .
H16D H 0.641312 0.549364 0.105401 0.228 Uiso 1 1 calc R U . . .
C155 C 0.3374(3) 0.5793(4) 0.25965(19) 0.150(4) Uani 1 1 d D . . . .
H15A H 0.330828 0.553163 0.259070 0.180 Uiso 1 1 calc R U . . .
H15B H 0.356003 0.593146 0.246630 0.180 Uiso 1 1 calc R U . . .
C52 C 0.3897(5) 0.3523(6) 0.3853(3) 0.207(7) Uani 1 1 d . U . . .
H52 H 0.373449 0.331181 0.394789 0.249 Uiso 1 1 calc R U . . .
C150 C 0.4530(4) 0.4261(4) 0.0844(2) 0.173(5) Uani 1 1 d . . . . .
H15C H 0.463386 0.436448 0.068049 0.259 Uiso 1 1 calc R U . . .
H15D H 0.464108 0.445448 0.097108 0.259 Uiso 1 1 calc R U . . .
H15E H 0.426370 0.416084 0.084130 0.259 Uiso 1 1 calc R U . . .
C165 C 0.6808(3) 0.5932(4) 0.0946(2) 0.162(4) Uani 1 1 d . . . . .
H16E H 0.704406 0.614062 0.100483 0.194 Uiso 1 1 calc R U . . .
H16F H 0.664750 0.602814 0.088960 0.194 Uiso 1 1 calc R U . . .
C46 C 0.4624(3) 0.3209(3) 0.3013(2) 0.166(4) Uani 1 1 d . U . . .
H46 H 0.482633 0.323749 0.291650 0.199 Uiso 1 1 calc R U . . .
C48 C 0.4118(3) 0.2838(3) 0.3290(3) 0.194(6) Uani 1 1 d . U . . .
H48 H 0.397502 0.261735 0.338091 0.233 Uiso 1 1 calc R U . . .
C168 C 0.8179(2) 0.7514(3) 0.20901(19) 0.136(3) Uani 1 1 d . . . . .
H16G H 0.812401 0.771319 0.212210 0.163 Uiso 1 1 calc R U . . .
H16H H 0.818731 0.740560 0.225243 0.163 Uiso 1 1 calc R U . . .
C51 C 0.3942(4) 0.3502(4) 0.3617(3) 0.175(5) Uani 1 1 d . U . . .
C167 C 0.7870(2) 0.7211(2) 0.19237(19) 0.133(3) Uani 1 1 d . . . . .
H16I H 0.785617 0.731708 0.176184 0.159 Uiso 1 1 calc R U . . .
H16J H 0.792094 0.700882 0.189168 0.159 Uiso 1 1 calc R U . . .
C159 C 0.4540(4) 0.6275(5) 0.3664(2) 0.106(5) Uani 0.5 1 d D . P A 1
H15F H 0.474148 0.651284 0.360221 0.128 Uiso 0.5 1 calc R U P A 1
H15G H 0.460773 0.608417 0.363077 0.128 Uiso 0.5 1 calc R U P A 1
C61 C 0.3107(3) 0.2907(3) 0.3224(4) 0.209(6) Uani 1 1 d . U . . .
H61 H 0.298676 0.270203 0.333234 0.251 Uiso 1 1 calc R U . . .
C59 C 0.3109(3) 0.3287(4) 0.2888(4) 0.235(7) Uani 1 1 d . U . . .
H59 H 0.297981 0.332684 0.275741 0.282 Uiso 1 1 calc R U . . .
C175 C 0.5864(4) 0.5635(4) 0.4124(2) 0.183(5) Uani 1 1 d . . . . .
H17C H 0.596494 0.588497 0.405339 0.220 Uiso 1 1 calc R U . . .
H17D H 0.590235 0.547877 0.400345 0.220 Uiso 1 1 calc R U . . .
C149 C 0.4618(5) 0.3935(5) 0.0911(3) 0.204(7) Uani 1 1 d . . . . .
H14C H 0.448761 0.374087 0.078388 0.244 Uiso 1 1 calc R U . . .
H14D H 0.488403 0.403749 0.087983 0.244 Uiso 1 1 calc R U . . .
C53 C 0.4090(4) 0.3856(7) 0.3959(3) 0.218(8) Uani 1 1 d . U . . .
H53 H 0.411439 0.386911 0.413547 0.261 Uiso 1 1 calc R U . . .
C156 C 0.3020(3) 0.5837(5) 0.2565(2) 0.202(6) Uani 1 1 d D . . . .
H15H H 0.284042 0.570103 0.269892 0.243 Uiso 1 1 calc R U . . .
H15I H 0.309114 0.609960 0.257661 0.243 Uiso 1 1 calc R U . . .
C166 C 0.6879(5) 0.5714(4) 0.0718(2) 0.255(10) Uani 1 1 d . . . . .
H16K H 0.690209 0.584205 0.056019 0.382 Uiso 1 1 calc R U . . .
H16L H 0.667176 0.546223 0.070764 0.382 Uiso 1 1 calc R U . . .
H16M H 0.710620 0.570877 0.074982 0.382 Uiso 1 1 calc R U . . .
C54 C 0.4270(3) 0.4207(6) 0.3813(2) 0.233(8) Uani 1 1 d . U . . .
H54 H 0.436883 0.444604 0.388293 0.280 Uiso 1 1 calc R U . . .
C47 C 0.4416(3) 0.2887(3) 0.3156(3) 0.192(5) Uani 1 1 d . U . . .
H47 H 0.448393 0.270263 0.315983 0.230 Uiso 1 1 calc R U . . .
C169 C 0.8548(3) 0.7669(5) 0.1962(3) 0.265(10) Uani 1 1 d . . . . .
H16N H 0.858792 0.746304 0.191789 0.318 Uiso 1 1 calc R U . . .
H16O H 0.853860 0.778745 0.180476 0.318 Uiso 1 1 calc R U . . .
C160 C 0.4526(6) 0.6657(5) 0.3954(3) 0.270(9) Uani 1 1 d D . . . .
H16P H 0.428608 0.664573 0.393602 0.324 Uiso 0.5 1 calc R U P B 1
H16Q H 0.470095 0.682697 0.382753 0.324 Uiso 0.5 1 calc R U P B 1
H16R H 0.445655 0.683493 0.388927 0.324 Uiso 0.5 1 calc R U P C 2
H16S H 0.470942 0.665258 0.383962 0.324 Uiso 0.5 1 calc R U P C 2
C170 C 0.8861(5) 0.7935(5) 0.2105(3) 0.297(13) Uani 1 1 d . . . . .
H17E H 0.908450 0.794244 0.204391 0.445 Uiso 1 1 calc R U . . .
H17F H 0.882462 0.786296 0.228148 0.445 Uiso 1 1 calc R U . . .
H17G H 0.888544 0.817830 0.208759 0.445 Uiso 1 1 calc R U . . .
C60 C 0.2920(3) 0.2987(3) 0.3037(4) 0.230(7) Uani 1 1 d . U . . .
H60 H 0.266247 0.283086 0.301425 0.276 Uiso 1 1 calc R U . . .
C161 C 0.4492(12) 0.6300(8) 0.3944(3) 0.240(13) Uani 0.5 1 d D . P A 1
H16T H 0.424820 0.610528 0.400284 0.288 Uiso 0.5 1 calc R U P A 1
H16U H 0.468789 0.629024 0.404076 0.288 Uiso 0.5 1 calc R U P A 1
C162 C 0.4684(7) 0.6761(7) 0.4227(3) 0.336(12) Uani 1 1 d D . . . .
H16V H 0.455773 0.654461 0.433506 0.504 Uiso 1 1 calc R U . . .
H16W H 0.464463 0.695754 0.429123 0.504 Uiso 1 1 calc R U . . .
H16X H 0.494826 0.684644 0.422555 0.504 Uiso 1 1 calc R U . . .
C180 C 0.6910(4) 0.7181(3) 0.3099(3) 0.191(6) Uani 1 1 d . . . . .
H180 H 0.683682 0.699714 0.323716 0.230 Uiso 1 1 calc R U . . .
C172 C 0.3656(3) 0.5030(5) 0.3885(2) 0.202(6) Uani 1 1 d D U . . .
H17H H 0.369609 0.519308 0.402931 0.242 Uiso 1 1 calc R U . . .
H17I H 0.354488 0.477344 0.394660 0.242 Uiso 1 1 calc R U . . .
C173 C 0.3400(3) 0.5062(6) 0.3691(3) 0.242(8) Uani 1 1 d D U . . .
H17J H 0.354230 0.529756 0.360022 0.290 Uiso 1 1 calc R U . . .
H17K H 0.332188 0.486067 0.356819 0.290 Uiso 1 1 calc R U . . .
C176 C 0.6047(5) 0.5648(6) 0.4382(2) 0.229(8) Uani 1 1 d . . . . .
H17L H 0.601129 0.580894 0.449929 0.275 Uiso 1 1 calc R U . . .
H17M H 0.593342 0.539777 0.445484 0.275 Uiso 1 1 calc R U . . .
C177 C 0.6448(6) 0.5793(6) 0.4340(3) 0.272(10) Uani 1 1 d . . . . .
H17N H 0.657107 0.605200 0.428234 0.326 Uiso 1 1 calc R U . . .
H17O H 0.648886 0.564329 0.421525 0.326 Uiso 1 1 calc R U . . .
C148 C 0.4547(5) 0.3763(4) 0.1131(3) 0.214(7) Uani 1 1 d . . . . .
H14E H 0.463014 0.357994 0.112282 0.257 Uiso 1 1 calc R U . . .
H14F H 0.427744 0.362575 0.115546 0.257 Uiso 1 1 calc R U . . .
C174 C 0.3056(6) 0.5047(9) 0.3802(7) 0.56(3) Uani 1 1 d D U . . .
H17P H 0.306506 0.528115 0.377279 0.838 Uiso 1 1 calc R U . . .
H17Q H 0.304768 0.500094 0.398190 0.838 Uiso 1 1 calc R U . . .
H17R H 0.283641 0.484740 0.372283 0.838 Uiso 1 1 calc R U . . .
C157 C 0.2870(3) 0.5704(5) 0.2345(3) 0.204(6) Uani 1 1 d D . . . .
H15J H 0.282602 0.545053 0.232862 0.245 Uiso 1 1 calc R U . . .
H15K H 0.304523 0.585545 0.221261 0.245 Uiso 1 1 calc R U . . .
C178 C 0.6594(5) 0.5762(5) 0.4608(3) 0.254(9) Uani 1 1 d . . . . .
H17S H 0.661794 0.554138 0.461457 0.381 Uiso 1 1 calc R U . . .
H17T H 0.641945 0.574475 0.473630 0.381 Uiso 1 1 calc R U . . .
H17U H 0.683444 0.598003 0.463924 0.381 Uiso 1 1 calc R U . . .
C153 C 0.6929(4) 0.4727(5) 0.1792(3) 0.215(6) Uani 1 1 d D . . . .
H15L H 0.675936 0.446714 0.183619 0.259 Uiso 0.5 1 calc R U P D 1
H15M H 0.687412 0.487935 0.190570 0.259 Uiso 0.5 1 calc R U P D 1
H15N H 0.682634 0.456602 0.164407 0.259 Uiso 0.5 1 calc R U P E 2
H15O H 0.676337 0.461156 0.193594 0.259 Uiso 0.5 1 calc R U P E 2
C152 C 0.6834(5) 0.4785(7) 0.1534(4) 0.158(6) Uani 0.5 1 d D . P F 1
H15P H 0.692699 0.467323 0.141301 0.189 Uiso 0.5 1 calc R U P F 1
H15Q H 0.695701 0.505244 0.149923 0.189 Uiso 0.5 1 calc R U P F 1
C158 C 0.2515(2) 0.5700(4) 0.2307(2) 0.181(6) Uani 1 1 d D . . . .
H15R H 0.247124 0.570635 0.212810 0.272 Uiso 1 1 calc R U . . .
H15S H 0.252837 0.591567 0.238794 0.272 Uiso 1 1 calc R U . . .
H15T H 0.231371 0.547569 0.238008 0.272 Uiso 1 1 calc R U . . .
C151 C 0.6420(5) 0.4617(5) 0.1500(4) 0.144(6) Uani 0.5 1 d D . P F 1
H15U H 0.635678 0.461034 0.132129 0.173 Uiso 0.5 1 calc R U P F 1
H15V H 0.628590 0.436398 0.156761 0.173 Uiso 0.5 1 calc R U P F 1
C183 C 0.4179(5) 0.6263(7) 0.3981(3) 0.210(15) Uani 0.5 1 d D . P A 2
H18A H 0.401377 0.625008 0.411703 0.252 Uiso 0.5 1 calc R U P A 2
H18B H 0.424522 0.606930 0.400287 0.252 Uiso 0.5 1 calc R U P A 2
C190 C 0.4015(7) 0.6253(10) 0.3713(4) 0.212(13) Uani 0.5 1 d D . P A 2
H19A H 0.375344 0.605755 0.370692 0.254 Uiso 0.5 1 calc R U P A 2
H19B H 0.402904 0.649164 0.367815 0.254 Uiso 0.5 1 calc R U P A 2
C187 C 0.6633(4) 0.5087(6) 0.1798(3) 0.125(5) Uani 0.5 1 d D . P F 2
H18C H 0.656297 0.499673 0.197086 0.149 Uiso 0.5 1 calc R U P F 2
H18D H 0.666506 0.533727 0.179037 0.149 Uiso 0.5 1 calc R U P F 2
C154 C 0.7334(5) 0.4813(8) 0.1851(4) 0.364(15) Uani 1 1 d D . . . .
H15W H 0.743698 0.475980 0.170317 0.545 Uiso 1 1 calc R U . . .
H15X H 0.732796 0.465869 0.198995 0.545 Uiso 1 1 calc R U . . .
H15Y H 0.748686 0.507266 0.189578 0.545 Uiso 1 1 calc R U . . .
C62 C 0.3457(4) 0.3141(3) 0.3234(4) 0.213(6) Uani 1 1 d . U . . .
C191 C 0.6990(6) 0.5113(7) 0.1740(5) 0.192(9) Uani 0.5 1 d D . P F 2
H19C H 0.718731 0.529745 0.184857 0.230 Uiso 0.5 1 calc R U P F 2
H19D H 0.705880 0.518267 0.156394 0.230 Uiso 0.5 1 calc R U P F 2
loop_
_atom_site_aniso_label
_atom_site_aniso_U_11
_atom_site_aniso_U_22
_atom_site_aniso_U_33
_atom_site_aniso_U_23
_atom_site_aniso_U_13
_atom_site_aniso_U_12
Ce1 0.04234(15) 0.04036(15) 0.05252(17) 0.00740(9) -0.00805(9) 0.01740(10)
Cl1 0.1103(15) 0.1233(16) 0.1243(15) 0.0104(12) -0.0001(12) 0.0545(13)
Cl2 0.172(2) 0.1061(15) 0.1354(18) -0.0160(13) -0.0279(16) 0.0720(16)
Cl3 0.0893(15) 0.129(2) 0.339(5) 0.054(3) 0.008(2) 0.0366(14)
N4 0.0427(17) 0.0403(17) 0.0483(17) 0.0090(14) -0.0054(14) 0.0178(14)
Cl6 0.260(4) 0.136(2) 0.238(4) -0.047(2) -0.154(3) 0.082(3)
N7 0.0506(19) 0.0500(19) 0.0508(19) 0.0054(15) -0.0111(15) 0.0234(16)
N3 0.0428(18) 0.0440(18) 0.0508(19) 0.0032(14) -0.0066(14) 0.0191(15)
N1 0.0411(18) 0.0439(18) 0.0575(19) 0.0145(15) -0.0026(15) 0.0184(15)
N6 0.055(2) 0.0462(19) 0.059(2) 0.0051(16) -0.0028(17) 0.0246(17)
C16 0.048(2) 0.056(2) 0.049(2) -0.0036(19) -0.0090(18) 0.026(2)
N2 0.0497(19) 0.0423(18) 0.066(2) 0.0025(16) -0.0137(17) 0.0232(16)
N5 0.0483(19) 0.0465(19) 0.066(2) 0.0052(17) -0.0082(17) 0.0223(16)
C11 0.044(2) 0.0352(19) 0.053(2) 0.0032(16) -0.0065(17) 0.0133(17)
Cl4 0.359(7) 0.214(4) 0.234(4) -0.080(3) -0.088(4) 0.182(5)
N8 0.048(2) 0.050(2) 0.065(2) 0.0160(17) -0.0112(17) 0.0206(17)
C33 0.055(2) 0.038(2) 0.068(3) 0.0011(19) -0.005(2) 0.0177(19)
C14 0.051(2) 0.050(2) 0.052(2) -0.0013(18) -0.0046(19) 0.025(2)
C6 0.049(2) 0.048(2) 0.072(3) 0.000(2) -0.011(2) 0.023(2)
C13 0.050(2) 0.039(2) 0.062(2) -0.0016(18) -0.0136(19) 0.0227(18)
C17 0.049(2) 0.056(2) 0.042(2) 0.0090(18) -0.0042(17) 0.017(2)
C71 0.074(3) 0.039(2) 0.055(2) 0.0156(18) 0.004(2) 0.022(2)
C1 0.037(2) 0.045(2) 0.086(3) 0.018(2) -0.014(2) 0.0108(18)
C12 0.045(2) 0.0377(19) 0.055(2) 0.0020(17) -0.0091(17) 0.0201(17)
C10 0.042(2) 0.040(2) 0.050(2) 0.0066(17) -0.0023(17) 0.0137(17)
C28 0.062(3) 0.064(3) 0.068(3) 0.004(2) 0.006(2) 0.036(2)
C69 0.053(2) 0.040(2) 0.050(2) 0.0034(18) -0.0019(18) 0.0190(18)
C120 0.062(3) 0.060(3) 0.060(3) 0.000(2) -0.001(2) 0.030(2)
C91 0.054(3) 0.067(3) 0.058(3) 0.004(2) -0.001(2) 0.030(2)
C15 0.044(2) 0.050(2) 0.056(2) -0.0026(18) -0.0130(18) 0.0225(19)
C79 0.066(3) 0.048(2) 0.058(3) 0.011(2) 0.002(2) 0.017(2)
C32 0.054(2) 0.041(2) 0.063(3) 0.0078(19) -0.004(2) 0.0146(19)
C70 0.063(3) 0.041(2) 0.054(2) 0.0033(19) 0.000(2) 0.019(2)
C90 0.073(3) 0.049(2) 0.052(2) 0.0040(19) -0.006(2) 0.029(2)
O5 0.088(3) 0.131(4) 0.091(3) -0.018(3) 0.011(2) 0.047(3)
C228 0.054(3) 0.065(3) 0.093(4) 0.014(3) -0.002(3) 0.027(2)
C8 0.050(2) 0.051(2) 0.057(2) -0.0013(19) 0.0010(19) 0.024(2)
C63 0.076(3) 0.050(3) 0.085(3) -0.004(2) -0.013(3) 0.038(2)
C37 0.060(3) 0.064(3) 0.058(3) -0.003(2) -0.015(2) 0.031(2)
C121 0.070(3) 0.059(3) 0.069(3) -0.007(2) -0.006(2) 0.035(2)
C113 0.052(2) 0.053(2) 0.068(3) 0.006(2) 0.000(2) 0.024(2)
C27 0.068(3) 0.060(3) 0.079(3) 0.002(2) -0.004(2) 0.039(2)
C20 0.038(2) 0.060(3) 0.062(3) 0.017(2) -0.0080(19) 0.0145(19)
C41 0.052(3) 0.057(3) 0.092(4) 0.029(3) -0.002(2) 0.022(2)
C19 0.056(3) 0.066(3) 0.057(3) 0.018(2) -0.009(2) 0.018(2)
C7 0.044(2) 0.047(2) 0.066(3) -0.0013(19) -0.0101(19) 0.0241(19)
C107 0.057(3) 0.052(3) 0.093(4) 0.006(2) -0.015(2) 0.029(2)
C38 0.049(2) 0.075(3) 0.054(2) 0.006(2) -0.0035(19) 0.026(2)
C119 0.057(3) 0.051(2) 0.060(3) 0.002(2) -0.005(2) 0.025(2)
C9 0.058(3) 0.049(2) 0.056(2) 0.0083(19) 0.005(2) 0.025(2)
C89 0.091(4) 0.061(3) 0.049(2) 0.009(2) 0.001(2) 0.036(3)
C92 0.062(3) 0.093(4) 0.065(3) 0.003(3) 0.000(2) 0.044(3)
C21 0.045(2) 0.054(2) 0.063(3) 0.017(2) -0.010(2) 0.018(2)
C96 0.065(3) 0.083(4) 0.061(3) -0.005(2) 0.003(2) 0.036(3)
C5 0.053(2) 0.040(2) 0.076(3) 0.002(2) -0.016(2) 0.022(2)
C122 0.066(3) 0.050(2) 0.071(3) 0.002(2) -0.006(2) 0.027(2)
C85 0.096(4) 0.056(3) 0.059(3) 0.010(2) 0.000(3) 0.042(3)
C2 0.038(2) 0.041(2) 0.075(3) 0.010(2) -0.011(2) 0.0134(18)
C72 0.070(3) 0.040(2) 0.064(3) 0.007(2) 0.004(2) 0.020(2)
C18 0.056(3) 0.066(3) 0.047(2) 0.008(2) -0.0081(19) 0.022(2)
C31 0.046(2) 0.045(2) 0.060(2) 0.0012(19) -0.0098(19) 0.0167(19)
C108 0.056(3) 0.055(3) 0.110(4) 0.016(3) -0.004(3) 0.031(2)
C39 0.048(2) 0.058(3) 0.056(2) -0.002(2) -0.0178(19) 0.019(2)
O4 0.124(4) 0.148(5) 0.089(3) -0.032(3) 0.033(3) 0.045(4)
C84 0.085(4) 0.055(3) 0.064(3) 0.012(2) 0.000(3) 0.026(3)
C34 0.054(2) 0.050(2) 0.066(3) -0.001(2) -0.011(2) 0.023(2)
O6 0.063(3) 0.087(3) 0.175(5) -0.024(3) 0.023(3) 0.004(2)
C3 0.055(3) 0.046(2) 0.095(4) 0.013(2) -0.014(3) 0.020(2)
C29 0.043(2) 0.048(2) 0.061(2) 0.0024(19) -0.0100(19) 0.0165(19)
C22 0.055(3) 0.065(3) 0.075(3) 0.031(3) -0.004(2) 0.024(2)
C36 0.056(2) 0.053(2) 0.056(2) -0.0039(19) -0.013(2) 0.026(2)
C4 0.059(3) 0.042(2) 0.080(3) 0.003(2) -0.013(2) 0.025(2)
C77 0.087(4) 0.051(3) 0.065(3) 0.014(2) 0.003(3) 0.028(3)
C73 0.069(3) 0.051(3) 0.069(3) 0.007(2) -0.003(2) 0.023(2)
C184 0.055(3) 0.061(3) 0.087(3) 0.001(3) -0.007(2) 0.029(2)
C24 0.043(2) 0.047(2) 0.081(3) 0.016(2) -0.010(2) 0.0185(19)
C98 0.058(3) 0.057(3) 0.092(4) 0.012(3) -0.016(3) 0.029(2)
C95 0.075(4) 0.090(4) 0.070(3) -0.008(3) 0.007(3) 0.041(3)
C123 0.078(3) 0.050(2) 0.065(3) -0.001(2) -0.009(2) 0.030(2)
C99 0.062(3) 0.056(3) 0.090(4) 0.009(2) -0.007(3) 0.032(2)
C26 0.051(2) 0.050(2) 0.064(3) -0.002(2) -0.017(2) 0.024(2)
C40 0.052(3) 0.067(3) 0.052(2) 0.011(2) -0.016(2) 0.019(2)
C106 0.055(3) 0.058(3) 0.103(4) 0.006(3) -0.004(3) 0.030(2)
C23 0.054(3) 0.054(3) 0.096(4) 0.026(3) -0.004(3) 0.028(2)
C80 0.077(3) 0.065(3) 0.063(3) 0.011(2) 0.011(2) 0.035(3)
C134 0.091(4) 0.074(3) 0.070(3) -0.008(3) 0.001(3) 0.052(3)
C114 0.057(3) 0.074(3) 0.074(3) 0.003(3) 0.003(2) 0.028(3)
C30 0.046(2) 0.051(2) 0.060(3) 0.000(2) -0.0110(19) 0.0184(19)
C86 0.121(5) 0.070(3) 0.068(3) 0.013(3) -0.006(3) 0.057(4)
C100 0.058(3) 0.063(3) 0.094(4) 0.001(3) -0.011(3) 0.032(2)
C97 0.054(3) 0.063(3) 0.083(3) 0.012(3) -0.010(2) 0.028(2)
C88 0.095(4) 0.088(4) 0.065(3) 0.011(3) -0.005(3) 0.057(3)
C76 0.097(4) 0.040(3) 0.096(4) 0.013(3) -0.003(3) 0.021(3)
C25 0.047(2) 0.049(2) 0.073(3) 0.006(2) -0.016(2) 0.022(2)
C127 0.072(3) 0.054(3) 0.078(3) -0.007(2) -0.009(3) 0.032(2)
C118 0.059(3) 0.057(3) 0.093(4) -0.002(3) 0.001(3) 0.021(2)
C105 0.057(3) 0.063(3) 0.090(4) 0.000(3) -0.011(3) 0.033(2)
C101 0.064(3) 0.062(3) 0.098(4) 0.015(3) -0.002(3) 0.034(3)
C87 0.112(5) 0.090(4) 0.075(4) 0.008(3) -0.009(3) 0.067(4)
C94 0.087(4) 0.104(5) 0.108(5) -0.004(4) 0.028(4) 0.056(4)
Cl5 0.322(8) 0.204(5) 0.508(12) 0.042(6) -0.048(7) 0.161(5)
C35 0.050(2) 0.052(2) 0.059(2) 0.001(2) -0.007(2) 0.023(2)
C109 0.063(3) 0.067(3) 0.086(4) 0.010(3) -0.010(3) 0.034(3)
C102 0.063(3) 0.086(4) 0.112(5) 0.018(3) 0.003(3) 0.037(3)
C110 0.072(3) 0.063(3) 0.098(4) 0.004(3) -0.009(3) 0.035(3)
O7 0.117(5) 0.208(7) 0.083(3) 0.018(4) 0.031(3) 0.037(4)
C78 0.093(4) 0.056(3) 0.073(3) 0.017(2) 0.005(3) 0.035(3)
C124 0.086(4) 0.073(3) 0.075(3) -0.010(3) -0.020(3) 0.042(3)
C112 0.056(3) 0.059(3) 0.086(3) 0.007(2) -0.006(2) 0.036(2)
O3 0.079(3) 0.157(5) 0.148(5) 0.012(4) -0.005(3) 0.078(3)
C126 0.106(5) 0.068(3) 0.097(4) 0.007(3) -0.010(4) 0.054(3)
C83 0.100(4) 0.071(3) 0.055(3) 0.019(2) 0.013(3) 0.038(3)
C133 0.096(4) 0.077(4) 0.090(4) 0.007(3) 0.007(3) 0.050(4)
C129 0.114(5) 0.081(4) 0.082(4) -0.005(3) -0.004(4) 0.063(4)
C111 0.070(3) 0.067(3) 0.093(4) 0.006(3) -0.011(3) 0.043(3)
C82 0.089(4) 0.115(5) 0.055(3) 0.013(3) 0.012(3) 0.044(4)
C74 0.087(4) 0.054(3) 0.075(3) 0.003(2) -0.006(3) 0.020(3)
C42 0.064(3) 0.061(3) 0.116(5) 0.036(3) 0.006(3) 0.025(3)
C125 0.096(4) 0.080(4) 0.079(4) 0.003(3) -0.014(3) 0.051(3)
C104 0.054(3) 0.067(3) 0.103(4) -0.001(3) -0.013(3) 0.029(3)
C115 0.082(4) 0.096(4) 0.081(4) 0.000(3) 0.015(3) 0.043(4)
C141 0.078(4) 0.076(3) 0.058(3) 0.010(2) -0.012(3) 0.028(3)
O2 0.147(6) 0.183(6) 0.187(6) -0.011(5) 0.016(5) 0.125(5)
C75 0.095(4) 0.050(3) 0.098(4) 0.000(3) -0.002(4) 0.023(3)
C68 0.075(4) 0.088(4) 0.093(4) -0.012(3) -0.007(3) 0.046(3)
C103 0.067(3) 0.091(4) 0.113(5) 0.001(4) -0.005(3) 0.043(3)
C93 0.068(3) 0.109(5) 0.098(4) 0.002(4) 0.008(3) 0.058(4)
C135 0.093(4) 0.060(3) 0.062(3) -0.010(2) -0.012(3) 0.032(3)
C81 0.081(4) 0.072(3) 0.061(3) 0.002(2) 0.009(3) 0.031(3)
C182 0.073(4) 0.075(4) 0.114(5) 0.014(3) -0.017(3) 0.039(3)
O1 0.198(7) 0.141(5) 0.168(6) -0.092(5) -0.078(5) 0.108(5)
C142 0.091(4) 0.119(5) 0.051(3) 0.009(3) -0.005(3) 0.036(4)
C64 0.095(4) 0.063(3) 0.101(4) -0.017(3) -0.019(3) 0.044(3)
C146 0.110(5) 0.115(5) 0.065(4) 0.009(3) -0.032(3) 0.049(4)
C130 0.139(6) 0.106(5) 0.097(5) 0.000(4) 0.021(4) 0.090(5)
C185 0.057(3) 0.073(4) 0.123(5) 0.000(3) -0.010(3) 0.027(3)
C128 0.104(5) 0.066(3) 0.085(4) -0.013(3) -0.011(3) 0.052(3)
C140 0.105(4) 0.066(3) 0.077(3) -0.018(3) -0.013(3) 0.046(3)
C66 0.162(8) 0.128(6) 0.115(6) -0.029(5) -0.009(6) 0.111(6)
C117 0.060(3) 0.064(3) 0.112(5) 0.008(3) 0.011(3) 0.018(3)
C139 0.152(7) 0.067(4) 0.083(4) -0.018(3) -0.022(4) 0.043(4)
C188 0.072(4) 0.086(4) 0.161(7) 0.018(4) -0.033(4) 0.033(4)
C65 0.140(7) 0.079(4) 0.123(6) -0.040(4) -0.038(5) 0.065(5)
C136 0.087(4) 0.083(4) 0.068(3) -0.010(3) -0.016(3) 0.039(3)
C116 0.071(4) 0.082(4) 0.101(5) 0.021(4) 0.031(3) 0.022(3)
C132 0.131(6) 0.111(5) 0.103(5) 0.021(4) 0.040(5) 0.075(5)
C57 0.078(4) 0.062(4) 0.234(9) 0.067(5) 0.054(5) 0.024(3)
C67 0.112(6) 0.129(6) 0.126(6) -0.032(5) -0.012(5) 0.089(5)
O8 0.187(7) 0.233(8) 0.070(3) -0.002(4) -0.050(4) 0.095(7)
C186 0.079(4) 0.080(4) 0.135(6) 0.000(4) -0.035(4) 0.026(3)
C163 0.082(4) 0.121(6) 0.104(5) -0.015(4) 0.017(4) 0.037(4)
C131 0.145(7) 0.134(7) 0.127(6) 0.021(5) 0.044(6) 0.102(6)
C50 0.132(8) 0.175(9) 0.251(12) 0.152(9) 0.101(8) 0.094(7)
C137 0.112(5) 0.091(5) 0.090(4) -0.037(4) -0.047(4) 0.040(4)
C143 0.102(5) 0.136(7) 0.073(4) 0.016(4) 0.021(4) 0.024(5)
C138 0.117(6) 0.088(5) 0.094(5) -0.033(4) -0.041(4) 0.034(4)
C179 0.112(6) 0.094(5) 0.123(6) 0.016(4) 0.006(5) 0.040(5)
C49 0.140(7) 0.118(6) 0.231(10) 0.113(7) 0.071(7) 0.082(6)
C58 0.086(5) 0.084(5) 0.258(12) 0.047(6) -0.022(6) 0.022(4)
C171 0.092(5) 0.219(11) 0.109(6) -0.027(7) 0.011(5) 0.057(6)
C56 0.112(6) 0.158(8) 0.148(8) 0.088(7) 0.038(6) 0.079(6)
C43 0.113(5) 0.094(5) 0.157(7) 0.071(5) 0.066(5) 0.067(4)
C44 0.141(7) 0.124(6) 0.206(9) 0.108(6) 0.083(6) 0.092(6)
C145 0.154(8) 0.123(6) 0.072(4) 0.018(4) -0.033(5) 0.051(6)
C55 0.087(5) 0.207(11) 0.083(5) 0.041(6) 0.011(4) 0.047(6)
C144 0.169(10) 0.173(9) 0.061(4) 0.033(5) -0.013(5) 0.027(8)
C147 0.168(10) 0.150(9) 0.185(10) -0.093(8) -0.071(8) 0.092(8)
C45 0.142(7) 0.159(8) 0.230(10) 0.125(8) 0.086(7) 0.112(7)
C164 0.104(7) 0.286(16) 0.132(8) -0.091(10) 0.020(6) 0.061(8)
C155 0.099(6) 0.226(12) 0.142(8) 0.026(8) -0.019(5) 0.093(7)
C52 0.243(16) 0.305(17) 0.170(13) 0.142(13) 0.079(11) 0.209(14)
C150 0.164(10) 0.200(12) 0.120(8) -0.053(8) -0.020(7) 0.065(10)
C165 0.137(8) 0.207(12) 0.126(8) -0.007(8) 0.042(7) 0.074(8)
C46 0.154(8) 0.143(7) 0.253(11) 0.112(8) 0.090(8) 0.113(7)
C48 0.127(8) 0.129(7) 0.334(15) 0.142(9) 0.074(9) 0.071(6)
C168 0.095(6) 0.116(6) 0.148(8) 0.008(6) -0.001(5) 0.017(5)
C51 0.173(9) 0.228(11) 0.176(10) 0.144(9) 0.099(8) 0.139(9)
C167 0.070(4) 0.115(6) 0.166(8) 0.002(6) 0.039(5) 0.011(4)
C159 0.114(11) 0.147(13) 0.076(7) -0.053(8) -0.034(7) 0.079(10)
C61 0.072(5) 0.100(6) 0.424(19) 0.098(9) 0.030(9) 0.020(5)
C59 0.110(8) 0.167(11) 0.325(18) -0.015(12) -0.012(10) -0.009(8)
C175 0.223(15) 0.248(15) 0.112(8) -0.023(8) -0.065(9) 0.142(13)
C149 0.279(18) 0.279(19) 0.133(10) -0.079(11) -0.052(11) 0.200(17)
C53 0.136(10) 0.41(2) 0.127(10) 0.101(13) 0.042(8) 0.155(13)
C156 0.129(8) 0.351(18) 0.154(9) 0.030(10) -0.014(6) 0.140(10)
C166 0.295(19) 0.241(16) 0.141(10) -0.050(10) 0.105(11) 0.070(14)
C54 0.107(7) 0.41(2) 0.122(8) 0.083(11) 0.008(6) 0.086(10)
C47 0.141(8) 0.135(8) 0.332(15) 0.120(9) 0.083(9) 0.093(7)
C169 0.091(7) 0.33(2) 0.182(12) -0.015(13) 0.043(7) -0.036(10)
C160 0.25(2) 0.32(2) 0.219(13) -0.095(12) 0.011(12) 0.125(19)
C170 0.218(16) 0.29(2) 0.135(10) -0.020(11) 0.019(10) -0.058(15)
C60 0.096(7) 0.093(7) 0.43(2) 0.044(10) -0.026(10) -0.003(6)
C161 0.28(3) 0.32(2) 0.105(10) -0.089(11) -0.015(11) 0.14(2)
C162 0.34(3) 0.36(2) 0.234(15) -0.121(16) -0.023(16) 0.12(2)
C180 0.171(11) 0.124(8) 0.285(16) -0.055(9) -0.128(11) 0.077(8)
C172 0.125(8) 0.282(15) 0.165(10) -0.017(10) 0.050(8) 0.076(9)
C173 0.091(7) 0.39(2) 0.206(13) 0.023(14) 0.027(8) 0.088(11)
C176 0.188(14) 0.35(2) 0.142(10) -0.055(12) -0.085(10) 0.127(15)
C177 0.25(2) 0.32(2) 0.154(12) -0.084(13) -0.085(13) 0.075(18)
C148 0.256(17) 0.168(12) 0.202(14) -0.092(11) -0.110(13) 0.093(12)
C174 0.23(3) 0.52(4) 0.56(5) 0.16(4) -0.07(3) -0.08(3)
C157 0.131(8) 0.296(16) 0.217(10) 0.040(10) -0.035(7) 0.131(10)
C178 0.261(17) 0.36(2) 0.238(16) -0.102(15) -0.154(14) 0.230(18)
C153 0.185(10) 0.322(17) 0.212(11) 0.073(10) 0.069(9) 0.181(12)
C152 0.147(12) 0.179(17) 0.195(13) 0.048(11) 0.061(10) 0.117(12)
C158 0.104(6) 0.323(16) 0.163(8) 0.085(9) 0.023(5) 0.141(9)
C151 0.161(12) 0.181(16) 0.151(13) 0.006(11) 0.051(10) 0.132(12)
C183 0.136(17) 0.35(4) 0.150(18) -0.17(2) -0.036(14) 0.13(2)
C190 0.17(2) 0.31(4) 0.19(2) -0.08(2) -0.003(19) 0.14(3)
C187 0.089(9) 0.178(16) 0.116(11) -0.026(11) -0.016(8) 0.075(10)
C154 0.237(14) 0.62(5) 0.34(2) 0.14(2) 0.083(13) 0.29(2)
C62 0.139(8) 0.087(6) 0.376(16) 0.092(8) 0.117(10) 0.030(6)
C191 0.148(12) 0.30(2) 0.18(2) 0.046(15) 0.032(12) 0.157(14)
loop_
_atom_type_symbol
_atom_type_description
_atom_type_scat_dispersion_real
_atom_type_scat_dispersion_imag
_atom_type_scat_source
C C 0.0033 0.0016 'International Tables Vol C Tables 4.2.6.8 and 6.1.1.4'
H H 0.0000 0.0000 'International Tables Vol C Tables 4.2.6.8 and 6.1.1.4'
Ce Ce -0.2486 2.6331 'International Tables Vol C Tables 4.2.6.8 and 6.1.1.4'
Cl Cl 0.1484 0.1585 'International Tables Vol C Tables 4.2.6.8 and 6.1.1.4'
N N 0.0061 0.0033 'International Tables Vol C Tables 4.2.6.8 and 6.1.1.4'
O O 0.0106 0.0060 'International Tables Vol C Tables 4.2.6.8 and 6.1.1.4'
loop_
_geom_angle_atom_site_label_1
_geom_angle_atom_site_label_2
_geom_angle_atom_site_label_3
_geom_angle
_geom_angle_site_symmetry_1
_geom_angle_site_symmetry_3
_geom_angle_publ_flag
N4 Ce1 N7 82.32(11) . . ?
N4 Ce1 N6 81.72(11) . . ?
N4 Ce1 N2 109.28(10) . . ?
N4 Ce1 N5 142.84(11) . . ?
N3 Ce1 N4 73.95(11) . . ?
N3 Ce1 N7 144.86(11) . . ?
N3 Ce1 N1 114.01(11) . . ?
N3 Ce1 N6 80.89(11) . . ?
N3 Ce1 N2 69.90(11) . . ?
N3 Ce1 N5 78.03(11) . . ?
N3 Ce1 N8 140.40(12) . . ?
N1 Ce1 N4 69.90(10) . . ?
N1 Ce1 N7 80.26(12) . . ?
N1 Ce1 N6 141.37(12) . . ?
N1 Ce1 N2 72.74(12) . . ?
N1 Ce1 N5 145.59(11) . . ?
N1 Ce1 N8 81.21(11) . . ?
N6 Ce1 N7 70.20(12) . . ?
N6 Ce1 N2 143.61(13) . . ?
N2 Ce1 N7 143.98(12) . . ?
N5 Ce1 N7 108.89(12) . . ?
N5 Ce1 N6 70.06(12) . . ?
N5 Ce1 N2 82.74(12) . . ?
N8 Ce1 N4 143.50(12) . . ?
N8 Ce1 N7 70.94(12) . . ?
N8 Ce1 N6 110.56(12) . . ?
N8 Ce1 N2 81.59(12) . . ?
N8 Ce1 N5 71.45(12) . . ?
C12 N4 Ce1 122.5(3) . . ?
C12 N4 C15 106.2(3) . . ?
C15 N4 Ce1 124.9(2) . . ?
C39 N7 Ce1 126.1(3) . . ?
C36 N7 Ce1 124.1(3) . . ?
C36 N7 C39 106.0(4) . . ?
C10 N3 Ce1 123.8(3) . . ?
C7 N3 Ce1 127.0(3) . . ?
C7 N3 C10 105.5(4) . . ?
C17 N1 Ce1 125.1(3) . . ?
C20 N1 Ce1 123.8(3) . . ?
C20 N1 C17 105.6(4) . . ?
C31 N6 Ce1 125.1(3) . . ?
C31 N6 C34 105.2(4) . . ?
C34 N6 Ce1 120.9(3) . . ?
C17 C16 C91 116.6(4) . . ?
C17 C16 C15 124.6(4) . . ?
C15 C16 C91 118.4(4) . . ?
C5 N2 Ce1 124.6(3) . . ?
C2 N2 Ce1 123.7(3) . . ?
C2 N2 C5 106.5(4) . . ?
C29 N5 Ce1 128.0(3) . . ?
C26 N5 Ce1 124.0(3) . . ?
C26 N5 C29 104.9(4) . . ?
C12 C11 C10 128.9(4) . . ?
C12 C11 C69 115.6(4) . . ?
C10 C11 C69 115.1(4) . . ?
C21 N8 Ce1 124.3(3) . . ?
C21 N8 C24 107.2(4) . . ?
C24 N8 Ce1 119.2(3) . . ?
C32 C33 H33 126.3 . . ?
C32 C33 C34 107.4(4) . . ?
C34 C33 H33 126.3 . . ?
C13 C14 H14 126.5 . . ?
C13 C14 C15 107.0(4) . . ?
C15 C14 H14 126.5 . . ?
C7 C6 C63 117.5(4) . . ?
C5 C6 C63 119.1(4) . . ?
C5 C6 C7 122.8(4) . . ?
C14 C13 H13 126.2 . . ?
C14 C13 C12 107.6(4) . . ?
C12 C13 H13 126.2 . . ?
N1 C17 C16 125.1(4) . . ?
N1 C17 C18 109.2(4) . . ?
C16 C17 C18 125.2(4) . . ?
C70 C71 C79 114.5(4) . . ?
C70 C71 C90 113.9(4) . . ?
C70 C71 C72 110.7(4) . . ?
C90 C71 C79 106.7(4) . . ?
C90 C71 C72 105.6(4) . . ?
C72 C71 C79 104.6(4) . . ?
C20 C1 C41 115.0(5) . . ?
C2 C1 C20 127.9(4) . . ?
C2 C1 C41 117.0(5) . . ?
N4 C12 C11 126.1(4) . . ?
N4 C12 C13 109.1(4) . . ?
C11 C12 C13 124.6(4) . . ?
N3 C10 C11 124.9(4) . . ?
N3 C10 C9 109.7(4) . . ?
C11 C10 C9 124.9(4) . . ?
C27 C28 H28 126.3 . . ?
C27 C28 C29 107.4(4) . . ?
C29 C28 H28 126.3 . . ?
C70 C69 C11 178.0(5) . . ?
C119 C120 C121 178.2(5) . . ?
C92 C91 C16 119.1(4) . . ?
C92 C91 C96 120.4(5) . . ?
C96 C91 C16 120.3(4) . . ?
N4 C15 C16 125.2(4) . . ?
N4 C15 C14 109.9(4) . . ?
C16 C15 C14 124.6(4) . . ?
C84 C79 C71 111.9(4) . . ?
C80 C79 C71 126.6(4) . . ?
C80 C79 C84 121.5(5) . . ?
C33 C32 H32 126.2 . . ?
C33 C32 C31 107.6(4) . . ?
C31 C32 H32 126.2 . . ?
C69 C70 C71 173.1(5) . . ?
C89 C90 C71 127.4(4) . . ?
C89 C90 C85 120.7(5) . . ?
C85 C90 C71 111.8(4) . . ?
C115 O5 C163 118.6(5) . . ?
C184 C228 C99 112.6(4) . . ?
C182 C228 C184 121.4(5) . . ?
C182 C228 C99 126.0(5) . . ?
C7 C8 H8 126.2 . . ?
C9 C8 H8 126.2 . . ?
C9 C8 C7 107.5(4) . . ?
C68 C63 C6 121.1(5) . . ?
C68 C63 C64 119.8(5) . . ?
C64 C63 C6 119.0(5) . . ?
C38 C37 H37 126.5 . . ?
C38 C37 C36 107.0(4) . . ?
C36 C37 H37 126.5 . . ?
C120 C121 C122 113.5(4) . . ?
C120 C121 C134 113.2(4) . . ?
C120 C121 C135 115.3(5) . . ?
C134 C121 C122 105.0(4) . . ?
C134 C121 C135 105.1(4) . . ?
C135 C121 C122 103.6(4) . . ?
C114 C113 C30 120.1(4) . . ?
C114 C113 C118 119.9(5) . . ?
C118 C113 C30 120.0(5) . . ?
C28 C27 H27 126.1 . . ?
C28 C27 C26 107.8(4) . . ?
C26 C27 H27 126.1 . . ?
N1 C20 C1 124.2(4) . . ?
N1 C20 C19 110.5(4) . . ?
C1 C20 C19 124.9(4) . . ?
C42 C41 C1 177.5(7) . . ?
C20 C19 H19 126.1 . . ?
C18 C19 C20 107.8(4) . . ?
C18 C19 H19 126.1 . . ?
N3 C7 C6 125.4(4) . . ?
N3 C7 C8 110.5(4) . . ?
C8 C7 C6 123.6(4) . . ?
C108 C107 C106 128.0(5) . . ?
C108 C107 C112 118.1(5) . . ?
C112 C107 C106 113.9(5) . . ?
C37 C38 H38 126.2 . . ?
C37 C38 C39 107.6(4) . . ?
C39 C38 H38 126.2 . . ?
C120 C119 C35 175.8(5) . . ?
C10 C9 H9 126.7 . . ?
C8 C9 C10 106.6(4) . . ?
C8 C9 H9 126.7 . . ?
C90 C89 H89 119.9 . . ?
C90 C89 C88 120.3(5) . . ?
C88 C89 H89 119.9 . . ?
C91 C92 H92 120.8 . . ?
C91 C92 C93 118.4(5) . . ?
C93 C92 H92 120.8 . . ?
N8 C21 C22 107.9(5) . . ?
N8 C21 C40 125.7(4) . . ?
C40 C21 C22 126.3(5) . . ?
C91 C96 H96 120.5 . . ?
C95 C96 C91 118.9(5) . . ?
C95 C96 H96 120.5 . . ?
N2 C5 C6 127.7(4) . . ?
N2 C5 C4 108.9(4) . . ?
C6 C5 C4 123.3(5) . . ?
C123 C122 C121 126.6(4) . . ?
C123 C122 C127 119.7(5) . . ?
C127 C122 C121 113.7(4) . . ?
C90 C85 C78 113.5(5) . . ?
C86 C85 C90 117.3(5) . . ?
C86 C85 C78 129.2(5) . . ?
N2 C2 C1 126.3(4) . . ?
N2 C2 C3 110.0(4) . . ?
C1 C2 C3 123.6(4) . . ?
C77 C72 C71 113.0(4) . . ?
C73 C72 C71 126.9(4) . . ?
C73 C72 C77 120.1(5) . . ?
C17 C18 H18 126.6 . . ?
C19 C18 C17 106.8(5) . . ?
C19 C18 H18 126.6 . . ?
N6 C31 C32 109.2(4) . . ?
N6 C31 C30 124.7(4) . . ?
C30 C31 C32 125.9(4) . . ?
C107 C108 H108 119.9 . . ?
C109 C108 C107 120.2(5) . . ?
C109 C108 H108 119.9 . . ?
N7 C39 C38 109.2(4) . . ?
N7 C39 C40 125.5(4) . . ?
C40 C39 C38 125.2(4) . . ?
C95 O4 C159 123.7(7) . . ?
C95 O4 C190 133.9(11) . . ?
C79 C84 C78 112.9(5) . . ?
C83 C84 C79 118.4(5) . . ?
C83 C84 C78 128.7(5) . . ?
N6 C34 C33 110.3(4) . . ?
N6 C34 C35 124.7(4) . . ?
C35 C34 C33 124.9(4) . . ?
C117 O6 C167 117.4(6) . . ?
C2 C3 H3 126.3 . . ?
C4 C3 C2 107.4(4) . . ?
C4 C3 H3 126.3 . . ?
N5 C29 C28 109.4(4) . . ?
N5 C29 C30 126.2(4) . . ?
C30 C29 C28 124.2(4) . . ?
C21 C22 H22 125.8 . . ?
C23 C22 C21 108.4(4) . . ?
C23 C22 H22 125.8 . . ?
N7 C36 C37 110.0(4) . . ?
N7 C36 C35 125.7(4) . . ?
C35 C36 C37 124.2(4) . . ?
C5 C4 H4 126.4 . . ?
C3 C4 C5 107.2(5) . . ?
C3 C4 H4 126.4 . . ?
C72 C77 C78 112.7(4) . . ?
C76 C77 C72 119.8(5) . . ?
C76 C77 C78 127.5(5) . . ?
C72 C73 H73 120.2 . . ?
C72 C73 C74 119.7(5) . . ?
C74 C73 H73 120.2 . . ?
C228 C184 C106 113.0(4) . . ?
C185 C184 C228 119.5(5) . . ?
C185 C184 C106 127.4(5) . . ?
N8 C24 C23 108.4(5) . . ?
C25 C24 N8 124.6(4) . . ?
C25 C24 C23 126.3(4) . . ?
C97 C98 C99 177.7(6) . . ?
C96 C95 O4 119.3(6) . . ?
C94 C95 C96 122.2(6) . . ?
C94 C95 O4 118.5(6) . . ?
C122 C123 H123 120.6 . . ?
C122 C123 C124 118.8(5) . . ?
C124 C123 H123 120.6 . . ?
C98 C99 C228 111.9(4) . . ?
C98 C99 C100 114.7(4) . . ?
C98 C99 C112 112.9(5) . . ?
C100 C99 C228 104.7(5) . . ?
C100 C99 C112 106.0(4) . . ?
C112 C99 C228 105.9(4) . . ?
N5 C26 C27 110.4(4) . . ?
N5 C26 C25 125.0(4) . . ?
C25 C26 C27 124.4(4) . . ?
C21 C40 C39 126.1(5) . . ?
C21 C40 C141 118.2(4) . . ?
C39 C40 C141 115.2(5) . . ?
C107 C106 C184 105.9(4) . . ?
C107 C106 H106 112.9 . . ?
C107 C106 C105 106.1(4) . . ?
C184 C106 H106 112.9 . . ?
C184 C106 C105 105.6(4) . . ?
C105 C106 H106 112.9 . . ?
C22 C23 C24 107.9(4) . . ?
C22 C23 H23 126.0 . . ?
C24 C23 H23 126.0 . . ?
C79 C80 H80 120.2 . . ?
C79 C80 C81 119.6(5) . . ?
C81 C80 H80 120.2 . . ?
C133 C134 C121 125.9(5) . . ?
C133 C134 C129 120.6(6) . . ?
C129 C134 C121 113.4(5) . . ?
C113 C114 H114 121.0 . . ?
C113 C114 C115 118.1(5) . . ?
C115 C114 H114 121.0 . . ?
C31 C30 C113 118.2(4) . . ?
C31 C30 C29 124.9(4) . . ?
C29 C30 C113 116.7(4) . . ?
C85 C86 H86 119.3 . . ?
C87 C86 C85 121.4(5) . . ?
C87 C86 H86 119.3 . . ?
C105 C100 C99 113.6(5) . . ?
C101 C100 C99 127.4(5) . . ?
C101 C100 C105 119.0(5) . . ?
C98 C97 C25 178.0(6) . . ?
C89 C88 H88 120.6 . . ?
C89 C88 C87 118.9(6) . . ?
C87 C88 H88 120.6 . . ?
C77 C76 H76 120.0 . . ?
C75 C76 C77 120.0(5) . . ?
C75 C76 H76 120.0 . . ?
C24 C25 C26 126.2(4) . . ?
C24 C25 C97 115.8(4) . . ?
C26 C25 C97 117.7(5) . . ?
C122 C127 C128 112.9(5) . . ?
C126 C127 C122 120.3(5) . . ?
C126 C127 C128 126.6(5) . . ?
C113 C118 H118 120.0 . . ?
C117 C118 C113 119.9(6) . . ?
C117 C118 H118 120.0 . . ?
C100 C105 C106 113.0(5) . . ?
C104 C105 C106 127.2(5) . . ?
C104 C105 C100 119.7(5) . . ?
C100 C101 H101 120.0 . . ?
C102 C101 C100 119.9(5) . . ?
C102 C101 H101 120.0 . . ?
C86 C87 C88 121.4(6) . . ?
C86 C87 H87 119.3 . . ?
C88 C87 H87 119.3 . . ?
C95 C94 H94 119.7 . . ?
C95 C94 C93 120.5(6) . . ?
C93 C94 H94 119.7 . . ?
C34 C35 C119 117.8(4) . . ?
C34 C35 C36 125.1(4) . . ?
C36 C35 C119 116.9(4) . . ?
C108 C109 H109 119.7 . . ?
C108 C109 C110 120.5(5) . . ?
C110 C109 H109 119.7 . . ?
C101 C102 H102 119.6 . . ?
C101 C102 C103 120.7(6) . . ?
C103 C102 H102 119.6 . . ?
C109 C110 H110 120.3 . . ?
C111 C110 C109 119.4(6) . . ?
C111 C110 H110 120.3 . . ?
C143 O7 C171 116.6(6) . . ?
C85 C78 C84 107.8(4) . . ?
C85 C78 C77 107.1(4) . . ?
C85 C78 H78 112.2 . . ?
C84 C78 H78 112.2 . . ?
C77 C78 C84 105.0(5) . . ?
C77 C78 H78 112.2 . . ?
C123 C124 H124 118.8 . . ?
C125 C124 C123 122.3(6) . . ?
C125 C124 H124 118.8 . . ?
C107 C112 C99 112.1(5) . . ?
C111 C112 C107 121.4(5) . . ?
C111 C112 C99 126.5(4) . . ?
C155 O3 C93 122.2(6) . . ?
C127 C126 H126 120.6 . . ?
C127 C126 C125 118.8(5) . . ?
C125 C126 H126 120.6 . . ?
C84 C83 H83 119.9 . . ?
C82 C83 C84 120.3(5) . . ?
C82 C83 H83 119.9 . . ?
C134 C133 H133 120.5 . . ?
C134 C133 C132 119.1(6) . . ?
C132 C133 H133 120.5 . . ?
C134 C129 C128 112.1(5) . . ?
C130 C129 C134 119.3(6) . . ?
C130 C129 C128 128.6(6) . . ?
C110 C111 H111 119.8 . . ?
C112 C111 C110 120.3(5) . . ?
C112 C111 H111 119.8 . . ?
C83 C82 H82 119.2 . . ?
C83 C82 C81 121.6(5) . . ?
C81 C82 H82 119.2 . . ?
C73 C74 H74 119.9 . . ?
C73 C74 C75 120.2(6) . . ?
C75 C74 H74 119.9 . . ?
C41 C42 C43 178.1(8) . . ?
C124 C125 C126 120.0(5) . . ?
C124 C125 H125 120.0 . . ?
C126 C125 H125 120.0 . . ?
C105 C104 H104 119.1 . . ?
C103 C104 C105 121.7(6) . . ?
C103 C104 H104 119.1 . . ?
O5 C115 C114 123.2(6) . . ?
O5 C115 C116 115.7(6) . . ?
C116 C115 C114 121.0(6) . . ?
C142 C141 C40 120.7(5) . . ?
C142 C141 C146 121.3(6) . . ?
C146 C141 C40 118.0(6) . . ?
C67 O2 C151 117.7(10) . . ?
C67 O2 C187 128.0(8) . . ?
C76 C75 C74 120.3(5) . . ?
C76 C75 H75 119.9 . . ?
C74 C75 H75 119.9 . . ?
C63 C68 H68 118.9 . . ?
C63 C68 C67 122.2(6) . . ?
C67 C68 H68 118.9 . . ?
C102 C103 H103 120.6 . . ?
C104 C103 C102 118.8(6) . . ?
C104 C103 H103 120.6 . . ?
C94 C93 C92 119.5(6) . . ?
O3 C93 C92 122.9(6) . . ?
O3 C93 C94 117.5(6) . . ?
C140 C135 C121 114.4(5) . . ?
C140 C135 C136 121.5(5) . . ?
C136 C135 C121 124.0(5) . . ?
C80 C81 C82 118.7(6) . . ?
C80 C81 H81 120.6 . . ?
C82 C81 H81 120.6 . . ?
C228 C182 H182 121.1 . . ?
C228 C182 C188 117.8(6) . . ?
C188 C182 H182 121.1 . . ?
C65 O1 C147 118.0(8) . . ?
C141 C142 H142 119.8 . . ?
C141 C142 C143 120.4(6) . . ?
C143 C142 H142 119.8 . . ?
C63 C64 H64 120.9 . . ?
C65 C64 C63 118.2(6) . . ?
C65 C64 H64 120.9 . . ?
C141 C146 H146 120.2 . . ?
C145 C146 C141 119.7(8) . . ?
C145 C146 H146 120.2 . . ?
C129 C130 H130 120.0 . . ?
C129 C130 C131 120.0(6) . . ?
C131 C130 H130 120.0 . . ?
C184 C185 H185 119.9 . . ?
C186 C185 C184 120.2(6) . . ?
C186 C185 H185 119.9 . . ?
C127 C128 C129 106.1(5) . . ?
C127 C128 H128 112.5 . . ?
C127 C128 C140 106.2(5) . . ?
C129 C128 H128 112.5 . . ?
C140 C128 C129 106.5(5) . . ?
C140 C128 H128 112.5 . . ?
C135 C140 C128 112.8(5) . . ?
C139 C140 C135 121.0(7) . . ?
C139 C140 C128 126.2(6) . . ?
C65 C66 H66 119.9 . . ?
C65 C66 C67 120.2(7) . . ?
C67 C66 H66 119.9 . . ?
C118 C117 O6 113.3(6) . . ?
C118 C117 C116 121.8(6) . . ?
C116 C117 O6 124.9(5) . . ?
C140 C139 H139 120.7 . . ?
C140 C139 C138 118.6(7) . . ?
C138 C139 H139 120.7 . . ?
C182 C188 H188 120.3 . . ?
C186 C188 C182 119.4(6) . . ?
C186 C188 H188 120.3 . . ?
O1 C65 C64 122.9(8) . . ?
O1 C65 C66 115.1(8) . . ?
C66 C65 C64 122.1(7) . . ?
C135 C136 H136 121.1 . . ?
C135 C136 C137 117.9(6) . . ?
C137 C136 H136 121.1 . . ?
C115 C116 C117 119.2(5) . . ?
C115 C116 H116 120.4 . . ?
C117 C116 H116 120.4 . . ?
C133 C132 H132 120.6 . . ?
C131 C132 C133 118.8(7) . . ?
C131 C132 H132 120.6 . . ?
C58 C57 C43 127.3(6) . . ?
C58 C57 C62 119.9(11) . . ?
C62 C57 C43 112.7(11) . . ?
O2 C67 C68 120.0(8) . . ?
O2 C67 C66 122.5(7) . . ?
C68 C67 C66 117.5(7) . . ?
C145 O8 C175 114.9(8) . . ?
C185 C186 C188 121.6(6) . . ?
C185 C186 H186 119.2 . . ?
C188 C186 H186 119.2 . . ?
O5 C163 H16A 110.0 . . ?
O5 C163 H16B 110.0 . . ?
O5 C163 C164 108.3(6) . . ?
H16A C163 H16B 108.4 . . ?
C164 C163 H16A 110.0 . . ?
C164 C163 H16B 110.0 . . ?
C130 C131 C132 122.0(7) . . ?
C130 C131 H131 119.0 . . ?
C132 C131 H131 119.0 . . ?
C49 C50 H50 110.1 . . ?
C49 C50 C51 104.1(10) . . ?
C49 C50 C62 105.6(12) . . ?
C51 C50 H50 110.1 . . ?
C62 C50 H50 110.1 . . ?
C62 C50 C51 116.4(10) . . ?
C136 C137 H137 119.9 . . ?
C138 C137 C136 120.3(7) . . ?
C138 C137 H137 119.9 . . ?
O7 C143 C142 123.8(8) . . ?
O7 C143 C144 117.6(7) . . ?
C142 C143 C144 118.6(8) . . ?
C139 C138 H138 119.6 . . ?
C137 C138 C139 120.8(6) . . ?
C137 C138 H138 119.6 . . ?
Cl1 C179 H179 108.6 . . ?
Cl2 C179 Cl1 111.1(5) . . ?
Cl2 C179 Cl3 109.1(5) . . ?
Cl2 C179 H179 108.6 . . ?
Cl3 C179 Cl1 110.8(5) . . ?
Cl3 C179 H179 108.6 . . ?
C44 C49 C50 108.4(7) . . ?
C48 C49 C50 130.4(8) . . ?
C48 C49 C44 121.1(9) . . ?
C57 C58 H58 122.5 . . ?
C57 C58 C59 115.0(11) . . ?
C59 C58 H58 122.5 . . ?
O7 C171 H17A 110.5 . . ?
O7 C171 H17B 110.5 . . ?
O7 C171 C172 106.2(8) . . ?
H17A C171 H17B 108.7 . . ?
C172 C171 H17A 110.5 . . ?
C172 C171 H17B 110.5 . . ?
C55 C56 C43 127.2(8) . . ?
C55 C56 C51 118.0(13) . . ?
C51 C56 C43 114.5(13) . . ?
C42 C43 C57 109.6(6) . . ?
C42 C43 C56 110.1(7) . . ?
C42 C43 C44 115.4(6) . . ?
C56 C43 C57 108.5(7) . . ?
C44 C43 C57 105.6(7) . . ?
C44 C43 C56 107.4(8) . . ?
C49 C44 C43 114.2(7) . . ?
C49 C44 C45 120.1(8) . . ?
C45 C44 C43 125.7(6) . . ?
C146 C145 O8 125.9(10) . . ?
C146 C145 C144 119.1(7) . . ?
O8 C145 C144 114.9(8) . . ?
C56 C55 H55 118.1 . . ?
C56 C55 C54 123.9(12) . . ?
C54 C55 H55 118.1 . . ?
C143 C144 C145 120.3(7) . . ?
C143 C144 H144 119.8 . . ?
C145 C144 H144 119.8 . . ?
O1 C147 H14A 110.9 . . ?
O1 C147 H14B 110.9 . . ?
O1 C147 C148 104.2(10) . . ?
H14A C147 H14B 108.9 . . ?
C148 C147 H14A 110.9 . . ?
C148 C147 H14B 110.9 . . ?
C44 C45 H45 120.9 . . ?
C46 C45 C44 118.1(7) . . ?
C46 C45 H45 120.9 . . ?
C163 C164 H16C 107.2 . . ?
C163 C164 H16D 107.2 . . ?
H16C C164 H16D 106.8 . . ?
C165 C164 C163 120.7(13) . . ?
C165 C164 H16C 107.2 . . ?
C165 C164 H16D 107.2 . . ?
O3 C155 H15A 111.3 . . ?
O3 C155 H15B 111.3 . . ?
O3 C155 C156 102.1(9) . . ?
H15A C155 H15B 109.2 . . ?
C156 C155 H15A 111.3 . . ?
C156 C155 H15B 111.3 . . ?
C51 C52 H52 121.5 . . ?
C51 C52 C53 116.9(18) . . ?
C53 C52 H52 121.5 . . ?
H15C C150 H15D 109.5 . . ?
H15C C150 H15E 109.5 . . ?
H15D C150 H15E 109.5 . . ?
C149 C150 H15C 109.5 . . ?
C149 C150 H15D 109.5 . . ?
C149 C150 H15E 109.5 . . ?
C164 C165 H16E 110.6 . . ?
C164 C165 H16F 110.6 . . ?
C164 C165 C166 105.6(12) . . ?
H16E C165 H16F 108.8 . . ?
C166 C165 H16E 110.6 . . ?
C166 C165 H16F 110.6 . . ?
C45 C46 H46 120.1 . . ?
C45 C46 C47 119.8(9) . . ?
C47 C46 H46 120.1 . . ?
C49 C48 H48 119.9 . . ?
C49 C48 C47 120.1(8) . . ?
C47 C48 H48 119.9 . . ?
H16G C168 H16H 108.1 . . ?
C167 C168 H16G 109.6 . . ?
C167 C168 H16H 109.6 . . ?
C169 C168 H16G 109.6 . . ?
C169 C168 H16H 109.6 . . ?
C169 C168 C167 110.3(9) . . ?
C56 C51 C50 105.9(12) . . ?
C52 C51 C50 126.3(14) . . ?
C52 C51 C56 125.4(18) . . ?
O6 C167 C168 106.7(7) . . ?
O6 C167 H16I 110.4 . . ?
O6 C167 H16J 110.4 . . ?
C168 C167 H16I 110.4 . . ?
C168 C167 H16J 110.4 . . ?
H16I C167 H16J 108.6 . . ?
O4 C159 H15F 109.4 . . ?
O4 C159 H15G 109.4 . . ?
O4 C159 C161 111.1(19) . . ?
H15F C159 H15G 108.0 . . ?
C161 C159 H15F 109.4 . . ?
C161 C159 H15G 109.4 . . ?
C60 C61 H61 123.1 . . ?
C62 C61 H61 123.1 . . ?
C62 C61 C60 113.8(13) . . ?
C58 C59 H59 118.3 . . ?
C60 C59 C58 123.3(16) . . ?
C60 C59 H59 118.3 . . ?
O8 C175 H17C 111.1 . . ?
O8 C175 H17D 111.1 . . ?
O8 C175 C176 103.2(11) . . ?
H17C C175 H17D 109.1 . . ?
C176 C175 H17C 111.1 . . ?
C176 C175 H17D 111.1 . . ?
C150 C149 H14C 106.2 . . ?
C150 C149 H14D 106.2 . . ?
H14C C149 H14D 106.4 . . ?
C148 C149 C150 124.5(13) . . ?
C148 C149 H14C 106.2 . . ?
C148 C149 H14D 106.2 . . ?
C52 C53 H53 118.3 . . ?
C52 C53 C54 123.3(16) . . ?
C54 C53 H53 118.3 . . ?
C155 C156 H15H 109.9 . . ?
C155 C156 H15I 109.9 . . ?
H15H C156 H15I 108.3 . . ?
C157 C156 C155 108.7(10) . . ?
C157 C156 H15H 109.9 . . ?
C157 C156 H15I 109.9 . . ?
C165 C166 H16K 109.5 . . ?
C165 C166 H16L 109.5 . . ?
C165 C166 H16M 109.5 . . ?
H16K C166 H16L 109.5 . . ?
H16K C166 H16M 109.5 . . ?
H16L C166 H16M 109.5 . . ?
C55 C54 C53 110.1(17) . . ?
C55 C54 H54 125.0 . . ?
C53 C54 H54 125.0 . . ?
C46 C47 H47 119.7 . . ?
C48 C47 C46 120.6(9) . . ?
C48 C47 H47 119.7 . . ?
C168 C169 H16N 108.4 . . ?
C168 C169 H16O 108.4 . . ?
H16N C169 H16O 107.4 . . ?
C170 C169 C168 115.6(13) . . ?
C170 C169 H16N 108.4 . . ?
C170 C169 H16O 108.4 . . ?
H16P C160 H16Q 109.8 . . ?
H16R C160 H16S 108.9 . . ?
C161 C160 H16P 112.2 . . ?
C161 C160 H16Q 112.2 . . ?
C161 C160 C162 97.6(19) . . ?
C162 C160 H16P 112.2 . . ?
C162 C160 H16Q 112.2 . . ?
C162 C160 H16R 110.9 . . ?
C162 C160 H16S 110.9 . . ?
C183 C160 H16R 110.9 . . ?
C183 C160 H16S 110.9 . . ?
C183 C160 C162 104.2(16) . . ?
C169 C170 H17E 109.5 . . ?
C169 C170 H17F 109.5 . . ?
C169 C170 H17G 109.5 . . ?
H17E C170 H17F 109.5 . . ?
H17E C170 H17G 109.5 . . ?
H17F C170 H17G 109.5 . . ?
C61 C60 H60 120.0 . . ?
C59 C60 C61 119.9(12) . . ?
C59 C60 H60 120.0 . . ?
C159 C161 H16T 111.9 . . ?
C159 C161 H16U 111.9 . . ?
C160 C161 C159 99.3(17) . . ?
C160 C161 H16T 111.9 . . ?
C160 C161 H16U 111.9 . . ?
H16T C161 H16U 109.6 . . ?
C160 C162 H16V 109.5 . . ?
C160 C162 H16W 109.5 . . ?
C160 C162 H16X 109.5 . . ?
H16V C162 H16W 109.5 . . ?
H16V C162 H16X 109.5 . . ?
H16W C162 H16X 109.5 . . ?
Cl6 C180 Cl4 113.0(6) . . ?
Cl6 C180 Cl5 97.4(9) . . ?
Cl6 C180 H180 113.9 . . ?
Cl4 C180 Cl5 103.2(7) . . ?
Cl4 C180 H180 113.9 . . ?
Cl5 C180 H180 113.9 . . ?
C171 C172 H17H 110.4 . . ?
C171 C172 H17I 110.4 . . ?
C171 C172 C173 106.8(10) . . ?
H17H C172 H17I 108.6 . . ?
C173 C172 H17H 110.4 . . ?
C173 C172 H17I 110.4 . . ?
C172 C173 H17J 108.6 . . ?
C172 C173 H17K 108.6 . . ?
H17J C173 H17K 107.6 . . ?
C174 C173 C172 114.5(17) . . ?
C174 C173 H17J 108.6 . . ?
C174 C173 H17K 108.6 . . ?
C175 C176 H17L 110.1 . . ?
C175 C176 H17M 110.1 . . ?
H17L C176 H17M 108.4 . . ?
C177 C176 C175 108.2(14) . . ?
C177 C176 H17L 110.1 . . ?
C177 C176 H17M 110.1 . . ?
C176 C177 H17N 111.1 . . ?
C176 C177 H17O 111.1 . . ?
C176 C177 C178 103.3(14) . . ?
H17N C177 H17O 109.1 . . ?
C178 C177 H17N 111.1 . . ?
C178 C177 H17O 111.1 . . ?
C147 C148 H14E 108.2 . . ?
C147 C148 H14F 108.2 . . ?
C149 C148 C147 116.3(14) . . ?
C149 C148 H14E 108.2 . . ?
C149 C148 H14F 108.2 . . ?
H14E C148 H14F 107.4 . . ?
C173 C174 H17P 109.5 . . ?
C173 C174 H17Q 109.5 . . ?
C173 C174 H17R 109.5 . . ?
H17P C174 H17Q 109.5 . . ?
H17P C174 H17R 109.5 . . ?
H17Q C174 H17R 109.5 . . ?
C156 C157 H15J 109.0 . . ?
C156 C157 H15K 109.0 . . ?
C156 C157 C158 112.8(12) . . ?
H15J C157 H15K 107.8 . . ?
C158 C157 H15J 109.0 . . ?
C158 C157 H15K 109.0 . . ?
C177 C178 H17S 109.5 . . ?
C177 C178 H17T 109.5 . . ?
C177 C178 H17U 109.5 . . ?
H17S C178 H17T 109.5 . . ?
H17S C178 H17U 109.5 . . ?
H17T C178 H17U 109.5 . . ?
H15L C153 H15M 107.0 . . ?
H15N C153 H15O 109.3 . . ?
C152 C153 H15L 107.4 . . ?
C152 C153 H15M 107.4 . . ?
C152 C153 C154 119.5(13) . . ?
C154 C153 H15L 107.4 . . ?
C154 C153 H15M 107.4 . . ?
C154 C153 H15N 111.4 . . ?
C154 C153 H15O 111.4 . . ?
C191 C153 H15N 111.4 . . ?
C191 C153 H15O 111.4 . . ?
C191 C153 C154 101.7(16) . . ?
C153 C152 H15P 109.2 . . ?
C153 C152 H15Q 109.2 . . ?
C153 C152 C151 111.9(15) . . ?
H15P C152 H15Q 107.9 . . ?
C151 C152 H15P 109.2 . . ?
C151 C152 H15Q 109.2 . . ?
C157 C158 H15R 109.5 . . ?
C157 C158 H15S 109.5 . . ?
C157 C158 H15T 109.5 . . ?
H15R C158 H15S 109.5 . . ?
H15R C158 H15T 109.5 . . ?
H15S C158 H15T 109.5 . . ?
O2 C151 C152 104.4(14) . . ?
O2 C151 H15U 110.9 . . ?
O2 C151 H15V 110.9 . . ?
C152 C151 H15U 110.9 . . ?
C152 C151 H15V 110.9 . . ?
H15U C151 H15V 108.9 . . ?
C160 C183 H18A 112.5 . . ?
C160 C183 H18B 112.5 . . ?
C160 C183 C190 96(2) . . ?
H18A C183 H18B 110.1 . . ?
C190 C183 H18A 112.5 . . ?
C190 C183 H18B 112.5 . . ?
O4 C190 C183 109.1(15) . . ?
O4 C190 H19A 109.9 . . ?
O4 C190 H19B 109.9 . . ?
C183 C190 H19A 109.9 . . ?
C183 C190 H19B 109.9 . . ?
H19A C190 H19B 108.3 . . ?
O2 C187 H18C 108.6 . . ?
O2 C187 H18D 108.6 . . ?
O2 C187 C191 114.6(16) . . ?
H18C C187 H18D 107.6 . . ?
C191 C187 H18C 108.6 . . ?
C191 C187 H18D 108.6 . . ?
C153 C154 H15W 109.5 . . ?
C153 C154 H15X 109.5 . . ?
C153 C154 H15Y 109.5 . . ?
H15W C154 H15X 109.5 . . ?
H15W C154 H15Y 109.5 . . ?
H15X C154 H15Y 109.5 . . ?
C57 C62 C50 108.8(11) . . ?
C61 C62 C57 127.8(17) . . ?
C61 C62 C50 123.0(12) . . ?
C153 C191 H19C 110.8 . . ?
C153 C191 H19D 110.8 . . ?
C187 C191 C153 104.9(16) . . ?
C187 C191 H19C 110.8 . . ?
C187 C191 H19D 110.8 . . ?
H19C C191 H19D 108.8 . . ?
loop_
_geom_bond_atom_site_label_1
_geom_bond_atom_site_label_2
_geom_bond_distance
_geom_bond_site_symmetry_2
_geom_bond_publ_flag
Ce1 N4 2.486(3) . ?
Ce1 N7 2.520(4) . ?
Ce1 N3 2.476(4) . ?
Ce1 N1 2.482(3) . ?
Ce1 N6 2.510(4) . ?
Ce1 N2 2.515(4) . ?
Ce1 N5 2.500(4) . ?
Ce1 N8 2.485(3) . ?
Cl1 C179 1.760(9) . ?
Cl2 C179 1.733(8) . ?
Cl3 C179 1.735(8) . ?
N4 C12 1.371(5) . ?
N4 C15 1.378(6) . ?
Cl6 C180 1.680(12) . ?
N7 C39 1.393(6) . ?
N7 C36 1.365(6) . ?
N3 C10 1.368(5) . ?
N3 C7 1.367(6) . ?
N1 C17 1.387(6) . ?
N1 C20 1.370(5) . ?
N6 C31 1.390(6) . ?
N6 C34 1.394(6) . ?
C16 C17 1.396(6) . ?
C16 C91 1.507(6) . ?
C16 C15 1.409(6) . ?
N2 C5 1.372(6) . ?
N2 C2 1.354(6) . ?
N5 C29 1.386(6) . ?
N5 C26 1.380(6) . ?
C11 C12 1.386(6) . ?
C11 C10 1.397(6) . ?
C11 C69 1.448(6) . ?
Cl4 C180 1.712(12) . ?
N8 C21 1.373(6) . ?
N8 C24 1.402(6) . ?
C33 H33 0.9500 . ?
C33 C32 1.356(7) . ?
C33 C34 1.412(6) . ?
C14 H14 0.9500 . ?
C14 C13 1.339(6) . ?
C14 C15 1.439(6) . ?
C6 C63 1.469(7) . ?
C6 C7 1.423(6) . ?
C6 C5 1.398(7) . ?
C13 H13 0.9500 . ?
C13 C12 1.453(6) . ?
C17 C18 1.458(6) . ?
C71 C79 1.542(7) . ?
C71 C70 1.456(6) . ?
C71 C90 1.531(7) . ?
C71 C72 1.541(6) . ?
C1 C20 1.413(7) . ?
C1 C41 1.440(6) . ?
C1 C2 1.392(7) . ?
C10 C9 1.440(6) . ?
C28 H28 0.9500 . ?
C28 C27 1.321(7) . ?
C28 C29 1.451(7) . ?
C69 C70 1.184(6) . ?
C120 C121 1.435(7) . ?
C120 C119 1.215(7) . ?
C91 C92 1.380(7) . ?
C91 C96 1.397(7) . ?
C79 C84 1.410(7) . ?
C79 C80 1.376(7) . ?
C32 H32 0.9500 . ?
C32 C31 1.437(6) . ?
C90 C89 1.363(7) . ?
C90 C85 1.424(6) . ?
O5 C115 1.363(7) . ?
O5 C163 1.414(8) . ?
C228 C184 1.409(7) . ?
C228 C99 1.550(7) . ?
C228 C182 1.369(8) . ?
C8 H8 0.9500 . ?
C8 C7 1.414(6) . ?
C8 C9 1.340(6) . ?
C63 C68 1.379(8) . ?
C63 C64 1.410(8) . ?
C37 H37 0.9500 . ?
C37 C38 1.349(7) . ?
C37 C36 1.438(7) . ?
C121 C122 1.546(7) . ?
C121 C134 1.540(8) . ?
C121 C135 1.542(7) . ?
C113 C114 1.398(7) . ?
C113 C30 1.492(7) . ?
C113 C118 1.409(7) . ?
C27 H27 0.9500 . ?
C27 C26 1.429(7) . ?
C20 C19 1.429(7) . ?
C41 C42 1.187(7) . ?
C19 H19 0.9500 . ?
C19 C18 1.337(7) . ?
C107 C108 1.398(8) . ?
C107 C106 1.502(8) . ?
C107 C112 1.411(7) . ?
C38 H38 0.9500 . ?
C38 C39 1.429(7) . ?
C119 C35 1.434(6) . ?
C9 H9 0.9500 . ?
C89 H89 0.9500 . ?
C89 C88 1.385(8) . ?
C92 H92 0.9500 . ?
C92 C93 1.412(8) . ?
C21 C22 1.455(6) . ?
C21 C40 1.379(7) . ?
C96 H96 0.9500 . ?
C96 C95 1.371(8) . ?
C5 C4 1.460(6) . ?
C122 C123 1.389(7) . ?
C122 C127 1.405(7) . ?
C85 C86 1.395(8) . ?
C85 C78 1.470(8) . ?
C2 C3 1.445(7) . ?
C72 C77 1.392(6) . ?
C72 C73 1.379(7) . ?
C18 H18 0.9500 . ?
C31 C30 1.392(7) . ?
C108 H108 0.9500 . ?
C108 C109 1.373(8) . ?
C39 C40 1.402(7) . ?
O4 C95 1.383(7) . ?
O4 C159 1.401(12) . ?
O4 C190 1.391(15) . ?
C84 C78 1.525(8) . ?
C84 C83 1.382(7) . ?
C34 C35 1.397(7) . ?
O6 C117 1.412(7) . ?
O6 C167 1.453(8) . ?
C3 H3 0.9500 . ?
C3 C4 1.321(8) . ?
C29 C30 1.405(6) . ?
C22 H22 0.9500 . ?
C22 C23 1.334(8) . ?
C36 C35 1.406(6) . ?
C4 H4 0.9500 . ?
C77 C76 1.391(8) . ?
C77 C78 1.519(8) . ?
C73 H73 0.9500 . ?
C73 C74 1.381(7) . ?
C184 C106 1.527(7) . ?
C184 C185 1.368(8) . ?
C24 C23 1.432(7) . ?
C24 C25 1.388(7) . ?
C98 C99 1.480(7) . ?
C98 C97 1.195(7) . ?
C95 C94 1.321(9) . ?
C123 H123 0.9500 . ?
C123 C124 1.391(7) . ?
C99 C100 1.509(8) . ?
C99 C112 1.548(7) . ?
C26 C25 1.417(6) . ?
C40 C141 1.503(7) . ?
C106 H106 1.0000 . ?
C106 C105 1.536(8) . ?
C23 H23 0.9500 . ?
C80 H80 0.9500 . ?
C80 C81 1.391(7) . ?
C134 C133 1.351(8) . ?
C134 C129 1.431(8) . ?
C114 H114 0.9500 . ?
C114 C115 1.416(8) . ?
C86 H86 0.9500 . ?
C86 C87 1.338(9) . ?
C100 C105 1.399(7) . ?
C100 C101 1.392(8) . ?
C97 C25 1.430(7) . ?
C88 H88 0.9500 . ?
C88 C87 1.395(8) . ?
C76 H76 0.9500 . ?
C76 C75 1.361(9) . ?
C127 C126 1.383(8) . ?
C127 C128 1.518(8) . ?
C118 H118 0.9500 . ?
C118 C117 1.351(8) . ?
C105 C104 1.370(8) . ?
C101 H101 0.9500 . ?
C101 C102 1.367(8) . ?
C87 H87 0.9500 . ?
C94 H94 0.9500 . ?
C94 C93 1.390(10) . ?
Cl5 C180 1.942(17) . ?
C109 H109 0.9500 . ?
C109 C110 1.397(7) . ?
C102 H102 0.9500 . ?
C102 C103 1.401(9) . ?
C110 H110 0.9500 . ?
C110 C111 1.387(8) . ?
O7 C143 1.376(10) . ?
O7 C171 1.462(11) . ?
C78 H78 1.0000 . ?
C124 H124 0.9500 . ?
C124 C125 1.336(8) . ?
C112 C111 1.349(8) . ?
O3 C93 1.348(7) . ?
O3 C155 1.328(10) . ?
C126 H126 0.9500 . ?
C126 C125 1.418(9) . ?
C83 H83 0.9500 . ?
C83 C82 1.370(9) . ?
C133 H133 0.9500 . ?
C133 C132 1.424(9) . ?
C129 C130 1.357(9) . ?
C129 C128 1.526(9) . ?
C111 H111 0.9500 . ?
C82 H82 0.9500 . ?
C82 C81 1.399(8) . ?
C74 H74 0.9500 . ?
C74 C75 1.393(8) . ?
C42 C43 1.460(8) . ?
C125 H125 0.9500 . ?
C104 H104 0.9500 . ?
C104 C103 1.357(9) . ?
C115 C116 1.377(9) . ?
C141 C142 1.363(9) . ?
C141 C146 1.400(8) . ?
O2 C67 1.329(10) . ?
O2 C151 1.388(13) . ?
O2 C187 1.453(13) . ?
C75 H75 0.9500 . ?
C68 H68 0.9500 . ?
C68 C67 1.407(9) . ?
C103 H103 0.9500 . ?
C135 C140 1.390(8) . ?
C135 C136 1.396(9) . ?
C81 H81 0.9500 . ?
C182 H182 0.9500 . ?
C182 C188 1.423(9) . ?
O1 C65 1.337(9) . ?
O1 C147 1.403(13) . ?
C142 H142 0.9500 . ?
C142 C143 1.390(9) . ?
C64 H64 0.9500 . ?
C64 C65 1.394(10) . ?
C146 H146 0.9500 . ?
C146 C145 1.355(11) . ?
C130 H130 0.9500 . ?
C130 C131 1.365(11) . ?
C185 H185 0.9500 . ?
C185 C186 1.352(9) . ?
C128 H128 1.0000 . ?
C128 C140 1.520(9) . ?
C140 C139 1.370(9) . ?
C66 H66 0.9500 . ?
C66 C65 1.382(12) . ?
C66 C67 1.408(11) . ?
C117 C116 1.383(9) . ?
C139 H139 0.9500 . ?
C139 C138 1.436(11) . ?
C188 H188 0.9500 . ?
C188 C186 1.388(10) . ?
C136 H136 0.9500 . ?
C136 C137 1.431(9) . ?
C116 H116 0.9500 . ?
C132 H132 0.9500 . ?
C132 C131 1.373(10) . ?
C57 C58 1.350(13) . ?
C57 C43 1.626(12) . ?
C57 C62 1.358(12) . ?
O8 C145 1.362(8) . ?
O8 C175 1.460(15) . ?
C186 H186 0.9500 . ?
C163 H16A 0.9900 . ?
C163 H16B 0.9900 . ?
C163 C164 1.528(11) . ?
C131 H131 0.9500 . ?
C50 H50 1.0000 . ?
C50 C49 1.559(14) . ?
C50 C51 1.68(2) . ?
C50 C62 1.56(2) . ?
C137 H137 0.9500 . ?
C137 C138 1.369(11) . ?
C143 C144 1.393(13) . ?
C138 H138 0.9500 . ?
C179 H179 1.0000 . ?
C49 C44 1.387(10) . ?
C49 C48 1.353(13) . ?
C58 H58 0.9500 . ?
C58 C59 1.391(13) . ?
C171 H17A 0.9900 . ?
C171 H17B 0.9900 . ?
C171 C172 1.526(11) . ?
C56 C43 1.558(15) . ?
C56 C55 1.332(14) . ?
C56 C51 1.362(12) . ?
C43 C44 1.483(10) . ?
C44 C45 1.417(12) . ?
C145 C144 1.424(14) . ?
C55 H55 0.9500 . ?
C55 C54 1.429(16) . ?
C144 H144 0.9500 . ?
C147 H14A 0.9900 . ?
C147 H14B 0.9900 . ?
C147 C148 1.660(14) . ?
C45 H45 0.9500 . ?
C45 C46 1.384(11) . ?
C164 H16C 0.9900 . ?
C164 H16D 0.9900 . ?
C164 C165 1.299(17) . ?
C155 H15A 0.9900 . ?
C155 H15B 0.9900 . ?
C155 C156 1.596(11) . ?
C52 H52 0.9500 . ?
C52 C51 1.29(2) . ?
C52 C53 1.34(2) . ?
C150 H15C 0.9800 . ?
C150 H15D 0.9800 . ?
C150 H15E 0.9800 . ?
C150 C149 1.624(18) . ?
C165 H16E 0.9900 . ?
C165 H16F 0.9900 . ?
C165 C166 1.639(15) . ?
C46 H46 0.9500 . ?
C46 C47 1.416(12) . ?
C48 H48 0.9500 . ?
C48 C47 1.365(14) . ?
C168 H16G 0.9900 . ?
C168 H16H 0.9900 . ?
C168 C167 1.563(12) . ?
C168 C169 1.511(13) . ?
C167 H16I 0.9900 . ?
C167 H16J 0.9900 . ?
C159 H15F 0.9900 . ?
C159 H15G 0.9900 . ?
C159 C161 1.527(16) . ?
C61 H61 0.9500 . ?
C61 C60 1.413(19) . ?
C61 C62 1.300(15) . ?
C59 H59 0.9500 . ?
C59 C60 1.36(2) . ?
C175 H17C 0.9900 . ?
C175 H17D 0.9900 . ?
C175 C176 1.569(14) . ?
C149 H14C 0.9900 . ?
C149 H14D 0.9900 . ?
C149 C148 1.338(19) . ?
C53 H53 0.9500 . ?
C53 C54 1.50(2) . ?
C156 H15H 0.9900 . ?
C156 H15I 0.9900 . ?
C156 C157 1.321(13) . ?
C166 H16K 0.9800 . ?
C166 H16L 0.9800 . ?
C166 H16M 0.9800 . ?
C54 H54 0.9500 . ?
C47 H47 0.9500 . ?
C169 H16N 0.9900 . ?
C169 H16O 0.9900 . ?
C169 C170 1.446(17) . ?
C160 H16P 0.9900 . ?
C160 H16Q 0.9900 . ?
C160 H16R 0.9900 . ?
C160 H16S 0.9900 . ?
C160 C161 1.434(18) . ?
C160 C162 1.580(16) . ?
C160 C183 1.572(18) . ?
C170 H17E 0.9800 . ?
C170 H17F 0.9800 . ?
C170 H17G 0.9800 . ?
C60 H60 0.9500 . ?
C161 H16T 0.9900 . ?
C161 H16U 0.9900 . ?
C162 H16V 0.9800 . ?
C162 H16W 0.9800 . ?
C162 H16X 0.9800 . ?
C180 H180 1.0000 . ?
C172 H17H 0.9900 . ?
C172 H17I 0.9900 . ?
C172 C173 1.551(14) . ?
C173 H17J 0.9900 . ?
C173 H17K 0.9900 . ?
C173 C174 1.532(18) . ?
C176 H17L 0.9900 . ?
C176 H17M 0.9900 . ?
C176 C177 1.49(2) . ?
C177 H17N 0.9900 . ?
C177 H17O 0.9900 . ?
C177 C178 1.597(19) . ?
C148 H14E 0.9900 . ?
C148 H14F 0.9900 . ?
C174 H17P 0.9800 . ?
C174 H17Q 0.9800 . ?
C174 H17R 0.9800 . ?
C157 H15J 0.9900 . ?
C157 H15K 0.9900 . ?
C157 C158 1.495(10) . ?
C178 H17S 0.9800 . ?
C178 H17T 0.9800 . ?
C178 H17U 0.9800 . ?
C153 H15L 0.9900 . ?
C153 H15M 0.9900 . ?
C153 H15N 0.9900 . ?
C153 H15O 0.9900 . ?
C153 C152 1.491(16) . ?
C153 C154 1.584(15) . ?
C153 C191 1.531(17) . ?
C152 H15P 0.9900 . ?
C152 H15Q 0.9900 . ?
C152 C151 1.526(17) . ?
C158 H15R 0.9800 . ?
C158 H15S 0.9800 . ?
C158 H15T 0.9800 . ?
C151 H15U 0.9900 . ?
C151 H15V 0.9900 . ?
C183 H18A 0.9900 . ?
C183 H18B 0.9900 . ?
C183 C190 1.585(18) . ?
C190 H19A 0.9900 . ?
C190 H19B 0.9900 . ?
C187 H18C 0.9900 . ?
C187 H18D 0.9900 . ?
C187 C191 1.481(16) . ?
C154 H15W 0.9800 . ?
C154 H15X 0.9800 . ?
C154 H15Y 0.9800 . ?
C191 H19C 0.9900 . ?
C191 H19D 0.9900 . ?
loop_
_geom_torsion_atom_site_label_1
_geom_torsion_atom_site_label_2
_geom_torsion_atom_site_label_3
_geom_torsion_atom_site_label_4
_geom_torsion
_geom_torsion_site_symmetry_1
_geom_torsion_site_symmetry_2
_geom_torsion_site_symmetry_3
_geom_torsion_site_symmetry_4
_geom_torsion_publ_flag
Ce1 N4 C12 C11 32.5(5) . . . . ?
Ce1 N4 C12 C13 -150.7(3) . . . . ?
Ce1 N4 C15 C16 -36.1(5) . . . . ?
Ce1 N4 C15 C14 148.9(3) . . . . ?
Ce1 N7 C39 C38 -158.7(3) . . . . ?
Ce1 N7 C39 C40 24.0(6) . . . . ?
Ce1 N7 C36 C37 158.2(3) . . . . ?
Ce1 N7 C36 C35 -24.7(6) . . . . ?
Ce1 N3 C10 C11 -32.0(5) . . . . ?
Ce1 N3 C10 C9 156.0(3) . . . . ?
Ce1 N3 C7 C6 33.5(6) . . . . ?
Ce1 N3 C7 C8 -155.0(3) . . . . ?
Ce1 N1 C17 C16 35.6(6) . . . . ?
Ce1 N1 C17 C18 -152.4(3) . . . . ?
Ce1 N1 C20 C1 -34.5(6) . . . . ?
Ce1 N1 C20 C19 152.3(3) . . . . ?
Ce1 N6 C31 C32 142.8(3) . . . . ?
Ce1 N6 C31 C30 -41.3(6) . . . . ?
Ce1 N6 C34 C33 -143.1(3) . . . . ?
Ce1 N6 C34 C35 40.2(6) . . . . ?
Ce1 N2 C5 C6 -31.7(6) . . . . ?
Ce1 N2 C5 C4 153.2(3) . . . . ?
Ce1 N2 C2 C1 27.1(6) . . . . ?
Ce1 N2 C2 C3 -153.0(3) . . . . ?
Ce1 N5 C29 C28 -161.5(3) . . . . ?
Ce1 N5 C29 C30 23.5(6) . . . . ?
Ce1 N5 C26 C27 160.7(3) . . . . ?
Ce1 N5 C26 C25 -23.5(6) . . . . ?
Ce1 N8 C21 C22 141.4(3) . . . . ?
Ce1 N8 C21 C40 -41.4(6) . . . . ?
Ce1 N8 C24 C23 -143.6(3) . . . . ?
Ce1 N8 C24 C25 45.6(5) . . . . ?
N7 C39 C40 C21 6.8(7) . . . . ?
N7 C39 C40 C141 178.7(4) . . . . ?
N7 C36 C35 C119 168.7(4) . . . . ?
N7 C36 C35 C34 -16.7(7) . . . . ?
N3 C10 C9 C8 2.1(5) . . . . ?
N1 C17 C18 C19 -0.9(5) . . . . ?
N1 C20 C19 C18 2.1(5) . . . . ?
N6 C31 C30 C113 -172.7(4) . . . . ?
N6 C31 C30 C29 2.2(7) . . . . ?
N6 C34 C35 C119 -177.7(4) . . . . ?
N6 C34 C35 C36 7.8(7) . . . . ?
C16 C17 C18 C19 171.2(4) . . . . ?
C16 C91 C92 C93 177.7(5) . . . . ?
C16 C91 C96 C95 -177.8(5) . . . . ?
N2 C5 C4 C3 0.8(5) . . . . ?
N2 C2 C3 C4 -2.0(5) . . . . ?
N5 C29 C30 C113 -177.4(4) . . . . ?
N5 C29 C30 C31 7.6(7) . . . . ?
N5 C26 C25 C24 -13.5(7) . . . . ?
N5 C26 C25 C97 172.9(4) . . . . ?
C11 C10 C9 C8 -169.9(4) . . . . ?
N8 C21 C22 C23 3.3(5) . . . . ?
N8 C21 C40 C39 2.3(7) . . . . ?
N8 C21 C40 C141 -169.3(4) . . . . ?
N8 C24 C23 C22 -2.5(5) . . . . ?
N8 C24 C25 C26 0.7(7) . . . . ?
N8 C24 C25 C97 174.4(4) . . . . ?
C33 C32 C31 N6 1.6(5) . . . . ?
C33 C32 C31 C30 -174.2(4) . . . . ?
C33 C34 C35 C119 6.0(7) . . . . ?
C33 C34 C35 C36 -168.5(4) . . . . ?
C14 C13 C12 N4 -0.4(5) . . . . ?
C14 C13 C12 C11 176.4(4) . . . . ?
C6 C63 C68 C67 179.8(6) . . . . ?
C6 C63 C64 C65 177.4(6) . . . . ?
C6 C5 C4 C3 -174.6(4) . . . . ?
C13 C14 C15 N4 3.2(5) . . . . ?
C13 C14 C15 C16 -171.8(4) . . . . ?
C17 N1 C20 C1 170.6(4) . . . . ?
C17 N1 C20 C19 -2.5(5) . . . . ?
C17 C16 C91 C92 -105.8(5) . . . . ?
C17 C16 C91 C96 69.6(6) . . . . ?
C17 C16 C15 N4 -2.5(7) . . . . ?
C17 C16 C15 C14 171.8(4) . . . . ?
C71 C79 C84 C78 0.9(7) . . . . ?
C71 C79 C84 C83 -178.4(5) . . . . ?
C71 C79 C80 C81 177.9(5) . . . . ?
C71 C90 C89 C88 178.3(5) . . . . ?
C71 C90 C85 C86 -179.4(5) . . . . ?
C71 C90 C85 C78 1.4(6) . . . . ?
C71 C72 C77 C76 178.1(5) . . . . ?
C71 C72 C77 C78 1.4(7) . . . . ?
C71 C72 C73 C74 -177.3(5) . . . . ?
C1 C20 C19 C18 -171.0(4) . . . . ?
C1 C2 C3 C4 177.8(4) . . . . ?
C12 N4 C15 C16 171.6(4) . . . . ?
C12 N4 C15 C14 -3.4(4) . . . . ?
C12 C11 C10 N3 -0.6(7) . . . . ?
C12 C11 C10 C9 170.2(4) . . . . ?
C10 N3 C7 C6 -167.8(4) . . . . ?
C10 N3 C7 C8 3.7(4) . . . . ?
C10 C11 C12 N4 0.0(7) . . . . ?
C10 C11 C12 C13 -176.3(4) . . . . ?
C28 C27 C26 N5 2.4(6) . . . . ?
C28 C27 C26 C25 -173.5(4) . . . . ?
C28 C29 C30 C113 8.3(6) . . . . ?
C28 C29 C30 C31 -166.8(4) . . . . ?
C69 C11 C12 N4 173.1(4) . . . . ?
C69 C11 C12 C13 -3.2(6) . . . . ?
C69 C11 C10 N3 -173.8(4) . . . . ?
C69 C11 C10 C9 -3.0(6) . . . . ?
C120 C121 C122 C123 -3.3(8) . . . . ?
C120 C121 C122 C127 177.5(5) . . . . ?
C120 C121 C134 C133 -1.8(8) . . . . ?
C120 C121 C134 C129 179.8(5) . . . . ?
C120 C121 C135 C140 179.1(5) . . . . ?
C120 C121 C135 C136 1.9(8) . . . . ?
C91 C16 C17 N1 175.5(4) . . . . ?
C91 C16 C17 C18 4.7(6) . . . . ?
C91 C16 C15 N4 -175.0(4) . . . . ?
C91 C16 C15 C14 -0.7(6) . . . . ?
C91 C92 C93 C94 -2.7(9) . . . . ?
C91 C92 C93 O3 -179.9(6) . . . . ?
C91 C96 C95 O4 -179.7(5) . . . . ?
C91 C96 C95 C94 3.2(10) . . . . ?
C15 N4 C12 C11 -174.4(4) . . . . ?
C15 N4 C12 C13 2.4(4) . . . . ?
C15 C16 C17 N1 2.9(7) . . . . ?
C15 C16 C17 C18 -167.9(4) . . . . ?
C15 C16 C91 C92 67.3(6) . . . . ?
C15 C16 C91 C96 -117.3(5) . . . . ?
C15 C14 C13 C12 -1.6(5) . . . . ?
C79 C71 C90 C89 126.7(5) . . . . ?
C79 C71 C90 C85 -56.4(5) . . . . ?
C79 C71 C72 C77 56.3(6) . . . . ?
C79 C71 C72 C73 -124.8(5) . . . . ?
C79 C84 C78 C85 -56.8(6) . . . . ?
C79 C84 C78 C77 57.1(6) . . . . ?
C79 C84 C83 C82 -0.1(9) . . . . ?
C79 C80 C81 C82 0.6(8) . . . . ?
C32 C33 C34 N6 -5.1(5) . . . . ?
C32 C33 C34 C35 171.6(4) . . . . ?
C32 C31 C30 C113 2.5(7) . . . . ?
C32 C31 C30 C29 177.4(4) . . . . ?
C70 C71 C79 C84 -178.5(5) . . . . ?
C70 C71 C79 C80 2.6(8) . . . . ?
C70 C71 C90 C89 -0.7(7) . . . . ?
C70 C71 C90 C85 176.2(4) . . . . ?
C70 C71 C72 C77 -179.8(5) . . . . ?
C70 C71 C72 C73 -1.0(7) . . . . ?
C90 C71 C79 C84 54.5(5) . . . . ?
C90 C71 C79 C80 -124.4(5) . . . . ?
C90 C71 C72 C77 -56.0(5) . . . . ?
C90 C71 C72 C73 122.8(5) . . . . ?
C90 C89 C88 C87 -1.4(8) . . . . ?
C90 C85 C86 C87 2.7(9) . . . . ?
C90 C85 C78 C84 55.2(6) . . . . ?
C90 C85 C78 C77 -57.4(6) . . . . ?
O5 C115 C116 C117 -178.7(6) . . . . ?
O5 C163 C164 C165 -48.6(15) . . . . ?
C228 C184 C106 C107 58.1(6) . . . . ?
C228 C184 C106 C105 -54.1(6) . . . . ?
C228 C184 C185 C186 -3.6(10) . . . . ?
C228 C99 C100 C105 -56.4(6) . . . . ?
C228 C99 C100 C101 122.6(6) . . . . ?
C228 C99 C112 C107 55.3(5) . . . . ?
C228 C99 C112 C111 -125.6(6) . . . . ?
C228 C182 C188 C186 0.5(12) . . . . ?
C63 C6 C7 N3 177.4(4) . . . . ?
C63 C6 C7 C8 6.9(6) . . . . ?
C63 C6 C5 N2 -177.3(4) . . . . ?
C63 C6 C5 C4 -2.8(7) . . . . ?
C63 C68 C67 O2 -178.4(7) . . . . ?
C63 C68 C67 C66 2.9(12) . . . . ?
C63 C64 C65 O1 -178.6(7) . . . . ?
C63 C64 C65 C66 2.6(11) . . . . ?
C37 C38 C39 N7 1.0(5) . . . . ?
C37 C38 C39 C40 178.3(4) . . . . ?
C37 C36 C35 C119 -14.5(6) . . . . ?
C37 C36 C35 C34 160.0(4) . . . . ?
C121 C122 C123 C124 -179.3(5) . . . . ?
C121 C122 C127 C126 179.7(5) . . . . ?
C121 C122 C127 C128 3.1(7) . . . . ?
C121 C134 C133 C132 179.9(6) . . . . ?
C121 C134 C129 C130 -178.7(6) . . . . ?
C121 C134 C129 C128 1.9(7) . . . . ?
C121 C135 C140 C128 1.2(7) . . . . ?
C121 C135 C140 C139 -179.0(6) . . . . ?
C121 C135 C136 C137 177.6(6) . . . . ?
C113 C114 C115 O5 178.5(6) . . . . ?
C113 C114 C115 C116 1.9(10) . . . . ?
C113 C118 C117 O6 -177.2(5) . . . . ?
C113 C118 C117 C116 3.3(10) . . . . ?
C27 C28 C29 N5 2.7(6) . . . . ?
C27 C28 C29 C30 177.8(5) . . . . ?
C27 C26 C25 C24 161.8(5) . . . . ?
C27 C26 C25 C97 -11.8(7) . . . . ?
C20 N1 C17 C16 -169.9(4) . . . . ?
C20 N1 C17 C18 2.1(4) . . . . ?
C20 C1 C2 N2 7.9(7) . . . . ?
C20 C1 C2 C3 -171.9(4) . . . . ?
C20 C19 C18 C17 -0.7(5) . . . . ?
C41 C1 C20 N1 179.2(4) . . . . ?
C41 C1 C20 C19 -8.7(6) . . . . ?
C41 C1 C2 N2 -175.5(4) . . . . ?
C41 C1 C2 C3 4.6(6) . . . . ?
C7 N3 C10 C11 168.5(4) . . . . ?
C7 N3 C10 C9 -3.5(4) . . . . ?
C7 C6 C63 C68 76.3(6) . . . . ?
C7 C6 C63 C64 -102.2(6) . . . . ?
C7 C6 C5 N2 -5.9(7) . . . . ?
C7 C6 C5 C4 168.6(4) . . . . ?
C7 C8 C9 C10 0.2(5) . . . . ?
C107 C108 C109 C110 1.0(8) . . . . ?
C107 C106 C105 C100 -55.7(6) . . . . ?
C107 C106 C105 C104 125.7(6) . . . . ?
C107 C112 C111 C110 -2.1(8) . . . . ?
C38 C37 C36 N7 1.7(5) . . . . ?
C38 C37 C36 C35 -175.5(4) . . . . ?
C38 C39 C40 C21 -170.1(4) . . . . ?
C38 C39 C40 C141 1.7(7) . . . . ?
C9 C8 C7 N3 -2.5(5) . . . . ?
C9 C8 C7 C6 169.2(4) . . . . ?
C89 C90 C85 C86 -2.3(7) . . . . ?
C89 C90 C85 C78 178.5(5) . . . . ?
C89 C88 C87 C86 1.8(9) . . . . ?
C92 C91 C96 C95 -2.4(8) . . . . ?
C21 N8 C24 C23 4.5(5) . . . . ?
C21 N8 C24 C25 -166.2(4) . . . . ?
C21 C22 C23 C24 -0.5(6) . . . . ?
C21 C40 C141 C142 -110.1(7) . . . . ?
C21 C40 C141 C146 70.9(7) . . . . ?
C96 C91 C92 C93 2.3(8) . . . . ?
C96 C95 C94 C93 -3.7(11) . . . . ?
C5 N2 C2 C1 -177.4(4) . . . . ?
C5 N2 C2 C3 2.5(5) . . . . ?
C5 C6 C63 C68 -111.9(6) . . . . ?
C5 C6 C63 C64 69.7(6) . . . . ?
C5 C6 C7 N3 5.8(7) . . . . ?
C5 C6 C7 C8 -164.7(4) . . . . ?
C122 C121 C134 C133 122.6(6) . . . . ?
C122 C121 C134 C129 -55.9(6) . . . . ?
C122 C121 C135 C140 54.4(6) . . . . ?
C122 C121 C135 C136 -122.8(6) . . . . ?
C122 C123 C124 C125 -1.2(9) . . . . ?
C122 C127 C126 C125 0.5(9) . . . . ?
C122 C127 C128 C129 -58.8(6) . . . . ?
C122 C127 C128 C140 54.3(6) . . . . ?
C85 C90 C89 C88 1.7(8) . . . . ?
C85 C86 C87 C88 -2.5(10) . . . . ?
C2 N2 C5 C6 173.1(4) . . . . ?
C2 N2 C5 C4 -2.0(5) . . . . ?
C2 C1 C20 N1 -4.2(7) . . . . ?
C2 C1 C20 C19 168.0(4) . . . . ?
C2 C3 C4 C5 0.7(5) . . . . ?
C72 C71 C79 C84 -57.1(5) . . . . ?
C72 C71 C79 C80 123.9(5) . . . . ?
C72 C71 C90 C89 -122.4(5) . . . . ?
C72 C71 C90 C85 54.5(5) . . . . ?
C72 C77 C76 C75 -0.2(10) . . . . ?
C72 C77 C78 C85 56.0(6) . . . . ?
C72 C77 C78 C84 -58.5(6) . . . . ?
C72 C73 C74 C75 -1.0(9) . . . . ?
C31 N6 C34 C33 6.0(5) . . . . ?
C31 N6 C34 C35 -170.8(4) . . . . ?
C108 C107 C106 C184 119.8(6) . . . . ?
C108 C107 C106 C105 -128.3(5) . . . . ?
C108 C107 C112 C99 -177.0(4) . . . . ?
C108 C107 C112 C111 3.9(8) . . . . ?
C108 C109 C110 C111 0.8(8) . . . . ?
C39 N7 C36 C37 -1.0(5) . . . . ?
C39 N7 C36 C35 176.1(4) . . . . ?
C39 C40 C141 C142 77.4(7) . . . . ?
C39 C40 C141 C146 -101.7(6) . . . . ?
O4 C95 C94 C93 179.1(6) . . . . ?
O4 C159 C161 C160 -78(3) . . . . ?
C84 C79 C80 C81 -0.9(8) . . . . ?
C84 C83 C82 C81 -0.2(10) . . . . ?
C34 N6 C31 C32 -4.6(5) . . . . ?
C34 N6 C31 C30 171.3(4) . . . . ?
C34 C33 C32 C31 2.1(5) . . . . ?
O6 C117 C116 C115 179.8(7) . . . . ?
C29 N5 C26 C27 -0.6(5) . . . . ?
C29 N5 C26 C25 175.2(4) . . . . ?
C29 C28 C27 C26 -3.0(6) . . . . ?
C22 C21 C40 C39 179.0(4) . . . . ?
C22 C21 C40 C141 7.4(7) . . . . ?
C36 N7 C39 C38 0.1(5) . . . . ?
C36 N7 C39 C40 -177.3(4) . . . . ?
C36 C37 C38 C39 -1.6(5) . . . . ?
C77 C72 C73 C74 1.4(8) . . . . ?
C77 C76 C75 C74 0.6(11) . . . . ?
C73 C72 C77 C76 -0.8(9) . . . . ?
C73 C72 C77 C78 -177.5(5) . . . . ?
C73 C74 C75 C76 0.0(10) . . . . ?
C184 C228 C99 C98 -177.1(5) . . . . ?
C184 C228 C99 C100 58.1(6) . . . . ?
C184 C228 C99 C112 -53.7(6) . . . . ?
C184 C228 C182 C188 0.0(10) . . . . ?
C184 C106 C105 C100 56.4(6) . . . . ?
C184 C106 C105 C104 -122.3(6) . . . . ?
C184 C185 C186 C188 4.2(12) . . . . ?
C24 N8 C21 C22 -4.8(5) . . . . ?
C24 N8 C21 C40 172.4(4) . . . . ?
C98 C99 C100 C105 -179.4(5) . . . . ?
C98 C99 C100 C101 -0.5(8) . . . . ?
C98 C99 C112 C107 178.1(4) . . . . ?
C98 C99 C112 C111 -2.8(7) . . . . ?
C95 O4 C159 C161 -167.5(13) . . . . ?
C95 O4 C190 C183 164.7(13) . . . . ?
C95 C94 C93 C92 3.4(11) . . . . ?
C95 C94 C93 O3 -179.3(7) . . . . ?
C123 C122 C127 C126 0.5(8) . . . . ?
C123 C122 C127 C128 -176.2(5) . . . . ?
C123 C124 C125 C126 2.2(10) . . . . ?
C99 C228 C184 C106 -2.4(7) . . . . ?
C99 C228 C184 C185 -178.1(5) . . . . ?
C99 C228 C182 C188 179.6(6) . . . . ?
C99 C100 C105 C106 -0.2(7) . . . . ?
C99 C100 C105 C104 178.6(5) . . . . ?
C99 C100 C101 C102 -178.6(6) . . . . ?
C99 C112 C111 C110 178.9(5) . . . . ?
C26 N5 C29 C28 -1.2(5) . . . . ?
C26 N5 C29 C30 -176.2(4) . . . . ?
C40 C21 C22 C23 -173.8(5) . . . . ?
C40 C141 C142 C143 -178.8(7) . . . . ?
C40 C141 C146 C145 175.9(7) . . . . ?
C106 C107 C108 C109 -179.7(5) . . . . ?
C106 C107 C112 C99 -0.1(6) . . . . ?
C106 C107 C112 C111 -179.2(5) . . . . ?
C106 C184 C185 C186 -178.7(7) . . . . ?
C106 C105 C104 C103 177.9(6) . . . . ?
C23 C24 C25 C26 -168.3(5) . . . . ?
C23 C24 C25 C97 5.3(7) . . . . ?
C80 C79 C84 C78 179.9(5) . . . . ?
C80 C79 C84 C83 0.6(8) . . . . ?
C134 C121 C122 C123 -127.4(5) . . . . ?
C134 C121 C122 C127 53.4(6) . . . . ?
C134 C121 C135 C140 -55.6(6) . . . . ?
C134 C121 C135 C136 127.3(6) . . . . ?
C134 C133 C132 C131 0.5(12) . . . . ?
C134 C129 C130 C131 -2.4(12) . . . . ?
C134 C129 C128 C127 55.6(7) . . . . ?
C134 C129 C128 C140 -57.3(6) . . . . ?
C114 C113 C30 C31 -123.7(5) . . . . ?
C114 C113 C30 C29 60.9(6) . . . . ?
C114 C113 C118 C117 -3.2(8) . . . . ?
C114 C115 C116 C117 -1.9(11) . . . . ?
C30 C113 C114 C115 -175.8(5) . . . . ?
C30 C113 C118 C117 173.2(5) . . . . ?
C86 C85 C78 C84 -124.0(6) . . . . ?
C86 C85 C78 C77 123.5(6) . . . . ?
C100 C99 C112 C107 -55.5(5) . . . . ?
C100 C99 C112 C111 123.5(5) . . . . ?
C100 C105 C104 C103 -0.7(9) . . . . ?
C100 C101 C102 C103 0.9(10) . . . . ?
C76 C77 C78 C85 -120.4(6) . . . . ?
C76 C77 C78 C84 125.2(6) . . . . ?
C25 C24 C23 C22 168.1(5) . . . . ?
C127 C122 C123 C124 -0.1(8) . . . . ?
C127 C126 C125 C124 -1.8(10) . . . . ?
C127 C128 C140 C135 -56.9(7) . . . . ?
C127 C128 C140 C139 123.3(7) . . . . ?
C118 C113 C114 C115 0.6(8) . . . . ?
C118 C113 C30 C31 59.9(6) . . . . ?
C118 C113 C30 C29 -115.5(5) . . . . ?
C118 C117 C116 C115 -0.8(11) . . . . ?
C105 C100 C101 C102 0.3(9) . . . . ?
C105 C104 C103 C102 1.9(10) . . . . ?
C101 C100 C105 C106 -179.2(5) . . . . ?
C101 C100 C105 C104 -0.4(8) . . . . ?
C101 C102 C103 C104 -2.0(10) . . . . ?
C109 C110 C111 C112 -0.3(8) . . . . ?
O7 C143 C144 C145 -174.2(10) . . . . ?
O7 C171 C172 C173 166.9(13) . . . . ?
C78 C85 C86 C87 -178.2(6) . . . . ?
C78 C84 C83 C82 -179.2(6) . . . . ?
C78 C77 C76 C75 176.0(6) . . . . ?
C112 C107 C108 C109 -3.3(7) . . . . ?
C112 C107 C106 C184 -56.7(6) . . . . ?
C112 C107 C106 C105 55.1(5) . . . . ?
C112 C99 C100 C105 55.3(6) . . . . ?
C112 C99 C100 C101 -125.7(6) . . . . ?
O3 C155 C156 C157 179.7(13) . . . . ?
C126 C127 C128 C129 124.8(6) . . . . ?
C126 C127 C128 C140 -122.1(6) . . . . ?
C83 C84 C78 C85 122.4(6) . . . . ?
C83 C84 C78 C77 -123.7(6) . . . . ?
C83 C82 C81 C80 -0.1(9) . . . . ?
C133 C134 C129 C130 2.7(10) . . . . ?
C133 C134 C129 C128 -176.6(6) . . . . ?
C133 C132 C131 C130 -0.2(14) . . . . ?
C129 C134 C133 C132 -1.8(10) . . . . ?
C129 C130 C131 C132 1.2(14) . . . . ?
C129 C128 C140 C135 55.9(6) . . . . ?
C129 C128 C140 C139 -123.9(7) . . . . ?
C42 C43 C44 C49 -175.5(10) . . . . ?
C42 C43 C44 C45 1.9(18) . . . . ?
C115 O5 C163 C164 178.6(9) . . . . ?
C141 C142 C143 O7 179.0(8) . . . . ?
C141 C142 C143 C144 -2.3(13) . . . . ?
C141 C146 C145 O8 -176.6(8) . . . . ?
C141 C146 C145 C144 7.8(14) . . . . ?
O2 C187 C191 C153 -66(2) . . . . ?
C68 C63 C64 C65 -1.0(9) . . . . ?
C93 O3 C155 C156 179.1(9) . . . . ?
C135 C121 C122 C123 122.5(6) . . . . ?
C135 C121 C122 C127 -56.6(6) . . . . ?
C135 C121 C134 C133 -128.5(6) . . . . ?
C135 C121 C134 C129 53.1(6) . . . . ?
C135 C140 C139 C138 2.6(10) . . . . ?
C135 C136 C137 C138 -0.3(10) . . . . ?
C182 C228 C184 C106 177.3(6) . . . . ?
C182 C228 C184 C185 1.6(9) . . . . ?
C182 C228 C99 C98 3.2(8) . . . . ?
C182 C228 C99 C100 -121.6(6) . . . . ?
C182 C228 C99 C112 126.6(6) . . . . ?
C182 C188 C186 C185 -2.6(13) . . . . ?
O1 C147 C148 C149 -69.6(17) . . . . ?
C142 C141 C146 C145 -3.1(11) . . . . ?
C142 C143 C144 C145 7.0(16) . . . . ?
C64 C63 C68 C67 -1.7(10) . . . . ?
C146 C141 C142 C143 0.3(12) . . . . ?
C146 C145 C144 C143 -9.9(17) . . . . ?
C130 C129 C128 C127 -123.7(8) . . . . ?
C130 C129 C128 C140 123.4(8) . . . . ?
C185 C184 C106 C107 -126.6(6) . . . . ?
C185 C184 C106 C105 121.2(6) . . . . ?
C128 C127 C126 C125 176.6(6) . . . . ?
C128 C129 C130 C131 176.9(8) . . . . ?
C128 C140 C139 C138 -177.7(6) . . . . ?
C140 C135 C136 C137 0.6(9) . . . . ?
C140 C139 C138 C137 -2.3(11) . . . . ?
C117 O6 C167 C168 -168.6(7) . . . . ?
C65 O1 C147 C148 173.0(9) . . . . ?
C65 C66 C67 O2 -180.0(9) . . . . ?
C65 C66 C67 C68 -1.3(13) . . . . ?
C136 C135 C140 C128 178.4(5) . . . . ?
C136 C135 C140 C139 -1.8(9) . . . . ?
C136 C137 C138 C139 1.2(12) . . . . ?
C57 C58 C59 C60 5(2) . . . . ?
C57 C43 C44 C49 -54.4(13) . . . . ?
C57 C43 C44 C45 123.0(13) . . . . ?
C67 O2 C151 C152 -176.2(12) . . . . ?
C67 O2 C187 C191 175.6(14) . . . . ?
C67 C66 C65 O1 179.6(8) . . . . ?
C67 C66 C65 C64 -1.5(13) . . . . ?
O8 C145 C144 C143 174.0(10) . . . . ?
O8 C175 C176 C177 177.7(16) . . . . ?
C163 O5 C115 C114 5.3(10) . . . . ?
C163 O5 C115 C116 -178.0(7) . . . . ?
C163 C164 C165 C166 174.9(11) . . . . ?
C50 C49 C44 C43 -3.6(16) . . . . ?
C50 C49 C44 C45 178.8(13) . . . . ?
C50 C49 C48 C47 -176.7(16) . . . . ?
C143 O7 C171 C172 177.0(10) . . . . ?
C49 C50 C51 C56 66.8(10) . . . . ?
C49 C50 C51 C52 -130.1(12) . . . . ?
C49 C50 C62 C57 -61.7(14) . . . . ?
C49 C50 C62 C61 124.1(15) . . . . ?
C49 C44 C45 C46 -1(2) . . . . ?
C49 C48 C47 C46 -2(2) . . . . ?
C58 C57 C43 C42 -2.8(14) . . . . ?
C58 C57 C43 C56 117.4(12) . . . . ?
C58 C57 C43 C44 -127.7(11) . . . . ?
C58 C57 C62 C50 -174.1(12) . . . . ?
C58 C57 C62 C61 0(2) . . . . ?
C58 C59 C60 C61 -4(3) . . . . ?
C171 O7 C143 C142 3.5(15) . . . . ?
C171 O7 C143 C144 -175.3(10) . . . . ?
C171 C172 C173 C174 -166.5(18) . . . . ?
C56 C43 C44 C49 61.3(13) . . . . ?
C56 C43 C44 C45 -121.3(13) . . . . ?
C56 C55 C54 C53 7.3(16) . . . . ?
C43 C57 C58 C59 -178.8(11) . . . . ?
C43 C57 C62 C50 1.8(15) . . . . ?
C43 C57 C62 C61 175.6(15) . . . . ?
C43 C56 C55 C54 179.3(9) . . . . ?
C43 C56 C51 C50 -10.8(11) . . . . ?
C43 C56 C51 C52 -174.2(13) . . . . ?
C43 C44 C45 C46 -178.2(12) . . . . ?
C44 C49 C48 C47 1(2) . . . . ?
C44 C45 C46 C47 0(2) . . . . ?
C145 O8 C175 C176 -179.2(11) . . . . ?
C55 C56 C43 C42 -3.4(13) . . . . ?
C55 C56 C43 C57 -123.3(10) . . . . ?
C55 C56 C43 C44 123.0(11) . . . . ?
C55 C56 C51 C50 174.6(9) . . . . ?
C55 C56 C51 C52 11.3(19) . . . . ?
C147 O1 C65 C64 -4.1(14) . . . . ?
C147 O1 C65 C66 174.7(10) . . . . ?
C45 C46 C47 C48 2(2) . . . . ?
C155 O3 C93 C92 6.9(12) . . . . ?
C155 O3 C93 C94 -170.3(9) . . . . ?
C155 C156 C157 C158 174.6(12) . . . . ?
C52 C53 C54 C55 -12(2) . . . . ?
C150 C149 C148 C147 -57(2) . . . . ?
C48 C49 C44 C43 178.4(13) . . . . ?
C48 C49 C44 C45 1(2) . . . . ?
C51 C50 C49 C44 -58.4(12) . . . . ?
C51 C50 C49 C48 119.3(15) . . . . ?
C51 C50 C62 C57 53.1(14) . . . . ?
C51 C50 C62 C61 -121.0(14) . . . . ?
C51 C56 C43 C42 -177.3(8) . . . . ?
C51 C56 C43 C57 62.7(9) . . . . ?
C51 C56 C43 C44 -51.0(10) . . . . ?
C51 C56 C55 C54 -6.9(17) . . . . ?
C51 C52 C53 C54 17(3) . . . . ?
C167 O6 C117 C118 171.9(7) . . . . ?
C167 O6 C117 C116 -8.6(11) . . . . ?
C167 C168 C169 C170 -176.0(17) . . . . ?
C159 O4 C95 C96 12.8(13) . . . . ?
C159 O4 C95 C94 -169.9(11) . . . . ?
C175 O8 C145 C146 9.9(16) . . . . ?
C175 O8 C145 C144 -174.4(11) . . . . ?
C175 C176 C177 C178 -175.6(14) . . . . ?
C53 C52 C51 C50 -175.9(14) . . . . ?
C53 C52 C51 C56 -16(2) . . . . ?
C169 C168 C167 O6 179.8(12) . . . . ?
C160 C183 C190 O4 76(2) . . . . ?
C60 C61 C62 C57 2(3) . . . . ?
C60 C61 C62 C50 175.3(15) . . . . ?
C162 C160 C161 C159 -152(2) . . . . ?
C162 C160 C183 C190 167.3(17) . . . . ?
C153 C152 C151 O2 73(2) . . . . ?
C151 O2 C67 C68 165.7(12) . . . . ?
C151 O2 C67 C66 -15.6(16) . . . . ?
C190 O4 C95 C96 -171(2) . . . . ?
C190 O4 C95 C94 6(2) . . . . ?
C187 O2 C67 C68 8.0(17) . . . . ?
C187 O2 C67 C66 -173.3(13) . . . . ?
C154 C153 C152 C151 168.4(19) . . . . ?
C154 C153 C191 C187 -154.7(18) . . . . ?
C62 C57 C58 C59 -3.6(19) . . . . ?
C62 C57 C43 C42 -178.4(9) . . . . ?
C62 C57 C43 C56 -58.1(11) . . . . ?
C62 C57 C43 C44 56.8(11) . . . . ?
C62 C50 C49 C44 64.7(14) . . . . ?
C62 C50 C49 C48 -117.5(15) . . . . ?
C62 C50 C51 C56 -49.0(12) . . . . ?
C62 C50 C51 C52 114.1(13) . . . . ?
C62 C61 C60 C59 0(3) . . . . ?
loop_
_smtbx_masks_void_nr
_smtbx_masks_void_average_x
_smtbx_masks_void_average_y
_smtbx_masks_void_average_z
_smtbx_masks_void_volume
_smtbx_masks_void_count_electrons
_smtbx_masks_void_content
1 0.000 0.000 0.000 85.7 7.5 ?
2 -0.191 -0.340 -0.505 18110.0 3030.2 ?
3 -0.036 0.289 0.467 154.0 63.4 ?
4 0.045 0.342 0.134 154.0 63.4 ?
5 -0.008 0.370 0.800 154.0 63.4 ?
6 0.008 0.630 0.200 154.0 61.9 ?
7 -0.045 0.658 0.866 154.0 61.9 ?
8 0.036 0.711 0.533 154.0 61.9 ?
9 0.289 0.325 0.533 154.0 61.9 ?
10 0.297 0.955 0.134 154.0 63.4 ?
11 0.325 0.036 0.467 154.0 63.4 ?
12 0.342 0.297 0.866 154.0 61.9 ?
13 0.370 0.378 0.200 154.0 61.9 ?
14 0.333 0.667 0.667 85.7 7.5 ?
15 0.378 0.008 0.800 154.0 63.4 ?
16 0.630 0.622 0.800 154.0 63.4 ?
17 0.622 0.992 0.200 154.0 61.9 ?
18 0.658 0.703 0.134 154.0 63.4 ?
19 0.703 0.045 0.866 154.0 61.9 ?
20 0.675 0.964 0.533 154.0 61.9 ?
21 0.667 0.333 0.333 85.7 7.5 ?
22 0.711 0.675 0.467 154.0 63.4 ?
