#------------------------------------------------------------------------------
#$Date: 2023-05-30 01:51:04 +0300 (Tue, 30 May 2023) $
#$Revision: 284051 $
#$URL: file:///home/coder/svn-repositories/cod/cif/7/71/31/7713179.cif $
#------------------------------------------------------------------------------
#
# This file is available in the Crystallography Open Database (COD),
# http://www.crystallography.net/
#
# All data on this site have been placed in the public domain by the
# contributors.
#
data_7713179
loop_
_publ_author_name
'Sahoo, Dipankar'
'Mazumdar, Rakesh'
'Pramanik, Subhadip'
'Banerjee, Sayantani'
'Patra, Ranjan'
'Rath, Sankar Prasad'
_publ_section_title
;
 Modulation of iron spin states in highly distorted iron(III)porphyrin:
 H-bonding interactions and implications for the hemoproteins
;
_journal_name_full               'Dalton Transactions'
_journal_paper_doi               10.1039/D3DT00846K
_journal_year                    2023
_chemical_formula_sum            'C64 H44 Br8 Fe N8'
_chemical_formula_weight         1620.20
_space_group_crystal_system      triclinic
_space_group_IT_number           2
_space_group_name_Hall           '-P 1'
_space_group_name_H-M_alt        'P -1'
_atom_sites_solution_hydrogens   geom
_audit_creation_method           SHELXL-2018/3
_audit_update_record
;
2023-05-01 deposited with the CCDC.	2023-05-29 downloaded from the CCDC.
;
_cell_angle_alpha                86.173(7)
_cell_angle_beta                 73.994(7)
_cell_angle_gamma                77.696(8)
_cell_formula_units_Z            2
_cell_length_a                   13.733(5)
_cell_length_b                   15.553(6)
_cell_length_c                   15.799(6)
_cell_measurement_reflns_used    999
_cell_measurement_temperature    100(2)
_cell_measurement_theta_max      27.5
_cell_measurement_theta_min      2.5
_cell_volume                     3169(2)
_computing_cell_refinement       'Bruker SAINT'
_computing_data_collection       'Bruker APEX'
_computing_data_reduction        'Bruker SAINT'
_computing_molecular_graphics    'SHELXL 5.1, XP (Sheldrick, 1994)'
_computing_publication_material  SHELXL-97
_computing_structure_refinement  'SHELXL-2018/3 (Sheldrick, 2018)'
_computing_structure_solution    'SHELXS-97 (Sheldrick, 2008)'
_diffrn_ambient_temperature      100(2)
_diffrn_measured_fraction_theta_full 0.977
_diffrn_measured_fraction_theta_max 0.974
_diffrn_measurement_device_type  'Bruker SMART APEX'
_diffrn_measurement_method       \w
_diffrn_radiation_type           MoK\a
_diffrn_radiation_wavelength     0.71073
_diffrn_reflns_av_R_equivalents  0.0610
_diffrn_reflns_av_unetI/netI     0.1474
_diffrn_reflns_Laue_measured_fraction_full 0.977
_diffrn_reflns_Laue_measured_fraction_max 0.974
_diffrn_reflns_limit_h_max       16
_diffrn_reflns_limit_h_min       -14
_diffrn_reflns_limit_k_max       17
_diffrn_reflns_limit_k_min       -18
_diffrn_reflns_limit_l_max       19
_diffrn_reflns_limit_l_min       -16
_diffrn_reflns_number            16764
_diffrn_reflns_point_group_measured_fraction_full 0.977
_diffrn_reflns_point_group_measured_fraction_max 0.974
_diffrn_reflns_theta_full        25.000
_diffrn_reflns_theta_max         25.500
_diffrn_reflns_theta_min         2.014
_diffrn_source                   'fine-focus sealed tube'
_exptl_absorpt_coefficient_mu    5.327
_exptl_absorpt_correction_T_max  0.587
_exptl_absorpt_correction_T_min  0.430
_exptl_absorpt_correction_type   multi-scan
_exptl_crystal_colour            'dark red'
_exptl_crystal_density_diffrn    1.698
_exptl_crystal_description       block
_exptl_crystal_F_000             1580
_exptl_crystal_size_max          0.160
_exptl_crystal_size_mid          0.140
_exptl_crystal_size_min          0.100
_refine_diff_density_max         1.464
_refine_diff_density_min         -1.143
_refine_diff_density_rms         0.205
_refine_ls_extinction_method     none
_refine_ls_goodness_of_fit_ref   0.961
_refine_ls_hydrogen_treatment    constr
_refine_ls_matrix_type           full
_refine_ls_number_parameters     558
_refine_ls_number_reflns         11498
_refine_ls_number_restraints     40
_refine_ls_restrained_S_all      0.963
_refine_ls_R_factor_all          0.1303
_refine_ls_R_factor_gt           0.0758
_refine_ls_shift/su_max          0.002
_refine_ls_shift/su_mean         0.000
_refine_ls_structure_factor_coef Fsqd
_refine_ls_weighting_details
'w=1/[\s^2^(Fo^2^)+(0.1214P)^2^] where P=(Fo^2^+2Fc^2^)/3'
_refine_ls_weighting_scheme      calc
_refine_ls_wR_factor_gt          0.1962
_refine_ls_wR_factor_ref         0.2328
_reflns_Friedel_coverage         0.000
_reflns_number_gt                6293
_reflns_number_total             11498
_reflns_threshold_expression     'I > 2\s(I)'
_cod_data_source_file            d3dt00846k2.cif
_cod_data_source_block           shelx_CCDC3
_cod_database_code               7713179
_shelx_shelxl_version_number     2018/3
_shelx_space_group_comment
;
The symmetry employed for this shelxl refinement is uniquely defined
by the following loop, which should always be used as a source of
symmetry information in preference to the above space-group names.
They are only intended as comments.
;
_shelx_estimated_absorpt_t_min   0.483
_shelx_estimated_absorpt_t_max   0.618
_exptl_absorpt_special_details   'SADABS 2.05 (Sheldrick, 2002)'
_shelx_res_file
;
TITL 20janbm in P -1
    shelx.res
    created by SHELXL-2018/3 at 23:28:10 on 27-Apr-2023
CELL  0.71073  13.7332  15.5532  15.7986   86.173   73.994   77.696
ZERR     2.00   0.0054   0.0063   0.0063    0.007    0.007    0.008
LATT   1
SFAC  C    H    N    FE   BR
UNIT  128  88  16   2    16
MERG   2
FMAP   2
PLAN   5
L.S. 12
TEMP -173.0
BOND $H
ACTA 50
omit 0   2   1
omit     0   3   1
omit     0   3   0
omit    -1   2   0
omit     0   2   0
omit    -1   2   1
omit    -1   3   1
omit     2   1   1
omit -2   8   1
omit -2 7 2
omit -3 51.0
isor 0.01 c5 c49
isor 0.02 c7 c37 c52
DELU c45 c46 n6 c47 n5
SIZE 0.16 0.14 0.10 ! Dark Red
ABIN

WGHT    0.121400
FVAR       0.26407
BR1   5   -0.326512    0.323473    0.999781    11.00000    0.02425    0.03167 =
         0.04848   -0.00339    0.00182    0.00341
BR2   5   -0.248266    0.234063    0.794244    11.00000    0.02291    0.04985 =
         0.07281   -0.03080   -0.00733   -0.00670
BR3   5    0.168826   -0.041696    0.658069    11.00000    0.03223    0.02326 =
         0.07265   -0.02352   -0.00190   -0.00775
BR4   5    0.410622    0.001693    0.626392    11.00000    0.02545    0.03674 =
         0.06178   -0.02468   -0.00053   -0.00017
BR5   5    0.497043    0.365058    0.711800    11.00000    0.03515    0.03599 =
         0.04062   -0.00556    0.00100   -0.01887
BR6   5    0.430025    0.443967    0.921447    11.00000    0.04360    0.03539 =
         0.04522   -0.00674   -0.00774   -0.02319
BR7   5    0.170435    0.276747    1.260229    11.00000    0.03645    0.04985 =
         0.03696    0.00257   -0.00655   -0.00538
BR8   5   -0.074666    0.245918    1.287937    11.00000    0.04052    0.03382 =
         0.04034    0.00257    0.00228   -0.00994
FE1   4    0.129384    0.231743    0.904393    11.00000    0.01951    0.01286 =
         0.03856   -0.00470   -0.00018   -0.00524
N1    3   -0.012968    0.217560    0.915961    11.00000    0.01933    0.01354 =
         0.04433   -0.00984   -0.00503   -0.00699
N2    3    0.176136    0.177602    0.785674    11.00000    0.01485    0.01468 =
         0.04050   -0.00886   -0.00095   -0.00724
N3    3    0.268736    0.259474    0.888224    11.00000    0.02971    0.02306 =
         0.02833   -0.00493   -0.00154   -0.00808
N4    3    0.088840    0.271933    1.027006    11.00000    0.02484    0.01211 =
         0.04191   -0.00545   -0.00007   -0.00243
C1    1   -0.099340    0.254462    0.983077    11.00000    0.01393    0.02176 =
         0.04741   -0.00412    0.00048   -0.00812
C2    1   -0.190132    0.263822    0.949002    11.00000    0.01586    0.01926 =
         0.06290    0.00332   -0.00333   -0.00900
C3    1   -0.159435    0.226190    0.866455    11.00000    0.01188    0.02243 =
         0.05620   -0.01214   -0.00300   -0.00394
C4    1   -0.048883    0.195723    0.848734    11.00000    0.02284    0.01010 =
         0.05010   -0.00354   -0.00112   -0.00537
C5    1    0.012562    0.140779    0.779494    11.00000    0.02505    0.01331 =
         0.03839   -0.00870   -0.00705   -0.01070
C6    1    0.121261    0.125461    0.758892    11.00000    0.02399    0.02163 =
         0.03607   -0.00690    0.00162   -0.00920
C7    1    0.194108    0.059151    0.699062    11.00000    0.02422    0.00723 =
         0.06113   -0.00584   -0.00585   -0.00223
C8    1    0.289530    0.076151    0.687804    11.00000    0.02851    0.01720 =
         0.04178   -0.00773   -0.00819   -0.00273
C9    1    0.277477    0.152561    0.739067    11.00000    0.02287    0.00654 =
         0.04186   -0.00842   -0.00014   -0.00591
C10   1    0.353971    0.200568    0.738682    11.00000    0.02781    0.02670 =
         0.03299   -0.00134   -0.00652   -0.00641
C11   1    0.341155    0.258004    0.807116    11.00000    0.02920    0.01611 =
         0.02950   -0.00304   -0.00515   -0.00533
C12   1    0.404647    0.320934    0.810001    11.00000    0.02061    0.02682 =
         0.03509    0.00299    0.00220   -0.01814
C13   1    0.374298    0.353576    0.888309    11.00000    0.01731    0.02707 =
         0.04640    0.00119   -0.00435   -0.00873
C14   1    0.290521    0.314323    0.941523    11.00000    0.01593    0.02296 =
         0.05285   -0.01123   -0.00531   -0.00337
C15   1    0.247848    0.316616    1.032135    11.00000    0.01852    0.03230 =
         0.02239   -0.00499    0.00192   -0.00442
C16   1    0.156333    0.287328    1.073870    11.00000    0.03360    0.01748 =
         0.03768   -0.00211   -0.00623   -0.00768
C17   1    0.109616    0.279920    1.167993    11.00000    0.03232    0.02611 =
         0.03537   -0.00487   -0.01079   -0.00489
C18   1    0.012664    0.265446    1.176576    11.00000    0.03233    0.02312 =
         0.03204   -0.00423    0.00112   -0.00556
C19   1   -0.003878    0.264022    1.089708    11.00000    0.02654    0.02047 =
         0.03975   -0.00389    0.00906   -0.00354
C20   1   -0.095078    0.266456    1.069593    11.00000    0.02021    0.01444 =
         0.04610   -0.00012   -0.00818   -0.00445
AFIX  66
C21   1   -0.194788    0.285779    1.141185    11.00000    0.02146    0.03237 =
         0.04884   -0.00288   -0.01017    0.00084
C22   1   -0.236143    0.371065    1.172024    11.00000    0.02260    0.04560 =
         0.04371    0.00263   -0.01017    0.00404
AFIX  43
H22A  2   -0.203244    0.417894    1.145865    11.00000   -1.20000
AFIX  65
C23   1   -0.325634    0.387835    1.241139    11.00000    0.03316    0.04649 =
         0.04246   -0.00997   -0.00959    0.02083
AFIX  43
H23A  2   -0.353897    0.446125    1.262217    11.00000   -1.20000
AFIX  65
C24   1   -0.373771    0.319318    1.279415    11.00000    0.02009    0.06510 =
         0.06813    0.00410    0.00252    0.00908
AFIX  43
H24A  2   -0.434934    0.330779    1.326652    11.00000   -1.20000
AFIX  65
C25   1   -0.332417    0.234031    1.248576    11.00000    0.02066    0.09049 =
         0.03870    0.02566    0.00305   -0.00559
AFIX  43
H25A  2   -0.365316    0.187202    1.274736    11.00000   -1.20000
AFIX  65
C26   1   -0.242926    0.217260    1.179461    11.00000    0.02742    0.05083 =
         0.04326   -0.00023    0.00723   -0.00243
AFIX  43
H26A  2   -0.214662    0.158970    1.158384    11.00000   -1.20000
AFIX  66
C27   1   -0.038020    0.096361    0.726462    11.00000    0.02366    0.03035 =
         0.07031   -0.03271    0.00058   -0.00410
C28   1   -0.085234    0.026961    0.763447    11.00000    0.03004    0.04355 =
         0.08006   -0.02614   -0.00241   -0.02466
AFIX  43
H28A  2   -0.091250    0.011463    0.823594    11.00000   -1.20000
AFIX  65
C29   1   -0.123646   -0.019763    0.712429    11.00000    0.03831    0.05401 =
         0.12075   -0.05377    0.00263   -0.02132
AFIX  43
H29A  2   -0.155914   -0.067194    0.737707    11.00000   -1.20000
AFIX  65
C30   1   -0.114844    0.002913    0.624424    11.00000    0.02983    0.14008 =
         0.11587   -0.09460    0.00835   -0.03525
AFIX  43
H30A  2   -0.141096   -0.029021    0.589556    11.00000   -1.20000
AFIX  65
C31   1   -0.067630    0.072313    0.587438    11.00000    0.03625    0.11521 =
         0.06909   -0.05853   -0.00371   -0.00263
AFIX  43
H31A  2   -0.061615    0.087811    0.527291    11.00000   -1.20000
AFIX  65
C32   1   -0.029218    0.119037    0.638456    11.00000    0.01771    0.05954 =
         0.06110   -0.03155    0.00473   -0.00086
AFIX  43
H32A  2    0.003050    0.166469    0.613177    11.00000   -1.20000
AFIX  66
C33   1    0.454327    0.182648    0.671495    11.00000    0.02160    0.04717 =
         0.04965   -0.01755    0.00377   -0.01821
C34   1    0.461210    0.199461    0.582737    11.00000    0.08507    0.09548 =
         0.04534   -0.01461   -0.00577   -0.07446
AFIX  43
H34A  2    0.400250    0.221008    0.564135    11.00000   -1.20000
AFIX  65
C35   1    0.557285    0.184746    0.521198    11.00000    0.11029    0.11622 =
         0.02487   -0.03143    0.01413   -0.07434
AFIX  43
H35A  2    0.561989    0.196237    0.460536    11.00000   -1.20000
AFIX  65
C36   1    0.646479    0.153219    0.548416    11.00000    0.05687    0.09279 =
         0.12839   -0.05901    0.04129   -0.05190
AFIX  43
H36A  2    0.712142    0.143163    0.506356    11.00000   -1.20000
AFIX  65
C37   1    0.639597    0.136406    0.637173    11.00000    0.03861    0.07306 =
         0.16538   -0.06007    0.01166   -0.02126
AFIX  43
H37A  2    0.700558    0.114859    0.655774    11.00000   -1.20000
AFIX  65
C38   1    0.543522    0.151120    0.698713    11.00000    0.02977    0.04249 =
         0.10259   -0.04402   -0.01251   -0.00154
AFIX  43
H38A  2    0.538819    0.139629    0.759374    11.00000   -1.20000
AFIX  66
C39   1    0.296427    0.360096    1.088231    11.00000    0.02558    0.05323 =
         0.02905   -0.00261   -0.00247   -0.01534
C40   1    0.388686    0.316861    1.105341    11.00000    0.02675    0.07023 =
         0.04468    0.00784   -0.00850   -0.01680
AFIX  43
H40A  2    0.421557    0.260325    1.081260    11.00000   -1.20000
AFIX  65
C41   1    0.432851    0.356347    1.157686    11.00000    0.04571    0.12846 =
         0.04132    0.01465   -0.01319   -0.05669
AFIX  43
H41A  2    0.495906    0.326797    1.169381    11.00000   -1.20000
AFIX  65
C42   1    0.384757    0.439069    1.192921    11.00000    0.07517    0.11444 =
         0.05173   -0.00510   -0.00345   -0.07516
AFIX  43
H42A  2    0.414942    0.466055    1.228697    11.00000   -1.20000
AFIX  65
C43   1    0.292498    0.482305    1.175811    11.00000    0.08355    0.04458 =
         0.05160   -0.00719   -0.00319   -0.04015
AFIX  43
H43A  2    0.259628    0.538841    1.199892    11.00000   -1.20000
AFIX  65
C44   1    0.248332    0.442820    1.123466    11.00000    0.05526    0.03971 =
         0.04415   -0.01342    0.00261   -0.01832
AFIX  43
H44A  2    0.185276    0.472370    1.111773    11.00000   -1.20000
AFIX  56
N5    3    0.170586    0.110667    0.946814    11.00000    0.04479    0.02274 =
         0.05304    0.00027    0.01008   -0.00304
C45   1    0.103641    0.052371    0.985932    11.00000    0.11070    0.03085 =
         0.10649    0.02358   -0.01662   -0.03670
AFIX  43
H45A  2    0.030506    0.067972    1.007619    11.00000   -1.20000
AFIX  55
C46   1    0.165207   -0.033339    0.986941    11.00000    0.11665    0.03286 =
         0.11078    0.00350    0.03086    0.00432
AFIX  43
H46A  2    0.140492   -0.085146    1.009422    11.00000   -1.20000
AFIX  55
N6    3    0.270202   -0.028014    0.948447    11.00000    0.12953    0.03234 =
         0.19897    0.03019   -0.01244    0.00029
C47   1    0.273526    0.060987    0.923648    11.00000    0.07492    0.05697 =
         0.16757    0.04879   -0.01515    0.01122
AFIX  43
H47A  2    0.334001    0.083364    0.896351    11.00000   -1.20000
AFIX   0
C48   1    0.356057   -0.094357    0.927912    11.00000    0.14914    0.03956 =
         0.26130   -0.00757   -0.10734    0.02704
AFIX 137
H48A  2    0.417884   -0.069056    0.905102    11.00000   -1.50000
H48B  2    0.350090   -0.132048    0.883061    11.00000   -1.50000
H48C  2    0.361635   -0.129443    0.980876    11.00000   -1.50000
AFIX  56
N7    3    0.091355    0.349062    0.857142    11.00000    0.02272    0.02266 =
         0.03097   -0.00359   -0.00028   -0.01202
C49   1    0.041979    0.426820    0.906553    11.00000    0.05063    0.01926 =
         0.05807   -0.00967    0.00399    0.01445
AFIX  43
H49A  2    0.018269    0.430371    0.968917    11.00000   -1.20000
AFIX  55
C50   1    0.034264    0.498338    0.846381    11.00000    0.04025    0.02633 =
         0.05505   -0.00922   -0.01296    0.00129
AFIX  43
H50A  2    0.004487    0.558136    0.861420    11.00000   -1.20000
AFIX  55
N8    3    0.078872    0.464781    0.759780    11.00000    0.08689    0.01823 =
         0.08163    0.00565   -0.01821    0.01463
C51   1    0.114156    0.372523    0.766431    11.00000    0.10408    0.02995 =
         0.04865   -0.00339   -0.00596    0.00574
AFIX  43
H51A  2    0.147212    0.333371    0.718593    11.00000   -1.20000
AFIX   0
C52   1    0.093426    0.514192    0.682327    11.00000    0.25039    0.04265 =
         0.06319    0.01549   -0.04967    0.01660
AFIX 137
H52A  2    0.085653    0.576162    0.696268    11.00000   -1.50000
H52B  2    0.041878    0.508501    0.651887    11.00000   -1.50000
H52C  2    0.163005    0.492742    0.644230    11.00000   -1.50000

AFIX   0
HKLF    4




REM  20janbm in P -1
REM wR2 = 0.2328, GooF = S = 0.961, Restrained GooF = 0.963 for all data
REM R1 = 0.0758 for 6293 Fo > 4sig(Fo) and 0.1303 for all 11498 data
REM 558 parameters refined using 40 restraints

END

WGHT      0.1202      0.0000

REM Highest difference peak  1.464,  deepest hole -1.143,  1-sigma level  0.205
Q1    1   0.1748 -0.0031  0.5929  11.00000  0.05    1.46
Q2    1   0.2503  0.0958  1.0027  11.00000  0.05    1.46
Q3    1   0.4060  0.0389  0.5733  11.00000  0.05    1.22
Q4    1   0.2467  0.0169  1.0272  11.00000  0.05    1.17
Q5    1   0.3945 -0.0415  0.7055  11.00000  0.05    1.13
;
_shelx_res_checksum              10728
_shelx_fab_file
;
    2    0    0    -47.18      0.00
    4    0    0      7.94      0.00
    5    0    0      2.73      0.00
    6    0    0      2.62      0.00
    7    0    0     -9.68      0.00
    8    0    0     -0.16      0.00
    9    0    0      3.89      0.00
   10    0    0     -6.75      0.00
   11    0    0     -4.70      0.00
   12    0    0      7.85      0.00
   13    0    0     -1.08      0.00
   14    0    0      0.87      0.00
   15    0    0     -2.41      0.00
   16    0    0      2.16      0.00
  -16    1    0      4.13      0.00
  -15    1    0     -0.80      0.00
  -14    1    0     -0.55      0.00
  -13    1    0      1.70      0.00
  -12    1    0      1.03      0.00
  -11    1    0     -3.39      0.00
  -10    1    0      1.33      0.00
   -9    1    0      8.46      0.00
   -8    1    0     -6.02      0.00
   -7    1    0     -4.02      0.00
   -6    1    0      2.46      0.00
   -5    1    0     -9.86      0.00
   -3    1    0      9.78      0.00
   -2    1    0    -48.04      0.00
    4    1    0      6.92      0.00
    5    1    0     -3.03      0.00
    6    1    0     -3.36      0.00
    7    1    0     -0.58      0.00
    8    1    0     13.86      0.00
    9    1    0     -1.67      0.00
   10    1    0     -5.71      0.00
   11    1    0      3.26      0.00
   12    1    0      0.45      0.00
   13    1    0     -6.79      0.00
   14    1    0     -4.82      0.00
   15    1    0      3.25      0.00
  -16    2    0     -1.10      0.00
  -15    2    0     -3.88      0.00
  -14    2    0      2.07      0.00
  -13    2    0     -2.55      0.00
  -12    2    0      2.94      0.00
  -11    2    0     -3.59      0.00
  -10    2    0      1.15      0.00
   -9    2    0     -1.00      0.00
   -8    2    0     -1.97      0.00
   -7    2    0     10.54      0.00
   -6    2    0      4.20      0.00
   -5    2    0      4.75      0.00
   -4    2    0    -10.51      0.00
   -3    2    0      2.22      0.00
   -2    2    0    -11.88      0.00
   -1    2    0     55.17      0.00
    0    2    0     57.87      0.00
    5    2    0    -20.24      0.00
    6    2    0     -9.62      0.00
    7    2    0     10.41      0.00
    8    2    0     -2.02      0.00
    9    2    0     -7.03      0.00
   10    2    0      2.19      0.00
   11    2    0      1.52      0.00
   12    2    0      5.03      0.00
   13    2    0     -2.03      0.00
   14    2    0      2.23      0.00
   15    2    0     -1.14      0.00
  -15    3    0      3.14      0.00
  -14    3    0      0.39      0.00
  -13    3    0      1.07      0.00
  -12    3    0     -0.21      0.00
  -11    3    0      0.83      0.00
  -10    3    0     -2.82      0.00
   -9    3    0      4.13      0.00
   -8    3    0     -4.85      0.00
   -7    3    0      4.09      0.00
   -6    3    0    -13.05      0.00
   -5    3    0      2.48      0.00
   -4    3    0      4.06      0.00
   -3    3    0      9.12      0.00
   -1    3    0     47.20      0.00
    0    3    0    -44.15      0.00
    1    3    0     34.48      0.00
    2    3    0     23.35      0.00
    3    3    0    -11.52      0.00
    4    3    0     11.16      0.00
    5    3    0     -6.63      0.00
    7    3    0      2.42      0.00
    8    3    0     -6.03      0.00
    9    3    0     -1.06      0.00
   10    3    0      1.97      0.00
   11    3    0     -1.58      0.00
   12    3    0      1.40      0.00
   13    3    0     -5.60      0.00
   14    3    0      6.21      0.00
   15    3    0      1.98      0.00
  -15    4    0     -0.56      0.00
  -14    4    0      1.01      0.00
  -13    4    0     -0.88      0.00
  -12    4    0     -2.08      0.00
  -11    4    0     -2.88      0.00
  -10    4    0      4.09      0.00
   -9    4    0      3.21      0.00
   -8    4    0     -3.35      0.00
   -7    4    0      2.60      0.00
   -6    4    0     -9.22      0.00
   -5    4    0      9.76      0.00
   -2    4    0     -4.31      0.00
    1    4    0      3.15      0.00
    2    4    0     10.28      0.00
    3    4    0     11.97      0.00
    4    4    0    -15.02      0.00
    5    4    0      1.64      0.00
    6    4    0      4.74      0.00
    7    4    0      3.00      0.00
    8    4    0     -3.17      0.00
    9    4    0      0.10      0.00
   10    4    0      0.75      0.00
   11    4    0      1.23      0.00
   12    4    0      1.04      0.00
   13    4    0     -5.88      0.00
   14    4    0      0.13      0.00
   15    4    0     -4.37      0.00
  -15    5    0     -0.05      0.00
  -14    5    0      1.84      0.00
  -13    5    0      1.81      0.00
  -12    5    0     -0.70      0.00
  -11    5    0      7.47      0.00
  -10    5    0      0.10      0.00
   -9    5    0     -0.87      0.00
   -8    5    0     -4.74      0.00
   -7    5    0      3.42      0.00
   -6    5    0     -0.86      0.00
   -5    5    0     11.34      0.00
   -4    5    0     -6.26      0.00
   -3    5    0     -0.66      0.00
   -2    5    0     21.10      0.00
   -1    5    0      3.34      0.00
    1    5    0     20.07      0.00
    2    5    0     -1.75      0.00
    3    5    0     -7.55      0.00
    4    5    0      1.25      0.00
    5    5    0      9.82      0.00
    6    5    0     -7.22      0.00
    7    5    0     -1.40      0.00
    8    5    0      0.83      0.00
    9    5    0      3.12      0.00
   10    5    0      3.11      0.00
   11    5    0      0.92      0.00
   12    5    0     -1.72      0.00
   13    5    0      4.21      0.00
   14    5    0      8.95      0.00
   15    5    0     -4.49      0.00
  -14    6    0     -2.69      0.00
  -13    6    0     -6.43      0.00
  -12    6    0      1.69      0.00
  -11    6    0      3.44      0.00
  -10    6    0     -2.49      0.00
   -9    6    0     -2.09      0.00
   -8    6    0      1.49      0.00
   -7    6    0      1.13      0.00
   -6    6    0      0.20      0.00
   -5    6    0     -3.65      0.00
   -4    6    0     -7.27      0.00
   -3    6    0     11.38      0.00
   -2    6    0      8.97      0.00
    0    6    0      1.40      0.00
    1    6    0     21.35      0.00
    2    6    0    -19.12      0.00
    3    6    0     -0.57      0.00
    4    6    0      3.74      0.00
    5    6    0      9.03      0.00
    6    6    0    -14.54      0.00
    7    6    0      3.17      0.00
    8    6    0     -0.67      0.00
    9    6    0      0.04      0.00
   10    6    0     -0.16      0.00
   11    6    0     -2.48      0.00
   12    6    0     -1.91      0.00
   13    6    0      3.91      0.00
   14    6    0     -6.59      0.00
   15    6    0     -1.59      0.00
   16    6    0      1.87      0.00
  -14    7    0      1.54      0.00
  -13    7    0      2.03      0.00
  -12    7    0      6.85      0.00
  -11    7    0      1.81      0.00
  -10    7    0     -4.32      0.00
   -9    7    0     -0.21      0.00
   -8    7    0      2.16      0.00
   -7    7    0     -1.10      0.00
   -6    7    0      2.13      0.00
   -5    7    0     -3.02      0.00
   -4    7    0      8.57      0.00
   -3    7    0     -4.56      0.00
    0    7    0      6.73      0.00
    1    7    0      3.09      0.00
    2    7    0     -6.18      0.00
    3    7    0      8.26      0.00
    4    7    0      6.90      0.00
    5    7    0    -12.89      0.00
    6    7    0     -4.17      0.00
    7    7    0     13.41      0.00
    8    7    0     -4.13      0.00
    9    7    0      7.03      0.00
   10    7    0     -9.10      0.00
   11    7    0     -2.50      0.00
   12    7    0      2.64      0.00
   13    7    0     -0.88      0.00
   14    7    0     -3.12      0.00
   15    7    0      1.07      0.00
   16    7    0      3.52      0.00
  -13    8    0      0.64      0.00
  -12    8    0     -1.08      0.00
  -11    8    0     -2.75      0.00
  -10    8    0     -1.95      0.00
   -9    8    0      1.49      0.00
   -8    8    0     -0.23      0.00
   -7    8    0      4.18      0.00
   -6    8    0      0.87      0.00
   -5    8    0      0.10      0.00
   -4    8    0      9.15      0.00
   -3    8    0     -2.82      0.00
   -1    8    0      1.49      0.00
    0    8    0     -1.80      0.00
    1    8    0     -3.24      0.00
    2    8    0     -9.04      0.00
    3    8    0     12.34      0.00
    4    8    0     -7.33      0.00
    5    8    0     -2.88      0.00
    6    8    0      6.81      0.00
    7    8    0      5.53      0.00
    8    8    0     -2.11      0.00
    9    8    0     -3.20      0.00
   10    8    0      1.92      0.00
   11    8    0      9.14      0.00
   12    8    0      4.35      0.00
   13    8    0     -5.51      0.00
   14    8    0     -4.47      0.00
   15    8    0      4.65      0.00
   16    8    0     -1.07      0.00
  -13    9    0     -0.57      0.00
  -12    9    0     -4.59      0.00
  -11    9    0      1.39      0.00
  -10    9    0     -0.08      0.00
   -9    9    0     -1.41      0.00
   -8    9    0      1.14      0.00
   -7    9    0     -3.34      0.00
   -6    9    0     -3.17      0.00
   -5    9    0      1.63      0.00
   -4    9    0     -0.80      0.00
   -3    9    0    -10.48      0.00
   -2    9    0      6.11      0.00
   -1    9    0      4.03      0.00
    0    9    0      0.73      0.00
    1    9    0      2.95      0.00
    2    9    0     -3.26      0.00
    3    9    0     -1.10      0.00
    4    9    0     -0.24      0.00
    5    9    0      0.21      0.00
    6    9    0     -1.32      0.00
    7    9    0     -4.45      0.00
    8    9    0     -4.43      0.00
    9    9    0      3.15      0.00
   10    9    0     -4.51      0.00
   11    9    0      0.69      0.00
   12    9    0     -3.36      0.00
   13    9    0     -1.15      0.00
   14    9    0      9.67      0.00
   15    9    0      0.82      0.00
   16    9    0     -5.03      0.00
  -12   10    0      4.23      0.00
  -11   10    0     -0.19      0.00
  -10   10    0     -0.97      0.00
   -9   10    0      3.70      0.00
   -8   10    0      2.24      0.00
   -7   10    0     -0.01      0.00
   -6   10    0      2.23      0.00
   -5   10    0     -1.80      0.00
   -4   10    0     -0.65      0.00
   -3   10    0     -1.38      0.00
   -2   10    0      5.24      0.00
   -1   10    0     -2.04      0.00
    0   10    0      5.45      0.00
    1   10    0     -2.93      0.00
    2   10    0      0.38      0.00
    3   10    0      7.23      0.00
    4   10    0     -6.05      0.00
    5   10    0      1.69      0.00
    6   10    0      3.01      0.00
    7   10    0     -3.22      0.00
    8   10    0      3.50      0.00
    9   10    0     -2.12      0.00
   10   10    0      5.30      0.00
   11   10    0     -1.07      0.00
   12   10    0     -1.86      0.00
   13   10    0      2.75      0.00
   14   10    0     -1.77      0.00
   15   10    0     -2.41      0.00
   16   10    0      0.71      0.00
  -11   11    0      0.87      0.00
  -10   11    0      1.91      0.00
   -8   11    0      1.00      0.00
   -7   11    0      3.08      0.00
   -6   11    0     -0.56      0.00
   -5   11    0     -3.46      0.00
   -4   11    0      1.42      0.00
   -3   11    0     -1.73      0.00
   -2   11    0      0.59      0.00
   -1   11    0      2.07      0.00
    0   11    0    -10.94      0.00
    1   11    0     -2.03      0.00
    2   11    0      5.67      0.00
    3   11    0      1.10      0.00
    4   11    0     -6.52      0.00
    5   11    0     -1.60      0.00
    6   11    0     -0.60      0.00
    7   11    0     -1.11      0.00
    8   11    0      3.80      0.00
    9   11    0     -4.58      0.00
   10   11    0     -1.80      0.00
   11   11    0      2.74      0.00
   12   11    0     -2.51      0.00
   13   11    0      2.27      0.00
   14   11    0     -1.54      0.00
   15   11    0      0.48      0.00
  -11   12    0      3.60      0.00
  -10   12    0      1.25      0.00
   -8   12    0     -4.26      0.00
   -7   12    0     -5.13      0.00
   -6   12    0      4.48      0.00
   -5   12    0     -0.87      0.00
   -4   12    0      0.48      0.00
   -3   12    0     -0.09      0.00
   -2   12    0      5.60      0.00
   -1   12    0     -3.70      0.00
    0   12    0     -2.06      0.00
    1   12    0      4.56      0.00
    2   12    0      2.29      0.00
    3   12    0     -7.03      0.00
    4   12    0     -3.39      0.00
    5   12    0      6.65      0.00
    6   12    0     -2.50      0.00
    7   12    0     -1.84      0.00
    8   12    0      0.63      0.00
    9   12    0     -4.89      0.00
   10   12    0      4.54      0.00
   11   12    0     -0.68      0.00
   12   12    0      2.05      0.00
   13   12    0      3.36      0.00
   14   12    0      0.05      0.00
   15   12    0      1.33      0.00
  -10   13    0     -4.72      0.00
   -7   13    0      1.46      0.00
   -6   13    0     -3.26      0.00
   -5   13    0     -5.94      0.00
   -4   13    0      8.35      0.00
   -3   13    0      4.87      0.00
   -2   13    0     -0.69      0.00
   -1   13    0     -1.39      0.00
    0   13    0     -0.55      0.00
    1   13    0      8.14      0.00
    2   13    0     -1.39      0.00
    3   13    0     -2.59      0.00
    4   13    0      3.02      0.00
    5   13    0      6.18      0.00
    6   13    0     -2.44      0.00
    7   13    0     -0.96      0.00
    8   13    0      4.12      0.00
    9   13    0     -1.15      0.00
   10   13    0      1.94      0.00
   11   13    0     -2.16      0.00
   12   13    0     -5.50      0.00
   13   13    0      0.21      0.00
   14   13    0     -0.46      0.00
   -7   14    0      6.82      0.00
   -6   14    0      1.08      0.00
   -5   14    0     -1.56      0.00
   -4   14    0     -0.31      0.00
   -3   14    0     -7.08      0.00
   -2   14    0     -1.58      0.00
   -1   14    0     -0.61      0.00
    0   14    0      3.58      0.00
    1   14    0     -4.13      0.00
    2   14    0     -2.25      0.00
    3   14    0     -0.47      0.00
    4   14    0      4.44      0.00
    5   14    0     -2.91      0.00
    6   14    0     -5.80      0.00
    7   14    0      2.88      0.00
    8   14    0     -0.32      0.00
    9   14    0     -2.76      0.00
   10   14    0      2.92      0.00
   11   14    0      0.06      0.00
   12   14    0      3.50      0.00
   13   14    0      2.03      0.00
   14   14    0     -2.35      0.00
   -6   15    0     -3.82      0.00
   -5   15    0      3.95      0.00
   -4   15    0      1.71      0.00
   -3   15    0     -1.32      0.00
   -1   15    0      2.39      0.00
    0   15    0     -1.79      0.00
    1   15    0     -0.13      0.00
    2   15    0      2.15      0.00
    3   15    0     -0.55      0.00
    4   15    0     -1.33      0.00
    5   15    0      2.85      0.00
    6   15    0     -0.58      0.00
    7   15    0      4.38      0.00
    8   15    0      0.78      0.00
    9   15    0     -2.20      0.00
   10   15    0     -0.74      0.00
   11   15    0     -2.73      0.00
   12   15    0     -2.47      0.00
   13   15    0      0.81      0.00
   -5   16    0     -3.61      0.00
   -4   16    0      0.64      0.00
   -3   16    0     -4.71      0.00
   -2   16    0      2.81      0.00
   -1   16    0     -0.09      0.00
    0   16    0     -1.68      0.00
    1   16    0      1.77      0.00
    2   16    0      0.31      0.00
    3   16    0     -1.87      0.00
    4   16    0      1.90      0.00
    5   16    0     -1.23      0.00
    6   16    0     -2.19      0.00
    7   16    0      2.10      0.00
    8   16    0      0.58      0.00
    9   16    0     -3.18      0.00
   10   16    0      4.55      0.00
   11   16    0      0.75      0.00
   12   16    0     -1.54      0.00
   -5   17    0     -0.29      0.00
   -4   17    0      8.60      0.00
   -3   17    0     -3.30      0.00
   -2   17    0      1.44      0.00
    0   17    0     -3.92      0.00
    1   17    0      5.22      0.00
    2   17    0      1.78      0.00
    3   17    0      1.65      0.00
    4   17    0      0.62      0.00
    5   17    0     -0.87      0.00
    6   17    0      0.67      0.00
    7   17    0      2.84      0.00
    8   17    0      0.86      0.00
    9   17    0     -3.82      0.00
   10   17    0     -4.69      0.00
   11   17    0      3.76      0.00
   -3   18    0     -5.31      0.00
   -2   18    0     10.40      0.00
    0   18    0     -2.12      0.00
    1   18    0      1.48      0.00
    2   18    0     -6.06      0.00
    3   18    0      1.44      0.00
    4   18    0     -2.19      0.00
    5   18    0      1.85      0.00
    6   18    0      1.73      0.00
    7   18    0     -3.50      0.00
    8   18    0     -0.13      0.00
    9   18    0     -6.18      0.00
   10   18    0      8.55      0.00
    1   19    0      1.96      0.00
    2   19    0     -1.34      0.00
    3   19    0      2.19      0.00
    4   19    0     -1.54      0.00
    5   19    0      4.00      0.00
    6   19    0     -0.36      0.00
    7   19    0      1.39      0.00
    8   19    0      4.90      0.00
   -7  -19    1     -4.68      0.00
   -6  -19    1     -3.24      0.00
   -5  -19    1      3.00      0.00
   -4  -19    1     -3.01      0.00
   -3  -19    1      1.74      0.00
   -2  -19    1     -3.31      0.00
   -1  -19    1      4.47      0.00
    1  -19    1     -7.37      0.00
   -9  -18    1     -1.94      0.00
   -8  -18    1      4.65      0.00
   -7  -18    1      1.45      0.00
   -6  -18    1     -1.73      0.00
   -5  -18    1      2.04      0.00
   -4  -18    1     -2.36      0.00
   -3  -18    1      0.94      0.00
   -2  -18    1      3.50      0.00
   -1  -18    1      5.08      0.00
    2  -18    1     -6.79      0.00
    3  -18    1     -1.42      0.00
  -11  -17    1      0.50      0.00
  -10  -17    1      5.84      0.00
   -9  -17    1      3.05      0.00
   -8  -17    1      3.57      0.00
   -7  -17    1     -3.87      0.00
   -6  -17    1      2.02      0.00
   -5  -17    1      2.21      0.00
   -4  -17    1      1.16      0.00
   -3  -17    1     -0.93      0.00
   -2  -17    1     -0.03      0.00
   -1  -17    1     -1.57      0.00
    0  -17    1     -3.82      0.00
    2  -17    1      3.83      0.00
    3  -17    1      2.29      0.00
    4  -17    1     -5.09      0.00
    5  -17    1      1.08      0.00
  -12  -16    1     -1.86      0.00
  -11  -16    1      2.24      0.00
  -10  -16    1     -2.58      0.00
   -9  -16    1     -4.52      0.00
   -8  -16    1      2.74      0.00
   -7  -16    1     -2.50      0.00
   -6  -16    1      1.01      0.00
   -5  -16    1      1.10      0.00
   -4  -16    1     -0.94      0.00
   -3  -16    1     -0.90      0.00
   -2  -16    1      0.63      0.00
   -1  -16    1     -0.23      0.00
    0  -16    1     -1.33      0.00
    1  -16    1      4.83      0.00
    2  -16    1     -0.89      0.00
    3  -16    1     -3.73      0.00
    4  -16    1      2.03      0.00
    5  -16    1      4.09      0.00
    6  -16    1    -10.28      0.00
    7  -16    1      6.43      0.00
  -13  -15    1      1.64      0.00
  -12  -15    1      0.29      0.00
  -11  -15    1     -0.60      0.00
  -10  -15    1      7.30      0.00
   -9  -15    1     -5.74      0.00
   -8  -15    1      1.64      0.00
   -7  -15    1     -3.55      0.00
   -6  -15    1     -2.84      0.00
   -5  -15    1     -1.82      0.00
   -4  -15    1      1.69      0.00
   -3  -15    1     -2.20      0.00
   -2  -15    1      0.82      0.00
   -1  -15    1     -1.47      0.00
    0  -15    1      0.19      0.00
    1  -15    1     -1.60      0.00
    3  -15    1      1.57      0.00
    4  -15    1      3.75      0.00
    5  -15    1     -4.25      0.00
    6  -15    1     -1.59      0.00
    7  -15    1      6.81      0.00
  -13  -14    1     -0.67      0.00
  -12  -14    1     -4.12      0.00
  -11  -14    1     -1.00      0.00
  -10  -14    1      0.47      0.00
   -9  -14    1     -5.02      0.00
   -8  -14    1      3.29      0.00
   -7  -14    1     -2.81      0.00
   -6  -14    1      2.04      0.00
   -5  -14    1      5.18      0.00
   -4  -14    1     -2.78      0.00
   -3  -14    1     -2.18      0.00
   -2  -14    1      2.61      0.00
   -1  -14    1      4.87      0.00
    0  -14    1     -1.89      0.00
    1  -14    1      0.75      0.00
    2  -14    1      1.11      0.00
    3  -14    1      1.47      0.00
    4  -14    1      4.72      0.00
    5  -14    1     -3.03      0.00
    6  -14    1     -2.61      0.00
    7  -14    1      2.56      0.00
    8  -14    1     -5.80      0.00
  -14  -13    1      2.92      0.00
  -13  -13    1     -0.63      0.00
  -12  -13    1      3.38      0.00
  -11  -13    1      1.50      0.00
  -10  -13    1      2.22      0.00
   -9  -13    1     -4.77      0.00
   -8  -13    1      0.26      0.00
   -7  -13    1     -0.41      0.00
   -6  -13    1      0.13      0.00
   -5  -13    1     -1.43      0.00
   -4  -13    1     -1.90      0.00
   -3  -13    1     -1.97      0.00
   -2  -13    1      5.56      0.00
   -1  -13    1     -4.74      0.00
    0  -13    1     -3.87      0.00
    1  -13    1      2.07      0.00
    2  -13    1      3.42      0.00
    3  -13    1     -3.97      0.00
    4  -13    1     -3.14      0.00
    5  -13    1     -6.09      0.00
    6  -13    1      6.53      0.00
    7  -13    1     -1.33      0.00
    8  -13    1     -2.37      0.00
  -14  -12    1      2.67      0.00
  -13  -12    1      0.26      0.00
  -12  -12    1     -3.75      0.00
  -11  -12    1      2.35      0.00
  -10  -12    1     -0.73      0.00
   -9  -12    1     -1.26      0.00
   -8  -12    1      3.33      0.00
   -7  -12    1     -1.08      0.00
   -6  -12    1      1.49      0.00
   -5  -12    1     -1.46      0.00
   -4  -12    1     -1.93      0.00
   -3  -12    1      3.55      0.00
   -2  -12    1      2.09      0.00
   -1  -12    1     -5.72      0.00
    0  -12    1      1.18      0.00
    1  -12    1      3.52      0.00
    2  -12    1     -6.71      0.00
    3  -12    1     -0.26      0.00
    4  -12    1      6.71      0.00
    5  -12    1     -6.66      0.00
    6  -12    1      4.28      0.00
    7  -12    1      1.92      0.00
    8  -12    1      2.12      0.00
    9  -12    1      0.23      0.00
   11  -12    1     -3.92      0.00
  -15  -11    1      2.91      0.00
  -14  -11    1      0.48      0.00
  -13  -11    1     -2.58      0.00
  -12  -11    1     -0.87      0.00
  -11  -11    1     -1.60      0.00
  -10  -11    1      2.75      0.00
   -9  -11    1     -1.13      0.00
   -8  -11    1      0.53      0.00
   -7  -11    1     -0.81      0.00
   -6  -11    1      2.69      0.00
   -5  -11    1      2.81      0.00
   -4  -11    1      0.40      0.00
   -3  -11    1      3.78      0.00
   -2  -11    1     -5.41      0.00
   -1  -11    1      1.55      0.00
    0  -11    1      9.25      0.00
    1  -11    1     -2.91      0.00
    2  -11    1      4.43      0.00
    3  -11    1     -0.33      0.00
    4  -11    1     -2.64      0.00
    5  -11    1     -1.54      0.00
    6  -11    1      5.99      0.00
    7  -11    1     -6.24      0.00
    8  -11    1      0.26      0.00
    9  -11    1      2.07      0.00
   11  -11    1      2.26      0.00
   12  -11    1      4.72      0.00
  -15  -10    1      3.05      0.00
  -14  -10    1      0.29      0.00
  -13  -10    1     -0.62      0.00
  -12  -10    1      1.85      0.00
  -11  -10    1      5.95      0.00
  -10  -10    1     -2.32      0.00
   -9  -10    1     -3.13      0.00
   -8  -10    1     -0.49      0.00
   -7  -10    1      2.54      0.00
   -6  -10    1     -3.16      0.00
   -5  -10    1     -4.00      0.00
   -4  -10    1      1.84      0.00
   -3  -10    1     -3.78      0.00
   -2  -10    1     -3.00      0.00
   -1  -10    1      4.43      0.00
    0  -10    1     -7.27      0.00
    1  -10    1      0.31      0.00
    2  -10    1      2.64      0.00
    3  -10    1     -1.65      0.00
    4  -10    1      1.84      0.00
    5  -10    1      0.98      0.00
    6  -10    1     -0.19      0.00
    7  -10    1     -3.56      0.00
    8  -10    1     -0.84      0.00
    9  -10    1     -2.39      0.00
   10  -10    1     -1.46      0.00
   11  -10    1      0.45      0.00
   12  -10    1     -2.78      0.00
  -16   -9    1      5.27      0.00
  -15   -9    1      3.49      0.00
  -14   -9    1    -12.48      0.00
  -13   -9    1     -1.83      0.00
  -12   -9    1      3.09      0.00
  -11   -9    1     -0.22      0.00
  -10   -9    1      0.59      0.00
   -9   -9    1     -1.17      0.00
   -8   -9    1      3.81      0.00
   -7   -9    1      6.12      0.00
   -6   -9    1     -1.17      0.00
   -5   -9    1     -3.66      0.00
   -4   -9    1     -2.02      0.00
   -3   -9    1      7.90      0.00
   -2   -9    1     -4.61      0.00
   -1   -9    1      1.36      0.00
    0   -9    1     -5.76      0.00
    1   -9    1     -0.93      0.00
    2   -9    1     -1.38      0.00
    3   -9    1     -0.17      0.00
    4   -9    1      4.16      0.00
    5   -9    1      1.00      0.00
    6   -9    1      2.68      0.00
    7   -9    1      2.82      0.00
    8   -9    1      4.47      0.00
    9   -9    1      1.21      0.00
   10   -9    1     -3.89      0.00
   11   -9    1      3.82      0.00
   12   -9    1      1.64      0.00
   13   -9    1     -1.14      0.00
  -15   -8    1     -4.18      0.00
  -14   -8    1      0.56      0.00
  -13   -8    1      9.00      0.00
  -12   -8    1     -0.48      0.00
  -11   -8    1     -7.96      0.00
  -10   -8    1     -4.83      0.00
   -9   -8    1      8.16      0.00
   -8   -8    1     -3.43      0.00
   -7   -8    1      2.38      0.00
   -6   -8    1     -9.87      0.00
   -5   -8    1      3.41      0.00
   -4   -8    1      6.88      0.00
   -3   -8    1     -3.98      0.00
   -2   -8    1     -2.15      0.00
   -1   -8    1     10.35      0.00
    0   -8    1     -1.63      0.00
    1   -8    1      3.71      0.00
    2   -8    1     -2.43      0.00
    3   -8    1     -5.68      0.00
    4   -8    1      0.07      0.00
    5   -8    1     -1.58      0.00
    6   -8    1     -0.50      0.00
    7   -8    1     -4.20      0.00
    8   -8    1      4.74      0.00
    9   -8    1     -2.97      0.00
   10   -8    1     -2.39      0.00
   11   -8    1      7.17      0.00
   12   -8    1      0.21      0.00
   13   -8    1     -1.64      0.00
  -15   -7    1     -2.17      0.00
  -14   -7    1     -0.48      0.00
  -13   -7    1      4.08      0.00
  -12   -7    1     -7.42      0.00
  -11   -7    1      4.87      0.00
  -10   -7    1      5.12      0.00
   -9   -7    1      1.33      0.00
   -8   -7    1     -3.58      0.00
   -7   -7    1     -3.00      0.00
   -6   -7    1     -6.41      0.00
   -5   -7    1     16.77      0.00
   -4   -7    1     -7.30      0.00
   -3   -7    1     -3.87      0.00
   -2   -7    1     -8.56      0.00
   -1   -7    1     12.18      0.00
    0   -7    1     -8.51      0.00
    1   -7    1      0.32      0.00
    2   -7    1      5.99      0.00
    3   -7    1      2.69      0.00
    4   -7    1     -1.58      0.00
    5   -7    1      2.35      0.00
    6   -7    1     -1.95      0.00
    7   -7    1      1.12      0.00
    8   -7    1     -1.51      0.00
    9   -7    1     -2.90      0.00
   10   -7    1      2.22      0.00
   11   -7    1      4.61      0.00
   12   -7    1     -5.60      0.00
   13   -7    1     -5.83      0.00
   14   -7    1     -1.40      0.00
  -15   -6    1     -4.02      0.00
  -14   -6    1      6.68      0.00
  -13   -6    1     -0.83      0.00
  -12   -6    1     -3.65      0.00
  -11   -6    1      8.28      0.00
  -10   -6    1     -2.84      0.00
   -9   -6    1      0.93      0.00
   -8   -6    1     -2.53      0.00
   -7   -6    1      6.49      0.00
   -6   -6    1      6.32      0.00
   -5   -6    1     -0.91      0.00
   -4   -6    1    -12.70      0.00
   -3   -6    1      9.62      0.00
   -2   -6    1      9.01      0.00
   -1   -6    1     -0.41      0.00
    0   -6    1    -20.45      0.00
    1   -6    1     12.14      0.00
    2   -6    1      0.93      0.00
    3   -6    1    -11.97      0.00
    4   -6    1      3.66      0.00
    5   -6    1      5.77      0.00
    6   -6    1     -3.08      0.00
    7   -6    1      3.77      0.00
    8   -6    1     -3.09      0.00
    9   -6    1      2.52      0.00
   10   -6    1      0.07      0.00
   11   -6    1      1.27      0.00
   12   -6    1     -1.60      0.00
   13   -6    1      7.48      0.00
   14   -6    1      5.80      0.00
  -14   -5    1     -4.30      0.00
  -13   -5    1     -7.07      0.00
  -12   -5    1      2.92      0.00
  -11   -5    1      2.71      0.00
  -10   -5    1     -4.97      0.00
   -9   -5    1      0.70      0.00
   -8   -5    1     -3.70      0.00
   -7   -5    1      3.53      0.00
   -6   -5    1      2.30      0.00
   -5   -5    1     -4.38      0.00
   -4   -5    1    -10.69      0.00
   -3   -5    1     21.38      0.00
   -2   -5    1     -5.93      0.00
   -1   -5    1     -4.47      0.00
    0   -5    1     -7.56      0.00
    1   -5    1      5.56      0.00
    2   -5    1    -14.32      0.00
    3   -5    1     -4.06      0.00
    4   -5    1      1.04      0.00
    5   -5    1     -2.69      0.00
    6   -5    1     -9.15      0.00
    7   -5    1      3.02      0.00
    8   -5    1     -2.24      0.00
    9   -5    1      4.32      0.00
   10   -5    1     -1.71      0.00
   11   -5    1     -0.63      0.00
   12   -5    1      0.38      0.00
   13   -5    1     -0.07      0.00
   14   -5    1     -2.71      0.00
   15   -5    1      2.10      0.00
  -14   -4    1      7.28      0.00
  -13   -4    1     -1.29      0.00
  -12   -4    1      5.89      0.00
  -11   -4    1     -3.89      0.00
  -10   -4    1     -1.97      0.00
   -9   -4    1      1.71      0.00
   -8   -4    1     -0.62      0.00
   -7   -4    1      4.36      0.00
   -6   -4    1    -11.63      0.00
   -5   -4    1     -7.54      0.00
   -4   -4    1     20.91      0.00
   -3   -4    1     -1.30      0.00
   -2   -4    1    -14.53      0.00
   -1   -4    1      6.19      0.00
    0   -4    1      4.43      0.00
    1   -4    1     30.74      0.00
    2   -4    1    -13.02      0.00
    3   -4    1     11.57      0.00
    4   -4    1      5.40      0.00
    5   -4    1     -0.83      0.00
    6   -4    1     -1.11      0.00
    7   -4    1      6.08      0.00
    8   -4    1     -6.40      0.00
    9   -4    1      5.49      0.00
   10   -4    1     -7.21      0.00
   11   -4    1      3.78      0.00
   12   -4    1     -0.01      0.00
   13   -4    1     -0.42      0.00
   14   -4    1     -4.44      0.00
   15   -4    1      4.54      0.00
  -14   -3    1     -3.51      0.00
  -13   -3    1     -0.36      0.00
  -12   -3    1      4.85      0.00
  -11   -3    1     -2.18      0.00
  -10   -3    1      0.01      0.00
   -9   -3    1      0.21      0.00
   -8   -3    1      1.13      0.00
   -7   -3    1      6.04      0.00
   -6   -3    1    -10.05      0.00
   -5   -3    1     -4.53      0.00
   -4   -3    1      3.58      0.00
   -3   -3    1      7.69      0.00
   -2   -3    1      5.73      0.00
   -1   -3    1    -76.04      0.00
    0   -3    1     36.72      0.00
    1   -3    1     11.06      0.00
    2   -3    1    -16.90      0.00
    3   -3    1     15.03      0.00
    4   -3    1    -13.32      0.00
    5   -3    1      3.63      0.00
    6   -3    1      4.42      0.00
    7   -3    1      1.19      0.00
    8   -3    1      0.51      0.00
    9   -3    1      2.00      0.00
   10   -3    1     -0.38      0.00
   11   -3    1     -0.24      0.00
   12   -3    1      2.87      0.00
   13   -3    1     -2.97      0.00
   14   -3    1      2.03      0.00
   15   -3    1     -0.59      0.00
  -15   -2    1      1.41      0.00
  -14   -2    1      1.71      0.00
  -13   -2    1     -2.59      0.00
  -12   -2    1     -1.09      0.00
  -11   -2    1     -4.90      0.00
  -10   -2    1     -2.19      0.00
   -9   -2    1      3.98      0.00
   -8   -2    1      6.34      0.00
   -7   -2    1    -10.55      0.00
   -6   -2    1      7.68      0.00
   -5   -2    1     10.76      0.00
   -4   -2    1     10.50      0.00
   -3   -2    1     -8.79      0.00
   -1   -2    1     48.33      0.00
    0   -2    1     60.71      0.00
    1   -2    1    -56.82      0.00
    2   -2    1    -62.90      0.00
    3   -2    1     26.34      0.00
    4   -2    1     -2.94      0.00
    5   -2    1     -4.41      0.00
    6   -2    1     -5.19      0.00
    7   -2    1    -10.25      0.00
    8   -2    1     -0.47      0.00
    9   -2    1      4.50      0.00
   10   -2    1     -4.79      0.00
   11   -2    1      2.73      0.00
   12   -2    1     -1.95      0.00
   13   -2    1     -1.67      0.00
   14   -2    1      0.33      0.00
   15   -2    1      1.87      0.00
   16   -2    1      6.29      0.00
  -16   -1    1     -1.39      0.00
  -15   -1    1      1.19      0.00
  -14   -1    1     -1.32      0.00
  -13   -1    1      4.14      0.00
  -12   -1    1      7.10      0.00
  -11   -1    1     -5.28      0.00
  -10   -1    1      4.01      0.00
   -9   -1    1      1.61      0.00
   -8   -1    1     -9.04      0.00
   -7   -1    1     -6.65      0.00
   -6   -1    1      9.50      0.00
   -5   -1    1    -11.40      0.00
   -4   -1    1      7.80      0.00
    1   -1    1   -108.97      0.00
    2   -1    1     72.98      0.00
    3   -1    1     36.51      0.00
    4   -1    1    -23.25      0.00
    5   -1    1      4.10      0.00
    6   -1    1      0.22      0.00
    7   -1    1      3.13      0.00
    8   -1    1      7.67      0.00
    9   -1    1     -5.05      0.00
   10   -1    1     -4.92      0.00
   11   -1    1      0.53      0.00
   12   -1    1      0.96      0.00
   13   -1    1     -4.42      0.00
   14   -1    1      2.65      0.00
   15   -1    1      1.32      0.00
   16   -1    1     -0.63      0.00
  -16    0    1      3.01      0.00
  -15    0    1      0.81      0.00
  -14    0    1      2.39      0.00
  -13    0    1      0.76      0.00
  -12    0    1     -5.07      0.00
  -11    0    1     -4.22      0.00
  -10    0    1      6.88      0.00
   -9    0    1     -3.06      0.00
   -8    0    1      0.63      0.00
   -7    0    1      8.83      0.00
   -6    0    1      5.49      0.00
   -5    0    1    -20.54      0.00
   -4    0    1     -0.72      0.00
   -3    0    1      0.14      0.00
   -1    0    1     50.65      0.00
    2    0    1    100.93      0.00
    3    0    1    -10.11      0.00
    4    0    1    -13.22      0.00
    6    0    1     -3.50      0.00
    7    0    1      7.19      0.00
    8    0    1      0.13      0.00
    9    0    1     -5.24      0.00
   10    0    1      3.22      0.00
   11    0    1      6.60      0.00
   12    0    1     -4.63      0.00
   13    0    1     -1.74      0.00
   14    0    1     -2.32      0.00
   15    0    1      2.03      0.00
   16    0    1     -0.11      0.00
  -16    1    1      2.72      0.00
  -15    1    1     -2.63      0.00
  -14    1    1      1.15      0.00
  -13    1    1     -5.47      0.00
  -12    1    1      1.53      0.00
  -11    1    1      0.00      0.00
  -10    1    1      0.62      0.00
   -9    1    1     -5.01      0.00
   -8    1    1      3.55      0.00
   -7    1    1      5.19      0.00
   -6    1    1     -5.01      0.00
   -5    1    1      5.22      0.00
   -4    1    1     11.11      0.00
   -3    1    1     -4.74      0.00
    1    1    1     -5.27      0.00
    2    1    1     52.80      0.00
    5    1    1      6.05      0.00
    6    1    1      1.29      0.00
    7    1    1      5.81      0.00
    8    1    1    -11.99      0.00
    9    1    1     -2.01      0.00
   10    1    1      6.66      0.00
   11    1    1     -6.33      0.00
   12    1    1      0.36      0.00
   13    1    1      3.55      0.00
   14    1    1      8.48      0.00
   15    1    1     -2.95      0.00
  -15    2    1      1.77      0.00
  -14    2    1      3.16      0.00
  -13    2    1     -0.95      0.00
  -12    2    1      0.31      0.00
  -11    2    1      0.95      0.00
  -10    2    1     -0.05      0.00
   -9    2    1      2.55      0.00
   -8    2    1     -0.66      0.00
   -7    2    1     -3.73      0.00
   -6    2    1    -11.29      0.00
   -5    2    1     -1.65      0.00
   -4    2    1      2.22      0.00
   -3    2    1      2.34      0.00
   -2    2    1    -10.48      0.00
   -1    2    1     19.68      0.00
    0    2    1    -45.01      0.00
    5    2    1      4.04      0.00
    6    2    1     10.32      0.00
    7    2    1     -4.45      0.00
    8    2    1     -1.83      0.00
    9    2    1      4.09      0.00
   10    2    1      2.19      0.00
   11    2    1     -5.37      0.00
   12    2    1      2.02      0.00
   13    2    1     -0.55      0.00
   14    2    1     -2.61      0.00
   15    2    1      1.39      0.00
  -15    3    1      1.37      0.00
  -14    3    1     -0.98      0.00
  -13    3    1     -1.77      0.00
  -12    3    1      1.26      0.00
  -11    3    1     -0.40      0.00
  -10    3    1      2.62      0.00
   -9    3    1     -0.47      0.00
   -8    3    1     -1.05      0.00
   -7    3    1     -0.07      0.00
   -6    3    1      2.91      0.00
   -5    3    1     12.42      0.00
   -4    3    1    -17.78      0.00
   -1    3    1     -2.62      0.00
    0    3    1     -9.79      0.00
    1    3    1    -26.06      0.00
    2    3    1     -5.83      0.00
    3    3    1     13.67      0.00
    4    3    1     -1.51      0.00
    5    3    1      1.72      0.00
    6    3    1    -10.22      0.00
    7    3    1     -1.39      0.00
    8    3    1      3.32      0.00
    9    3    1      3.16      0.00
   10    3    1     -0.53      0.00
   11    3    1     -1.72      0.00
   12    3    1      6.13      0.00
   13    3    1     -1.66      0.00
   14    3    1     -0.20      0.00
   15    3    1     -7.81      0.00
   16    3    1      0.09      0.00
  -15    4    1      4.47      0.00
  -14    4    1     -2.47      0.00
  -13    4    1      1.13      0.00
  -12    4    1      1.65      0.00
  -11    4    1      8.73      0.00
  -10    4    1     -5.99      0.00
   -9    4    1      0.23      0.00
   -8    4    1     -0.79      0.00
   -7    4    1      2.59      0.00
   -6    4    1     -0.20      0.00
   -5    4    1      1.41      0.00
   -4    4    1     -1.27      0.00
   -3    4    1     16.50      0.00
   -2    4    1     10.41      0.00
   -1    4    1     -3.68      0.00
    0    4    1     -1.70      0.00
    1    4    1     15.90      0.00
    2    4    1     -6.82      0.00
    3    4    1     -5.11      0.00
    4    4    1     10.15      0.00
    5    4    1     -4.63      0.00
    6    4    1     -3.96      0.00
    7    4    1      6.72      0.00
    8    4    1     -2.68      0.00
    9    4    1     -0.30      0.00
   10    4    1      0.83      0.00
   11    4    1     -2.21      0.00
   12    4    1      2.74      0.00
   13    4    1      0.52      0.00
   14    4    1      3.81      0.00
   15    4    1     -0.71      0.00
   16    4    1      6.72      0.00
  -14    5    1     -5.69      0.00
  -13    5    1      0.09      0.00
  -12    5    1      1.77      0.00
  -11    5    1     -3.48      0.00
  -10    5    1     -4.77      0.00
   -9    5    1      2.99      0.00
   -8    5    1     -1.29      0.00
   -7    5    1      0.16      0.00
   -6    5    1      1.01      0.00
   -5    5    1     -3.37      0.00
   -4    5    1     -3.86      0.00
   -3    5    1      5.09      0.00
   -2    5    1    -10.32      0.00
   -1    5    1    -19.36      0.00
    0    5    1     14.44      0.00
    2    5    1    -13.78      0.00
    3    5    1      9.41      0.00
    4    5    1      1.92      0.00
    5    5    1     -9.05      0.00
    6    5    1     -2.89      0.00
    7    5    1     14.00      0.00
    8    5    1     -5.43      0.00
    9    5    1     -0.72      0.00
   10    5    1     -3.30      0.00
   11    5    1     -0.30      0.00
   12    5    1      1.76      0.00
   13    5    1     -5.37      0.00
   14    5    1     -7.06      0.00
   15    5    1     -1.41      0.00
   16    5    1      0.84      0.00
  -14    6    1     -4.65      0.00
  -13    6    1      4.10      0.00
  -12    6    1      0.40      0.00
  -11    6    1      0.39      0.00
  -10    6    1      2.11      0.00
   -9    6    1      4.53      0.00
   -8    6    1     -4.72      0.00
   -7    6    1      1.29      0.00
   -6    6    1     -1.08      0.00
   -5    6    1      2.31      0.00
   -4    6    1     11.29      0.00
   -3    6    1     -5.91      0.00
   -2    6    1     -9.28      0.00
   -1    6    1      0.52      0.00
    0    6    1      9.36      0.00
    1    6    1    -12.36      0.00
    2    6    1      3.60      0.00
    3    6    1      9.03      0.00
    4    6    1     -4.94      0.00
    5    6    1    -10.21      0.00
    6    6    1     10.80      0.00
    7    6    1      3.37      0.00
    8    6    1     -7.13      0.00
    9    6    1      5.68      0.00
   10    6    1     -4.01      0.00
   11    6    1      5.36      0.00
   12    6    1      1.89      0.00
   13    6    1     -2.83      0.00
   14    6    1      2.34      0.00
   15    6    1      1.59      0.00
   16    6    1      4.94      0.00
   17    6    1     -1.47      0.00
  -14    7    1      2.09      0.00
  -13    7    1      2.48      0.00
  -12    7    1     -4.87      0.00
  -11    7    1      0.51      0.00
  -10    7    1      0.47      0.00
   -9    7    1     -1.26      0.00
   -8    7    1     -0.04      0.00
   -7    7    1      6.46      0.00
   -6    7    1     -1.91      0.00
   -5    7    1      1.24      0.00
   -4    7    1     -2.53      0.00
   -3    7    1     -4.34      0.00
   -1    7    1      7.51      0.00
    0    7    1     -2.73      0.00
    1    7    1     -4.33      0.00
    3    7    1      1.96      0.00
    4    7    1    -13.63      0.00
    5    7    1     10.29      0.00
    6    7    1      3.18      0.00
    7    7    1     -7.87      0.00
    8    7    1      0.69      0.00
    9    7    1     -2.82      0.00
   10    7    1      4.64      0.00
   11    7    1      8.13      0.00
   12    7    1     -4.63      0.00
   13    7    1      0.99      0.00
   14    7    1      3.29      0.00
   15    7    1      2.66      0.00
   16    7    1     -4.52      0.00
  -13    8    1     -4.40      0.00
  -12    8    1      0.38      0.00
  -11    8    1      7.93      0.00
  -10    8    1     -3.36      0.00
   -9    8    1     -1.81      0.00
   -8    8    1      2.06      0.00
   -7    8    1     -1.81      0.00
   -6    8    1     -2.86      0.00
   -5    8    1      0.41      0.00
   -4    8    1     -1.30      0.00
   -3    8    1     -6.32      0.00
   -2    8    1      1.05      0.00
   -1    8    1     -4.59      0.00
    0    8    1      1.43      0.00
    2    8    1      1.56      0.00
    3    8    1     -4.85      0.00
    4    8    1     -0.65      0.00
    5    8    1      3.11      0.00
    6    8    1     -8.98      0.00
    7    8    1     -4.09      0.00
    8    8    1     -0.72      0.00
    9    8    1      3.55      0.00
   10    8    1     -4.74      0.00
   11    8    1     -3.48      0.00
   12    8    1     -7.14      0.00
   13    8    1      1.50      0.00
   14    8    1      2.99      0.00
   15    8    1     -2.37      0.00
   16    8    1      0.96      0.00
  -12    9    1      4.59      0.00
  -11    9    1      0.16      0.00
  -10    9    1     -5.90      0.00
   -9    9    1      3.38      0.00
   -8    9    1      1.91      0.00
   -7    9    1      0.59      0.00
   -6    9    1      0.77      0.00
   -5    9    1     -1.71      0.00
   -4    9    1      2.97      0.00
   -3    9    1     -0.36      0.00
   -2    9    1      7.54      0.00
   -1    9    1     -6.39      0.00
    2    9    1      0.72      0.00
    3    9    1      4.59      0.00
    4    9    1     -3.56      0.00
    5    9    1      1.69      0.00
    6    9    1      1.18      0.00
    7    9    1      6.99      0.00
    8    9    1      5.76      0.00
    9    9    1     -7.68      0.00
   10    9    1      7.26      0.00
   11    9    1     -0.26      0.00
   12    9    1      2.08      0.00
   13    9    1      4.43      0.00
   14    9    1     -5.51      0.00
   15    9    1      2.01      0.00
   16    9    1      2.35      0.00
  -12   10    1     -8.86      0.00
  -11   10    1      3.32      0.00
  -10   10    1     -0.28      0.00
   -9   10    1     -3.23      0.00
   -7   10    1     -0.83      0.00
   -6   10    1     -0.15      0.00
   -5   10    1      1.33      0.00
   -4   10    1      0.39      0.00
   -3   10    1     -1.18      0.00
    1   10    1      4.14      0.00
    2   10    1     -2.02      0.00
    3   10    1     -3.52      0.00
    4   10    1      1.10      0.00
    5   10    1     -0.10      0.00
    6   10    1     -2.12      0.00
    7   10    1      0.66      0.00
    8   10    1     -1.60      0.00
    9   10    1     -1.43      0.00
   10   10    1     -0.27      0.00
   11   10    1     -0.99      0.00
   12   10    1      0.16      0.00
   13   10    1     -1.80      0.00
   14   10    1     -0.87      0.00
   15   10    1      4.46      0.00
   16   10    1     -2.89      0.00
  -11   11    1      0.60      0.00
  -10   11    1     -4.74      0.00
   -9   11    1      5.03      0.00
   -7   11    1     -5.11      0.00
   -6   11    1      1.84      0.00
   -5   11    1     -2.35      0.00
   -4   11    1      2.64      0.00
   -3   11    1      3.48      0.00
   -2   11    1      3.05      0.00
   -1   11    1     -6.69      0.00
    0   11    1      9.04      0.00
    1   11    1      6.93      0.00
    2   11    1     -3.40      0.00
    3   11    1     -4.52      0.00
    4   11    1      3.04      0.00
    5   11    1      9.18      0.00
    6   11    1     -3.84      0.00
    7   11    1      0.16      0.00
    8   11    1     -1.22      0.00
    9   11    1     -3.24      0.00
   10   11    1      4.75      0.00
   11   11    1     -3.85      0.00
   12   11    1      1.82      0.00
   13   11    1      2.48      0.00
   14   11    1      1.92      0.00
   15   11    1      2.34      0.00
  -10   12    1     -5.20      0.00
   -9   12    1     -1.64      0.00
   -6   12    1     -0.69      0.00
   -5   12    1     -9.34      0.00
   -4   12    1      4.89      0.00
   -3   12    1     -2.58      0.00
   -2   12    1     -4.84      0.00
   -1   12    1      0.87      0.00
    0   12    1      2.18      0.00
    1   12    1      2.14      0.00
    2   12    1     -6.36      0.00
    3   12    1      6.43      0.00
    4   12    1      4.31      0.00
    5   12    1     -2.98      0.00
    6   12    1     -2.49      0.00
    7   12    1      2.99      0.00
    8   12    1      2.15      0.00
    9   12    1      0.12      0.00
   10   12    1      0.27      0.00
   11   12    1     -1.40      0.00
   12   12    1     -3.10      0.00
   13   12    1     -1.72      0.00
   14   12    1     -2.70      0.00
   15   12    1     -1.37      0.00
  -10   13    1      0.19      0.00
   -9   13    1      2.00      0.00
   -6   13    1      2.47      0.00
   -5   13    1      1.86      0.00
   -4   13    1      3.73      0.00
   -3   13    1    -11.26      0.00
   -2   13    1     -0.38      0.00
   -1   13    1      0.64      0.00
    0   13    1      3.04      0.00
    1   13    1     -7.44      0.00
    2   13    1     -1.28      0.00
    3   13    1      2.86      0.00
    4   13    1     -2.49      0.00
    5   13    1     -1.98      0.00
    6   13    1     -2.67      0.00
    7   13    1      3.26      0.00
    8   13    1     -4.73      0.00
    9   13    1     -1.95      0.00
   10   13    1     -1.21      0.00
   11   13    1      0.25      0.00
   12   13    1      3.89      0.00
   13   13    1      3.58      0.00
   14   13    1      1.17      0.00
   -9   14    1     -0.70      0.00
   -8   14    1      2.93      0.00
   -5   14    1     -2.21      0.00
   -4   14    1      3.05      0.00
   -3   14    1      2.72      0.00
   -2   14    1      3.66      0.00
   -1   14    1      1.72      0.00
    0   14    1     -3.33      0.00
    1   14    1      2.73      0.00
    2   14    1      3.85      0.00
    3   14    1     -1.66      0.00
    4   14    1     -3.21      0.00
    5   14    1      6.26      0.00
    6   14    1      0.48      0.00
    7   14    1      3.32      0.00
    8   14    1     -1.66      0.00
    9   14    1      0.52      0.00
   10   14    1      0.69      0.00
   11   14    1     -2.00      0.00
   12   14    1     -4.03      0.00
   13   14    1     -1.18      0.00
   14   14    1      0.57      0.00
   -8   15    1      1.78      0.00
   -5   15    1     -1.52      0.00
   -4   15    1      3.23      0.00
   -3   15    1     -6.64      0.00
   -1   15    1     -2.24      0.00
    0   15    1     -1.44      0.00
    1   15    1      1.49      0.00
    2   15    1     -0.96      0.00
    3   15    1      1.61      0.00
    4   15    1      2.41      0.00
    5   15    1     -0.60      0.00
    6   15    1     -4.27      0.00
    7   15    1      3.38      0.00
    8   15    1     -4.37      0.00
    9   15    1      2.16      0.00
   10   15    1      1.07      0.00
   11   15    1      0.61      0.00
   12   15    1      1.82      0.00
   13   15    1      0.64      0.00
   -4   16    1      0.73      0.00
   -3   16    1      0.81      0.00
   -2   16    1      5.82      0.00
   -1   16    1     -2.70      0.00
    0   16    1     -1.10      0.00
    1   16    1      1.07      0.00
    2   16    1     -0.48      0.00
    3   16    1      0.69      0.00
    4   16    1     -1.58      0.00
    5   16    1      3.08      0.00
    6   16    1      0.67      0.00
    7   16    1      0.55      0.00
    8   16    1     -1.66      0.00
    9   16    1     -0.11      0.00
   10   16    1     -0.24      0.00
   11   16    1     -1.97      0.00
   12   16    1     -1.96      0.00
   -4   17    1     -4.88      0.00
   -3   17    1     -5.08      0.00
   -2   17    1      3.31      0.00
    0   17    1      3.89      0.00
    1   17    1      1.20      0.00
    2   17    1     -2.53      0.00
    3   17    1     -1.03      0.00
    4   17    1     -1.91      0.00
    5   17    1      0.34      0.00
    6   17    1     -1.33      0.00
    7   17    1     -2.88      0.00
    8   17    1      1.54      0.00
    9   17    1     -4.06      0.00
   10   17    1      8.49      0.00
   11   17    1     -4.28      0.00
   -3   18    1      7.51      0.00
   -2   18    1     -1.18      0.00
    0   18    1      1.13      0.00
    1   18    1      0.38      0.00
    2   18    1      3.10      0.00
    3   18    1     -1.19      0.00
    4   18    1      0.76      0.00
    5   18    1      2.16      0.00
    6   18    1     -2.51      0.00
    7   18    1      3.76      0.00
    8   18    1      4.44      0.00
    9   18    1      1.28      0.00
   10   18    1      1.46      0.00
    1   19    1      0.64      0.00
    2   19    1     -1.62      0.00
    3   19    1      0.70      0.00
    4   19    1     -0.89      0.00
    5   19    1     -0.28      0.00
    6   19    1     -2.15      0.00
    7   19    1      1.00      0.00
    8   19    1     -2.30      0.00
   -6  -19    2      4.77      0.00
   -5  -19    2      3.59      0.00
   -4  -19    2     -5.37      0.00
   -3  -19    2      2.41      0.00
   -2  -19    2     -0.02      0.00
   -1  -19    2      0.15      0.00
    1  -19    2     12.17      0.00
   -9  -18    2      4.89      0.00
   -8  -18    2     -1.12      0.00
   -7  -18    2     -5.25      0.00
   -6  -18    2      1.86      0.00
   -5  -18    2     -0.26      0.00
   -4  -18    2     -2.50      0.00
   -3  -18    2      3.78      0.00
   -2  -18    2     -3.59      0.00
   -1  -18    2      0.68      0.00
    2  -18    2      2.06      0.00
    3  -18    2      4.07      0.00
  -10  -17    2    -11.47      0.00
   -9  -17    2     -5.57      0.00
   -8  -17    2     -1.78      0.00
   -7  -17    2     -0.87      0.00
   -6  -17    2     -0.26      0.00
   -5  -17    2     -3.18      0.00
   -4  -17    2     -4.25      0.00
   -3  -17    2      1.33      0.00
   -2  -17    2     -1.19      0.00
   -1  -17    2      2.15      0.00
    0  -17    2     -1.72      0.00
    2  -17    2     -3.95      0.00
    3  -17    2     -2.01      0.00
    4  -17    2      5.31      0.00
    5  -17    2     -0.35      0.00
  -11  -16    2     -0.78      0.00
  -10  -16    2     -0.36      0.00
   -9  -16    2      0.94      0.00
   -8  -16    2      3.34      0.00
   -7  -16    2      0.46      0.00
   -6  -16    2      1.17      0.00
   -5  -16    2     -2.53      0.00
   -4  -16    2      0.96      0.00
   -3  -16    2      3.07      0.00
   -2  -16    2      2.11      0.00
   -1  -16    2      1.67      0.00
    0  -16    2     -2.86      0.00
    1  -16    2     -2.35      0.00
    2  -16    2     -4.31      0.00
    3  -16    2      7.28      0.00
    4  -16    2     -1.16      0.00
    5  -16    2     -6.28      0.00
    6  -16    2      9.23      0.00
    7  -16    2      3.63      0.00
  -12  -15    2      0.81      0.00
  -11  -15    2      1.61      0.00
  -10  -15    2     -3.65      0.00
   -9  -15    2     -2.30      0.00
   -8  -15    2      6.20      0.00
   -7  -15    2     -1.56      0.00
   -6  -15    2      1.92      0.00
   -5  -15    2      3.30      0.00
   -4  -15    2      0.20      0.00
   -3  -15    2      1.91      0.00
   -2  -15    2     -1.73      0.00
   -1  -15    2      1.06      0.00
    0  -15    2     -2.95      0.00
    1  -15    2      5.63      0.00
    2  -15    2      2.52      0.00
    3  -15    2     -0.40      0.00
    4  -15    2     -7.03      0.00
    5  -15    2     -0.35      0.00
    6  -15    2     -3.22      0.00
    7  -15    2     -0.27      0.00
    8  -15    2     -3.51      0.00
  -13  -14    2     -2.74      0.00
  -12  -14    2      5.06      0.00
  -11  -14    2     -2.39      0.00
  -10  -14    2      4.07      0.00
   -9  -14    2     -0.37      0.00
   -8  -14    2      2.64      0.00
   -7  -14    2      0.31      0.00
   -6  -14    2     -3.26      0.00
   -5  -14    2     -3.43      0.00
   -4  -14    2      0.78      0.00
   -3  -14    2     -1.88      0.00
   -2  -14    2      1.63      0.00
   -1  -14    2     -4.43      0.00
    0  -14    2     -0.65      0.00
    1  -14    2      0.79      0.00
    2  -14    2     -3.45      0.00
    3  -14    2      0.02      0.00
    4  -14    2     -2.26      0.00
    5  -14    2      1.67      0.00
    6  -14    2      6.90      0.00
    7  -14    2      0.54      0.00
    8  -14    2     -1.61      0.00
    9  -14    2      2.37      0.00
  -14  -13    2      1.11      0.00
  -13  -13    2     -2.51      0.00
  -12  -13    2     -0.39      0.00
  -11  -13    2     -2.91      0.00
  -10  -13    2      2.52      0.00
   -9  -13    2     -1.69      0.00
   -8  -13    2      2.92      0.00
   -7  -13    2     -1.41      0.00
   -6  -13    2     -0.69      0.00
   -5  -13    2      2.06      0.00
   -4  -13    2      0.93      0.00
   -3  -13    2     -1.52      0.00
   -2  -13    2     -1.57      0.00
   -1  -13    2     -1.20      0.00
    0  -13    2      5.09      0.00
    1  -13    2      0.09      0.00
    2  -13    2     -4.42      0.00
    3  -13    2      1.48      0.00
    4  -13    2      3.26      0.00
    5  -13    2      0.40      0.00
    6  -13    2      0.64      0.00
    7  -13    2     -2.13      0.00
    8  -13    2      1.72      0.00
    9  -13    2     -0.18      0.00
   10  -13    2      0.84      0.00
  -14  -12    2     -0.85      0.00
  -13  -12    2     -3.40      0.00
  -12  -12    2      4.40      0.00
  -11  -12    2     -1.39      0.00
  -10  -12    2      2.40      0.00
   -9  -12    2     -3.78      0.00
   -8  -12    2      1.16      0.00
   -7  -12    2     -1.82      0.00
   -6  -12    2     -3.18      0.00
   -5  -12    2      1.26      0.00
   -4  -12    2      0.46      0.00
   -3  -12    2     -2.01      0.00
   -2  -12    2      2.76      0.00
   -1  -12    2      4.51      0.00
    0  -12    2     -2.09      0.00
    1  -12    2     -3.88      0.00
    2  -12    2      8.75      0.00
    3  -12    2      2.73      0.00
    4  -12    2     -5.68      0.00
    5  -12    2      0.20      0.00
    6  -12    2      2.79      0.00
    7  -12    2     -7.72      0.00
    8  -12    2     -0.98      0.00
    9  -12    2     -1.95      0.00
   10  -12    2     -0.45      0.00
  -15  -11    2     -4.94      0.00
  -14  -11    2     -1.80      0.00
  -13  -11    2      4.86      0.00
  -12  -11    2     -0.53      0.00
  -11  -11    2      3.29      0.00
  -10  -11    2      1.90      0.00
   -9  -11    2     -2.69      0.00
   -8  -11    2      4.75      0.00
   -7  -11    2      0.85      0.00
   -6  -11    2     -3.15      0.00
   -5  -11    2     -2.76      0.00
   -4  -11    2     -1.16      0.00
   -3  -11    2     -3.93      0.00
   -2  -11    2      4.91      0.00
   -1  -11    2     -1.71      0.00
    0  -11    2     -9.66      0.00
    1  -11    2      2.71      0.00
    2  -11    2     -1.89      0.00
    3  -11    2     -1.09      0.00
    4  -11    2      2.93      0.00
    5  -11    2      0.26      0.00
    6  -11    2      1.24      0.00
    7  -11    2     -0.91      0.00
    8  -11    2      3.29      0.00
    9  -11    2     -0.95      0.00
   10  -11    2      1.22      0.00
   11  -11    2     -1.38      0.00
   12  -11    2     -7.22      0.00
  -15  -10    2      0.43      0.00
  -14  -10    2     -1.53      0.00
  -13  -10    2      4.98      0.00
  -12  -10    2     -4.68      0.00
  -11  -10    2     -4.60      0.00
  -10  -10    2     -0.32      0.00
   -9  -10    2     -0.09      0.00
   -8  -10    2      4.69      0.00
   -7  -10    2     -3.85      0.00
   -6  -10    2      0.06      0.00
   -5  -10    2      5.95      0.00
   -4  -10    2     -0.51      0.00
   -3  -10    2      6.57      0.00
   -2  -10    2      1.08      0.00
   -1  -10    2     -2.52      0.00
    0  -10    2      1.35      0.00
    1  -10    2      5.73      0.00
    2  -10    2     -0.40      0.00
    3  -10    2     -4.85      0.00
    4  -10    2     -1.30      0.00
    5  -10    2      1.99      0.00
    6  -10    2      0.39      0.00
    7  -10    2     -1.53      0.00
    8  -10    2      8.69      0.00
    9  -10    2     -0.27      0.00
   10  -10    2     -1.30      0.00
   11  -10    2      3.88      0.00
   12  -10    2     -4.00      0.00
  -14   -9    2      5.66      0.00
  -13   -9    2      4.87      0.00
  -12   -9    2     -5.73      0.00
  -11   -9    2      3.42      0.00
  -10   -9    2      2.88      0.00
   -9   -9    2      0.72      0.00
   -8   -9    2     -1.99      0.00
   -7   -9    2     -3.02      0.00
   -6   -9    2     -1.23      0.00
   -5   -9    2      4.89      0.00
   -4   -9    2     -0.64      0.00
   -3   -9    2     -5.51      0.00
   -2   -9    2     -2.48      0.00
   -1   -9    2      2.68      0.00
    0   -9    2      0.80      0.00
    1   -9    2      5.84      0.00
    2   -9    2     -0.92      0.00
    3   -9    2     -4.18      0.00
    4   -9    2      2.19      0.00
    5   -9    2      0.65      0.00
    6   -9    2     -2.79      0.00
    7   -9    2     -2.66      0.00
    8   -9    2      1.25      0.00
    9   -9    2     -6.66      0.00
   10   -9    2      1.19      0.00
   11   -9    2      4.70      0.00
   12   -9    2     -6.74      0.00
   13   -9    2      4.85      0.00
  -14   -8    2      1.24      0.00
  -13   -8    2     -4.36      0.00
  -12   -8    2     -5.83      0.00
  -11   -8    2      9.58      0.00
  -10   -8    2      1.72      0.00
   -9   -8    2     -4.51      0.00
   -8   -8    2      0.07      0.00
   -7   -8    2      3.35      0.00
   -6   -8    2      1.27      0.00
   -5   -8    2      0.34      0.00
   -4   -8    2     -9.74      0.00
   -3   -8    2      7.45      0.00
   -2   -8    2     -5.82      0.00
   -1   -8    2     -1.38      0.00
    0   -8    2     -7.71      0.00
    1   -8    2      1.34      0.00
    2   -8    2     -4.34      0.00
    3   -8    2     -1.17      0.00
    4   -8    2      7.19      0.00
    5   -8    2      0.08      0.00
    6   -8    2     -2.49      0.00
    7   -8    2      4.58      0.00
    8   -8    2      0.60      0.00
    9   -8    2     -2.99      0.00
   10   -8    2      2.68      0.00
   11   -8    2      0.66      0.00
   12   -8    2     -5.33      0.00
   13   -8    2      6.22      0.00
   14   -8    2     -3.84      0.00
  -14   -7    2     -0.96      0.00
  -13   -7    2     -3.90      0.00
  -12   -7    2      4.87      0.00
  -11   -7    2      3.27      0.00
  -10   -7    2    -10.86      0.00
   -9   -7    2      3.49      0.00
   -8   -7    2     -1.50      0.00
   -7   -7    2      5.76      0.00
   -6   -7    2      2.62      0.00
   -5   -7    2    -11.19      0.00
   -4   -7    2     -0.94      0.00
   -3   -7    2     14.65      0.00
   -2   -7    2      1.12      0.00
   -1   -7    2      1.78      0.00
    0   -7    2     -3.24      0.00
    1   -7    2      4.77      0.00
    2   -7    2     -8.20      0.00
    3   -7    2     -4.71      0.00
    4   -7    2      8.63      0.00
    5   -7    2     -7.42      0.00
    6   -7    2      0.69      0.00
    7   -7    2      2.55      0.00
    8   -7    2      1.39      0.00
    9   -7    2      0.81      0.00
   10   -7    2     -1.56      0.00
   11   -7    2      0.06      0.00
   12   -7    2      2.56      0.00
   13   -7    2      8.49      0.00
   14   -7    2      2.08      0.00
  -13   -6    2      0.04      0.00
  -12   -6    2      2.82      0.00
  -11   -6    2     -5.67      0.00
  -10   -6    2     -3.59      0.00
   -9   -6    2      8.98      0.00
   -8   -6    2     -3.31      0.00
   -7   -6    2     -2.66      0.00
   -6   -6    2     -8.09      0.00
   -5   -6    2     -1.08      0.00
   -4   -6    2     10.85      0.00
   -3   -6    2      6.17      0.00
   -2   -6    2    -23.03      0.00
   -1   -6    2     10.94      0.00
    0   -6    2      7.51      0.00
    1   -6    2     -0.31      0.00
    2   -6    2     -5.81      0.00
    3   -6    2      9.89      0.00
    4   -6    2      2.89      0.00
    5   -6    2    -10.70      0.00
    6   -6    2      2.69      0.00
    7   -6    2     -1.62      0.00
    8   -6    2     -1.27      0.00
    9   -6    2     -1.41      0.00
   10   -6    2     -2.15      0.00
   11   -6    2      3.25      0.00
   12   -6    2      0.37      0.00
   13   -6    2     -7.30      0.00
   14   -6    2     -5.92      0.00
   15   -6    2      3.41      0.00
  -13   -5    2      4.48      0.00
  -12   -5    2     -0.12      0.00
  -11   -5    2     -3.57      0.00
  -10   -5    2      4.07      0.00
   -9   -5    2      0.84      0.00
   -8   -5    2     -3.11      0.00
   -7   -5    2      4.97      0.00
   -6   -5    2     -5.63      0.00
   -5   -5    2      1.00      0.00
   -4   -5    2     15.59      0.00
   -3   -5    2    -11.85      0.00
   -2   -5    2     -4.49      0.00
   -1   -5    2     18.54      0.00
    0   -5    2     -5.51      0.00
    1   -5    2      0.70      0.00
    2   -5    2     10.38      0.00
    3   -5    2      6.08      0.00
    4   -5    2     -2.51      0.00
    5   -5    2     -1.71      0.00
    6   -5    2      9.20      0.00
    7   -5    2     -2.09      0.00
    8   -5    2     -2.20      0.00
    9   -5    2      4.34      0.00
   10   -5    2     -4.15      0.00
   11   -5    2      5.46      0.00
   12   -5    2     -0.80      0.00
   13   -5    2     -2.20      0.00
   14   -5    2      0.60      0.00
   15   -5    2      2.76      0.00
  -14   -4    2     -2.79      0.00
  -13   -4    2     -2.33      0.00
  -12   -4    2     -3.28      0.00
  -11   -4    2      1.08      0.00
  -10   -4    2      4.44      0.00
   -9   -4    2     -0.70      0.00
   -8   -4    2     -2.45      0.00
   -7   -4    2      2.55      0.00
   -6   -4    2      2.44      0.00
   -5   -4    2      9.62      0.00
   -4   -4    2    -10.95      0.00
   -3   -4    2      0.34      0.00
   -2   -4    2     15.39      0.00
   -1   -4    2    -11.38      0.00
    0   -4    2     -7.83      0.00
    1   -4    2    -11.26      0.00
    2   -4    2     -0.15      0.00
    3   -4    2     -1.39      0.00
    4   -4    2    -14.57      0.00
    5   -4    2      3.83      0.00
    6   -4    2     -1.64      0.00
    7   -4    2     -7.59      0.00
    8   -4    2      7.68      0.00
    9   -4    2     -3.19      0.00
   10   -4    2     -0.25      0.00
   11   -4    2      3.09      0.00
   12   -4    2     -1.52      0.00
   13   -4    2     -0.86      0.00
   14   -4    2      7.40      0.00
   15   -4    2     -0.17      0.00
  -15   -3    2      0.94      0.00
  -14   -3    2      5.83      0.00
  -13   -3    2     -2.07      0.00
  -12   -3    2      0.59      0.00
  -11   -3    2     -0.41      0.00
  -10   -3    2     -2.31      0.00
   -9   -3    2     -1.03      0.00
   -8   -3    2      1.55      0.00
   -7   -3    2     -3.25      0.00
   -6   -3    2      1.81      0.00
   -5   -3    2      1.17      0.00
   -4   -3    2      7.59      0.00
   -3   -3    2     -6.15      0.00
   -2   -3    2    -17.30      0.00
   -1   -3    2     42.51      0.00
    0   -3    2     11.64      0.00
    1   -3    2     -3.86      0.00
    2   -3    2     -2.82      0.00
    3   -3    2      3.23      0.00
    4   -3    2     -9.39      0.00
    5   -3    2      4.50      0.00
    6   -3    2     -8.61      0.00
    7   -3    2     -3.03      0.00
    8   -3    2      1.76      0.00
    9   -3    2     -3.38      0.00
   10   -3    2     -2.21      0.00
   11   -3    2      2.84      0.00
   12   -3    2     -7.44      0.00
   13   -3    2     -2.23      0.00
   14   -3    2     -0.89      0.00
   15   -3    2     -0.33      0.00
   16   -3    2      3.86      0.00
  -15   -2    2      5.14      0.00
  -14   -2    2     -6.99      0.00
  -13   -2    2      1.83      0.00
  -12   -2    2      4.45      0.00
  -11   -2    2     -0.36      0.00
  -10   -2    2      3.77      0.00
   -9   -2    2     -2.86      0.00
   -8   -2    2     -4.74      0.00
   -7   -2    2      5.73      0.00
   -6   -2    2      0.24      0.00
   -5   -2    2    -17.54      0.00
   -4   -2    2      1.59      0.00
   -3   -2    2     12.87      0.00
   -2   -2    2    -14.28      0.00
   -1   -2    2    -54.18      0.00
    0   -2    2     -8.83      0.00
    2   -2    2     66.99      0.00
    3   -2    2      9.35      0.00
    4   -2    2    -18.47      0.00
    5   -2    2     18.45      0.00
    6   -2    2     -0.04      0.00
    7   -2    2      9.21      0.00
    8   -2    2      5.36      0.00
    9   -2    2     -7.04      0.00
   10   -2    2      4.79      0.00
   11   -2    2     -3.10      0.00
   12   -2    2      1.19      0.00
   13   -2    2      1.63      0.00
   14   -2    2     -0.29      0.00
   15   -2    2      1.51      0.00
   16   -2    2     -5.47      0.00
  -16   -1    2      2.62      0.00
  -15   -1    2      0.00      0.00
  -14   -1    2      1.48      0.00
  -13   -1    2     -0.66      0.00
  -12   -1    2     -6.46      0.00
  -11   -1    2     -3.67      0.00
  -10   -1    2      2.15      0.00
   -9   -1    2     -5.51      0.00
   -8   -1    2     12.19      0.00
   -7   -1    2      3.46      0.00
   -6   -1    2     -4.40      0.00
   -5   -1    2     -1.66      0.00
   -4   -1    2      9.63      0.00
   -3   -1    2    -10.85      0.00
   -2   -1    2     -2.40      0.00
   -1   -1    2     62.74      0.00
    0   -1    2    -74.59      0.00
    3   -1    2    -43.97      0.00
    4   -1    2      2.50      0.00
    5   -1    2     18.03      0.00
    6   -1    2     -9.31      0.00
    7   -1    2      0.54      0.00
    8   -1    2     -9.83      0.00
    9   -1    2      1.24      0.00
   10   -1    2      3.06      0.00
   11   -1    2     -0.35      0.00
   12   -1    2     -1.11      0.00
   13   -1    2      3.34      0.00
   14   -1    2     -0.35      0.00
   15   -1    2     -1.75      0.00
   16   -1    2     -1.17      0.00
  -15    0    2     -0.01      0.00
  -14    0    2     -4.43      0.00
  -13    0    2     -2.84      0.00
  -12    0    2      6.39      0.00
  -11    0    2      1.88      0.00
  -10    0    2     -1.98      0.00
   -9    0    2     -0.03      0.00
   -8    0    2      4.43      0.00
   -7    0    2     -9.15      0.00
   -6    0    2     -7.76      0.00
   -5    0    2     15.88      0.00
   -4    0    2     10.26      0.00
   -3    0    2     -1.25      0.00
   -2    0    2    -34.40      0.00
   -1    0    2    -42.66      0.00
    0    0    2    164.00      0.00
    3    0    2      1.27      0.00
    4    0    2     10.64      0.00
    5    0    2     11.69      0.00
    6    0    2     -9.49      0.00
    7    0    2      4.48      0.00
    8    0    2     -4.22      0.00
    9    0    2      8.55      0.00
   10    0    2     -2.53      0.00
   11    0    2     -7.56      0.00
   12    0    2      5.21      0.00
   13    0    2     -0.54      0.00
   14    0    2      1.97      0.00
   15    0    2      0.22      0.00
   16    0    2      1.59      0.00
  -15    1    2     -0.55      0.00
  -14    1    2      4.26      0.00
  -13    1    2      2.59      0.00
  -12    1    2      2.36      0.00
  -11    1    2     -2.15      0.00
  -10    1    2     -0.59      0.00
   -9    1    2      1.88      0.00
   -8    1    2     -2.81      0.00
   -7    1    2     -5.67      0.00
   -6    1    2      5.12      0.00
   -5    1    2     -2.66      0.00
   -4    1    2    -15.70      0.00
   -3    1    2     -8.32      0.00
    1    1    2    -83.28      0.00
    3    1    2     42.73      0.00
    4    1    2     13.33      0.00
    6    1    2     -8.16      0.00
    7    1    2      2.00      0.00
    8    1    2      2.19      0.00
    9    1    2      4.00      0.00
   10    1    2     -6.11      0.00
   11    1    2      3.50      0.00
   12    1    2      4.97      0.00
   13    1    2     -3.82      0.00
   14    1    2     -9.15      0.00
   15    1    2      1.31      0.00
   16    1    2      2.51      0.00
  -15    2    2      1.36      0.00
  -14    2    2     -5.29      0.00
  -13    2    2     -2.14      0.00
  -12    2    2      2.27      0.00
  -11    2    2     -2.78      0.00
  -10    2    2      1.02      0.00
   -9    2    2      1.93      0.00
   -8    2    2     -1.21      0.00
   -7    2    2      0.91      0.00
   -6    2    2      7.55      0.00
   -5    2    2      4.72      0.00
   -4    2    2     -4.78      0.00
   -3    2    2      9.45      0.00
   -2    2    2     -6.94      0.00
    3    2    2     10.70      0.00
    4    2    2    -29.09      0.00
    5    2    2      4.35      0.00
    6    2    2     -6.22      0.00
    7    2    2      5.94      0.00
    8    2    2     -0.74      0.00
    9    2    2     -0.62      0.00
   10    2    2     -3.17      0.00
   11    2    2      3.34      0.00
   12    2    2      2.33      0.00
   13    2    2     -4.14      0.00
   14    2    2      3.76      0.00
   15    2    2     -1.29      0.00
   16    2    2     -1.24      0.00
   17    2    2     -0.24      0.00
  -15    3    2     -0.98      0.00
  -14    3    2     -1.87      0.00
  -13    3    2      1.06      0.00
  -12    3    2      1.58      0.00
  -11    3    2      2.44      0.00
  -10    3    2     -3.92      0.00
   -9    3    2      2.09      0.00
   -8    3    2     -2.32      0.00
   -7    3    2      2.92      0.00
   -6    3    2     -1.62      0.00
   -5    3    2     -9.19      0.00
   -4    3    2      5.25      0.00
   -3    3    2      9.45      0.00
   -2    3    2     -0.53      0.00
   -1    3    2     18.44      0.00
    0    3    2     -2.49      0.00
    1    3    2      6.96      0.00
    2    3    2     30.30      0.00
    3    3    2    -22.36      0.00
    4    3    2      1.60      0.00
    5    3    2     -9.70      0.00
    6    3    2      9.61      0.00
    7    3    2      9.37      0.00
    8    3    2     -7.80      0.00
    9    3    2     -2.23      0.00
   10    3    2      1.36      0.00
   11    3    2      1.29      0.00
   12    3    2     -1.64      0.00
   13    3    2     -1.96      0.00
   14    3    2     -0.51      0.00
   15    3    2      6.71      0.00
   16    3    2      4.17      0.00
   17    3    2     -5.80      0.00
  -14    4    2     -2.42      0.00
  -13    4    2      3.39      0.00
  -12    4    2      2.69      0.00
  -11    4    2     -6.53      0.00
  -10    4    2      5.56      0.00
   -9    4    2      3.04      0.00
   -8    4    2     -6.20      0.00
   -7    4    2     -1.32      0.00
   -6    4    2      0.74      0.00
   -5    4    2      3.83      0.00
   -4    4    2     -2.66      0.00
   -3    4    2     -2.66      0.00
   -2    4    2    -13.84      0.00
   -1    4    2     -0.68      0.00
    0    4    2     -9.40      0.00
    1    4    2     -5.14      0.00
    2    4    2      4.67      0.00
    3    4    2    -10.61      0.00
    4    4    2      5.18      0.00
    5    4    2     -3.73      0.00
    6    4    2      3.65      0.00
    7    4    2     -1.85      0.00
    8    4    2     -5.28      0.00
    9    4    2      9.88      0.00
   10    4    2     -3.77      0.00
   11    4    2      1.76      0.00
   12    4    2      1.08      0.00
   13    4    2     -3.08      0.00
   14    4    2     -1.51      0.00
   15    4    2     -1.24      0.00
   16    4    2     -4.46      0.00
   17    4    2     -1.65      0.00
  -14    5    2      4.03      0.00
  -13    5    2      2.25      0.00
  -12    5    2     -3.29      0.00
  -11    5    2      3.77      0.00
  -10    5    2      4.48      0.00
   -9    5    2     -1.37      0.00
   -8    5    2     -1.63      0.00
   -7    5    2      7.84      0.00
   -6    5    2     -4.77      0.00
   -5    5    2      1.55      0.00
   -4    5    2      2.45      0.00
   -3    5    2      5.09      0.00
   -2    5    2      7.75      0.00
   -1    5    2      1.49      0.00
    0    5    2     -9.66      0.00
    1    5    2     -7.07      0.00
    2    5    2      8.72      0.00
    3    5    2     -3.96      0.00
    4    5    2      0.38      0.00
    5    5    2     -3.60      0.00
    6    5    2     10.25      0.00
    7    5    2    -10.13      0.00
    8    5    2     -1.71      0.00
    9    5    2      5.00      0.00
   10    5    2     -0.37      0.00
   11    5    2      2.65      0.00
   12    5    2     -1.66      0.00
   13    5    2      1.25      0.00
   14    5    2      6.90      0.00
   15    5    2      2.17      0.00
   16    5    2      2.14      0.00
   17    5    2     -0.73      0.00
  -14    6    2      6.23      0.00
  -13    6    2      1.05      0.00
  -12    6    2      0.01      0.00
  -11    6    2      3.26      0.00
  -10    6    2     -4.64      0.00
   -9    6    2     -7.94      0.00
   -8    6    2      3.57      0.00
   -7    6    2      4.82      0.00
   -6    6    2     -2.02      0.00
   -5    6    2      4.00      0.00
   -4    6    2    -10.43      0.00
   -3    6    2      2.26      0.00
   -1    6    2     -3.08      0.00
    0    6    2      3.69      0.00
    1    6    2     12.68      0.00
    2    6    2    -12.79      0.00
    3    6    2     -6.56      0.00
    4    6    2     -0.32      0.00
    5    6    2      6.88      0.00
    6    6    2    -10.93      0.00
    7    6    2     -2.19      0.00
    8    6    2      8.82      0.00
    9    6    2     -5.48      0.00
   11    6    2     -0.15      0.00
   12    6    2     -5.22      0.00
   13    6    2      4.00      0.00
   14    6    2      0.01      0.00
   15    6    2     -0.87      0.00
   16    6    2     -4.75      0.00
   17    6    2     -1.74      0.00
  -13    7    2    -11.41      0.00
  -12    7    2      2.31      0.00
  -11    7    2      1.93      0.00
  -10    7    2     -5.33      0.00
   -9    7    2      3.22      0.00
   -8    7    2      3.28      0.00
   -7    7    2     -4.73      0.00
   -6    7    2     -4.19      0.00
   -5    7    2      0.88      0.00
   -4    7    2      4.47      0.00
   -3    7    2      4.18      0.00
   -2    7    2    -14.12      0.00
   -1    7    2    -11.97      0.00
    0    7    2      7.38      0.00
    1    7    2      5.27      0.00
    2    7    2      1.95      0.00
    3    7    2      4.80      0.00
    4    7    2      7.74      0.00
    5    7    2     -6.66      0.00
    6    7    2     -6.81      0.00
    7    7    2     11.18      0.00
    8    7    2     -1.16      0.00
    9    7    2     -0.94      0.00
   10    7    2     -4.39      0.00
   11    7    2     -5.96      0.00
   12    7    2     -0.48      0.00
   13    7    2      2.99      0.00
   14    7    2     -6.22      0.00
   15    7    2     -1.35      0.00
   16    7    2      3.11      0.00
   17    7    2      3.75      0.00
  -13    8    2      2.41      0.00
  -12    8    2      2.10      0.00
  -11    8    2     -4.81      0.00
  -10    8    2     -4.10      0.00
   -9    8    2      6.43      0.00
   -8    8    2      2.06      0.00
   -7    8    2     -1.06      0.00
   -6    8    2      2.16      0.00
   -5    8    2      0.58      0.00
   -4    8    2      1.10      0.00
   -3    8    2     -4.34      0.00
   -2    8    2     10.02      0.00
   -1    8    2      4.24      0.00
    0    8    2      0.99      0.00
    1    8    2     -5.25      0.00
    2    8    2     -8.55      0.00
    3    8    2      9.34      0.00
    4    8    2     -0.75      0.00
    5    8    2     -3.59      0.00
    6    8    2      3.55      0.00
    7    8    2     10.67      0.00
    8    8    2     -2.15      0.00
    9    8    2     -4.52      0.00
   10    8    2      7.45      0.00
   11    8    2      2.12      0.00
   12    8    2      5.00      0.00
   13    8    2      2.78      0.00
   14    8    2     -2.75      0.00
   15    8    2      6.49      0.00
   16    8    2     -2.09      0.00
  -12    9    2     -4.11      0.00
  -11    9    2      2.75      0.00
  -10    9    2     -0.60      0.00
   -9    9    2      0.74      0.00
   -8    9    2     -0.63      0.00
   -7    9    2     -2.08      0.00
   -6    9    2      2.34      0.00
   -5    9    2     -0.61      0.00
   -4    9    2      0.14      0.00
   -3    9    2     -2.62      0.00
   -2    9    2      5.40      0.00
   -1    9    2     -1.77      0.00
    0    9    2      2.75      0.00
    1    9    2      3.03      0.00
    2    9    2     -4.05      0.00
    4    9    2      0.31      0.00
    5    9    2     -2.74      0.00
    6    9    2      0.13      0.00
    7    9    2     -4.88      0.00
    8    9    2    -10.48      0.00
    9    9    2      6.52      0.00
   10    9    2     -5.46      0.00
   11    9    2     -1.68      0.00
   12    9    2      0.23      0.00
   13    9    2     -3.76      0.00
   14    9    2      2.18      0.00
   15    9    2      0.66      0.00
   16    9    2     -6.10      0.00
  -12   10    2      9.04      0.00
  -11   10    2     -1.69      0.00
  -10   10    2     -5.98      0.00
   -9   10    2      5.98      0.00
   -8   10    2     -2.06      0.00
   -7   10    2     -2.67      0.00
   -6   10    2     -0.17      0.00
   -5   10    2     -4.93      0.00
   -4   10    2      1.13      0.00
   -3   10    2     -1.68      0.00
   -2   10    2      2.18      0.00
   -1   10    2     -7.91      0.00
    0   10    2      7.92      0.00
    1   10    2      1.67      0.00
    3   10    2      4.36      0.00
    4   10    2     -1.66      0.00
    5   10    2      1.08      0.00
    6   10    2      0.56      0.00
    7   10    2      2.85      0.00
    8   10    2      1.19      0.00
    9   10    2     -1.91      0.00
   10   10    2     -0.03      0.00
   11   10    2     -1.69      0.00
   12   10    2      0.98      0.00
   13   10    2      0.77      0.00
   14   10    2      1.87      0.00
   15   10    2      0.75      0.00
   16   10    2      0.66      0.00
  -11   11    2      0.62      0.00
  -10   11    2      1.96      0.00
   -9   11    2     -3.19      0.00
   -8   11    2     -0.18      0.00
   -7   11    2      4.67      0.00
   -6   11    2      0.23      0.00
   -5   11    2     -3.12      0.00
   -4   11    2      3.24      0.00
   -3   11    2     -5.16      0.00
   -2   11    2     -1.45      0.00
   -1   11    2      0.37      0.00
    0   11    2     -1.41      0.00
    3   11    2      7.50      0.00
    4   11    2     -2.65      0.00
    5   11    2     -6.59      0.00
    6   11    2      2.24      0.00
    7   11    2      1.18      0.00
    8   11    2      0.00      0.00
    9   11    2      1.72      0.00
   10   11    2     -1.52      0.00
   11   11    2      3.04      0.00
   12   11    2     -0.86      0.00
   13   11    2     -1.42      0.00
   14   11    2     -3.08      0.00
   15   11    2     -1.52      0.00
   16   11    2     -0.38      0.00
  -10   12    2      0.93      0.00
   -9   12    2      2.43      0.00
   -8   12    2     -2.82      0.00
   -7   12    2     -3.85      0.00
   -5   12    2      3.88      0.00
   -4   12    2      5.98      0.00
   -3   12    2     -4.81      0.00
    1   12    2     -2.25      0.00
    2   12    2      4.47      0.00
    3   12    2     -4.97      0.00
    4   12    2     -7.18      0.00
    5   12    2      9.76      0.00
    6   12    2     -0.96      0.00
    7   12    2      1.49      0.00
    8   12    2     -2.81      0.00
    9   12    2     -2.98      0.00
   10   12    2     -1.26      0.00
   11   12    2      0.13      0.00
   12   12    2      0.55      0.00
   13   12    2      2.28      0.00
   14   12    2      1.03      0.00
   15   12    2      3.65      0.00
   -9   13    2     -0.08      0.00
   -8   13    2      3.85      0.00
   -7   13    2     -2.02      0.00
   -5   13    2     -4.25      0.00
   -4   13    2      1.90      0.00
   -3   13    2      2.28      0.00
   -2   13    2      4.09      0.00
   -1   13    2     -2.10      0.00
    0   13    2     -1.91      0.00
    1   13    2      7.37      0.00
    2   13    2      0.44      0.00
    3   13    2     -3.24      0.00
    4   13    2      2.44      0.00
    5   13    2      4.68      0.00
    6   13    2     -3.10      0.00
    7   13    2      1.66      0.00
    8   13    2      2.29      0.00
    9   13    2     -0.26      0.00
   10   13    2      2.16      0.00
   11   13    2      0.07      0.00
   12   13    2     -1.78      0.00
   13   13    2     -3.42      0.00
   14   13    2     -4.30      0.00
   15   13    2     -1.27      0.00
   -8   14    2     -0.72      0.00
   -7   14    2      1.03      0.00
   -4   14    2      2.55      0.00
   -3   14    2     -9.99      0.00
   -2   14    2      4.09      0.00
   -1   14    2     -2.53      0.00
    0   14    2      2.60      0.00
    1   14    2     -2.97      0.00
    2   14    2     -5.75      0.00
    3   14    2      2.58      0.00
    4   14    2      4.78      0.00
    5   14    2     -2.74      0.00
    6   14    2     -4.75      0.00
    7   14    2      2.07      0.00
    8   14    2     -2.13      0.00
    9   14    2      2.60      0.00
   10   14    2     -1.74      0.00
   11   14    2      0.16      0.00
   12   14    2      3.39      0.00
   13   14    2     -0.18      0.00
   14   14    2      0.62      0.00
   -7   15    2     -2.56      0.00
   -4   15    2     -5.21      0.00
   -3   15    2      2.54      0.00
   -1   15    2     -3.74      0.00
    0   15    2      2.35      0.00
    1   15    2      0.06      0.00
    2   15    2      1.56      0.00
    3   15    2     -1.93      0.00
    4   15    2     -3.63      0.00
    5   15    2      2.16      0.00
    6   15    2      1.79      0.00
    7   15    2      0.20      0.00
    8   15    2      1.49      0.00
    9   15    2     -2.78      0.00
   10   15    2      2.65      0.00
   11   15    2     -0.65      0.00
   12   15    2     -0.99      0.00
   13   15    2     -3.34      0.00
   -3   16    2     -1.15      0.00
   -2   16    2      1.76      0.00
   -1   16    2     -5.25      0.00
    0   16    2      0.97      0.00
    1   16    2     -0.29      0.00
    2   16    2      1.72      0.00
    3   16    2      0.64      0.00
    4   16    2      0.71      0.00
    5   16    2     -1.96      0.00
    6   16    2     -1.40      0.00
    7   16    2      2.78      0.00
    8   16    2      0.77      0.00
    9   16    2     -1.56      0.00
   10   16    2      6.45      0.00
   11   16    2     -3.83      0.00
   12   16    2      2.60      0.00
   -2   17    2      1.24      0.00
    0   17    2      1.07      0.00
    1   17    2     -1.62      0.00
    2   17    2      2.68      0.00
    3   17    2     -3.92      0.00
    4   17    2      1.82      0.00
    5   17    2      2.79      0.00
    6   17    2     -0.28      0.00
    7   17    2      3.88      0.00
    8   17    2     -0.77      0.00
    9   17    2      1.28      0.00
   10   17    2      1.25      0.00
   11   17    2     -2.31      0.00
   -2   18    2     -3.36      0.00
    0   18    2      3.56      0.00
    1   18    2      2.34      0.00
    2   18    2     -3.23      0.00
    3   18    2     -1.40      0.00
    4   18    2      1.10      0.00
    5   18    2     -1.32      0.00
    6   18    2      1.69      0.00
    7   18    2     -3.04      0.00
    8   18    2     -6.23      0.00
    9   18    2     -1.59      0.00
   10   18    2      4.33      0.00
    1   19    2     -0.22      0.00
    2   19    2     -3.30      0.00
    3   19    2      0.43      0.00
    4   19    2     -1.21      0.00
    5   19    2      3.76      0.00
    6   19    2     -1.67      0.00
    7   19    2      0.28      0.00
    8   19    2      2.99      0.00
   -6  -19    3     -1.39      0.00
   -5  -19    3     -3.82      0.00
   -4  -19    3      0.01      0.00
   -3  -19    3      4.36      0.00
   -2  -19    3     -1.50      0.00
   -1  -19    3      2.34      0.00
   -8  -18    3     -2.14      0.00
   -7  -18    3      2.81      0.00
   -6  -18    3      2.29      0.00
   -5  -18    3      1.12      0.00
   -4  -18    3     -2.16      0.00
   -3  -18    3      3.09      0.00
   -2  -18    3     -1.81      0.00
   -1  -18    3      0.39      0.00
    1  -18    3     14.73      0.00
    2  -18    3     -2.95      0.00
    3  -18    3      1.38      0.00
  -10  -17    3     -5.55      0.00
   -9  -17    3     14.09      0.00
   -8  -17    3     -1.77      0.00
   -7  -17    3      2.72      0.00
   -6  -17    3     -0.40      0.00
   -5  -17    3      1.58      0.00
   -4  -17    3      1.76      0.00
   -3  -17    3      3.63      0.00
   -2  -17    3     -1.24      0.00
   -1  -17    3      0.92      0.00
    0  -17    3     -0.72      0.00
    2  -17    3     -5.85      0.00
    3  -17    3      9.55      0.00
    4  -17    3    -10.21      0.00
    5  -17    3     -2.97      0.00
  -11  -16    3      5.24      0.00
  -10  -16    3     -3.92      0.00
   -9  -16    3      5.71      0.00
   -8  -16    3     -4.62      0.00
   -7  -16    3     -2.35      0.00
   -6  -16    3     -2.80      0.00
   -5  -16    3      1.32      0.00
   -4  -16    3     -0.81      0.00
   -3  -16    3     -1.49      0.00
   -2  -16    3     -5.83      0.00
   -1  -16    3     -1.51      0.00
    0  -16    3     -1.10      0.00
    2  -16    3      2.57      0.00
    3  -16    3     -0.92      0.00
    4  -16    3     -5.87      0.00
    5  -16    3     11.71      0.00
    6  -16    3     -8.77      0.00
    7  -16    3     -4.02      0.00
  -12  -15    3      1.34      0.00
  -11  -15    3     -3.31      0.00
  -10  -15    3      2.25      0.00
   -9  -15    3     -0.13      0.00
   -8  -15    3     -3.75      0.00
   -7  -15    3      1.07      0.00
   -6  -15    3     -3.32      0.00
   -5  -15    3     -0.99      0.00
   -4  -15    3     -2.25      0.00
   -3  -15    3     -3.32      0.00
   -2  -15    3      1.35      0.00
   -1  -15    3      0.58      0.00
    0  -15    3      1.70      0.00
    1  -15    3     -0.68      0.00
    2  -15    3     -7.02      0.00
    3  -15    3     -0.57      0.00
    4  -15    3      0.59      0.00
    5  -15    3      3.50      0.00
    6  -15    3      2.72      0.00
    7  -15    3      9.04      0.00
    8  -15    3     -1.28      0.00
  -12  -14    3      2.12      0.00
  -11  -14    3     -2.14      0.00
  -10  -14    3      3.95      0.00
   -9  -14    3     -5.14      0.00
   -8  -14    3      1.34      0.00
   -7  -14    3     -2.28      0.00
   -6  -14    3     -0.62      0.00
   -5  -14    3      6.61      0.00
   -4  -14    3     -0.54      0.00
   -3  -14    3      2.17      0.00
   -2  -14    3      2.20      0.00
   -1  -14    3      0.90      0.00
    0  -14    3     -2.94      0.00
    1  -14    3      1.99      0.00
    2  -14    3      4.04      0.00
    3  -14    3      3.19      0.00
    4  -14    3     -1.30      0.00
    5  -14    3      1.85      0.00
    6  -14    3    -10.29      0.00
    7  -14    3     -3.91      0.00
    8  -14    3     -2.81      0.00
    9  -14    3      0.94      0.00
  -13  -13    3     -3.36      0.00
  -12  -13    3      4.72      0.00
  -11  -13    3     -1.00      0.00
  -10  -13    3      3.28      0.00
   -9  -13    3     -4.26      0.00
   -8  -13    3      4.49      0.00
   -7  -13    3     -0.09      0.00
   -6  -13    3     -1.60      0.00
   -5  -13    3      2.14      0.00
   -4  -13    3     -5.06      0.00
   -3  -13    3     -0.93      0.00
   -2  -13    3      6.48      0.00
   -1  -13    3     -0.38      0.00
    0  -13    3     -3.26      0.00
    1  -13    3      2.63      0.00
    2  -13    3     -0.27      0.00
    3  -13    3      0.42      0.00
    4  -13    3     -3.85      0.00
    5  -13    3      2.88      0.00
    6  -13    3      1.32      0.00
    7  -13    3      3.71      0.00
    8  -13    3     -4.52      0.00
    9  -13    3     -2.79      0.00
   10  -13    3      2.36      0.00
  -14  -12    3      3.09      0.00
  -13  -12    3      0.00      0.00
  -12  -12    3     -1.56      0.00
  -11  -12    3     -0.40      0.00
  -10  -12    3      4.09      0.00
   -9  -12    3     -3.80      0.00
   -8  -12    3      4.48      0.00
   -7  -12    3      0.70      0.00
   -6  -12    3      2.63      0.00
   -5  -12    3      2.35      0.00
   -4  -12    3     -1.55      0.00
   -3  -12    3      0.37      0.00
   -2  -12    3      0.63      0.00
   -1  -12    3    -10.04      0.00
    0  -12    3      0.64      0.00
    1  -12    3      7.18      0.00
    2  -12    3     -7.98      0.00
    3  -12    3     -4.24      0.00
    4  -12    3      4.51      0.00
    5  -12    3     -0.02      0.00
    6  -12    3     -0.46      0.00
    7  -12    3      0.39      0.00
    8  -12    3      5.20      0.00
    9  -12    3      1.74      0.00
   10  -12    3      2.31      0.00
   11  -12    3     -8.66      0.00
  -14  -11    3      1.37      0.00
  -13  -11    3     -4.30      0.00
  -12  -11    3     -0.89      0.00
  -11  -11    3      0.67      0.00
  -10  -11    3     -1.83      0.00
   -9  -11    3     -3.09      0.00
   -8  -11    3      5.33      0.00
   -7  -11    3     -7.11      0.00
   -6  -11    3     -0.25      0.00
   -5  -11    3      3.51      0.00
   -4  -11    3     -2.66      0.00
   -3  -11    3      4.61      0.00
   -2  -11    3     -0.12      0.00
   -1  -11    3     -4.13      0.00
    0  -11    3      9.27      0.00
    1  -11    3      1.50      0.00
    2  -11    3     -0.26      0.00
    3  -11    3     -0.01      0.00
    4  -11    3      1.37      0.00
    5  -11    3     -1.62      0.00
    6  -11    3      2.76      0.00
    7  -11    3     -4.05      0.00
    8  -11    3      4.25      0.00
    9  -11    3     -4.16      0.00
   10  -11    3      2.16      0.00
   11  -11    3      1.16      0.00
   12  -11    3      1.66      0.00
  -14  -10    3     -1.98      0.00
  -13  -10    3     -2.69      0.00
  -12  -10    3     -1.32      0.00
  -11  -10    3      8.42      0.00
  -10  -10    3      0.24      0.00
   -9  -10    3     -4.21      0.00
   -8  -10    3      3.87      0.00
   -7  -10    3     -0.77      0.00
   -6  -10    3      3.54      0.00
   -5  -10    3     -4.50      0.00
   -4  -10    3     -2.57      0.00
   -3  -10    3     -4.04      0.00
   -2  -10    3     -3.17      0.00
   -1  -10    3      0.23      0.00
    0  -10    3      1.96      0.00
    1  -10    3     -4.19      0.00
    2  -10    3     -1.73      0.00
    3  -10    3      1.15      0.00
    4  -10    3      3.22      0.00
    5  -10    3     -1.77      0.00
    6  -10    3      0.35      0.00
    7  -10    3      0.41      0.00
    8  -10    3     -1.70      0.00
    9  -10    3     -5.66      0.00
   10  -10    3      2.68      0.00
   11  -10    3      0.89      0.00
   12  -10    3     -0.51      0.00
  -13   -9    3      2.55      0.00
  -12   -9    3     -0.15      0.00
  -11   -9    3      2.38      0.00
  -10   -9    3     -7.12      0.00
   -9   -9    3     -1.72      0.00
   -8   -9    3      7.92      0.00
   -7   -9    3     -4.10      0.00
   -6   -9    3      0.53      0.00
   -5   -9    3     -4.63      0.00
   -4   -9    3      1.41      0.00
   -3   -9    3      9.88      0.00
   -2   -9    3     -0.15      0.00
   -1   -9    3      0.98      0.00
    0   -9    3     -1.32      0.00
    1   -9    3     -1.96      0.00
    2   -9    3     -1.56      0.00
    3   -9    3     -3.46      0.00
    4   -9    3      5.90      0.00
    5   -9    3     -1.87      0.00
    6   -9    3     -1.13      0.00
    7   -9    3      3.77      0.00
    8   -9    3      2.57      0.00
    9   -9    3      0.57      0.00
   10   -9    3      2.23      0.00
   11   -9    3     -1.94      0.00
   12   -9    3     -2.42      0.00
   13   -9    3      5.73      0.00
  -13   -8    3      0.33      0.00
  -12   -8    3      2.34      0.00
  -11   -8    3     -5.05      0.00
  -10   -8    3     -5.48      0.00
   -9   -8    3      8.72      0.00
   -8   -8    3     -0.26      0.00
   -7   -8    3     -4.73      0.00
   -6   -8    3      2.43      0.00
   -5   -8    3     -1.41      0.00
   -4   -8    3      9.25      0.00
   -3   -8    3     -2.00      0.00
   -2   -8    3     -4.25      0.00
   -1   -8    3      9.08      0.00
    0   -8    3      5.04      0.00
    1   -8    3      2.79      0.00
    2   -8    3     -2.96      0.00
    3   -8    3     -0.20      0.00
    4   -8    3      4.91      0.00
    5   -8    3     -7.57      0.00
    6   -8    3      2.37      0.00
    7   -8    3      1.43      0.00
    8   -8    3     -2.34      0.00
    9   -8    3     -0.17      0.00
   10   -8    3     -2.17      0.00
   11   -8    3      4.45      0.00
   12   -8    3      0.45      0.00
   13   -8    3      1.29      0.00
   14   -8    3     -1.06      0.00
  -12   -7    3     -2.61      0.00
  -11   -7    3     -5.37      0.00
  -10   -7    3      9.10      0.00
   -9   -7    3      4.38      0.00
   -8   -7    3     -8.35      0.00
   -7   -7    3      2.48      0.00
   -6   -7    3     -3.07      0.00
   -5   -7    3      3.91      0.00
   -4   -7    3      7.93      0.00
   -3   -7    3    -10.74      0.00
   -2   -7    3    -11.91      0.00
   -1   -7    3     10.68      0.00
    0   -7    3     -7.52      0.00
    1   -7    3      0.31      0.00
    2   -7    3     -2.72      0.00
    3   -7    3     10.02      0.00
    4   -7    3      0.00      0.00
    5   -7    3     -4.64      0.00
    6   -7    3      5.05      0.00
    7   -7    3     -4.64      0.00
    8   -7    3     -2.55      0.00
    9   -7    3     -0.71      0.00
   10   -7    3      0.25      0.00
   11   -7    3      5.00      0.00
   12   -7    3     -5.38      0.00
   13   -7    3     -5.74      0.00
   14   -7    3     -1.13      0.00
  -12   -6    3     -4.04      0.00
  -11   -6    3      5.43      0.00
  -10   -6    3      5.71      0.00
   -9   -6    3     -7.26      0.00
   -8   -6    3     -4.65      0.00
   -7   -6    3     10.37      0.00
   -6   -6    3      2.61      0.00
   -5   -6    3     -1.59      0.00
   -4   -6    3     -0.50      0.00
   -3   -6    3    -11.27      0.00
   -2   -6    3     15.65      0.00
   -1   -6    3      6.81      0.00
    0   -6    3    -19.04      0.00
    1   -6    3      2.95      0.00
    2   -6    3      3.61      0.00
    3   -6    3     -1.59      0.00
    4   -6    3     -6.50      0.00
    5   -6    3      1.11      0.00
    6   -6    3      3.45      0.00
    7   -6    3     -5.41      0.00
    8   -6    3      5.17      0.00
    9   -6    3      2.41      0.00
   10   -6    3     -1.48      0.00
   11   -6    3      4.42      0.00
   12   -6    3     -3.22      0.00
   13   -6    3      4.28      0.00
   14   -6    3      5.56      0.00
   15   -6    3     -2.06      0.00
  -13   -5    3     -4.18      0.00
  -12   -5    3     -1.24      0.00
  -11   -5    3      3.77      0.00
  -10   -5    3     -3.88      0.00
   -9   -5    3     -2.36      0.00
   -8   -5    3      3.68      0.00
   -7   -5    3      0.66      0.00
   -6   -5    3     -1.99      0.00
   -5   -5    3      2.42      0.00
   -4   -5    3    -10.43      0.00
   -3   -5    3      8.15      0.00
   -2   -5    3      4.85      0.00
   -1   -5    3    -11.62      0.00
    0   -5    3     -5.49      0.00
    1   -5    3     13.14      0.00
    2   -5    3     -6.58      0.00
    3   -5    3     -3.71      0.00
    4   -5    3     -3.56      0.00
    5   -5    3      1.47      0.00
    6   -5    3     -8.69      0.00
    7   -5    3     -4.00      0.00
    8   -5    3      8.93      0.00
    9   -5    3    -10.25      0.00
   10   -5    3      1.12      0.00
   11   -5    3      1.49      0.00
   12   -5    3     -7.15      0.00
   13   -5    3      0.56      0.00
   14   -5    3      3.25      0.00
   15   -5    3     -2.98      0.00
  -14   -4    3      4.23      0.00
  -13   -4    3      0.26      0.00
  -12   -4    3      4.43      0.00
  -11   -4    3     -0.02      0.00
  -10   -4    3     -5.58      0.00
   -9   -4    3      0.07      0.00
   -8   -4    3      3.60      0.00
   -7   -4    3     -1.89      0.00
   -6   -4    3     -4.31      0.00
   -5   -4    3     -5.56      0.00
   -4   -4    3     10.58      0.00
   -3   -4    3     -0.05      0.00
   -2   -4    3    -20.79      0.00
   -1   -4    3      5.92      0.00
    0   -4    3     13.47      0.00
    1   -4    3     17.52      0.00
    2   -4    3      5.08      0.00
    3   -4    3     -1.52      0.00
    4   -4    3      6.99      0.00
    5   -4    3      3.31      0.00
    6   -4    3     -3.79      0.00
    7   -4    3      8.53      0.00
    8   -4    3     -2.83      0.00
    9   -4    3     -2.53      0.00
   10   -4    3      1.52      0.00
   11   -4    3      0.22      0.00
   12   -4    3     -4.94      0.00
   13   -4    3     -0.50      0.00
   14   -4    3     -5.57      0.00
   15   -4    3      0.48      0.00
  -15   -3    3      4.83      0.00
  -14   -3    3     -5.16      0.00
  -13   -3    3      0.44      0.00
  -12   -3    3     -0.49      0.00
  -11   -3    3     -5.05      0.00
  -10   -3    3      5.79      0.00
   -9   -3    3      2.59      0.00
   -8   -3    3     -3.35      0.00
   -7   -3    3      2.64      0.00
   -6   -3    3     -1.63      0.00
   -5   -3    3      1.39      0.00
   -4   -3    3     -5.42      0.00
   -3   -3    3      3.32      0.00
   -2   -3    3      3.69      0.00
   -1   -3    3    -13.40      0.00
    0   -3    3    -12.51      0.00
    1   -3    3     -1.78      0.00
    2   -3    3     -6.82      0.00
    3   -3    3      3.45      0.00
    4   -3    3      4.28      0.00
    5   -3    3      7.66      0.00
    6   -3    3      0.08      0.00
    7   -3    3      7.13      0.00
    8   -3    3      1.32      0.00
    9   -3    3     -1.93      0.00
   10   -3    3      5.60      0.00
   11   -3    3     -3.46      0.00
   12   -3    3      4.02      0.00
   13   -3    3      5.55      0.00
   14   -3    3      1.28      0.00
   15   -3    3      4.64      0.00
   16   -3    3     -4.24      0.00
  -15   -2    3     -0.49      0.00
  -14   -2    3      2.47      0.00
  -13   -2    3      0.93      0.00
  -12   -2    3     -2.60      0.00
  -11   -2    3     -3.69      0.00
  -10   -2    3     -0.05      0.00
   -9   -2    3     -3.19      0.00
   -8   -2    3      7.97      0.00
   -7   -2    3     -4.24      0.00
   -6   -2    3     -3.12      0.00
   -5   -2    3     13.64      0.00
   -4   -2    3      5.46      0.00
   -3   -2    3    -13.29      0.00
   -2   -2    3    -21.54      0.00
   -1   -2    3     59.48      0.00
    0   -2    3     15.30      0.00
    1   -2    3     12.02      0.00
    2   -2    3    -62.04      0.00
    3   -2    3     -4.13      0.00
    4   -2    3      5.29      0.00
    5   -2    3     -0.56      0.00
    6   -2    3     -8.96      0.00
    7   -2    3     -2.36      0.00
    8   -2    3     -8.22      0.00
    9   -2    3      2.99      0.00
   10   -2    3     -3.78      0.00
   11   -2    3      0.25      0.00
   12   -2    3     -2.07      0.00
   13   -2    3     -4.77      0.00
   14   -2    3      2.39      0.00
   15   -2    3     -0.55      0.00
   16   -2    3     -1.65      0.00
  -15   -1    3      4.01      0.00
  -14   -1    3     -6.36      0.00
  -13   -1    3      0.95      0.00
  -12   -1    3      3.77      0.00
  -11   -1    3      2.24      0.00
  -10   -1    3      1.52      0.00
   -9   -1    3     -0.47      0.00
   -8   -1    3     -5.84      0.00
   -7   -1    3     -6.03      0.00
   -6   -1    3      5.03      0.00
   -5   -1    3      6.87      0.00
   -4   -1    3    -18.72      0.00
   -3   -1    3     16.11      0.00
   -2   -1    3     -4.76      0.00
   -1   -1    3    -18.10      0.00
    0   -1    3     30.96      0.00
    2   -1    3     29.22      0.00
    3   -1    3     66.04      0.00
    4   -1    3     -5.74      0.00
    5   -1    3     -8.81      0.00
    6   -1    3     -0.02      0.00
    7   -1    3      5.98      0.00
    8   -1    3      5.09      0.00
    9   -1    3      3.73      0.00
   10   -1    3     -4.56      0.00
   11   -1    3      1.40      0.00
   12   -1    3      2.14      0.00
   13   -1    3     -4.73      0.00
   14   -1    3      0.08      0.00
   15   -1    3      1.16      0.00
   16   -1    3      0.26      0.00
  -15    0    3     -1.12      0.00
  -14    0    3      1.00      0.00
  -13    0    3      4.27      0.00
  -12    0    3     -2.80      0.00
  -11    0    3     -4.40      0.00
  -10    0    3      3.02      0.00
   -9    0    3     -0.91      0.00
   -8    0    3     -2.66      0.00
   -7    0    3      1.71      0.00
   -6    0    3     10.00      0.00
   -5    0    3    -10.45      0.00
   -4    0    3    -13.11      0.00
   -3    0    3      7.24      0.00
   -2    0    3    -17.12      0.00
   -1    0    3     58.36      0.00
    0    0    3    -71.40      0.00
    1    0    3    -69.76      0.00
    3    0    3     13.08      0.00
    4    0    3    -32.26      0.00
    5    0    3      6.68      0.00
    6    0    3      5.09      0.00
    7    0    3      0.01      0.00
    8    0    3     -3.10      0.00
    9    0    3     -2.59      0.00
   10    0    3     -5.73      0.00
   11    0    3      9.93      0.00
   12    0    3     -3.26      0.00
   13    0    3      0.05      0.00
   14    0    3      2.64      0.00
   15    0    3     -3.44      0.00
   16    0    3     -3.63      0.00
   17    0    3     -6.11      0.00
  -15    1    3      2.29      0.00
  -14    1    3     -7.54      0.00
  -13    1    3     -1.10      0.00
  -12    1    3      0.31      0.00
  -11    1    3     -1.51      0.00
  -10    1    3      3.32      0.00
   -9    1    3      1.20      0.00
   -8    1    3      0.25      0.00
   -7    1    3      7.06      0.00
   -6    1    3     -3.86      0.00
   -5    1    3     -3.23      0.00
   -4    1    3     11.39      0.00
   -3    1    3     21.74      0.00
   -2    1    3    -11.21      0.00
   -1    1    3     -7.50      0.00
    0    1    3      5.28      0.00
    3    1    3    -57.49      0.00
    4    1    3    -35.74      0.00
    5    1    3     27.96      0.00
    6    1    3     -4.27      0.00
    7    1    3      2.25      0.00
    8    1    3     -3.10      0.00
    9    1    3      1.92      0.00
   10    1    3      0.36      0.00
   11    1    3      4.59      0.00
   12    1    3     -5.51      0.00
   13    1    3      0.82      0.00
   14    1    3      6.62      0.00
   15    1    3     -0.51      0.00
   16    1    3     -1.20      0.00
   17    1    3      0.89      0.00
  -15    2    3     -4.03      0.00
  -14    2    3      3.77      0.00
  -13    2    3      3.87      0.00
  -12    2    3      3.54      0.00
  -11    2    3      1.78      0.00
  -10    2    3      1.51      0.00
   -9    2    3     -3.18      0.00
   -8    2    3     -2.76      0.00
   -7    2    3      0.67      0.00
   -6    2    3     -4.77      0.00
   -5    2    3     -4.31      0.00
   -4    2    3      7.56      0.00
   -3    2    3    -10.88      0.00
   -2    2    3     -8.58      0.00
   -1    2    3     24.12      0.00
    0    2    3    -12.33      0.00
    1    2    3     22.36      0.00
    3    2    3    -43.45      0.00
    4    2    3     40.17      0.00
    5    2    3      3.73      0.00
    6    2    3     -9.27      0.00
    7    2    3      2.73      0.00
    8    2    3     -0.43      0.00
    9    2    3      2.47      0.00
   10    2    3      0.81      0.00
   12    2    3     -1.77      0.00
   13    2    3      4.70      0.00
   14    2    3     -5.25      0.00
   15    2    3      1.51      0.00
   16    2    3      1.11      0.00
   17    2    3      1.26      0.00
  -14    3    3      1.83      0.00
  -13    3    3      0.29      0.00
  -12    3    3      2.20      0.00
  -11    3    3     -8.02      0.00
  -10    3    3      9.76      0.00
   -9    3    3     -3.03      0.00
   -8    3    3      0.99      0.00
   -7    3    3     -2.59      0.00
   -6    3    3      0.85      0.00
   -5    3    3      4.97      0.00
   -4    3    3     -1.45      0.00
   -3    3    3      0.80      0.00
   -2    3    3     -3.47      0.00
   -1    3    3     -4.39      0.00
    0    3    3    -18.79      0.00
    1    3    3    -10.76      0.00
    2    3    3      2.60      0.00
    4    3    3     16.53      0.00
    5    3    3     -7.76      0.00
    6    3    3     -3.41      0.00
    7    3    3     -5.71      0.00
    8    3    3      1.01      0.00
    9    3    3      9.69      0.00
   10    3    3     -5.55      0.00
   11    3    3      0.06      0.00
   12    3    3      1.03      0.00
   13    3    3      1.13      0.00
   14    3    3     -1.00      0.00
   15    3    3     -1.12      0.00
   16    3    3     -5.96      0.00
   17    3    3      0.52      0.00
  -14    4    3      0.42      0.00
  -13    4    3     -4.37      0.00
  -12    4    3     -1.65      0.00
  -11    4    3      3.34      0.00
  -10    4    3     -1.73      0.00
   -9    4    3     -7.59      0.00
   -8    4    3      6.47      0.00
   -7    4    3      4.57      0.00
   -6    4    3     -1.42      0.00
   -5    4    3     -1.89      0.00
   -4    4    3      0.44      0.00
   -3    4    3      6.94      0.00
   -2    4    3      5.34      0.00
   -1    4    3     -1.75      0.00
    0    4    3     -0.05      0.00
    1    4    3      7.87      0.00
    2    4    3      4.59      0.00
    3    4    3      1.14      0.00
    4    4    3      8.40      0.00
    5    4    3    -20.02      0.00
    6    4    3     11.60      0.00
    7    4    3      1.03      0.00
    8    4    3      4.82      0.00
    9    4    3     -7.40      0.00
   10    4    3     -2.38      0.00
   11    4    3      3.00      0.00
   12    4    3      0.94      0.00
   13    4    3     -0.71      0.00
   14    4    3     -0.61      0.00
   15    4    3      3.64      0.00
   16    4    3      2.24      0.00
   17    4    3      3.76      0.00
  -14    5    3    -11.89      0.00
  -13    5    3      0.29      0.00
  -12    5    3      3.53      0.00
  -11    5    3     -0.33      0.00
  -10    5    3     -2.69      0.00
   -9    5    3     -0.81      0.00
   -8    5    3      3.71      0.00
   -7    5    3     -6.80      0.00
   -6    5    3      1.16      0.00
   -5    5    3      5.12      0.00
   -4    5    3     -5.16      0.00
   -3    5    3      2.05      0.00
   -2    5    3    -12.83      0.00
   -1    5    3     -1.48      0.00
    0    5    3     20.52      0.00
    1    5    3     12.41      0.00
    2    5    3    -11.88      0.00
    3    5    3     -6.09      0.00
    4    5    3      2.18      0.00
    5    5    3     -9.69      0.00
    6    5    3     -2.97      0.00
    7    5    3      6.16      0.00
    8    5    3      4.04      0.00
    9    5    3     -4.06      0.00
   10    5    3     -1.42      0.00
   11    5    3     -1.50      0.00
   12    5    3      1.60      0.00
   13    5    3     -0.18      0.00
   14    5    3     -4.74      0.00
   15    5    3      0.67      0.00
   16    5    3     -1.09      0.00
   17    5    3     -0.86      0.00
  -13    6    3     -0.01      0.00
  -12    6    3     -1.75      0.00
  -11    6    3     -4.49      0.00
  -10    6    3     -0.40      0.00
   -9    6    3      8.19      0.00
   -8    6    3      0.50      0.00
   -7    6    3     -3.62      0.00
   -6    6    3      0.02      0.00
   -5    6    3     -2.03      0.00
   -4    6    3      1.78      0.00
   -3    6    3      5.62      0.00
   -2    6    3     -9.99      0.00
   -1    6    3      3.24      0.00
    0    6    3      3.90      0.00
    1    6    3    -19.52      0.00
    2    6    3      7.13      0.00
    3    6    3     11.44      0.00
    4    6    3      5.10      0.00
    5    6    3    -13.04      0.00
    6    6    3     13.08      0.00
    7    6    3      7.02      0.00
    8    6    3    -11.30      0.00
    9    6    3     -0.16      0.00
   11    6    3     -0.01      0.00
   12    6    3      3.10      0.00
   13    6    3     -4.45      0.00
   14    6    3     -2.72      0.00
   15    6    3      4.53      0.00
   16    6    3      2.02      0.00
   17    6    3      1.81      0.00
  -13    7    3     16.50      0.00
  -12    7    3     -0.22      0.00
  -11    7    3     -1.20      0.00
  -10    7    3      2.53      0.00
   -9    7    3     -0.99      0.00
   -8    7    3     -2.09      0.00
   -7    7    3      3.62      0.00
   -6    7    3      5.44      0.00
   -5    7    3      1.13      0.00
   -4    7    3     -6.62      0.00
   -3    7    3     -3.57      0.00
   -2    7    3      9.13      0.00
   -1    7    3     15.53      0.00
    0    7    3     -1.27      0.00
    1    7    3     -5.88      0.00
    2    7    3     -5.48      0.00
    3    7    3     -0.20      0.00
    4    7    3     -7.75      0.00
    5    7    3     -1.50      0.00
    6    7    3      8.26      0.00
    7    7    3     -4.61      0.00
    8    7    3     -5.31      0.00
    9    7    3      1.42      0.00
   10    7    3      4.44      0.00
   11    7    3      4.50      0.00
   12    7    3      1.40      0.00
   13    7    3     -0.99      0.00
   14    7    3      6.23      0.00
   15    7    3      5.57      0.00
   16    7    3     -4.88      0.00
   17    7    3     -2.40      0.00
  -12    8    3     -3.23      0.00
  -11    8    3      0.20      0.00
  -10    8    3     -0.49      0.00
   -9    8    3     -4.23      0.00
   -8    8    3     -1.49      0.00
   -7    8    3      1.36      0.00
   -6    8    3     -2.25      0.00
   -5    8    3     -3.75      0.00
   -4    8    3      0.33      0.00
   -3    8    3      4.50      0.00
   -2    8    3     -2.03      0.00
   -1    8    3     -5.79      0.00
    0    8    3     -3.55      0.00
    1    8    3      8.50      0.00
    2    8    3      8.22      0.00
    3    8    3     -2.35      0.00
    4    8    3     -4.45      0.00
    5    8    3      0.84      0.00
    6    8    3      3.06      0.00
    7    8    3     -7.06      0.00
    8    8    3     -5.46      0.00
    9    8    3      6.75      0.00
   10    8    3     -9.10      0.00
   11    8    3     -1.23      0.00
   12    8    3     -5.73      0.00
   13    8    3     -3.54      0.00
   14    8    3      3.08      0.00
   15    8    3     -3.47      0.00
   16    8    3     -3.87      0.00
   17    8    3      1.64      0.00
  -12    9    3      4.38      0.00
  -11    9    3     -2.72      0.00
  -10    9    3     -3.24      0.00
   -9    9    3      3.10      0.00
   -8    9    3      1.47      0.00
   -7    9    3     -0.53      0.00
   -6    9    3     -4.52      0.00
   -5    9    3     -1.16      0.00
   -4    9    3     -0.06      0.00
   -3    9    3     -0.52      0.00
   -2    9    3      0.53      0.00
   -1    9    3     -6.98      0.00
    0    9    3      0.43      0.00
    1    9    3      2.31      0.00
    2    9    3     -2.17      0.00
    3    9    3      6.54      0.00
    4    9    3     -2.90      0.00
    5    9    3      3.12      0.00
    6    9    3      1.67      0.00
    7    9    3      5.66      0.00
    8    9    3      5.90      0.00
    9    9    3     -4.84      0.00
   10    9    3      2.20      0.00
   11    9    3      2.66      0.00
   12    9    3     -0.57      0.00
   13    9    3      0.11      0.00
   14    9    3      1.09      0.00
   15    9    3     -0.49      0.00
   16    9    3      3.85      0.00
  -11   10    3     -0.42      0.00
  -10   10    3      3.43      0.00
   -9   10    3     -2.41      0.00
   -8   10    3      2.44      0.00
   -7   10    3      1.63      0.00
   -6   10    3      0.05      0.00
   -5   10    3      3.22      0.00
   -4   10    3      3.81      0.00
   -3   10    3      1.85      0.00
   -2   10    3     -0.39      0.00
   -1   10    3      1.20      0.00
    0   10    3      1.04      0.00
    1   10    3     -1.01      0.00
    2   10    3     -6.29      0.00
    3   10    3     -2.11      0.00
    4   10    3     -1.83      0.00
    5   10    3      4.05      0.00
    6   10    3      1.58      0.00
    7   10    3     -2.18      0.00
    8   10    3     -4.62      0.00
    9   10    3      2.97      0.00
   10   10    3      0.33      0.00
   11   10    3      3.38      0.00
   12   10    3     -2.21      0.00
   13   10    3      0.40      0.00
   14   10    3      1.68      0.00
   15   10    3     -2.51      0.00
   16   10    3     -3.55      0.00
  -11   11    3     -2.49      0.00
  -10   11    3     -1.83      0.00
   -9   11    3      2.91      0.00
   -8   11    3     -0.15      0.00
   -7   11    3     -4.12      0.00
   -6   11    3     -3.25      0.00
   -5   11    3      2.55      0.00
   -4   11    3      1.96      0.00
   -3   11    3     -0.81      0.00
   -2   11    3      2.10      0.00
   -1   11    3     -4.77      0.00
    0   11    3      4.55      0.00
    1   11    3      2.94      0.00
    2   11    3      0.82      0.00
    3   11    3     -6.64      0.00
    5   11    3     10.98      0.00
    6   11    3     -6.68      0.00
    7   11    3      3.10      0.00
    8   11    3     -1.80      0.00
    9   11    3     -1.92      0.00
   10   11    3      0.51      0.00
   11   11    3     -2.43      0.00
   12   11    3     -2.44      0.00
   13   11    3      0.67      0.00
   14   11    3      0.57      0.00
   15   11    3      2.10      0.00
   16   11    3      0.58      0.00
  -10   12    3     -0.58      0.00
   -9   12    3     -0.01      0.00
   -8   12    3      1.57      0.00
   -7   12    3      1.63      0.00
   -6   12    3      0.53      0.00
   -5   12    3     -2.04      0.00
   -4   12    3     -0.29      0.00
   -3   12    3     -4.84      0.00
   -2   12    3     -0.88      0.00
   -1   12    3     -1.30      0.00
    0   12    3      2.42      0.00
    1   12    3      0.59      0.00
    2   12    3     -6.70      0.00
    4   12    3     10.53      0.00
    5   12    3     -5.78      0.00
    6   12    3     -6.14      0.00
    7   12    3      3.86      0.00
    8   12    3     -0.05      0.00
    9   12    3      3.07      0.00
   10   12    3      2.14      0.00
   11   12    3      0.94      0.00
   12   12    3     -0.49      0.00
   13   12    3     -0.48      0.00
   14   12    3     -2.56      0.00
   15   12    3     -0.66      0.00
   -9   13    3      1.81      0.00
   -8   13    3     -4.92      0.00
   -7   13    3     -0.10      0.00
   -6   13    3      1.10      0.00
   -5   13    3     -0.18      0.00
   -3   13    3    -11.58      0.00
   -2   13    3      5.08      0.00
   -1   13    3     -3.55      0.00
    0   13    3      5.50      0.00
    3   13    3      4.79      0.00
    4   13    3      0.14      0.00
    5   13    3     -3.45      0.00
    6   13    3      0.28      0.00
    7   13    3      2.87      0.00
    8   13    3     -1.89      0.00
    9   13    3      1.55      0.00
   10   13    3      0.52      0.00
   11   13    3      0.07      0.00
   12   13    3     -1.35      0.00
   13   13    3     -0.14      0.00
   14   13    3      3.44      0.00
   15   13    3      1.29      0.00
   -8   14    3     -3.99      0.00
   -7   14    3      3.65      0.00
   -6   14    3     -4.57      0.00
   -5   14    3      1.20      0.00
   -3   14    3      5.78      0.00
    1   14    3      0.14      0.00
    2   14    3      6.56      0.00
    3   14    3     -0.11      0.00
    4   14    3     -5.36      0.00
    5   14    3     -0.82      0.00
    6   14    3      4.70      0.00
    7   14    3     -1.31      0.00
    8   14    3      2.90      0.00
    9   14    3     -6.35      0.00
   10   14    3      3.46      0.00
   11   14    3     -0.53      0.00
   12   14    3     -0.21      0.00
   13   14    3     -3.67      0.00
   14   14    3      0.71      0.00
   -7   15    3      2.98      0.00
   -6   15    3     -1.75      0.00
   -5   15    3      3.23      0.00
   -1   15    3     -1.84      0.00
    0   15    3      3.62      0.00
    1   15    3     -4.05      0.00
    2   15    3      0.35      0.00
    3   15    3     -0.50      0.00
    4   15    3      3.24      0.00
    5   15    3     -0.04      0.00
    6   15    3     -2.67      0.00
    7   15    3     -0.74      0.00
    8   15    3      1.49      0.00
    9   15    3      1.30      0.00
   10   15    3      2.73      0.00
   11   15    3     -4.93      0.00
   12   15    3      2.70      0.00
   13   15    3      1.22      0.00
   -6   16    3     -0.43      0.00
   -5   16    3      3.51      0.00
   -2   16    3     -6.01      0.00
   -1   16    3      0.15      0.00
    0   16    3      4.64      0.00
    1   16    3     -1.69      0.00
    2   16    3      2.17      0.00
    3   16    3     -6.72      0.00
    4   16    3      0.81      0.00
    5   16    3      4.19      0.00
    6   16    3     -2.16      0.00
    7   16    3     -2.02      0.00
    8   16    3      0.10      0.00
    9   16    3      0.10      0.00
   10   16    3      0.30      0.00
   11   16    3     -1.16      0.00
   12   16    3      2.72      0.00
   13   16    3     -1.81      0.00
    0   17    3      0.78      0.00
    1   17    3      1.56      0.00
    2   17    3     -1.29      0.00
    3   17    3     -0.73      0.00
    4   17    3      3.64      0.00
    5   17    3     -3.78      0.00
    6   17    3     -1.74      0.00
    7   17    3     -0.47      0.00
    8   17    3     -1.38      0.00
    9   17    3      1.39      0.00
   10   17    3      0.75      0.00
   11   17    3     -5.55      0.00
   12   17    3      5.08      0.00
    0   18    3     -2.09      0.00
    1   18    3     -1.79      0.00
    2   18    3     -2.44      0.00
    3   18    3      1.15      0.00
    4   18    3      0.64      0.00
    5   18    3      1.70      0.00
    6   18    3     -7.28      0.00
    7   18    3      5.17      0.00
    8   18    3      5.24      0.00
    9   18    3      2.35      0.00
   10   18    3     -5.81      0.00
    1   19    3      2.54      0.00
    2   19    3     -1.82      0.00
    3   19    3      2.59      0.00
    4   19    3     -1.53      0.00
    5   19    3     -0.79      0.00
    6   19    3     -2.74      0.00
    7   19    3      2.37      0.00
    8   19    3     -4.90      0.00
   -4  -19    4     -0.90      0.00
   -3  -19    4      0.39      0.00
   -2  -19    4     -2.06      0.00
   -1  -19    4      0.18      0.00
   -7  -18    4      0.77      0.00
   -6  -18    4     -2.23      0.00
   -5  -18    4     -3.75      0.00
   -4  -18    4      0.69      0.00
   -3  -18    4      1.11      0.00
   -2  -18    4     -2.51      0.00
   -1  -18    4      0.36      0.00
    1  -18    4     -8.26      0.00
    2  -18    4     -4.26      0.00
    3  -18    4      5.64      0.00
   -9  -17    4      4.23      0.00
   -8  -17    4     -9.36      0.00
   -7  -17    4      2.91      0.00
   -6  -17    4     -3.03      0.00
   -5  -17    4     -1.29      0.00
   -4  -17    4     -0.40      0.00
   -3  -17    4     -0.35      0.00
   -2  -17    4     -3.16      0.00
   -1  -17    4     -0.44      0.00
    0  -17    4     -0.45      0.00
    2  -17    4      5.89      0.00
    3  -17    4     -4.08      0.00
    4  -17    4     -1.64      0.00
    5  -17    4     10.04      0.00
  -10  -16    4     -5.88      0.00
   -9  -16    4      2.56      0.00
   -8  -16    4     -3.03      0.00
   -7  -16    4      7.09      0.00
   -6  -16    4     -2.68      0.00
   -5  -16    4      2.57      0.00
   -4  -16    4     -0.08      0.00
   -3  -16    4      0.16      0.00
   -2  -16    4      3.17      0.00
   -1  -16    4      2.04      0.00
    0  -16    4     -0.33      0.00
    2  -16    4     -1.86      0.00
    3  -16    4      0.93      0.00
    4  -16    4      1.06      0.00
    5  -16    4     -9.34      0.00
    6  -16    4      0.92      0.00
    7  -16    4      7.20      0.00
  -11  -15    4     -0.88      0.00
  -10  -15    4      1.10      0.00
   -9  -15    4      4.62      0.00
   -8  -15    4      3.28      0.00
   -7  -15    4      0.18      0.00
   -6  -15    4     -1.01      0.00
   -5  -15    4      4.23      0.00
   -4  -15    4     -1.46      0.00
   -3  -15    4      4.91      0.00
   -2  -15    4      0.55      0.00
   -1  -15    4     -0.46      0.00
    0  -15    4     -3.20      0.00
    1  -15    4      2.52      0.00
    2  -15    4      3.03      0.00
    3  -15    4      1.59      0.00
    4  -15    4     -0.24      0.00
    5  -15    4      5.55      0.00
    6  -15    4     -2.51      0.00
    7  -15    4     -8.94      0.00
    8  -15    4     -6.63      0.00
  -12  -14    4      1.50      0.00
  -11  -14    4     -0.07      0.00
  -10  -14    4      1.54      0.00
   -9  -14    4     -2.06      0.00
   -8  -14    4      4.93      0.00
   -7  -14    4     -1.62      0.00
   -6  -14    4     -1.16      0.00
   -5  -14    4      1.34      0.00
   -4  -14    4     -6.74      0.00
   -3  -14    4     -0.02      0.00
   -2  -14    4     -3.03      0.00
   -1  -14    4     -3.61      0.00
    0  -14    4      4.55      0.00
    1  -14    4      4.07      0.00
    2  -14    4     -8.41      0.00
    3  -14    4     -3.90      0.00
    4  -14    4     -1.13      0.00
    5  -14    4      0.42      0.00
    6  -14    4      3.65      0.00
    7  -14    4     11.18      0.00
    8  -14    4     -0.43      0.00
    9  -14    4     -0.83      0.00
  -13  -13    4     -2.93      0.00
  -12  -13    4      0.74      0.00
  -11  -13    4     -2.10      0.00
  -10  -13    4      3.43      0.00
   -9  -13    4     -2.33      0.00
   -8  -13    4      1.76      0.00
   -7  -13    4     -4.84      0.00
   -6  -13    4      0.95      0.00
   -5  -13    4      1.05      0.00
   -4  -13    4      0.04      0.00
   -3  -13    4      7.15      0.00
   -2  -13    4     -4.42      0.00
   -1  -13    4     -3.41      0.00
    0  -13    4      1.48      0.00
    1  -13    4     -0.27      0.00
    2  -13    4     -3.07      0.00
    3  -13    4      3.88      0.00
    4  -13    4      4.53      0.00
    5  -13    4     -0.25      0.00
    6  -13    4     -4.45      0.00
    7  -13    4     -5.14      0.00
    8  -13    4      2.84      0.00
    9  -13    4      4.67      0.00
   10  -13    4      0.34      0.00
  -13  -12    4     -2.21      0.00
  -12  -12    4      4.03      0.00
  -11  -12    4     -1.32      0.00
  -10  -12    4     -2.55      0.00
   -9  -12    4     -1.80      0.00
   -8  -12    4      6.57      0.00
   -7  -12    4     -7.47      0.00
   -6  -12    4      1.00      0.00
   -5  -12    4     -1.19      0.00
   -4  -12    4     -3.19      0.00
   -3  -12    4      2.12      0.00
   -2  -12    4      0.21      0.00
   -1  -12    4      2.90      0.00
    0  -12    4      7.12      0.00
    1  -12    4     -4.98      0.00
    2  -12    4      1.55      0.00
    3  -12    4      6.17      0.00
    4  -12    4     -1.83      0.00
    5  -12    4     -3.21      0.00
    6  -12    4      5.07      0.00
    7  -12    4      0.83      0.00
    8  -12    4     -1.70      0.00
    9  -12    4     -5.49      0.00
   10  -12    4      3.80      0.00
   11  -12    4      2.88      0.00
  -13  -11    4      2.31      0.00
  -12  -11    4      0.71      0.00
  -11  -11    4      0.67      0.00
  -10  -11    4      1.55      0.00
   -9  -11    4     -1.55      0.00
   -8  -11    4      1.87      0.00
   -7  -11    4     -1.03      0.00
   -6  -11    4      6.02      0.00
   -5  -11    4     -3.07      0.00
   -4  -11    4      4.03      0.00
   -3  -11    4     -1.75      0.00
   -2  -11    4     -1.76      0.00
   -1  -11    4      1.24      0.00
    0  -11    4     -1.86      0.00
    1  -11    4     -4.45      0.00
    2  -11    4      1.70      0.00
    3  -11    4     -0.80      0.00
    4  -11    4     -2.37      0.00
    5  -11    4     -0.20      0.00
    6  -11    4      0.28      0.00
    7  -11    4      0.32      0.00
    8  -11    4     -0.34      0.00
    9  -11    4     -0.21      0.00
   10  -11    4      1.70      0.00
   11  -11    4     -3.83      0.00
   12  -11    4      0.83      0.00
  -13  -10    4      4.75      0.00
  -12  -10    4     -4.12      0.00
  -11  -10    4     -1.55      0.00
  -10  -10    4     -3.44      0.00
   -9  -10    4      4.18      0.00
   -8  -10    4      6.69      0.00
   -7  -10    4     -9.88      0.00
   -6  -10    4      2.49      0.00
   -5  -10    4     -1.39      0.00
   -4  -10    4      4.17      0.00
   -3  -10    4      1.51      0.00
   -2  -10    4      2.16      0.00
   -1  -10    4     -1.96      0.00
    0  -10    4      2.31      0.00
    1  -10    4      0.99      0.00
    2  -10    4      2.22      0.00
    3  -10    4     -5.95      0.00
    4  -10    4      4.88      0.00
    5  -10    4     -0.77      0.00
    6  -10    4      2.46      0.00
    7  -10    4      0.96      0.00
    8  -10    4      3.27      0.00
    9  -10    4      0.87      0.00
   10  -10    4      2.74      0.00
   11  -10    4     -3.07      0.00
   12  -10    4     -2.60      0.00
  -13   -9    4     -3.67      0.00
  -12   -9    4     -3.84      0.00
  -11   -9    4      1.97      0.00
  -10   -9    4      1.24      0.00
   -9   -9    4      2.99      0.00
   -8   -9    4     -5.01      0.00
   -7   -9    4     -3.90      0.00
   -6   -9    4      8.05      0.00
   -5   -9    4      0.38      0.00
   -4   -9    4      3.64      0.00
   -3   -9    4    -11.07      0.00
   -2   -9    4     -4.31      0.00
   -1   -9    4      3.15      0.00
    0   -9    4      0.71      0.00
    1   -9    4      1.45      0.00
    2   -9    4     -2.10      0.00
    3   -9    4      1.76      0.00
    4   -9    4      1.70      0.00
    5   -9    4     -3.16      0.00
    6   -9    4      0.82      0.00
    7   -9    4     -1.54      0.00
    8   -9    4     -5.90      0.00
    9   -9    4      1.14      0.00
   10   -9    4     -2.76      0.00
   11   -9    4      4.15      0.00
   12   -9    4     -0.07      0.00
   13   -9    4      2.62      0.00
  -12   -8    4     -1.21      0.00
  -11   -8    4      4.62      0.00
  -10   -8    4      7.12      0.00
   -9   -8    4     -7.54      0.00
   -8   -8    4     -1.84      0.00
   -7   -8    4      6.33      0.00
   -6   -8    4     -1.84      0.00
   -5   -8    4     -3.68      0.00
   -4   -8    4     -1.96      0.00
   -3   -8    4     -2.79      0.00
   -2   -8    4      3.34      0.00
   -1   -8    4      2.47      0.00
    0   -8    4    -11.28      0.00
    1   -8    4     -0.92      0.00
    2   -8    4     -3.58      0.00
    3   -8    4      4.96      0.00
    4   -8    4      0.35      0.00
    5   -8    4     -0.29      0.00
    6   -8    4     -0.02      0.00
    7   -8    4     -2.49      0.00
    8   -8    4      0.80      0.00
    9   -8    4      2.02      0.00
   10   -8    4      0.23      0.00
   11   -8    4      2.06      0.00
   12   -8    4     -8.45      0.00
   13   -8    4      4.07      0.00
   14   -8    4     -2.45      0.00
  -12   -7    4     -0.70      0.00
  -11   -7    4      4.56      0.00
  -10   -7    4     -6.42      0.00
   -9   -7    4     -7.34      0.00
   -8   -7    4      5.44      0.00
   -7   -7    4      4.09      0.00
   -6   -7    4     -3.31      0.00
   -5   -7    4     -0.17      0.00
   -4   -7    4     -0.26      0.00
   -3   -7    4      2.22      0.00
   -2   -7    4     11.75      0.00
   -1   -7    4     -2.19      0.00
    0   -7    4     -3.99      0.00
    1   -7    4      8.23      0.00
    2   -7    4     -2.57      0.00
    3   -7    4     -0.34      0.00
    4   -7    4     -1.95      0.00
    5   -7    4     -3.63      0.00
    6   -7    4     -4.00      0.00
    7   -7    4      0.51      0.00
    8   -7    4      8.17      0.00
    9   -7    4     -3.62      0.00
   10   -7    4     -2.13      0.00
   11   -7    4      3.36      0.00
   12   -7    4     -1.68      0.00
   13   -7    4      9.84      0.00
   14   -7    4     -4.06      0.00
  -13   -6    4     -1.81      0.00
  -12   -6    4      4.46      0.00
  -11   -6    4     -2.88      0.00
  -10   -6    4     -5.84      0.00
   -9   -6    4      6.16      0.00
   -8   -6    4      3.39      0.00
   -7   -6    4     -4.24      0.00
   -6   -6    4     -6.83      0.00
   -5   -6    4      4.87      0.00
   -4   -6    4      2.16      0.00
   -3   -6    4      5.31      0.00
   -2   -6    4    -12.32      0.00
   -1   -6    4     -3.45      0.00
    0   -6    4      6.60      0.00
    1   -6    4     10.70      0.00
    2   -6    4     -9.09      0.00
    3   -6    4     11.29      0.00
    4   -6    4      2.08      0.00
    5   -6    4     -5.84      0.00
    6   -6    4      1.40      0.00
    7   -6    4      1.84      0.00
    8   -6    4      2.82      0.00
    9   -6    4    -12.62      0.00
   10   -6    4      4.57      0.00
   11   -6    4     -1.71      0.00
   12   -6    4     -5.08      0.00
   13   -6    4     -0.55      0.00
   14   -6    4     -3.70      0.00
   15   -6    4      1.85      0.00
  -14   -5    4     -0.50      0.00
  -13   -5    4      2.79      0.00
  -12   -5    4     -0.69      0.00
  -11   -5    4     -3.06      0.00
  -10   -5    4      2.42      0.00
   -9   -5    4      4.01      0.00
   -8   -5    4     -5.56      0.00
   -7   -5    4     -1.05      0.00
   -6   -5    4      3.51      0.00
   -5   -5    4     -3.49      0.00
   -4   -5    4     11.95      0.00
   -3   -5    4     -8.06      0.00
   -2   -5    4    -10.87      0.00
   -1   -5    4      9.13      0.00
    0   -5    4      1.04      0.00
    1   -5    4     -5.03      0.00
    2   -5    4      5.43      0.00
    3   -5    4      7.20      0.00
    4   -5    4     -1.14      0.00
    5   -5    4     -3.06      0.00
    6   -5    4     11.53      0.00
    7   -5    4      3.04      0.00
    8   -5    4     -0.96      0.00
    9   -5    4     -0.16      0.00
   10   -5    4      5.76      0.00
   11   -5    4      0.04      0.00
   12   -5    4      1.08      0.00
   13   -5    4     -1.24      0.00
   14   -5    4     -2.31      0.00
   15   -5    4      4.61      0.00
  -15   -4    4      3.50      0.00
  -14   -4    4     -4.20      0.00
  -13   -4    4     -2.27      0.00
  -12   -4    4     -2.47      0.00
  -11   -4    4     -4.55      0.00
  -10   -4    4      8.17      0.00
   -9   -4    4     -3.03      0.00
   -8   -4    4     -5.06      0.00
   -7   -4    4      5.57      0.00
   -6   -4    4      2.80      0.00
   -5   -4    4      5.79      0.00
   -4   -4    4     -8.79      0.00
   -3   -4    4     -3.47      0.00
   -2   -4    4      9.94      0.00
   -1   -4    4      9.67      0.00
    0   -4    4    -10.86      0.00
    1   -4    4    -11.95      0.00
    2   -4    4     -6.36      0.00
    3   -4    4     -2.99      0.00
    4   -4    4     -7.31      0.00
    5   -4    4      0.70      0.00
    6   -4    4      4.78      0.00
    7   -4    4     -7.65      0.00
    8   -4    4      2.81      0.00
    9   -4    4     -5.02      0.00
   10   -4    4      4.18      0.00
   11   -4    4     -2.15      0.00
   12   -4    4     -0.38      0.00
   13   -4    4      2.13      0.00
   14   -4    4      5.32      0.00
   15   -4    4      0.17      0.00
   16   -4    4     -2.62      0.00
  -15   -3    4      1.60      0.00
  -14   -3    4      0.22      0.00
  -13   -3    4     -0.45      0.00
  -12   -3    4      1.57      0.00
  -11   -3    4      3.31      0.00
  -10   -3    4     -0.86      0.00
   -9   -3    4     -9.87      0.00
   -8   -3    4      4.93      0.00
   -7   -3    4      2.72      0.00
   -6   -3    4     -2.28      0.00
   -5   -3    4      4.77      0.00
   -4   -3    4      1.43      0.00
   -3   -3    4     -0.43      0.00
   -2   -3    4    -13.71      0.00
   -1   -3    4     11.54      0.00
    0   -3    4      5.62      0.00
    1   -3    4     16.72      0.00
    2   -3    4      4.73      0.00
    3   -3    4     -3.02      0.00
    4   -3    4     -3.64      0.00
    5   -3    4     -0.12      0.00
    6   -3    4     -2.48      0.00
    7   -3    4     -2.52      0.00
    8   -3    4     -2.64      0.00
    9   -3    4     -2.13      0.00
   10   -3    4     -3.09      0.00
   11   -3    4      0.87      0.00
   12   -3    4     -6.12      0.00
   13   -3    4     -7.43      0.00
   14   -3    4      2.54      0.00
   15   -3    4     -5.92      0.00
   16   -3    4     -3.24      0.00
  -15   -2    4      3.78      0.00
  -14   -2    4     -5.57      0.00
  -13   -2    4      1.11      0.00
  -12   -2    4     -1.06      0.00
  -11   -2    4      1.93      0.00
  -10   -2    4      3.57      0.00
   -9   -2    4     -0.47      0.00
   -8   -2    4     -4.80      0.00
   -7   -2    4      3.77      0.00
   -6   -2    4      0.10      0.00
   -5   -2    4     -3.99      0.00
   -4   -2    4    -19.94      0.00
   -3   -2    4     20.18      0.00
   -2   -2    4      2.79      0.00
   -1   -2    4    -12.87      0.00
    0   -2    4    -18.33      0.00
    1   -2    4    -23.80      0.00
    2   -2    4     26.62      0.00
    3   -2    4     19.99      0.00
    4   -2    4     -5.34      0.00
    5   -2    4      7.18      0.00
    6   -2    4      5.24      0.00
    7   -2    4      1.32      0.00
    8   -2    4      7.07      0.00
    9   -2    4     -1.42      0.00
   10   -2    4      4.49      0.00
   11   -2    4      2.63      0.00
   12   -2    4      0.85      0.00
   13   -2    4      6.58      0.00
   14   -2    4      1.37      0.00
   15   -2    4     -3.23      0.00
   16   -2    4      1.55      0.00
  -15   -1    4      1.54      0.00
  -14   -1    4     -3.31      0.00
  -13   -1    4      6.21      0.00
  -12   -1    4     -1.82      0.00
  -11   -1    4     -1.39      0.00
  -10   -1    4     -0.36      0.00
   -9   -1    4     -0.86      0.00
   -8   -1    4      4.98      0.00
   -7   -1    4      4.70      0.00
   -6   -1    4     -4.60      0.00
   -5   -1    4     -5.85      0.00
   -4   -1    4     11.58      0.00
   -3   -1    4      3.91      0.00
   -2   -1    4    -36.53      0.00
   -1   -1    4     44.49      0.00
    1   -1    4      8.35      0.00
    2   -1    4     -5.01      0.00
    3   -1    4    -47.39      0.00
    4   -1    4    -13.75      0.00
    5   -1    4     25.43      0.00
    6   -1    4     -4.35      0.00
    7   -1    4     -5.45      0.00
    8   -1    4     -2.10      0.00
    9   -1    4     -2.45      0.00
   10   -1    4     -0.73      0.00
   11   -1    4      3.76      0.00
   12   -1    4     -4.86      0.00
   13   -1    4      4.36      0.00
   14   -1    4      3.65      0.00
   15   -1    4     -5.80      0.00
   16   -1    4      0.07      0.00
  -15    0    4      3.19      0.00
  -14    0    4     -6.50      0.00
  -13    0    4      3.46      0.00
  -12    0    4     -2.16      0.00
  -11    0    4      4.34      0.00
  -10    0    4     -0.36      0.00
   -9    0    4     -1.68      0.00
   -8    0    4      0.60      0.00
   -7    0    4      5.06      0.00
   -6    0    4    -12.79      0.00
   -5    0    4      4.59      0.00
   -4    0    4      7.69      0.00
   -3    0    4      6.85      0.00
   -2    0    4     -1.82      0.00
   -1    0    4      6.35      0.00
    0    0    4      5.60      0.00
    2    0    4     20.81      0.00
    3    0    4    -33.50      0.00
    4    0    4     32.27      0.00
    5    0    4      7.04      0.00
    6    0    4    -25.67      0.00
    7    0    4      5.41      0.00
    8    0    4      4.28      0.00
    9    0    4      3.22      0.00
   10    0    4      0.48      0.00
   11    0    4      1.28      0.00
   12    0    4     -4.11      0.00
   13    0    4      2.54      0.00
   14    0    4     -4.17      0.00
   15    0    4     -1.14      0.00
   16    0    4      4.81      0.00
   17    0    4      4.50      0.00
  -15    1    4     -5.37      0.00
  -14    1    4      2.26      0.00
  -13    1    4      4.68      0.00
  -12    1    4      0.10      0.00
  -11    1    4      0.78      0.00
  -10    1    4      0.59      0.00
   -9    1    4     -2.35      0.00
   -8    1    4     -1.47      0.00
   -7    1    4     -5.21      0.00
   -6    1    4     -3.05      0.00
   -5    1    4      6.54      0.00
   -4    1    4     -4.48      0.00
   -3    1    4    -15.72      0.00
   -2    1    4     -8.40      0.00
   -1    1    4     26.05      0.00
    0    1    4    -22.80      0.00
    2    1    4    -17.71      0.00
    3    1    4      5.71      0.00
    4    1    4     53.19      0.00
    5    1    4    -26.51      0.00
    6    1    4     -9.86      0.00
    7    1    4     15.32      0.00
    8    1    4     -0.03      0.00
    9    1    4      0.32      0.00
   10    1    4     -3.73      0.00
   11    1    4      0.53      0.00
   12    1    4      0.33      0.00
   13    1    4      3.11      0.00
   14    1    4     -4.80      0.00
   15    1    4      0.12      0.00
   16    1    4      2.98      0.00
   17    1    4     -0.98      0.00
  -14    2    4     -2.43      0.00
  -13    2    4     -1.91      0.00
  -12    2    4     -0.11      0.00
  -11    2    4     -7.39      0.00
  -10    2    4      5.51      0.00
   -9    2    4     -1.43      0.00
   -8    2    4      4.19      0.00
   -7    2    4     -0.32      0.00
   -6    2    4      2.73      0.00
   -5    2    4      0.72      0.00
   -4    2    4     -3.50      0.00
   -3    2    4     12.09      0.00
   -2    2    4      3.39      0.00
   -1    2    4     -2.40      0.00
    0    2    4     -7.04      0.00
    1    2    4    -22.77      0.00
    2    2    4     22.66      0.00
    3    2    4      4.87      0.00
    4    2    4    -21.40      0.00
    5    2    4    -29.71      0.00
    6    2    4     15.24      0.00
    7    2    4      6.02      0.00
    8    2    4     -9.56      0.00
    9    2    4      1.73      0.00
   10    2    4     -4.69      0.00
   11    2    4      6.28      0.00
   12    2    4     -0.68      0.00
   13    2    4     -2.42      0.00
   14    2    4     -0.63      0.00
   15    2    4      3.19      0.00
   16    2    4     -1.77      0.00
   17    2    4     -3.33      0.00
  -14    3    4     -6.24      0.00
  -13    3    4     -0.71      0.00
  -12    3    4      1.80      0.00
  -11    3    4      2.33      0.00
  -10    3    4     -0.38      0.00
   -9    3    4     -3.86      0.00
   -8    3    4      3.34      0.00
   -7    3    4     -1.10      0.00
   -6    3    4      0.35      0.00
   -5    3    4     -3.56      0.00
   -4    3    4      6.95      0.00
   -3    3    4      0.60      0.00
   -2    3    4     -3.64      0.00
   -1    3    4      6.13      0.00
    0    3    4      1.32      0.00
    1    3    4      8.20      0.00
    2    3    4     12.87      0.00
    3    3    4     -7.98      0.00
    4    3    4     -2.29      0.00
    5    3    4     -7.72      0.00
    6    3    4     21.21      0.00
    7    3    4     -2.85      0.00
    8    3    4      4.12      0.00
    9    3    4     -6.99      0.00
   10    3    4     -0.61      0.00
   11    3    4      4.61      0.00
   12    3    4      0.25      0.00
   13    3    4     -2.49      0.00
   14    3    4     -0.74      0.00
   15    3    4      5.99      0.00
   16    3    4      1.21      0.00
   17    3    4      2.13      0.00
  -14    4    4     -4.51      0.00
  -13    4    4     10.14      0.00
  -12    4    4     -0.06      0.00
  -11    4    4     -6.79      0.00
  -10    4    4      6.06      0.00
   -9    4    4      0.86      0.00
   -8    4    4      0.15      0.00
   -7    4    4     -6.30      0.00
   -6    4    4      4.61      0.00
   -5    4    4      0.28      0.00
   -4    4    4     -2.04      0.00
   -3    4    4     -1.11      0.00
   -2    4    4    -12.04      0.00
   -1    4    4      8.35      0.00
    0    4    4      9.24      0.00
    1    4    4     -3.07      0.00
    2    4    4      3.87      0.00
    3    4    4    -13.86      0.00
    4    4    4     -2.60      0.00
    5    4    4     -0.52      0.00
    6    4    4      5.33      0.00
    7    4    4    -11.99      0.00
    8    4    4     -2.94      0.00
    9    4    4      4.05      0.00
   10    4    4      2.01      0.00
   11    4    4     -1.21      0.00
   12    4    4     -3.00      0.00
   13    4    4     -1.69      0.00
   14    4    4      0.92      0.00
   15    4    4      4.23      0.00
   16    4    4     -4.93      0.00
   17    4    4     -3.37      0.00
  -13    5    4      4.97      0.00
  -12    5    4     -7.17      0.00
  -11    5    4     -2.03      0.00
  -10    5    4      3.01      0.00
   -9    5    4     -2.32      0.00
   -8    5    4     -0.72      0.00
   -7    5    4      4.32      0.00
   -6    5    4      3.96      0.00
   -5    5    4     -4.87      0.00
   -4    5    4      0.30      0.00
   -3    5    4      1.41      0.00
   -2    5    4      3.16      0.00
   -1    5    4      8.11      0.00
    0    5    4    -11.92      0.00
    1    5    4    -22.78      0.00
    2    5    4     13.46      0.00
    3    5    4     -1.00      0.00
    4    5    4     11.49      0.00
    5    5    4     -5.30      0.00
    6    5    4     18.39      0.00
    7    5    4     -7.71      0.00
    8    5    4     -2.75      0.00
    9    5    4      0.04      0.00
   10    5    4      0.42      0.00
   11    5    4      2.70      0.00
   12    5    4      0.39      0.00
   13    5    4     -3.83      0.00
   14    5    4      5.65      0.00
   15    5    4      1.65      0.00
   16    5    4     -6.70      0.00
   17    5    4      2.65      0.00
  -13    6    4      4.31      0.00
  -12    6    4     -6.77      0.00
  -11    6    4      5.44      0.00
  -10    6    4      2.45      0.00
   -9    6    4     -9.03      0.00
   -8    6    4      2.80      0.00
   -7    6    4      5.84      0.00
   -6    6    4     -0.59      0.00
   -5    6    4      0.39      0.00
   -4    6    4     -2.80      0.00
   -3    6    4      2.64      0.00
   -2    6    4     -1.79      0.00
   -1    6    4      5.74      0.00
    0    6    4     -0.66      0.00
    1    6    4     15.16      0.00
    2    6    4      4.13      0.00
    3    6    4    -15.35      0.00
    4    6    4     -3.00      0.00
    5    6    4     -3.03      0.00
    6    6    4      0.65      0.00
    7    6    4    -12.14      0.00
    8    6    4      7.09      0.00
    9    6    4      2.03      0.00
   10    6    4     -1.33      0.00
   11    6    4     -1.54      0.00
   12    6    4     -2.56      0.00
   13    6    4      1.83      0.00
   14    6    4      6.75      0.00
   15    6    4     -2.67      0.00
   16    6    4     -3.31      0.00
   17    6    4      1.47      0.00
  -13    7    4    -12.94      0.00
  -12    7    4     -2.01      0.00
  -11    7    4     -0.95      0.00
  -10    7    4     -3.71      0.00
   -9    7    4     -3.11      0.00
   -8    7    4      6.97      0.00
   -7    7    4     -3.06      0.00
   -6    7    4     -9.22      0.00
   -5    7    4      0.43      0.00
   -4    7    4     -0.36      0.00
   -3    7    4      6.80      0.00
   -2    7    4     -7.37      0.00
   -1    7    4     -5.36      0.00
    0    7    4     -5.97      0.00
    1    7    4      5.83      0.00
    2    7    4      5.43      0.00
    3    7    4     -0.18      0.00
    4    7    4      9.92      0.00
    5    7    4     -1.76      0.00
    6    7    4      3.22      0.00
    7    7    4      1.66      0.00
    8    7    4      1.40      0.00
    9    7    4     -2.66      0.00
   10    7    4     -4.31      0.00
   11    7    4      0.58      0.00
   12    7    4     -4.29      0.00
   13    7    4     -1.92      0.00
   14    7    4     -2.25      0.00
   15    7    4     -7.41      0.00
   16    7    4      3.15      0.00
   17    7    4      2.90      0.00
  -12    8    4      5.06      0.00
  -11    8    4      0.35      0.00
  -10    8    4      0.18      0.00
   -9    8    4      3.73      0.00
   -8    8    4      5.73      0.00
   -7    8    4     -4.39      0.00
   -6    8    4     -1.89      0.00
   -5    8    4      8.75      0.00
   -4    8    4     -4.91      0.00
   -3    8    4      1.88      0.00
   -2    8    4     -3.94      0.00
   -1    8    4      4.70      0.00
    0    8    4      1.28      0.00
    1    8    4     -0.29      0.00
    2    8    4    -17.73      0.00
    3    8    4      9.13      0.00
    4    8    4      2.81      0.00
    5    8    4     -0.05      0.00
    6    8    4      0.04      0.00
    7    8    4      6.07      0.00
    8    8    4      2.48      0.00
    9    8    4     -4.60      0.00
   10    8    4      8.27      0.00
   11    8    4      0.51      0.00
   12    8    4      3.47      0.00
   13    8    4      3.46      0.00
   14    8    4      1.52      0.00
   15    8    4     -1.37      0.00
   16    8    4      5.23      0.00
   17    8    4      2.34      0.00
  -12    9    4      1.69      0.00
  -11    9    4     -3.74      0.00
  -10    9    4      1.49      0.00
   -9    9    4     -0.30      0.00
   -8    9    4     -1.29      0.00
   -7    9    4     -4.26      0.00
   -6    9    4      3.34      0.00
   -5    9    4      3.66      0.00
   -4    9    4     -0.90      0.00
   -3    9    4      5.23      0.00
   -2    9    4     -2.93      0.00
   -1    9    4      3.47      0.00
    0    9    4     -0.48      0.00
    1    9    4      1.88      0.00
    2    9    4     -2.12      0.00
    3    9    4      0.92      0.00
    4    9    4     -3.72      0.00
    5    9    4      2.64      0.00
    6    9    4     -1.11      0.00
    7    9    4     -2.20      0.00
    8    9    4    -11.04      0.00
    9    9    4      8.47      0.00
   10    9    4      0.10      0.00
   11    9    4     -1.92      0.00
   12    9    4     -2.70      0.00
   13    9    4      0.99      0.00
   14    9    4      3.08      0.00
   15    9    4     -3.20      0.00
   16    9    4     -2.72      0.00
  -11   10    4     -3.28      0.00
  -10   10    4     -2.38      0.00
   -9   10    4      3.29      0.00
   -8   10    4     -2.98      0.00
   -7   10    4     -4.01      0.00
   -6   10    4     -0.28      0.00
   -5   10    4     -0.93      0.00
   -4   10    4     -5.12      0.00
   -3   10    4     -3.15      0.00
   -2   10    4     -1.47      0.00
   -1   10    4     -3.44      0.00
    0   10    4      1.38      0.00
    1   10    4      0.67      0.00
    2   10    4      1.21      0.00
    3   10    4      6.32      0.00
    4   10    4      0.17      0.00
    5   10    4     -0.80      0.00
    6   10    4     -4.71      0.00
    7   10    4      5.86      0.00
    8   10    4     -0.32      0.00
    9   10    4      1.67      0.00
   10   10    4     -2.06      0.00
   11   10    4     -4.76      0.00
   12   10    4      0.82      0.00
   13   10    4     -1.50      0.00
   14   10    4     -2.92      0.00
   15   10    4     -2.34      0.00
   16   10    4      4.07      0.00
  -10   11    4      2.76      0.00
   -9   11    4      0.68      0.00
   -8   11    4     -2.14      0.00
   -7   11    4      1.33      0.00
   -6   11    4      1.48      0.00
   -5   11    4      0.75      0.00
   -4   11    4      1.17      0.00
   -3   11    4     -3.04      0.00
   -2   11    4     -0.01      0.00
   -1   11    4      1.68      0.00
    0   11    4      1.15      0.00
    1   11    4     -4.29      0.00
    2   11    4     -2.88      0.00
    3   11    4      5.77      0.00
    4   11    4      2.86      0.00
    5   11    4     -8.96      0.00
    6   11    4      2.75      0.00
    7   11    4      3.51      0.00
    8   11    4     -4.33      0.00
    9   11    4      7.00      0.00
   10   11    4     -1.46      0.00
   11   11    4      3.85      0.00
   12   11    4      1.21      0.00
   13   11    4      0.92      0.00
   14   11    4     -0.17      0.00
   15   11    4     -1.54      0.00
   16   11    4     -1.91      0.00
   -9   12    4      1.36      0.00
   -8   12    4     -4.56      0.00
   -7   12    4      2.08      0.00
   -6   12    4     -0.44      0.00
   -5   12    4      0.88      0.00
   -4   12    4      2.50      0.00
   -3   12    4     -3.30      0.00
   -2   12    4      8.33      0.00
   -1   12    4     -5.76      0.00
    0   12    4      4.06      0.00
    1   12    4     -3.13      0.00
    2   12    4      2.87      0.00
    3   12    4     -3.11      0.00
    4   12    4     -8.14      0.00
    6   12    4      5.07      0.00
    7   12    4      0.58      0.00
    8   12    4     -4.12      0.00
    9   12    4      0.29      0.00
   10   12    4     -1.86      0.00
   11   12    4      1.23      0.00
   12   12    4     -1.73      0.00
   13   12    4     -0.18      0.00
   14   12    4     -0.03      0.00
   15   12    4      0.09      0.00
   -9   13    4      5.49      0.00
   -8   13    4     -4.63      0.00
   -7   13    4      8.26      0.00
   -6   13    4     -6.32      0.00
   -5   13    4      6.56      0.00
   -4   13    4     -0.63      0.00
   -3   13    4      1.93      0.00
   -2   13    4      4.78      0.00
   -1   13    4     -4.79      0.00
    0   13    4      0.93      0.00
    1   13    4     -0.91      0.00
    2   13    4      3.61      0.00
    3   13    4     -0.43      0.00
    5   13    4     -0.46      0.00
    6   13    4      0.08      0.00
    7   13    4     -2.96      0.00
    8   13    4      1.99      0.00
    9   13    4     -1.78      0.00
   10   13    4     -0.60      0.00
   11   13    4      1.24      0.00
   12   13    4      1.03      0.00
   13   13    4      0.32      0.00
   14   13    4     -2.52      0.00
   15   13    4      0.41      0.00
   -8   14    4     -5.45      0.00
   -7   14    4      4.39      0.00
   -6   14    4     -2.58      0.00
   -5   14    4      3.61      0.00
   -4   14    4     -5.81      0.00
   -3   14    4     -4.09      0.00
   -2   14    4      2.60      0.00
   -1   14    4     -2.67      0.00
    0   14    4      8.26      0.00
    1   14    4     -5.31      0.00
    4   14    4      4.52      0.00
    5   14    4      1.35      0.00
    6   14    4     -4.35      0.00
    7   14    4     -1.14      0.00
    8   14    4      2.04      0.00
    9   14    4      2.23      0.00
   10   14    4      3.13      0.00
   11   14    4      1.31      0.00
   12   14    4     -2.66      0.00
   13   14    4      1.68      0.00
   14   14    4      1.67      0.00
   -7   15    4      7.24      0.00
   -6   15    4     -3.92      0.00
   -5   15    4      5.69      0.00
   -4   15    4    -10.47      0.00
   -3   15    4      7.52      0.00
    3   15    4     -2.97      0.00
    4   15    4     -0.71      0.00
    5   15    4     -3.10      0.00
    6   15    4      1.01      0.00
    7   15    4      1.74      0.00
    8   15    4      1.97      0.00
    9   15    4     -6.27      0.00
   10   15    4      1.55      0.00
   11   15    4      2.04      0.00
   12   15    4     -0.12      0.00
   13   15    4     -4.29      0.00
   14   15    4      1.18      0.00
   -5   16    4     -3.45      0.00
   -4   16    4     -0.67      0.00
   -1   16    4      1.71      0.00
    0   16    4     -2.15      0.00
    1   16    4     -0.43      0.00
    2   16    4      0.18      0.00
    3   16    4     -1.11      0.00
    4   16    4      4.29      0.00
    5   16    4     -5.06      0.00
    6   16    4     -1.42      0.00
    7   16    4      4.13      0.00
    8   16    4     -0.86      0.00
    9   16    4     -1.68      0.00
   10   16    4      1.57      0.00
   11   16    4     -2.78      0.00
   12   16    4     -0.52      0.00
   13   16    4      0.46      0.00
    0   17    4      0.02      0.00
    1   17    4     -0.40      0.00
    2   17    4     -2.73      0.00
    3   17    4     -1.66      0.00
    4   17    4      0.02      0.00
    5   17    4      2.28      0.00
    6   17    4     -2.26      0.00
    7   17    4      4.46      0.00
    8   17    4     -2.19      0.00
    9   17    4     -1.61      0.00
   10   17    4     -0.29      0.00
   11   17    4      7.49      0.00
   12   17    4     -2.68      0.00
    0   18    4      2.12      0.00
    1   18    4      2.00      0.00
    2   18    4     -0.59      0.00
    3   18    4      0.73      0.00
    4   18    4      0.72      0.00
    5   18    4     -1.64      0.00
    6   18    4      2.27      0.00
    7   18    4      2.15      0.00
    8   18    4     -9.64      0.00
    9   18    4      1.79      0.00
   10   18    4      5.99      0.00
    1   19    4     -3.84      0.00
    2   19    4     -1.95      0.00
    3   19    4      1.20      0.00
    4   19    4      3.04      0.00
    5   19    4      1.13      0.00
    6   19    4     -2.55      0.00
    7   19    4      2.97      0.00
    8   19    4     -0.51      0.00
   -6  -18    5      0.44      0.00
   -5  -18    5     -1.02      0.00
   -4  -18    5      2.39      0.00
   -3  -18    5     -2.60      0.00
   -2  -18    5     -0.69      0.00
   -1  -18    5      2.30      0.00
    1  -18    5      1.47      0.00
    2  -18    5      8.87      0.00
   -8  -17    5     -0.73      0.00
   -7  -17    5      3.32      0.00
   -6  -17    5     -1.13      0.00
   -5  -17    5      2.84      0.00
   -4  -17    5      1.51      0.00
   -3  -17    5     -0.94      0.00
   -2  -17    5      0.94      0.00
   -1  -17    5      1.36      0.00
    0  -17    5     -1.12      0.00
    1  -17    5      0.20      0.00
    2  -17    5     -4.50      0.00
    3  -17    5      0.43      0.00
    4  -17    5      2.47      0.00
    5  -17    5     -5.45      0.00
  -10  -16    5      0.97      0.00
   -9  -16    5     10.16      0.00
   -8  -16    5     -6.31      0.00
   -7  -16    5     -0.53      0.00
   -6  -16    5     -2.47      0.00
   -5  -16    5      0.62      0.00
   -4  -16    5     -1.03      0.00
   -3  -16    5      0.83      0.00
   -2  -16    5     -2.07      0.00
   -1  -16    5     -0.70      0.00
    0  -16    5      1.64      0.00
    1  -16    5      3.32      0.00
    2  -16    5     -2.75      0.00
    3  -16    5     -2.46      0.00
    4  -16    5     -1.05      0.00
    5  -16    5     10.14      0.00
    6  -16    5      4.20      0.00
  -11  -15    5      5.72      0.00
  -10  -15    5     -1.93      0.00
   -9  -15    5     -3.21      0.00
   -8  -15    5     -3.70      0.00
   -7  -15    5     -2.95      0.00
   -6  -15    5      0.44      0.00
   -5  -15    5      2.81      0.00
   -4  -15    5     -1.91      0.00
   -3  -15    5     -1.64      0.00
   -2  -15    5     -3.36      0.00
   -1  -15    5     -1.86      0.00
    0  -15    5      1.85      0.00
    1  -15    5     -1.42      0.00
    2  -15    5     -2.66      0.00
    3  -15    5      0.29      0.00
    4  -15    5      1.88      0.00
    5  -15    5     -6.86      0.00
    6  -15    5     -2.44      0.00
    7  -15    5      5.56      0.00
    8  -15    5      4.41      0.00
  -11  -14    5     -2.02      0.00
  -10  -14    5     -0.79      0.00
   -9  -14    5      2.04      0.00
   -8  -14    5     -1.51      0.00
   -7  -14    5     -2.37      0.00
   -6  -14    5      6.95      0.00
   -5  -14    5     -2.10      0.00
   -4  -14    5      0.74      0.00
   -3  -14    5      5.52      0.00
   -2  -14    5     -1.07      0.00
   -1  -14    5      5.21      0.00
    0  -14    5     -1.03      0.00
    1  -14    5     -2.81      0.00
    2  -14    5      1.98      0.00
    3  -14    5      6.63      0.00
    4  -14    5      2.41      0.00
    5  -14    5      1.90      0.00
    6  -14    5      0.47      0.00
    7  -14    5     -7.31      0.00
    8  -14    5     -3.75      0.00
    9  -14    5      3.36      0.00
  -12  -13    5      1.82      0.00
  -11  -13    5      0.65      0.00
  -10  -13    5     -0.27      0.00
   -9  -13    5     -2.25      0.00
   -8  -13    5      4.75      0.00
   -7  -13    5     -1.73      0.00
   -6  -13    5      6.33      0.00
   -5  -13    5     -3.03      0.00
   -4  -13    5     -1.27      0.00
   -3  -13    5     -3.81      0.00
   -2  -13    5     -0.50      0.00
   -1  -13    5      1.88      0.00
    0  -13    5      2.99      0.00
    1  -13    5     -0.38      0.00
    2  -13    5      1.00      0.00
    3  -13    5     -1.33      0.00
    4  -13    5     -5.90      0.00
    5  -13    5      0.36      0.00
    6  -13    5      3.84      0.00
    7  -13    5      6.05      0.00
    8  -13    5     -3.37      0.00
    9  -13    5     -1.26      0.00
   10  -13    5      1.20      0.00
  -13  -12    5     -2.48      0.00
  -12  -12    5     -0.33      0.00
  -11  -12    5      0.57      0.00
  -10  -12    5      3.35      0.00
   -9  -12    5     -1.04      0.00
   -8  -12    5     -1.48      0.00
   -7  -12    5      1.40      0.00
   -6  -12    5      1.71      0.00
   -5  -12    5     -3.06      0.00
   -4  -12    5      4.87      0.00
   -3  -12    5     -0.13      0.00
   -2  -12    5     -2.58      0.00
   -1  -12    5      0.16      0.00
    0  -12    5     -4.69      0.00
    1  -12    5      1.18      0.00
    2  -12    5     -0.60      0.00
    3  -12    5     -2.63      0.00
    4  -12    5     -1.23      0.00
    5  -12    5      5.28      0.00
    6  -12    5     -4.16      0.00
    7  -12    5     -1.18      0.00
    8  -12    5     -0.08      0.00
    9  -12    5      4.72      0.00
   10  -12    5     -0.49      0.00
   11  -12    5     -5.82      0.00
  -13  -11    5     -2.13      0.00
  -12  -11    5      0.27      0.00
  -11  -11    5     -2.18      0.00
  -10  -11    5     -3.32      0.00
   -9  -11    5      1.22      0.00
   -8  -11    5      4.22      0.00
   -7  -11    5     -5.52      0.00
   -6  -11    5      1.58      0.00
   -5  -11    5      0.11      0.00
   -4  -11    5     -1.21      0.00
   -3  -11    5     -3.22      0.00
   -2  -11    5      3.26      0.00
   -1  -11    5     -3.72      0.00
    0  -11    5      4.47      0.00
    1  -11    5      1.46      0.00
    2  -11    5     -1.65      0.00
    3  -11    5     -2.52      0.00
    4  -11    5      6.16      0.00
    5  -11    5     -1.04      0.00
    6  -11    5      1.91      0.00
    7  -11    5     -0.93      0.00
    8  -11    5      2.91      0.00
    9  -11    5      0.44      0.00
   10  -11    5      2.05      0.00
   11  -11    5     -3.96      0.00
   12  -11    5      1.72      0.00
  -13  -10    5     -5.42      0.00
  -12  -10    5      5.20      0.00
  -11  -10    5      2.26      0.00
  -10  -10    5     -1.98      0.00
   -9  -10    5     -1.63      0.00
   -8  -10    5     -4.80      0.00
   -7  -10    5      1.45      0.00
   -6  -10    5      2.99      0.00
   -5  -10    5     -0.32      0.00
   -4  -10    5      0.41      0.00
   -3  -10    5     -3.91      0.00
   -2  -10    5      1.35      0.00
   -1  -10    5      2.45      0.00
    0  -10    5     -1.44      0.00
    1  -10    5     -1.67      0.00
    2  -10    5     -3.43      0.00
    3  -10    5      4.95      0.00
    4  -10    5     -0.75      0.00
    5  -10    5     -2.88      0.00
    6  -10    5     -0.11      0.00
    7  -10    5     -5.83      0.00
    8  -10    5     -4.06      0.00
    9  -10    5      0.94      0.00
   10  -10    5      0.16      0.00
   11  -10    5     -1.16      0.00
   12  -10    5      6.47      0.00
  -13   -9    5      3.30      0.00
  -12   -9    5      0.64      0.00
  -11   -9    5     -0.08      0.00
  -10   -9    5     -0.81      0.00
   -9   -9    5     -2.99      0.00
   -8   -9    5      7.54      0.00
   -7   -9    5     -0.25      0.00
   -6   -9    5      0.47      0.00
   -5   -9    5     -3.44      0.00
   -4   -9    5     -1.63      0.00
   -3   -9    5      3.16      0.00
   -2   -9    5      6.40      0.00
   -1   -9    5     -1.79      0.00
    0   -9    5     -2.11      0.00
    1   -9    5     -0.85      0.00
    2   -9    5     -1.93      0.00
    3   -9    5      1.48      0.00
    4   -9    5      1.59      0.00
    5   -9    5     -2.17      0.00
    6   -9    5      0.64      0.00
    7   -9    5      2.37      0.00
    8   -9    5      9.63      0.00
    9   -9    5     -3.44      0.00
   10   -9    5      1.52      0.00
   11   -9    5      0.81      0.00
   12   -9    5     -1.90      0.00
   13   -9    5      0.21      0.00
  -12   -8    5     -1.77      0.00
  -11   -8    5     -1.99      0.00
  -10   -8    5     -6.56      0.00
   -9   -8    5      4.31      0.00
   -8   -8    5      3.83      0.00
   -7   -8    5    -10.47      0.00
   -6   -8    5      1.88      0.00
   -5   -8    5      5.64      0.00
   -4   -8    5      2.65      0.00
   -3   -8    5      0.04      0.00
   -2   -8    5     -1.29      0.00
   -1   -8    5     -2.61      0.00
    0   -8    5      3.28      0.00
    1   -8    5      6.15      0.00
    2   -8    5     -0.14      0.00
    3   -8    5      2.39      0.00
    4   -8    5      0.58      0.00
    5   -8    5     -5.68      0.00
    6   -8    5     -0.88      0.00
    7   -8    5      0.92      0.00
    8   -8    5      1.52      0.00
    9   -8    5     -6.61      0.00
   10   -8    5      0.40      0.00
   11   -8    5      0.12      0.00
   12   -8    5      2.42      0.00
   13   -8    5      5.75      0.00
   14   -8    5     -5.72      0.00
  -13   -7    5      2.44      0.00
  -12   -7    5      3.28      0.00
  -11   -7    5     -3.80      0.00
  -10   -7    5      5.67      0.00
   -9   -7    5      5.36      0.00
   -8   -7    5     -4.29      0.00
   -7   -7    5     -2.03      0.00
   -6   -7    5      2.85      0.00
   -5   -7    5      2.21      0.00
   -4   -7    5     -2.12      0.00
   -3   -7    5     -4.48      0.00
   -2   -7    5     -8.78      0.00
   -1   -7    5      4.76      0.00
    0   -7    5      0.14      0.00
    1   -7    5     -3.95      0.00
    2   -7    5     -1.75      0.00
    3   -7    5      9.58      0.00
    4   -7    5     -1.86      0.00
    5   -7    5     -3.82      0.00
    6   -7    5     10.26      0.00
    7   -7    5      0.22      0.00
    8   -7    5     -4.16      0.00
    9   -7    5     -4.82      0.00
   10   -7    5      9.02      0.00
   11   -7    5     -2.39      0.00
   12   -7    5     -7.54      0.00
   13   -7    5     -6.07      0.00
   14   -7    5     -0.72      0.00
  -13   -6    5      1.75      0.00
  -12   -6    5     -3.56      0.00
  -11   -6    5      1.41      0.00
  -10   -6    5      6.05      0.00
   -9   -6    5     -7.09      0.00
   -8   -6    5     -8.88      0.00
   -7   -6    5     10.25      0.00
   -6   -6    5      5.23      0.00
   -5   -6    5     -5.31      0.00
   -4   -6    5      2.16      0.00
   -3   -6    5     -7.73      0.00
   -2   -6    5     11.42      0.00
   -1   -6    5      6.91      0.00
    0   -6    5    -11.24      0.00
    1   -6    5     -6.46      0.00
    2   -6    5      7.61      0.00
    3   -6    5     -4.66      0.00
    4   -6    5     -7.85      0.00
    5   -6    5     -0.20      0.00
    6   -6    5      9.08      0.00
    7   -6    5     -8.74      0.00
    8   -6    5      4.19      0.00
    9   -6    5     -0.65      0.00
   10   -6    5      6.13      0.00
   11   -6    5      0.47      0.00
   12   -6    5     -0.12      0.00
   13   -6    5      1.38      0.00
   14   -6    5      1.11      0.00
   15   -6    5      0.05      0.00
  -14   -5    5     -1.65      0.00
  -13   -5    5     -3.41      0.00
  -12   -5    5      1.66      0.00
  -11   -5    5      1.95      0.00
  -10   -5    5      1.38      0.00
   -9   -5    5     -8.74      0.00
   -8   -5    5      5.05      0.00
   -7   -5    5      9.82      0.00
   -6   -5    5     -8.44      0.00
   -5   -5    5      3.71      0.00
   -4   -5    5     -3.68      0.00
   -3   -5    5     -2.87      0.00
   -2   -5    5      9.67      0.00
   -1   -5    5     -0.38      0.00
    0   -5    5     -5.76      0.00
    1   -5    5     10.50      0.00
    2   -5    5     -1.92      0.00
    3   -5    5    -10.70      0.00
    4   -5    5     -4.97      0.00
    5   -5    5      4.17      0.00
    6   -5    5      0.30      0.00
    7   -5    5    -12.14      0.00
    8   -5    5      7.28      0.00
    9   -5    5    -10.27      0.00
   10   -5    5      4.41      0.00
   11   -5    5     -6.49      0.00
   12   -5    5     -5.02      0.00
   13   -5    5      4.56      0.00
   14   -5    5      4.12      0.00
   15   -5    5     -6.69      0.00
  -15   -4    5      4.07      0.00
  -14   -4    5     -0.84      0.00
  -13   -4    5      4.04      0.00
  -12   -4    5      0.63      0.00
  -11   -4    5      4.00      0.00
  -10   -4    5     -4.08      0.00
   -9   -4    5     -5.36      0.00
   -8   -4    5      8.92      0.00
   -7   -4    5     -1.30      0.00
   -6   -4    5     -9.45      0.00
   -5   -4    5     -0.03      0.00
   -4   -4    5      3.04      0.00
   -3   -4    5      6.57      0.00
   -2   -4    5     -8.42      0.00
   -1   -4    5     -8.05      0.00
    0   -4    5     -3.12      0.00
    1   -4    5     16.56      0.00
    2   -4    5      3.07      0.00
    3   -4    5      0.56      0.00
    4   -4    5      9.86      0.00
    5   -4    5      5.10      0.00
    6   -4    5     -3.53      0.00
    7   -4    5      2.72      0.00
    8   -4    5      4.97      0.00
    9   -4    5     -3.41      0.00
   10   -4    5      5.42      0.00
   11   -4    5     -1.90      0.00
   12   -4    5     -2.91      0.00
   13   -4    5     -0.63      0.00
   14   -4    5      0.01      0.00
   15   -4    5     -4.06      0.00
   16   -4    5     -0.06      0.00
  -15   -3    5      0.81      0.00
  -14   -3    5     -3.02      0.00
  -13   -3    5      0.82      0.00
  -12   -3    5     -0.82      0.00
  -11   -3    5     -4.03      0.00
  -10   -3    5      1.12      0.00
   -9   -3    5      5.54      0.00
   -8   -3    5     -0.75      0.00
   -7   -3    5     -1.36      0.00
   -6   -3    5     -5.83      0.00
   -5   -3    5      2.87      0.00
   -4   -3    5    -12.83      0.00
   -3   -3    5      8.98      0.00
   -2   -3    5     -3.63      0.00
   -1   -3    5      8.51      0.00
    0   -3    5     -2.16      0.00
    1   -3    5    -23.21      0.00
    2   -3    5    -11.55      0.00
    3   -3    5     -1.13      0.00
    4   -3    5      5.56      0.00
    5   -3    5     10.97      0.00
    6   -3    5     -4.99      0.00
    7   -3    5      3.56      0.00
    8   -3    5      3.00      0.00
    9   -3    5     -2.16      0.00
   10   -3    5      9.04      0.00
   11   -3    5     -3.75      0.00
   12   -3    5      4.54      0.00
   13   -3    5     11.44      0.00
   14   -3    5     -1.45      0.00
   15   -3    5      0.29      0.00
   16   -3    5      6.43      0.00
  -15   -2    5      0.86      0.00
  -14   -2    5     -2.92      0.00
  -13   -2    5      3.19      0.00
  -12   -2    5      1.53      0.00
  -11   -2    5      1.07      0.00
  -10   -2    5     -2.89      0.00
   -9   -2    5     -1.24      0.00
   -8   -2    5      2.59      0.00
   -7   -2    5      1.63      0.00
   -6   -2    5     -7.97      0.00
   -5   -2    5      6.70      0.00
   -4   -2    5     14.94      0.00
   -3   -2    5     -3.23      0.00
   -2   -2    5    -17.72      0.00
   -1   -2    5     27.66      0.00
    0   -2    5     -8.51      0.00
    1   -2    5     18.40      0.00
    2   -2    5     -7.72      0.00
    3   -2    5    -18.30      0.00
    4   -2    5      7.46      0.00
    5   -2    5     -0.86      0.00
    6   -2    5    -17.96      0.00
    7   -2    5      8.44      0.00
    8   -2    5     -5.96      0.00
    9   -2    5     -0.96      0.00
   10   -2    5     -1.91      0.00
   11   -2    5     -4.90      0.00
   12   -2    5     -2.26      0.00
   13   -2    5     -1.94      0.00
   14   -2    5     -2.93      0.00
   15   -2    5     -1.74      0.00
   16   -2    5     -1.48      0.00
  -14   -1    5     -2.86      0.00
  -13   -1    5      1.60      0.00
  -12   -1    5     -6.56      0.00
  -11   -1    5      4.09      0.00
  -10   -1    5     -1.11      0.00
   -9   -1    5     -0.50      0.00
   -8   -1    5     -3.57      0.00
   -7   -1    5      1.56      0.00
   -6   -1    5     -7.66      0.00
   -5   -1    5      6.43      0.00
   -4   -1    5     -9.82      0.00
   -3   -1    5      0.32      0.00
   -2   -1    5     18.64      0.00
   -1   -1    5     -5.43      0.00
    1   -1    5     -8.52      0.00
    2   -1    5     10.89      0.00
    3   -1    5     21.73      0.00
    4   -1    5     31.08      0.00
    5   -1    5    -28.58      0.00
    6   -1    5     -7.02      0.00
    7   -1    5     15.75      0.00
    8   -1    5     -2.74      0.00
    9   -1    5      1.07      0.00
   10   -1    5      0.89      0.00
   11   -1    5      1.02      0.00
   12   -1    5      0.54      0.00
   13   -1    5      1.95      0.00
   14   -1    5     -5.14      0.00
   15   -1    5      3.46      0.00
   16   -1    5     -0.13      0.00
  -14    0    5      0.84      0.00
  -13    0    5      4.88      0.00
  -12    0    5      0.43      0.00
  -11    0    5     -0.96      0.00
  -10    0    5      1.91      0.00
   -9    0    5      1.88      0.00
   -8    0    5     -0.16      0.00
   -7    0    5     -5.36      0.00
   -6    0    5      3.46      0.00
   -5    0    5      4.18      0.00
   -4    0    5     -3.75      0.00
   -3    0    5     -3.37      0.00
   -2    0    5     -9.73      0.00
   -1    0    5     12.22      0.00
    0    0    5    -25.81      0.00
    2    0    5      1.12      0.00
    4    0    5    -11.00      0.00
    5    0    5    -31.13      0.00
    6    0    5     29.59      0.00
    7    0    5      7.82      0.00
    8    0    5    -10.98      0.00
    9    0    5      2.64      0.00
   10    0    5     -1.45      0.00
   11    0    5      4.86      0.00
   12    0    5      1.12      0.00
   13    0    5      1.69      0.00
   14    0    5      1.47      0.00
   15    0    5      0.10      0.00
   16    0    5      1.66      0.00
   17    0    5     -3.77      0.00
  -14    1    5     -0.26      0.00
  -13    1    5     -0.57      0.00
  -12    1    5     -1.25      0.00
  -11    1    5     -1.24      0.00
  -10    1    5      2.24      0.00
   -9    1    5     -2.28      0.00
   -8    1    5      3.64      0.00
   -7    1    5      5.03      0.00
   -6    1    5     -1.39      0.00
   -5    1    5     -5.02      0.00
   -4    1    5      6.78      0.00
   -3    1    5     16.04      0.00
   -2    1    5     -5.96      0.00
   -1    1    5     -0.40      0.00
    0    1    5      3.92      0.00
    2    1    5     36.09      0.00
    3    1    5    -16.13      0.00
    4    1    5    -33.84      0.00
    5    1    5      1.97      0.00
    6    1    5     23.71      0.00
    7    1    5    -17.00      0.00
    8    1    5    -10.62      0.00
    9    1    5      6.69      0.00
   10    1    5     -4.99      0.00
   11    1    5      7.23      0.00
   12    1    5     -6.52      0.00
   13    1    5      0.83      0.00
   14    1    5     -0.26      0.00
   15    1    5     -0.28      0.00
   16    1    5     -1.66      0.00
   17    1    5     -2.06      0.00
  -14    2    5      1.53      0.00
  -13    2    5      1.11      0.00
  -12    2    5     -1.39      0.00
  -11    2    5      0.65      0.00
  -10    2    5      3.01      0.00
   -9    2    5     -3.76      0.00
   -8    2    5     -0.32      0.00
   -7    2    5     -0.09      0.00
   -6    2    5     -2.92      0.00
   -5    2    5      0.45      0.00
   -4    2    5      9.35      0.00
   -3    2    5    -13.62      0.00
   -2    2    5     -8.96      0.00
   -1    2    5     19.62      0.00
    0    2    5    -14.18      0.00
    1    2    5     13.70      0.00
    2    2    5      5.35      0.00
    3    2    5    -32.81      0.00
    4    2    5     17.93      0.00
    5    2    5     24.04      0.00
    6    2    5     -2.43      0.00
    7    2    5    -17.21      0.00
    8    2    5     16.02      0.00
    9    2    5      1.64      0.00
   10    2    5     -2.12      0.00
   11    2    5      2.05      0.00
   12    2    5     -5.29      0.00
   13    2    5      1.47      0.00
   14    2    5      1.86      0.00
   15    2    5      0.68      0.00
   16    2    5      2.83      0.00
   17    2    5     -0.04      0.00
  -14    3    5      5.49      0.00
  -13    3    5      3.79      0.00
  -12    3    5     -1.98      0.00
  -11    3    5     -5.80      0.00
  -10    3    5      6.70      0.00
   -9    3    5     -5.57      0.00
   -8    3    5      4.05      0.00
   -7    3    5     -0.11      0.00
   -6    3    5      2.83      0.00
   -5    3    5      3.25      0.00
   -4    3    5     -4.78      0.00
   -3    3    5     -5.82      0.00
   -2    3    5     -4.16      0.00
   -1    3    5      8.22      0.00
    0    3    5     -5.37      0.00
    1    3    5     -0.25      0.00
    2    3    5      8.83      0.00
    3    3    5     -7.71      0.00
    4    3    5      8.22      0.00
    5    3    5     -3.41      0.00
    6    3    5    -10.40      0.00
    7    3    5     -3.82      0.00
    8    3    5      2.08      0.00
    9    3    5     -2.01      0.00
   10    3    5      0.28      0.00
   11    3    5     -0.10      0.00
   12    3    5     -5.00      0.00
   13    3    5      2.31      0.00
   14    3    5     -0.38      0.00
   15    3    5     -1.29      0.00
   16    3    5     -4.09      0.00
   17    3    5     -1.37      0.00
  -13    4    5     -9.65      0.00
  -12    4    5     -1.66      0.00
  -11    4    5      2.30      0.00
  -10    4    5      2.05      0.00
   -9    4    5     -7.65      0.00
   -8    4    5      7.14      0.00
   -7    4    5      3.02      0.00
   -6    4    5      0.61      0.00
   -5    4    5     -3.91      0.00
   -4    4    5      3.84      0.00
   -3    4    5     -2.27      0.00
   -2    4    5      8.29      0.00
   -1    4    5      4.51      0.00
    0    4    5    -12.08      0.00
    1    4    5     -0.95      0.00
    2    4    5      2.71      0.00
    3    4    5    -10.39      0.00
    4    4    5     16.00      0.00
    5    4    5    -11.59      0.00
    6    4    5     10.43      0.00
    7    4    5      1.55      0.00
    8    4    5     10.43      0.00
    9    4    5     -6.43      0.00
   10    4    5     -2.22      0.00
   11    4    5      1.87      0.00
   12    4    5      2.48      0.00
   13    4    5     -0.61      0.00
   14    4    5      2.54      0.00
   15    4    5     -0.80      0.00
   16    4    5     -2.48      0.00
   17    4    5      5.36      0.00
  -13    5    5     -1.36      0.00
  -12    5    5     -0.08      0.00
  -11    5    5      3.00      0.00
  -10    5    5     -2.17      0.00
   -9    5    5     -6.37      0.00
   -8    5    5      8.65      0.00
   -7    5    5     -3.37      0.00
   -6    5    5     -3.53      0.00
   -5    5    5      0.85      0.00
   -4    5    5     -1.61      0.00
   -3    5    5      3.86      0.00
   -2    5    5     -7.34      0.00
   -1    5    5     -1.57      0.00
    0    5    5      5.74      0.00
    1    5    5     18.97      0.00
    2    5    5      3.95      0.00
    3    5    5     -8.17      0.00
    4    5    5      3.48      0.00
    5    5    5    -11.05      0.00
    6    5    5      1.96      0.00
    7    5    5     -6.87      0.00
    8    5    5      4.24      0.00
    9    5    5     -5.62      0.00
   10    5    5      1.29      0.00
   11    5    5     -0.23      0.00
   12    5    5     -2.28      0.00
   13    5    5     -0.64      0.00
   14    5    5     -2.46      0.00
   15    5    5      0.89      0.00
   16    5    5      3.74      0.00
   17    5    5      3.29      0.00
  -13    6    5     -3.84      0.00
  -12    6    5      5.77      0.00
  -11    6    5     -2.35      0.00
  -10    6    5     -5.40      0.00
   -9    6    5      4.21      0.00
   -8    6    5      4.61      0.00
   -7    6    5    -10.54      0.00
   -6    6    5     -0.19      0.00
   -5    6    5      2.51      0.00
   -4    6    5     -4.17      0.00
   -3    6    5      1.30      0.00
   -2    6    5     -1.60      0.00
   -1    6    5      2.21      0.00
    0    6    5     -1.20      0.00
    1    6    5    -14.81      0.00
    2    6    5     -5.08      0.00
    3    6    5      5.39      0.00
    4    6    5     16.53      0.00
    5    6    5     -8.17      0.00
    6    6    5     14.00      0.00
    7    6    5      6.12      0.00
    8    6    5     -1.90      0.00
    9    6    5     -5.23      0.00
   10    6    5      3.04      0.00
   11    6    5      4.22      0.00
   12    6    5     -0.12      0.00
   13    6    5     -0.49      0.00
   14    6    5     -1.53      0.00
   15    6    5     -1.26      0.00
   16    6    5      0.90      0.00
   17    6    5     -1.40      0.00
  -12    7    5     -0.62      0.00
  -11    7    5      1.11      0.00
  -10    7    5      0.38      0.00
   -9    7    5      3.51      0.00
   -8    7    5     -2.98      0.00
   -7    7    5     -1.25      0.00
   -6    7    5      6.15      0.00
   -5    7    5      3.16      0.00
   -4    7    5     -5.34      0.00
   -3    7    5      9.60      0.00
   -2    7    5     -8.24      0.00
   -1    7    5      8.84      0.00
    0    7    5     -1.01      0.00
    1    7    5      1.62      0.00
    2    7    5     -7.67      0.00
    3    7    5      6.82      0.00
    4    7    5     -6.74      0.00
    5    7    5     -6.25      0.00
    6    7    5      4.41      0.00
    7    7    5     -5.16      0.00
    8    7    5     -4.27      0.00
    9    7    5      4.58      0.00
   10    7    5      8.74      0.00
   11    7    5     -6.65      0.00
   12    7    5      1.45      0.00
   13    7    5      3.26      0.00
   14    7    5      2.81      0.00
   15    7    5      3.47      0.00
   16    7    5     -2.08      0.00
   17    7    5     -2.24      0.00
  -12    8    5      0.18      0.00
  -11    8    5     -5.54      0.00
  -10    8    5      0.06      0.00
   -9    8    5     -0.13      0.00
   -8    8    5     -4.91      0.00
   -7    8    5     -0.12      0.00
   -6    8    5      0.68      0.00
   -5    8    5     -5.28      0.00
   -4    8    5     -1.46      0.00
   -3    8    5      7.88      0.00
   -2    8    5     -4.70      0.00
   -1    8    5      1.76      0.00
    0    8    5     -7.81      0.00
    1    8    5      5.59      0.00
    2    8    5     10.71      0.00
    3    8    5     -1.15      0.00
    4    8    5     -9.41      0.00
    5    8    5      1.80      0.00
    6    8    5      5.28      0.00
    7    8    5     -3.38      0.00
    8    8    5     -9.64      0.00
    9    8    5      9.50      0.00
   10    8    5     -8.61      0.00
   11    8    5     -0.30      0.00
   12    8    5     -2.26      0.00
   13    8    5     -2.83      0.00
   14    8    5     -0.86      0.00
   15    8    5     -2.74      0.00
   16    8    5     -2.74      0.00
   17    8    5     -3.87      0.00
  -11    9    5      0.65      0.00
  -10    9    5      1.46      0.00
   -9    9    5     -0.27      0.00
   -8    9    5     -1.17      0.00
   -7    9    5      2.05      0.00
   -6    9    5     -2.23      0.00
   -5    9    5     -0.17      0.00
   -4    9    5     -0.14      0.00
   -3    9    5     -0.85      0.00
   -2    9    5     -4.51      0.00
   -1    9    5     -0.87      0.00
    0    9    5      1.41      0.00
    1    9    5      3.05      0.00
    2    9    5     -7.44      0.00
    3    9    5      3.79      0.00
    4    9    5     -0.74      0.00
    5    9    5      1.54      0.00
    6    9    5      0.52      0.00
    7    9    5      1.07      0.00
    8    9    5      5.73      0.00
    9    9    5      1.43      0.00
   10    9    5     -4.49      0.00
   11    9    5     -0.09      0.00
   12    9    5      5.60      0.00
   13    9    5     -1.89      0.00
   14    9    5     -2.65      0.00
   15    9    5     -3.17      0.00
   16    9    5      4.84      0.00
  -10   10    5      6.16      0.00
   -9   10    5     -0.54      0.00
   -8   10    5      0.08      0.00
   -7   10    5      1.37      0.00
   -6   10    5     -0.19      0.00
   -5   10    5      1.52      0.00
   -4   10    5      5.98      0.00
   -3   10    5      2.54      0.00
   -2   10    5      0.04      0.00
   -1   10    5      0.62      0.00
    0   10    5      2.66      0.00
    1   10    5     -1.56      0.00
    2   10    5     -6.33      0.00
    3   10    5     -2.48      0.00
    4   10    5      0.24      0.00
    5   10    5      1.62      0.00
    6   10    5      3.83      0.00
    7   10    5     -4.46      0.00
    8   10    5     -4.40      0.00
    9   10    5      5.31      0.00
   10   10    5     -2.41      0.00
   11   10    5      8.74      0.00
   12   10    5      1.10      0.00
   13   10    5      0.13      0.00
   14   10    5      4.32      0.00
   15   10    5      0.06      0.00
   16   10    5      0.17      0.00
  -10   11    5      0.21      0.00
   -9   11    5     -3.10      0.00
   -8   11    5      0.82      0.00
   -7   11    5      1.18      0.00
   -6   11    5      0.55      0.00
   -5   11    5      1.18      0.00
   -4   11    5     -2.39      0.00
   -3   11    5     -2.58      0.00
   -2   11    5      2.68      0.00
   -1   11    5     -5.34      0.00
    0   11    5      5.26      0.00
    1   11    5     -1.20      0.00
    2   11    5      0.08      0.00
    3   11    5     -1.71      0.00
    4   11    5     -2.26      0.00
    5   11    5      1.98      0.00
    6   11    5     -1.56      0.00
    7   11    5     -4.61      0.00
    8   11    5      2.87      0.00
    9   11    5     -0.34      0.00
   10   11    5     -2.53      0.00
   11   11    5     -0.02      0.00
   12   11    5     -1.97      0.00
   13   11    5     -2.99      0.00
   14   11    5     -0.23      0.00
   15   11    5     -2.72      0.00
   16   11    5      2.29      0.00
   -9   12    5      3.18      0.00
   -8   12    5     -0.66      0.00
   -7   12    5      2.77      0.00
   -6   12    5     -6.49      0.00
   -5   12    5      5.25      0.00
   -4   12    5     -2.23      0.00
   -3   12    5     -1.60      0.00
   -2   12    5      0.21      0.00
   -1   12    5      0.16      0.00
    0   12    5      2.13      0.00
    1   12    5     -4.93      0.00
    2   12    5     -2.45      0.00
    3   12    5      6.04      0.00
    4   12    5      8.69      0.00
    5   12    5     -3.12      0.00
    6   12    5     -3.67      0.00
    7   12    5     -1.08      0.00
    8   12    5      2.56      0.00
    9   12    5      2.34      0.00
   10   12    5     -1.59      0.00
   11   12    5      3.83      0.00
   12   12    5     -2.67      0.00
   13   12    5      0.91      0.00
   14   12    5     -0.80      0.00
   15   12    5      1.19      0.00
   -8   13    5     -2.70      0.00
   -7   13    5      3.11      0.00
   -6   13    5     -2.17      0.00
   -5   13    5      0.90      0.00
   -4   13    5     -6.94      0.00
   -3   13    5     -0.37      0.00
   -2   13    5      2.45      0.00
   -1   13    5     -6.94      0.00
    0   13    5      8.13      0.00
    1   13    5     -3.37      0.00
    2   13    5      1.00      0.00
    3   13    5      0.48      0.00
    4   13    5     -2.75      0.00
    5   13    5     -3.89      0.00
    7   13    5      4.30      0.00
    8   13    5     -1.78      0.00
    9   13    5     -1.77      0.00
   10   13    5      2.29      0.00
   11   13    5      3.36      0.00
   12   13    5     -7.37      0.00
   13   13    5      2.32      0.00
   14   13    5      0.56      0.00
   15   13    5      2.08      0.00
   -7   14    5      6.90      0.00
   -6   14    5     -6.46      0.00
   -5   14    5      6.39      0.00
   -4   14    5     -1.44      0.00
   -3   14    5      9.17      0.00
   -2   14    5     -2.93      0.00
   -1   14    5     -2.82      0.00
    0   14    5      0.96      0.00
    1   14    5     -5.25      0.00
    2   14    5      3.72      0.00
    3   14    5      1.95      0.00
    4   14    5     -1.84      0.00
    6   14    5      4.24      0.00
    7   14    5      0.59      0.00
    8   14    5     -0.18      0.00
    9   14    5     -4.33      0.00
   10   14    5      0.44      0.00
   11   14    5     -0.31      0.00
   12   14    5     -1.30      0.00
   13   14    5      3.63      0.00
   14   14    5     -0.90      0.00
   -6   15    5     -2.15      0.00
   -5   15    5     -2.44      0.00
   -4   15    5      2.06      0.00
   -3   15    5      6.75      0.00
   -1   15    5      2.79      0.00
    0   15    5      3.98      0.00
    1   15    5     -2.70      0.00
    2   15    5      0.15      0.00
    5   15    5      3.68      0.00
    6   15    5     -1.60      0.00
    7   15    5     -1.25      0.00
    8   15    5     -3.31      0.00
    9   15    5      0.89      0.00
   10   15    5      3.62      0.00
   11   15    5     -2.23      0.00
   12   15    5     -4.02      0.00
   13   15    5      6.73      0.00
   14   15    5      1.83      0.00
   -5   16    5      4.48      0.00
   -1   16    5      9.48      0.00
    4   16    5     -0.38      0.00
    5   16    5      0.37      0.00
    6   16    5     -0.67      0.00
    7   16    5      1.76      0.00
    8   16    5     -1.10      0.00
    9   16    5      0.18      0.00
   10   16    5      2.82      0.00
   11   16    5      0.83      0.00
   12   16    5     -0.34      0.00
   13   16    5      1.66      0.00
    1   17    5     -0.59      0.00
    2   17    5      0.95      0.00
    3   17    5      2.15      0.00
    4   17    5      4.05      0.00
    5   17    5     -3.48      0.00
    6   17    5     -1.57      0.00
    7   17    5      1.55      0.00
    8   17    5     -4.35      0.00
    9   17    5      4.48      0.00
   10   17    5      0.69      0.00
   11   17    5    -12.64      0.00
   12   17    5      2.66      0.00
    0   18    5     -1.28      0.00
    1   18    5     -1.39      0.00
    2   18    5     -1.54      0.00
    3   18    5      0.70      0.00
    4   18    5      1.28      0.00
    5   18    5     -2.80      0.00
    6   18    5     -1.11      0.00
    7   18    5      3.13      0.00
    8   18    5      0.22      0.00
    9   18    5      1.34      0.00
   10   18    5     -9.03      0.00
    1   19    5      1.96      0.00
    2   19    5      1.56      0.00
    3   19    5      2.50      0.00
    4   19    5     -3.98      0.00
    5   19    5     -3.59      0.00
    6   19    5      1.42      0.00
    7   19    5      0.40      0.00
    8   19    5     -2.90      0.00
   -5  -18    6      0.73      0.00
   -4  -18    6      2.26      0.00
   -3  -18    6      0.88      0.00
   -2  -18    6      1.46      0.00
   -1  -18    6     -2.24      0.00
    0  -18    6     -1.82      0.00
    1  -18    6     -0.20      0.00
   -7  -17    6      0.86      0.00
   -6  -17    6     -2.16      0.00
   -5  -17    6      0.66      0.00
   -4  -17    6     -1.39      0.00
   -3  -17    6     -3.30      0.00
   -2  -17    6     -2.02      0.00
   -1  -17    6      0.17      0.00
    0  -17    6      2.03      0.00
    1  -17    6      1.34      0.00
    2  -17    6      1.93      0.00
    3  -17    6      3.18      0.00
    4  -17    6     -3.00      0.00
   -9  -16    6     -0.54      0.00
   -8  -16    6     -2.63      0.00
   -7  -16    6      1.99      0.00
   -6  -16    6      2.76      0.00
   -5  -16    6      3.50      0.00
   -4  -16    6     -1.62      0.00
   -3  -16    6      0.63      0.00
   -2  -16    6      0.65      0.00
   -1  -16    6      1.55      0.00
    0  -16    6     -2.03      0.00
    1  -16    6     -4.70      0.00
    2  -16    6      0.52      0.00
    3  -16    6      4.71      0.00
    4  -16    6     -0.60      0.00
    5  -16    6     -4.46      0.00
    6  -16    6     -3.04      0.00
  -10  -15    6      0.92      0.00
   -9  -15    6      8.05      0.00
   -8  -15    6     -3.08      0.00
   -7  -15    6      4.30      0.00
   -6  -15    6      5.21      0.00
   -5  -15    6     -6.68      0.00
   -4  -15    6     -0.59      0.00
   -3  -15    6      2.48      0.00
   -2  -15    6      0.41      0.00
   -1  -15    6      4.23      0.00
    0  -15    6      2.02      0.00
    1  -15    6      2.61      0.00
    2  -15    6     -0.76      0.00
    3  -15    6      0.18      0.00
    4  -15    6     -2.33      0.00
    5  -15    6      6.78      0.00
    6  -15    6      5.08      0.00
    7  -15    6     -1.47      0.00
  -11  -14    6      2.28      0.00
  -10  -14    6      4.28      0.00
   -9  -14    6     -4.64      0.00
   -8  -14    6      1.41      0.00
   -7  -14    6     -1.00      0.00
   -6  -14    6      0.09      0.00
   -5  -14    6     -3.25      0.00
   -4  -14    6      4.44      0.00
   -3  -14    6     -3.41      0.00
   -2  -14    6      0.54      0.00
   -1  -14    6     -2.81      0.00
    0  -14    6     -0.54      0.00
    1  -14    6     -3.27      0.00
    2  -14    6      0.43      0.00
    3  -14    6     -4.65      0.00
    4  -14    6     -1.15      0.00
    5  -14    6      0.21      0.00
    6  -14    6     -3.99      0.00
    7  -14    6      1.66      0.00
    8  -14    6      1.73      0.00
    9  -14    6      2.84      0.00
  -11  -13    6     -1.48      0.00
  -10  -13    6     -0.38      0.00
   -9  -13    6     -0.59      0.00
   -8  -13    6     -1.94      0.00
   -7  -13    6      0.07      0.00
   -6  -13    6     -1.62      0.00
   -5  -13    6     -1.52      0.00
   -4  -13    6      3.65      0.00
   -3  -13    6      2.37      0.00
   -2  -13    6     -2.83      0.00
   -1  -13    6      1.75      0.00
    0  -13    6     -2.56      0.00
    1  -13    6      1.30      0.00
    2  -13    6     -1.77      0.00
    3  -13    6      4.10      0.00
    4  -13    6      3.38      0.00
    5  -13    6      0.31      0.00
    6  -13    6     -6.02      0.00
    7  -13    6     -0.04      0.00
    8  -13    6      3.10      0.00
    9  -13    6      2.03      0.00
   10  -13    6     -2.20      0.00
  -12  -12    6      1.67      0.00
  -11  -12    6     -4.36      0.00
  -10  -12    6     -1.81      0.00
   -9  -12    6     -0.33      0.00
   -8  -12    6      1.98      0.00
   -7  -12    6     -2.49      0.00
   -6  -12    6      3.01      0.00
   -5  -12    6      3.43      0.00
   -4  -12    6     -3.00      0.00
   -3  -12    6     -2.33      0.00
   -2  -12    6      2.18      0.00
   -1  -12    6     -0.06      0.00
    0  -12    6      3.16      0.00
    1  -12    6     -1.39      0.00
    2  -12    6     -1.12      0.00
    3  -12    6      1.69      0.00
    4  -12    6      0.68      0.00
    5  -12    6     -2.28      0.00
    6  -12    6      1.54      0.00
    7  -12    6      2.94      0.00
    8  -12    6      1.04      0.00
    9  -12    6     -1.00      0.00
   10  -12    6      2.34      0.00
   11  -12    6     -0.64      0.00
  -13  -11    6     -2.31      0.00
  -12  -11    6      3.36      0.00
  -11  -11    6     -0.34      0.00
  -10  -11    6      2.85      0.00
   -9  -11    6     -0.19      0.00
   -8  -11    6     -4.39      0.00
   -7  -11    6      3.50      0.00
   -6  -11    6     -2.02      0.00
   -5  -11    6     -0.57      0.00
   -4  -11    6     -1.70      0.00
   -3  -11    6      3.74      0.00
   -2  -11    6     -1.35      0.00
   -1  -11    6      2.85      0.00
    0  -11    6     -3.06      0.00
    1  -11    6     -0.82      0.00
    2  -11    6     -0.53      0.00
    3  -11    6      5.40      0.00
    4  -11    6     -5.79      0.00
    5  -11    6     -1.10      0.00
    6  -11    6      1.65      0.00
    7  -11    6      0.35      0.00
    8  -11    6     -3.80      0.00
    9  -11    6     -3.70      0.00
   10  -11    6      3.42      0.00
   11  -11    6     -0.99      0.00
   12  -11    6      7.87      0.00
  -13  -10    6      1.07      0.00
  -12  -10    6     -3.94      0.00
  -11  -10    6     -3.90      0.00
  -10  -10    6      5.16      0.00
   -9  -10    6     -0.14      0.00
   -8  -10    6      2.79      0.00
   -7  -10    6     -4.10      0.00
   -6  -10    6      4.39      0.00
   -5  -10    6     -1.60      0.00
   -4  -10    6      0.02      0.00
   -3  -10    6      0.67      0.00
   -2  -10    6      0.67      0.00
   -1  -10    6     -5.64      0.00
    0  -10    6      3.31      0.00
    1  -10    6      0.04      0.00
    2  -10    6      0.96      0.00
    3  -10    6     -2.27      0.00
    4  -10    6      0.37      0.00
    5  -10    6     -0.03      0.00
    6  -10    6      1.27      0.00
    7  -10    6      1.57      0.00
    8  -10    6     10.58      0.00
    9  -10    6     -4.00      0.00
   10  -10    6      1.01      0.00
   11  -10    6     -3.53      0.00
   12  -10    6     -0.42      0.00
  -13   -9    6     -6.00      0.00
  -12   -9    6      1.26      0.00
  -11   -9    6      0.69      0.00
  -10   -9    6     -1.34      0.00
   -9   -9    6      1.50      0.00
   -8   -9    6     -3.49      0.00
   -7   -9    6     -5.55      0.00
   -6   -9    6      5.15      0.00
   -5   -9    6     -1.73      0.00
   -4   -9    6      2.57      0.00
   -3   -9    6     -1.72      0.00
   -2   -9    6      0.16      0.00
   -1   -9    6     -1.26      0.00
    0   -9    6      0.69      0.00
    1   -9    6      0.07      0.00
    2   -9    6     -0.28      0.00
    3   -9    6      1.32      0.00
    4   -9    6      0.71      0.00
    5   -9    6     -1.84      0.00
    6   -9    6      1.96      0.00
    7   -9    6     -9.02      0.00
    8   -9    6     -7.38      0.00
    9   -9    6     -1.83      0.00
   10   -9    6      5.62      0.00
   11   -9    6     -6.56      0.00
   12   -9    6      1.70      0.00
   13   -9    6      1.44      0.00
  -12   -8    6      4.71      0.00
  -11   -8    6      3.46      0.00
  -10   -8    6      4.64      0.00
   -9   -8    6     -8.37      0.00
   -8   -8    6     -1.34      0.00
   -7   -8    6      7.00      0.00
   -6   -8    6      8.55      0.00
   -5   -8    6     -8.94      0.00
   -4   -8    6     -0.74      0.00
   -3   -8    6     -1.24      0.00
   -2   -8    6      2.05      0.00
   -1   -8    6      2.01      0.00
    0   -8    6     -1.93      0.00
    1   -8    6     -5.91      0.00
    2   -8    6     -0.83      0.00
    3   -8    6      1.26      0.00
    4   -8    6     -1.93      0.00
    5   -8    6     -1.23      0.00
    6   -8    6      3.00      0.00
    7   -8    6      0.95      0.00
    8   -8    6      3.51      0.00
    9   -8    6      0.11      0.00
   10   -8    6      4.98      0.00
   11   -8    6      1.48      0.00
   12   -8    6     -5.20      0.00
   13   -8    6     -4.81      0.00
   14   -8    6     -0.25      0.00
  -13   -7    6     -1.65      0.00
  -12   -7    6     -1.56      0.00
  -11   -7    6      3.05      0.00
  -10   -7    6     -2.03      0.00
   -9   -7    6     -7.89      0.00
   -8   -7    6      4.13      0.00
   -7   -7    6      4.88      0.00
   -6   -7    6     -4.60      0.00
   -5   -7    6     -3.71      0.00
   -4   -7    6      5.24      0.00
   -3   -7    6      1.09      0.00
   -2   -7    6      9.85      0.00
   -1   -7    6     -6.47      0.00
    0   -7    6     -4.05      0.00
    1   -7    6      4.36      0.00
    2   -7    6      4.98      0.00
    3   -7    6     -7.39      0.00
    4   -7    6      0.40      0.00
    5   -7    6     -1.17      0.00
    6   -7    6     -1.79      0.00
    7   -7    6     -4.01      0.00
    8   -7    6      6.61      0.00
    9   -7    6     -3.52      0.00
   10   -7    6     -1.16      0.00
   11   -7    6     -2.37      0.00
   12   -7    6      3.18      0.00
   13   -7    6     12.46      0.00
   14   -7    6     -3.51      0.00
  -14   -6    6      4.09      0.00
  -13   -6    6     -2.67      0.00
  -12   -6    6      2.26      0.00
  -11   -6    6     -2.24      0.00
  -10   -6    6     -6.13      0.00
   -9   -6    6      0.60      0.00
   -8   -6    6     13.50      0.00
   -7   -6    6     -3.03      0.00
   -6   -6    6    -15.73      0.00
   -5   -6    6      8.85      0.00
   -4   -6    6      1.71      0.00
   -3   -6    6     -2.36      0.00
   -2   -6    6     -1.51      0.00
   -1   -6    6    -11.20      0.00
    0   -6    6      7.79      0.00
    1   -6    6     10.29      0.00
    2   -6    6     -3.41      0.00
    3   -6    6     -0.15      0.00
    4   -6    6      3.26      0.00
    5   -6    6     -0.93      0.00
    6   -6    6     -1.81      0.00
    7   -6    6      1.39      0.00
    8   -6    6      3.66      0.00
    9   -6    6     -9.08      0.00
   10   -6    6      5.72      0.00
   11   -6    6     -6.91      0.00
   12   -6    6     -4.43      0.00
   13   -6    6      3.24      0.00
   14   -6    6     -2.92      0.00
   15   -6    6     -0.32      0.00
  -14   -5    6     -3.63      0.00
  -13   -5    6      5.26      0.00
  -12   -5    6     -2.28      0.00
  -11   -5    6     -0.58      0.00
  -10   -5    6     -1.58      0.00
   -9   -5    6      3.94      0.00
   -8   -5    6     -2.54      0.00
   -7   -5    6     -7.62      0.00
   -6   -5    6     -0.77      0.00
   -5   -5    6      5.18      0.00
   -4   -5    6     -3.75      0.00
   -3   -5    6      1.16      0.00
   -2   -5    6     -1.82      0.00
   -1   -5    6      1.02      0.00
    0   -5    6      1.60      0.00
    1   -5    6     -2.40      0.00
    2   -5    6     -7.11      0.00
    3   -5    6     10.21      0.00
    4   -5    6      6.35      0.00
    5   -5    6     -0.20      0.00
    6   -5    6      3.13      0.00
    7   -5    6      6.25      0.00
    8   -5    6      1.88      0.00
    9   -5    6     -5.04      0.00
   10   -5    6      9.95      0.00
   11   -5    6     -2.87      0.00
   12   -5    6      3.94      0.00
   13   -5    6      0.28      0.00
   14   -5    6     -4.73      0.00
   15   -5    6      4.65      0.00
  -14   -4    6     -1.09      0.00
  -13   -4    6     -2.65      0.00
  -12   -4    6      0.25      0.00
  -11   -4    6     -3.67      0.00
  -10   -4    6      2.34      0.00
   -9   -4    6      6.28      0.00
   -8   -4    6     -4.98      0.00
   -7   -4    6      1.42      0.00
   -6   -4    6      1.40      0.00
   -5   -4    6      5.71      0.00
   -4   -4    6     -6.67      0.00
   -3   -4    6      0.01      0.00
   -2   -4    6     -2.90      0.00
   -1   -4    6     14.59      0.00
    0   -4    6      0.38      0.00
    1   -4    6    -11.03      0.00
    2   -4    6     -8.29      0.00
    3   -4    6     -3.53      0.00
    4   -4    6    -11.38      0.00
    5   -4    6      3.47      0.00
    6   -4    6     -1.52      0.00
    7   -4    6      0.86      0.00
    8   -4    6     -3.06      0.00
    9   -4    6     -5.11      0.00
   10   -4    6      7.30      0.00
   11   -4    6     -9.42      0.00
   12   -4    6      7.60      0.00
   13   -4    6      3.81      0.00
   14   -4    6     -2.05      0.00
   15   -4    6      1.73      0.00
   16   -4    6      2.78      0.00
  -14   -3    6     -1.42      0.00
  -13   -3    6     -0.33      0.00
  -12   -3    6      1.49      0.00
  -11   -3    6      2.82      0.00
  -10   -3    6      1.40      0.00
   -9   -3    6     -6.24      0.00
   -8   -3    6     -1.25      0.00
   -7   -3    6      5.93      0.00
   -6   -3    6     -5.17      0.00
   -5   -3    6      1.63      0.00
   -4   -3    6      7.07      0.00
   -3   -3    6      0.59      0.00
   -2   -3    6     -0.33      0.00
   -1   -3    6      7.62      0.00
    0   -3    6    -16.69      0.00
    1   -3    6     23.96      0.00
    2   -3    6      6.22      0.00
    3   -3    6      3.24      0.00
    4   -3    6      0.65      0.00
    5   -3    6     -8.18      0.00
    6   -3    6     -6.83      0.00
    7   -3    6      7.02      0.00
    8   -3    6     -8.23      0.00
    9   -3    6      0.75      0.00
   10   -3    6      0.84      0.00
   11   -3    6     -4.43      0.00
   12   -3    6      2.22      0.00
   13   -3    6     -7.81      0.00
   14   -3    6     -1.30      0.00
   15   -3    6     -1.81      0.00
   16   -3    6     -8.21      0.00
  -14   -2    6      0.86      0.00
  -13   -2    6      0.27      0.00
  -12   -2    6     -3.07      0.00
  -11   -2    6     -1.32      0.00
  -10   -2    6      1.91      0.00
   -9   -2    6      0.55      0.00
   -8   -2    6     -1.14      0.00
   -7   -2    6      1.87      0.00
   -6   -2    6     -5.23      0.00
   -5   -2    6      2.48      0.00
   -4   -2    6    -14.21      0.00
   -3   -2    6     -0.35      0.00
   -2   -2    6     11.73      0.00
   -1   -2    6    -16.38      0.00
    0   -2    6      3.33      0.00
    1   -2    6    -18.13      0.00
    2   -2    6      5.40      0.00
    3   -2    6      8.87      0.00
    4   -2    6      4.10      0.00
    5   -2    6     -4.01      0.00
    6   -2    6     12.04      0.00
    7   -2    6      3.47      0.00
    8   -2    6     -4.34      0.00
    9   -2    6      3.47      0.00
   10   -2    6      4.66      0.00
   11   -2    6      2.16      0.00
   12   -2    6      5.85      0.00
   13   -2    6      0.82      0.00
   14   -2    6      0.54      0.00
   15   -2    6      4.05      0.00
   16   -2    6     -0.07      0.00
  -14   -1    6     -0.26      0.00
  -13   -1    6      3.22      0.00
  -12   -1    6      5.27      0.00
  -11   -1    6     -0.39      0.00
  -10   -1    6      4.16      0.00
   -9   -1    6     -0.88      0.00
   -8   -1    6      5.72      0.00
   -7   -1    6     -3.31      0.00
   -6   -1    6      0.13      0.00
   -5   -1    6      0.82      0.00
   -4   -1    6     12.32      0.00
   -3   -1    6     -1.66      0.00
   -2   -1    6    -12.51      0.00
   -1   -1    6      8.34      0.00
    0   -1    6     -3.21      0.00
    1   -1    6      2.44      0.00
    2   -1    6      1.24      0.00
    3   -1    6    -18.15      0.00
    4   -1    6    -18.90      0.00
    5   -1    6      2.26      0.00
    6   -1    6     14.20      0.00
    7   -1    6    -12.81      0.00
    8   -1    6     -5.52      0.00
    9   -1    6      6.73      0.00
   10   -1    6     -1.24      0.00
   11   -1    6      0.31      0.00
   12   -1    6     -0.75      0.00
   13   -1    6      0.76      0.00
   14   -1    6      0.58      0.00
   15   -1    6     -3.63      0.00
   16   -1    6      3.28      0.00
  -14    0    6     -0.98      0.00
  -13    0    6     -2.97      0.00
  -12    0    6     -5.04      0.00
  -11    0    6      2.68      0.00
  -10    0    6     -2.26      0.00
   -9    0    6     -6.98      0.00
   -8    0    6      7.01      0.00
   -7    0    6      2.05      0.00
   -6    0    6     -4.78      0.00
   -5    0    6     -4.44      0.00
   -4    0    6      8.69      0.00
   -3    0    6     -3.64      0.00
   -2    0    6      2.41      0.00
   -1    0    6      3.78      0.00
    0    0    6      8.98      0.00
    1    0    6     -3.22      0.00
    2    0    6     20.86      0.00
    3    0    6    -16.49      0.00
    4    0    6     12.27      0.00
    5    0    6     17.98      0.00
    6    0    6    -11.67      0.00
    7    0    6    -16.20      0.00
    8    0    6      8.82      0.00
    9    0    6      2.76      0.00
   10    0    6     -8.75      0.00
   11    0    6      1.52      0.00
   12    0    6     -9.69      0.00
   13    0    6      2.46      0.00
   14    0    6     -3.62      0.00
   15    0    6      1.19      0.00
   16    0    6     -0.69      0.00
   17    0    6      0.15      0.00
  -14    1    6      0.63      0.00
  -13    1    6      2.04      0.00
  -12    1    6      0.33      0.00
  -11    1    6     -1.95      0.00
  -10    1    6      2.37      0.00
   -9    1    6     -0.96      0.00
   -8    1    6      3.62      0.00
   -7    1    6     -7.09      0.00
   -6    1    6      0.83      0.00
   -5    1    6      7.33      0.00
   -4    1    6      4.08      0.00
   -3    1    6    -26.73      0.00
   -2    1    6      4.48      0.00
   -1    1    6     18.50      0.00
    0    1    6    -27.37      0.00
    2    1    6     -4.86      0.00
    3    1    6    -19.28      0.00
    4    1    6     30.07      0.00
    5    1    6     -8.58      0.00
    6    1    6    -17.49      0.00
    7    1    6     10.47      0.00
    8    1    6     17.93      0.00
    9    1    6     -5.83      0.00
   10    1    6      0.40      0.00
   11    1    6      4.64      0.00
   12    1    6     -3.48      0.00
   13    1    6      3.58      0.00
   14    1    6     -0.64      0.00
   15    1    6      1.45      0.00
   16    1    6      8.68      0.00
   17    1    6     -4.15      0.00
  -13    2    6      1.87      0.00
  -12    2    6      3.01      0.00
  -11    2    6     -2.26      0.00
  -10    2    6     -0.50      0.00
   -9    2    6     -2.65      0.00
   -8    2    6      7.91      0.00
   -7    2    6     -1.78      0.00
   -6    2    6      0.16      0.00
   -5    2    6      5.40      0.00
   -4    2    6     -7.09      0.00
   -3    2    6     -0.25      0.00
   -2    2    6      9.51      0.00
   -1    2    6     -4.39      0.00
    0    2    6     -7.89      0.00
    1    2    6      5.26      0.00
    2    2    6      7.33      0.00
    3    2    6     10.83      0.00
    4    2    6      2.06      0.00
    5    2    6    -25.44      0.00
    6    2    6      6.28      0.00
    7    2    6     18.19      0.00
    8    2    6    -12.67      0.00
    9    2    6     -7.97      0.00
   10    2    6      1.55      0.00
   11    2    6      1.75      0.00
   12    2    6     -3.16      0.00
   13    2    6      4.49      0.00
   14    2    6     -4.04      0.00
   15    2    6     -0.28      0.00
   16    2    6     -1.57      0.00
   17    2    6     -3.86      0.00
  -13    3    6     -2.18      0.00
  -12    3    6     -1.99      0.00
  -11    3    6     -1.67      0.00
  -10    3    6      0.15      0.00
   -9    3    6     -1.66      0.00
   -8    3    6      1.90      0.00
   -7    3    6     -2.43      0.00
   -6    3    6      0.10      0.00
   -5    3    6     -1.76      0.00
   -4    3    6      5.15      0.00
   -3    3    6     -3.68      0.00
   -2    3    6      7.76      0.00
   -1    3    6      1.32      0.00
    0    3    6     -2.38      0.00
    1    3    6     12.05      0.00
    2    3    6     -7.39      0.00
    3    3    6    -12.11      0.00
    4    3    6      3.61      0.00
    5    3    6     -8.03      0.00
    6    3    6     19.54      0.00
    7    3    6     -4.93      0.00
    8    3    6     -1.75      0.00
    9    3    6     -0.76      0.00
   10    3    6      1.25      0.00
   11    3    6      2.08      0.00
   12    3    6      0.93      0.00
   13    3    6     -1.38      0.00
   14    3    6      1.73      0.00
   15    3    6      3.84      0.00
   16    3    6      1.89      0.00
   17    3    6     -1.83      0.00
  -13    4    6      9.88      0.00
  -12    4    6     -3.19      0.00
  -11    4    6     -2.13      0.00
  -10    4    6     -0.77      0.00
   -9    4    6     -1.00      0.00
   -8    4    6      1.29      0.00
   -7    4    6     -6.65      0.00
   -6    4    6     -0.75      0.00
   -5    4    6      5.49      0.00
   -4    4    6     -6.38      0.00
   -3    4    6      2.79      0.00
   -2    4    6     -4.44      0.00
   -1    4    6     -3.48      0.00
    0    4    6      0.53      0.00
    1    4    6      2.74      0.00
    2    4    6      4.01      0.00
    3    4    6      5.73      0.00
    4    4    6     -0.13      0.00
    5    4    6     -0.85      0.00
    6    4    6     10.38      0.00
    7    4    6    -12.59      0.00
    8    4    6     -1.20      0.00
    9    4    6     -2.13      0.00
   10    4    6      3.79      0.00
   11    4    6      1.73      0.00
   12    4    6     -3.51      0.00
   13    4    6     -1.00      0.00
   14    4    6     -2.10      0.00
   15    4    6      1.57      0.00
   16    4    6     -3.48      0.00
   17    4    6     -0.03      0.00
  -13    5    6     -1.06      0.00
  -12    5    6     -0.37      0.00
  -11    5    6     -0.60      0.00
  -10    5    6      0.68      0.00
   -9    5    6      5.30      0.00
   -8    5    6     -2.85      0.00
   -7    5    6     -1.57      0.00
   -6    5    6      7.27      0.00
   -5    5    6     -2.18      0.00
   -4    5    6     -1.78      0.00
   -3    5    6      0.15      0.00
   -2    5    6      1.50      0.00
   -1    5    6      6.09      0.00
    0    5    6      1.99      0.00
    1    5    6    -17.94      0.00
    2    5    6     -3.14      0.00
    3    5    6     -0.65      0.00
    4    5    6      4.25      0.00
    5    5    6     -7.37      0.00
    6    5    6     13.98      0.00
    7    5    6     -5.97      0.00
    8    5    6      2.91      0.00
    9    5    6      2.79      0.00
   10    5    6      2.52      0.00
   11    5    6     -0.57      0.00
   12    5    6     -1.17      0.00
   13    5    6      2.36      0.00
   14    5    6      3.93      0.00
   15    5    6      0.13      0.00
   16    5    6     -8.66      0.00
   17    5    6     -0.27      0.00
  -12    6    6     -7.75      0.00
  -11    6    6      6.21      0.00
  -10    6    6     -0.90      0.00
   -9    6    6     -0.93      0.00
   -8    6    6     -5.54      0.00
   -7    6    6      7.97      0.00
   -6    6    6     -0.41      0.00
   -5    6    6     -5.20      0.00
   -4    6    6      3.88      0.00
   -3    6    6     12.00      0.00
   -2    6    6    -10.99      0.00
   -1    6    6      5.50      0.00
    0    6    6     -7.68      0.00
    1    6    6     10.02      0.00
    2    6    6      9.25      0.00
    3    6    6     -2.90      0.00
    4    6    6    -10.34      0.00
    5    6    6      0.35      0.00
    6    6    6      4.62      0.00
    7    6    6    -14.80      0.00
    8    6    6      0.07      0.00
    9    6    6      2.75      0.00
   11    6    6     -4.67      0.00
   12    6    6     -0.01      0.00
   13    6    6     -0.86      0.00
   14    6    6     -2.60      0.00
   15    6    6      3.75      0.00
   16    6    6     -4.99      0.00
   17    6    6      5.87      0.00
  -12    7    6      1.55      0.00
  -11    7    6      1.85      0.00
  -10    7    6     -4.86      0.00
   -9    7    6      1.12      0.00
   -8    7    6      0.22      0.00
   -7    7    6      1.58      0.00
   -6    7    6     -7.52      0.00
   -5    7    6     -1.84      0.00
   -4    7    6      4.58      0.00
   -3    7    6     -1.98      0.00
   -2    7    6     -4.45      0.00
   -1    7    6      4.53      0.00
    0    7    6     -6.15      0.00
    1    7    6      2.72      0.00
    2    7    6      1.80      0.00
    3    7    6     -5.33      0.00
    4    7    6      3.18      0.00
    5    7    6      3.14      0.00
    6    7    6      5.01      0.00
    7    7    6     -0.97      0.00
    8    7    6      2.47      0.00
    9    7    6      2.69      0.00
   10    7    6    -13.10      0.00
   11    7    6     11.67      0.00
   12    7    6     -0.40      0.00
   13    7    6     -1.33      0.00
   14    7    6     -2.12      0.00
   15    7    6     -2.70      0.00
   16    7    6      0.26      0.00
   17    7    6      4.19      0.00
  -11    8    6      5.26      0.00
  -10    8    6     -0.65      0.00
   -9    8    6      0.88      0.00
   -8    8    6     -0.17      0.00
   -7    8    6     -0.41      0.00
   -6    8    6     -4.49      0.00
   -5    8    6      8.00      0.00
   -4    8    6      2.55      0.00
   -3    8    6     -3.66      0.00
   -2    8    6     -5.67      0.00
   -1    8    6      4.61      0.00
    0    8    6      1.04      0.00
    1    8    6      3.31      0.00
    2    8    6    -17.98      0.00
    3    8    6      5.75      0.00
    4    8    6      7.36      0.00
    5    8    6      0.84      0.00
    6    8    6     -3.26      0.00
    7    8    6     -4.54      0.00
    8    8    6      7.81      0.00
    9    8    6     -1.87      0.00
   10    8    6      4.16      0.00
   11    8    6      4.49      0.00
   12    8    6     -0.48      0.00
   13    8    6      1.78      0.00
   14    8    6      0.55      0.00
   15    8    6     -0.21      0.00
   16    8    6      3.76      0.00
   17    8    6      2.20      0.00
  -11    9    6     -4.48      0.00
  -10    9    6      2.75      0.00
   -9    9    6      2.77      0.00
   -8    9    6      1.98      0.00
   -7    9    6     -1.72      0.00
   -6    9    6      0.33      0.00
   -5    9    6      2.44      0.00
   -4    9    6     -1.90      0.00
   -3    9    6      0.35      0.00
   -2    9    6      0.95      0.00
   -1    9    6      1.65      0.00
    0    9    6     -0.09      0.00
    1    9    6     -3.36      0.00
    2    9    6     -2.49      0.00
    3    9    6      6.34      0.00
    4    9    6     -3.79      0.00
    5    9    6     -3.06      0.00
    6    9    6      1.20      0.00
    7    9    6     -3.24      0.00
    8    9    6     -3.28      0.00
    9    9    6      0.23      0.00
   10    9    6     -1.36      0.00
   11    9    6      7.37      0.00
   12    9    6     -8.25      0.00
   13    9    6      0.75      0.00
   14    9    6      3.09      0.00
   15    9    6      0.82      0.00
   16    9    6     -1.39      0.00
  -10   10    6     -1.19      0.00
   -9   10    6     -3.08      0.00
   -8   10    6      0.82      0.00
   -7   10    6     -3.83      0.00
   -6   10    6      1.98      0.00
   -5   10    6      1.68      0.00
   -4   10    6     -6.27      0.00
   -3   10    6     -2.23      0.00
   -2   10    6     -0.72      0.00
   -1   10    6     -0.65      0.00
    0   10    6      3.59      0.00
    1   10    6     -3.83      0.00
    2   10    6      3.55      0.00
    3   10    6      8.74      0.00
    4   10    6     -4.26      0.00
    5   10    6     -2.39      0.00
    6   10    6     -3.74      0.00
    7   10    6     -1.21      0.00
    8   10    6      7.82      0.00
    9   10    6     -5.32      0.00
   10   10    6      2.27      0.00
   11   10    6     -4.40      0.00
   12   10    6     -4.45      0.00
   13   10    6     -1.48      0.00
   14   10    6     -1.51      0.00
   15   10    6     -5.02      0.00
   16   10    6      3.47      0.00
   -9   11    6      4.33      0.00
   -8   11    6     -0.54      0.00
   -7   11    6     -1.10      0.00
   -6   11    6     -1.25      0.00
   -5   11    6      0.60      0.00
   -4   11    6     -0.51      0.00
   -3   11    6      2.56      0.00
   -2   11    6     -2.48      0.00
   -1   11    6      5.16      0.00
    0   11    6     -0.09      0.00
    1   11    6     -5.90      0.00
    2   11    6      0.36      0.00
    3   11    6      4.74      0.00
    4   11    6      0.34      0.00
    5   11    6     -2.83      0.00
    6   11    6      4.15      0.00
    7   11    6      3.47      0.00
    8   11    6     -2.96      0.00
    9   11    6     -2.29      0.00
   10   11    6      2.03      0.00
   11   11    6      3.05      0.00
   12   11    6     -1.28      0.00
   13   11    6      3.60      0.00
   14   11    6      0.86      0.00
   15   11    6      3.06      0.00
   16   11    6      2.45      0.00
   -9   12    6     -2.63      0.00
   -8   12    6     -2.94      0.00
   -7   12    6      0.97      0.00
   -6   12    6      3.12      0.00
   -5   12    6      2.38      0.00
   -4   12    6     -4.10      0.00
   -3   12    6      2.71      0.00
   -2   12    6      1.05      0.00
   -1   12    6     -5.30      0.00
    0   12    6      2.22      0.00
    1   12    6     -2.86      0.00
    2   12    6      7.69      0.00
    3   12    6     -1.19      0.00
    4   12    6     -9.38      0.00
    5   12    6     -4.07      0.00
    6   12    6      4.38      0.00
    7   12    6      1.81      0.00
    8   12    6     -4.08      0.00
    9   12    6     -1.08      0.00
   10   12    6      4.03      0.00
   11   12    6     -0.69      0.00
   12   12    6     -1.63      0.00
   13   12    6      1.91      0.00
   14   12    6      1.76      0.00
   15   12    6      1.22      0.00
   -8   13    6      0.45      0.00
   -7   13    6      1.63      0.00
   -6   13    6     -3.21      0.00
   -5   13    6      5.16      0.00
   -4   13    6      1.00      0.00
   -3   13    6      2.62      0.00
   -2   13    6     -1.36      0.00
   -1   13    6      4.08      0.00
    0   13    6      1.97      0.00
    1   13    6     -6.95      0.00
    2   13    6      1.73      0.00
    3   13    6      0.42      0.00
    4   13    6      1.59      0.00
    5   13    6      3.62      0.00
    6   13    6      3.04      0.00
    7   13    6     -6.69      0.00
    8   13    6     -1.58      0.00
    9   13    6      4.75      0.00
   10   13    6     -1.63      0.00
   11   13    6     -2.26      0.00
   12   13    6     -0.65      0.00
   13   13    6      5.15      0.00
   14   13    6     -1.23      0.00
   15   13    6      0.60      0.00
   -7   14    6     -1.16      0.00
   -6   14    6      1.08      0.00
   -5   14    6     -2.00      0.00
   -4   14    6     -2.52      0.00
   -3   14    6     -2.28      0.00
   -2   14    6     -2.21      0.00
   -1   14    6      2.89      0.00
    0   14    6      3.05      0.00
    1   14    6     -1.67      0.00
    2   14    6      8.31      0.00
    3   14    6     -4.11      0.00
    4   14    6     -3.36      0.00
    5   14    6      3.06      0.00
    6   14    6     -2.69      0.00
    8   14    6     -2.84      0.00
    9   14    6      1.57      0.00
   10   14    6      0.33      0.00
   11   14    6     -1.19      0.00
   12   14    6     -6.30      0.00
   13   14    6      3.04      0.00
   14   14    6     -2.73      0.00
   -6   15    6     -1.19      0.00
   -5   15    6      3.11      0.00
   -4   15    6      0.13      0.00
   -1   15    6      4.97      0.00
    0   15    6     -3.93      0.00
    1   15    6     -1.19      0.00
    2   15    6      1.34      0.00
    3   15    6      1.03      0.00
    4   15    6     -0.04      0.00
    5   15    6     -3.70      0.00
    7   15    6      4.68      0.00
    8   15    6      1.43      0.00
    9   15    6      0.29      0.00
   10   15    6     -0.07      0.00
   11   15    6     -1.05      0.00
   12   15    6      1.71      0.00
   13   15    6      3.11      0.00
   -1   16    6     -0.98      0.00
    0   16    6     -5.92      0.00
    1   16    6      0.47      0.00
    2   16    6     -0.09      0.00
    3   16    6     -3.25      0.00
    6   16    6      0.61      0.00
    7   16    6      1.73      0.00
    8   16    6     -6.18      0.00
    9   16    6      0.77      0.00
   10   16    6     -1.06      0.00
   11   16    6     -7.44      0.00
   12   16    6      2.35      0.00
   13   16    6      1.18      0.00
    0   17    6      1.76      0.00
    4   17    6     -3.46      0.00
    5   17    6     -1.85      0.00
    6   17    6      2.78      0.00
    7   17    6      1.91      0.00
    8   17    6     -1.43      0.00
    9   17    6     -0.16      0.00
   10   17    6     -1.39      0.00
    1   18    6     -2.93      0.00
    2   18    6      2.36      0.00
    3   18    6      1.98      0.00
    4   18    6      0.81      0.00
    5   18    6      1.21      0.00
    6   18    6      2.54      0.00
    7   18    6     -2.28      0.00
    8   18    6     -4.49      0.00
    9   18    6      4.96      0.00
   10   18    6      5.24      0.00
    2   19    6      3.11      0.00
    3   19    6     -2.80      0.00
    4   19    6      3.58      0.00
    5   19    6      1.65      0.00
    6   19    6      2.34      0.00
    7   19    6      1.73      0.00
   -3  -18    7     -3.31      0.00
   -2  -18    7     -1.45      0.00
   -1  -18    7      2.27      0.00
    0  -18    7      2.76      0.00
   -6  -17    7      3.86      0.00
   -5  -17    7     -0.14      0.00
   -4  -17    7     -2.74      0.00
   -3  -17    7      6.95      0.00
   -2  -17    7      2.23      0.00
   -1  -17    7      4.07      0.00
    0  -17    7     -3.21      0.00
    1  -17    7     -2.99      0.00
    2  -17    7     -4.32      0.00
    3  -17    7     -2.47      0.00
   -8  -16    7     -5.49      0.00
   -7  -16    7      5.36      0.00
   -6  -16    7     -0.51      0.00
   -5  -16    7     -3.17      0.00
   -4  -16    7      0.55      0.00
   -3  -16    7      0.58      0.00
   -2  -16    7     -4.35      0.00
   -1  -16    7      1.67      0.00
    0  -16    7     -2.32      0.00
    1  -16    7      5.09      0.00
    2  -16    7     -0.06      0.00
    3  -16    7     -0.26      0.00
    4  -16    7     -0.14      0.00
    5  -16    7      6.89      0.00
    6  -16    7     -2.98      0.00
   -9  -15    7    -10.67      0.00
   -8  -15    7      0.60      0.00
   -7  -15    7     -0.26      0.00
   -6  -15    7     -2.62      0.00
   -5  -15    7      1.71      0.00
   -4  -15    7      4.05      0.00
   -3  -15    7     -1.53      0.00
   -2  -15    7      0.63      0.00
   -1  -15    7      0.38      0.00
    0  -15    7     -3.51      0.00
    1  -15    7     -4.81      0.00
    2  -15    7      1.38      0.00
    3  -15    7      0.86      0.00
    4  -15    7      1.82      0.00
    5  -15    7     -4.60      0.00
    6  -15    7     -6.10      0.00
    7  -15    7     -1.12      0.00
  -10  -14    7     -4.25      0.00
   -9  -14    7     -0.85      0.00
   -8  -14    7      1.65      0.00
   -7  -14    7      2.02      0.00
   -6  -14    7      3.30      0.00
   -5  -14    7     -1.39      0.00
   -4  -14    7     -1.70      0.00
   -3  -14    7     -1.14      0.00
   -2  -14    7     -2.12      0.00
   -1  -14    7      2.06      0.00
    0  -14    7      0.28      0.00
    1  -14    7      5.36      0.00
    2  -14    7      0.12      0.00
    3  -14    7      4.70      0.00
    4  -14    7      0.67      0.00
    5  -14    7     -3.09      0.00
    6  -14    7      4.56      0.00
    7  -14    7      3.41      0.00
    8  -14    7      2.95      0.00
  -11  -13    7      3.32      0.00
  -10  -13    7     -1.56      0.00
   -9  -13    7     -2.13      0.00
   -8  -13    7      2.22      0.00
   -7  -13    7     -1.69      0.00
   -6  -13    7      2.83      0.00
   -5  -13    7     -1.51      0.00
   -4  -13    7     -0.17      0.00
   -3  -13    7     -1.78      0.00
   -2  -13    7      3.94      0.00
   -1  -13    7      1.21      0.00
    0  -13    7      0.75      0.00
    1  -13    7     -3.51      0.00
    2  -13    7      0.73      0.00
    3  -13    7     -3.73      0.00
    4  -13    7     -4.96      0.00
    5  -13    7      1.25      0.00
    6  -13    7      6.11      0.00
    7  -13    7      1.36      0.00
    8  -13    7     -4.45      0.00
    9  -13    7     -2.23      0.00
   10  -13    7      4.40      0.00
  -11  -12    7      5.10      0.00
  -10  -12    7     -2.10      0.00
   -9  -12    7      1.73      0.00
   -8  -12    7     -1.25      0.00
   -7  -12    7      3.24      0.00
   -6  -12    7     -3.76      0.00
   -5  -12    7     -4.77      0.00
   -4  -12    7      1.15      0.00
   -3  -12    7      4.05      0.00
   -2  -12    7     -3.87      0.00
   -1  -12    7      1.89      0.00
    0  -12    7     -5.25      0.00
    1  -12    7      2.48      0.00
    2  -12    7      0.03      0.00
    3  -12    7      3.18      0.00
    4  -12    7     -4.11      0.00
    5  -12    7      2.46      0.00
    6  -12    7     -2.66      0.00
    7  -12    7     -1.86      0.00
    8  -12    7     -3.80      0.00
    9  -12    7     -0.59      0.00
   10  -12    7      1.86      0.00
   11  -12    7     -4.94      0.00
  -12  -11    7     -1.13      0.00
  -11  -11    7     -3.58      0.00
  -10  -11    7      0.30      0.00
   -9  -11    7     -1.92      0.00
   -8  -11    7      1.85      0.00
   -7  -11    7     -0.84      0.00
   -6  -11    7      2.62      0.00
   -5  -11    7      1.25      0.00
   -4  -11    7      3.79      0.00
   -3  -11    7     -3.62      0.00
   -2  -11    7     -0.16      0.00
   -1  -11    7     -0.99      0.00
    0  -11    7      1.42      0.00
    1  -11    7     -0.10      0.00
    2  -11    7     -1.21      0.00
    3  -11    7     -4.18      0.00
    4  -11    7      0.59      0.00
    5  -11    7      4.93      0.00
    6  -11    7     -5.63      0.00
    7  -11    7     -2.31      0.00
    8  -11    7      2.80      0.00
    9  -11    7      6.42      0.00
   10  -11    7      0.48      0.00
   11  -11    7     -5.99      0.00
  -12  -10    7      8.19      0.00
  -11  -10    7      0.23      0.00
  -10  -10    7     -3.45      0.00
   -9  -10    7     -2.76      0.00
   -8  -10    7      0.26      0.00
   -7  -10    7      3.21      0.00
   -6  -10    7     -2.07      0.00
   -5  -10    7     -1.85      0.00
   -4  -10    7      0.54      0.00
   -3  -10    7     -1.64      0.00
   -2  -10    7      5.01      0.00
   -1  -10    7      0.41      0.00
    0  -10    7     -1.67      0.00
    1  -10    7     -1.14      0.00
    2  -10    7     -0.82      0.00
    3  -10    7      2.12      0.00
    4  -10    7      1.59      0.00
    5  -10    7     -0.64      0.00
    6  -10    7     -0.36      0.00
    7  -10    7     -2.66      0.00
    8  -10    7     -8.23      0.00
    9  -10    7      0.32      0.00
   10  -10    7      4.17      0.00
   11  -10    7     -2.86      0.00
   12  -10    7      7.27      0.00
  -13   -9    7      3.18      0.00
  -12   -9    7      0.89      0.00
  -11   -9    7     -0.18      0.00
  -10   -9    7      3.87      0.00
   -9   -9    7     -4.08      0.00
   -8   -9    7      4.10      0.00
   -7   -9    7      1.23      0.00
   -6   -9    7      0.69      0.00
   -5   -9    7     -5.33      0.00
   -4   -9    7      4.02      0.00
   -3   -9    7     -1.67      0.00
   -2   -9    7      1.21      0.00
   -1   -9    7     -3.88      0.00
    0   -9    7      3.44      0.00
    1   -9    7     -0.26      0.00
    2   -9    7      0.33      0.00
    3   -9    7      1.37      0.00
    4   -9    7     -0.72      0.00
    5   -9    7     -2.87      0.00
    6   -9    7     -2.26      0.00
    7   -9    7      7.87      0.00
    8   -9    7     10.87      0.00
    9   -9    7      0.36      0.00
   10   -9    7     -3.78      0.00
   11   -9    7      2.48      0.00
   12   -9    7      2.16      0.00
   13   -9    7     -3.55      0.00
  -12   -8    7     -4.89      0.00
  -11   -8    7     -3.61      0.00
  -10   -8    7     -5.87      0.00
   -9   -8    7      5.06      0.00
   -8   -8    7      6.83      0.00
   -7   -8    7     -8.23      0.00
   -6   -8    7     -6.26      0.00
   -5   -8    7      1.41      0.00
   -4   -8    7      5.08      0.00
   -3   -8    7     -2.22      0.00
   -2   -8    7      3.55      0.00
   -1   -8    7     -5.31      0.00
    0   -8    7      3.20      0.00
    1   -8    7      3.59      0.00
    2   -8    7      0.18      0.00
    3   -8    7     -0.03      0.00
    4   -8    7      1.44      0.00
    5   -8    7     -2.85      0.00
    6   -8    7      1.11      0.00
    7   -8    7     -1.14      0.00
    8   -8    7     -4.22      0.00
    9   -8    7     -4.96      0.00
   10   -8    7      0.21      0.00
   11   -8    7     -7.63      0.00
   12   -8    7      2.96      0.00
   13   -8    7      7.59      0.00
   14   -8    7     -3.56      0.00
  -12   -7    7      1.76      0.00
  -11   -7    7     -0.08      0.00
  -10   -7    7     -2.16      0.00
   -9   -7    7      3.11      0.00
   -8   -7    7      2.25      0.00
   -7   -7    7     -7.57      0.00
   -6   -7    7      1.95      0.00
   -5   -7    7      6.30      0.00
   -4   -7    7     -4.33      0.00
   -3   -7    7     -4.05      0.00
   -2   -7    7     -0.64      0.00
   -1   -7    7      0.13      0.00
    0   -7    7      8.34      0.00
    1   -7    7     -4.18      0.00
    2   -7    7     -3.82      0.00
    3   -7    7      5.62      0.00
    4   -7    7     -2.57      0.00
    5   -7    7     -1.28      0.00
    6   -7    7      0.49      0.00
    7   -7    7      6.69      0.00
    8   -7    7     -7.11      0.00
    9   -7    7     -1.61      0.00
   10   -7    7      8.46      0.00
   11   -7    7     -2.07      0.00
   12   -7    7     -3.38      0.00
   13   -7    7     -7.18      0.00
   14   -7    7     -2.00      0.00
  -13   -6    7      1.60      0.00
  -12   -6    7      0.26      0.00
  -11   -6    7      1.84      0.00
  -10   -6    7      5.35      0.00
   -9   -6    7      3.03      0.00
   -8   -6    7    -11.90      0.00
   -7   -6    7      1.08      0.00
   -6   -6    7      9.54      0.00
   -5   -6    7      0.17      0.00
   -4   -6    7     -9.08      0.00
   -3   -6    7      3.53      0.00
   -2   -6    7      5.22      0.00
   -1   -6    7      4.50      0.00
    0   -6    7     -0.81      0.00
    1   -6    7    -12.19      0.00
    2   -6    7      1.06      0.00
    3   -6    7      2.71      0.00
    4   -6    7     -4.23      0.00
    5   -6    7      2.02      0.00
    6   -6    7      7.58      0.00
    7   -6    7      4.51      0.00
    8   -6    7     -7.46      0.00
    9   -6    7      3.32      0.00
   10   -6    7      6.10      0.00
   11   -6    7     -5.38      0.00
   12   -6    7      7.61      0.00
   13   -6    7      2.02      0.00
   14   -6    7     -2.58      0.00
   15   -6    7      5.94      0.00
  -14   -5    7      3.72      0.00
  -13   -5    7     -3.27      0.00
  -12   -5    7      0.02      0.00
  -11   -5    7     -0.02      0.00
  -10   -5    7     -0.97      0.00
   -9   -5    7     -0.70      0.00
   -8   -5    7      1.51      0.00
   -7   -5    7     11.17      0.00
   -6   -5    7     -7.89      0.00
   -5   -5    7     -2.57      0.00
   -4   -5    7      1.51      0.00
   -3   -5    7      2.99      0.00
   -2   -5    7      2.58      0.00
   -1   -5    7     -3.18      0.00
    0   -5    7     -4.53      0.00
    1   -5    7      2.14      0.00
    2   -5    7      7.68      0.00
    3   -5    7     -9.81      0.00
    4   -5    7    -11.87      0.00
    5   -5    7      3.90      0.00
    6   -5    7     -1.58      0.00
    7   -5    7     -7.05      0.00
    8   -5    7     -5.29      0.00
    9   -5    7      2.72      0.00
   10   -5    7      3.36      0.00
   11   -5    7     -8.34      0.00
   12   -5    7      5.64      0.00
   13   -5    7     -1.84      0.00
   14   -5    7      2.29      0.00
   15   -5    7     -3.24      0.00
  -14   -4    7     -3.15      0.00
  -13   -4    7      1.52      0.00
  -12   -4    7     -1.07      0.00
  -11   -4    7      3.14      0.00
  -10   -4    7      1.75      0.00
   -9   -4    7     -6.40      0.00
   -8   -4    7      0.58      0.00
   -7   -4    7      2.80      0.00
   -6   -4    7    -10.91      0.00
   -5   -4    7      0.58      0.00
   -4   -4    7      4.05      0.00
   -3   -4    7     -1.99      0.00
   -2   -4    7      4.46      0.00
   -1   -4    7     -2.50      0.00
    0   -4    7    -10.88      0.00
    1   -4    7     18.97      0.00
    2   -4    7      0.93      0.00
    3   -4    7      5.91      0.00
    4   -4    7     11.28      0.00
    5   -4    7      1.75      0.00
    6   -4    7     -0.22      0.00
    7   -4    7     -4.05      0.00
    8   -4    7      0.26      0.00
    9   -4    7      3.98      0.00
   10   -4    7      0.49      0.00
   11   -4    7     -2.49      0.00
   12   -4    7      1.41      0.00
   13   -4    7     -4.39      0.00
   14   -4    7      1.76      0.00
   15   -4    7     -1.92      0.00
  -14   -3    7      0.58      0.00
  -13   -3    7      3.11      0.00
  -12   -3    7     -0.85      0.00
  -11   -3    7     -2.24      0.00
  -10   -3    7      1.10      0.00
   -9   -3    7      3.31      0.00
   -8   -3    7      3.90      0.00
   -7   -3    7     -4.26      0.00
   -6   -3    7     -4.33      0.00
   -5   -3    7      8.68      0.00
   -4   -3    7     -6.62      0.00
   -3   -3    7     -2.61      0.00
   -2   -3    7      0.45      0.00
   -1   -3    7     -8.64      0.00
    0   -3    7      8.44      0.00
    1   -3    7    -15.25      0.00
    2   -3    7     -9.92      0.00
    3   -3    7     -5.13      0.00
    4   -3    7      1.59      0.00
    5   -3    7      8.53      0.00
    6   -3    7      2.59      0.00
    7   -3    7     -4.43      0.00
    8   -3    7      7.16      0.00
    9   -3    7     -0.60      0.00
   10   -3    7      3.41      0.00
   11   -3    7     -2.20      0.00
   12   -3    7      4.05      0.00
   13   -3    7      0.82      0.00
   14   -3    7      3.31      0.00
   15   -3    7      2.23      0.00
   16   -3    7      6.96      0.00
  -14   -2    7      0.05      0.00
  -13   -2    7     -1.60      0.00
  -12   -2    7      4.07      0.00
  -11   -2    7      1.58      0.00
  -10   -2    7      2.74      0.00
   -9   -2    7     -5.11      0.00
   -8   -2    7      7.39      0.00
   -7   -2    7     -5.58      0.00
   -6   -2    7      0.10      0.00
   -5   -2    7      2.00      0.00
   -4   -2    7     11.34      0.00
   -3   -2    7     -1.16      0.00
   -2   -2    7     -5.12      0.00
   -1   -2    7     11.64      0.00
    0   -2    7     -3.31      0.00
    1   -2    7     14.69      0.00
    2   -2    7     -0.96      0.00
    3   -2    7     -4.89      0.00
    4   -2    7     -3.59      0.00
    5   -2    7     -2.78      0.00
    6   -2    7    -14.15      0.00
    7   -2    7     -3.61      0.00
    8   -2    7      1.71      0.00
    9   -2    7     -1.25      0.00
   10   -2    7     -1.77      0.00
   11   -2    7     -5.68      0.00
   12   -2    7     -1.39      0.00
   13   -2    7      2.25      0.00
   14   -2    7     -1.71      0.00
   15   -2    7     -4.83      0.00
   16   -2    7      1.16      0.00
  -13   -1    7     -3.67      0.00
  -12   -1    7     -4.10      0.00
  -11   -1    7     -1.39      0.00
  -10   -1    7     -4.42      0.00
   -9   -1    7     -4.16      0.00
   -8   -1    7      3.93      0.00
   -7   -1    7     -5.34      0.00
   -6   -1    7      3.49      0.00
   -5   -1    7      2.27      0.00
   -4   -1    7     -5.87      0.00
   -3   -1    7    -13.64      0.00
   -2   -1    7     14.05      0.00
   -1   -1    7     -4.84      0.00
    0   -1    7     -2.28      0.00
    1   -1    7     -8.22      0.00
    2   -1    7     15.66      0.00
    3   -1    7      2.42      0.00
    4   -1    7     17.80      0.00
    5   -1    7     -0.72      0.00
    6   -1    7    -12.07      0.00
    7   -1    7     15.13      0.00
    8   -1    7      8.95      0.00
    9   -1    7     -5.47      0.00
   10   -1    7     -0.79      0.00
   11   -1    7      0.09      0.00
   12   -1    7     -2.08      0.00
   13   -1    7     -0.01      0.00
   14   -1    7     -4.43      0.00
   15   -1    7      7.56      0.00
   16   -1    7     -2.37      0.00
  -13    0    7      3.78      0.00
  -12    0    7      6.40      0.00
  -11    0    7     -6.21      0.00
  -10    0    7      4.08      0.00
   -9    0    7      3.39      0.00
   -8    0    7      4.63      0.00
   -7    0    7    -11.45      0.00
   -6    0    7      9.11      0.00
   -5    0    7      4.47      0.00
   -4    0    7      2.94      0.00
   -3    0    7    -14.74      0.00
   -2    0    7     11.48      0.00
   -1    0    7     -4.36      0.00
    0    0    7    -17.00      0.00
    1    0    7     17.01      0.00
    2    0    7     -8.08      0.00
    3    0    7     -5.05      0.00
    4    0    7      2.67      0.00
    5    0    7    -27.75      0.00
    6    0    7      8.62      0.00
    7    0    7     17.29      0.00
    8    0    7     -9.72      0.00
    9    0    7     -5.28      0.00
   10    0    7      9.95      0.00
   11    0    7      2.72      0.00
   12    0    7      3.88      0.00
   13    0    7      2.86      0.00
   14    0    7     -1.78      0.00
   15    0    7      2.00      0.00
   16    0    7      4.35      0.00
   17    0    7     -3.29      0.00
  -13    1    7      0.26      0.00
  -12    1    7     -1.76      0.00
  -11    1    7     -1.02      0.00
  -10    1    7      0.24      0.00
   -9    1    7     -2.42      0.00
   -8    1    7      1.01      0.00
   -7    1    7     -2.32      0.00
   -6    1    7      5.42      0.00
   -5    1    7      0.02      0.00
   -4    1    7     -6.94      0.00
   -3    1    7      4.89      0.00
   -2    1    7     11.48      0.00
   -1    1    7    -12.79      0.00
    0    1    7     10.90      0.00
    1    1    7      2.79      0.00
    2    1    7      2.85      0.00
    3    1    7      7.35      0.00
    4    1    7    -10.58      0.00
    5    1    7     -2.89      0.00
    6    1    7     25.95      0.00
    7    1    7     -5.53      0.00
    8    1    7    -20.70      0.00
    9    1    7      5.19      0.00
   10    1    7     -0.73      0.00
   11    1    7     -4.98      0.00
   12    1    7     -1.85      0.00
   13    1    7      1.68      0.00
   14    1    7     -2.90      0.00
   15    1    7      1.28      0.00
   16    1    7     -7.55      0.00
   17    1    7     -2.36      0.00
  -13    2    7      1.04      0.00
  -12    2    7     -9.76      0.00
  -11    2    7     -1.17      0.00
  -10    2    7      3.09      0.00
   -9    2    7      0.21      0.00
   -8    2    7     -4.69      0.00
   -7    2    7     -1.14      0.00
   -6    2    7      4.55      0.00
   -5    2    7     -2.21      0.00
   -4    2    7      5.36      0.00
   -3    2    7     -6.79      0.00
   -2    2    7      2.62      0.00
   -1    2    7     -0.60      0.00
    0    2    7      3.76      0.00
    1    2    7      8.06      0.00
    2    2    7     -7.35      0.00
    3    2    7    -13.73      0.00
    4    2    7     -0.10      0.00
    5    2    7     10.07      0.00
    6    2    7      6.71      0.00
    7    2    7    -24.09      0.00
    8    2    7      7.46      0.00
    9    2    7     10.17      0.00
   10    2    7     -3.35      0.00
   11    2    7      1.95      0.00
   12    2    7     -1.06      0.00
   13    2    7     -2.42      0.00
   14    2    7      2.04      0.00
   15    2    7      2.57      0.00
   16    2    7      1.53      0.00
   17    2    7     -2.08      0.00
  -13    3    7      7.15      0.00
  -12    3    7     -2.53      0.00
  -11    3    7      3.98      0.00
  -10    3    7      0.77      0.00
   -9    3    7     -1.27      0.00
   -8    3    7      0.35      0.00
   -7    3    7      2.96      0.00
   -6    3    7     -0.79      0.00
   -5    3    7      4.41      0.00
   -4    3    7    -11.09      0.00
   -3    3    7      1.52      0.00
   -2    3    7      4.17      0.00
   -1    3    7     -1.14      0.00
    0    3    7     -8.01      0.00
    1    3    7    -10.17      0.00
    2    3    7      7.65      0.00
    3    3    7      5.26      0.00
    4    3    7     -3.06      0.00
    5    3    7      7.67      0.00
    6    3    7     -2.95      0.00
    7    3    7     -5.99      0.00
    8    3    7     12.00      0.00
    9    3    7     -2.08      0.00
   10    3    7     -2.75      0.00
   11    3    7      3.73      0.00
   12    3    7     -4.57      0.00
   13    3    7      1.15      0.00
   14    3    7     -0.46      0.00
   15    3    7     -3.65      0.00
   16    3    7     -5.16      0.00
   17    3    7      1.90      0.00
  -12    4    7     -1.07      0.00
  -11    4    7      5.22      0.00
  -10    4    7      0.54      0.00
   -9    4    7     -0.86      0.00
   -8    4    7     -1.32      0.00
   -7    4    7      7.65      0.00
   -6    4    7      1.43      0.00
   -5    4    7     -5.71      0.00
   -4    4    7      3.89      0.00
   -3    4    7      2.17      0.00
   -2    4    7     -0.05      0.00
   -1    4    7      4.28      0.00
    0    4    7      4.07      0.00
    1    4    7     -2.26      0.00
    2    4    7      1.29      0.00
    3    4    7     -8.65      0.00
    4    4    7      2.26      0.00
    5    4    7     -3.11      0.00
    6    4    7      1.03      0.00
    7    4    7     -4.77      0.00
    8    4    7      6.90      0.00
    9    4    7     -5.28      0.00
   10    4    7     -0.05      0.00
   11    4    7      1.46      0.00
   12    4    7     -2.22      0.00
   13    4    7      1.60      0.00
   14    4    7      4.16      0.00
   15    4    7      0.45      0.00
   16    4    7     -0.73      0.00
   17    4    7      2.80      0.00
  -12    5    7     -5.38      0.00
  -11    5    7      4.34      0.00
  -10    5    7     -4.65      0.00
   -9    5    7     -4.98      0.00
   -8    5    7      1.55      0.00
   -7    5    7      1.69      0.00
   -6    5    7    -12.45      0.00
   -5    5    7     -0.31      0.00
   -4    5    7      5.71      0.00
   -3    5    7      5.73      0.00
   -2    5    7     -6.25      0.00
   -1    5    7      3.47      0.00
    0    5    7    -13.85      0.00
    1    5    7     10.79      0.00
    2    5    7      7.71      0.00
    3    5    7     -6.00      0.00
    4    5    7      1.58      0.00
    5    5    7      6.23      0.00
    6    5    7      2.15      0.00
    7    5    7     -7.35      0.00
    8    5    7      6.16      0.00
    9    5    7     -8.53      0.00
   10    5    7      1.74      0.00
   11    5    7      5.17      0.00
   12    5    7      0.53      0.00
   13    5    7     -3.28      0.00
   14    5    7     -1.86      0.00
   15    5    7      0.63      0.00
   16    5    7     -0.70      0.00
   17    5    7      7.18      0.00
  -12    6    7      5.10      0.00
  -11    6    7      1.21      0.00
  -10    6    7     -5.23      0.00
   -9    6    7      4.74      0.00
   -8    6    7      3.62      0.00
   -7    6    7     -6.30      0.00
   -6    6    7     -4.29      0.00
   -5    6    7      5.74      0.00
   -4    6    7      0.92      0.00
   -3    6    7    -10.23      0.00
   -2    6    7     -0.25      0.00
   -1    6    7      5.69      0.00
    0    6    7     -1.13      0.00
    1    6    7     -2.11      0.00
    2    6    7     -8.14      0.00
    3    6    7      0.97      0.00
    4    6    7     11.65      0.00
    5    6    7     -6.49      0.00
    6    6    7      1.77      0.00
    7    6    7     -1.07      0.00
    8    6    7      4.86      0.00
    9    6    7     -1.34      0.00
   10    6    7     -1.43      0.00
   11    6    7      8.87      0.00
   12    6    7     -6.30      0.00
   13    6    7      3.04      0.00
   14    6    7      4.49      0.00
   15    6    7     -1.91      0.00
   16    6    7     -1.07      0.00
   17    6    7      0.59      0.00
  -11    7    7      4.00      0.00
  -10    7    7     -0.92      0.00
   -9    7    7      6.84      0.00
   -8    7    7     -2.52      0.00
   -7    7    7     -3.90      0.00
   -6    7    7      2.04      0.00
   -5    7    7      3.89      0.00
   -4    7    7     -0.53      0.00
   -3    7    7     -1.31      0.00
   -2    7    7     -0.25      0.00
   -1    7    7      2.89      0.00
    0    7    7     -4.99      0.00
    1    7    7      5.37      0.00
    2    7    7     -8.43      0.00
    3    7    7      8.79      0.00
    4    7    7     -3.08      0.00
    5    7    7     -5.14      0.00
    6    7    7      2.58      0.00
    7    7    7     -6.33      0.00
    8    7    7      1.52      0.00
    9    7    7     -4.18      0.00
   10    7    7     11.26      0.00
   11    7    7     -4.14      0.00
   12    7    7     -8.69      0.00
   13    7    7      5.04      0.00
   14    7    7      0.35      0.00
   15    7    7      0.81      0.00
   16    7    7     -1.41      0.00
   17    7    7     -2.25      0.00
  -11    8    7     -3.54      0.00
  -10    8    7     -2.26      0.00
   -9    8    7      3.90      0.00
   -8    8    7     -1.43      0.00
   -7    8    7     -0.05      0.00
   -6    8    7      4.09      0.00
   -4    8    7     -3.93      0.00
   -3    8    7      3.09      0.00
   -2    8    7      1.48      0.00
   -1    8    7      0.83      0.00
    0    8    7     -1.46      0.00
    1    8    7     -0.64      0.00
    2    8    7      4.65      0.00
    3    8    7      7.35      0.00
    4    8    7    -12.31      0.00
    5    8    7     -4.76      0.00
    6    8    7      6.91      0.00
    7    8    7     -1.85      0.00
    8    8    7     -2.46      0.00
    9    8    7     -0.16      0.00
   10    8    7     -4.93      0.00
   11    8    7      2.00      0.00
   12    8    7     -8.42      0.00
   13    8    7      6.21      0.00
   14    8    7     -3.01      0.00
   15    8    7      1.79      0.00
   16    8    7     -3.23      0.00
   17    8    7     -1.36      0.00
  -10    9    7      0.60      0.00
   -9    9    7     -2.27      0.00
   -8    9    7     -4.41      0.00
   -7    9    7     -2.05      0.00
   -6    9    7      1.12      0.00
   -4    9    7     -0.70      0.00
   -3    9    7      1.04      0.00
   -2    9    7     -4.35      0.00
   -1    9    7      1.65      0.00
    0    9    7      1.15      0.00
    1    9    7      0.92      0.00
    2    9    7      1.14      0.00
    3    9    7      2.25      0.00
    4    9    7     -3.98      0.00
    5    9    7      8.02      0.00
    6    9    7     -0.47      0.00
    7    9    7     -3.10      0.00
    8    9    7      6.12      0.00
    9    9    7     -5.16      0.00
   10    9    7      7.12      0.00
   11    9    7     -6.09      0.00
   12    9    7      2.89      0.00
   13    9    7      4.85      0.00
   14    9    7     -4.83      0.00
   15    9    7     -2.22      0.00
   16    9    7      5.35      0.00
  -10   10    7      2.58      0.00
   -9   10    7      1.71      0.00
   -8   10    7     -0.92      0.00
   -7   10    7      4.46      0.00
   -6   10    7      2.21      0.00
   -5   10    7     -0.66      0.00
   -4   10    7      2.17      0.00
   -3   10    7      2.35      0.00
   -2   10    7     -4.69      0.00
   -1   10    7      6.16      0.00
    0   10    7     -3.37      0.00
    1   10    7     -1.78      0.00
    2   10    7     -0.91      0.00
    3   10    7     -1.89      0.00
    4   10    7     -2.99      0.00
    5   10    7      1.16      0.00
    6   10    7      4.52      0.00
    7   10    7     -0.20      0.00
    8   10    7     -4.65      0.00
    9   10    7      1.59      0.00
   10   10    7      2.04      0.00
   11   10    7      0.01      0.00
   12   10    7      3.06      0.00
   13   10    7      3.49      0.00
   14   10    7     -0.20      0.00
   15   10    7      6.52      0.00
   16   10    7     -1.83      0.00
   -9   11    7     -3.74      0.00
   -8   11    7      0.50      0.00
   -7   11    7      0.33      0.00
   -6   11    7      0.57      0.00
   -5   11    7      1.19      0.00
   -4   11    7     -3.06      0.00
   -3   11    7      1.15      0.00
   -2   11    7      2.01      0.00
   -1   11    7     -0.47      0.00
    0   11    7     -1.53      0.00
    1   11    7     -1.20      0.00
    2   11    7      5.87      0.00
    3   11    7     -1.35      0.00
    4   11    7     -2.81      0.00
    5   11    7      0.73      0.00
    6   11    7     -2.63      0.00
    7   11    7     -5.21      0.00
    8   11    7      1.27      0.00
    9   11    7      2.38      0.00
   10   11    7      1.39      0.00
   11   11    7     -5.18      0.00
   12   11    7      0.88      0.00
   13   11    7     -4.31      0.00
   14   11    7      2.82      0.00
   15   11    7     -4.20      0.00
   16   11    7     -1.52      0.00
   -8   12    7      5.57      0.00
   -7   12    7      0.19      0.00
   -6   12    7     -0.07      0.00
   -5   12    7     -0.49      0.00
   -4   12    7     -0.50      0.00
   -3   12    7      0.20      0.00
   -2   12    7     -3.05      0.00
   -1   12    7      6.27      0.00
    0   12    7      1.13      0.00
    1   12    7      0.59      0.00
    2   12    7     -0.23      0.00
    3   12    7     -3.25      0.00
    4   12    7      2.06      0.00
    5   12    7      6.38      0.00
    6   12    7      2.95      0.00
    7   12    7     -4.26      0.00
    8   12    7      1.43      0.00
    9   12    7      4.54      0.00
   10   12    7     -7.52      0.00
   11   12    7     -1.84      0.00
   12   12    7     -1.62      0.00
   13   12    7      0.69      0.00
   14   12    7     -0.86      0.00
   15   12    7     -2.06      0.00
   -7   13    7     -3.50      0.00
   -6   13    7      2.51      0.00
   -5   13    7     -3.32      0.00
   -4   13    7     -2.72      0.00
   -3   13    7      1.26      0.00
   -2   13    7      1.77      0.00
   -1   13    7     -4.21      0.00
    0   13    7     -4.47      0.00
    1   13    7      1.10      0.00
    2   13    7      6.69      0.00
    3   13    7     -3.26      0.00
    4   13    7     -3.10      0.00
    5   13    7     -2.24      0.00
    6   13    7     -3.28      0.00
    7   13    7      7.61      0.00
    8   13    7     -0.54      0.00
    9   13    7     -0.85      0.00
   10   13    7     -0.73      0.00
   11   13    7      2.23      0.00
   12   13    7     -1.77      0.00
   13   13    7      0.62      0.00
   14   13    7     -0.07      0.00
   15   13    7      0.88      0.00
   -6   14    7      0.34      0.00
   -5   14    7     -0.27      0.00
   -4   14    7      2.52      0.00
   -2   14    7      4.21      0.00
   -1   14    7     -2.36      0.00
    0   14    7     -0.19      0.00
    1   14    7      2.23      0.00
    2   14    7     -8.87      0.00
    3   14    7     -1.31      0.00
    4   14    7      5.53      0.00
    5   14    7      2.90      0.00
    6   14    7      2.04      0.00
    7   14    7     -2.53      0.00
    9   14    7      3.03      0.00
   10   14    7     -0.99      0.00
   11   14    7      0.71      0.00
   12   14    7      3.20      0.00
   13   14    7      5.89      0.00
   14   14    7      0.56      0.00
   -5   15    7     -2.07      0.00
   -1   15    7     -3.68      0.00
    0   15    7      3.12      0.00
    1   15    7      0.29      0.00
    2   15    7      0.02      0.00
    3   15    7     -0.88      0.00
    4   15    7     -0.84      0.00
    5   15    7      3.42      0.00
    6   15    7     -0.13      0.00
    8   15    7     -5.64      0.00
    9   15    7      2.84      0.00
   10   15    7     -1.30      0.00
   11   15    7     -4.59      0.00
   12   15    7     -0.70      0.00
   13   15    7      0.60      0.00
   -1   16    7      2.23      0.00
    0   16    7      4.86      0.00
    1   16    7     -1.18      0.00
    2   16    7      0.85      0.00
    3   16    7      4.74      0.00
    4   16    7      1.14      0.00
    5   16    7     -2.11      0.00
    7   16    7      0.55      0.00
    8   16    7      3.76      0.00
    9   16    7      3.79      0.00
   10   16    7     -0.23      0.00
   11   16    7      4.38      0.00
   12   16    7      2.02      0.00
    0   17    7     -5.07      0.00
    1   17    7     -2.41      0.00
    2   17    7      1.72      0.00
    3   17    7      0.16      0.00
    6   17    7      0.69      0.00
    7   17    7      0.21      0.00
    8   17    7     -2.37      0.00
    9   17    7      5.32      0.00
   10   17    7     -2.51      0.00
   11   17    7    -10.17      0.00
    5   18    7     -4.09      0.00
    6   18    7     -2.31      0.00
    7   18    7      1.86      0.00
    8   18    7      3.22      0.00
    9   18    7      1.82      0.00
    3   19    7      0.22      0.00
    4   19    7      0.21      0.00
    5   19    7     -4.14      0.00
    6   19    7      0.68      0.00
   -5  -17    8      1.12      0.00
   -4  -17    8      1.45      0.00
   -3  -17    8     -1.51      0.00
   -2  -17    8     -5.37      0.00
   -1  -17    8      0.25      0.00
    0  -17    8     -3.46      0.00
    1  -17    8      3.83      0.00
    2  -17    8      5.35      0.00
   -7  -16    8     -0.17      0.00
   -6  -16    8     -1.42      0.00
   -5  -16    8      0.89      0.00
   -4  -16    8     -1.89      0.00
   -3  -16    8      1.51      0.00
   -2  -16    8      2.23      0.00
   -1  -16    8      4.19      0.00
    0  -16    8     -0.38      0.00
    1  -16    8      0.79      0.00
    2  -16    8     -2.29      0.00
    3  -16    8     -0.27      0.00
    4  -16    8     -2.66      0.00
    5  -16    8     -4.81      0.00
   -8  -15    8      0.84      0.00
   -7  -15    8      0.76      0.00
   -6  -15    8      2.65      0.00
   -5  -15    8     -1.20      0.00
   -4  -15    8     -1.27      0.00
   -3  -15    8      0.78      0.00
   -2  -15    8     -0.82      0.00
   -1  -15    8     -1.71      0.00
    0  -15    8     -1.25      0.00
    1  -15    8      4.51      0.00
    2  -15    8     -1.77      0.00
    3  -15    8      0.40      0.00
    4  -15    8     -2.34      0.00
    5  -15    8      2.33      0.00
    6  -15    8      7.99      0.00
    7  -15    8      0.50      0.00
   -9  -14    8      1.33      0.00
   -8  -14    8      0.48      0.00
   -7  -14    8     -3.16      0.00
   -6  -14    8     -1.00      0.00
   -5  -14    8     -4.67      0.00
   -4  -14    8      4.80      0.00
   -3  -14    8     -0.57      0.00
   -2  -14    8      3.95      0.00
   -1  -14    8     -0.81      0.00
    0  -14    8      2.00      0.00
    1  -14    8     -5.66      0.00
    2  -14    8      1.18      0.00
    3  -14    8     -3.00      0.00
    4  -14    8     -2.47      0.00
    5  -14    8      0.87      0.00
    6  -14    8     -2.47      0.00
    7  -14    8     -7.04      0.00
    8  -14    8     -1.83      0.00
  -10  -13    8     -5.20      0.00
   -9  -13    8      6.82      0.00
   -8  -13    8     -2.25      0.00
   -7  -13    8      2.21      0.00
   -6  -13    8      0.98      0.00
   -5  -13    8     -2.84      0.00
   -4  -13    8      4.21      0.00
   -3  -13    8     -2.39      0.00
   -2  -13    8     -2.98      0.00
   -1  -13    8     -1.03      0.00
    0  -13    8     -2.85      0.00
    1  -13    8      3.26      0.00
    2  -13    8     -0.16      0.00
    3  -13    8      3.87      0.00
    4  -13    8      1.35      0.00
    5  -13    8      1.79      0.00
    6  -13    8     -5.38      0.00
    7  -13    8     -4.95      0.00
    8  -13    8      3.70      0.00
    9  -13    8      4.28      0.00
  -11  -12    8     -4.35      0.00
  -10  -12    8      1.24      0.00
   -9  -12    8     -0.97      0.00
   -8  -12    8     -3.15      0.00
   -7  -12    8     -1.66      0.00
   -6  -12    8     -0.55      0.00
   -5  -12    8      3.48      0.00
   -4  -12    8      2.50      0.00
   -3  -12    8     -5.61      0.00
   -2  -12    8      3.80      0.00
   -1  -12    8      2.14      0.00
    0  -12    8      1.54      0.00
    1  -12    8      1.65      0.00
    2  -12    8     -1.82      0.00
    3  -12    8     -3.16      0.00
    4  -12    8     -0.51      0.00
    5  -12    8      2.13      0.00
    6  -12    8     -2.14      0.00
    7  -12    8      5.40      0.00
    8  -12    8      0.91      0.00
    9  -12    8      3.06      0.00
   10  -12    8     -1.04      0.00
  -11  -11    8      0.99      0.00
  -10  -11    8      2.18      0.00
   -9  -11    8      0.59      0.00
   -8  -11    8     -0.78      0.00
   -7  -11    8      1.85      0.00
   -6  -11    8     -4.57      0.00
   -5  -11    8     -0.32      0.00
   -4  -11    8     -4.74      0.00
   -3  -11    8      2.72      0.00
   -2  -11    8      4.35      0.00
   -1  -11    8     -1.57      0.00
    0  -11    8     -3.62      0.00
    1  -11    8      1.84      0.00
    2  -11    8     -1.80      0.00
    3  -11    8      4.63      0.00
    4  -11    8      1.32      0.00
    5  -11    8     -0.59      0.00
    6  -11    8      0.20      0.00
    7  -11    8      3.61      0.00
    8  -11    8     -4.02      0.00
    9  -11    8     -1.07      0.00
   10  -11    8     -4.04      0.00
   11  -11    8     -0.81      0.00
  -12  -10    8     -6.69      0.00
  -11  -10    8     -2.52      0.00
  -10  -10    8      6.56      0.00
   -9  -10    8     -2.14      0.00
   -8  -10    8      1.74      0.00
   -7  -10    8     -1.40      0.00
   -6  -10    8     -1.67      0.00
   -5  -10    8      1.86      0.00
   -4  -10    8      0.96      0.00
   -3  -10    8      0.89      0.00
   -2  -10    8     -3.14      0.00
   -1  -10    8     -3.68      0.00
    0  -10    8      4.92      0.00
    1  -10    8      0.26      0.00
    2  -10    8     -1.55      0.00
    3  -10    8      0.92      0.00
    4  -10    8     -2.09      0.00
    5  -10    8     -1.68      0.00
    6  -10    8     -4.29      0.00
    7  -10    8      2.30      0.00
    8  -10    8      3.12      0.00
    9  -10    8      4.82      0.00
   10  -10    8     -7.33      0.00
   11  -10    8     -0.14      0.00
   12  -10    8      0.08      0.00
  -12   -9    8     -0.42      0.00
  -11   -9    8      0.84      0.00
  -10   -9    8     -5.31      0.00
   -9   -9    8     -0.11      0.00
   -8   -9    8      0.47      0.00
   -7   -9    8     -2.15      0.00
   -6   -9    8      1.30      0.00
   -5   -9    8      3.56      0.00
   -4   -9    8     -1.13      0.00
   -3   -9    8     -2.03      0.00
   -2   -9    8      4.03      0.00
   -1   -9    8     -1.84      0.00
    0   -9    8      2.20      0.00
    1   -9    8     -2.80      0.00
    2   -9    8     -1.43      0.00
    3   -9    8      1.78      0.00
    4   -9    8      0.41      0.00
    5   -9    8     -1.09      0.00
    6   -9    8      2.25      0.00
    7   -9    8     -4.90      0.00
    8   -9    8     -6.40      0.00
    9   -9    8     -2.70      0.00
   10   -9    8      0.65      0.00
   11   -9    8     -4.40      0.00
   12   -9    8      3.52      0.00
   13   -9    8     -0.65      0.00
  -12   -8    8      4.92      0.00
  -11   -8    8      6.09      0.00
  -10   -8    8      1.98      0.00
   -9   -8    8     -0.35      0.00
   -8   -8    8     -2.25      0.00
   -7   -8    8      1.10      0.00
   -6   -8    8      7.89      0.00
   -5   -8    8     -4.19      0.00
   -4   -8    8     -2.06      0.00
   -3   -8    8      0.42      0.00
   -2   -8    8      0.23      0.00
   -1   -8    8      0.25      0.00
    0   -8    8      1.06      0.00
    1   -8    8     -3.66      0.00
    2   -8    8      0.22      0.00
    3   -8    8      5.21      0.00
    4   -8    8     -4.60      0.00
    5   -8    8     -0.02      0.00
    6   -8    8      1.14      0.00
    7   -8    8      4.44      0.00
    8   -8    8      0.45      0.00
    9   -8    8      5.11      0.00
   10   -8    8      0.81      0.00
   11   -8    8      4.52      0.00
   12   -8    8      3.03      0.00
   13   -8    8     -8.44      0.00
  -13   -7    8     -1.04      0.00
  -12   -7    8      0.40      0.00
  -11   -7    8     -2.88      0.00
  -10   -7    8     -0.86      0.00
   -9   -7    8      1.49      0.00
   -8   -7    8     -1.68      0.00
   -7   -7    8      3.97      0.00
   -6   -7    8     -0.47      0.00
   -5   -7    8     -8.08      0.00
   -4   -7    8      2.08      0.00
   -3   -7    8      5.72      0.00
   -2   -7    8      0.09      0.00
   -1   -7    8     -1.43      0.00
    0   -7    8     -2.31      0.00
    1   -7    8      0.24      0.00
    2   -7    8      4.49      0.00
    3   -7    8     -1.21      0.00
    4   -7    8     -4.83      0.00
    5   -7    8      2.25      0.00
    6   -7    8      5.34      0.00
    7   -7    8      0.73      0.00
    8   -7    8     -2.67      0.00
    9   -7    8      4.04      0.00
   10   -7    8     -4.99      0.00
   11   -7    8     -2.91      0.00
   12   -7    8      7.55      0.00
   13   -7    8      3.01      0.00
   14   -7    8     -1.81      0.00
  -13   -6    8     -3.43      0.00
  -12   -6    8     -2.09      0.00
  -11   -6    8      0.92      0.00
  -10   -6    8     -3.75      0.00
   -9   -6    8     -2.74      0.00
   -8   -6    8      8.64      0.00
   -7   -6    8      2.93      0.00
   -6   -6    8    -13.59      0.00
   -5   -6    8      1.51      0.00
   -4   -6    8      6.59      0.00
   -3   -6    8     -2.54      0.00
   -2   -6    8     -2.05      0.00
   -1   -6    8     -4.29      0.00
    0   -6    8      0.64      0.00
    1   -6    8      8.48      0.00
    2   -6    8      2.47      0.00
    3   -6    8     -5.68      0.00
    4   -6    8     -1.38      0.00
    5   -6    8      3.97      0.00
    6   -6    8     -6.92      0.00
    7   -6    8     -7.14      0.00
    8   -6    8     -2.33      0.00
    9   -6    8      2.13      0.00
   10   -6    8     -4.26      0.00
   11   -6    8     -0.52      0.00
   12   -6    8     -0.79      0.00
   13   -6    8     -4.63      0.00
   14   -6    8      4.42      0.00
  -13   -5    8      1.41      0.00
  -12   -5    8     -1.41      0.00
  -11   -5    8      3.25      0.00
  -10   -5    8      1.68      0.00
   -9   -5    8      2.18      0.00
   -8   -5    8     -3.42      0.00
   -7   -5    8     -7.94      0.00
   -6   -5    8     -2.14      0.00
   -5   -5    8     11.54      0.00
   -4   -5    8     -3.47      0.00
   -3   -5    8     -7.26      0.00
   -2   -5    8      3.87      0.00
   -1   -5    8     -0.33      0.00
    0   -5    8      3.08      0.00
    1   -5    8      2.79      0.00
    2   -5    8     -9.53      0.00
    3   -5    8      5.61      0.00
    4   -5    8     12.78      0.00
    5   -5    8      2.24      0.00
    6   -5    8      2.48      0.00
    7   -5    8      2.81      0.00
    8   -5    8      3.11      0.00
    9   -5    8      1.71      0.00
   10   -5    8     -1.96      0.00
   11   -5    8      1.40      0.00
   12   -5    8     -1.25      0.00
   13   -5    8      1.48      0.00
   14   -5    8     -1.71      0.00
   15   -5    8      5.19      0.00
  -13   -4    8      2.00      0.00
  -12   -4    8     -3.24      0.00
  -11   -4    8      3.36      0.00
  -10   -4    8     -4.78      0.00
   -9   -4    8      3.94      0.00
   -8   -4    8      1.01      0.00
   -7   -4    8     -0.73      0.00
   -6   -4    8      3.22      0.00
   -5   -4    8      6.56      0.00
   -4   -4    8     -8.37      0.00
   -3   -4    8      0.68      0.00
   -2   -4    8      2.84      0.00
   -1   -4    8     -6.61      0.00
    0   -4    8      4.84      0.00
    1   -4    8     -7.94      0.00
    2   -4    8     -9.18      0.00
    3   -4    8     -1.75      0.00
    4   -4    8     -8.76      0.00
    5   -4    8     -2.73      0.00
    6   -4    8     -0.24      0.00
    7   -4    8     -0.23      0.00
    8   -4    8      5.64      0.00
    9   -4    8     -6.11      0.00
   10   -4    8      4.56      0.00
   11   -4    8     -0.71      0.00
   12   -4    8      3.95      0.00
   13   -4    8      1.75      0.00
   14   -4    8      0.83      0.00
   15   -4    8     -0.59      0.00
  -13   -3    8     -7.68      0.00
  -12   -3    8      0.92      0.00
  -11   -3    8      4.14      0.00
  -10   -3    8     -1.27      0.00
   -9   -3    8     -4.34      0.00
   -8   -3    8      1.28      0.00
   -7   -3    8     -0.23      0.00
   -6   -3    8      3.60      0.00
   -5   -3    8     -6.40      0.00
   -4   -3    8      1.65      0.00
   -3   -3    8      3.26      0.00
   -2   -3    8      1.46      0.00
   -1   -3    8      5.54      0.00
    0   -3    8    -10.33      0.00
    1   -3    8     21.69      0.00
    2   -3    8      2.40      0.00
    3   -3    8     13.58      0.00
    4   -3    8     -3.86      0.00
    5   -3    8     -4.15      0.00
    6   -3    8     -8.30      0.00
    7   -3    8      1.34      0.00
    8   -3    8     -1.75      0.00
    9   -3    8     -2.36      0.00
   10   -3    8      2.23      0.00
   11   -3    8     -5.57      0.00
   12   -3    8      0.88      0.00
   13   -3    8      1.03      0.00
   14   -3    8     -4.30      0.00
   15   -3    8     -3.54      0.00
   16   -3    8     -3.63      0.00
  -13   -2    8     -3.67      0.00
  -12   -2    8      2.36      0.00
  -11   -2    8     -4.96      0.00
  -10   -2    8     -0.76      0.00
   -9   -2    8     -0.12      0.00
   -8   -2    8     -1.29      0.00
   -7   -2    8     -1.44      0.00
   -6   -2    8      5.81      0.00
   -5   -2    8      1.88      0.00
   -4   -2    8     -6.81      0.00
   -3   -2    8     -5.99      0.00
   -2   -2    8      5.80      0.00
   -1   -2    8     -9.54      0.00
    0   -2    8     -0.20      0.00
    1   -2    8     -6.05      0.00
    2   -2    8     -1.82      0.00
    3   -2    8      0.78      0.00
    4   -2    8      3.19      0.00
    5   -2    8      5.07      0.00
    6   -2    8      3.69      0.00
    7   -2    8     13.36      0.00
    8   -2    8     -0.29      0.00
    9   -2    8     -2.58      0.00
   10   -2    8      6.98      0.00
   11   -2    8     -0.08      0.00
   12   -2    8      4.90      0.00
   13   -2    8     -7.63      0.00
   14   -2    8     -1.69      0.00
   15   -2    8      6.81      0.00
   16   -2    8      0.16      0.00
  -13   -1    8     -1.10      0.00
  -12   -1    8     10.24      0.00
  -11   -1    8     -4.18      0.00
  -10   -1    8      7.75      0.00
   -9   -1    8     -1.22      0.00
   -8   -1    8      5.13      0.00
   -7   -1    8     -4.11      0.00
   -6   -1    8      4.76      0.00
   -5   -1    8     -3.89      0.00
   -4   -1    8      7.12      0.00
   -3   -1    8      4.91      0.00
   -2   -1    8      1.34      0.00
   -1   -1    8     -8.55      0.00
    0   -1    8      1.51      0.00
    1   -1    8     19.38      0.00
    2   -1    8    -17.60      0.00
    3   -1    8     -1.29      0.00
    4   -1    8     -9.58      0.00
    5   -1    8     -7.96      0.00
    6   -1    8      5.90      0.00
    7   -1    8     -3.75      0.00
    8   -1    8    -16.56      0.00
    9   -1    8      1.88      0.00
   10   -1    8      4.49      0.00
   11   -1    8     -5.59      0.00
   12   -1    8      4.45      0.00
   13   -1    8      0.74      0.00
   14   -1    8      3.15      0.00
   15   -1    8     -1.98      0.00
   16   -1    8      0.15      0.00
  -13    0    8     -1.88      0.00
  -12    0    8     -5.02      0.00
  -11    0    8     -0.40      0.00
  -10    0    8      2.01      0.00
   -9    0    8     -6.91      0.00
   -8    0    8      0.34      0.00
   -7    0    8      0.30      0.00
   -6    0    8      4.54      0.00
   -5    0    8     -2.67      0.00
   -4    0    8     -5.54      0.00
   -3    0    8      1.62      0.00
   -2    0    8      2.30      0.00
   -1    0    8     -2.80      0.00
    0    0    8     18.30      0.00
    1    0    8    -13.10      0.00
    2    0    8      2.13      0.00
    3    0    8      5.16      0.00
    4    0    8     -4.31      0.00
    5    0    8     17.13      0.00
    6    0    8      2.29      0.00
    7    0    8    -10.45      0.00
    8    0    8      3.49      0.00
    9    0    8     11.03      0.00
   10    0    8     -7.15      0.00
   11    0    8     -6.41      0.00
   12    0    8     -1.93      0.00
   13    0    8     -3.50      0.00
   14    0    8     -0.44      0.00
   15    0    8      2.80      0.00
   16    0    8     -5.64      0.00
  -13    1    8      4.96      0.00
  -12    1    8     -3.25      0.00
  -11    1    8      0.40      0.00
  -10    1    8     -1.81      0.00
   -9    1    8     -1.85      0.00
   -8    1    8      5.04      0.00
   -7    1    8     -0.74      0.00
   -6    1    8      2.87      0.00
   -5    1    8     -5.96      0.00
   -4    1    8      7.39      0.00
   -3    1    8     -5.23      0.00
   -2    1    8     -0.06      0.00
   -1    1    8      0.33      0.00
    0    1    8     -7.52      0.00
    1    1    8      4.67      0.00
    2    1    8     -1.67      0.00
    3    1    8     -5.56      0.00
    4    1    8      4.30      0.00
    5    1    8      3.08      0.00
    6    1    8    -14.43      0.00
    7    1    8     -2.32      0.00
    8    1    8     14.10      0.00
    9    1    8     -2.27      0.00
   10    1    8     -3.59      0.00
   11    1    8      7.28      0.00
   12    1    8      0.03      0.00
   13    1    8     -1.48      0.00
   14    1    8      1.02      0.00
   15    1    8      0.87      0.00
   16    1    8      2.74      0.00
   17    1    8      1.27      0.00
  -12    2    8      1.86      0.00
  -11    2    8      3.21      0.00
  -10    2    8      0.68      0.00
   -9    2    8     -0.05      0.00
   -8    2    8      3.28      0.00
   -7    2    8     -0.86      0.00
   -6    2    8     -1.87      0.00
   -5    2    8      1.33      0.00
   -4    2    8     -5.64      0.00
   -3    2    8     -0.85      0.00
   -2    2    8      8.42      0.00
   -1    2    8      0.32      0.00
    0    2    8     -8.35      0.00
    1    2    8     -5.91      0.00
    2    2    8      4.72      0.00
    3    2    8      1.84      0.00
    4    2    8     -1.58      0.00
    5    2    8      1.49      0.00
    6    2    8     -5.50      0.00
    7    2    8     16.18      0.00
    8    2    8      0.46      0.00
    9    2    8    -11.80      0.00
   10    2    8      1.71      0.00
   11    2    8      5.66      0.00
   12    2    8     -4.56      0.00
   13    2    8      4.57      0.00
   14    2    8      1.32      0.00
   15    2    8     -2.88      0.00
   16    2    8     -2.64      0.00
   17    2    8     -0.27      0.00
  -12    3    8     -9.59      0.00
  -11    3    8      4.08      0.00
  -10    3    8     -3.20      0.00
   -9    3    8     -0.90      0.00
   -8    3    8     -0.53      0.00
   -7    3    8     -1.84      0.00
   -6    3    8     -3.30      0.00
   -5    3    8     -2.08      0.00
   -4    3    8     10.47      0.00
   -3    3    8     -0.49      0.00
   -2    3    8      1.39      0.00
   -1    3    8     -3.16      0.00
    0    3    8      5.76      0.00
    1    3    8     11.94      0.00
    2    3    8     -3.05      0.00
    3    3    8     -7.09      0.00
    4    3    8     10.26      0.00
    5    3    8     -1.57      0.00
    6    3    8      1.48      0.00
    7    3    8     -1.62      0.00
    8    3    8     -8.02      0.00
    9    3    8     -5.88      0.00
   10    3    8      8.16      0.00
   11    3    8      1.11      0.00
   12    3    8     -3.90      0.00
   13    3    8      4.21      0.00
   14    3    8      0.30      0.00
   15    3    8      0.71      0.00
   16    3    8      3.90      0.00
   17    3    8     -0.34      0.00
  -12    4    8     -6.37      0.00
  -11    4    8      2.20      0.00
  -10    4    8     -0.88      0.00
   -9    4    8     -1.01      0.00
   -8    4    8      2.42      0.00
   -7    4    8     -8.86      0.00
   -6    4    8     -7.56      0.00
   -5    4    8      6.74      0.00
   -4    4    8     -1.59      0.00
   -3    4    8     -5.58      0.00
   -2    4    8      4.59      0.00
   -1    4    8     -0.41      0.00
    0    4    8    -11.63      0.00
    1    4    8      4.09      0.00
    2    4    8      0.61      0.00
    3    4    8     -1.86      0.00
    5    4    8     -0.92      0.00
    6    4    8      3.16      0.00
    7    4    8     -4.81      0.00
    8    4    8      1.94      0.00
    9    4    8     -2.48      0.00
   10    4    8      6.89      0.00
   11    4    8      0.04      0.00
   12    4    8     -2.98      0.00
   13    4    8      1.20      0.00
   14    4    8      0.61      0.00
   15    4    8     -5.25      0.00
   16    4    8     -1.07      0.00
   17    4    8     -1.16      0.00
  -12    5    8      4.43      0.00
  -11    5    8      5.72      0.00
  -10    5    8      0.44      0.00
   -9    5    8      5.15      0.00
   -8    5    8      1.90      0.00
   -7    5    8     -5.12      0.00
   -6    5    8      8.22      0.00
   -5    5    8      5.50      0.00
   -4    5    8     -5.29      0.00
   -3    5    8     -6.34      0.00
   -2    5    8      3.84      0.00
   -1    5    8      0.20      0.00
    0    5    8      3.58      0.00
    1    5    8     -3.71      0.00
    2    5    8     -5.81      0.00
    3    5    8      4.63      0.00
    5    5    8     -9.64      0.00
    6    5    8      6.18      0.00
    7    5    8     -6.99      0.00
    8    5    8      3.66      0.00
    9    5    8      0.55      0.00
   10    5    8      3.67      0.00
   11    5    8     -5.47      0.00
   12    5    8     -5.89      0.00
   13    5    8      4.21      0.00
   14    5    8      4.57      0.00
   15    5    8     -2.64      0.00
   16    5    8      0.67      0.00
   17    5    8     -1.38      0.00
  -11    6    8      1.69      0.00
  -10    6    8     -2.98      0.00
   -9    6    8      1.96      0.00
   -8    6    8     -3.27      0.00
   -7    6    8     -0.32      0.00
   -6    6    8      6.23      0.00
   -5    6    8     -6.21      0.00
   -4    6    8      1.98      0.00
   -3    6    8      3.45      0.00
   -2    6    8      2.75      0.00
   -1    6    8     -1.53      0.00
    0    6    8     -4.67      0.00
    1    6    8      7.31      0.00
    2    6    8      1.85      0.00
    3    6    8      3.34      0.00
    5    6    8     -0.51      0.00
    6    6    8      8.22      0.00
    7    6    8     -9.08      0.00
    8    6    8      3.65      0.00
    9    6    8     -5.68      0.00
   10    6    8      7.21      0.00
   11    6    8     -5.72      0.00
   12    6    8      0.60      0.00
   13    6    8      1.91      0.00
   14    6    8     -0.67      0.00
   15    6    8     -1.78      0.00
   16    6    8     -0.16      0.00
   17    6    8      2.39      0.00
  -11    7    8     -2.13      0.00
  -10    7    8     -4.70      0.00
   -9    7    8      0.43      0.00
   -8    7    8     -3.28      0.00
   -7    7    8      0.90      0.00
   -6    7    8      2.85      0.00
   -5    7    8     -5.19      0.00
   -4    7    8      2.56      0.00
   -3    7    8     -1.63      0.00
   -2    7    8     -1.50      0.00
   -1    7    8      1.62      0.00
    0    7    8      1.90      0.00
    1    7    8     -1.36      0.00
    2    7    8      1.24      0.00
    3    7    8      1.52      0.00
    4    7    8     -2.89      0.00
    5    7    8      5.19      0.00
    6    7    8      4.08      0.00
    7    7    8     -6.26      0.00
    8    7    8      4.03      0.00
    9    7    8      0.31      0.00
   10    7    8     -6.67      0.00
   11    7    8      3.28      0.00
   12    7    8     -0.48      0.00
   13    7    8      2.97      0.00
   14    7    8     -4.24      0.00
   15    7    8      1.90      0.00
   16    7    8     -0.22      0.00
   17    7    8      2.83      0.00
  -10    8    8      2.28      0.00
   -9    8    8      3.78      0.00
   -8    8    8     -1.51      0.00
   -7    8    8      0.91      0.00
   -6    8    8     -1.04      0.00
   -5    8    8     -0.79      0.00
   -4    8    8      5.97      0.00
   -3    8    8     -6.26      0.00
   -2    8    8     -2.35      0.00
   -1    8    8      2.72      0.00
    0    8    8     -2.48      0.00
    1    8    8      0.76      0.00
    2    8    8     -3.09      0.00
    3    8    8     -0.02      0.00
    4    8    8     -0.66      0.00
    5    8    8      9.18      0.00
    6    8    8     -3.83      0.00
    7    8    8     -3.62      0.00
    8    8    8      5.86      0.00
    9    8    8     -3.53      0.00
   10    8    8      8.65      0.00
   11    8    8     -4.16      0.00
   12    8    8      3.58      0.00
   13    8    8      1.49      0.00
   14    8    8     -0.93      0.00
   15    8    8     -2.66      0.00
   16    8    8      3.88      0.00
   17    8    8      0.67      0.00
  -10    9    8     -0.25      0.00
   -9    9    8      2.22      0.00
   -8    9    8      1.11      0.00
   -7    9    8      4.59      0.00
   -6    9    8      0.24      0.00
   -5    9    8      1.41      0.00
   -4    9    8      0.60      0.00
   -3    9    8     -2.22      0.00
   -2    9    8      1.37      0.00
   -1    9    8      5.79      0.00
    0    9    8     -4.31      0.00
    1    9    8     -1.19      0.00
    2    9    8     -0.57      0.00
    3    9    8      1.97      0.00
    4    9    8     -2.26      0.00
    5    9    8     -6.10      0.00
    6    9    8      0.84      0.00
    7    9    8     -0.52      0.00
    8    9    8     -2.26      0.00
    9    9    8      1.82      0.00
   10    9    8     -2.30      0.00
   11    9    8      0.68      0.00
   12    9    8     -5.11      0.00
   13    9    8     -1.61      0.00
   14    9    8      0.51      0.00
   15    9    8      6.42      0.00
   16    9    8     -5.69      0.00
   -9   10    8     -0.37      0.00
   -8   10    8      1.01      0.00
   -7   10    8     -1.61      0.00
   -6   10    8     -3.69      0.00
   -5   10    8      1.14      0.00
   -4   10    8     -3.82      0.00
   -3   10    8     -1.13      0.00
   -2   10    8      2.83      0.00
   -1   10    8     -0.64      0.00
    0   10    8     -0.88      0.00
    1   10    8      0.56      0.00
    2   10    8      2.96      0.00
    3   10    8      0.98      0.00
    4   10    8     -0.26      0.00
    5   10    8      3.30      0.00
    6   10    8     -0.62      0.00
    7   10    8     -2.30      0.00
    8   10    8      4.99      0.00
    9   10    8     -3.43      0.00
   10   10    8      1.34      0.00
   11   10    8     -3.56      0.00
   12   10    8     -2.12      0.00
   13   10    8     -2.34      0.00
   14   10    8      0.90      0.00
   15   10    8     -7.39      0.00
   16   10    8      5.00      0.00
   -8   11    8      0.51      0.00
   -7   11    8     -1.29      0.00
   -6   11    8      2.67      0.00
   -5   11    8      1.88      0.00
   -4   11    8      0.77      0.00
   -3   11    8      0.64      0.00
   -2   11    8     -5.15      0.00
   -1   11    8      1.50      0.00
    0   11    8     -2.42      0.00
    1   11    8      3.43      0.00
    2   11    8      0.47      0.00
    3   11    8     -1.87      0.00
    4   11    8     -1.81      0.00
    5   11    8      3.00      0.00
    6   11    8      4.30      0.00
    7   11    8      0.41      0.00
    8   11    8      2.16      0.00
    9   11    8      1.34      0.00
   10   11    8     -1.65      0.00
   11   11    8      0.99      0.00
   12   11    8     -1.93      0.00
   13   11    8      4.86      0.00
   14   11    8     -0.84      0.00
   15   11    8      3.66      0.00
   16   11    8      2.22      0.00
   -7   12    8     -4.52      0.00
   -6   12    8      1.31      0.00
   -5   12    8     -2.25      0.00
   -4   12    8     -2.81      0.00
   -3   12    8      1.70      0.00
   -2   12    8      4.44      0.00
   -1   12    8     -2.24      0.00
    0   12    8     -3.22      0.00
    1   12    8     -2.82      0.00
    2   12    8      0.32      0.00
    3   12    8      0.26      0.00
    4   12    8      1.22      0.00
    5   12    8     -1.90      0.00
    6   12    8     -5.81      0.00
    7   12    8      3.20      0.00
    8   12    8     -1.62      0.00
    9   12    8     -1.15      0.00
   10   12    8      4.28      0.00
   11   12    8      1.22      0.00
   12   12    8      1.93      0.00
   13   12    8      0.22      0.00
   14   12    8      4.00      0.00
   15   12    8     -0.64      0.00
   -7   13    8      2.13      0.00
   -6   13    8      1.70      0.00
   -5   13    8      1.13      0.00
   -4   13    8      2.33      0.00
   -3   13    8     -0.58      0.00
   -2   13    8     -2.59      0.00
   -1   13    8      1.45      0.00
    0   13    8      7.57      0.00
    1   13    8      3.73      0.00
    2   13    8     -6.61      0.00
    3   13    8      1.36      0.00
    4   13    8      1.90      0.00
    5   13    8      4.96      0.00
    6   13    8      2.25      0.00
    7   13    8     -5.76      0.00
    8   13    8      0.75      0.00
    9   13    8      4.65      0.00
   10   13    8     -4.73      0.00
   11   13    8     -3.46      0.00
   12   13    8      2.47      0.00
   13   13    8      1.75      0.00
   14   13    8      0.93      0.00
   15   13    8     -4.94      0.00
   -6   14    8     -4.18      0.00
   -5   14    8      0.73      0.00
   -2   14    8     -3.43      0.00
   -1   14    8      2.03      0.00
    0   14    8      2.41      0.00
    1   14    8     -5.75      0.00
    2   14    8      5.15      0.00
    3   14    8      3.31      0.00
    4   14    8     -3.11      0.00
    5   14    8     -4.69      0.00
    6   14    8     -3.17      0.00
    7   14    8      2.61      0.00
    8   14    8      2.77      0.00
    9   14    8      1.08      0.00
   10   14    8     -3.52      0.00
   11   14    8     -1.85      0.00
   12   14    8     -0.01      0.00
   13   14    8     -2.20      0.00
   14   14    8     -4.27      0.00
   -1   15    8      6.08      0.00
    0   15    8     -1.97      0.00
    1   15    8     -2.41      0.00
    2   15    8      1.37      0.00
    3   15    8      0.94      0.00
    4   15    8      4.06      0.00
    5   15    8     -1.91      0.00
    6   15    8     -0.21      0.00
    7   15    8      3.56      0.00
    8   15    8      5.07      0.00
   10   15    8     -2.48      0.00
   11   15    8      7.53      0.00
   12   15    8      3.84      0.00
   13   15    8      0.14      0.00
   -1   16    8      5.03      0.00
    0   16    8     -9.45      0.00
    1   16    8      1.75      0.00
    2   16    8     -0.96      0.00
    3   16    8     -2.41      0.00
    4   16    8     -1.20      0.00
    5   16    8     -3.48      0.00
    6   16    8      4.99      0.00
    7   16    8      2.29      0.00
    9   16    8      0.22      0.00
   10   16    8     -4.93      0.00
   11   16    8     -0.79      0.00
   12   16    8      0.30      0.00
    0   17    8     -2.73      0.00
    1   17    8      6.95      0.00
    2   17    8     -2.64      0.00
    3   17    8      3.30      0.00
    4   17    8     -3.63      0.00
    5   17    8     -3.51      0.00
    8   17    8      0.84      0.00
    9   17    8     -1.23      0.00
   10   17    8     -3.68      0.00
   11   17    8     15.96      0.00
    1   18    8      1.21      0.00
    2   18    8     -5.36      0.00
    3   18    8      6.81      0.00
    4   18    8     -1.85      0.00
    7   18    8      1.09      0.00
    8   18    8     -4.69      0.00
    9   18    8     -1.59      0.00
   -3  -17    9      2.07      0.00
   -2  -17    9      1.88      0.00
   -1  -17    9      1.60      0.00
    0  -17    9      0.91      0.00
   -5  -16    9     -0.59      0.00
   -4  -16    9     -0.40      0.00
   -3  -16    9      1.98      0.00
   -2  -16    9     -2.13      0.00
   -1  -16    9     -2.05      0.00
    0  -16    9     -2.33      0.00
    1  -16    9     -1.33      0.00
    2  -16    9      2.09      0.00
    3  -16    9      1.06      0.00
    4  -16    9      1.43      0.00
   -7  -15    9      1.93      0.00
   -6  -15    9     -1.43      0.00
   -5  -15    9     -4.29      0.00
   -4  -15    9      1.76      0.00
   -3  -15    9     -0.63      0.00
   -2  -15    9     -0.98      0.00
   -1  -15    9      2.46      0.00
    0  -15    9      2.90      0.00
    1  -15    9     -0.71      0.00
    2  -15    9      2.85      0.00
    3  -15    9      0.82      0.00
    4  -15    9      0.10      0.00
    5  -15    9     -0.65      0.00
    6  -15    9     -6.66      0.00
   -8  -14    9     -3.90      0.00
   -7  -14    9      2.26      0.00
   -6  -14    9      1.23      0.00
   -5  -14    9     -0.19      0.00
   -4  -14    9      1.76      0.00
   -3  -14    9     -0.71      0.00
   -2  -14    9     -0.56      0.00
   -1  -14    9      1.37      0.00
    0  -14    9     -2.88      0.00
    1  -14    9      1.65      0.00
    2  -14    9     -1.10      0.00
    3  -14    9      0.36      0.00
    4  -14    9     -1.36      0.00
    5  -14    9      2.77      0.00
    6  -14    9      3.98      0.00
    7  -14    9      3.06      0.00
    8  -14    9      4.08      0.00
   -9  -13    9     -5.60      0.00
   -8  -13    9      0.92      0.00
   -7  -13    9      0.45      0.00
   -6  -13    9     -4.29      0.00
   -5  -13    9     -0.60      0.00
   -4  -13    9     -0.73      0.00
   -3  -13    9     -0.95      0.00
   -2  -13    9      2.44      0.00
   -1  -13    9      0.39      0.00
    0  -13    9     -0.01      0.00
    1  -13    9     -0.53      0.00
    2  -13    9      0.97      0.00
    3  -13    9     -1.34      0.00
    4  -13    9     -1.16      0.00
    5  -13    9     -0.62      0.00
    6  -13    9      0.64      0.00
    7  -13    9      3.15      0.00
    8  -13    9      0.17      0.00
    9  -13    9     -5.30      0.00
  -10  -12    9     -0.57      0.00
   -9  -12    9      1.56      0.00
   -8  -12    9      3.14      0.00
   -7  -12    9      4.33      0.00
   -6  -12    9      0.58      0.00
   -5  -12    9     -2.68      0.00
   -4  -12    9     -1.49      0.00
   -3  -12    9      4.16      0.00
   -2  -12    9     -1.68      0.00
   -1  -12    9     -1.86      0.00
    0  -12    9     -4.75      0.00
    1  -12    9      0.94      0.00
    2  -12    9     -2.96      0.00
    3  -12    9      3.73      0.00
    4  -12    9      0.17      0.00
    5  -12    9      1.54      0.00
    6  -12    9     -1.78      0.00
    7  -12    9     -7.33      0.00
    8  -12    9     -0.19      0.00
    9  -12    9     -0.10      0.00
   10  -12    9     -1.80      0.00
  -11  -11    9      0.56      0.00
  -10  -11    9     -0.26      0.00
   -9  -11    9     -4.67      0.00
   -8  -11    9      3.42      0.00
   -7  -11    9     -0.14      0.00
   -6  -11    9     -3.02      0.00
   -5  -11    9      3.33      0.00
   -4  -11    9      1.41      0.00
   -3  -11    9     -1.02      0.00
   -2  -11    9     -5.79      0.00
   -1  -11    9      1.54      0.00
    0  -11    9      3.03      0.00
    1  -11    9      2.02      0.00
    2  -11    9      1.38      0.00
    3  -11    9      0.39      0.00
    4  -11    9     -2.51      0.00
    5  -11    9     -2.54      0.00
    6  -11    9     -5.28      0.00
    7  -11    9      1.41      0.00
    8  -11    9      0.94      0.00
    9  -11    9      0.81      0.00
   10  -11    9     -1.47      0.00
   11  -11    9      2.86      0.00
  -11  -10    9      4.37      0.00
  -10  -10    9     -4.42      0.00
   -9  -10    9      0.13      0.00
   -8  -10    9      3.07      0.00
   -7  -10    9     -1.62      0.00
   -6  -10    9      0.45      0.00
   -5  -10    9      1.17      0.00
   -4  -10    9     -1.41      0.00
   -3  -10    9     -0.05      0.00
   -2  -10    9      5.00      0.00
   -1  -10    9      0.39      0.00
    0  -10    9     -0.61      0.00
    1  -10    9     -1.59      0.00
    2  -10    9      0.71      0.00
    3  -10    9      0.03      0.00
    4  -10    9      1.19      0.00
    5  -10    9      1.46      0.00
    6  -10    9      3.66      0.00
    7  -10    9      2.09      0.00
    8  -10    9      1.64      0.00
    9  -10    9     -3.68      0.00
   10  -10    9      0.88      0.00
   11  -10    9      0.99      0.00
   12  -10    9      4.04      0.00
  -11   -9    9     -0.85      0.00
  -10   -9    9      2.05      0.00
   -9   -9    9      2.55      0.00
   -8   -9    9      3.82      0.00
   -7   -9    9     -1.35      0.00
   -6   -9    9     -1.08      0.00
   -5   -9    9     -5.32      0.00
   -4   -9    9      1.48      0.00
   -3   -9    9      0.20      0.00
   -2   -9    9      0.80      0.00
   -1   -9    9     -1.91      0.00
    0   -9    9      1.82      0.00
    1   -9    9      0.28      0.00
    2   -9    9      1.46      0.00
    3   -9    9      1.31      0.00
    4   -9    9     -3.93      0.00
    5   -9    9     -0.45      0.00
    6   -9    9      2.03      0.00
    7   -9    9      4.97      0.00
    8   -9    9      0.04      0.00
    9   -9    9      1.34      0.00
   10   -9    9     -3.91      0.00
   11   -9    9      7.44      0.00
   12   -9    9      1.28      0.00
  -12   -8    9     -2.49      0.00
  -11   -8    9     -4.20      0.00
  -10   -8    9     -3.52      0.00
   -9   -8    9     -0.12      0.00
   -8   -8    9      1.90      0.00
   -7   -8    9     -3.23      0.00
   -6   -8    9     -3.94      0.00
   -5   -8    9     -1.19      0.00
   -4   -8    9      6.22      0.00
   -3   -8    9     -3.07      0.00
   -2   -8    9      0.90      0.00
   -1   -8    9     -2.54      0.00
    0   -8    9      1.97      0.00
    1   -8    9      2.22      0.00
    2   -8    9     -1.93      0.00
    3   -8    9     -0.47      0.00
    4   -8    9     -1.72      0.00
    5   -8    9      2.51      0.00
    6   -8    9      1.59      0.00
    7   -8    9     -3.78      0.00
    8   -8    9     -0.07      0.00
    9   -8    9     -6.50      0.00
   10   -8    9     -2.04      0.00
   11   -8    9     -0.83      0.00
   12   -8    9     -3.51      0.00
   13   -8    9      1.02      0.00
  -12   -7    9     -0.97      0.00
  -11   -7    9      5.45      0.00
  -10   -7    9      0.63      0.00
   -9   -7    9      0.36      0.00
   -8   -7    9      2.80      0.00
   -7   -7    9     -5.56      0.00
   -6   -7    9      1.32      0.00
   -5   -7    9      6.77      0.00
   -4   -7    9      0.56      0.00
   -3   -7    9     -7.72      0.00
   -2   -7    9      1.63      0.00
   -1   -7    9      0.44      0.00
    0   -7    9     -1.11      0.00
    1   -7    9      2.43      0.00
    2   -7    9     -6.25      0.00
    3   -7    9      2.94      0.00
    4   -7    9     -0.25      0.00
    5   -7    9      4.52      0.00
    6   -7    9     -3.96      0.00
    7   -7    9     -2.51      0.00
    8   -7    9     -3.50      0.00
    9   -7    9      1.06      0.00
   10   -7    9      3.73      0.00
   11   -7    9      3.08      0.00
   12   -7    9     -7.01      0.00
   13   -7    9     -2.54      0.00
   14   -7    9      7.03      0.00
  -12   -6    9      1.81      0.00
  -11   -6    9      1.07      0.00
  -10   -6    9     -3.91      0.00
   -9   -6    9      5.08      0.00
   -8   -6    9     -4.46      0.00
   -7   -6    9     -7.13      0.00
   -6   -6    9      7.19      0.00
   -5   -6    9      1.71      0.00
   -4   -6    9     -9.25      0.00
   -3   -6    9      3.54      0.00
   -2   -6    9      6.37      0.00
   -1   -6    9     -3.41      0.00
    0   -6    9      1.42      0.00
    1   -6    9     -2.47      0.00
    2   -6    9     -3.25      0.00
    3   -6    9      7.58      0.00
    4   -6    9     -1.03      0.00
    5   -6    9      0.85      0.00
    6   -6    9      5.00      0.00
    7   -6    9      9.09      0.00
    8   -6    9     -4.11      0.00
    9   -6    9      5.51      0.00
   10   -6    9      1.82      0.00
   11   -6    9      2.44      0.00
   12   -6    9      0.85      0.00
   13   -6    9      6.42      0.00
   14   -6    9     -6.28      0.00
  -12   -5    9     -2.17      0.00
  -11   -5    9      6.54      0.00
  -10   -5    9     -7.16      0.00
   -9   -5    9      1.31      0.00
   -8   -5    9      1.35      0.00
   -7   -5    9      8.53      0.00
   -6   -5    9      0.47      0.00
   -5   -5    9     -4.94      0.00
   -4   -5    9     -2.45      0.00
   -3   -5    9      9.54      0.00
   -2   -5    9     -1.78      0.00
   -1   -5    9     -9.09      0.00
    0   -5    9      2.16      0.00
    1   -5    9     -0.01      0.00
    2   -5    9      1.13      0.00
    3   -5    9      2.11      0.00
    4   -5    9    -14.78      0.00
    5   -5    9      1.34      0.00
    6   -5    9     -3.20      0.00
    7   -5    9     -5.41      0.00
    8   -5    9     -2.87      0.00
    9   -5    9      3.93      0.00
   10   -5    9      0.93      0.00
   11   -5    9     -4.41      0.00
   12   -5    9      1.28      0.00
   13   -5    9      0.79      0.00
   14   -5    9      1.14      0.00
   15   -5    9     -5.48      0.00
  -12   -4    9      4.17      0.00
  -11   -4    9      3.92      0.00
  -10   -4    9     -2.67      0.00
   -9   -4    9      2.24      0.00
   -8   -4    9     -2.27      0.00
   -7   -4    9      0.17      0.00
   -6   -4    9     -3.38      0.00
   -5   -4    9     -3.56      0.00
   -4   -4    9      7.20      0.00
   -3   -4    9      1.22      0.00
   -2   -4    9     -4.29      0.00
   -1   -4    9      1.07      0.00
    0   -4    9      0.64      0.00
    1   -4    9     10.74      0.00
    2   -4    9     -1.13      0.00
    3   -4    9      6.22      0.00
    4   -4    9      1.91      0.00
    5   -4    9     11.67      0.00
    6   -4    9     -5.84      0.00
    7   -4    9     -3.59      0.00
    8   -4    9     -2.54      0.00
    9   -4    9      6.79      0.00
   10   -4    9     -3.84      0.00
   11   -4    9     -3.29      0.00
   12   -4    9     -0.12      0.00
   13   -4    9     -2.57      0.00
   14   -4    9     -4.85      0.00
   15   -4    9      0.96      0.00
  -12   -3    9      5.18      0.00
  -11   -3    9     -4.51      0.00
  -10   -3    9     -1.17      0.00
   -9   -3    9      1.34      0.00
   -8   -3    9     -1.38      0.00
   -7   -3    9      0.31      0.00
   -6   -3    9     -2.42      0.00
   -5   -3    9      9.84      0.00
   -4   -3    9      3.38      0.00
   -3   -3    9     -7.05      0.00
   -2   -3    9     -4.43      0.00
   -1   -3    9     -5.97      0.00
    0   -3    9      8.15      0.00
    1   -3    9     -6.54      0.00
    2   -3    9    -13.38      0.00
    3   -3    9     -4.96      0.00
    4   -3    9      0.14      0.00
    5   -3    9      4.45      0.00
    6   -3    9     -1.20      0.00
    7   -3    9      6.83      0.00
    8   -3    9      3.62      0.00
    9   -3    9     -1.35      0.00
   10   -3    9     -0.66      0.00
   11   -3    9      1.19      0.00
   12   -3    9      3.97      0.00
   13   -3    9     -4.31      0.00
   14   -3    9      4.69      0.00
   15   -3    9      2.52      0.00
   16   -3    9      4.44      0.00
  -12   -2    9      5.49      0.00
  -11   -2    9     -1.50      0.00
  -10   -2    9      1.92      0.00
   -9   -2    9     -3.86      0.00
   -8   -2    9      8.14      0.00
   -7   -2    9     -0.73      0.00
   -6   -2    9     -1.55      0.00
   -5   -2    9     -1.75      0.00
   -4   -2    9      0.80      0.00
   -3   -2    9      5.22      0.00
   -2   -2    9     -2.23      0.00
   -1   -2    9      4.52      0.00
    0   -2    9     -0.49      0.00
    1   -2    9     10.55      0.00
    2   -2    9    -11.26      0.00
    3   -2    9     11.80      0.00
    4   -2    9     -3.48      0.00
    5   -2    9     -5.53      0.00
    6   -2    9     -8.98      0.00
    7   -2    9     -3.00      0.00
    8   -2    9     -3.69      0.00
    9   -2    9      2.25      0.00
   10   -2    9     -2.36      0.00
   11   -2    9     -5.47      0.00
   12   -2    9     -1.96      0.00
   13   -2    9      3.99      0.00
   14   -2    9      3.80      0.00
   15   -2    9     -3.56      0.00
   16   -2    9      1.33      0.00
  -12   -1    9     -5.91      0.00
  -11   -1    9     -5.30      0.00
  -10   -1    9     -0.47      0.00
   -9   -1    9     -4.36      0.00
   -8   -1    9      2.03      0.00
   -7   -1    9     -1.81      0.00
   -6   -1    9      2.21      0.00
   -5   -1    9      3.80      0.00
   -4   -1    9     -6.83      0.00
   -3   -1    9     -5.62      0.00
   -2   -1    9     -5.09      0.00
   -1   -1    9      7.84      0.00
    0   -1    9      9.59      0.00
    1   -1    9    -16.27      0.00
    2   -1    9      6.75      0.00
    3   -1    9      6.64      0.00
    4   -1    9     -1.17      0.00
    5   -1    9      6.80      0.00
    6   -1    9     -3.58      0.00
    7   -1    9      8.84      0.00
    8   -1    9      7.22      0.00
    9   -1    9      1.75      0.00
   10   -1    9     -1.04      0.00
   11   -1    9      2.36      0.00
   12   -1    9      1.08      0.00
   13   -1    9     -2.96      0.00
   14   -1    9     -6.27      0.00
   15   -1    9      3.86      0.00
   16   -1    9     -1.93      0.00
  -12    0    9      1.83      0.00
  -11    0    9      1.16      0.00
  -10    0    9     -1.84      0.00
   -9    0    9      1.45      0.00
   -8    0    9      6.38      0.00
   -7    0    9     -6.45      0.00
   -6    0    9      1.79      0.00
   -5    0    9     -2.77      0.00
   -4    0    9      3.74      0.00
   -3    0    9      2.21      0.00
   -2    0    9      0.38      0.00
   -1    0    9      4.02      0.00
    0    0    9    -18.89      0.00
    1    0    9     10.62      0.00
    2    0    9     -3.52      0.00
    3    0    9      1.46      0.00
    4    0    9      0.87      0.00
    5    0    9     -7.27      0.00
    6    0    9     -5.53      0.00
    7    0    9     12.60      0.00
    8    0    9     -6.61      0.00
    9    0    9    -11.12      0.00
   10    0    9      4.27      0.00
   11    0    9      4.33      0.00
   12    0    9      1.23      0.00
   13    0    9      2.36      0.00
   14    0    9      0.32      0.00
   15    0    9      2.71      0.00
   16    0    9     -3.62      0.00
  -12    1    9     -4.21      0.00
  -11    1    9     -1.03      0.00
  -10    1    9      7.49      0.00
   -9    1    9      1.87      0.00
   -8    1    9     -2.14      0.00
   -7    1    9     -7.58      0.00
   -6    1    9      3.55      0.00
   -5    1    9      2.06      0.00
   -4    1    9     -3.70      0.00
   -3    1    9     -1.14      0.00
   -2    1    9      6.47      0.00
   -1    1    9      1.98      0.00
    0    1    9      1.33      0.00
    1    1    9      1.04      0.00
    2    1    9     -6.85      0.00
    3    1    9      3.43      0.00
    4    1    9     -4.97      0.00
    5    1    9      2.57      0.00
    6    1    9      4.50      0.00
    7    1    9      7.37      0.00
    8    1    9    -15.71      0.00
    9    1    9      1.99      0.00
   10    1    9      9.66      0.00
   11    1    9     -4.99      0.00
   12    1    9     -2.29      0.00
   13    1    9      3.21      0.00
   14    1    9      0.81      0.00
   15    1    9      0.81      0.00
   16    1    9     -2.75      0.00
   17    1    9     -0.48      0.00
  -12    2    9    -10.63      0.00
  -11    2    9      8.08      0.00
  -10    2    9     -5.02      0.00
   -9    2    9     -3.30      0.00
   -8    2    9     -2.40      0.00
   -7    2    9     -2.61      0.00
   -6    2    9      3.49      0.00
   -5    2    9     -2.39      0.00
   -4    2    9      3.20      0.00
   -3    2    9     -1.24      0.00
   -2    2    9      4.17      0.00
   -1    2    9     -5.00      0.00
    0    2    9      1.28      0.00
    1    2    9     13.27      0.00
    2    2    9     -6.01      0.00
    3    2    9      3.47      0.00
    4    2    9      4.17      0.00
    5    2    9      0.77      0.00
    6    2    9      3.72      0.00
    7    2    9    -10.49      0.00
    8    2    9     -7.91      0.00
    9    2    9      7.75      0.00
   10    2    9      4.69      0.00
   11    2    9     -9.96      0.00
   12    2    9      1.56      0.00
   13    2    9      2.26      0.00
   14    2    9     -4.19      0.00
   15    2    9      0.07      0.00
   16    2    9     -0.36      0.00
   17    2    9      1.58      0.00
  -12    3    9      1.75      0.00
  -11    3    9      3.66      0.00
  -10    3    9      3.34      0.00
   -9    3    9      1.21      0.00
   -8    3    9      2.36      0.00
   -7    3    9     -2.82      0.00
   -6    3    9      4.33      0.00
   -5    3    9     -0.20      0.00
   -4    3    9     -7.78      0.00
   -3    3    9     -4.81      0.00
   -2    3    9     10.19      0.00
   -1    3    9     -6.54      0.00
    0    3    9     -5.96      0.00
    1    3    9     -4.20      0.00
    2    3    9     -1.58      0.00
    3    3    9      3.70      0.00
    4    3    9     -8.15      0.00
    5    3    9     -2.16      0.00
    6    3    9     -0.96      0.00
    7    3    9     -1.55      0.00
    8    3    9      7.04      0.00
    9    3    9      3.90      0.00
   10    3    9     -3.23      0.00
   11    3    9     -4.70      0.00
   12    3    9      0.43      0.00
   13    3    9      1.31      0.00
   14    3    9      1.40      0.00
   15    3    9     -2.00      0.00
   16    3    9     -0.62      0.00
   17    3    9     -3.99      0.00
  -11    4    9      8.39      0.00
  -10    4    9     -5.53      0.00
   -9    4    9     -0.19      0.00
   -8    4    9      1.57      0.00
   -7    4    9      2.45      0.00
   -6    4    9      8.11      0.00
   -5    4    9     -3.56      0.00
   -4    4    9     -1.98      0.00
   -3    4    9      5.18      0.00
   -2    4    9      4.73      0.00
   -1    4    9     -8.00      0.00
    0    4    9      8.78      0.00
    1    4    9     -2.61      0.00
    2    4    9      0.56      0.00
    3    4    9     -0.44      0.00
    4    4    9      1.51      0.00
    5    4    9      3.62      0.00
    6    4    9      4.00      0.00
    7    4    9     -6.19      0.00
    8    4    9      6.39      0.00
    9    4    9     -2.12      0.00
   10    4    9     -0.09      0.00
   11    4    9     -0.98      0.00
   12    4    9      1.55      0.00
   13    4    9      2.96      0.00
   14    4    9     -1.76      0.00
   15    4    9      2.00      0.00
   16    4    9      2.60      0.00
   17    4    9      2.54      0.00
  -11    5    9     -2.21      0.00
  -10    5    9     -4.44      0.00
   -9    5    9     -0.65      0.00
   -8    5    9     -1.23      0.00
   -7    5    9     -1.52      0.00
   -6    5    9     -0.82      0.00
   -5    5    9    -10.49      0.00
   -4    5    9      6.59      0.00
   -3    5    9      2.36      0.00
   -2    5    9      0.12      0.00
   -1    5    9     -5.04      0.00
    0    5    9      0.87      0.00
    1    5    9      5.05      0.00
    2    5    9      5.33      0.00
    3    5    9     -1.58      0.00
    4    5    9     -4.12      0.00
    5    5    9      2.83      0.00
    6    5    9     -0.16      0.00
    7    5    9     -6.47      0.00
    8    5    9      4.97      0.00
    9    5    9     -9.99      0.00
   10    5    9      2.83      0.00
   11    5    9      0.85      0.00
   12    5    9      0.21      0.00
   13    5    9     -0.96      0.00
   14    5    9      1.17      0.00
   15    5    9     -3.51      0.00
   16    5    9      0.27      0.00
   17    5    9      1.99      0.00
  -10    6    9      2.74      0.00
   -9    6    9      2.98      0.00
   -8    6    9      1.19      0.00
   -7    6    9     -2.15      0.00
   -6    6    9     -1.21      0.00
   -5    6    9      1.66      0.00
   -4    6    9      3.97      0.00
   -3    6    9     -7.74      0.00
   -2    6    9     -2.87      0.00
   -1    6    9      2.82      0.00
    0    6    9      1.14      0.00
    1    6    9     -6.13      0.00
    2    6    9     -0.78      0.00
    3    6    9     -4.41      0.00
    4    6    9      4.10      0.00
    5    6    9      7.20      0.00
    6    6    9     -0.59      0.00
    7    6    9     -4.04      0.00
    8    6    9      9.60      0.00
    9    6    9     -1.68      0.00
   10    6    9      0.33      0.00
   11    6    9     -0.89      0.00
   12    6    9     -2.59      0.00
   13    6    9     -0.12      0.00
   14    6    9      1.01      0.00
   15    6    9     -2.81      0.00
   16    6    9      0.67      0.00
   17    6    9      1.96      0.00
  -10    7    9      2.90      0.00
   -9    7    9      4.06      0.00
   -8    7    9      1.31      0.00
   -7    7    9      1.44      0.00
   -6    7    9      1.89      0.00
   -5    7    9     -0.35      0.00
   -4    7    9      4.35      0.00
   -3    7    9     -7.40      0.00
   -2    7    9      5.15      0.00
   -1    7    9     -0.72      0.00
    0    7    9     -4.51      0.00
    1    7    9      1.52      0.00
    2    7    9      1.18      0.00
    3    7    9      3.24      0.00
    4    7    9     -4.91      0.00
    5    7    9     -0.49      0.00
    6    7    9     -4.01      0.00
    7    7    9     -0.02      0.00
    8    7    9      3.04      0.00
    9    7    9     -7.20      0.00
   10    7    9     10.82      0.00
   11    7    9     -6.13      0.00
   12    7    9     -0.60      0.00
   13    7    9      0.27      0.00
   14    7    9      7.69      0.00
   15    7    9     -7.15      0.00
   16    7    9      2.75      0.00
   17    7    9      0.44      0.00
  -10    8    9     -3.01      0.00
   -9    8    9     -1.01      0.00
   -8    8    9     -4.29      0.00
   -7    8    9     -0.35      0.00
   -6    8    9      1.88      0.00
   -5    8    9      0.66      0.00
   -4    8    9     -3.22      0.00
   -3    8    9     -2.38      0.00
   -2    8    9      5.05      0.00
   -1    8    9      0.10      0.00
    0    8    9     -0.62      0.00
    1    8    9      1.52      0.00
    2    8    9      2.67      0.00
    3    8    9     -0.61      0.00
    4    8    9     -1.21      0.00
    5    8    9     -2.68      0.00
    6    8    9      3.81      0.00
    7    8    9      0.33      0.00
    8    8    9     -0.94      0.00
    9    8    9      0.14      0.00
   10    8    9     -1.07      0.00
   11    8    9     -0.69      0.00
   12    8    9     -7.03      0.00
   13    8    9      1.17      0.00
   14    8    9     -2.37      0.00
   15    8    9      2.12      0.00
   16    8    9      1.67      0.00
   -9    9    9      1.09      0.00
   -8    9    9     -3.04      0.00
   -7    9    9      1.24      0.00
   -6    9    9     -0.56      0.00
   -5    9    9      0.13      0.00
   -4    9    9     -0.92      0.00
   -3    9    9     -0.02      0.00
   -2    9    9      0.27      0.00
   -1    9    9     -4.85      0.00
    0    9    9      0.91      0.00
    1    9    9      1.58      0.00
    2    9    9      0.44      0.00
    3    9    9     -0.61      0.00
    4    9    9     -1.45      0.00
    5    9    9      7.66      0.00
    6    9    9      2.16      0.00
    7    9    9     -3.18      0.00
    8    9    9      4.79      0.00
    9    9    9     -1.94      0.00
   10    9    9      6.79      0.00
   11    9    9     -7.66      0.00
   12    9    9      3.81      0.00
   13    9    9      7.14      0.00
   14    9    9     -1.90      0.00
   15    9    9     -7.54      0.00
   16    9    9      7.37      0.00
   -8   10    9     -2.41      0.00
   -7   10    9      0.77      0.00
   -6   10    9      2.58      0.00
   -5   10    9      1.54      0.00
   -4   10    9     -0.03      0.00
   -3   10    9      1.76      0.00
   -2   10    9     -0.64      0.00
   -1   10    9      2.21      0.00
    0   10    9     -3.29      0.00
    1   10    9      2.66      0.00
    2   10    9     -0.63      0.00
    3   10    9     -0.45      0.00
    4   10    9     -1.87      0.00
    5   10    9     -0.18      0.00
    6   10    9     -0.20      0.00
    7   10    9     -3.79      0.00
    8   10    9      2.45      0.00
    9   10    9      1.99      0.00
   10   10    9      2.77      0.00
   11   10    9     -3.29      0.00
   12   10    9      2.32      0.00
   13   10    9      5.84      0.00
   14   10    9     -4.97      0.00
   15   10    9     10.63      0.00
   16   10    9     -5.43      0.00
   -8   11    9      2.46      0.00
   -7   11    9      1.18      0.00
   -6   11    9      0.04      0.00
   -5   11    9     -3.88      0.00
   -4   11    9     -2.77      0.00
   -3   11    9      0.22      0.00
   -2   11    9      4.35      0.00
   -1   11    9      2.54      0.00
    0   11    9      2.50      0.00
    1   11    9     -2.05      0.00
    2   11    9     -4.10      0.00
    3   11    9      1.16      0.00
    4   11    9      0.64      0.00
    5   11    9      0.71      0.00
    6   11    9     -4.76      0.00
    7   11    9      0.94      0.00
    8   11    9      1.91      0.00
    9   11    9     -3.71      0.00
   10   11    9      0.12      0.00
   11   11    9     -5.14      0.00
   12   11    9      6.95      0.00
   13   11    9     -1.92      0.00
   14   11    9     -0.60      0.00
   15   11    9     -4.02      0.00
   -7   12    9      2.29      0.00
   -6   12    9      0.72      0.00
   -5   12    9      0.90      0.00
   -4   12    9      2.91      0.00
   -3   12    9      2.61      0.00
   -2   12    9     -4.82      0.00
   -1   12    9     -0.33      0.00
    0   12    9      2.35      0.00
    1   12    9      3.91      0.00
    2   12    9     -0.45      0.00
    3   12    9      2.38      0.00
    4   12    9     -3.47      0.00
    5   12    9      4.59      0.00
    6   12    9      0.23      0.00
    7   12    9      0.23      0.00
    8   12    9      5.34      0.00
    9   12    9      2.12      0.00
   10   12    9     -5.74      0.00
   11   12    9     -1.48      0.00
   12   12    9      3.25      0.00
   13   12    9     -3.09      0.00
   14   12    9     -0.08      0.00
   15   12    9     -3.83      0.00
   -6   13    9     -1.91      0.00
   -5   13    9     -0.69      0.00
   -4   13    9     -5.72      0.00
   -3   13    9      3.61      0.00
   -2   13    9      0.50      0.00
   -1   13    9      0.71      0.00
    0   13    9     -2.79      0.00
    1   13    9     -8.11      0.00
    2   13    9      3.16      0.00
    3   13    9      0.61      0.00
    4   13    9     -1.77      0.00
    5   13    9     -2.83      0.00
    6   13    9     -4.48      0.00
    7   13    9      6.20      0.00
    8   13    9     -0.93      0.00
    9   13    9     -5.53      0.00
   10   13    9      1.34      0.00
   11   13    9      6.39      0.00
   12   13    9      0.54      0.00
   13   13    9     -4.64      0.00
   14   13    9      0.70      0.00
   -2   14    9     -4.57      0.00
   -1   14    9      2.51      0.00
    0   14    9     -2.47      0.00
    1   14    9      0.69      0.00
    2   14    9      1.28      0.00
    3   14    9     -0.36      0.00
    4   14    9      2.18      0.00
    5   14    9      1.31      0.00
    6   14    9      3.64      0.00
    7   14    9      2.44      0.00
    8   14    9     -2.43      0.00
    9   14    9     -6.28      0.00
   10   14    9      2.07      0.00
   11   14    9      5.85      0.00
   12   14    9      0.83      0.00
   13   14    9     -0.81      0.00
   14   14    9      3.40      0.00
   -1   15    9      1.81      0.00
    0   15    9     -3.40      0.00
    1   15    9      2.09      0.00
    2   15    9     -1.61      0.00
    3   15    9      0.32      0.00
    4   15    9     -2.48      0.00
    5   15    9     -8.25      0.00
    6   15    9      4.76      0.00
    7   15    9     -4.58      0.00
    8   15    9     -6.25      0.00
    9   15    9      5.25      0.00
   10   15    9      2.67      0.00
   11   15    9     -1.21      0.00
   12   15    9     -7.53      0.00
   13   15    9      1.42      0.00
   -1   16    9     -1.31      0.00
    0   16    9      1.41      0.00
    1   16    9      1.19      0.00
    2   16    9      0.37      0.00
    3   16    9      5.98      0.00
    4   16    9      0.01      0.00
    5   16    9      2.65      0.00
    6   16    9      1.63      0.00
    7   16    9     -3.45      0.00
    8   16    9      1.42      0.00
   10   16    9      2.75      0.00
   11   16    9      7.29      0.00
   12   16    9     -6.09      0.00
    0   17    9     -0.55      0.00
    1   17    9     -1.29      0.00
    2   17    9     -1.05      0.00
    3   17    9      3.58      0.00
    4   17    9     -6.63      0.00
    5   17    9      3.45      0.00
    6   17    9      9.28      0.00
    7   17    9      0.49      0.00
    9   17    9      2.29      0.00
   10   17    9      3.41      0.00
    3   18    9     -1.80      0.00
    4   18    9     -5.34      0.00
    5   18    9      3.91      0.00
    6   18    9    -12.06      0.00
    8   18    9      4.10      0.00
   -4  -16   10      3.35      0.00
   -3  -16   10      0.84      0.00
   -2  -16   10     -2.84      0.00
   -1  -16   10      3.48      0.00
    0  -16   10     -1.86      0.00
    1  -16   10      4.42      0.00
    2  -16   10     -0.88      0.00
    3  -16   10     -1.91      0.00
   -6  -15   10     -2.06      0.00
   -5  -15   10      1.24      0.00
   -4  -15   10      0.67      0.00
   -3  -15   10      0.02      0.00
   -2  -15   10     -2.56      0.00
   -1  -15   10      3.51      0.00
    0  -15   10     -5.48      0.00
    1  -15   10      1.20      0.00
    2  -15   10     -3.05      0.00
    3  -15   10     -1.55      0.00
    4  -15   10     -1.79      0.00
    5  -15   10      1.31      0.00
   -7  -14   10      2.27      0.00
   -6  -14   10     -4.27      0.00
   -5  -14   10     -0.93      0.00
   -4  -14   10      0.90      0.00
   -3  -14   10     -1.55      0.00
   -2  -14   10     -3.66      0.00
   -1  -14   10     -0.20      0.00
    0  -14   10     -2.33      0.00
    1  -14   10      2.36      0.00
    2  -14   10      2.22      0.00
    3  -14   10      0.67      0.00
    4  -14   10      2.38      0.00
    5  -14   10     -0.06      0.00
    6  -14   10     -5.53      0.00
    7  -14   10     -5.52      0.00
   -8  -13   10     -1.04      0.00
   -7  -13   10      0.37      0.00
   -6  -13   10     -0.27      0.00
   -5  -13   10     -0.24      0.00
   -4  -13   10      3.52      0.00
   -3  -13   10     -0.60      0.00
   -2  -13   10      0.47      0.00
   -1  -13   10      3.47      0.00
    0  -13   10     -0.43      0.00
    1  -13   10      2.71      0.00
    2  -13   10     -2.94      0.00
    3  -13   10     -0.17      0.00
    4  -13   10     -1.24      0.00
    5  -13   10      1.61      0.00
    6  -13   10     -2.24      0.00
    7  -13   10     -3.00      0.00
    8  -13   10      2.86      0.00
   -9  -12   10     -2.18      0.00
   -8  -12   10     -0.24      0.00
   -7  -12   10     -2.24      0.00
   -6  -12   10     -6.67      0.00
   -5  -12   10      5.78      0.00
   -4  -12   10      0.53      0.00
   -3  -12   10     -3.87      0.00
   -2  -12   10      0.55      0.00
   -1  -12   10      1.03      0.00
    0  -12   10      1.07      0.00
    1  -12   10      0.21      0.00
    2  -12   10      2.19      0.00
    3  -12   10     -0.59      0.00
    4  -12   10      0.95      0.00
    5  -12   10     -0.95      0.00
    6  -12   10      0.24      0.00
    7  -12   10      7.39      0.00
    8  -12   10      2.21      0.00
    9  -12   10     -4.99      0.00
  -10  -11   10     -2.28      0.00
   -9  -11   10      4.68      0.00
   -8  -11   10      0.25      0.00
   -7  -11   10     -1.44      0.00
   -6  -11   10      2.56      0.00
   -5  -11   10     -0.16      0.00
   -4  -11   10     -0.78      0.00
   -3  -11   10      1.58      0.00
   -2  -11   10      5.09      0.00
   -1  -11   10     -1.41      0.00
    0  -11   10     -2.15      0.00
    1  -11   10     -0.17      0.00
    2  -11   10     -4.65      0.00
    3  -11   10     -1.96      0.00
    4  -11   10      2.36      0.00
    5  -11   10      2.39      0.00
    6  -11   10      4.62      0.00
    7  -11   10      0.20      0.00
    8  -11   10      1.77      0.00
    9  -11   10     -2.75      0.00
   10  -11   10      2.72      0.00
  -10  -10   10      0.09      0.00
   -9  -10   10     -1.40      0.00
   -8  -10   10      2.74      0.00
   -7  -10   10     -1.97      0.00
   -6  -10   10     -0.46      0.00
   -5  -10   10     -0.03      0.00
   -4  -10   10     -1.09      0.00
   -3  -10   10     -1.02      0.00
   -2  -10   10     -2.66      0.00
   -1  -10   10     -5.10      0.00
    0  -10   10      2.96      0.00
    1  -10   10     -0.53      0.00
    2  -10   10      0.69      0.00
    3  -10   10      3.29      0.00
    4  -10   10      0.44      0.00
    5  -10   10     -2.25      0.00
    6  -10   10     -5.21      0.00
    7  -10   10      1.39      0.00
    8  -10   10     -5.32      0.00
    9  -10   10      0.09      0.00
   10  -10   10     -5.59      0.00
   11  -10   10      2.98      0.00
  -11   -9   10      1.26      0.00
  -10   -9   10     -2.49      0.00
   -9   -9   10     -2.12      0.00
   -8   -9   10      0.49      0.00
   -7   -9   10     -4.27      0.00
   -6   -9   10      2.38      0.00
   -5   -9   10      3.08      0.00
   -4   -9   10      1.75      0.00
   -3   -9   10     -2.34      0.00
   -2   -9   10      1.32      0.00
   -1   -9   10     -3.84      0.00
    0   -9   10      6.19      0.00
    1   -9   10     -2.24      0.00
    2   -9   10     -1.63      0.00
    3   -9   10      0.90      0.00
    4   -9   10      1.24      0.00
    5   -9   10      1.01      0.00
    6   -9   10     -2.28      0.00
    7   -9   10     -0.29      0.00
    8   -9   10      2.07      0.00
    9   -9   10     -3.04      0.00
   10   -9   10      6.12      0.00
   11   -9   10     -1.50      0.00
   12   -9   10     -6.23      0.00
  -11   -8   10      1.83      0.00
  -10   -8   10     -0.72      0.00
   -9   -8   10      5.85      0.00
   -8   -8   10      0.74      0.00
   -7   -8   10     -3.80      0.00
   -6   -8   10      6.47      0.00
   -5   -8   10      0.61      0.00
   -4   -8   10     -2.89      0.00
   -3   -8   10     -0.05      0.00
   -2   -8   10      2.95      0.00
   -1   -8   10     -1.43      0.00
    0   -8   10      2.14      0.00
    1   -8   10     -2.72      0.00
    2   -8   10     -0.36      0.00
    3   -8   10      4.44      0.00
    4   -8   10     -2.99      0.00
    5   -8   10     -1.10      0.00
    6   -8   10      0.32      0.00
    7   -8   10      6.21      0.00
    8   -8   10     -5.72      0.00
    9   -8   10      6.08      0.00
   10   -8   10      0.36      0.00
   11   -8   10      5.15      0.00
   12   -8   10      0.78      0.00
   13   -8   10      0.76      0.00
  -11   -7   10     -1.95      0.00
  -10   -7   10     -6.67      0.00
   -9   -7   10      5.62      0.00
   -8   -7   10     -1.11      0.00
   -7   -7   10     -1.23      0.00
   -6   -7   10      2.06      0.00
   -5   -7   10     -9.24      0.00
   -4   -7   10     -1.07      0.00
   -3   -7   10      8.07      0.00
   -2   -7   10     -0.29      0.00
   -1   -7   10     -4.12      0.00
    0   -7   10      4.95      0.00
    1   -7   10     -2.90      0.00
    2   -7   10      2.21      0.00
    3   -7   10      2.95      0.00
    4   -7   10     -3.21      0.00
    5   -7   10     -1.42      0.00
    6   -7   10      4.81      0.00
    7   -7   10      3.19      0.00
    8   -7   10     -2.57      0.00
    9   -7   10      4.86      0.00
   10   -7   10     -5.67      0.00
   11   -7   10      0.58      0.00
   12   -7   10     -0.74      0.00
   13   -7   10      6.60      0.00
  -11   -6   10      4.35      0.00
  -10   -6   10      1.93      0.00
   -9   -6   10      1.98      0.00
   -8   -6   10     -3.62      0.00
   -7   -6   10      4.02      0.00
   -6   -6   10      1.53      0.00
   -5   -6   10      0.11      0.00
   -4   -6   10      8.90      0.00
   -3   -6   10     -1.58      0.00
   -2   -6   10    -12.40      0.00
   -1   -6   10      1.67      0.00
    0   -6   10      3.13      0.00
    1   -6   10     -1.32      0.00
    2   -6   10     -1.93      0.00
    3   -6   10     -1.37      0.00
    4   -6   10     -5.76      0.00
    5   -6   10      5.59      0.00
    6   -6   10     -3.14      0.00
    7   -6   10    -11.63      0.00
    8   -6   10      1.34      0.00
    9   -6   10      5.18      0.00
   10   -6   10     -5.72      0.00
   11   -6   10     -1.41      0.00
   12   -6   10     -4.04      0.00
   13   -6   10     -3.96      0.00
   14   -6   10      2.85      0.00
  -12   -5   10      4.89      0.00
  -11   -5   10     -3.65      0.00
  -10   -5   10     -2.92      0.00
   -9   -5   10      4.61      0.00
   -8   -5   10     -2.99      0.00
   -7   -5   10     -7.44      0.00
   -6   -5   10     -1.97      0.00
   -5   -5   10      5.13      0.00
   -4   -5   10      2.30      0.00
   -3   -5   10     -9.64      0.00
   -2   -5   10      0.48      0.00
   -1   -5   10      6.33      0.00
    0   -5   10      2.96      0.00
    1   -5   10     -2.85      0.00
    2   -5   10      0.65      0.00
    3   -5   10      0.33      0.00
    4   -5   10      6.77      0.00
    5   -5   10      6.44      0.00
    6   -5   10     -3.56      0.00
    7   -5   10      3.19      0.00
    8   -5   10      2.16      0.00
    9   -5   10      0.34      0.00
   10   -5   10     -8.50      0.00
   11   -5   10      6.38      0.00
   12   -5   10      2.99      0.00
   13   -5   10      0.05      0.00
   14   -5   10     -3.03      0.00
  -12   -4   10     -0.39      0.00
  -11   -4   10     -3.57      0.00
  -10   -4   10     -2.64      0.00
   -9   -4   10     -0.98      0.00
   -8   -4   10      0.16      0.00
   -7   -4   10      3.89      0.00
   -6   -4   10      0.65      0.00
   -5   -4   10      8.60      0.00
   -4   -4   10     -6.83      0.00
   -3   -4   10     -4.48      0.00
   -2   -4   10      6.48      0.00
   -1   -4   10     -3.84      0.00
    0   -4   10     -0.29      0.00
    1   -4   10     -6.13      0.00
    2   -4   10     -2.42      0.00
    3   -4   10      2.82      0.00
    4   -4   10     -5.31      0.00
    5   -4   10     -7.15      0.00
    6   -4   10     -3.53      0.00
    7   -4   10      7.07      0.00
    8   -4   10      6.86      0.00
    9   -4   10     -3.89      0.00
   10   -4   10      1.02      0.00
   11   -4   10      2.64      0.00
   12   -4   10     -1.49      0.00
   13   -4   10      1.37      0.00
   14   -4   10      5.44      0.00
   15   -4   10     -0.34      0.00
  -12   -3   10     -1.75      0.00
  -11   -3   10      4.43      0.00
  -10   -3   10     -0.83      0.00
   -9   -3   10     -0.13      0.00
   -8   -3   10      4.70      0.00
   -7   -3   10      0.12      0.00
   -6   -3   10      1.23      0.00
   -5   -3   10     -3.48      0.00
   -4   -3   10    -11.68      0.00
   -3   -3   10      7.04      0.00
   -2   -3   10      3.24      0.00
   -1   -3   10      6.19      0.00
    0   -3   10     -3.59      0.00
    1   -3   10      4.93      0.00
    2   -3   10     -0.80      0.00
    3   -3   10     10.67      0.00
    4   -3   10     -4.12      0.00
    5   -3   10     -1.48      0.00
    6   -3   10     -2.30      0.00
    7   -3   10     -1.34      0.00
    8   -3   10     -4.87      0.00
    9   -3   10     -0.37      0.00
   10   -3   10      2.21      0.00
   11   -3   10      0.97      0.00
   12   -3   10     -2.64      0.00
   13   -3   10      0.99      0.00
   14   -3   10     -5.49      0.00
   15   -3   10     -2.91      0.00
  -12   -2   10     -2.92      0.00
  -11   -2   10     -4.14      0.00
  -10   -2   10     -0.46      0.00
   -9   -2   10      1.48      0.00
   -8   -2   10     -1.55      0.00
   -7   -2   10     -3.98      0.00
   -6   -2   10      0.29      0.00
   -5   -2   10      4.20      0.00
   -4   -2   10      0.05      0.00
   -3   -2   10      1.62      0.00
   -2   -2   10     -5.98      0.00
   -1   -2   10     -0.73      0.00
    0   -2   10      2.63      0.00
    1   -2   10     -4.13      0.00
    2   -2   10      5.31      0.00
    3   -2   10     -1.95      0.00
    4   -2   10     -5.12      0.00
    5   -2   10      4.67      0.00
    6   -2   10      5.51      0.00
    7   -2   10      9.25      0.00
    8   -2   10     -1.23      0.00
    9   -2   10     -2.60      0.00
   10   -2   10      1.69      0.00
   11   -2   10      2.25      0.00
   12   -2   10      4.07      0.00
   13   -2   10     -2.00      0.00
   14   -2   10     -5.69      0.00
   15   -2   10      6.52      0.00
   16   -2   10     -4.02      0.00
  -12   -1   10      4.19      0.00
  -11   -1   10      4.96      0.00
  -10   -1   10     -0.68      0.00
   -9   -1   10      1.06      0.00
   -8   -1   10      2.75      0.00
   -7   -1   10     -3.02      0.00
   -6   -1   10      1.41      0.00
   -5   -1   10     -2.46      0.00
   -4   -1   10     -1.03      0.00
   -3   -1   10     10.52      0.00
   -2   -1   10      0.05      0.00
   -1   -1   10      6.86      0.00
    0   -1   10    -16.58      0.00
    1   -1   10      9.73      0.00
    2   -1   10    -10.08      0.00
    3   -1   10      1.41      0.00
    4   -1   10      1.73      0.00
    5   -1   10     -2.68      0.00
    6   -1   10     -1.30      0.00
    7   -1   10      0.69      0.00
    8   -1   10    -11.50      0.00
    9   -1   10     -1.01      0.00
   10   -1   10      4.89      0.00
   11   -1   10     -5.05      0.00
   12   -1   10     -2.42      0.00
   13   -1   10      0.03      0.00
   14   -1   10      5.34      0.00
   15   -1   10      3.92      0.00
   16   -1   10     -6.21      0.00
  -11    0   10     -4.84      0.00
  -10    0   10      5.70      0.00
   -9    0   10     -1.11      0.00
   -8    0   10     -1.47      0.00
   -7    0   10     -1.17      0.00
   -6    0   10      2.98      0.00
   -5    0   10     -0.95      0.00
   -4    0   10     -1.27      0.00
   -3    0   10     -0.27      0.00
   -2    0   10     -3.84      0.00
   -1    0   10     -0.20      0.00
    0    0   10     11.67      0.00
    1    0   10      0.85      0.00
    2    0   10     -4.80      0.00
    3    0   10      3.68      0.00
    4    0   10     -6.48      0.00
    5    0   10      2.68      0.00
    6    0   10      6.36      0.00
    7    0   10     -5.18      0.00
    8    0   10     -8.81      0.00
    9    0   10     11.32      0.00
   10    0   10      2.26      0.00
   11    0   10     -9.11      0.00
   12    0   10      4.29      0.00
   13    0   10     -0.04      0.00
   14    0   10      0.36      0.00
   15    0   10     -1.06      0.00
   16    0   10     -1.76      0.00
  -10    1   10     -7.20      0.00
   -9    1   10     -2.54      0.00
   -8    1   10      2.25      0.00
   -7    1   10      1.34      0.00
   -6    1   10      0.58      0.00
   -5    1   10     -4.48      0.00
   -4    1   10     -0.57      0.00
   -3    1   10      4.19      0.00
   -2    1   10     -2.71      0.00
   -1    1   10      1.75      0.00
    0    1   10     -7.20      0.00
    1    1   10      4.36      0.00
    2    1   10     -0.85      0.00
    3    1   10      9.16      0.00
    4    1   10     -0.10      0.00
    5    1   10      0.35      0.00
    6    1   10      0.92      0.00
    7    1   10     -5.65      0.00
    8    1   10      6.31      0.00
    9    1   10      3.27      0.00
   10    1   10     -6.75      0.00
   11    1   10     -5.44      0.00
   12    1   10      8.25      0.00
   13    1   10     -2.88      0.00
   14    1   10     -0.34      0.00
   15    1   10     -1.54      0.00
   16    1   10     -3.82      0.00
  -11    2   10     -2.84      0.00
  -10    2   10      4.68      0.00
   -9    2   10      2.49      0.00
   -8    2   10      4.67      0.00
   -7    2   10     -2.11      0.00
   -6    2   10      1.43      0.00
   -5    2   10     -3.36      0.00
   -4    2   10     -0.24      0.00
   -3    2   10      2.36      0.00
   -2    2   10      0.89      0.00
   -1    2   10     -3.70      0.00
    0    2   10     -1.69      0.00
    1    2   10     -4.65      0.00
    2    2   10     -5.44      0.00
    3    2   10      3.22      0.00
    4    2   10     -8.52      0.00
    5    2   10      4.31      0.00
    6    2   10     -4.96      0.00
    7    2   10      4.35      0.00
    8    2   10      3.46      0.00
    9    2   10     -1.69      0.00
   10    2   10     -2.95      0.00
   11    2   10      4.79      0.00
   12    2   10      2.09      0.00
   13    2   10     -3.30      0.00
   14    2   10      3.41      0.00
   15    2   10     -0.47      0.00
   16    2   10      4.09      0.00
  -11    3   10      9.39      0.00
  -10    3   10     -6.96      0.00
   -9    3   10     -1.11      0.00
   -8    3   10     -2.32      0.00
   -7    3   10     -3.08      0.00
   -6    3   10      1.62      0.00
   -5    3   10     -2.62      0.00
   -4    3   10      4.97      0.00
   -3    3   10      3.47      0.00
   -2    3   10     -2.10      0.00
   -1    3   10     -3.14      0.00
    0    3   10      7.99      0.00
    1    3   10      2.81      0.00
    2    3   10      2.13      0.00
    3    3   10     -2.38      0.00
    4    3   10      3.33      0.00
    5    3   10      8.48      0.00
    6    3   10     -0.04      0.00
    7    3   10     -1.11      0.00
    8    3   10     -4.02      0.00
    9    3   10     -3.70      0.00
   10    3   10      4.43      0.00
   11    3   10      1.97      0.00
   12    3   10     -0.98      0.00
   13    3   10      4.15      0.00
   14    3   10     -6.92      0.00
   15    3   10      2.91      0.00
   16    3   10     -0.96      0.00
  -11    4   10     -0.40      0.00
  -10    4   10      0.80      0.00
   -9    4   10      1.78      0.00
   -8    4   10     -0.32      0.00
   -7    4   10     -3.03      0.00
   -6    4   10      0.12      0.00
   -5    4   10     -4.05      0.00
   -4    4   10      5.26      0.00
   -3    4   10     -7.77      0.00
   -2    4   10     -1.17      0.00
   -1    4   10     -2.12      0.00
    0    4   10      1.56      0.00
    1    4   10     -0.62      0.00
    2    4   10      1.81      0.00
    3    4   10     -0.06      0.00
    4    4   10      2.73      0.00
    6    4   10     -4.99      0.00
    7    4   10      2.14      0.00
    8    4   10     -0.83      0.00
    9    4   10     -2.20      0.00
   10    4   10      1.77      0.00
   11    4   10     -3.67      0.00
   12    4   10     -8.84      0.00
   13    4   10      3.48      0.00
   14    4   10     -1.61      0.00
   15    4   10     -0.60      0.00
   16    4   10     -1.98      0.00
   17    4   10     -0.30      0.00
  -10    5   10      1.85      0.00
   -9    5   10     -1.61      0.00
   -8    5   10      2.99      0.00
   -7    5   10      0.49      0.00
   -6    5   10      2.55      0.00
   -5    5   10      6.12      0.00
   -4    5   10     -1.06      0.00
   -3    5   10     -6.75      0.00
   -2    5   10      2.61      0.00
   -1    5   10      0.26      0.00
    0    5   10     -0.65      0.00
    1    5   10     -6.43      0.00
    2    5   10      1.96      0.00
    3    5   10     -6.67      0.00
    4    5   10      0.33      0.00
    5    5   10      3.43      0.00
    6    5   10      2.73      0.00
    7    5   10     -0.92      0.00
    8    5   10      6.64      0.00
    9    5   10      2.83      0.00
   10    5   10      5.73      0.00
   11    5   10     -4.72      0.00
   12    5   10      1.82      0.00
   13    5   10      4.58      0.00
   14    5   10     -1.60      0.00
   15    5   10     -0.30      0.00
   16    5   10      0.64      0.00
   17    5   10      2.46      0.00
  -10    6   10     -4.53      0.00
   -9    6   10     -2.35      0.00
   -8    6   10      0.30      0.00
   -7    6   10      3.14      0.00
   -6    6   10      4.16      0.00
   -5    6   10     -4.12      0.00
   -4    6   10     -2.32      0.00
   -3    6   10      0.56      0.00
   -2    6   10      8.05      0.00
   -1    6   10     -4.01      0.00
    0    6   10     -1.74      0.00
    1    6   10      5.00      0.00
    2    6   10      3.84      0.00
    3    6   10      5.58      0.00
    4    6   10     -2.36      0.00
    5    6   10     -3.09      0.00
    6    6   10     -2.53      0.00
    7    6   10     -1.14      0.00
    8    6   10      0.12      0.00
    9    6   10     -9.22      0.00
   10    6   10      8.35      0.00
   11    6   10     -7.17      0.00
   12    6   10      1.29      0.00
   13    6   10     -1.56      0.00
   14    6   10      4.49      0.00
   15    6   10     -5.01      0.00
   16    6   10      6.14      0.00
   -9    7   10      0.31      0.00
   -8    7   10     -3.71      0.00
   -7    7   10     -1.17      0.00
   -6    7   10     -2.19      0.00
   -5    7   10     -0.09      0.00
   -4    7   10     -0.64      0.00
   -3    7   10      0.55      0.00
   -2    7   10     -1.60      0.00
   -1    7   10     -1.08      0.00
    0    7   10      3.01      0.00
    1    7   10      0.99      0.00
    2    7   10      0.78      0.00
    3    7   10     -7.75      0.00
    4    7   10     -0.30      0.00
    5    7   10      6.69      0.00
    6    7   10      2.37      0.00
    7    7   10     -2.20      0.00
    8    7   10      3.46      0.00
    9    7   10      3.78      0.00
   10    7   10      2.45      0.00
   11    7   10     -5.81      0.00
   12    7   10      2.05      0.00
   13    7   10      1.61      0.00
   14    7   10     -5.10      0.00
   15    7   10     -4.49      0.00
   16    7   10      5.63      0.00
   -9    8   10      4.74      0.00
   -8    8   10     -0.94      0.00
   -7    8   10      6.90      0.00
   -6    8   10     -1.40      0.00
   -5    8   10     -0.15      0.00
   -4    8   10      4.68      0.00
   -3    8   10      0.43      0.00
   -2    8   10     -0.26      0.00
   -1    8   10     -1.69      0.00
    0    8   10      0.30      0.00
    1    8   10     -2.08      0.00
    2    8   10     -1.34      0.00
    3    8   10      1.02      0.00
    4    8   10     -2.35      0.00
    5    8   10      5.91      0.00
    6    8   10     -4.40      0.00
    7    8   10     -2.59      0.00
    8    8   10      3.71      0.00
    9    8   10     -0.33      0.00
   10    8   10      4.70      0.00
   11    8   10     -9.82      0.00
   12    8   10     10.43      0.00
   13    8   10      3.24      0.00
   14    8   10      2.00      0.00
   15    8   10     -6.11      0.00
   16    8   10      2.52      0.00
   -8    9   10     -1.99      0.00
   -7    9   10      1.02      0.00
   -6    9   10     -2.64      0.00
   -5    9   10      1.35      0.00
   -4    9   10     -0.21      0.00
   -3    9   10     -2.39      0.00
   -2    9   10      2.96      0.00
   -1    9   10      4.93      0.00
    0    9   10     -2.27      0.00
    1    9   10      0.14      0.00
    2    9   10      1.21      0.00
    3    9   10     -0.14      0.00
    4    9   10     -1.12      0.00
    5    9   10     -1.76      0.00
    6    9   10     -4.05      0.00
    7    9   10      1.05      0.00
    8    9   10      2.01      0.00
    9    9   10      0.32      0.00
   10    9   10     -2.40      0.00
   11    9   10     -0.10      0.00
   12    9   10      4.21      0.00
   13    9   10     -3.21      0.00
   14    9   10     -6.50      0.00
   15    9   10     10.35      0.00
   16    9   10     -2.74      0.00
   -8   10   10      1.11      0.00
   -7   10   10      2.74      0.00
   -6   10   10     -1.66      0.00
   -5   10   10     -0.11      0.00
   -4   10   10      0.75      0.00
   -3   10   10     -1.43      0.00
   -2   10   10     -1.02      0.00
   -1   10   10      0.76      0.00
    0   10   10      1.47      0.00
    1   10   10      0.51      0.00
    2   10   10     -3.86      0.00
    3   10   10      1.42      0.00
    4   10   10     -1.49      0.00
    6   10   10     -0.96      0.00
    7   10   10      3.68      0.00
    8   10   10      2.56      0.00
    9   10   10     -5.05      0.00
   10   10   10     -0.01      0.00
   11   10   10     -4.50      0.00
   12   10   10      5.25      0.00
   13   10   10     -5.46      0.00
   14   10   10     -0.41      0.00
   15   10   10     -2.66      0.00
   16   10   10     -0.62      0.00
   -7   11   10     -1.02      0.00
   -6   11   10     -1.35      0.00
   -5   11   10      3.25      0.00
   -4   11   10      0.21      0.00
   -3   11   10      1.46      0.00
   -2   11   10     -2.85      0.00
   -1   11   10     -1.25      0.00
    0   11   10     -6.42      0.00
    1   11   10      4.05      0.00
    2   11   10      0.84      0.00
    3   11   10      2.63      0.00
    4   11   10     -2.84      0.00
    5   11   10      2.81      0.00
    6   11   10     -1.42      0.00
    7   11   10     -0.02      0.00
    8   11   10      1.15      0.00
    9   11   10     -0.35      0.00
   10   11   10      3.03      0.00
   11   11   10      3.38      0.00
   12   11   10     -0.41      0.00
   13   11   10     -2.67      0.00
   14   11   10      1.08      0.00
   15   11   10      4.50      0.00
   -6   12   10      0.51      0.00
   -5   12   10     -0.91      0.00
   -4   12   10     -3.45      0.00
   -3   12   10     -1.81      0.00
   -2   12   10      1.77      0.00
   -1   12   10      2.47      0.00
    0   12   10      0.67      0.00
    1   12   10     -5.07      0.00
    2   12   10      0.31      0.00
    3   12   10      0.48      0.00
    4   12   10     -1.53      0.00
    5   12   10     -0.36      0.00
    6   12   10     -2.60      0.00
    7   12   10      4.96      0.00
    8   12   10     -7.37      0.00
    9   12   10     -5.74      0.00
   10   12   10      3.13      0.00
   11   12   10      2.22      0.00
   12   12   10     -1.09      0.00
   13   12   10      1.76      0.00
   14   12   10      2.14      0.00
   15   12   10     -0.07      0.00
   -5   13   10     -2.34      0.00
   -3   13   10      0.22      0.00
   -2   13   10     -3.62      0.00
   -1   13   10      2.84      0.00
    0   13   10      1.76      0.00
    1   13   10     -1.28      0.00
    2   13   10      3.21      0.00
    3   13   10      0.32      0.00
    4   13   10     -0.38      0.00
    5   13   10      3.24      0.00
    6   13   10     -0.66      0.00
    7   13   10      2.69      0.00
    8   13   10     -2.70      0.00
    9   13   10      4.02      0.00
   10   13   10      2.23      0.00
   11   13   10     -3.24      0.00
   12   13   10      0.62      0.00
   13   13   10      1.87      0.00
   14   13   10      3.61      0.00
   -2   14   10      3.02      0.00
   -1   14   10      1.80      0.00
    0   14   10     -1.34      0.00
    1   14   10     -2.81      0.00
    2   14   10      2.95      0.00
    3   14   10     -1.58      0.00
    4   14   10     -1.65      0.00
    5   14   10     -2.76      0.00
    6   14   10      0.92      0.00
    7   14   10     -4.68      0.00
    8   14   10     -5.77      0.00
    9   14   10      7.78      0.00
   10   14   10      0.57      0.00
   11   14   10     -2.13      0.00
   12   14   10     -4.38      0.00
   13   14   10      2.69      0.00
   -1   15   10      0.76      0.00
    0   15   10     -2.07      0.00
    1   15   10     -3.11      0.00
    2   15   10      7.66      0.00
    3   15   10      0.42      0.00
    4   15   10      0.85      0.00
    5   15   10      5.28      0.00
    6   15   10      5.71      0.00
    7   15   10     -1.05      0.00
    8   15   10      5.22      0.00
    9   15   10     -4.98      0.00
   10   15   10     -1.46      0.00
   11   15   10     -0.32      0.00
   12   15   10      2.94      0.00
   -1   16   10     -0.50      0.00
    0   16   10     -3.72      0.00
    1   16   10      1.07      0.00
    2   16   10      2.65      0.00
    3   16   10     -5.10      0.00
    4   16   10     -5.02      0.00
    5   16   10     -5.41      0.00
    6   16   10      4.22      0.00
    7   16   10     -7.01      0.00
    8   16   10      2.15      0.00
    9   16   10      2.87      0.00
   11   16   10     -6.55      0.00
    1   17   10      0.02      0.00
    2   17   10      2.58      0.00
    3   17   10     -3.96      0.00
    4   17   10      3.93      0.00
    5   17   10      1.61      0.00
    6   17   10     -7.25      0.00
    7   17   10     -5.72      0.00
    8   17   10      5.23      0.00
   -4  -15   11      1.52      0.00
   -3  -15   11     -0.87      0.00
   -2  -15   11      2.85      0.00
   -1  -15   11     -0.47      0.00
    0  -15   11     -2.78      0.00
    1  -15   11      3.13      0.00
    2  -15   11     -0.92      0.00
    3  -15   11      1.47      0.00
    4  -15   11      2.24      0.00
   -6  -14   11     -2.82      0.00
   -5  -14   11      4.73      0.00
   -4  -14   11     -0.94      0.00
   -3  -14   11     -1.52      0.00
   -2  -14   11      4.73      0.00
   -1  -14   11      1.45      0.00
    0  -14   11      1.89      0.00
    1  -14   11     -1.81      0.00
    2  -14   11     -2.76      0.00
    3  -14   11      0.18      0.00
    4  -14   11     -1.54      0.00
    5  -14   11      1.14      0.00
    6  -14   11      1.12      0.00
   -7  -13   11      2.27      0.00
   -6  -13   11     -5.32      0.00
   -5  -13   11      7.34      0.00
   -4  -13   11     -5.21      0.00
   -3  -13   11      1.02      0.00
   -2  -13   11     -0.95      0.00
   -1  -13   11     -6.58      0.00
    0  -13   11     -0.73      0.00
    1  -13   11     -5.32      0.00
    2  -13   11      4.75      0.00
    3  -13   11     -1.18      0.00
    4  -13   11      1.18      0.00
    5  -13   11      1.83      0.00
    6  -13   11      1.26      0.00
    7  -13   11      3.07      0.00
    8  -13   11     -0.90      0.00
   -8  -12   11      0.54      0.00
   -7  -12   11      2.31      0.00
   -6  -12   11      1.21      0.00
   -5  -12   11     -0.70      0.00
   -4  -12   11     -2.28      0.00
   -3  -12   11      3.94      0.00
   -2  -12   11     -2.32      0.00
   -1  -12   11      0.37      0.00
    0  -12   11     -0.42      0.00
    1  -12   11      2.06      0.00
    2  -12   11      1.07      0.00
    3  -12   11     -0.09      0.00
    4  -12   11     -0.05      0.00
    5  -12   11     -1.83      0.00
    6  -12   11     -3.74      0.00
    7  -12   11     -3.14      0.00
    8  -12   11      0.90      0.00
    9  -12   11     -1.28      0.00
   -9  -11   11     -1.73      0.00
   -8  -11   11      2.10      0.00
   -7  -11   11     -2.28      0.00
   -6  -11   11     -3.13      0.00
   -5  -11   11      4.09      0.00
   -4  -11   11     -2.41      0.00
   -3  -11   11      1.46      0.00
   -2  -11   11     -5.24      0.00
   -1  -11   11      2.31      0.00
    0  -11   11      1.37      0.00
    1  -11   11     -1.31      0.00
    2  -11   11      2.91      0.00
    3  -11   11      2.34      0.00
    4  -11   11     -2.06      0.00
    5  -11   11     -1.49      0.00
    6  -11   11     -3.67      0.00
    7  -11   11      4.57      0.00
    8  -11   11     -3.33      0.00
    9  -11   11     -0.78      0.00
   10  -11   11     -2.95      0.00
   -9  -10   11      4.18      0.00
   -8  -10   11      0.41      0.00
   -7  -10   11     -4.18      0.00
   -6  -10   11      2.26      0.00
   -5  -10   11      1.13      0.00
   -4  -10   11      1.82      0.00
   -3  -10   11      0.76      0.00
   -2  -10   11      0.30      0.00
   -1  -10   11      4.69      0.00
    0  -10   11      1.84      0.00
    1  -10   11      0.02      0.00
    2  -10   11     -0.27      0.00
    3  -10   11     -3.62      0.00
    4  -10   11     -2.43      0.00
    5  -10   11     -1.14      0.00
    6  -10   11      6.05      0.00
    7  -10   11      6.24      0.00
    8  -10   11     -0.94      0.00
    9  -10   11     -1.96      0.00
   10  -10   11     11.82      0.00
   11  -10   11      0.20      0.00
  -10   -9   11      1.06      0.00
   -9   -9   11      5.92      0.00
   -8   -9   11     -1.00      0.00
   -7   -9   11     -1.67      0.00
   -6   -9   11      2.86      0.00
   -5   -9   11     -2.11      0.00
   -4   -9   11     -1.65      0.00
   -3   -9   11      2.50      0.00
   -2   -9   11      0.18      0.00
   -1   -9   11     -0.74      0.00
    0   -9   11     -0.52      0.00
    1   -9   11     -5.43      0.00
    2   -9   11      2.79      0.00
    3   -9   11      1.27      0.00
    4   -9   11     -1.39      0.00
    5   -9   11      1.13      0.00
    6   -9   11      1.89      0.00
    7   -9   11      5.91      0.00
    8   -9   11    -11.80      0.00
    9   -9   11      7.19      0.00
   10   -9   11    -10.30      0.00
   11   -9   11      3.17      0.00
   12   -9   11      2.86      0.00
  -10   -8   11     -0.83      0.00
   -9   -8   11     -1.16      0.00
   -8   -8   11     -4.57      0.00
   -7   -8   11      0.57      0.00
   -6   -8   11      0.15      0.00
   -5   -8   11     -3.48      0.00
   -4   -8   11      1.36      0.00
   -3   -8   11     -1.68      0.00
   -2   -8   11     -3.04      0.00
   -1   -8   11     -0.94      0.00
    0   -8   11      4.61      0.00
    1   -8   11     -3.79      0.00
    2   -8   11      3.47      0.00
    3   -8   11     -3.20      0.00
    4   -8   11      0.83      0.00
    5   -8   11      1.60      0.00
    6   -8   11      4.09      0.00
    7   -8   11     -5.71      0.00
    8   -8   11     -2.57      0.00
    9   -8   11      2.68      0.00
   10   -8   11      1.21      0.00
   11   -8   11     -0.19      0.00
   12   -8   11    -11.36      0.00
  -10   -7   11      6.25      0.00
   -9   -7   11      0.98      0.00
   -8   -7   11     -7.98      0.00
   -7   -7   11     -0.53      0.00
   -6   -7   11      4.19      0.00
   -5   -7   11      4.29      0.00
   -4   -7   11      6.65      0.00
   -3   -7   11     -7.50      0.00
   -2   -7   11     -4.51      0.00
   -1   -7   11      4.85      0.00
    0   -7   11     -2.46      0.00
    1   -7   11     -1.63      0.00
    2   -7   11      1.70      0.00
    3   -7   11     -0.88      0.00
    4   -7   11     -0.96      0.00
    5   -7   11      0.50      0.00
    6   -7   11      0.39      0.00
    7   -7   11     -9.02      0.00
    8   -7   11      3.67      0.00
    9   -7   11      0.74      0.00
   10   -7   11     -0.44      0.00
   11   -7   11      4.37      0.00
   12   -7   11     -0.82      0.00
   13   -7   11     -1.84      0.00
  -11   -6   11     -5.73      0.00
  -10   -6   11     -5.71      0.00
   -9   -6   11     -0.40      0.00
   -8   -6   11      4.63      0.00
   -7   -6   11     -1.14      0.00
   -6   -6   11     -0.14      0.00
   -5   -6   11     -3.28      0.00
   -4   -6   11     -7.11      0.00
   -3   -6   11     -2.04      0.00
   -2   -6   11     14.31      0.00
   -1   -6   11     -1.10      0.00
    0   -6   11     -1.78      0.00
    1   -6   11     -1.99      0.00
    2   -6   11      6.05      0.00
    3   -6   11     -1.76      0.00
    4   -6   11      4.06      0.00
    5   -6   11     -3.16      0.00
    6   -6   11      1.99      0.00
    7   -6   11      3.47      0.00
    8   -6   11      2.81      0.00
    9   -6   11     -2.57      0.00
   10   -6   11     -0.01      0.00
   11   -6   11      1.64      0.00
   12   -6   11      1.31      0.00
   13   -6   11      6.46      0.00
   14   -6   11     -0.36      0.00
  -11   -5   11      2.14      0.00
  -10   -5   11      4.43      0.00
   -9   -5   11     -3.43      0.00
   -8   -5   11     -1.25      0.00
   -7   -5   11      5.10      0.00
   -6   -5   11      4.15      0.00
   -5   -5   11     -0.45      0.00
   -4   -5   11     -4.70      0.00
   -3   -5   11      8.01      0.00
   -2   -5   11      2.35      0.00
   -1   -5   11    -11.58      0.00
    0   -5   11      0.64      0.00
    1   -5   11      1.33      0.00
    2   -5   11      0.16      0.00
    3   -5   11     -0.75      0.00
    4   -5   11     -7.39      0.00
    5   -5   11      0.06      0.00
    6   -5   11     -0.33      0.00
    7   -5   11     -4.56      0.00
    8   -5   11      4.74      0.00
    9   -5   11      0.23      0.00
   10   -5   11      8.29      0.00
   11   -5   11     -1.90      0.00
   12   -5   11     -4.78      0.00
   13   -5   11     -3.59      0.00
   14   -5   11      0.26      0.00
  -11   -4   11      3.20      0.00
  -10   -4   11     -1.62      0.00
   -9   -4   11      4.14      0.00
   -8   -4   11      2.96      0.00
   -7   -4   11     -5.18      0.00
   -6   -4   11      0.47      0.00
   -5   -4   11     -1.92      0.00
   -4   -4   11     -1.55      0.00
   -3   -4   11      7.25      0.00
   -2   -4   11     -9.36      0.00
   -1   -4   11     -0.37      0.00
    0   -4   11     11.16      0.00
    1   -4   11      1.44      0.00
    2   -4   11     -2.17      0.00
    3   -4   11     -2.05      0.00
    4   -4   11      1.48      0.00
    5   -4   11      9.03      0.00
    6   -4   11     -0.33      0.00
    7   -4   11     -3.35      0.00
    8   -4   11     -3.71      0.00
    9   -4   11     -1.41      0.00
   10   -4   11     -3.23      0.00
   11   -4   11     -1.19      0.00
   12   -4   11      3.19      0.00
   13   -4   11     -1.50      0.00
   14   -4   11     -3.24      0.00
   15   -4   11     -1.90      0.00
  -11   -3   11     -6.34      0.00
  -10   -3   11     -5.85      0.00
   -9   -3   11      2.62      0.00
   -8   -3   11     -2.16      0.00
   -7   -3   11     -0.77      0.00
   -6   -3   11     -0.62      0.00
   -5   -3   11      3.57      0.00
   -4   -3   11      6.84      0.00
   -3   -3   11      1.51      0.00
   -2   -3   11     -5.44      0.00
   -1   -3   11     -1.81      0.00
    0   -3   11      3.01      0.00
    1   -3   11     -4.26      0.00
    2   -3   11      0.21      0.00
    3   -3   11     -1.99      0.00
    4   -3   11      0.81      0.00
    5   -3   11      5.24      0.00
    6   -3   11     -6.88      0.00
    7   -3   11      4.44      0.00
    8   -3   11      4.23      0.00
    9   -3   11     -0.31      0.00
   10   -3   11     -1.34      0.00
   11   -3   11     -1.77      0.00
   12   -3   11     -0.59      0.00
   13   -3   11     -0.18      0.00
   14   -3   11      3.35      0.00
   15   -3   11      7.10      0.00
  -11   -2   11      5.08      0.00
  -10   -2   11     -0.01      0.00
   -9   -2   11      1.88      0.00
   -8   -2   11      0.76      0.00
   -7   -2   11      2.50      0.00
   -6   -2   11     -0.54      0.00
   -5   -2   11      0.18      0.00
   -4   -2   11     -5.74      0.00
   -3   -2   11      0.71      0.00
   -2   -2   11     -4.49      0.00
   -1   -2   11     15.57      0.00
    0   -2   11     -5.00      0.00
    1   -2   11     -0.63      0.00
    2   -2   11    -11.34      0.00
    4   -2   11      4.37      0.00
    5   -2   11     -4.74      0.00
    6   -2   11     -5.43      0.00
    7   -2   11      0.07      0.00
    8   -2   11     -6.94      0.00
    9   -2   11      1.89      0.00
   10   -2   11      1.08      0.00
   11   -2   11     -0.34      0.00
   12   -2   11     -3.32      0.00
   13   -2   11      1.26      0.00
   14   -2   11      4.64      0.00
   15   -2   11     -4.45      0.00
  -11   -1   11     -7.74      0.00
  -10   -1   11      1.67      0.00
   -9   -1   11      3.96      0.00
   -8   -1   11      0.35      0.00
   -7   -1   11     -1.25      0.00
   -6   -1   11     -3.92      0.00
   -5   -1   11      0.87      0.00
   -4   -1   11      2.68      0.00
   -3   -1   11     -4.35      0.00
   -2   -1   11     -3.75      0.00
   -1   -1   11      0.52      0.00
    0   -1   11      6.40      0.00
    1   -1   11     -3.79      0.00
    2   -1   11      7.79      0.00
    3   -1   11      5.20      0.00
    4   -1   11     -3.45      0.00
    5   -1   11     -3.93      0.00
    6   -1   11      5.98      0.00
    7   -1   11      1.26      0.00
    8   -1   11      0.20      0.00
    9   -1   11      5.29      0.00
   10   -1   11     -5.10      0.00
   11   -1   11     -1.45      0.00
   12   -1   11      7.03      0.00
   13   -1   11      1.36      0.00
   14   -1   11     -1.97      0.00
   15   -1   11     -1.08      0.00
   16   -1   11     -0.33      0.00
  -11    0   11      8.14      0.00
  -10    0   11     -3.29      0.00
   -9    0   11      0.35      0.00
   -8    0   11     -0.48      0.00
   -7    0   11     -1.71      0.00
   -6    0   11     -3.02      0.00
   -5    0   11      3.73      0.00
   -4    0   11     -3.10      0.00
   -3    0   11      2.38      0.00
   -2    0   11     -0.60      0.00
   -1    0   11     11.56      0.00
    0    0   11    -14.70      0.00
    1    0   11     -6.18      0.00
    2    0   11      3.40      0.00
    3    0   11      4.37      0.00
    4    0   11      3.11      0.00
    5    0   11      0.08      0.00
    6    0   11      1.58      0.00
    7    0   11     -2.57      0.00
    8    0   11      6.33      0.00
    9    0   11     -2.00      0.00
   10    0   11     -2.52      0.00
   11    0   11      4.84      0.00
   12    0   11      0.88      0.00
   13    0   11     -5.81      0.00
   14    0   11      0.17      0.00
   15    0   11      0.05      0.00
   16    0   11     -1.56      0.00
  -11    1   11     -6.87      0.00
  -10    1   11      6.74      0.00
   -9    1   11     -0.17      0.00
   -8    1   11     -0.90      0.00
   -7    1   11     -3.42      0.00
   -6    1   11      2.19      0.00
   -5    1   11      2.97      0.00
   -4    1   11     -0.54      0.00
   -3    1   11      0.11      0.00
   -2    1   11     -0.91      0.00
   -1    1   11     -0.12      0.00
    0    1   11     -2.44      0.00
    1    1   11      0.42      0.00
    2    1   11     -0.65      0.00
    3    1   11     -3.98      0.00
    4    1   11     -7.03      0.00
    5    1   11      2.91      0.00
    6    1   11     -0.43      0.00
    7    1   11      1.33      0.00
    8    1   11     -5.77      0.00
    9    1   11     -1.15      0.00
   10    1   11      2.79      0.00
   11    1   11      0.56      0.00
   12    1   11     -4.22      0.00
   13    1   11     -0.21      0.00
   14    1   11      2.96      0.00
   15    1   11     -1.01      0.00
   16    1   11      5.78      0.00
  -10    2   11     -2.75      0.00
   -9    2   11     -2.44      0.00
   -8    2   11     -3.19      0.00
   -7    2   11     -1.65      0.00
   -6    2   11      4.42      0.00
   -5    2   11     -0.55      0.00
   -4    2   11     -1.74      0.00
   -3    2   11     -0.56      0.00
   -2    2   11     -2.04      0.00
   -1    2   11      4.47      0.00
    0    2   11     -1.41      0.00
    1    2   11      6.95      0.00
    2    2   11      3.80      0.00
    3    2   11      2.10      0.00
    4    2   11      1.33      0.00
    5    2   11      2.06      0.00
    6    2   11      0.76      0.00
    7    2   11     -0.45      0.00
    8    2   11     -3.29      0.00
    9    2   11      4.23      0.00
   10    2   11      1.69      0.00
   11    2   11     -6.59      0.00
   12    2   11      0.51      0.00
   13    2   11      5.68      0.00
   14    2   11     -4.60      0.00
   15    2   11      2.98      0.00
   16    2   11     -4.80      0.00
  -10    3   11      0.13      0.00
   -9    3   11     -4.76      0.00
   -8    3   11      5.19      0.00
   -7    3   11      4.40      0.00
   -6    3   11      2.20      0.00
   -5    3   11     -3.99      0.00
   -4    3   11      0.09      0.00
   -3    3   11     -4.04      0.00
   -2    3   11      2.24      0.00
   -1    3   11     -2.45      0.00
    0    3   11     -3.93      0.00
    1    3   11      0.80      0.00
    2    3   11     -3.72      0.00
    3    3   11      2.33      0.00
    4    3   11      0.77      0.00
    5    3   11     -4.55      0.00
    6    3   11     -2.55      0.00
    7    3   11      2.95      0.00
    8    3   11      1.78      0.00
    9    3   11      8.11      0.00
   10    3   11     -6.13      0.00
   11    3   11     -4.98      0.00
   12    3   11      0.43      0.00
   13    3   11      0.88      0.00
   14    3   11     -2.80      0.00
   15    3   11      2.32      0.00
   16    3   11     -1.98      0.00
  -10    4   11     -4.04      0.00
   -9    4   11     -3.27      0.00
   -8    4   11      6.63      0.00
   -7    4   11     -1.46      0.00
   -6    4   11      0.84      0.00
   -5    4   11     -1.18      0.00
   -4    4   11      0.30      0.00
   -3    4   11      2.54      0.00
   -2    4   11      6.50      0.00
   -1    4   11     -7.01      0.00
    0    4   11      0.78      0.00
    1    4   11     -0.14      0.00
    2    4   11      2.04      0.00
    3    4   11     -2.67      0.00
    4    4   11     -5.54      0.00
    5    4   11      3.39      0.00
    6    4   11      3.09      0.00
    7    4   11     -2.39      0.00
    8    4   11      2.52      0.00
    9    4   11      2.25      0.00
   10    4   11     -1.02      0.00
   11    4   11      1.71      0.00
   12    4   11      8.23      0.00
   13    4   11      1.80      0.00
   14    4   11     -6.50      0.00
   15    4   11      6.50      0.00
   16    4   11     -1.16      0.00
  -10    5   11     -8.05      0.00
   -9    5   11      1.95      0.00
   -8    5   11      2.48      0.00
   -7    5   11     -1.73      0.00
   -6    5   11      0.48      0.00
   -5    5   11     -3.21      0.00
   -4    5   11      0.67      0.00
   -3    5   11      1.45      0.00
   -2    5   11      1.30      0.00
   -1    5   11     -3.06      0.00
    0    5   11      6.06      0.00
    1    5   11      3.14      0.00
    2    5   11     -1.54      0.00
    3    5   11      2.25      0.00
    4    5   11      4.11      0.00
    5    5   11     -0.41      0.00
    6    5   11     -4.80      0.00
    7    5   11     -0.55      0.00
    8    5   11      3.44      0.00
    9    5   11     -6.78      0.00
   10    5   11     -0.58      0.00
   11    5   11     -1.72      0.00
   12    5   11     -1.92      0.00
   13    5   11     -2.28      0.00
   14    5   11     -3.64      0.00
   15    5   11     -1.45      0.00
   16    5   11      0.84      0.00
   -9    6   11      4.93      0.00
   -8    6   11      0.09      0.00
   -7    6   11     -3.65      0.00
   -6    6   11     -4.89      0.00
   -5    6   11      5.15      0.00
   -4    6   11      4.33      0.00
   -3    6   11     -1.50      0.00
   -2    6   11     -6.70      0.00
   -1    6   11     -1.08      0.00
    0    6   11      2.45      0.00
    1    6   11     -3.23      0.00
    2    6   11     -0.10      0.00
    3    6   11     -8.70      0.00
    4    6   11     -3.83      0.00
    5    6   11      6.53      0.00
    6    6   11     -0.46      0.00
    7    6   11      0.46      0.00
    8    6   11      5.74      0.00
    9    6   11      3.08      0.00
   10    6   11      2.46      0.00
   11    6   11     -4.11      0.00
   12    6   11      6.53      0.00
   13    6   11      3.17      0.00
   14    6   11     -1.92      0.00
   15    6   11     -4.17      0.00
   16    6   11     -0.27      0.00
   -9    7   11      3.87      0.00
   -8    7   11     -1.89      0.00
   -7    7   11      5.25      0.00
   -6    7   11      1.12      0.00
   -5    7   11      3.92      0.00
   -4    7   11     -0.81      0.00
   -3    7   11     -2.89      0.00
   -2    7   11      5.67      0.00
   -1    7   11      4.08      0.00
    0    7   11     -4.47      0.00
    1    7   11     -1.26      0.00
    2    7   11      1.60      0.00
    3    7   11      3.07      0.00
    4    7   11      0.17      0.00
    5    7   11      1.34      0.00
    6    7   11     -7.47      0.00
    7    7   11      2.53      0.00
    8    7   11      3.19      0.00
    9    7   11     -8.19      0.00
   10    7   11      1.42      0.00
   11    7   11     -1.84      0.00
   12    7   11      6.85      0.00
   13    7   11     -4.36      0.00
   14    7   11      2.14      0.00
   15    7   11      1.54      0.00
   16    7   11      5.75      0.00
   -8    8   11     -3.63      0.00
   -7    8   11     -2.32      0.00
   -6    8   11     -3.67      0.00
   -5    8   11      2.84      0.00
   -4    8   11     -4.53      0.00
   -3    8   11     -4.57      0.00
   -2    8   11      3.43      0.00
   -1    8   11      0.72      0.00
    0    8   11     -1.53      0.00
    1    8   11      2.72      0.00
    2    8   11      3.25      0.00
    3    8   11     -4.87      0.00
    4    8   11      1.18      0.00
    5    8   11      0.71      0.00
    6    8   11     -2.53      0.00
    7    8   11      4.60      0.00
    8    8   11     -2.86      0.00
    9    8   11      0.13      0.00
   10    8   11     -1.37      0.00
   11    8   11      4.26      0.00
   12    8   11     -1.82      0.00
   13    8   11     -3.29      0.00
   14    8   11     -4.90      0.00
   15    8   11      4.92      0.00
   16    8   11      3.78      0.00
   -7    9   11      2.27      0.00
   -6    9   11      1.41      0.00
   -5    9   11      3.06      0.00
   -4    9   11     -1.99      0.00
   -3    9   11      0.93      0.00
   -2    9   11     -0.35      0.00
   -1    9   11     -3.46      0.00
    0    9   11     -1.52      0.00
    1    9   11      3.37      0.00
    2    9   11     -3.46      0.00
    3    9   11     -2.09      0.00
    4    9   11      1.35      0.00
    5    9   11      3.61      0.00
    6    9   11     -0.64      0.00
    7    9   11      0.75      0.00
    8    9   11     -1.64      0.00
    9    9   11     -1.33      0.00
   10    9   11      3.18      0.00
   11    9   11     -4.21      0.00
   12    9   11      1.42      0.00
   13    9   11     -0.70      0.00
   14    9   11      3.42      0.00
   15    9   11     -1.73      0.00
   16    9   11     -4.84      0.00
   -7   10   11     -0.60      0.00
   -6   10   11     -1.14      0.00
   -5   10   11      0.37      0.00
   -4   10   11     -5.57      0.00
   -3   10   11      2.70      0.00
   -2   10   11      3.73      0.00
   -1   10   11      1.77      0.00
    0   10   11     -6.40      0.00
    1   10   11      3.41      0.00
    2   10   11     -2.38      0.00
    3   10   11      4.10      0.00
    4   10   11      0.72      0.00
    5   10   11     -1.06      0.00
    6   10   11     -1.17      0.00
    7   10   11     -2.94      0.00
    8   10   11     -1.01      0.00
    9   10   11      1.25      0.00
   10   10   11      1.61      0.00
   11   10   11      1.26      0.00
   12   10   11      4.00      0.00
   13   10   11      4.40      0.00
   14   10   11      0.46      0.00
   15   10   11      5.80      0.00
   -6   11   11      0.68      0.00
   -5   11   11     -2.53      0.00
   -4   11   11     -0.76      0.00
   -3   11   11      0.92      0.00
   -2   11   11      1.53      0.00
   -1   11   11      3.19      0.00
    0   11   11      2.01      0.00
    1   11   11      0.04      0.00
    2   11   11     -4.33      0.00
    3   11   11      3.78      0.00
    4   11   11     -1.59      0.00
    5   11   11     -0.01      0.00
    6   11   11      0.79      0.00
    7   11   11      1.99      0.00
    8   11   11     -0.03      0.00
    9   11   11     -4.29      0.00
   10   11   11     -0.37      0.00
   11   11   11     -4.06      0.00
   12   11   11      1.95      0.00
   13   11   11      0.63      0.00
   14   11   11     -2.56      0.00
   15   11   11      1.42      0.00
   -5   12   11     -0.45      0.00
   -3   12   11      3.11      0.00
   -2   12   11     -0.84      0.00
   -1   12   11     -1.00      0.00
    0   12   11     -3.29      0.00
    1   12   11      0.55      0.00
    2   12   11      1.87      0.00
    3   12   11      0.59      0.00
    4   12   11     -0.89      0.00
    5   12   11      1.33      0.00
    6   12   11     -3.13      0.00
    7   12   11      0.18      0.00
    8   12   11     -0.04      0.00
    9   12   11      4.73      0.00
   10   12   11      1.86      0.00
   11   12   11     -0.74      0.00
   12   12   11      2.42      0.00
   13   12   11     -3.25      0.00
   14   12   11     -0.44      0.00
   -3   13   11     -1.05      0.00
   -2   13   11      3.61      0.00
   -1   13   11     -3.42      0.00
    0   13   11     -3.62      0.00
    1   13   11      0.51      0.00
    2   13   11      5.68      0.00
    3   13   11     -1.33      0.00
    4   13   11     -1.97      0.00
    5   13   11      0.83      0.00
    6   13   11      0.17      0.00
    7   13   11      1.79      0.00
    8   13   11     -7.84      0.00
    9   13   11      0.78      0.00
   10   13   11     -3.91      0.00
   11   13   11      2.22      0.00
   12   13   11     -4.23      0.00
   13   13   11     -0.42      0.00
   14   13   11     -3.50      0.00
   -2   14   11     -3.65      0.00
   -1   14   11     -0.88      0.00
    0   14   11     -1.60      0.00
    1   14   11      1.13      0.00
    2   14   11      3.89      0.00
    3   14   11     -3.16      0.00
    4   14   11     -1.53      0.00
    5   14   11      3.00      0.00
    6   14   11     -0.41      0.00
    7   14   11      3.56      0.00
    8   14   11      3.42      0.00
    9   14   11     -0.85      0.00
   10   14   11      0.44      0.00
   11   14   11     -1.60      0.00
   12   14   11      4.21      0.00
   13   14   11     -1.91      0.00
   -1   15   11      1.20      0.00
    0   15   11     -2.63      0.00
    1   15   11      4.70      0.00
    2   15   11     -2.90      0.00
    3   15   11     -4.91      0.00
    4   15   11     -2.00      0.00
    5   15   11     -4.21      0.00
    6   15   11     -0.79      0.00
    7   15   11     -7.52      0.00
    8   15   11     -2.49      0.00
    9   15   11      2.90      0.00
   10   15   11      3.60      0.00
   11   15   11     -2.87      0.00
   12   15   11     -1.08      0.00
    0   16   11      0.04      0.00
    1   16   11      0.87      0.00
    2   16   11      0.59      0.00
    3   16   11     -1.20      0.00
    4   16   11      6.39      0.00
    5   16   11      4.85      0.00
    6   16   11      3.98      0.00
    7   16   11     -3.10      0.00
    8   16   11      6.32      0.00
    9   16   11     -4.89      0.00
   10   16   11     -0.28      0.00
    3   17   11     -1.28      0.00
    4   17   11     -4.71      0.00
    5   17   11     -0.17      0.00
    6   17   11      8.75      0.00
    7   17   11     -2.10      0.00
    8   17   11      1.61      0.00
   -1  -15   12     -2.83      0.00
    0  -15   12      4.84      0.00
    1  -15   12     -2.67      0.00
   -4  -14   12     -2.26      0.00
   -3  -14   12      3.60      0.00
   -2  -14   12     -3.21      0.00
   -1  -14   12     -2.70      0.00
    0  -14   12     -1.04      0.00
    1  -14   12     -1.63      0.00
    2  -14   12      6.43      0.00
    3  -14   12     -4.75      0.00
    4  -14   12     -0.05      0.00
    5  -14   12     -0.32      0.00
   -6  -13   12      0.62      0.00
   -5  -13   12      0.37      0.00
   -4  -13   12      0.89      0.00
   -3  -13   12      1.59      0.00
   -2  -13   12     -2.14      0.00
   -1  -13   12      8.59      0.00
    0  -13   12     -1.06      0.00
    1  -13   12      2.13      0.00
    2  -13   12      1.81      0.00
    3  -13   12     -3.79      0.00
    4  -13   12      3.34      0.00
    5  -13   12     -1.31      0.00
    6  -13   12     -4.80      0.00
    7  -13   12      2.37      0.00
   -6  -12   12     -2.56      0.00
   -5  -12   12      6.29      0.00
   -4  -12   12     -2.89      0.00
   -3  -12   12      1.17      0.00
   -2  -12   12     -1.67      0.00
   -1  -12   12      5.12      0.00
    0  -12   12     -3.00      0.00
    1  -12   12      1.15      0.00
    2  -12   12     -2.60      0.00
    3  -12   12     -5.21      0.00
    4  -12   12     -1.04      0.00
    5  -12   12      3.51      0.00
    6  -12   12      3.87      0.00
    7  -12   12      6.72      0.00
    8  -12   12     -4.19      0.00
   -8  -11   12     -2.99      0.00
   -7  -11   12      2.12      0.00
   -6  -11   12      1.12      0.00
   -5  -11   12     -0.21      0.00
   -4  -11   12      0.60      0.00
   -3  -11   12     -1.64      0.00
   -2  -11   12     -0.80      0.00
   -1  -11   12      2.35      0.00
    0  -11   12     -7.67      0.00
    1  -11   12      7.64      0.00
    2  -11   12     -2.57      0.00
    3  -11   12     -0.01      0.00
    4  -11   12      4.54      0.00
    5  -11   12     -1.15      0.00
    6  -11   12      3.16      0.00
    7  -11   12     -1.38      0.00
    8  -11   12     -2.23      0.00
    9  -11   12     -1.34      0.00
   -8  -10   12     -2.32      0.00
   -7  -10   12      1.05      0.00
   -6  -10   12      0.39      0.00
   -5  -10   12      0.42      0.00
   -4  -10   12     -4.84      0.00
   -3  -10   12      2.17      0.00
   -2  -10   12      0.87      0.00
   -1  -10   12     -2.25      0.00
    0  -10   12     -0.41      0.00
    1  -10   12     -0.51      0.00
    2  -10   12     -2.97      0.00
    3  -10   12      3.32      0.00
    4  -10   12      0.97      0.00
    5  -10   12      2.95      0.00
    6  -10   12     -4.61      0.00
    7  -10   12     -2.78      0.00
    8  -10   12     -4.90      0.00
    9  -10   12      9.72      0.00
   10  -10   12    -11.76      0.00
   -9   -9   12     -3.79      0.00
   -8   -9   12     -0.22      0.00
   -7   -9   12     -1.61      0.00
   -6   -9   12      0.15      0.00
   -5   -9   12      0.83      0.00
   -4   -9   12      0.58      0.00
   -3   -9   12     -4.06      0.00
   -2   -9   12     -1.64      0.00
   -1   -9   12      0.98      0.00
    0   -9   12      4.67      0.00
    1   -9   12     -0.86      0.00
    2   -9   12      2.09      0.00
    3   -9   12     -0.99      0.00
    4   -9   12     -0.39      0.00
    5   -9   12     -3.92      0.00
    6   -9   12      1.24      0.00
    7   -9   12     -2.98      0.00
    8   -9   12      1.52      0.00
    9   -9   12     -0.23      0.00
   10   -9   12     10.26      0.00
   11   -9   12      1.12      0.00
   -9   -8   12      3.40      0.00
   -8   -8   12      0.71      0.00
   -7   -8   12      0.58      0.00
   -6   -8   12      2.47      0.00
   -5   -8   12     -1.77      0.00
   -4   -8   12      4.30      0.00
   -3   -8   12      2.59      0.00
   -2   -8   12      1.61      0.00
   -1   -8   12      0.15      0.00
    0   -8   12     -1.40      0.00
    1   -8   12     -4.25      0.00
    2   -8   12      1.77      0.00
    3   -8   12      2.40      0.00
    4   -8   12     -0.59      0.00
    5   -8   12     -2.70      0.00
    6   -8   12     -0.92      0.00
    7   -8   12      1.24      0.00
    8   -8   12      2.99      0.00
    9   -8   12      1.72      0.00
   10   -8   12     -5.02      0.00
   11   -8   12     -0.05      0.00
   12   -8   12      8.52      0.00
  -10   -7   12     -4.80      0.00
   -9   -7   12     -2.87      0.00
   -8   -7   12      4.84      0.00
   -7   -7   12      1.61      0.00
   -6   -7   12     -0.40      0.00
   -5   -7   12     -3.10      0.00
   -4   -7   12     -5.59      0.00
   -3   -7   12      0.09      0.00
   -2   -7   12      6.27      0.00
   -1   -7   12     -4.99      0.00
    0   -7   12      3.91      0.00
    1   -7   12     -1.48      0.00
    2   -7   12      3.55      0.00
    3   -7   12     -2.91      0.00
    4   -7   12      0.92      0.00
    5   -7   12     -0.18      0.00
    6   -7   12      4.19      0.00
    7   -7   12     -0.26      0.00
    8   -7   12     -0.10      0.00
    9   -7   12      0.71      0.00
   10   -7   12      3.33      0.00
   11   -7   12     -5.79      0.00
   12   -7   12     -4.46      0.00
   13   -7   12      2.61      0.00
  -10   -6   12      8.45      0.00
   -9   -6   12      2.39      0.00
   -8   -6   12     -6.28      0.00
   -7   -6   12     -1.04      0.00
   -6   -6   12      3.72      0.00
   -5   -6   12      1.53      0.00
   -4   -6   12      5.12      0.00
   -3   -6   12      2.59      0.00
   -2   -6   12    -11.89      0.00
   -1   -6   12     -3.30      0.00
    0   -6   12      6.06      0.00
    1   -6   12     -2.94      0.00
    2   -6   12     -0.11      0.00
    3   -6   12      0.26      0.00
    4   -6   12     -3.44      0.00
    5   -6   12      2.89      0.00
    6   -6   12      0.85      0.00
    7   -6   12     -7.53      0.00
    8   -6   12      5.63      0.00
    9   -6   12     -2.52      0.00
   10   -6   12      0.67      0.00
   11   -6   12      1.38      0.00
   12   -6   12      1.12      0.00
   13   -6   12     -5.96      0.00
  -10   -5   12     -5.88      0.00
   -9   -5   12      2.65      0.00
   -8   -5   12      3.99      0.00
   -7   -5   12     -3.12      0.00
   -6   -5   12      3.86      0.00
   -5   -5   12     -1.78      0.00
   -4   -5   12      1.22      0.00
   -3   -5   12     -2.87      0.00
   -2   -5   12     -4.51      0.00
   -1   -5   12      7.22      0.00
    0   -5   12     11.59      0.00
    1   -5   12    -10.55      0.00
    2   -5   12      3.24      0.00
    3   -5   12     -3.71      0.00
    4   -5   12      6.02      0.00
    5   -5   12      0.96      0.00
    6   -5   12     -4.72      0.00
    7   -5   12      2.03      0.00
    8   -5   12      1.78      0.00
    9   -5   12     -4.75      0.00
   10   -5   12     -7.06      0.00
   11   -5   12     -2.19      0.00
   12   -5   12      2.62      0.00
   13   -5   12      3.72      0.00
   14   -5   12      5.02      0.00
  -10   -4   12      0.67      0.00
   -9   -4   12     -0.69      0.00
   -8   -4   12     -5.78      0.00
   -7   -4   12      4.28      0.00
   -6   -4   12     -0.19      0.00
   -5   -4   12     -3.07      0.00
   -4   -4   12     -0.23      0.00
   -3   -4   12     -2.51      0.00
   -2   -4   12      8.49      0.00
   -1   -4   12      2.21      0.00
    0   -4   12     -7.03      0.00
    1   -4   12    -10.02      0.00
    2   -4   12      7.72      0.00
    3   -4   12      0.08      0.00
    4   -4   12      0.09      0.00
    5   -4   12     -0.95      0.00
    6   -4   12     -8.98      0.00
    7   -4   12      7.65      0.00
    8   -4   12      4.08      0.00
    9   -4   12     -5.22      0.00
   10   -4   12      7.06      0.00
   11   -4   12      4.34      0.00
   12   -4   12     -3.80      0.00
   13   -4   12      1.41      0.00
   14   -4   12     -0.04      0.00
  -10   -3   12      3.77      0.00
   -9   -3   12      3.51      0.00
   -8   -3   12      1.08      0.00
   -7   -3   12      0.40      0.00
   -6   -3   12     -3.36      0.00
   -5   -3   12      1.55      0.00
   -4   -3   12     -6.01      0.00
   -3   -3   12      0.53      0.00
   -2   -3   12     -2.60      0.00
   -1   -3   12      7.21      0.00
    0   -3   12     -2.64      0.00
    1   -3   12      1.76      0.00
    2   -3   12     -2.19      0.00
    3   -3   12      3.00      0.00
    4   -3   12     -0.68      0.00
    5   -3   12     -6.26      0.00
    6   -3   12      3.44      0.00
    7   -3   12      6.89      0.00
    8   -3   12     -8.19      0.00
    9   -3   12     -2.18      0.00
   10   -3   12      2.35      0.00
   11   -3   12      2.02      0.00
   12   -3   12     -1.70      0.00
   13   -3   12      3.72      0.00
   14   -3   12     -0.82      0.00
   15   -3   12     -6.73      0.00
  -10   -2   12     -5.36      0.00
   -9   -2   12      3.56      0.00
   -8   -2   12     -1.23      0.00
   -7   -2   12     -2.58      0.00
   -6   -2   12     -2.59      0.00
   -5   -2   12      3.32      0.00
   -4   -2   12      1.08      0.00
   -3   -2   12      1.04      0.00
   -2   -2   12      5.59      0.00
   -1   -2   12     -5.90      0.00
    0   -2   12     -5.26      0.00
    1   -2   12      2.19      0.00
    2   -2   12      9.13      0.00
    3   -2   12      1.75      0.00
    4   -2   12     -1.65      0.00
    5   -2   12      2.62      0.00
    6   -2   12      3.40      0.00
    7   -2   12      2.98      0.00
    8   -2   12     -1.24      0.00
    9   -2   12      1.99      0.00
   10   -2   12     -0.20      0.00
   11   -2   12     -2.48      0.00
   12   -2   12      1.69      0.00
   13   -2   12     -1.10      0.00
   14   -2   12     -4.00      0.00
   15   -2   12      6.34      0.00
  -10   -1   12      0.56      0.00
   -9   -1   12     -0.93      0.00
   -8   -1   12     -3.96      0.00
   -7   -1   12      0.20      0.00
   -6   -1   12      0.24      0.00
   -5   -1   12      7.40      0.00
   -4   -1   12     -6.43      0.00
   -3   -1   12      2.89      0.00
   -2   -1   12     -0.24      0.00
   -1   -1   12      6.39      0.00
    0   -1   12     -9.56      0.00
    1   -1   12     -0.03      0.00
    2   -1   12     -4.41      0.00
    3   -1   12     -3.17      0.00
    4   -1   12     -1.34      0.00
    5   -1   12      2.09      0.00
    6   -1   12      1.47      0.00
    7   -1   12     -1.61      0.00
    8   -1   12     -4.84      0.00
    9   -1   12      0.10      0.00
   10   -1   12      1.42      0.00
   11   -1   12      3.37      0.00
   12   -1   12     -4.79      0.00
   13   -1   12     -1.74      0.00
   14   -1   12      1.86      0.00
   15   -1   12     -2.33      0.00
  -10    0   12      3.09      0.00
   -9    0   12      1.96      0.00
   -8    0   12     -0.84      0.00
   -7    0   12     -0.50      0.00
   -6    0   12      2.79      0.00
   -5    0   12      1.30      0.00
   -4    0   12     -3.14      0.00
   -3    0   12      1.10      0.00
   -2    0   12      0.92      0.00
   -1    0   12     -5.26      0.00
    0    0   12      2.39      0.00
    1    0   12      6.09      0.00
    2    0   12      4.93      0.00
    3    0   12     -7.19      0.00
    4    0   12     -1.17      0.00
    5    0   12     -0.83      0.00
    6    0   12     -0.99      0.00
    7    0   12      2.92      0.00
    8    0   12     -5.49      0.00
    9    0   12      3.40      0.00
   10    0   12     -0.97      0.00
   11    0   12     -6.07      0.00
   12    0   12     -1.42      0.00
   13    0   12      5.56      0.00
   14    0   12      4.05      0.00
   15    0   12     -0.50      0.00
  -10    1   12     -1.48      0.00
   -9    1   12     -2.33      0.00
   -8    1   12      1.65      0.00
   -7    1   12      0.38      0.00
   -6    1   12     -0.24      0.00
   -5    1   12     -2.47      0.00
   -4    1   12     -2.35      0.00
   -3    1   12      2.76      0.00
   -2    1   12     -2.30      0.00
   -1    1   12      3.35      0.00
    0    1   12     -1.03      0.00
    1    1   12      1.82      0.00
    2    1   12      1.98      0.00
    3    1   12      3.74      0.00
    4    1   12      4.80      0.00
    6    1   12      2.58      0.00
    7    1   12     -1.33      0.00
    8    1   12      0.75      0.00
    9    1   12      6.28      0.00
   10    1   12     -4.06      0.00
   11    1   12      2.34      0.00
   12    1   12      6.77      0.00
   13    1   12     -0.48      0.00
   14    1   12     -4.26      0.00
   15    1   12      0.32      0.00
   16    1   12     -3.66      0.00
  -10    2   12     -0.81      0.00
   -9    2   12     -5.88      0.00
   -8    2   12      5.87      0.00
   -7    2   12      0.99      0.00
   -6    2   12     -1.65      0.00
   -5    2   12     -0.38      0.00
   -4    2   12      1.83      0.00
   -3    2   12      0.10      0.00
   -2    2   12      0.15      0.00
   -1    2   12     -3.34      0.00
    0    2   12     -3.44      0.00
    1    2   12     -1.07      0.00
    2    2   12     -4.12      0.00
    3    2   12     -1.17      0.00
    4    2   12     -1.78      0.00
    5    2   12     -2.90      0.00
    6    2   12     -0.70      0.00
    7    2   12     -0.27      0.00
    8    2   12      3.01      0.00
    9    2   12      4.23      0.00
   10    2   12     -7.37      0.00
   11    2   12      2.90      0.00
   12    2   12      0.69      0.00
   13    2   12     -8.16      0.00
   14    2   12     -0.26      0.00
   15    2   12     -2.09      0.00
   16    2   12      3.45      0.00
   -9    3   12      3.46      0.00
   -8    3   12      5.22      0.00
   -7    3   12    -10.10      0.00
   -6    3   12      4.91      0.00
   -5    3   12     -0.31      0.00
   -4    3   12      2.37      0.00
   -3    3   12      0.02      0.00
   -2    3   12      2.81      0.00
   -1    3   12     -2.35      0.00
    0    3   12      3.86      0.00
    1    3   12     -0.34      0.00
    2    3   12     -1.72      0.00
    3    3   12      4.82      0.00
    4    3   12     -8.66      0.00
    5    3   12      3.17      0.00
    6    3   12      2.08      0.00
    7    3   12     -1.10      0.00
    8    3   12     -0.76      0.00
    9    3   12     -4.82      0.00
   10    3   12      0.50      0.00
   11    3   12      8.37      0.00
   12    3   12      0.28      0.00
   13    3   12     -1.61      0.00
   14    3   12     -1.58      0.00
   15    3   12      5.42      0.00
   16    3   12     -0.38      0.00
   -9    4   12      2.51      0.00
   -8    4   12     -0.89      0.00
   -7    4   12     -3.31      0.00
   -6    4   12      4.46      0.00
   -5    4   12      1.04      0.00
   -4    4   12      1.16      0.00
   -3    4   12     -5.28      0.00
   -2    4   12     -3.15      0.00
   -1    4   12      0.99      0.00
    0    4   12      5.95      0.00
    1    4   12     -0.44      0.00
    2    4   12     -1.34      0.00
    3    4   12     -0.83      0.00
    4    4   12      3.15      0.00
    5    4   12      1.46      0.00
    6    4   12     -2.38      0.00
    7    4   12      2.99      0.00
    8    4   12      3.93      0.00
    9    4   12     -1.68      0.00
   10    4   12      0.72      0.00
   11    4   12      0.61      0.00
   12    4   12     -5.53      0.00
   13    4   12      1.54      0.00
   14    4   12     -2.08      0.00
   15    4   12      1.28      0.00
   16    4   12     -7.35      0.00
   -9    5   12      4.25      0.00
   -8    5   12      0.87      0.00
   -7    5   12     -2.83      0.00
   -6    5   12      1.56      0.00
   -5    5   12     -0.76      0.00
   -4    5   12      0.02      0.00
   -3    5   12     -0.33      0.00
   -2    5   12      4.19      0.00
   -1    5   12     -4.84      0.00
    0    5   12     -2.98      0.00
    1    5   12     -5.36      0.00
    2    5   12      5.65      0.00
    3    5   12     -0.74      0.00
    4    5   12     -7.83      0.00
    5    5   12      1.32      0.00
    6    5   12      0.72      0.00
    7    5   12      1.52      0.00
    8    5   12     -3.45      0.00
    9    5   12      0.29      0.00
   10    5   12      4.27      0.00
   11    5   12      0.42      0.00
   12    5   12      1.66      0.00
   13    5   12      1.65      0.00
   14    5   12     -1.07      0.00
   15    5   12      8.08      0.00
   16    5   12     -2.57      0.00
   -8    6   12     -3.57      0.00
   -7    6   12      1.39      0.00
   -6    6   12      4.15      0.00
   -5    6   12     -0.04      0.00
   -4    6   12     -6.14      0.00
   -3    6   12     -0.66      0.00
   -2    6   12      8.03      0.00
   -1    6   12      2.89      0.00
    0    6   12     -1.63      0.00
    1    6   12      4.82      0.00
    2    6   12      1.27      0.00
    3    6   12     -2.03      0.00
    4    6   12      5.67      0.00
    5    6   12      1.84      0.00
    6    6   12     -4.73      0.00
    7    6   12      0.21      0.00
    8    6   12     -0.10      0.00
    9    6   12     -8.57      0.00
   10    6   12      4.10      0.00
   11    6   12      2.54      0.00
   12    6   12     -2.15      0.00
   13    6   12     -2.00      0.00
   14    6   12     -2.84      0.00
   15    6   12      6.06      0.00
   16    6   12      2.25      0.00
   -8    7   12     -1.78      0.00
   -7    7   12     -2.37      0.00
   -6    7   12     -2.85      0.00
   -5    7   12     -0.66      0.00
   -4    7   12     -1.85      0.00
   -3    7   12      2.30      0.00
   -2    7   12     -1.88      0.00
   -1    7   12     -9.55      0.00
    0    7   12      1.76      0.00
    1    7   12      4.10      0.00
    2    7   12     -1.93      0.00
    3    7   12     -4.94      0.00
    4    7   12      2.05      0.00
    5    7   12      1.81      0.00
    6    7   12     -1.10      0.00
    7    7   12      0.82      0.00
    8    7   12     -4.65      0.00
    9    7   12      4.20      0.00
   10    7   12      4.29      0.00
   11    7   12     -2.86      0.00
   12    7   12     -5.02      0.00
   13    7   12      4.85      0.00
   14    7   12      0.17      0.00
   15    7   12     -0.96      0.00
   16    7   12     -6.79      0.00
   -7    8   12      3.01      0.00
   -6    8   12      2.74      0.00
   -5    8   12      1.06      0.00
   -4    8   12     -0.27      0.00
   -3    8   12      4.09      0.00
   -2    8   12      2.39      0.00
   -1    8   12     -1.11      0.00
    0    8   12      0.22      0.00
    1    8   12      0.49      0.00
    2    8   12     -3.74      0.00
    3    8   12      0.77      0.00
    4    8   12      3.64      0.00
    5    8   12     -0.20      0.00
    6    8   12     -3.39      0.00
    7    8   12     -0.67      0.00
    8    8   12      2.30      0.00
    9    8   12     -0.11      0.00
   10    8   12      2.65      0.00
   11    8   12     -6.36      0.00
   12    8   12      5.05      0.00
   13    8   12      3.75      0.00
   14    8   12      2.09      0.00
   15    8   12     -0.27      0.00
   -7    9   12      1.44      0.00
   -6    9   12     -3.62      0.00
   -5    9   12     -2.60      0.00
   -4    9   12     -2.42      0.00
   -3    9   12      2.34      0.00
   -2    9   12      3.36      0.00
   -1    9   12      0.80      0.00
    0    9   12      2.15      0.00
    1    9   12     -1.34      0.00
    2    9   12     -0.70      0.00
    3    9   12      4.47      0.00
    4    9   12     -0.46      0.00
    5    9   12     -2.95      0.00
    6    9   12     -0.59      0.00
    7    9   12      2.26      0.00
    8    9   12     -1.89      0.00
    9    9   12      2.29      0.00
   10    9   12     -4.21      0.00
   11    9   12      0.50      0.00
   12    9   12      3.87      0.00
   13    9   12      0.28      0.00
   14    9   12     -0.06      0.00
   15    9   12      2.11      0.00
   -6   10   12     -1.36      0.00
   -5   10   12      3.42      0.00
   -4   10   12      2.84      0.00
   -3   10   12      1.29      0.00
   -2   10   12     -3.95      0.00
   -1   10   12     -3.23      0.00
    0   10   12      2.36      0.00
    1   10   12      0.22      0.00
    2   10   12     -0.38      0.00
    3   10   12      0.98      0.00
    4   10   12     -4.68      0.00
    5   10   12      1.40      0.00
    6   10   12      1.30      0.00
    7   10   12      2.06      0.00
    8   10   12      1.71      0.00
    9   10   12     -4.92      0.00
   10   10   12      0.83      0.00
   11   10   12     -2.30      0.00
   12   10   12     -0.73      0.00
   13   10   12     -9.88      0.00
   14   10   12     -1.42      0.00
   15   10   12     -1.63      0.00
   -5   11   12      4.07      0.00
   -4   11   12     -2.70      0.00
   -3   11   12      1.84      0.00
   -2   11   12     -2.10      0.00
   -1   11   12     -1.83      0.00
    0   11   12     -2.82      0.00
    1   11   12      1.35      0.00
    2   11   12      1.39      0.00
    3   11   12      0.79      0.00
    4   11   12     -3.35      0.00
    5   11   12     -0.72      0.00
    6   11   12      0.85      0.00
    7   11   12     -2.76      0.00
    8   11   12     -3.19      0.00
    9   11   12      2.00      0.00
   10   11   12      2.51      0.00
   11   11   12     -1.71      0.00
   12   11   12      2.03      0.00
   13   11   12      0.61      0.00
   14   11   12      4.65      0.00
   -3   12   12     -0.70      0.00
   -2   12   12     -0.65      0.00
   -1   12   12      0.46      0.00
    0   12   12      0.21      0.00
    1   12   12      1.06      0.00
    2   12   12     -0.23      0.00
    3   12   12     -0.26      0.00
    4   12   12     -1.96      0.00
    5   12   12      4.39      0.00
    6   12   12      4.47      0.00
    7   12   12      1.43      0.00
    8   12   12     -3.13      0.00
    9   12   12     -0.90      0.00
   10   12   12     -2.49      0.00
   11   12   12      0.66      0.00
   12   12   12     -5.17      0.00
   13   12   12      3.05      0.00
   14   12   12     -2.66      0.00
   -2   13   12     -2.35      0.00
   -1   13   12      3.01      0.00
    0   13   12      1.13      0.00
    1   13   12     -0.31      0.00
    2   13   12     -3.08      0.00
    3   13   12     -3.58      0.00
    4   13   12     -0.25      0.00
    5   13   12      1.43      0.00
    6   13   12     -3.89      0.00
    7   13   12     -1.45      0.00
    8   13   12     -0.02      0.00
    9   13   12      6.19      0.00
   10   13   12      1.75      0.00
   11   13   12     -1.96      0.00
   12   13   12      4.68      0.00
   13   13   12      0.58      0.00
   -2   14   12      4.16      0.00
   -1   14   12      1.37      0.00
    0   14   12     -2.05      0.00
    1   14   12      0.95      0.00
    2   14   12     -0.69      0.00
    3   14   12      1.34      0.00
    4   14   12      1.09      0.00
    5   14   12      3.34      0.00
    6   14   12     -0.61      0.00
    7   14   12     -2.84      0.00
    8   14   12     -4.82      0.00
    9   14   12      3.57      0.00
   10   14   12     -1.89      0.00
   11   14   12     -1.40      0.00
   12   14   12     -2.87      0.00
    0   15   12     -3.41      0.00
    1   15   12      3.81      0.00
    2   15   12      1.53      0.00
    3   15   12     -0.62      0.00
    4   15   12      0.84      0.00
    5   15   12      6.71      0.00
    6   15   12      0.61      0.00
    7   15   12     -0.45      0.00
    8   15   12      8.25      0.00
    9   15   12      0.65      0.00
   10   15   12     -2.68      0.00
   11   15   12     -2.24      0.00
    2   16   12     -3.05      0.00
    3   16   12     -1.73      0.00
    4   16   12     -5.19      0.00
    5   16   12     -1.94      0.00
    6   16   12     -3.78      0.00
    7   16   12     -3.06      0.00
    8   16   12      2.89      0.00
    9   16   12     -1.21      0.00
   -2  -14   13      2.38      0.00
   -1  -14   13      2.25      0.00
    0  -14   13      0.07      0.00
    1  -14   13      1.98      0.00
    2  -14   13     -2.12      0.00
   -4  -13   13     -2.97      0.00
   -3  -13   13      0.72      0.00
   -2  -13   13     -0.23      0.00
   -1  -13   13     -4.45      0.00
    0  -13   13     -1.83      0.00
    1  -13   13      5.59      0.00
    2  -13   13     -1.89      0.00
    3  -13   13     -1.63      0.00
    4  -13   13     -0.92      0.00
    5  -13   13     -0.64      0.00
   -5  -12   13      1.01      0.00
   -4  -12   13     -0.01      0.00
   -3  -12   13      0.09      0.00
   -2  -12   13     -0.19      0.00
   -1  -12   13     -0.25      0.00
    0  -12   13     -4.69      0.00
    1  -12   13      4.94      0.00
    2  -12   13     -2.02      0.00
    3  -12   13      4.31      0.00
    4  -12   13      4.30      0.00
    5  -12   13     -3.20      0.00
    6  -12   13     -2.86      0.00
    7  -12   13     -2.44      0.00
   -6  -11   13     -2.36      0.00
   -5  -11   13      4.88      0.00
   -4  -11   13     -6.03      0.00
   -3  -11   13      4.56      0.00
   -2  -11   13      0.62      0.00
   -1  -11   13      0.76      0.00
    0  -11   13      6.13      0.00
    1  -11   13      0.22      0.00
    2  -11   13     -5.80      0.00
    3  -11   13      1.41      0.00
    4  -11   13     -6.75      0.00
    5  -11   13      1.04      0.00
    6  -11   13     -2.37      0.00
    7  -11   13      1.89      0.00
    8  -11   13      0.37      0.00
   -7  -10   13     -3.94      0.00
   -6  -10   13      1.15      0.00
   -5  -10   13      0.17      0.00
   -4  -10   13      4.05      0.00
   -3  -10   13     -2.83      0.00
   -2  -10   13     -4.68      0.00
   -1  -10   13      2.69      0.00
    0  -10   13     -1.71      0.00
    1  -10   13     -1.11      0.00
    2  -10   13      2.19      0.00
    3  -10   13      1.16      0.00
    4  -10   13      1.09      0.00
    5  -10   13     -3.37      0.00
    6  -10   13      6.40      0.00
    7  -10   13      0.82      0.00
    8  -10   13     -0.52      0.00
    9  -10   13     -7.56      0.00
   10  -10   13     10.59      0.00
   -7   -9   13     -1.03      0.00
   -6   -9   13      5.05      0.00
   -5   -9   13     -2.82      0.00
   -4   -9   13      2.02      0.00
   -3   -9   13      0.60      0.00
   -2   -9   13      2.99      0.00
   -1   -9   13     -1.35      0.00
    0   -9   13     -0.52      0.00
    1   -9   13     -2.24      0.00
    2   -9   13      3.33      0.00
    3   -9   13     -0.50      0.00
    4   -9   13     -0.24      0.00
    5   -9   13      3.07      0.00
    6   -9   13      1.00      0.00
    7   -9   13     -1.62      0.00
    8   -9   13     -1.80      0.00
    9   -9   13      5.98      0.00
   10   -9   13     -5.30      0.00
   -8   -8   13     -1.94      0.00
   -7   -8   13     -3.80      0.00
   -6   -8   13      1.28      0.00
   -5   -8   13      3.10      0.00
   -4   -8   13     -3.64      0.00
   -3   -8   13     -9.29      0.00
   -2   -8   13      2.06      0.00
   -1   -8   13      0.05      0.00
    0   -8   13      2.30      0.00
    1   -8   13     -1.64      0.00
    2   -8   13      2.87      0.00
    3   -8   13     -2.54      0.00
    4   -8   13     -2.68      0.00
    5   -8   13      3.51      0.00
    6   -8   13      2.95      0.00
    7   -8   13     -4.47      0.00
    8   -8   13     -2.82      0.00
    9   -8   13      1.50      0.00
   10   -8   13      4.78      0.00
   11   -8   13     -3.96      0.00
   -8   -7   13     -5.27      0.00
   -7   -7   13      2.60      0.00
   -6   -7   13      4.38      0.00
   -5   -7   13     -1.37      0.00
   -4   -7   13      3.97      0.00
   -3   -7   13      0.87      0.00
   -2   -7   13     -2.98      0.00
   -1   -7   13      3.17      0.00
    0   -7   13     -0.42      0.00
    1   -7   13     -5.14      0.00
    2   -7   13      1.48      0.00
    3   -7   13      1.43      0.00
    4   -7   13     -3.33      0.00
    5   -7   13      1.32      0.00
    6   -7   13     -2.38      0.00
    7   -7   13     -2.90      0.00
    8   -7   13      4.90      0.00
    9   -7   13     -2.64      0.00
   10   -7   13     -3.38      0.00
   11   -7   13      2.40      0.00
   12   -7   13      7.70      0.00
   -9   -6   13     -3.89      0.00
   -8   -6   13     -1.54      0.00
   -7   -6   13      2.46      0.00
   -6   -6   13      1.39      0.00
   -5   -6   13     -5.34      0.00
   -4   -6   13     -2.31      0.00
   -3   -6   13     -0.99      0.00
   -2   -6   13      7.84      0.00
   -1   -6   13      0.68      0.00
    0   -6   13      0.46      0.00
    1   -6   13     -5.15      0.00
    2   -6   13      7.94      0.00
    3   -6   13     -6.71      0.00
    4   -6   13      3.46      0.00
    5   -6   13      2.00      0.00
    6   -6   13     -4.03      0.00
    7   -6   13      3.18      0.00
    8   -6   13     -0.92      0.00
    9   -6   13      0.04      0.00
   10   -6   13      2.13      0.00
   11   -6   13     -3.75      0.00
   12   -6   13     -2.59      0.00
   13   -6   13      4.07      0.00
   -9   -5   13     -0.49      0.00
   -8   -5   13     -4.91      0.00
   -7   -5   13      7.35      0.00
   -6   -5   13     -6.28      0.00
   -5   -5   13     -2.99      0.00
   -4   -5   13      1.04      0.00
   -3   -5   13     -0.38      0.00
   -2   -5   13      6.49      0.00
   -1   -5   13     -5.70      0.00
    0   -5   13     -5.79      0.00
    1   -5   13     -2.01      0.00
    2   -5   13      8.50      0.00
    3   -5   13     -5.30      0.00
    4   -5   13      1.26      0.00
    5   -5   13      0.90      0.00
    6   -5   13     -0.59      0.00
    7   -5   13      5.20      0.00
    8   -5   13     -2.07      0.00
    9   -5   13     -3.02      0.00
   10   -5   13      9.14      0.00
   11   -5   13      3.43      0.00
   12   -5   13     -0.81      0.00
   13   -5   13     -0.22      0.00
   -9   -4   13      1.43      0.00
   -8   -4   13      4.95      0.00
   -7   -4   13     -1.72      0.00
   -6   -4   13      1.92      0.00
   -5   -4   13      4.67      0.00
   -4   -4   13      0.09      0.00
   -3   -4   13      5.01      0.00
   -2   -4   13     -7.32      0.00
   -1   -4   13     -4.04      0.00
    0   -4   13     10.76      0.00
    1   -4   13      4.21      0.00
    2   -4   13     -4.23      0.00
    3   -4   13     -3.12      0.00
    4   -4   13      3.93      0.00
    5   -4   13     -1.74      0.00
    6   -4   13      3.46      0.00
    7   -4   13      0.18      0.00
    8   -4   13     -7.85      0.00
    9   -4   13      3.77      0.00
   10   -4   13     -0.44      0.00
   11   -4   13     -8.33      0.00
   12   -4   13     -0.76      0.00
   13   -4   13      1.69      0.00
   14   -4   13      0.42      0.00
   -9   -3   13      2.31      0.00
   -8   -3   13     -3.70      0.00
   -7   -3   13     -0.48      0.00
   -6   -3   13      1.72      0.00
   -5   -3   13     -1.39      0.00
   -4   -3   13      0.32      0.00
   -3   -3   13      0.25      0.00
   -2   -3   13      4.12      0.00
   -1   -3   13     -3.55      0.00
    0   -3   13      2.03      0.00
    1   -3   13     -6.56      0.00
    2   -3   13     -0.66      0.00
    3   -3   13      1.41      0.00
    4   -3   13      1.99      0.00
    5   -3   13      4.32      0.00
    6   -3   13     -4.68      0.00
    7   -3   13      1.35      0.00
    8   -3   13     -0.49      0.00
    9   -3   13      1.67      0.00
   10   -3   13      3.52      0.00
   11   -3   13     -6.01      0.00
   12   -3   13      3.46      0.00
   13   -3   13     -0.73      0.00
   14   -3   13     -2.91      0.00
   -9   -2   13      3.80      0.00
   -8   -2   13     -3.07      0.00
   -7   -2   13     -0.53      0.00
   -6   -2   13     -0.08      0.00
   -5   -2   13      1.03      0.00
   -4   -2   13     -1.99      0.00
   -3   -2   13      2.77      0.00
   -2   -2   13     -4.01      0.00
   -1   -2   13      5.28      0.00
    0   -2   13      1.11      0.00
    1   -2   13     -1.15      0.00
    2   -2   13     -7.13      0.00
    3   -2   13      4.58      0.00
    4   -2   13     -4.36      0.00
    5   -2   13     -2.83      0.00
    6   -2   13     -1.37      0.00
    7   -2   13      0.95      0.00
    8   -2   13     -5.42      0.00
    9   -2   13      4.14      0.00
   10   -2   13     -2.24      0.00
   11   -2   13      2.22      0.00
   12   -2   13     -1.38      0.00
   13   -2   13      3.75      0.00
   14   -2   13      4.05      0.00
   -9   -1   13      6.67      0.00
   -8   -1   13     -4.64      0.00
   -7   -1   13     -0.98      0.00
   -6   -1   13      0.83      0.00
   -5   -1   13     -1.92      0.00
   -4   -1   13     -0.68      0.00
   -3   -1   13     -1.32      0.00
   -2   -1   13      1.60      0.00
   -1   -1   13     -2.47      0.00
    0   -1   13      1.67      0.00
    1   -1   13     -0.45      0.00
    2   -1   13      8.54      0.00
    3   -1   13      1.26      0.00
    4   -1   13      3.75      0.00
    5   -1   13     -0.84      0.00
    6   -1   13     -3.42      0.00
    7   -1   13      6.45      0.00
    8   -1   13     -1.87      0.00
    9   -1   13      5.67      0.00
   10   -1   13     -2.16      0.00
   11   -1   13     -4.56      0.00
   12   -1   13      1.74      0.00
   13   -1   13      0.97      0.00
   14   -1   13     -0.90      0.00
   15   -1   13      2.25      0.00
   -9    0   13     -1.02      0.00
   -8    0   13     -3.68      0.00
   -7    0   13      3.84      0.00
   -6    0   13     -1.92      0.00
   -5    0   13      1.12      0.00
   -4    0   13     -0.80      0.00
   -3    0   13     -0.29      0.00
   -2    0   13      0.04      0.00
   -1    0   13      2.71      0.00
    0    0   13     -4.41      0.00
    1    0   13     -5.56      0.00
    2    0   13      1.45      0.00
    3    0   13      3.48      0.00
    4    0   13     -2.54      0.00
    5    0   13     -4.44      0.00
    6    0   13      3.80      0.00
    7    0   13      0.15      0.00
    8    0   13     -2.36      0.00
    9    0   13      5.69      0.00
   10    0   13     -4.26      0.00
   11    0   13      7.57      0.00
   12    0   13      1.86      0.00
   13    0   13     -4.17      0.00
   14    0   13     -4.86      0.00
   15    0   13     -1.40      0.00
   -9    1   13     -0.59      0.00
   -8    1   13     -4.08      0.00
   -7    1   13      2.44      0.00
   -6    1   13      2.25      0.00
   -5    1   13      5.63      0.00
   -4    1   13     -1.91      0.00
   -3    1   13     -2.68      0.00
   -2    1   13      3.62      0.00
   -1    1   13     -2.20      0.00
    0    1   13     -3.89      0.00
    1    1   13     -1.08      0.00
    2    1   13      6.36      0.00
    3    1   13     -9.23      0.00
    4    1   13     -2.58      0.00
    5    1   13     -0.28      0.00
    6    1   13     -0.52      0.00
    7    1   13     -0.05      0.00
    8    1   13      2.13      0.00
    9    1   13      1.21      0.00
   10    1   13     -2.40      0.00
   11    1   13     -1.25      0.00
   12    1   13     -7.31      0.00
   13    1   13     -1.48      0.00
   14    1   13      5.20      0.00
   15    1   13     -2.38      0.00
   -9    2   13      3.54      0.00
   -8    2   13      1.09      0.00
   -7    2   13     -3.62      0.00
   -6    2   13      5.16      0.00
   -5    2   13     -2.62      0.00
   -4    2   13     -2.87      0.00
   -3    2   13      0.96      0.00
   -2    2   13      2.79      0.00
   -1    2   13     -0.01      0.00
    0    2   13      1.92      0.00
    1    2   13      3.20      0.00
    2    2   13      1.68      0.00
    3    2   13      2.44      0.00
    4    2   13     -7.61      0.00
    5    2   13      5.31      0.00
    6    2   13      4.08      0.00
    7    2   13      1.51      0.00
    8    2   13     -2.40      0.00
    9    2   13     -5.69      0.00
   10    2   13      3.41      0.00
   11    2   13      5.10      0.00
   12    2   13     -0.23      0.00
   13    2   13      5.84      0.00
   14    2   13      2.83      0.00
   15    2   13      1.93      0.00
   -9    3   13     -2.63      0.00
   -8    3   13     -1.63      0.00
   -7    3   13      4.04      0.00
   -6    3   13     -1.75      0.00
   -5    3   13     -3.40      0.00
   -4    3   13     -0.12      0.00
   -3    3   13      0.31      0.00
   -2    3   13     -1.72      0.00
   -1    3   13     -3.29      0.00
    0    3   13     -1.56      0.00
    1    3   13      4.28      0.00
    2    3   13      4.62      0.00
    3    3   13     -6.41      0.00
    4    3   13      3.12      0.00
    5    3   13      2.81      0.00
    6    3   13     -3.93      0.00
    7    3   13     -1.88      0.00
    8    3   13      2.50      0.00
    9    3   13      4.55      0.00
   10    3   13      1.80      0.00
   11    3   13     -5.73      0.00
   12    3   13      0.86      0.00
   13    3   13     -0.57      0.00
   14    3   13     -0.08      0.00
   15    3   13     -1.61      0.00
   -8    4   13      3.29      0.00
   -7    4   13     -3.10      0.00
   -6    4   13      2.56      0.00
   -5    4   13     -5.83      0.00
   -4    4   13      0.83      0.00
   -3    4   13      3.37      0.00
   -2    4   13      7.00      0.00
   -1    4   13     -5.15      0.00
    0    4   13      0.35      0.00
    1    4   13     -2.37      0.00
    2    4   13     -1.02      0.00
    3    4   13      3.01      0.00
    4    4   13     -5.11      0.00
    5    4   13      0.96      0.00
    6    4   13      0.80      0.00
    7    4   13     -2.96      0.00
    8    4   13     -6.97      0.00
    9    4   13     -0.79      0.00
   10    4   13     -0.52      0.00
   11    4   13      2.07      0.00
   12    4   13      0.63      0.00
   13    4   13     -1.26      0.00
   14    4   13     -1.52      0.00
   15    4   13      5.07      0.00
   -8    5   13     -3.53      0.00
   -7    5   13     -2.69      0.00
   -6    5   13      2.68      0.00
   -5    5   13      1.04      0.00
   -4    5   13      1.14      0.00
   -3    5   13      0.07      0.00
   -2    5   13     -4.86      0.00
   -1    5   13     -0.21      0.00
    0    5   13      6.35      0.00
    1    5   13      7.45      0.00
    2    5   13     -3.92      0.00
    3    5   13     -7.12      0.00
    4    5   13      7.99      0.00
    5    5   13      2.19      0.00
    6    5   13     -2.75      0.00
    7    5   13     -1.08      0.00
    8    5   13      4.82      0.00
    9    5   13     -0.56      0.00
   10    5   13     -0.51      0.00
   11    5   13      2.00      0.00
   12    5   13     -2.91      0.00
   13    5   13      6.88      0.00
   14    5   13     -1.42      0.00
   15    5   13     -0.77      0.00
   -7    6   13     -0.69      0.00
   -6    6   13      0.73      0.00
   -5    6   13     -1.88      0.00
   -4    6   13      2.17      0.00
   -3    6   13      2.52      0.00
   -2    6   13     -1.63      0.00
   -1    6   13     -6.77      0.00
    0    6   13      2.80      0.00
    1    6   13     -5.60      0.00
    2    6   13     -4.33      0.00
    3    6   13      5.87      0.00
    4    6   13     -2.44      0.00
    5    6   13     -0.25      0.00
    6    6   13     -1.76      0.00
    7    6   13      1.64      0.00
    8    6   13     -1.85      0.00
    9    6   13      5.09      0.00
   10    6   13     -0.30      0.00
   11    6   13     -4.25      0.00
   12    6   13     -2.44      0.00
   13    6   13      4.23      0.00
   14    6   13     -2.31      0.00
   15    6   13      0.99      0.00
   -7    7   13      0.79      0.00
   -6    7   13      2.98      0.00
   -5    7   13     -1.39      0.00
   -4    7   13      0.82      0.00
   -3    7   13     -1.54      0.00
   -2    7   13      4.25      0.00
   -1    7   13      6.43      0.00
    0    7   13      3.34      0.00
    1    7   13     -0.69      0.00
    2    7   13     -1.64      0.00
    3    7   13      0.81      0.00
    4    7   13     -0.39      0.00
    5    7   13      0.70      0.00
    6    7   13     -2.66      0.00
    7    7   13      3.11      0.00
    8    7   13      2.61      0.00
    9    7   13     -5.79      0.00
   10    7   13      0.46      0.00
   11    7   13     -3.09      0.00
   12    7   13      5.83      0.00
   13    7   13      3.25      0.00
   14    7   13     -3.63      0.00
   15    7   13      2.68      0.00
   -6    8   13     -1.51      0.00
   -5    8   13     -1.28      0.00
   -4    8   13     -0.62      0.00
   -3    8   13     -1.62      0.00
   -2    8   13      1.49      0.00
   -1    8   13     -6.45      0.00
    0    8   13      2.52      0.00
    1    8   13     -2.85      0.00
    2    8   13      3.62      0.00
    3    8   13     -1.78      0.00
    4    8   13     -2.03      0.00
    5    8   13      2.31      0.00
    6    8   13     -0.55      0.00
    7    8   13      5.32      0.00
    8    8   13     -7.02      0.00
    9    8   13      0.07      0.00
   10    8   13     -3.54      0.00
   11    8   13      2.11      0.00
   12    8   13     -1.70      0.00
   13    8   13     -5.15      0.00
   14    8   13     -0.21      0.00
   15    8   13     -0.67      0.00
   -6    9   13      0.78      0.00
   -5    9   13      3.44      0.00
   -4    9   13     -0.73      0.00
   -3    9   13     -0.31      0.00
   -2    9   13     -1.16      0.00
   -1    9   13     -3.90      0.00
    0    9   13      2.25      0.00
    1    9   13     -5.47      0.00
    2    9   13      4.12      0.00
    3    9   13     -5.02      0.00
    4    9   13      3.30      0.00
    5    9   13      1.93      0.00
    6    9   13     -0.84      0.00
    7    9   13     -1.43      0.00
    8    9   13     -0.71      0.00
    9    9   13     -0.34      0.00
   10    9   13      1.53      0.00
   11    9   13     -2.09      0.00
   12    9   13      0.93      0.00
   13    9   13     -2.05      0.00
   14    9   13      0.13      0.00
   15    9   13     -5.40      0.00
   -5   10   13     -1.29      0.00
   -4   10   13     -7.41      0.00
   -3   10   13      3.23      0.00
   -2   10   13      2.07      0.00
   -1   10   13      1.85      0.00
    0   10   13      0.26      0.00
    1   10   13     -2.66      0.00
    2   10   13      2.65      0.00
    3   10   13     -2.38      0.00
    4   10   13      3.19      0.00
    5   10   13     -0.02      0.00
    6   10   13      0.37      0.00
    7   10   13     -3.35      0.00
    8   10   13     -2.89      0.00
    9   10   13      5.52      0.00
   10   10   13     -1.23      0.00
   11   10   13     -2.30      0.00
   12   10   13      3.01      0.00
   13   10   13      6.30      0.00
   14   10   13      5.51      0.00
   -3   11   13      6.11      0.00
   -2   11   13     -2.08      0.00
   -1   11   13      2.42      0.00
    0   11   13     -1.73      0.00
    1   11   13     -1.24      0.00
    2   11   13     -0.86      0.00
    3   11   13     -0.29      0.00
    4   11   13      0.94      0.00
    5   11   13      4.16      0.00
    6   11   13      1.07      0.00
    7   11   13     -1.80      0.00
    8   11   13      6.86      0.00
    9   11   13     -3.03      0.00
   10   11   13      0.00      0.00
   11   11   13      4.10      0.00
   12   11   13     -1.55      0.00
   13   11   13     -4.70      0.00
   14   11   13     -7.86      0.00
   -3   12   13      4.40      0.00
   -2   12   13     -3.13      0.00
   -1   12   13      1.69      0.00
    0   12   13     -3.74      0.00
    1   12   13      3.78      0.00
    2   12   13      1.31      0.00
    3   12   13      1.06      0.00
    4   12   13      0.54      0.00
    5   12   13     -5.72      0.00
    6   12   13     -4.39      0.00
    7   12   13     -5.73      0.00
    8   12   13      3.24      0.00
    9   12   13      1.69      0.00
   10   12   13      1.79      0.00
   11   12   13     -3.37      0.00
   12   12   13      3.45      0.00
   13   12   13     -0.26      0.00
   -2   13   13     -2.38      0.00
   -1   13   13     -1.81      0.00
    0   13   13     -1.81      0.00
    1   13   13      3.04      0.00
    2   13   13      2.47      0.00
    3   13   13      0.50      0.00
    4   13   13     -0.77      0.00
    5   13   13      2.03      0.00
    6   13   13      3.61      0.00
    7   13   13      1.06      0.00
    8   13   13      3.99      0.00
    9   13   13     -2.28      0.00
   10   13   13     -1.76      0.00
   11   13   13      1.08      0.00
   12   13   13     -5.59      0.00
    0   14   13     -0.61      0.00
    1   14   13      6.92      0.00
    2   14   13     -1.94      0.00
    3   14   13     -5.10      0.00
    4   14   13     -1.42      0.00
    5   14   13      0.73      0.00
    6   14   13     -5.80      0.00
    7   14   13      1.10      0.00
    8   14   13      5.60      0.00
    9   14   13     -1.50      0.00
   10   14   13     -1.03      0.00
   11   14   13     -0.75      0.00
    2   15   13     -6.90      0.00
    3   15   13      2.17      0.00
    4   15   13      0.12      0.00
    5   15   13     -0.69      0.00
    6   15   13     -6.36      0.00
    7   15   13      4.99      0.00
    8   15   13     -2.55      0.00
    9   15   13     -3.50      0.00
   10   15   13      1.22      0.00
   -1  -13   14      4.19      0.00
    0  -13   14      0.76      0.00
    1  -13   14     -1.41      0.00
    2  -13   14     -2.89      0.00
    3  -13   14      1.04      0.00
   -3  -12   14      1.78      0.00
   -2  -12   14     -2.28      0.00
   -1  -12   14      0.61      0.00
    0  -12   14      4.55      0.00
    1  -12   14      1.26      0.00
    2  -12   14     -3.06      0.00
    3  -12   14      0.02      0.00
    4  -12   14     -0.92      0.00
    5  -12   14      2.00      0.00
    6  -12   14     -1.62      0.00
   -5  -11   14     -2.21      0.00
   -4  -11   14      3.06      0.00
   -3  -11   14     -4.01      0.00
   -2  -11   14     -2.38      0.00
   -1  -11   14      2.39      0.00
    0  -11   14     -7.18      0.00
    1  -11   14      0.49      0.00
    2  -11   14      1.53      0.00
    3  -11   14      1.22      0.00
    4  -11   14      7.61      0.00
    5  -11   14     -2.16      0.00
    6  -11   14      3.56      0.00
    7  -11   14     -2.75      0.00
   -5  -10   14      0.43      0.00
   -4  -10   14     -3.67      0.00
   -3  -10   14     -2.44      0.00
   -2  -10   14      9.81      0.00
   -1  -10   14     -2.29      0.00
    0  -10   14      1.74      0.00
    1  -10   14      0.34      0.00
    2  -10   14     -0.23      0.00
    3  -10   14     -0.78      0.00
    4  -10   14      0.19      0.00
    5  -10   14     -1.92      0.00
    6  -10   14     -1.16      0.00
    7  -10   14     -5.53      0.00
    8  -10   14      3.42      0.00
    9  -10   14      8.52      0.00
   -6   -9   14      1.34      0.00
   -5   -9   14     -0.31      0.00
   -4   -9   14     -3.26      0.00
   -3   -9   14     -2.87      0.00
   -2   -9   14      3.18      0.00
   -1   -9   14     -1.58      0.00
    0   -9   14     -0.31      0.00
    1   -9   14     -3.27      0.00
    2   -9   14     -2.45      0.00
    3   -9   14      1.15      0.00
    4   -9   14     -0.80      0.00
    5   -9   14     -2.56      0.00
    6   -9   14      2.17      0.00
    7   -9   14     -1.92      0.00
    8   -9   14      4.82      0.00
    9   -9   14     -3.43      0.00
   10   -9   14     -1.16      0.00
   -6   -8   14      5.07      0.00
   -5   -8   14     -5.45      0.00
   -4   -8   14      2.20      0.00
   -3   -8   14      7.05      0.00
   -2   -8   14      1.53      0.00
   -1   -8   14     -5.56      0.00
    0   -8   14     -0.46      0.00
    1   -8   14     -0.58      0.00
    2   -8   14      5.23      0.00
    3   -8   14      2.11      0.00
    4   -8   14     -2.45      0.00
    5   -8   14      1.99      0.00
    6   -8   14     -3.17      0.00
    7   -8   14      0.81      0.00
    8   -8   14      3.73      0.00
    9   -8   14     -1.16      0.00
   10   -8   14     -2.89      0.00
   11   -8   14      1.14      0.00
   -7   -7   14      1.98      0.00
   -6   -7   14     -3.63      0.00
   -5   -7   14     -3.46      0.00
   -4   -7   14     -2.01      0.00
   -3   -7   14      0.78      0.00
   -2   -7   14      2.38      0.00
   -1   -7   14     -2.39      0.00
    0   -7   14      0.30      0.00
    1   -7   14      0.75      0.00
    2   -7   14      3.67      0.00
    3   -7   14     -5.29      0.00
    4   -7   14     -0.67      0.00
    5   -7   14      7.19      0.00
    6   -7   14     -3.62      0.00
    7   -7   14      3.21      0.00
    8   -7   14     -2.63      0.00
    9   -7   14      1.80      0.00
   10   -7   14      2.04      0.00
   11   -7   14     -2.76      0.00
   -8   -6   14      1.36      0.00
   -7   -6   14     10.76      0.00
   -6   -6   14     -4.21      0.00
   -5   -6   14      4.33      0.00
   -4   -6   14      2.67      0.00
   -3   -6   14     -0.10      0.00
   -2   -6   14     -3.49      0.00
   -1   -6   14      2.36      0.00
    0   -6   14     -0.29      0.00
    1   -6   14      0.17      0.00
    2   -6   14     -0.45      0.00
    3   -6   14     -3.07      0.00
    4   -6   14      0.40      0.00
    5   -6   14     -1.06      0.00
    6   -6   14     -0.75      0.00
    7   -6   14      3.21      0.00
    8   -6   14     -2.64      0.00
    9   -6   14     -1.11      0.00
   10   -6   14     -1.31      0.00
   11   -6   14      1.37      0.00
   12   -6   14      3.46      0.00
   -8   -5   14     -0.31      0.00
   -7   -5   14     -4.38      0.00
   -6   -5   14      1.95      0.00
   -5   -5   14     -1.75      0.00
   -4   -5   14     -0.04      0.00
   -3   -5   14      7.53      0.00
   -2   -5   14     -7.40      0.00
   -1   -5   14      1.18      0.00
    0   -5   14      7.71      0.00
    1   -5   14     -3.82      0.00
    2   -5   14     -2.81      0.00
    3   -5   14     -0.64      0.00
    4   -5   14      4.48      0.00
    5   -5   14     -1.24      0.00
    6   -5   14     -0.84      0.00
    7   -5   14      0.37      0.00
    8   -5   14     -3.56      0.00
    9   -5   14      6.12      0.00
   10   -5   14     -3.74      0.00
   11   -5   14     -5.74      0.00
   12   -5   14      0.49      0.00
   13   -5   14     -0.09      0.00
   -8   -4   14     -4.03      0.00
   -7   -4   14      3.80      0.00
   -6   -4   14     -6.50      0.00
   -5   -4   14     -6.77      0.00
   -4   -4   14      5.74      0.00
   -3   -4   14     -6.02      0.00
   -2   -4   14      4.29      0.00
   -1   -4   14      3.17      0.00
    0   -4   14     -1.38      0.00
    1   -4   14    -14.74      0.00
    2   -4   14      9.89      0.00
    3   -4   14      0.32      0.00
    4   -4   14      0.41      0.00
    5   -4   14     -2.33      0.00
    6   -4   14     -4.26      0.00
    7   -4   14      5.85      0.00
    8   -4   14     -0.04      0.00
    9   -4   14     -0.78      0.00
   10   -4   14      2.70      0.00
   11   -4   14      0.54      0.00
   12   -4   14      5.92      0.00
   13   -4   14      0.23      0.00
   -8   -3   14      0.48      0.00
   -7   -3   14     -3.43      0.00
   -6   -3   14     -0.66      0.00
   -5   -3   14      0.17      0.00
   -4   -3   14      4.66      0.00
   -3   -3   14     -0.72      0.00
   -2   -3   14     -0.53      0.00
   -1   -3   14      1.64      0.00
    0   -3   14     -1.05      0.00
    1   -3   14      1.45      0.00
    2   -3   14      7.12      0.00
    3   -3   14     -1.12      0.00
    4   -3   14     -3.20      0.00
    5   -3   14     -3.91      0.00
    6   -3   14      4.88      0.00
    7   -3   14     -0.72      0.00
    8   -3   14     -4.70      0.00
    9   -3   14      2.87      0.00
   10   -3   14     -4.64      0.00
   11   -3   14      2.32      0.00
   12   -3   14     -2.36      0.00
   13   -3   14      0.81      0.00
   14   -3   14      1.68      0.00
   -8   -2   14     -4.35      0.00
   -7   -2   14      2.30      0.00
   -6   -2   14      2.69      0.00
   -5   -2   14     -0.53      0.00
   -4   -2   14      1.79      0.00
   -3   -2   14     -7.41      0.00
   -2   -2   14      3.20      0.00
   -1   -2   14     -4.98      0.00
    0   -2   14     -0.46      0.00
    1   -2   14     -2.53      0.00
    2   -2   14      7.87      0.00
    3   -2   14     -2.75      0.00
    4   -2   14      2.29      0.00
    5   -2   14     -3.36      0.00
    6   -2   14      2.98      0.00
    7   -2   14      5.88      0.00
    8   -2   14     -0.42      0.00
    9   -2   14      1.37      0.00
   10   -2   14      4.21      0.00
   11   -2   14     -5.53      0.00
   12   -2   14      1.48      0.00
   13   -2   14     -1.23      0.00
   14   -2   14     -5.65      0.00
   -8   -1   14     -2.50      0.00
   -7   -1   14      4.76      0.00
   -6   -1   14     -0.24      0.00
   -5   -1   14      3.96      0.00
   -4   -1   14     -1.35      0.00
   -3   -1   14     -1.38      0.00
   -2   -1   14      6.06      0.00
   -1   -1   14     -0.63      0.00
    0   -1   14     -3.93      0.00
    1   -1   14      2.67      0.00
    2   -1   14     -3.70      0.00
    3   -1   14     -0.74      0.00
    4   -1   14     -6.73      0.00
    5   -1   14     -2.58      0.00
    6   -1   14      6.92      0.00
    7   -1   14     -5.07      0.00
    8   -1   14     -5.26      0.00
    9   -1   14      3.25      0.00
   10   -1   14     -3.25      0.00
   11   -1   14      4.63      0.00
   12   -1   14      1.35      0.00
   13   -1   14      0.92      0.00
   14   -1   14      0.15      0.00
   -8    0   14     -4.32      0.00
   -7    0   14      0.79      0.00
   -6    0   14     -0.65      0.00
   -5    0   14      1.96      0.00
   -4    0   14     -4.34      0.00
   -3    0   14      0.76      0.00
   -2    0   14      3.02      0.00
   -1    0   14     -5.02      0.00
    0    0   14      0.24      0.00
    1    0   14      7.79      0.00
    2    0   14      4.65      0.00
    3    0   14    -10.47      0.00
    4    0   14      2.35      0.00
    5    0   14      7.49      0.00
    6    0   14      0.59      0.00
    7    0   14      0.14      0.00
    8    0   14     -0.42      0.00
    9    0   14      0.37      0.00
   10    0   14      1.49      0.00
   11    0   14     -5.30      0.00
   12    0   14     -1.66      0.00
   13    0   14      1.92      0.00
   14    0   14      4.44      0.00
   -8    1   14      3.52      0.00
   -7    1   14      2.12      0.00
   -6    1   14     -3.27      0.00
   -5    1   14     -2.82      0.00
   -4    1   14     -5.46      0.00
   -3    1   14      5.04      0.00
   -2    1   14     -0.79      0.00
   -1    1   14     -1.23      0.00
    0    1   14      1.89      0.00
    1    1   14      5.80      0.00
    2    1   14     -4.77      0.00
    3    1   14      3.70      0.00
    4    1   14     -1.40      0.00
    5    1   14     -0.67      0.00
    6    1   14     -1.97      0.00
    7    1   14      1.17      0.00
    8    1   14     -5.99      0.00
    9    1   14     -1.76      0.00
   10    1   14      3.71      0.00
   11    1   14      3.19      0.00
   12    1   14      5.79      0.00
   13    1   14      0.71      0.00
   14    1   14     -2.68      0.00
   15    1   14     -0.37      0.00
   -8    2   14     -0.94      0.00
   -7    2   14      4.20      0.00
   -6    2   14     -4.75      0.00
   -5    2   14      2.86      0.00
   -4    2   14     -0.15      0.00
   -3    2   14      3.34      0.00
   -2    2   14     -1.89      0.00
   -1    2   14     -2.98      0.00
    0    2   14     -1.84      0.00
    1    2   14      1.75      0.00
    2    2   14      0.31      0.00
    3    2   14     -6.07      0.00
    4    2   14      9.30      0.00
    5    2   14      0.67      0.00
    6    2   14     -5.74      0.00
    7    2   14     -3.91      0.00
    8    2   14      0.42      0.00
    9    2   14      7.98      0.00
   10    2   14     -1.04      0.00
   11    2   14     -6.89      0.00
   12    2   14      1.83      0.00
   13    2   14     -6.13      0.00
   14    2   14     -0.68      0.00
   15    2   14     -4.90      0.00
   -8    3   14      3.87      0.00
   -7    3   14     -5.73      0.00
   -6    3   14      5.26      0.00
   -5    3   14      1.13      0.00
   -4    3   14     -1.11      0.00
   -3    3   14      1.32      0.00
   -2    3   14      1.47      0.00
   -1    3   14      0.73      0.00
    0    3   14      5.32      0.00
    1    3   14     -3.67      0.00
    2    3   14     -7.33      0.00
    3    3   14      5.82      0.00
    4    3   14     -5.40      0.00
    5    3   14     -2.54      0.00
    6    3   14      5.91      0.00
    7    3   14      1.23      0.00
    8    3   14     -3.61      0.00
    9    3   14     -2.84      0.00
   10    3   14     -3.26      0.00
   11    3   14      6.98      0.00
   12    3   14     -4.01      0.00
   13    3   14      1.97      0.00
   14    3   14      2.59      0.00
   15    3   14     -0.38      0.00
   -7    4   14     -1.43      0.00
   -6    4   14      0.88      0.00
   -5    4   14     -0.18      0.00
   -4    4   14      0.88      0.00
   -3    4   14      1.60      0.00
   -2    4   14     -6.34      0.00
   -1    4   14     -0.54      0.00
    0    4   14     -0.04      0.00
    1    4   14      2.57      0.00
    2    4   14      1.83      0.00
    3    4   14     -2.67      0.00
    4    4   14      2.90      0.00
    5    4   14      1.62      0.00
    6    4   14      0.19      0.00
    7    4   14     -2.26      0.00
    8    4   14      6.63      0.00
    9    4   14      1.80      0.00
   10    4   14     -0.28      0.00
   11    4   14      2.69      0.00
   12    4   14     -3.60      0.00
   13    4   14      4.97      0.00
   14    4   14      0.78      0.00
   15    4   14      0.89      0.00
   -7    5   14     -0.32      0.00
   -6    5   14      3.62      0.00
   -5    5   14     -7.06      0.00
   -4    5   14      0.83      0.00
   -3    5   14      0.91      0.00
   -2    5   14      4.35      0.00
   -1    5   14      0.15      0.00
    0    5   14      2.13      0.00
    1    5   14    -10.32      0.00
    2    5   14     -0.99      0.00
    3    5   14      8.61      0.00
    4    5   14     -8.42      0.00
    5    5   14      3.47      0.00
    6    5   14      1.19      0.00
    7    5   14     -1.23      0.00
    8    5   14     -5.66      0.00
    9    5   14      0.63      0.00
   10    5   14     -1.48      0.00
   11    5   14     -0.23      0.00
   12    5   14     -5.01      0.00
   13    5   14      0.27      0.00
   14    5   14     -6.45      0.00
   15    5   14      4.99      0.00
   -6    6   14      1.40      0.00
   -5    6   14     -4.40      0.00
   -4    6   14      3.79      0.00
   -3    6   14     -1.60      0.00
   -2    6   14     -0.72      0.00
   -1    6   14     -0.45      0.00
    0    6   14      1.91      0.00
    1    6   14      6.35      0.00
    2    6   14      2.92      0.00
    3    6   14     -6.27      0.00
    4    6   14     -0.45      0.00
    5    6   14      5.55      0.00
    6    6   14     -4.20      0.00
    7    6   14      3.46      0.00
    8    6   14     -2.35      0.00
    9    6   14     -4.30      0.00
   10    6   14      2.53      0.00
   11    6   14     -1.05      0.00
   12    6   14     -1.10      0.00
   13    6   14      6.51      0.00
   14    6   14      1.00      0.00
   15    6   14      2.60      0.00
   -6    7   14      1.04      0.00
   -5    7   14     -1.50      0.00
   -4    7   14      1.96      0.00
   -3    7   14     -1.11      0.00
   -2    7   14      1.70      0.00
   -1    7   14     -8.52      0.00
    0    7   14     -0.50      0.00
    1    7   14     -5.76      0.00
    2    7   14      2.29      0.00
    3    7   14      0.92      0.00
    4    7   14      3.10      0.00
    5    7   14      4.01      0.00
    6    7   14     -5.39      0.00
    7    7   14      2.44      0.00
    8    7   14     -5.58      0.00
    9    7   14      5.43      0.00
   10    7   14     -0.44      0.00
   11    7   14     -1.40      0.00
   12    7   14     -0.55      0.00
   13    7   14     -4.29      0.00
   14    7   14     -1.86      0.00
   15    7   14     -0.77      0.00
   -5    8   14     -3.40      0.00
   -4    8   14      2.46      0.00
   -3    8   14     -2.07      0.00
   -2    8   14      1.15      0.00
   -1    8   14      0.50      0.00
    0    8   14      6.43      0.00
    1    8   14     -3.43      0.00
    2    8   14     -0.38      0.00
    3    8   14     -4.24      0.00
    4    8   14      8.62      0.00
    5    8   14     -5.86      0.00
    6    8   14     -0.53      0.00
    7    8   14     -1.65      0.00
    8    8   14      2.74      0.00
    9    8   14      4.18      0.00
   10    8   14      3.85      0.00
   11    8   14     -8.11      0.00
   12    8   14      2.60      0.00
   13    8   14      7.22      0.00
   14    8   14     -0.75      0.00
   -5    9   14     -2.63      0.00
   -4    9   14      1.91      0.00
   -3    9   14      2.50      0.00
   -2    9   14      3.29      0.00
   -1    9   14     -1.97      0.00
    0    9   14     -1.30      0.00
    1    9   14      2.12      0.00
    2    9   14      4.92      0.00
    3    9   14     -5.04      0.00
    4    9   14      2.23      0.00
    5    9   14     -4.85      0.00
    6    9   14      0.68      0.00
    7    9   14      3.34      0.00
    8    9   14      0.31      0.00
    9    9   14      0.64      0.00
   10    9   14     -2.28      0.00
   11    9   14      1.29      0.00
   12    9   14      1.24      0.00
   13    9   14     -2.64      0.00
   14    9   14      0.13      0.00
   -4   10   14      4.23      0.00
   -3   10   14      1.76      0.00
   -2   10   14     -5.30      0.00
   -1   10   14     -0.66      0.00
    0   10   14      1.73      0.00
    1   10   14      0.07      0.00
    2   10   14      0.67      0.00
    3   10   14     -0.99      0.00
    4   10   14      0.54      0.00
    5   10   14     -2.98      0.00
    6   10   14      1.18      0.00
    7   10   14      1.51      0.00
    8   10   14      4.47      0.00
    9   10   14     -4.57      0.00
   10   10   14      1.59      0.00
   11   10   14      1.37      0.00
   12   10   14      1.01      0.00
   13   10   14     -7.13      0.00
   -3   11   14     -3.07      0.00
   -2   11   14     -4.62      0.00
   -1   11   14      2.00      0.00
    0   11   14     -2.15      0.00
    1   11   14      7.77      0.00
    2   11   14     -0.59      0.00
    3   11   14      0.09      0.00
    4   11   14     -1.06      0.00
    5   11   14     -4.39      0.00
    6   11   14     -0.89      0.00
    7   11   14     -1.94      0.00
    8   11   14     -1.97      0.00
    9   11   14     -0.93      0.00
   10   11   14      3.21      0.00
   11   11   14     -9.17      0.00
   12   11   14      1.74      0.00
   13   11   14      3.54      0.00
   -2   12   14     -3.03      0.00
   -1   12   14      3.87      0.00
    0   12   14      1.37      0.00
    1   12   14      0.66      0.00
    2   12   14     -6.90      0.00
    3   12   14     -0.91      0.00
    4   12   14     -3.48      0.00
    5   12   14      6.06      0.00
    6   12   14      6.84      0.00
    7   12   14     -0.29      0.00
    8   12   14      4.47      0.00
    9   12   14     -4.77      0.00
   10   12   14      4.13      0.00
   11   12   14      1.97      0.00
   12   12   14     -1.23      0.00
    0   13   14     -2.37      0.00
    1   13   14      1.86      0.00
    2   13   14     -4.57      0.00
    3   13   14      1.74      0.00
    4   13   14      3.96      0.00
    5   13   14     -0.57      0.00
    6   13   14     -6.46      0.00
    7   13   14     -1.64      0.00
    8   13   14     -0.77      0.00
    9   13   14     -1.77      0.00
   10   13   14      2.51      0.00
   11   13   14     -4.17      0.00
    1   14   14     -6.45      0.00
    2   14   14     -1.32      0.00
    3   14   14      5.25      0.00
    4   14   14      0.61      0.00
    5   14   14     -1.34      0.00
    6   14   14      0.64      0.00
    7   14   14      5.66      0.00
    8   14   14     -4.68      0.00
    9   14   14      2.61      0.00
   10   14   14      1.80      0.00
    5   15   14      2.12      0.00
    6   15   14     -0.40      0.00
    7   15   14      2.05      0.00
    0  -12   15     -4.42      0.00
    1  -12   15     -1.51      0.00
    2  -12   15      0.73      0.00
    3  -12   15      0.17      0.00
   -3  -11   15      0.99      0.00
   -2  -11   15      6.17      0.00
   -1  -11   15     -4.58      0.00
    0  -11   15      4.46      0.00
    1  -11   15     -0.92      0.00
    2  -11   15     -1.83      0.00
    3  -11   15      1.13      0.00
    4  -11   15     -2.13      0.00
    5  -11   15     -2.78      0.00
    6  -11   15      1.52      0.00
   -4  -10   15     -0.32      0.00
   -3  -10   15      4.37      0.00
   -2  -10   15     -6.19      0.00
   -1  -10   15     -2.62      0.00
    0  -10   15     -1.58      0.00
    1  -10   15      0.62      0.00
    2  -10   15     -0.80      0.00
    3  -10   15      1.78      0.00
    4  -10   15     -0.36      0.00
    5  -10   15     -0.62      0.00
    6  -10   15      3.49      0.00
    7  -10   15     -1.55      0.00
   -5   -9   15     -1.14      0.00
   -4   -9   15      2.93      0.00
   -3   -9   15      3.01      0.00
   -2   -9   15     -0.40      0.00
   -1   -9   15     -2.18      0.00
    0   -9   15      1.98      0.00
    1   -9   15      1.48      0.00
    2   -9   15      5.02      0.00
    3   -9   15     -2.02      0.00
    4   -9   15     -0.81      0.00
    5   -9   15      4.54      0.00
    6   -9   15     -0.45      0.00
    7   -9   15     -1.89      0.00
    8   -9   15     -0.62      0.00
    9   -9   15     -0.13      0.00
   -5   -8   15     -1.23      0.00
   -4   -8   15     -1.78      0.00
   -3   -8   15     -1.78      0.00
   -2   -8   15     -0.73      0.00
   -1   -8   15      6.23      0.00
    0   -8   15     -0.06      0.00
    1   -8   15     -0.53      0.00
    2   -8   15     -4.98      0.00
    3   -8   15     -5.49      0.00
    4   -8   15     -0.11      0.00
    5   -8   15      2.97      0.00
    6   -8   15     -3.38      0.00
    7   -8   15      3.30      0.00
    8   -8   15     -0.15      0.00
    9   -8   15      0.25      0.00
   10   -8   15     -0.89      0.00
   -6   -7   15     -1.60      0.00
   -5   -7   15      3.99      0.00
   -4   -7   15      3.74      0.00
   -3   -7   15      1.14      0.00
   -2   -7   15     -3.39      0.00
   -1   -7   15      3.66      0.00
    0   -7   15     -5.57      0.00
    1   -7   15      3.73      0.00
    2   -7   15     -3.67      0.00
    3   -7   15      3.46      0.00
    4   -7   15      0.41      0.00
    5   -7   15     -1.51      0.00
    6   -7   15     -1.90      0.00
    7   -7   15      2.07      0.00
    8   -7   15     -2.35      0.00
    9   -7   15     -0.08      0.00
   10   -7   15     -1.10      0.00
   -6   -6   15     -4.35      0.00
   -5   -6   15     -8.29      0.00
   -4   -6   15     -0.37      0.00
   -3   -6   15      3.10      0.00
   -2   -6   15     -3.46      0.00
   -1   -6   15      2.34      0.00
    0   -6   15     -2.63      0.00
    1   -6   15      1.91      0.00
    2   -6   15     -1.80      0.00
    3   -6   15      2.32      0.00
    4   -6   15      0.53      0.00
    5   -6   15      2.86      0.00
    6   -6   15     -1.54      0.00
    7   -6   15      1.62      0.00
    8   -6   15     -2.21      0.00
    9   -6   15      4.22      0.00
   10   -6   15      0.82      0.00
   11   -6   15     -0.83      0.00
   -7   -5   15      8.45      0.00
   -6   -5   15     -7.27      0.00
   -5   -5   15      6.20      0.00
   -4   -5   15      8.96      0.00
   -3   -5   15    -12.28      0.00
   -2   -5   15      6.27      0.00
   -1   -5   15      4.73      0.00
    0   -5   15     -5.42      0.00
    1   -5   15     -1.27      0.00
    2   -5   15      8.56      0.00
    3   -5   15     -4.82      0.00
    4   -5   15     -0.85      0.00
    5   -5   15     -2.01      0.00
    6   -5   15     -2.53      0.00
    7   -5   15      1.39      0.00
    8   -5   15     -4.03      0.00
    9   -5   15      1.34      0.00
   10   -5   15     -0.74      0.00
   11   -5   15      0.61      0.00
   12   -5   15      2.38      0.00
   -7   -4   15     -5.45      0.00
   -6   -4   15      2.48      0.00
   -5   -4   15      3.30      0.00
   -4   -4   15     -2.60      0.00
   -3   -4   15     -1.73      0.00
   -2   -4   15      2.62      0.00
   -1   -4   15     -2.08      0.00
    0   -4   15     -0.12      0.00
    1   -4   15      4.91      0.00
    2   -4   15      0.99      0.00
    3   -4   15     -6.85      0.00
    4   -4   15      4.34      0.00
    5   -4   15     -2.04      0.00
    6   -4   15      6.66      0.00
    7   -4   15     -1.27      0.00
    8   -4   15     -4.35      0.00
    9   -4   15      7.03      0.00
   10   -4   15     -4.89      0.00
   11   -4   15      0.22      0.00
   12   -4   15     -3.24      0.00
   -7   -3   15      2.01      0.00
   -6   -3   15      1.86      0.00
   -5   -3   15      0.81      0.00
   -4   -3   15      0.69      0.00
   -3   -3   15     -6.25      0.00
   -2   -3   15      5.82      0.00
   -1   -3   15     -8.00      0.00
    0   -3   15      5.71      0.00
    1   -3   15     -6.66      0.00
    2   -3   15      1.34      0.00
    3   -3   15      0.51      0.00
    4   -3   15      4.81      0.00
    5   -3   15     -5.95      0.00
    6   -3   15      1.74      0.00
    7   -3   15     -0.29      0.00
    8   -3   15      0.41      0.00
    9   -3   15      3.49      0.00
   10   -3   15      5.71      0.00
   11   -3   15     -4.87      0.00
   12   -3   15      3.84      0.00
   13   -3   15      1.78      0.00
   -7   -2   15     -6.67      0.00
   -6   -2   15      1.25      0.00
   -5   -2   15     -0.32      0.00
   -4   -2   15     -2.88      0.00
   -3   -2   15      1.33      0.00
   -2   -2   15      7.41      0.00
   -1   -2   15     -1.57      0.00
    0   -2   15      1.57      0.00
    1   -2   15      2.11      0.00
    2   -2   15     -2.25      0.00
    3   -2   15     -0.59      0.00
    4   -2   15     -4.57      0.00
    5   -2   15      2.24      0.00
    6   -2   15      6.48      0.00
    7   -2   15    -13.42      0.00
    8   -2   15      0.07      0.00
    9   -2   15      2.28      0.00
   10   -2   15     -8.45      0.00
   11   -2   15      2.31      0.00
   12   -2   15      1.21      0.00
   13   -2   15      1.38      0.00
   -7   -1   15     -2.32      0.00
   -6   -1   15      5.53      0.00
   -5   -1   15     -7.43      0.00
   -4   -1   15     -2.09      0.00
   -3   -1   15      3.50      0.00
   -2   -1   15     -3.68      0.00
   -1   -1   15     -6.53      0.00
    0   -1   15      3.82      0.00
    1   -1   15      2.00      0.00
    2   -1   15      3.22      0.00
    3   -1   15      1.29      0.00
    4   -1   15      0.86      0.00
    5   -1   15      0.63      0.00
    6   -1   15     -1.48      0.00
    7   -1   15      0.07      0.00
    8   -1   15      5.21      0.00
    9   -1   15      0.11      0.00
   10   -1   15      3.79      0.00
   11   -1   15     -5.07      0.00
   12   -1   15      0.61      0.00
   13   -1   15     -1.62      0.00
   14   -1   15     -1.69      0.00
   -7    0   15      3.80      0.00
   -6    0   15      3.20      0.00
   -5    0   15     -0.92      0.00
   -4    0   15     -1.42      0.00
   -3    0   15      3.53      0.00
   -2    0   15     -1.51      0.00
   -1    0   15      1.17      0.00
    0    0   15      0.37      0.00
    1    0   15      0.50      0.00
    2    0   15     -8.01      0.00
    3    0   15      9.30      0.00
    4    0   15     -2.18      0.00
    5    0   15     -6.05      0.00
    6    0   15     -2.60      0.00
    7    0   15     -0.74      0.00
    8    0   15     -2.53      0.00
    9    0   15      0.57      0.00
   10    0   15     -0.18      0.00
   11    0   15     -1.74      0.00
   12    0   15      6.03      0.00
   13    0   15     -1.93      0.00
   14    0   15     -1.24      0.00
   -7    1   15      3.85      0.00
   -6    1   15     -1.42      0.00
   -5    1   15      0.70      0.00
   -4    1   15      0.84      0.00
   -3    1   15      5.04      0.00
   -2    1   15     -2.42      0.00
   -1    1   15     -1.59      0.00
    0    1   15     -2.52      0.00
    1    1   15     -0.21      0.00
    2    1   15      1.07      0.00
    3    1   15     -4.70      0.00
    4    1   15      1.95      0.00
    5    1   15      3.94      0.00
    6    1   15      5.07      0.00
    7    1   15     -0.05      0.00
    8    1   15      0.88      0.00
    9    1   15      8.65      0.00
   10    1   15     -5.33      0.00
   11    1   15     -6.12      0.00
   12    1   15      0.71      0.00
   13    1   15     -1.55      0.00
   14    1   15      2.33      0.00
   -7    2   15     -1.68      0.00
   -6    2   15     -0.30      0.00
   -5    2   15      1.00      0.00
   -4    2   15     -3.99      0.00
   -3    2   15      2.56      0.00
   -2    2   15     -4.66      0.00
   -1    2   15      1.05      0.00
    0    2   15      3.87      0.00
    1    2   15     -0.60      0.00
    2    2   15     -0.43      0.00
    3    2   15      2.72      0.00
    4    2   15     -7.92      0.00
    5    2   15     -2.34      0.00
    6    2   15      5.98      0.00
    7    2   15      0.08      0.00
    8    2   15     -3.92      0.00
    9    2   15     -4.43      0.00
   10    2   15     -2.96      0.00
   11    2   15      9.72      0.00
   12    2   15     -3.75      0.00
   13    2   15      6.57      0.00
   14    2   15     -0.65      0.00
   -6    3   15     -4.95      0.00
   -5    3   15     -2.32      0.00
   -4    3   15      0.27      0.00
   -3    3   15      5.17      0.00
   -2    3   15     -3.55      0.00
   -1    3   15     -1.00      0.00
    0    3   15     -2.09      0.00
    1    3   15      1.80      0.00
    2    3   15      4.52      0.00
    3    3   15     -5.64      0.00
    4    3   15      4.19      0.00
    5    3   15      8.22      0.00
    6    3   15     -2.49      0.00
    7    3   15     -7.70      0.00
    8    3   15      6.11      0.00
    9    3   15      2.66      0.00
   10    3   15     -1.78      0.00
   11    3   15     -1.53      0.00
   12    3   15     -0.29      0.00
   13    3   15      2.14      0.00
   14    3   15     -4.76      0.00
   -6    4   15      4.26      0.00
   -5    4   15     -4.59      0.00
   -4    4   15      4.94      0.00
   -3    4   15     -2.19      0.00
   -2    4   15     -1.37      0.00
   -1    4   15      0.86      0.00
    0    4   15      8.44      0.00
    1    4   15     -5.47      0.00
    2    4   15     -0.89      0.00
    3    4   15      1.08      0.00
    4    4   15     -4.42      0.00
    5    4   15      4.03      0.00
    6    4   15     -2.12      0.00
    7    4   15     -3.11      0.00
    8    4   15     -2.16      0.00
    9    4   15     -2.99      0.00
   10    4   15      0.35      0.00
   11    4   15     -1.33      0.00
   12    4   15     -5.25      0.00
   13    4   15      4.76      0.00
   14    4   15     -4.21      0.00
   -6    5   15      0.78      0.00
   -5    5   15     -1.03      0.00
   -4    5   15      5.69      0.00
   -3    5   15     -3.43      0.00
   -2    5   15     -3.21      0.00
   -1    5   15     -0.56      0.00
    0    5   15     -1.60      0.00
    1    5   15      3.30      0.00
    2    5   15      3.30      0.00
    3    5   15     -6.25      0.00
    4    5   15      5.93      0.00
    5    5   15      3.39      0.00
    6    5   15     -6.82      0.00
    7    5   15      4.58      0.00
    8    5   15      4.02      0.00
    9    5   15     -1.06      0.00
   10    5   15      2.32      0.00
   11    5   15     -1.98      0.00
   12    5   15      0.93      0.00
   13    5   15      3.87      0.00
   14    5   15      3.20      0.00
   -5    6   15      0.02      0.00
   -4    6   15      1.13      0.00
   -3    6   15     -4.08      0.00
   -2    6   15      2.44      0.00
   -1    6   15      4.02      0.00
    0    6   15      3.03      0.00
    1    6   15    -12.19      0.00
    2    6   15     -2.77      0.00
    3    6   15      3.97      0.00
    4    6   15      2.00      0.00
    5    6   15     -0.94      0.00
    6    6   15     -1.42      0.00
    7    6   15      0.79      0.00
    8    6   15     -0.59      0.00
    9    6   15      6.68      0.00
   10    6   15     -1.78      0.00
   11    6   15     -4.51      0.00
   12    6   15      5.33      0.00
   13    6   15     -3.81      0.00
   14    6   15     -6.47      0.00
   -5    7   15     -2.79      0.00
   -4    7   15      2.87      0.00
   -3    7   15     -3.11      0.00
   -2    7   15      1.85      0.00
   -1    7   15      0.36      0.00
    0    7   15      3.98      0.00
    1    7   15      4.07      0.00
    2    7   15     -1.02      0.00
    3    7   15     -4.45      0.00
    4    7   15      0.18      0.00
    5    7   15     -7.84      0.00
    6    7   15      4.11      0.00
    7    7   15      1.34      0.00
    8    7   15      0.28      0.00
    9    7   15      0.83      0.00
   10    7   15      2.91      0.00
   11    7   15     -6.81      0.00
   12    7   15      1.12      0.00
   13    7   15      4.42      0.00
   14    7   15      1.08      0.00
   -4    8   15      0.97      0.00
   -3    8   15     -0.35      0.00
   -2    8   15      6.93      0.00
   -1    8   15     -3.57      0.00
    0    8   15     -5.55      0.00
    1    8   15      2.20      0.00
    2    8   15      3.34      0.00
    3    8   15      1.42      0.00
    4    8   15     -1.29      0.00
    5    8   15     -0.80      0.00
    6    8   15      2.98      0.00
    7    8   15      0.74      0.00
    8    8   15     -0.60      0.00
    9    8   15     -3.98      0.00
   10    8   15     -4.61      0.00
   11    8   15      3.23      0.00
   12    8   15      7.36      0.00
   13    8   15     -8.35      0.00
   14    8   15     -4.87      0.00
   -3    9   15     -3.93      0.00
   -2    9   15     -3.28      0.00
   -1    9   15     -2.28      0.00
    0    9   15      7.92      0.00
    1    9   15     -3.24      0.00
    2    9   15     -4.73      0.00
    3    9   15      2.19      0.00
    4    9   15      3.12      0.00
    5    9   15     -3.06      0.00
    6    9   15      3.95      0.00
    7    9   15     -6.49      0.00
    8    9   15     -1.39      0.00
    9    9   15      3.74      0.00
   10    9   15      2.69      0.00
   11    9   15     -4.36      0.00
   12    9   15      2.27      0.00
   13    9   15      1.20      0.00
   -2   10   15      1.47      0.00
   -1   10   15      1.17      0.00
    0   10   15     -5.02      0.00
    1   10   15      3.23      0.00
    2   10   15     -1.44      0.00
    3   10   15     -0.37      0.00
    4   10   15      1.00      0.00
    5   10   15      1.69      0.00
    6   10   15     -2.18      0.00
    7   10   15     -1.95      0.00
    8   10   15     -1.63      0.00
    9   10   15      2.91      0.00
   10   10   15     -0.25      0.00
   11   10   15     -2.59      0.00
   12   10   15      2.19      0.00
   13   10   15      0.61      0.00
   -1   11   15      3.52      0.00
    0   11   15      0.03      0.00
    1   11   15     -3.42      0.00
    2   11   15     -2.87      0.00
    3   11   15      5.30      0.00
    4   11   15     -4.34      0.00
    5   11   15      5.19      0.00
    6   11   15      0.23      0.00
    7   11   15     -0.60      0.00
    8   11   15      4.62      0.00
    9   11   15      0.31      0.00
   10   11   15      1.83      0.00
   11   11   15      4.23      0.00
   12   11   15      4.11      0.00
    0   12   15     -8.02      0.00
    1   12   15      4.43      0.00
    2   12   15      2.88      0.00
    3   12   15      5.28      0.00
    4   12   15      1.09      0.00
    5   12   15     -1.06      0.00
    6   12   15    -10.38      0.00
    7   12   15      2.44      0.00
    8   12   15     -0.90      0.00
    9   12   15     -0.48      0.00
   10   12   15     -0.76      0.00
   11   12   15     -7.97      0.00
    2   13   15      2.62      0.00
    3   13   15     -0.29      0.00
    4   13   15     -7.87      0.00
    5   13   15     -1.55      0.00
    6   13   15      5.01      0.00
    7   13   15      3.35      0.00
    8   13   15     -2.32      0.00
    9   13   15      3.71      0.00
   10   13   15     -1.78      0.00
    4   14   15      0.41      0.00
    5   14   15      4.37      0.00
    6   14   15      0.40      0.00
    7   14   15      0.19      0.00
    1  -11   16      1.40      0.00
    2  -11   16     -1.36      0.00
   -2  -10   16      4.75      0.00
   -1  -10   16      1.84      0.00
    0  -10   16      1.97      0.00
    1  -10   16     -0.85      0.00
    2  -10   16     -1.61      0.00
    4  -10   16     -1.18      0.00
    5  -10   16     -0.41      0.00
   -3   -9   16      1.17      0.00
   -2   -9   16     -0.56      0.00
   -1   -9   16      1.11      0.00
    0   -9   16     -3.34      0.00
    1   -9   16     -0.42      0.00
    2   -9   16     -3.08      0.00
    3   -9   16      1.84      0.00
    5   -9   16     -6.15      0.00
    6   -9   16     -1.60      0.00
    7   -9   16      2.73      0.00
   -4   -8   16      1.82      0.00
   -3   -8   16      2.78      0.00
   -2   -8   16     -1.05      0.00
   -1   -8   16     -3.62      0.00
    0   -8   16     -0.91      0.00
    1   -8   16      4.30      0.00
    2   -8   16     -0.71      0.00
    3   -8   16      4.98      0.00
    5   -8   16     -0.77      0.00
    6   -8   16      3.71      0.00
    7   -8   16     -1.16      0.00
    8   -8   16     -3.59      0.00
   -4   -7   16     -1.39      0.00
   -3   -7   16     -1.84      0.00
   -2   -7   16      1.53      0.00
   -1   -7   16      1.64      0.00
    0   -7   16      1.14      0.00
    1   -7   16      1.32      0.00
    2   -7   16     -0.90      0.00
    3   -7   16      0.32      0.00
    4   -7   16     -4.40      0.00
    5   -7   16      2.35      0.00
    6   -7   16      0.13      0.00
    7   -7   16      0.41      0.00
    8   -7   16      0.23      0.00
    9   -7   16      0.35      0.00
   -5   -6   16      9.14      0.00
   -4   -6   16      4.68      0.00
   -3   -6   16     -3.82      0.00
   -2   -6   16      7.08      0.00
   -1   -6   16      1.68      0.00
    0   -6   16     -4.70      0.00
    1   -6   16      2.59      0.00
    2   -6   16     -0.74      0.00
    3   -6   16      0.05      0.00
    4   -6   16     -2.15      0.00
    6   -6   16     -2.06      0.00
    7   -6   16     -2.33      0.00
    8   -6   16     -1.37      0.00
    9   -6   16      2.23      0.00
   10   -6   16     -2.51      0.00
   -5   -5   16     -3.79      0.00
   -4   -5   16     -9.08      0.00
   -3   -5   16      4.40      0.00
   -2   -5   16     -3.51      0.00
   -1   -5   16     -3.93      0.00
    0   -5   16     -0.25      0.00
    1   -5   16      4.12      0.00
    2   -5   16     -4.76      0.00
    3   -5   16      1.29      0.00
    4   -5   16      2.96      0.00
    5   -5   16     -0.27      0.00
    6   -5   16      2.95      0.00
    7   -5   16      3.17      0.00
    8   -5   16     -1.16      0.00
    9   -5   16      5.34      0.00
   10   -5   16     -2.78      0.00
   11   -5   16      2.07      0.00
   -6   -4   16     -4.65      0.00
   -5   -4   16      4.92      0.00
   -4   -4   16      2.95      0.00
   -3   -4   16      1.10      0.00
   -2   -4   16      2.29      0.00
   -1   -4   16     -5.36      0.00
    0   -4   16      2.91      0.00
    1   -4   16     -3.63      0.00
    2   -4   16      4.99      0.00
    3   -4   16      3.14      0.00
    4   -4   16     -2.32      0.00
    5   -4   16     -0.63      0.00
    7   -4   16     -2.63      0.00
    8   -4   16     -2.36      0.00
    9   -4   16      3.74      0.00
   10   -4   16     -3.24      0.00
   11   -4   16     -1.16      0.00
   -6   -3   16      2.35      0.00
   -5   -3   16     -1.77      0.00
   -4   -3   16     -5.06      0.00
   -3   -3   16      2.04      0.00
   -2   -3   16     -3.31      0.00
   -1   -3   16      3.51      0.00
    0   -3   16      0.85      0.00
    1   -3   16      0.64      0.00
    2   -3   16      4.20      0.00
    3   -3   16     -7.09      0.00
    4   -3   16     -4.32      0.00
    5   -3   16      3.79      0.00
    6   -3   16      1.43      0.00
    7   -3   16     -2.30      0.00
    8   -3   16      1.15      0.00
    9   -3   16      2.21      0.00
   10   -3   16    -12.57      0.00
   11   -3   16      4.65      0.00
   12   -3   16     -0.89      0.00
   -6   -2   16      9.04      0.00
   -5   -2   16     -7.61      0.00
   -4   -2   16      4.50      0.00
   -3   -2   16      3.78      0.00
   -2   -2   16     -8.06      0.00
   -1   -2   16     -3.85      0.00
    0   -2   16      3.39      0.00
    1   -2   16     -2.32      0.00
    2   -2   16      4.72      0.00
    3   -2   16      3.53      0.00
    4   -2   16      3.30      0.00
    5   -2   16     -4.26      0.00
    6   -2   16      0.27      0.00
    8   -2   16      2.87      0.00
    9   -2   16     -1.34      0.00
   10   -2   16      4.31      0.00
   11   -2   16      0.68      0.00
   12   -2   16      0.92      0.00
   -6   -1   16      0.76      0.00
   -5   -1   16     -1.79      0.00
   -4   -1   16      6.76      0.00
   -3   -1   16     -4.32      0.00
   -2   -1   16      0.39      0.00
   -1   -1   16      4.65      0.00
    0   -1   16      0.24      0.00
    1   -1   16     -2.75      0.00
    2   -1   16     -5.27      0.00
    3   -1   16     -0.85      0.00
    4   -1   16     -2.75      0.00
    5   -1   16     -0.37      0.00
    6   -1   16      8.03      0.00
    7   -1   16     -6.76      0.00
    8   -1   16     -0.37      0.00
    9   -1   16     -0.19      0.00
   10   -1   16     -3.96      0.00
   11   -1   16     -0.79      0.00
   12   -1   16      3.06      0.00
   13   -1   16     -0.28      0.00
   -6    0   16     -3.86      0.00
   -5    0   16     -5.71      0.00
   -4    0   16      3.42      0.00
   -3    0   16     -0.73      0.00
   -2    0   16     -3.44      0.00
   -1    0   16      0.92      0.00
    0    0   16      0.23      0.00
    1    0   16     -0.44      0.00
    2    0   16      3.81      0.00
    3    0   16     -4.07      0.00
    4    0   16     -1.67      0.00
    5    0   16      5.47      0.00
    6    0   16      8.50      0.00
    7    0   16     -5.98      0.00
    8    0   16      1.69      0.00
    9    0   16      2.22      0.00
   10    0   16     -4.40      0.00
   11    0   16      4.44      0.00
   12    0   16      1.94      0.00
   13    0   16     -2.48      0.00
   -6    1   16     -5.64      0.00
   -5    1   16      5.48      0.00
   -4    1   16     -2.10      0.00
   -3    1   16     -1.17      0.00
   -2    1   16     -3.56      0.00
   -1    1   16      3.42      0.00
    0    1   16      2.35      0.00
    1    1   16      0.69      0.00
    2    1   16      0.52      0.00
    3    1   16      1.20      0.00
    4    1   16     -0.47      0.00
    5    1   16     -1.55      0.00
    6    1   16     -2.82      0.00
    7    1   16     -5.75      0.00
    8    1   16      0.64      0.00
    9    1   16     -7.31      0.00
   10    1   16      0.61      0.00
   11    1   16      6.12      0.00
   12    1   16     -1.89      0.00
   13    1   16      0.78      0.00
   -6    2   16     -4.60      0.00
   -5    2   16      2.83      0.00
   -4    2   16     -2.57      0.00
   -3    2   16      5.70      0.00
   -2    2   16      0.42      0.00
   -1    2   16      3.67      0.00
    0    2   16     -2.97      0.00
    1    2   16     -1.09      0.00
    2    2   16     -1.38      0.00
    3    2   16     -3.81      0.00
    4    2   16      7.20      0.00
    5    2   16      5.70      0.00
    6    2   16     -4.48      0.00
    7    2   16     -2.35      0.00
    8    2   16      7.70      0.00
    9    2   16      3.71      0.00
   10    2   16      1.62      0.00
   11    2   16     -5.89      0.00
   12    2   16     -0.60      0.00
   13    2   16     -1.79      0.00
   -5    3   16      2.30      0.00
   -4    3   16      1.75      0.00
   -3    3   16     -3.32      0.00
   -2    3   16     -4.33      0.00
   -1    3   16      2.55      0.00
    0    3   16      2.79      0.00
    1    3   16     -5.79      0.00
    2    3   16      1.97      0.00
    3    3   16      0.38      0.00
    4    3   16     -0.85      0.00
    5    3   16     -2.57      0.00
    6    3   16     -2.32      0.00
    7    3   16      5.19      0.00
    8    3   16     -4.44      0.00
    9    3   16     -7.29      0.00
   10    3   16      6.73      0.00
   11    3   16     -0.87      0.00
   12    3   16     -4.33      0.00
   13    3   16      3.99      0.00
   -5    4   16      1.34      0.00
   -4    4   16     -1.21      0.00
   -3    4   16     -2.19      0.00
   -2    4   16      4.62      0.00
   -1    4   16      3.98      0.00
    0    4   16     -8.38      0.00
    1    4   16     -0.99      0.00
    2    4   16      2.51      0.00
    3    4   16     -3.55      0.00
    4    4   16      2.64      0.00
    5    4   16      2.20      0.00
    6    4   16     -2.11      0.00
    7    4   16      5.56      0.00
    8    4   16      4.55      0.00
    9    4   16      1.46      0.00
   10    4   16      4.13      0.00
   11    4   16     -5.60      0.00
   12    4   16      5.63      0.00
   13    4   16     -3.73      0.00
   -5    5   16     -2.44      0.00
   -4    5   16     -0.30      0.00
   -3    5   16      0.86      0.00
   -2    5   16      1.33      0.00
   -1    5   16      2.36      0.00
    0    5   16      1.66      0.00
    1    5   16     -4.75      0.00
    2    5   16      0.79      0.00
    3    5   16      0.57      0.00
    4    5   16     -2.97      0.00
    5    5   16     -1.83      0.00
    6    5   16      2.08      0.00
    7    5   16     -5.24      0.00
    8    5   16     -3.86      0.00
    9    5   16      2.71      0.00
   10    5   16      1.77      0.00
   11    5   16     -7.73      0.00
   12    5   16      4.11      0.00
   13    5   16     -0.58      0.00
   -4    6   16      0.38      0.00
   -3    6   16      1.80      0.00
   -2    6   16      0.54      0.00
   -1    6   16     -4.29      0.00
    0    6   16     -5.43      0.00
    1    6   16     10.34      0.00
    2    6   16      6.72      0.00
    3    6   16     -4.64      0.00
    4    6   16     -1.34      0.00
    5    6   16     -0.44      0.00
    6    6   16     -0.34      0.00
    7    6   16      0.10      0.00
    8    6   16      0.22      0.00
    9    6   16      1.39      0.00
   10    6   16     -0.32      0.00
   12    6   16      0.97      0.00
   13    6   16     -0.79      0.00
   -3    7   16      1.62      0.00
   -2    7   16      0.76      0.00
   -1    7   16     -1.11      0.00
    0    7   16     -2.07      0.00
    1    7   16     -1.45      0.00
    2    7   16     -0.96      0.00
    3    7   16      4.09      0.00
    4    7   16      1.91      0.00
    5    7   16      4.46      0.00
    6    7   16     -1.28      0.00
    7    7   16     -5.19      0.00
    8    7   16      3.45      0.00
    9    7   16      1.27      0.00
   10    7   16     -7.25      0.00
   12    7   16     10.02      0.00
   13    7   16     -4.70      0.00
   -3    8   16     -1.36      0.00
   -2    8   16     -6.04      0.00
   -1    8   16     -5.56      0.00
    0    8   16      9.92      0.00
    1    8   16     -1.06      0.00
    2    8   16     -5.20      0.00
    3    8   16     -0.59      0.00
    4    8   16      0.36      0.00
    5    8   16     -2.52      0.00
    6    8   16     -0.27      0.00
    7    8   16     -5.56      0.00
    8    8   16      2.77      0.00
    9    8   16      5.58      0.00
   10    8   16      2.71      0.00
   11    8   16     -1.31      0.00
   13    8   16      1.89      0.00
   -2    9   16      2.27      0.00
   -1    9   16      0.84      0.00
    0    9   16     -4.17      0.00
    1    9   16      4.13      0.00
    2    9   16      1.88      0.00
    3    9   16     -0.34      0.00
    4    9   16      0.30      0.00
    5    9   16     -0.19      0.00
    6    9   16     -3.33      0.00
    7    9   16      4.41      0.00
    8    9   16      6.53      0.00
    9    9   16     -4.06      0.00
   10    9   16     -5.95      0.00
   11    9   16      4.24      0.00
   -1   10   16      1.25      0.00
    0   10   16      6.10      0.00
    1   10   16     -2.20      0.00
    2   10   16      1.10      0.00
    3   10   16      3.25      0.00
    4   10   16     -2.71      0.00
    5   10   16     -1.09      0.00
    6   10   16      0.40      0.00
    7   10   16      1.10      0.00
    8   10   16     -0.79      0.00
    9   10   16     -1.98      0.00
   10   10   16      0.40      0.00
   11   10   16      1.56      0.00
   12   10   16      2.04      0.00
    0   11   16     -4.05      0.00
    1   11   16      5.26      0.00
    2   11   16     -0.81      0.00
    3   11   16     -3.63      0.00
    4   11   16      2.71      0.00
    5   11   16      0.87      0.00
    6   11   16     -6.44      0.00
    7   11   16      8.30      0.00
    8   11   16     -6.75      0.00
    9   11   16     -0.70      0.00
   10   11   16     -1.87      0.00
   11   11   16     -5.66      0.00
    2   12   16     -4.51      0.00
    3   12   16      0.03      0.00
    4   12   16     -5.07      0.00
    5   12   16      3.23      0.00
    6   12   16      6.50      0.00
    7   12   16      1.00      0.00
    8   12   16     -5.58      0.00
    9   12   16      5.38      0.00
    5   13   16      6.24      0.00
    6   13   16     -3.55      0.00
    7   13   16      0.01      0.00
    0   -9   17      5.36      0.00
    1   -9   17      1.23      0.00
    2   -9   17      0.45      0.00
    3   -9   17     -2.54      0.00
   -2   -8   17      1.27      0.00
   -1   -8   17      3.09      0.00
    0   -8   17     -1.25      0.00
    1   -8   17     -5.29      0.00
    2   -8   17      3.93      0.00
    3   -8   17     -1.50      0.00
   -3   -7   17      1.85      0.00
   -2   -7   17     -1.13      0.00
   -1   -7   17     -1.03      0.00
    0   -7   17     -1.60      0.00
    1   -7   17      3.69      0.00
    2   -7   17     -3.31      0.00
    3   -7   17      1.46      0.00
    4   -7   17     -0.25      0.00
    7   -7   17     -3.75      0.00
    8   -7   17      0.11      0.00
   -3   -6   17     -1.84      0.00
   -2   -6   17     -7.33      0.00
   -1   -6   17     -1.03      0.00
    0   -6   17     -1.48      0.00
    1   -6   17      4.83      0.00
    2   -6   17     -1.20      0.00
    3   -6   17      2.99      0.00
    4   -6   17     -1.99      0.00
    7   -6   17      2.79      0.00
    8   -6   17      0.27      0.00
    9   -6   17     -0.50      0.00
   -4   -5   17      2.42      0.00
   -3   -5   17      0.73      0.00
   -2   -5   17      4.09      0.00
   -1   -5   17      2.64      0.00
    0   -5   17     -1.43      0.00
    1   -5   17      1.35      0.00
    2   -5   17      0.78      0.00
    3   -5   17      1.51      0.00
    4   -5   17     -3.66      0.00
    5   -5   17      4.59      0.00
    8   -5   17     -1.83      0.00
    9   -5   17      3.60      0.00
   10   -5   17     -5.17      0.00
   -4   -4   17     -7.61      0.00
   -3   -4   17     -0.01      0.00
   -2   -4   17     -8.27      0.00
   -1   -4   17      7.32      0.00
    0   -4   17     -2.93      0.00
    1   -4   17      3.23      0.00
    2   -4   17     -1.45      0.00
    3   -4   17     -6.35      0.00
    4   -4   17      2.66      0.00
    5   -4   17      0.92      0.00
    8   -4   17     -1.54      0.00
    9   -4   17      4.99      0.00
   10   -4   17     -7.42      0.00
   -4   -3   17      3.08      0.00
   -3   -3   17      4.10      0.00
   -2   -3   17     -1.29      0.00
   -1   -3   17     -1.23      0.00
    0   -3   17     -2.73      0.00
    1   -3   17     -0.36      0.00
    2   -3   17      0.17      0.00
    3   -3   17      4.89      0.00
    4   -3   17      5.44      0.00
    5   -3   17     -2.84      0.00
    6   -3   17      2.53      0.00
    9   -3   17      4.04      0.00
   10   -3   17     -0.50      0.00
   11   -3   17      3.33      0.00
   -4   -2   17      2.09      0.00
   -3   -2   17     -8.97      0.00
   -2   -2   17      2.02      0.00
   -1   -2   17      7.29      0.00
    0   -2   17     -1.37      0.00
    1   -2   17     -3.54      0.00
    2   -2   17     -1.62      0.00
    3   -2   17     -6.01      0.00
    4   -2   17     -4.44      0.00
    5   -2   17      1.33      0.00
    6   -2   17      5.78      0.00
    9   -2   17      1.91      0.00
   10   -2   17     -8.25      0.00
   11   -2   17      3.82      0.00
   -4   -1   17      0.13      0.00
   -3   -1   17      0.30      0.00
   -2   -1   17      0.10      0.00
   -1   -1   17     -0.80      0.00
    0   -1   17      0.36      0.00
    1   -1   17     -0.42      0.00
    2   -1   17      9.49      0.00
    3   -1   17      0.11      0.00
    4   -1   17      1.17      0.00
    5   -1   17      2.19      0.00
    6   -1   17      1.71      0.00
    7   -1   17     -6.83      0.00
   10   -1   17     -4.60      0.00
   11   -1   17      8.83      0.00
   12   -1   17     -3.33      0.00
   -4    0   17      1.15      0.00
   -3    0   17     -0.85      0.00
   -2    0   17      4.20      0.00
   -1    0   17     -0.43      0.00
    0    0   17     -2.91      0.00
    1    0   17     -2.75      0.00
    2    0   17      1.32      0.00
    3    0   17     -2.12      0.00
    4    0   17      0.93      0.00
    5    0   17     -2.08      0.00
    6    0   17     -3.04      0.00
    7    0   17     -4.59      0.00
   10    0   17      7.96      0.00
   11    0   17     -4.11      0.00
   12    0   17     -6.09      0.00
   -4    1   17     -3.37      0.00
   -3    1   17      3.63      0.00
   -2    1   17     -0.70      0.00
   -1    1   17      3.99      0.00
    0    1   17     -4.18      0.00
    1    1   17     -0.29      0.00
    2    1   17     -2.02      0.00
    3    1   17     -2.77      0.00
    4    1   17      2.70      0.00
    5    1   17      3.45      0.00
    6    1   17      2.15      0.00
    7    1   17      3.14      0.00
    8    1   17      3.25      0.00
   11    1   17     -7.02      0.00
   12    1   17      4.69      0.00
   -4    2   17     -0.38      0.00
   -3    2   17     -1.27      0.00
   -2    2   17     -5.51      0.00
   -1    2   17      0.58      0.00
    0    2   17     -4.17      0.00
    1    2   17      3.08      0.00
    2    2   17      4.05      0.00
    3    2   17     -2.74      0.00
    4    2   17     -1.99      0.00
    5    2   17     -2.38      0.00
    6    2   17     -0.54      0.00
    7    2   17      5.31      0.00
    8    2   17     -8.91      0.00
   11    2   17     -5.72      0.00
   12    2   17      4.95      0.00
   -4    3   17     -6.94      0.00
   -3    3   17      4.48      0.00
   -2    3   17      6.32      0.00
   -1    3   17      1.81      0.00
    0    3   17     -5.90      0.00
    1    3   17      8.12      0.00
    2    3   17     -4.14      0.00
    3    3   17     -1.77      0.00
    4    3   17      0.42      0.00
    5    3   17      3.37      0.00
    6    3   17     -2.94      0.00
    7    3   17     -0.26      0.00
    8    3   17      0.50      0.00
    9    3   17     11.76      0.00
   12    3   17      9.61      0.00
   -4    4   17     -0.11      0.00
   -3    4   17      4.27      0.00
   -2    4   17     -6.34      0.00
   -1    4   17     -3.87      0.00
    0    4   17      4.37      0.00
    1    4   17      3.65      0.00
    2    4   17     -0.53      0.00
    3    4   17     -0.06      0.00
    4    4   17      0.02      0.00
    5    4   17     -0.51      0.00
    6    4   17     -2.14      0.00
    7    4   17     -2.85      0.00
    8    4   17     -6.32      0.00
    9    4   17      2.44      0.00
   12    4   17      3.43      0.00
   -3    5   17     -1.38      0.00
   -2    5   17     -2.17      0.00
   -1    5   17      0.55      0.00
    0    5   17     -3.39      0.00
    1    5   17      6.25      0.00
    2    5   17      1.06      0.00
    3    5   17     -2.79      0.00
    4    5   17      1.93      0.00
    5    5   17      3.85      0.00
    6    5   17     -4.42      0.00
    7    5   17      2.81      0.00
    8    5   17      5.99      0.00
    9    5   17      4.23      0.00
   -3    6   17      0.43      0.00
   -2    6   17     -3.70      0.00
   -1    6   17      4.47      0.00
    0    6   17      4.14      0.00
    1    6   17     -5.71      0.00
    2    6   17     -7.90      0.00
    3    6   17     -0.01      0.00
    4    6   17      5.18      0.00
    5    6   17      0.72      0.00
    6    6   17     -0.68      0.00
    7    6   17     -4.39      0.00
    8    6   17      4.58      0.00
    9    6   17     -2.34      0.00
   10    6   17     -6.38      0.00
   -2    7   17     -2.99      0.00
   -1    7   17     -0.81      0.00
    0    7   17      4.63      0.00
    1    7   17     -0.49      0.00
    2    7   17      1.55      0.00
    3    7   17     -1.03      0.00
    4    7   17     -0.54      0.00
    5    7   17     -4.89      0.00
    6    7   17     -3.46      0.00
    7    7   17      2.91      0.00
    8    7   17      1.79      0.00
    9    7   17     -0.88      0.00
   10    7   17      1.81      0.00
   -1    8   17      4.43      0.00
    0    8   17     -2.30      0.00
    1    8   17     -0.67      0.00
    2    8   17      1.86      0.00
    3    8   17      3.57      0.00
    4    8   17      3.13      0.00
    5    8   17     -0.86      0.00
    6    8   17      0.41      0.00
    7    8   17      2.80      0.00
    8    8   17      1.78      0.00
    9    8   17     -6.64      0.00
   10    8   17     -5.30      0.00
   11    8   17      2.31      0.00
    0    9   17      6.02      0.00
    1    9   17     -7.77      0.00
    2    9   17     -0.61      0.00
    3    9   17      3.82      0.00
    4    9   17     -1.10      0.00
    5    9   17     -2.16      0.00
    6    9   17      5.10      0.00
    7    9   17     -4.40      0.00
    8    9   17     -5.81      0.00
    9    9   17     -0.72      0.00
   10    9   17      4.46      0.00
   11    9   17      0.89      0.00
    1   10   17     -0.56      0.00
    2   10   17     -1.64      0.00
    3   10   17     -1.08      0.00
    4   10   17      3.62      0.00
    5   10   17     -1.30      0.00
    6   10   17     -0.43      0.00
    7   10   17      5.04      0.00
    8   10   17     -1.66      0.00
    9   10   17      5.74      0.00
   10   10   17     -3.80      0.00
    3   11   17      5.93      0.00
    4   11   17     -4.87      0.00
    5   11   17      1.08      0.00
    6   11   17      4.87      0.00
    7   11   17     -4.44      0.00
    8   11   17     -1.58      0.00
    9   11   17      6.37      0.00
    0   -7   18     -2.51      0.00
    1   -7   18     -1.27      0.00
    2   -7   18      2.10      0.00
    3   -7   18      2.21      0.00
   -1   -6   18     -1.06      0.00
    0   -6   18      1.99      0.00
    1   -6   18      1.29      0.00
    2   -6   18     -3.18      0.00
    3   -6   18     -0.04      0.00
    4   -6   18     -1.04      0.00
   -2   -5   18     -6.56      0.00
   -1   -5   18     -0.63      0.00
    0   -5   18     -3.14      0.00
    1   -5   18      2.56      0.00
    2   -5   18     -1.55      0.00
    3   -5   18     -2.39      0.00
    4   -5   18      2.63      0.00
   -2   -4   18      3.00      0.00
   -1   -4   18     -3.05      0.00
    0   -4   18     -0.74      0.00
    1   -4   18      1.16      0.00
    2   -4   18     -1.86      0.00
    3   -4   18      3.92      0.00
    4   -4   18      2.84      0.00
    5   -4   18     -1.28      0.00
   -2   -3   18     -2.67      0.00
   -1   -3   18      5.34      0.00
    0   -3   18      0.50      0.00
    1   -3   18      0.61      0.00
    2   -3   18     -0.09      0.00
    3   -3   18     -5.12      0.00
    4   -3   18     -4.37      0.00
    5   -3   18      0.72      0.00
   -3   -2   18      6.51      0.00
   -2   -2   18     -0.38      0.00
   -1   -2   18     -2.60      0.00
    0   -2   18     -1.56      0.00
    1   -2   18      0.63      0.00
    2   -2   18      5.42      0.00
    3   -2   18      0.64      0.00
    4   -2   18      3.97      0.00
    5   -2   18      2.41      0.00
    6   -2   18     -0.80      0.00
   -2   -1   18      2.94      0.00
   -1   -1   18      3.07      0.00
    0   -1   18     -2.56      0.00
    1   -1   18     -4.97      0.00
    2   -1   18     -2.71      0.00
    3   -1   18     -5.65      0.00
    4   -1   18      0.01      0.00
    5   -1   18     -0.05      0.00
    6   -1   18      0.16      0.00
   -3    0   18     -2.66      0.00
   -2    0   18     -2.26      0.00
   -1    0   18      3.13      0.00
    0    0   18     -0.32      0.00
    1    0   18      3.78      0.00
    2    0   18      2.76      0.00
    3    0   18     -2.75      0.00
    4    0   18      2.30      0.00
    5    0   18      2.45      0.00
    6    0   18      2.18      0.00
    7    0   18      1.57      0.00
   -3    1   18     -0.63      0.00
   -2    1   18      4.93      0.00
   -1    1   18     -3.84      0.00
    0    1   18     -5.48      0.00
    1    1   18      5.19      0.00
    2    1   18      0.97      0.00
    3    1   18     -1.98      0.00
    4    1   18     -0.51      0.00
    5    1   18     -3.01      0.00
    6    1   18     -3.46      0.00
    7    1   18     -2.99      0.00
   -2    2   18      4.53      0.00
   -1    2   18     -0.86      0.00
    0    2   18      2.44      0.00
    1    2   18      6.09      0.00
    2    2   18    -10.07      0.00
    3    2   18      4.83      0.00
    4    2   18      1.03      0.00
    5    2   18      1.40      0.00
    6    2   18      0.93      0.00
    7    2   18     -1.45      0.00
    8    2   18      0.91      0.00
   -2    3   18    -10.07      0.00
   -1    3   18     -3.96      0.00
    0    3   18      6.15      0.00
    1    3   18     -3.78      0.00
    2    3   18      0.12      0.00
    3    3   18      2.13      0.00
    4    3   18     -0.04      0.00
    5    3   18     -1.32      0.00
    6    3   18     -1.46      0.00
    7    3   18      2.45      0.00
    8    3   18     -5.21      0.00
   -2    4   18      2.48      0.00
   -1    4   18      4.02      0.00
    0    4   18     -1.18      0.00
    1    4   18     -3.68      0.00
    2    4   18      0.30      0.00
    3    4   18      0.70      0.00
    4    4   18     -1.06      0.00
    5    4   18      4.67      0.00
    6    4   18     -1.98      0.00
    7    4   18     -0.73      0.00
    8    4   18      4.11      0.00
    9    4   18      5.31      0.00
   -1    5   18      1.32      0.00
    0    5   18      2.27      0.00
    1    5   18     -5.83      0.00
    2    5   18      1.07      0.00
    3    5   18     -0.52      0.00
    4    5   18      1.92      0.00
    5    5   18     -3.53      0.00
    6    5   18     -1.56      0.00
    7    5   18     -2.69      0.00
    8    5   18      2.36      0.00
    9    5   18     -5.45      0.00
   -1    6   18     -0.32      0.00
    0    6   18     -3.96      0.00
    1    6   18      2.02      0.00
    2    6   18     11.15      0.00
    3    6   18     -0.33      0.00
    4    6   18     -0.44      0.00
    5    6   18     -1.61      0.00
    6    6   18     -4.61      0.00
    7    6   18      3.35      0.00
    8    6   18      0.39      0.00
    9    6   18     -1.12      0.00
   10    6   18      3.18      0.00
    0    7   18     -2.73      0.00
    1    7   18     -0.77      0.00
    2    7   18      0.96      0.00
    3    7   18     -2.78      0.00
    4    7   18      3.06      0.00
    5    7   18      2.53      0.00
    6    7   18      4.65      0.00
    7    7   18     -1.16      0.00
    8    7   18      1.61      0.00
    9    7   18     -4.61      0.00
   10    7   18     -3.55      0.00
    1    8   18     -4.63      0.00
    2    8   18      0.87      0.00
    3    8   18      0.55      0.00
    4    8   18     -3.60      0.00
    5    8   18     -0.66      0.00
    6    8   18      0.70      0.00
    7    8   18     -0.95      0.00
    8    8   18      1.25      0.00
    9    8   18     -0.52      0.00
   10    8   18      3.10      0.00
    3    9   18     -0.75      0.00
    4    9   18     -1.67      0.00
    5    9   18      2.31      0.00
    6    9   18     -1.25      0.00
    7    9   18      2.76      0.00
    8    9   18      3.94      0.00
    9    9   18      2.31      0.00
    5   10   18      4.75      0.00
    6   10   18      2.94      0.00
    7   10   18     -4.73      0.00
    2   -5   19     -0.94      0.00
    3   -5   19      0.39      0.00
    4   -5   19      2.92      0.00
    1   -4   19     -0.25      0.00
    2   -4   19     -1.27      0.00
    3   -4   19     -2.13      0.00
    4   -4   19     -2.68      0.00
    5   -4   19     -1.80      0.00
    0   -3   19     -2.26      0.00
    1   -3   19     -1.05      0.00
    2   -3   19     -1.32      0.00
    3   -3   19      2.52      0.00
    4   -3   19      3.50      0.00
    5   -3   19      1.94      0.00
    0   -2   19     -2.00      0.00
    1   -2   19     -0.02      0.00
    2   -2   19     -1.11      0.00
    3   -2   19     -1.07      0.00
    4   -2   19     -4.57      0.00
    5   -2   19      1.14      0.00
    6   -2   19     -2.28      0.00
   -1   -1   19     -3.60      0.00
    0   -1   19     -2.42      0.00
    1   -1   19      4.88      0.00
    2   -1   19      6.39      0.00
    3   -1   19     -2.58      0.00
    4   -1   19      0.77      0.00
    5   -1   19      2.66      0.00
    6   -1   19     -3.14      0.00
   -1    0   19     -5.36      0.00
    0    0   19     -0.01      0.00
    1    0   19     -0.55      0.00
    2    0   19     -1.91      0.00
    3    0   19     -4.07      0.00
    4    0   19      1.23      0.00
    5    0   19      0.07      0.00
    6    0   19     -2.16      0.00
    7    0   19     -2.41      0.00
    0    1   19      8.21      0.00
    1    1   19     -0.40      0.00
    2    1   19     -1.45      0.00
    3    1   19      2.18      0.00
    4    1   19      2.31      0.00
    5    1   19      0.12      0.00
    6    1   19      3.59      0.00
    7    1   19      0.63      0.00
    0    2   19      2.64      0.00
    1    2   19     -8.31      0.00
    2    2   19      6.97      0.00
    3    2   19     -5.01      0.00
    4    2   19      1.39      0.00
    5    2   19     -1.36      0.00
    6    2   19     -2.32      0.00
    7    2   19     -3.81      0.00
    8    2   19     -1.50      0.00
    0    3   19     -0.90      0.00
    1    3   19     -2.17      0.00
    2    3   19      5.71      0.00
    3    3   19     -3.35      0.00
    4    3   19      0.35      0.00
    5    3   19      1.93      0.00
    6    3   19      2.56      0.00
    7    3   19     -5.06      0.00
    8    3   19      5.11      0.00
    1    4   19     -0.56      0.00
    2    4   19      7.14      0.00
    3    4   19     -6.85      0.00
    4    4   19      5.15      0.00
    5    4   19     -3.10      0.00
    6    4   19     -5.27      0.00
    7    4   19      1.28      0.00
    8    4   19      1.73      0.00
    9    4   19     -3.17      0.00
    1    5   19      4.07      0.00
    2    5   19      3.34      0.00
    3    5   19     -5.96      0.00
    4    5   19      3.95      0.00
    5    5   19      5.41      0.00
    6    5   19     -2.04      0.00
    7    5   19      4.10      0.00
    8    5   19     -0.81      0.00
    9    5   19     -1.32      0.00
    2    6   19     -6.68      0.00
    3    6   19     -6.12      0.00
    4    6   19      6.10      0.00
    5    6   19     -0.40      0.00
    6    6   19      0.58      0.00
    7    6   19      1.09      0.00
    8    6   19      4.39      0.00
    9    6   19     -5.11      0.00
    3    7   19      1.90      0.00
    4    7   19      2.48      0.00
    5    7   19     -2.61      0.00
    6    7   19     -5.90      0.00
    7    7   19      3.57      0.00
    8    7   19     -1.01      0.00
    4   -1   20      4.10      0.00
    5   -1   20     -0.92      0.00
    3    0   20     -1.44      0.00
    4    0   20      4.69      0.00
    5    0   20     -4.59      0.00
    6    0   20      0.62      0.00
    3    1   20     -8.00      0.00
    4    1   20      4.15      0.00
    5    1   20     -2.37      0.00
    6    1   20      0.26      0.00
    3    2   20     -0.77      0.00
    4    2   20      4.23      0.00
    5    2   20     -2.97      0.00
    6    2   20      5.39      0.00
    4    3   20      7.89      0.00
    5    3   20     -2.84      0.00
    6    3   20     -4.93      0.00
    1    0    0    -92.09      0.00
    3    0    0     10.39      0.00
   -4    1    0      5.41      0.00
   -1    1    0      7.08      0.00
    0    1    0    -34.43      0.00
    1    1    0   -132.11      0.00
    2    1    0     68.31      0.00
    3    1    0     19.37      0.00
   16    1    0      2.57      0.00
   17    1    0     -3.90      0.00
    1    2    0   -139.98      0.00
    2    2    0     40.27      0.00
    3    2    0      4.04      0.00
    4    2    0      1.72      0.00
   16    2    0      0.85      0.00
   17    2    0      1.31      0.00
  -16    3    0      1.93      0.00
   -2    3    0    -26.76      0.00
    6    3    0     10.86      0.00
   16    3    0     -0.57      0.00
   17    3    0     -4.16      0.00
   -4    4    0    -15.13      0.00
   -3    4    0    -10.28      0.00
   -1    4    0     11.58      0.00
    0    4    0    -39.81      0.00
   16    4    0      0.31      0.00
   17    4    0      2.77      0.00
    0    5    0    -23.09      0.00
   16    5    0      2.87      0.00
   17    5    0     -1.10      0.00
  -15    6    0      5.58      0.00
   -1    6    0    -22.59      0.00
   17    6    0     -2.01      0.00
   -2    7    0    -12.30      0.00
   -1    7    0     -7.33      0.00
   17    7    0     -1.94      0.00
  -14    8    0     -2.75      0.00
   -2    8    0      4.41      0.00
  -12   11    0     -6.71      0.00
   -9   11    0     -3.63      0.00
   16   11    0      3.02      0.00
   -9   12    0      1.31      0.00
   -9   13    0     -2.02      0.00
   -8   13    0     -0.52      0.00
   15   13    0     -1.75      0.00
   -9   14    0      0.76      0.00
   -8   14    0      1.81      0.00
   -8   15    0      1.96      0.00
   -7   15    0     -2.41      0.00
   -2   15    0     -0.05      0.00
   -7   16    0     -1.15      0.00
   -6   16    0      2.37      0.00
   13   16    0      1.20      0.00
   -6   17    0     -2.06      0.00
   -1   17    0      1.14      0.00
   12   17    0     -3.89      0.00
   -4   18    0     -5.12      0.00
   -1   18    0     -4.48      0.00
   -2   19    0     -0.16      0.00
   -1   19    0     -1.22      0.00
    0   19    0      3.74      0.00
    9   19    0     -1.65      0.00
    1   20    0     -0.30      0.00
    2   20    0     -0.63      0.00
    3   20    0      1.87      0.00
    4   20    0     -3.37      0.00
    5   20    0      1.50      0.00
    6   20    0     -4.45      0.00
   -5  -20    1      3.06      0.00
   -4  -20    1     -1.09      0.00
   -3  -20    1      0.76      0.00
   -2  -20    1     -2.17      0.00
   -1  -20    1      2.53      0.00
   -8  -19    1      0.72      0.00
    0  -19    1     -6.88      0.00
    2  -19    1      5.01      0.00
  -10  -18    1    -10.64      0.00
    0  -18    1      0.17      0.00
    1  -18    1      8.50      0.00
    4  -18    1      7.36      0.00
    1  -17    1     -3.83      0.00
    6  -17    1      2.86      0.00
    2  -15    1     -0.27      0.00
    8  -15    1     -3.67      0.00
  -14  -14    1      3.83      0.00
    9  -14    1     -1.43      0.00
    9  -13    1      1.90      0.00
   10  -13    1      0.60      0.00
  -15  -12    1     -1.65      0.00
   10  -12    1     -0.16      0.00
   10  -11    1     -2.00      0.00
  -16  -10    1     -1.84      0.00
   13  -10    1     -0.12      0.00
  -16   -8    1      0.47      0.00
   14   -8    1      5.28      0.00
  -16   -7    1      3.46      0.00
  -16   -6    1     -0.20      0.00
   15   -6    1     -2.36      0.00
  -16   -5    1      3.07      0.00
  -15   -5    1     -0.48      0.00
  -16   -4    1     -2.29      0.00
  -15   -4    1     -2.86      0.00
   16   -4    1      1.49      0.00
  -16   -3    1      1.13      0.00
  -15   -3    1     -1.81      0.00
   16   -3    1     -4.13      0.00
  -16   -2    1     -2.53      0.00
   -2   -2    1      0.13      0.00
   -3   -1    1      0.71      0.00
   -2   -1    1    -53.60      0.00
   -1   -1    1    -39.21      0.00
    0   -1    1    214.08      0.00
   -2    0    1     27.13      0.00
    0    0    1   -194.26      0.00
    1    0    1   -133.98      0.00
    5    0    1      1.17      0.00
   17    0    1     -7.92      0.00
   -2    1    1    -18.54      0.00
   -1    1    1    -17.43      0.00
    0    1    1    129.34      0.00
    3    1    1    -45.90      0.00
    4    1    1     -7.74      0.00
   16    1    1     -2.63      0.00
   17    1    1      2.92      0.00
  -16    2    1     -0.51      0.00
    1    2    1     41.01      0.00
    2    2    1      4.91      0.00
    3    2    1    -16.90      0.00
    4    2    1     17.27      0.00
   16    2    1      0.21      0.00
   17    2    1     -3.93      0.00
   -3    3    1     -3.47      0.00
   -2    3    1     -3.10      0.00
   17    3    1      5.05      0.00
   17    4    1     -4.16      0.00
  -15    5    1      5.46      0.00
    1    5    1      5.88      0.00
   17    5    1     -2.37      0.00
   -2    7    1     17.48      0.00
    2    7    1     -7.37      0.00
   17    7    1     -2.87      0.00
    1    8    1      6.30      0.00
   17    8    1      1.02      0.00
  -13    9    1     -1.55      0.00
    0    9    1     -1.82      0.00
    1    9    1     -0.40      0.00
   -8   10    1      0.86      0.00
   -2   10    1      4.77      0.00
   -1   10    1     -3.13      0.00
    0   10    1     -5.92      0.00
  -12   11    1      2.79      0.00
   -8   11    1     -1.10      0.00
   16   11    1     -4.11      0.00
  -11   12    1      5.10      0.00
   -8   12    1      2.94      0.00
   -7   12    1      5.56      0.00
   -8   13    1     -1.30      0.00
   -7   13    1      0.59      0.00
   15   13    1      1.87      0.00
   -7   14    1     -8.32      0.00
   -6   14    1     -3.46      0.00
   -7   15    1      0.72      0.00
   -6   15    1      4.08      0.00
   -2   15    1      5.56      0.00
   14   15    1     -2.71      0.00
   -7   16    1     -3.17      0.00
   -6   16    1     -0.61      0.00
   -5   16    1      0.92      0.00
   13   16    1      2.26      0.00
   -6   17    1      0.79      0.00
   -5   17    1      1.95      0.00
   -1   17    1     -6.96      0.00
   12   17    1     -0.23      0.00
   -4   18    1      0.19      0.00
   -1   18    1     -5.16      0.00
   11   18    1     -2.49      0.00
   -2   19    1     -4.43      0.00
   -1   19    1     -0.09      0.00
    0   19    1      2.15      0.00
    9   19    1     -4.62      0.00
    1   20    1      1.56      0.00
    2   20    1     -2.91      0.00
    3   20    1     -0.74      0.00
    4   20    1     -0.26      0.00
    5   20    1      3.56      0.00
    6   20    1      1.32      0.00
   -4  -20    2     -2.44      0.00
   -3  -20    2      3.16      0.00
   -2  -20    2      0.55      0.00
   -8  -19    2      3.09      0.00
   -7  -19    2      1.33      0.00
    0  -19    2      1.14      0.00
    2  -19    2     -3.19      0.00
  -10  -18    2      1.37      0.00
    0  -18    2     -5.40      0.00
    1  -18    2     -8.80      0.00
    4  -18    2     -5.80      0.00
  -11  -17    2      8.52      0.00
    1  -17    2     12.45      0.00
    6  -17    2     -9.94      0.00
  -12  -16    2     -1.31      0.00
  -13  -15    2     -2.52      0.00
   10  -14    2     -1.72      0.00
  -15  -12    2      1.31      0.00
   11  -12    2      7.00      0.00
   13  -10    2      3.12      0.00
  -16   -9    2     -3.28      0.00
  -15   -9    2     -5.38      0.00
  -16   -8    2      2.40      0.00
  -15   -8    2      2.98      0.00
  -16   -7    2     -2.29      0.00
  -15   -7    2     -2.87      0.00
  -16   -6    2      2.20      0.00
  -15   -6    2      1.28      0.00
  -14   -6    2     -2.24      0.00
  -16   -5    2     -3.37      0.00
  -15   -5    2     -4.51      0.00
  -14   -5    2      5.91      0.00
  -16   -4    2      2.94      0.00
  -15   -4    2      1.83      0.00
   16   -4    2     -3.50      0.00
  -16   -3    2     -4.74      0.00
  -16   -2    2     -0.11      0.00
    1   -2    2      0.14      0.00
    1   -1    2     10.78      0.00
    2   -1    2    -37.73      0.00
   17   -1    2     -0.82      0.00
  -16    0    2      1.90      0.00
    1    0    2     23.76      0.00
    2    0    2     -9.81      0.00
   17    0    2      4.96      0.00
  -16    1    2     -0.02      0.00
   -2    1    2      1.87      0.00
   -1    1    2     46.20      0.00
    0    1    2    -42.10      0.00
    2    1    2     -9.83      0.00
    5    1    2     -5.44      0.00
   17    1    2     -5.08      0.00
   -1    2    2     -6.89      0.00
    0    2    2     14.49      0.00
    1    2    2    -75.88      0.00
    2    2    2     53.94      0.00
  -15    4    2     -2.77      0.00
  -15    5    2     -4.90      0.00
   -2    6    2      7.92      0.00
   10    6    2      2.35      0.00
  -14    7    2     -4.98      0.00
   17    8    2     -0.79      0.00
  -13    9    2     -2.54      0.00
    3    9    2     -0.19      0.00
   17    9    2      2.39      0.00
    2   10    2      1.69      0.00
    1   11    2     -4.68      0.00
    2   11    2     -2.16      0.00
  -11   12    2     -4.42      0.00
   -6   12    2     -1.69      0.00
   -2   12    2      6.21      0.00
   -1   12    2     -2.18      0.00
    0   12    2      1.20      0.00
   16   12    2      0.54      0.00
  -10   13    2     -1.14      0.00
   -6   13    2     -0.21      0.00
   -9   14    2      0.55      0.00
   -6   14    2      6.06      0.00
   -5   14    2      0.38      0.00
   15   14    2      1.71      0.00
   -8   15    2     -0.81      0.00
   -6   15    2     -0.14      0.00
   -5   15    2     -1.46      0.00
   -2   15    2     -1.67      0.00
   14   15    2      2.59      0.00
   -7   16    2      1.03      0.00
   -6   16    2      0.82      0.00
   -5   16    2      0.96      0.00
   -4   16    2      1.99      0.00
   13   16    2     -1.10      0.00
   -5   17    2     -1.14      0.00
   -4   17    2     -0.32      0.00
   -3   17    2      5.20      0.00
   -1   17    2      0.28      0.00
   12   17    2      0.80      0.00
   -4   18    2      0.14      0.00
   -3   18    2     -4.36      0.00
   -1   18    2      0.31      0.00
   11   18    2     -6.12      0.00
   -2   19    2      2.57      0.00
   -1   19    2      1.11      0.00
    0   19    2     -2.76      0.00
    9   19    2      5.11      0.00
    1   20    2     -0.43      0.00
    2   20    2     -2.61      0.00
    3   20    2      4.57      0.00
    4   20    2     -0.98      0.00
    5   20    2     -0.18      0.00
    6   20    2     -5.20      0.00
   -7  -19    3     -5.15      0.00
    0  -19    3     -2.41      0.00
    1  -19    3     -6.80      0.00
    2  -19    3     -2.49      0.00
   -9  -18    3      3.14      0.00
    0  -18    3     -2.77      0.00
    4  -18    3     -0.15      0.00
    1  -17    3     -4.86      0.00
    6  -17    3      8.87      0.00
    1  -16    3      6.24      0.00
    9  -15    3     -0.44      0.00
  -13  -14    3     -3.47      0.00
   10  -14    3      1.97      0.00
  -14  -13    3      4.39      0.00
   11  -13    3      2.04      0.00
  -15  -11    3      3.84      0.00
  -15  -10    3     -2.86      0.00
   13  -10    3      3.04      0.00
  -15   -9    3      3.29      0.00
  -14   -9    3     -3.19      0.00
  -15   -8    3     -4.61      0.00
  -14   -8    3     -3.65      0.00
  -16   -7    3      2.21      0.00
  -15   -7    3      0.09      0.00
  -14   -7    3      5.37      0.00
  -13   -7    3      5.34      0.00
   15   -7    3      0.64      0.00
  -16   -6    3     -0.29      0.00
  -15   -6    3     -4.89      0.00
  -14   -6    3      1.89      0.00
  -13   -6    3     -0.42      0.00
  -16   -5    3     -0.39      0.00
  -15   -5    3      1.70      0.00
  -14   -5    3      0.22      0.00
  -16   -4    3     -5.76      0.00
  -15   -4    3     -0.09      0.00
   16   -4    3      1.90      0.00
  -16   -3    3      0.40      0.00
  -16   -2    3      0.21      0.00
  -16   -1    3     -0.90      0.00
    1   -1    3    -35.73      0.00
   17   -1    3      1.24      0.00
  -16    0    3     -0.18      0.00
    2    0    3     32.80      0.00
    1    1    3    -14.10      0.00
    2    1    3     84.92      0.00
    2    2    3     13.02      0.00
   11    2    3     -0.46      0.00
  -15    3    3      2.73      0.00
    3    3    3    -14.04      0.00
  -15    4    3      5.34      0.00
  -14    6    3    -11.33      0.00
   10    6    3      0.61      0.00
  -13    8    3     -4.38      0.00
   17    9    3      1.98      0.00
  -12   10    3     -3.55      0.00
    4   11    3      1.01      0.00
    3   12    3      4.96      0.00
   16   12    3     -4.25      0.00
   -4   13    3      3.13      0.00
    1   13    3     -7.27      0.00
    2   13    3     -3.94      0.00
   -9   14    3      5.68      0.00
   -4   14    3     -1.06      0.00
   -2   14    3      2.04      0.00
   -1   14    3     -6.44      0.00
    0   14    3      0.86      0.00
   15   14    3     -2.34      0.00
   -8   15    3     -3.18      0.00
   -4   15    3      1.99      0.00
   -3   15    3      0.62      0.00
   -2   15    3      5.41      0.00
   14   15    3      0.63      0.00
   -4   16    3     -8.00      0.00
   -3   16    3      3.54      0.00
   -5   17    3      0.06      0.00
   -4   17    3     -1.28      0.00
   -3   17    3      1.04      0.00
   -2   17    3     -3.30      0.00
   -1   17    3     -2.28      0.00
   -3   18    3      3.65      0.00
   -2   18    3      2.07      0.00
   -1   18    3      0.80      0.00
   11   18    3      5.28      0.00
   -1   19    3     -0.95      0.00
    0   19    3      3.48      0.00
    9   19    3     -4.52      0.00
    2   20    3      0.28      0.00
    3   20    3     -0.21      0.00
    4   20    3     -2.32      0.00
    5   20    3      2.14      0.00
    6   20    3     -0.76      0.00
   -6  -19    4      4.66      0.00
   -5  -19    4     -0.84      0.00
    0  -19    4     -0.14      0.00
    1  -19    4      4.71      0.00
   -8  -18    4     -3.94      0.00
    0  -18    4      4.00      0.00
    4  -18    4     -4.02      0.00
  -10  -17    4     -3.63      0.00
    1  -17    4      2.18      0.00
    6  -17    4     -6.60      0.00
  -11  -16    4      0.03      0.00
    1  -16    4     -1.84      0.00
  -12  -15    4      0.49      0.00
  -13  -14    4     -1.42      0.00
   10  -14    4      0.55      0.00
   11  -13    4     -6.94      0.00
  -14  -12    4     -2.11      0.00
  -14  -11    4     -0.68      0.00
  -15  -10    4      0.17      0.00
  -14  -10    4      1.60      0.00
   13  -10    4      3.02      0.00
  -15   -9    4     -3.04      0.00
  -14   -9    4      2.12      0.00
   14   -9    4     -1.55      0.00
  -15   -8    4     -0.36      0.00
  -14   -8    4      6.42      0.00
  -13   -8    4      3.48      0.00
  -15   -7    4     -2.21      0.00
  -14   -7    4     -1.45      0.00
  -13   -7    4     -7.64      0.00
   15   -7    4     -0.86      0.00
  -15   -6    4      3.88      0.00
  -14   -6    4      3.92      0.00
  -15   -5    4      3.86      0.00
   16   -5    4     -1.61      0.00
   17   -2    4      1.37      0.00
    0   -1    4    -29.35      0.00
   17   -1    4     -1.61      0.00
    1    0    4     14.88      0.00
    1    1    4      0.17      0.00
  -15    2    4      1.79      0.00
  -14    5    4      6.97      0.00
   17    9    4     -3.22      0.00
   17   10    4      0.09      0.00
  -11   11    4     -0.10      0.00
  -10   12    4      2.02      0.00
    5   12    4      0.61      0.00
   16   12    4      1.50      0.00
    4   13    4      0.17      0.00
    2   14    4     -1.99      0.00
    3   14    4     -2.26      0.00
   15   14    4      0.75      0.00
   -2   15    4     -8.24      0.00
   -1   15    4     -1.14      0.00
    0   15    4      1.13      0.00
    1   15    4     -2.46      0.00
    2   15    4      5.69      0.00
   -6   16    4     -0.72      0.00
   -3   16    4     10.71      0.00
   -2   16    4     -3.80      0.00
   -5   17    4      0.00      0.00
   -4   17    4      0.84      0.00
   -3   17    4      3.39      0.00
   -2   17    4     -4.41      0.00
   -1   17    4      6.53      0.00
   -3   18    4     -0.76      0.00
   -2   18    4     -5.15      0.00
   -1   18    4      0.47      0.00
   11   18    4     -6.70      0.00
   -1   19    4      1.67      0.00
    0   19    4     -2.54      0.00
    9   19    4      4.66      0.00
    3   20    4      2.47      0.00
    4   20    4      0.04      0.00
    5   20    4     -1.44      0.00
    6   20    4     -0.87      0.00
   -5  -19    5     -3.47      0.00
   -4  -19    5      4.93      0.00
   -3  -19    5     -1.13      0.00
   -2  -19    5     -0.77      0.00
   -1  -19    5     -2.68      0.00
    0  -19    5      0.65      0.00
   -7  -18    5      0.77      0.00
    0  -18    5     -1.51      0.00
    3  -18    5     -5.06      0.00
    4  -18    5     -2.28      0.00
   -9  -17    5      5.50      0.00
    7  -16    5     -5.37      0.00
  -12  -14    5     -0.14      0.00
  -13  -13    5      0.78      0.00
  -14  -11    5      1.01      0.00
  -14  -10    5      1.69      0.00
   13  -10    5     -1.23      0.00
  -14   -9    5      1.16      0.00
   14   -9    5     -3.03      0.00
  -15   -8    5      1.14      0.00
  -14   -8    5     -0.26      0.00
  -13   -8    5     -7.17      0.00
  -15   -7    5      1.96      0.00
  -14   -7    5      3.60      0.00
   15   -7    5      6.46      0.00
  -15   -6    5      0.65      0.00
  -14   -6    5     -5.22      0.00
  -15   -5    5      1.88      0.00
   16   -5    5      1.40      0.00
   17   -2    5     -1.41      0.00
  -15   -1    5     -2.09      0.00
    0   -1    5     -3.65      0.00
   17   -1    5      2.95      0.00
  -15    0    5     -3.91      0.00
    1    0    5     -6.11      0.00
    3    0    5      7.06      0.00
  -15    1    5      0.11      0.00
    1    1    5     -5.58      0.00
  -14    4    5      0.78      0.00
  -13    7    5      7.68      0.00
  -12    9    5      0.57      0.00
   17    9    5      3.79      0.00
  -11   10    5     -0.26      0.00
   17   10    5     -0.87      0.00
   16   12    5     -0.82      0.00
   -9   13    5     -0.57      0.00
    6   13    5      0.86      0.00
   -8   14    5     -1.93      0.00
    5   14    5     -4.47      0.00
   15   14    5      0.58      0.00
   -7   15    5     -0.07      0.00
   -2   15    5     -5.48      0.00
    3   15    5     -3.25      0.00
    4   15    5      2.52      0.00
   -6   16    5     -3.52      0.00
   -4   16    5      1.26      0.00
   -3   16    5     -4.78      0.00
   -2   16    5     -7.97      0.00
    0   16    5      1.49      0.00
    1   16    5     -1.18      0.00
    2   16    5      0.10      0.00
    3   16    5      1.08      0.00
   -4   17    5      1.03      0.00
   -3   17    5      0.50      0.00
   -2   17    5     -3.29      0.00
   -1   17    5      1.46      0.00
    0   17    5     -3.58      0.00
   -2   18    5      4.17      0.00
   -1   18    5      4.28      0.00
   11   18    5      5.62      0.00
    0   19    5      1.21      0.00
    9   19    5      1.01      0.00
    5   20    5      1.22      0.00
   -2  -19    6      0.76      0.00
   -6  -18    6      0.53      0.00
    2  -18    6     -7.84      0.00
    3  -18    6      0.75      0.00
   -8  -17    6     -5.96      0.00
    5  -17    6      4.71      0.00
  -10  -16    6     -2.33      0.00
    7  -16    6     -0.41      0.00
  -11  -15    6     -4.70      0.00
    8  -15    6     -2.44      0.00
  -12  -13    6     -0.17      0.00
  -13  -12    6      1.76      0.00
  -14  -10    6      0.40      0.00
   13  -10    6     -3.61      0.00
  -14   -9    6      2.39      0.00
  -14   -8    6      0.18      0.00
  -13   -8    6      3.50      0.00
  -14   -7    6     -2.13      0.00
   15   -7    6     -3.03      0.00
  -15   -5    6      0.85      0.00
   16   -5    6     -1.30      0.00
  -15   -4    6     -1.08      0.00
  -15   -3    6      1.15      0.00
  -15   -2    6     -1.01      0.00
   17   -2    6      4.30      0.00
   17   -1    6     -0.35      0.00
    1    1    6     11.91      0.00
  -14    2    6     -1.87      0.00
  -14    3    6     -4.36      0.00
  -13    6    6      4.15      0.00
   10    6    6      0.46      0.00
  -12    8    6     -0.28      0.00
   17    9    6     -4.99      0.00
   17   10    6     -2.47      0.00
  -10   11    6      1.00      0.00
   16   12    6     -1.14      0.00
    7   14    6      2.39      0.00
   15   14    6      1.48      0.00
   -3   15    6     -6.07      0.00
   -2   15    6      1.73      0.00
    6   15    6     -0.41      0.00
   14   15    6     -2.40      0.00
   -5   16    6     -3.82      0.00
   -4   16    6      0.32      0.00
   -3   16    6      4.30      0.00
   -2   16    6      3.37      0.00
    4   16    6      0.90      0.00
    5   16    6      2.15      0.00
   -4   17    6      1.15      0.00
   -3   17    6     -3.65      0.00
   -2   17    6      2.03      0.00
   -1   17    6      2.63      0.00
    1   17    6      1.17      0.00
    2   17    6     -0.64      0.00
    3   17    6      0.29      0.00
   11   17    6      9.54      0.00
   12   17    6      2.00      0.00
   -2   18    6     -2.22      0.00
   -1   18    6     -1.89      0.00
    0   18    6     -1.32      0.00
   11   18    6     -5.82      0.00
    1   19    6     -2.00      0.00
    8   19    6     -1.42      0.00
    9   19    6      2.91      0.00
   -5  -18    7      1.58      0.00
   -4  -18    7     -2.14      0.00
    1  -18    7     -0.73      0.00
    2  -18    7      5.89      0.00
   -7  -17    7      0.75      0.00
    4  -17    7     -3.42      0.00
    5  -17    7      2.82      0.00
   -9  -16    7     -0.29      0.00
  -10  -15    7      2.91      0.00
    8  -15    7      1.03      0.00
  -11  -14    7      1.06      0.00
    9  -14    7     -2.21      0.00
  -12  -12    7     -0.07      0.00
  -13  -11    7      1.55      0.00
   12  -11    7     -1.47      0.00
  -13  -10    7     -1.62      0.00
   13  -10    7      0.87      0.00
  -14   -8    7      1.52      0.00
  -13   -8    7     -2.77      0.00
  -14   -7    7      2.81      0.00
  -13   -7    7     -1.35      0.00
   15   -7    7      4.44      0.00
  -14   -6    7     -2.84      0.00
   16   -4    7     -6.57      0.00
   17   -2    7     -0.46      0.00
  -14   -1    7      3.07      0.00
   17   -1    7     -1.23      0.00
  -14    0    7      1.95      0.00
  -14    1    7     -1.70      0.00
  -13    4    7     -2.05      0.00
  -12    7    7     -1.38      0.00
   -5    8    7     -2.74      0.00
  -11    9    7      2.80      0.00
   -5    9    7     -0.43      0.00
   17    9    7      1.20      0.00
   17   10    7     -0.08      0.00
   16   12    7      0.58      0.00
   -8   13    7      0.43      0.00
   -7   14    7      0.30      0.00
   -3   14    7     -0.67      0.00
    8   14    7     -0.92      0.00
   15   14    7     -1.29      0.00
   -6   15    7     -2.82      0.00
   -4   15    7      1.25      0.00
   -3   15    7      3.98      0.00
   -2   15    7     -1.77      0.00
    7   15    7     -1.93      0.00
   14   15    7     -4.97      0.00
   -4   16    7      0.54      0.00
   -3   16    7     -3.75      0.00
   -2   16    7     -2.24      0.00
    6   16    7     -3.52      0.00
   13   16    7      0.88      0.00
   -3   17    7      1.48      0.00
   -2   17    7     -1.93      0.00
   -1   17    7      3.79      0.00
    4   17    7      3.44      0.00
    5   17    7      2.92      0.00
   12   17    7      3.24      0.00
   -1   18    7      1.12      0.00
    0   18    7     -1.53      0.00
    1   18    7      3.87      0.00
    2   18    7      2.45      0.00
    3   18    7     -3.31      0.00
    4   18    7     -1.41      0.00
   10   18    7    -11.29      0.00
    2   19    7     -1.29      0.00
    7   19    7     -2.31      0.00
    8   19    7     -0.26      0.00
   -3  -18    8      4.26      0.00
   -2  -18    8      0.29      0.00
   -1  -18    8      1.36      0.00
    0  -18    8     -3.40      0.00
   -6  -17    8     -2.87      0.00
    3  -17    8      3.37      0.00
    4  -17    8      3.84      0.00
   -8  -16    8      3.92      0.00
    6  -16    8      1.61      0.00
   -9  -15    8      3.35      0.00
  -10  -14    8     -2.21      0.00
    9  -14    8      0.33      0.00
  -11  -13    8      0.07      0.00
   10  -13    8     -1.43      0.00
   11  -12    8      1.47      0.00
  -12  -11    8      3.04      0.00
   12  -11    8      6.89      0.00
  -13   -9    8     -1.22      0.00
  -13   -8    8     -0.04      0.00
   14   -8    8      1.82      0.00
   15   -6    8     -5.00      0.00
   16   -4    8      5.58      0.00
   17   -1    8      1.07      0.00
   17    0    8      0.49      0.00
  -13    2    8      6.92      0.00
  -13    3    8     -0.27      0.00
    4    4    8      2.12      0.00
    4    5    8      4.03      0.00
  -12    6    8     -2.06      0.00
    4    6    8    -11.98      0.00
  -11    8    8      1.62      0.00
   17    9    8     -1.70      0.00
   -9   11    8     -2.55      0.00
   -8   12    8     -0.95      0.00
   16   12    8      0.76      0.00
   -4   14    8     -3.62      0.00
   -3   14    8      4.03      0.00
   15   14    8     -0.21      0.00
   -5   15    8      4.76      0.00
   -4   15    8     -3.03      0.00
   -3   15    8     -0.91      0.00
   -2   15    8     -1.17      0.00
    9   15    8     -2.97      0.00
   14   15    8      0.86      0.00
   -4   16    8     -1.05      0.00
   -3   16    8      1.86      0.00
   -2   16    8     -2.13      0.00
    8   16    8     -5.41      0.00
   13   16    8     -2.88      0.00
   -2   17    8      1.93      0.00
   -1   17    8     -1.65      0.00
    6   17    8     -4.58      0.00
    7   17    8     -0.24      0.00
   12   17    8     -5.10      0.00
    0   18    8     -1.25      0.00
    5   18    8      3.95      0.00
    6   18    8      6.94      0.00
   10   18    8      6.01      0.00
    3   19    8      1.09      0.00
    4   19    8     -4.78      0.00
    5   19    8      4.74      0.00
    6   19    8     -2.49      0.00
    7   19    8      1.06      0.00
   -4  -17    9     -2.51      0.00
    1  -17    9      0.54      0.00
    2  -17    9     -3.46      0.00
    3  -17    9     -4.00      0.00
   -7  -16    9      1.61      0.00
   -6  -16    9      0.41      0.00
    5  -16    9      2.17      0.00
   -8  -15    9     -0.97      0.00
    7  -15    9     -4.76      0.00
   -9  -14    9      0.23      0.00
  -10  -13    9      4.38      0.00
  -11  -12    9      2.44      0.00
  -12  -10    9      3.93      0.00
  -12   -9    9      0.27      0.00
   13   -9    9     -6.46      0.00
   14   -8    9      1.97      0.00
  -13   -6    9     -0.11      0.00
   15   -6    9      5.48      0.00
  -13   -5    9     -2.65      0.00
  -13   -4    9     -5.61      0.00
   16   -4    9     -1.34      0.00
  -13   -3    9      3.60      0.00
  -13   -2    9      0.15      0.00
  -13   -1    9      1.73      0.00
   17   -1    9     -0.67      0.00
  -13    0    9      4.82      0.00
   17    0    9      1.65      0.00
  -12    4    9      0.10      0.00
  -11    6    9     -0.68      0.00
   17    8    9     -2.58      0.00
   17    9    9     -1.02      0.00
   -9   10    9     -2.27      0.00
   16   11    9     -1.91      0.00
   15   13    9     -0.97      0.00
   -5   14    9      1.09      0.00
   -4   14    9      1.75      0.00
   -3   14    9      1.40      0.00
   -4   15    9      0.20      0.00
   -3   15    9      1.35      0.00
   -2   15    9     -2.89      0.00
   -3   16    9     -1.74      0.00
   -2   16    9      2.48      0.00
    9   16    9     -1.19      0.00
   -1   17    9     -0.02      0.00
    8   17    9     -2.17      0.00
   11   17    9     -9.10      0.00
    1   18    9     -0.05      0.00
    2   18    9      2.75      0.00
    7   18    9     -3.39      0.00
    9   18    9      1.70      0.00
   -2  -17   10     -2.37      0.00
   -1  -17   10     -0.33      0.00
    0  -17   10     -0.03      0.00
   -5  -16   10     -2.58      0.00
    4  -16   10     -0.21      0.00
   -7  -15   10      1.09      0.00
    6  -15   10      3.28      0.00
   -8  -14   10      5.86      0.00
    8  -14   10      0.59      0.00
   -9  -13   10      4.33      0.00
    9  -13   10      0.37      0.00
  -10  -12   10     -0.77      0.00
   10  -12   10      0.88      0.00
   11  -11   10     -2.92      0.00
  -11  -10   10     -3.01      0.00
   12  -10   10     -0.51      0.00
   13   -9   10      1.74      0.00
  -12   -8   10      1.29      0.00
  -12   -7   10      1.83      0.00
   14   -7   10     -7.70      0.00
  -12   -6   10      0.02      0.00
   15   -5   10      4.26      0.00
   16   -3   10      0.62      0.00
  -12    0   10     -4.83      0.00
   17    0   10      3.50      0.00
  -12    1   10     -2.95      0.00
  -11    1   10      9.67      0.00
   17    1   10      3.32      0.00
  -12    2   10      2.28      0.00
   17    2   10     -1.54      0.00
   17    3   10      5.79      0.00
    5    4   10     -4.47      0.00
  -11    5   10      4.41      0.00
   17    6   10      0.35      0.00
  -10    7   10     -3.01      0.00
   17    7   10     -2.68      0.00
   17    8   10     -2.71      0.00
   -9    9   10      0.77      0.00
    5   10   10      2.69      0.00
   16   11   10     -1.55      0.00
   -7   12   10     -1.36      0.00
   -6   13   10      1.10      0.00
   -4   13   10      4.32      0.00
   15   13   10     -3.70      0.00
   -5   14   10     -0.21      0.00
   -4   14   10     -0.79      0.00
   -3   14   10     -1.63      0.00
   14   14   10     -2.86      0.00
   -3   15   10     -0.70      0.00
   -2   15   10      1.04      0.00
   13   15   10      1.69      0.00
   -2   16   10     -0.75      0.00
   10   16   10      1.71      0.00
   12   16   10      1.67      0.00
    0   17   10      0.83      0.00
    9   17   10     -4.38      0.00
   10   17   10     -1.34      0.00
    3   18   10      0.30      0.00
    4   18   10     -0.35      0.00
    5   18   10      0.72      0.00
    6   18   10      8.92      0.00
    7   18   10      3.49      0.00
    8   18   10     -1.77      0.00
   -3  -16   11     -3.05      0.00
   -2  -16   11     -0.36      0.00
   -1  -16   11      1.60      0.00
    0  -16   11     -1.00      0.00
    1  -16   11      1.08      0.00
    2  -16   11     -1.70      0.00
   -5  -15   11      0.68      0.00
    5  -15   11      0.44      0.00
   -7  -14   11      0.14      0.00
    7  -14   11      4.87      0.00
   -8  -13   11      2.23      0.00
   -9  -12   11      4.23      0.00
   10  -12   11      2.96      0.00
   11  -11   11      0.92      0.00
  -10  -10   11     -0.29      0.00
  -11   -8   11      0.59      0.00
   13   -8   11      3.52      0.00
  -11   -7   11      0.07      0.00
   14   -7   11      2.64      0.00
   15   -5   11     -3.06      0.00
    3   -2   11      4.66      0.00
   16   -2   11     -1.32      0.00
  -11    2   11      8.89      0.00
   17    2   11      1.82      0.00
  -11    3   11     -2.05      0.00
   17    3   11     -1.85      0.00
   17    4   11      2.93      0.00
   17    5   11      1.43      0.00
  -10    6   11     -0.25      0.00
   17    6   11     -1.73      0.00
   17    7   11     -2.56      0.00
   -9    8   11     -0.19      0.00
   -8    9   11     -1.05      0.00
   16   10   11     -4.60      0.00
   -7   11   11      1.37      0.00
   -6   12   11     -1.14      0.00
   -4   12   11      2.59      0.00
   15   12   11     -2.26      0.00
   -5   13   11      2.57      0.00
   -4   13   11     -0.09      0.00
   -4   14   11      0.83      0.00
   -3   14   11     -0.21      0.00
   -2   15   11      1.09      0.00
   13   15   11     -1.06      0.00
   -1   16   11      1.75      0.00
   11   16   11     -2.04      0.00
    1   17   11      2.96      0.00
    2   17   11     -0.66      0.00
    9   17   11      0.19      0.00
   -3  -15   12     -0.86      0.00
   -2  -15   12     -1.08      0.00
    2  -15   12      1.03      0.00
    3  -15   12     -0.45      0.00
    4  -15   12     -0.96      0.00
   -5  -14   12      1.58      0.00
    6  -14   12     -2.86      0.00
   -7  -13   12     -0.63      0.00
    8  -13   12     -0.47      0.00
   -8  -12   12     -1.75      0.00
   -7  -12   12     -2.00      0.00
    9  -12   12      1.33      0.00
   10  -11   12      7.65      0.00
   -9  -10   12     -1.90      0.00
   11  -10   12     -2.76      0.00
   12   -9   12     -5.91      0.00
  -10   -8   12      2.50      0.00
   14   -6   12     -2.13      0.00
  -11   -5   12     -4.81      0.00
  -11   -4   12     -3.04      0.00
   15   -4   12      1.98      0.00
  -11   -3   12      5.43      0.00
  -11   -2   12     -4.60      0.00
  -11   -1   12      6.18      0.00
   16   -1   12     -1.85      0.00
   16    0   12      0.55      0.00
    5    1   12     -0.54      0.00
  -10    3   12     -3.33      0.00
  -10    4   12     -6.17      0.00
   -9    6   12      1.89      0.00
   -8    8   12     -0.79      0.00
   16    8   12     -4.21      0.00
   16    9   12      2.52      0.00
   -6   11   12     -2.89      0.00
   15   11   12     -2.85      0.00
   -5   12   12      2.51      0.00
   -4   12   12     -3.60      0.00
   -4   13   12     -2.04      0.00
   -3   13   12      1.69      0.00
   14   13   12      0.89      0.00
   -3   14   12      1.34      0.00
   13   14   12     -0.24      0.00
   -1   15   12     -1.87      0.00
   12   15   12      4.71      0.00
    1   16   12      5.48      0.00
   10   16   12      0.07      0.00
    4   17   12      6.89      0.00
    5   17   12      1.15      0.00
    6   17   12     -6.51      0.00
    7   17   12     -1.74      0.00
    8   17   12      4.82      0.00
   -3  -14   13     -2.76      0.00
    3  -14   13     -1.21      0.00
    4  -14   13      4.76      0.00
   -5  -13   13      2.32      0.00
    6  -13   13      1.01      0.00
   -6  -12   13     -2.34      0.00
    8  -12   13      0.51      0.00
   -7  -11   13     -2.48      0.00
    9  -11   13      4.76      0.00
   -8  -10   13      3.48      0.00
   -8   -9   13      0.52      0.00
   11   -9   13     -7.08      0.00
   -9   -8   13     -2.22      0.00
   12   -8   13     -2.90      0.00
   -9   -7   13      4.82      0.00
   13   -7   13     -0.65      0.00
  -10   -5   13      5.71      0.00
   14   -5   13     -6.25      0.00
  -10   -4   13     -2.82      0.00
  -10   -3   13     -5.26      0.00
   15   -3   13      5.87      0.00
  -10   -2   13      2.90      0.00
   15   -2   13     -5.96      0.00
  -10   -1   13     -2.62      0.00
  -10    0   13     -0.06      0.00
   16    0   13     -0.01      0.00
   16    1   13      3.05      0.00
   16    2   13     -1.70      0.00
   16    3   13     -5.50      0.00
   -9    4   13      2.72      0.00
   16    4   13      0.15      0.00
   16    5   13     -7.40      0.00
   -8    6   13      0.72      0.00
   16    6   13     -6.16      0.00
   16    7   13      6.02      0.00
   -7    8   13     -0.05      0.00
   16    8   13      2.81      0.00
   15   10   13     -2.44      0.00
   -5   11   13     -1.12      0.00
   -4   11   13     -1.00      0.00
   -4   12   13      0.43      0.00
   14   12   13     -0.28      0.00
   -3   13   13      1.19      0.00
   13   13   13     -0.33      0.00
   -1   14   13     -1.06      0.00
   12   14   13      4.90      0.00
    0   15   13      4.14      0.00
    1   15   13      0.80      0.00
   11   15   13      0.05      0.00
    3   16   13      1.28      0.00
    4   16   13      4.18      0.00
    5   16   13      3.95      0.00
    6   16   13     -0.90      0.00
    7   16   13      3.82      0.00
    8   16   13      0.06      0.00
    9   16   13     -0.11      0.00
   -3  -13   14     -0.65      0.00
   -2  -13   14     -0.26      0.00
    4  -13   14      2.80      0.00
    5  -13   14     -0.17      0.00
   -5  -12   14      2.36      0.00
   -4  -12   14     -4.52      0.00
    7  -12   14      2.03      0.00
   -6  -11   14      3.51      0.00
    8  -11   14     -1.72      0.00
   -6  -10   14      4.21      0.00
   -7   -9   14     -2.06      0.00
   -8   -8   14     -2.35      0.00
   -7   -8   14      5.54      0.00
   -8   -7   14     -2.26      0.00
   12   -7   14     -2.62      0.00
   13   -6   14     -0.42      0.00
   -9   -5   14      0.18      0.00
   -9   -4   14      0.77      0.00
   14   -4   14     -1.32      0.00
   -9   -3   14      1.27      0.00
   -9   -2   14      2.25      0.00
   15   -2   14      4.22      0.00
   -9   -1   14     -2.81      0.00
   15   -1   14     -2.00      0.00
   -9    0   14      1.87      0.00
   15    0   14     -1.63      0.00
   -9    1   14     -1.14      0.00
   16    3   14      3.29      0.00
   -8    4   14     -1.05      0.00
   16    4   14     -4.28      0.00
   16    5   14      0.81      0.00
   -7    6   14     -1.77      0.00
   -6    8   14      0.30      0.00
   15    8   14     -2.19      0.00
   15    9   14      2.23      0.00
   14   10   14     -6.17      0.00
   -4   11   14      0.27      0.00
   14   11   14      6.38      0.00
   -3   12   14     -0.41      0.00
   13   12   14     -0.73      0.00
   -1   13   14      4.69      0.00
   12   13   14      5.81      0.00
    0   14   14      2.90      0.00
   11   14   14     -0.81      0.00
    2   15   14      3.34      0.00
    3   15   14      0.15      0.00
    4   15   14     -1.50      0.00
    8   15   14     -3.21      0.00
    9   15   14      3.05      0.00
   -2  -12   15      2.09      0.00
   -1  -12   15      1.63      0.00
    4  -12   15      2.12      0.00
    5  -12   15     -4.78      0.00
   -4  -11   15     -3.66      0.00
    7  -11   15     -0.88      0.00
   -5  -10   15     -2.97      0.00
    8  -10   15      2.27      0.00
   -6   -9   15      2.23      0.00
   -6   -8   15     -3.47      0.00
   -7   -7   15      4.24      0.00
   11   -7   15      1.11      0.00
   -7   -6   15     -5.45      0.00
   12   -6   15     -0.27      0.00
   13   -5   15      0.04      0.00
   -8   -4   15      2.75      0.00
   13   -4   15     -1.18      0.00
   -8   -3   15     -1.40      0.00
   14   -3   15     -4.34      0.00
   -8   -2   15      2.09      0.00
   14   -2   15      1.41      0.00
   -8   -1   15     -1.15      0.00
   -8    0   15      0.41      0.00
   15    0   15     -0.32      0.00
   -8    1   15     -4.22      0.00
   15    1   15     -3.37      0.00
   15    2   15      2.49      0.00
   -7    3   15      2.46      0.00
   15    3   15      2.29      0.00
   -7    4   15     -3.05      0.00
   15    4   15     -0.01      0.00
   15    5   15      0.03      0.00
   -6    6   15      2.13      0.00
   15    6   15     -2.35      0.00
   15    7   15      0.54      0.00
   -5    8   15      1.17      0.00
   -4    9   15     -1.02      0.00
   14    9   15     -1.96      0.00
   -3   10   15      0.48      0.00
   14   10   15      4.79      0.00
   -2   11   15     -1.77      0.00
   13   11   15     -5.07      0.00
   -1   12   15      2.12      0.00
   12   12   15      3.39      0.00
    0   13   15      1.29      0.00
    1   13   15      0.69      0.00
   11   13   15      1.82      0.00
    2   14   15      2.08      0.00
    3   14   15     -3.97      0.00
    8   14   15     -1.82      0.00
    9   14   15      0.10      0.00
   10   14   15     -5.37      0.00
   -1  -11   16      2.81      0.00
    0  -11   16     -3.45      0.00
    3  -11   16      1.80      0.00
    4  -11   16      0.24      0.00
    5  -11   16      1.06      0.00
   -3  -10   16     -1.98      0.00
    3  -10   16      0.32      0.00
    6  -10   16     -0.03      0.00
    7  -10   16      2.94      0.00
   -4   -9   16     -3.26      0.00
    4   -9   16      0.68      0.00
    8   -9   16      1.64      0.00
   -5   -8   16      0.83      0.00
    4   -8   16     -1.43      0.00
    9   -8   16     -0.22      0.00
   -5   -7   16     -5.75      0.00
   10   -7   16      0.54      0.00
   -6   -6   16     -2.23      0.00
    5   -6   16      0.87      0.00
   11   -6   16     -1.34      0.00
   -6   -5   16     -0.84      0.00
   12   -5   16     -0.49      0.00
    6   -4   16     -4.29      0.00
   12   -4   16      3.40      0.00
   13   -3   16     -1.50      0.00
   -7   -2   16      2.47      0.00
    7   -2   16      3.92      0.00
   13   -2   16      0.47      0.00
   -7   -1   16      1.87      0.00
   14   -1   16      0.41      0.00
   14    0   16     -1.12      0.00
   14    1   16     -3.38      0.00
   14    2   16     -2.73      0.00
   -6    3   16      2.60      0.00
   14    3   16     -0.67      0.00
   -6    4   16     -0.65      0.00
   14    4   16      0.24      0.00
   14    5   16     -2.56      0.00
   -5    6   16     -2.22      0.00
   11    6   16     -1.31      0.00
   14    6   16      3.50      0.00
   -4    7   16     -1.57      0.00
   11    7   16      1.37      0.00
   14    7   16     -3.76      0.00
   12    8   16     -3.05      0.00
   14    8   16      1.57      0.00
   -3    9   16      3.33      0.00
   12    9   16      3.19      0.00
   13    9   16     -3.03      0.00
   -2   10   16     -4.79      0.00
   13   10   16     -1.82      0.00
   -1   11   16      1.56      0.00
   12   11   16      0.72      0.00
    1   12   16      0.59      0.00
   10   12   16     -1.59      0.00
   11   12   16      4.98      0.00
    3   13   16      0.23      0.00
    4   13   16      4.85      0.00
    8   13   16     -0.03      0.00
    9   13   16      0.84      0.00
    0  -10   17     -1.09      0.00
    1  -10   17     -0.99      0.00
    2  -10   17      1.66      0.00
    3  -10   17      0.16      0.00
    4  -10   17     -0.25      0.00
   -2   -9   17     -0.92      0.00
   -1   -9   17     -0.69      0.00
    4   -9   17     -1.45      0.00
    5   -9   17      2.16      0.00
    6   -9   17      6.32      0.00
   -3   -8   17     -1.15      0.00
    4   -8   17      0.98      0.00
    5   -8   17     -1.19      0.00
    6   -8   17     -0.55      0.00
    7   -8   17     -2.70      0.00
    8   -8   17      2.91      0.00
   -4   -7   17      2.01      0.00
    5   -7   17      1.86      0.00
    6   -7   17     -0.97      0.00
    9   -7   17      1.32      0.00
   -4   -6   17     -2.54      0.00
    5   -6   17      1.67      0.00
    6   -6   17     -0.17      0.00
   10   -6   17      0.18      0.00
   -5   -5   17      8.21      0.00
    6   -5   17     -6.36      0.00
    7   -5   17     -3.38      0.00
   11   -5   17     -0.69      0.00
   -5   -4   17      1.31      0.00
    6   -4   17     -1.02      0.00
    7   -4   17      7.70      0.00
   11   -4   17      6.02      0.00
   -5   -3   17      0.44      0.00
    7   -3   17     -0.43      0.00
    8   -3   17     -3.67      0.00
   12   -3   17     -0.92      0.00
   -5   -2   17      0.82      0.00
    7   -2   17    -10.13      0.00
    8   -2   17      3.01      0.00
   12   -2   17     -2.17      0.00
   -5   -1   17     -3.90      0.00
    8   -1   17      9.42      0.00
    9   -1   17     -4.64      0.00
   13   -1   17      1.15      0.00
   -5    0   17      5.41      0.00
    8    0   17      8.95      0.00
    9    0   17     -7.38      0.00
   13    0   17      1.44      0.00
   -5    1   17      0.74      0.00
    9    1   17     -1.31      0.00
   10    1   17      5.44      0.00
   13    1   17     -1.53      0.00
   -5    2   17      3.73      0.00
    9    2   17     -4.24      0.00
   10    2   17      5.79      0.00
   13    2   17      0.05      0.00
   -5    3   17      2.36      0.00
   10    3   17     -0.76      0.00
   11    3   17     -8.58      0.00
   13    3   17     -5.45      0.00
   10    4   17     -3.10      0.00
   11    4   17     -4.14      0.00
   13    4   17      1.63      0.00
   -4    5   17      0.93      0.00
   10    5   17     -6.08      0.00
   11    5   17      4.89      0.00
   12    5   17      4.55      0.00
   13    5   17     -4.25      0.00
   11    6   17      1.61      0.00
   12    6   17      4.05      0.00
   13    6   17     -0.90      0.00
   -3    7   17     -0.57      0.00
   11    7   17      6.42      0.00
   12    7   17     -4.61      0.00
   13    7   17     -1.47      0.00
   -2    8   17      3.32      0.00
   12    8   17      3.99      0.00
   -1    9   17     -1.76      0.00
   12    9   17     -1.69      0.00
    0   10   17     -3.28      0.00
   11   10   17     -1.16      0.00
    1   11   17     -3.45      0.00
    2   11   17      0.99      0.00
   10   11   17     -4.81      0.00
    3   12   17     -0.14      0.00
    4   12   17     -0.21      0.00
    5   12   17      2.82      0.00
    6   12   17     -6.00      0.00
    7   12   17      2.66      0.00
    8   12   17      2.16      0.00
    9   12   17     -0.42      0.00
    0   -8   18      0.76      0.00
    1   -8   18      7.15      0.00
    2   -8   18     -3.38      0.00
    3   -8   18      0.03      0.00
    4   -8   18     -2.48      0.00
    5   -8   18      1.22      0.00
   -1   -7   18      1.03      0.00
    4   -7   18     -1.95      0.00
    5   -7   18      3.28      0.00
    6   -7   18     -0.48      0.00
    7   -7   18      0.64      0.00
   -2   -6   18      5.42      0.00
    5   -6   18      4.38      0.00
    6   -6   18     -5.05      0.00
    7   -6   18     -2.21      0.00
    8   -6   18      1.27      0.00
   -3   -5   18     -0.43      0.00
    5   -5   18     -1.83      0.00
    6   -5   18      0.49      0.00
    7   -5   18      5.62      0.00
    8   -5   18      0.46      0.00
    9   -5   18      0.01      0.00
   -3   -4   18      3.42      0.00
    6   -4   18      2.50      0.00
    7   -4   18     -3.76      0.00
    8   -4   18     -1.06      0.00
    9   -4   18      0.58      0.00
   10   -4   18     -3.41      0.00
   -3   -3   18     -3.36      0.00
    6   -3   18     -1.19      0.00
    7   -3   18     -0.99      0.00
    8   -3   18      4.24      0.00
    9   -3   18     -0.63      0.00
   10   -3   18     -7.18      0.00
   11   -3   18      5.14      0.00
   -4   -2   18     -2.32      0.00
    7   -2   18      0.71      0.00
    8   -2   18      4.76      0.00
    9   -2   18     -4.53      0.00
   10   -2   18      0.21      0.00
   11   -2   18      6.33      0.00
   -4   -1   18      3.03      0.00
   -3   -1   18     -3.84      0.00
    7   -1   18     -1.36      0.00
    8   -1   18      1.95      0.00
    9   -1   18     -6.04      0.00
   10   -1   18     10.75      0.00
   11   -1   18     -3.20      0.00
   12   -1   18     -3.17      0.00
   -4    0   18     -1.39      0.00
    8    0   18      0.53      0.00
    9    0   18     -3.46      0.00
   10    0   18      0.81      0.00
   11    0   18     -2.45      0.00
   12    0   18      7.64      0.00
    8    1   18     -4.38      0.00
    9    1   18      2.74      0.00
   10    1   18      4.93      0.00
   11    1   18     -6.21      0.00
   12    1   18      4.39      0.00
   -3    2   18      4.62      0.00
    9    2   18     10.37      0.00
   10    2   18     -4.18      0.00
   11    2   18     -2.85      0.00
   12    2   18      5.45      0.00
   -3    3   18      3.38      0.00
    9    3   18      1.78      0.00
   10    3   18     -7.16      0.00
   11    3   18      3.21      0.00
   12    3   18      0.36      0.00
   -3    4   18     -0.87      0.00
   10    4   18     -5.69      0.00
   11    4   18      6.86      0.00
   12    4   18      0.76      0.00
   -2    5   18     -1.06      0.00
   10    5   18     -0.99      0.00
   11    5   18     -0.40      0.00
   12    5   18     -2.60      0.00
   -2    6   18     -0.56      0.00
   11    6   18      4.76      0.00
   12    6   18     -0.96      0.00
   -1    7   18      2.17      0.00
   11    7   18     -3.00      0.00
   12    7   18      0.88      0.00
    0    8   18      2.87      0.00
   11    8   18      2.05      0.00
    1    9   18      1.54      0.00
    2    9   18      1.01      0.00
   10    9   18     -4.79      0.00
    3   10   18      1.54      0.00
    4   10   18     -6.40      0.00
    8   10   18     -0.19      0.00
    9   10   18     -4.14      0.00
    5   11   18      2.43      0.00
    6   11   18     -4.42      0.00
    7   11   18      5.51      0.00
    1   -6   19     -1.36      0.00
    2   -6   19      1.85      0.00
    3   -6   19     -1.39      0.00
    4   -6   19      2.12      0.00
    5   -6   19     -1.24      0.00
    6   -6   19      1.58      0.00
    0   -5   19      4.03      0.00
    1   -5   19      0.09      0.00
    5   -5   19     -1.37      0.00
    6   -5   19      1.14      0.00
    7   -5   19     -2.50      0.00
   -1   -4   19      4.08      0.00
    0   -4   19     -0.10      0.00
    6   -4   19     -0.36      0.00
    7   -4   19      0.16      0.00
    8   -4   19      1.74      0.00
   -1   -3   19     -1.01      0.00
    6   -3   19      1.52      0.00
    7   -3   19      0.94      0.00
    8   -3   19     -0.96      0.00
    9   -3   19     -0.85      0.00
   -2   -2   19      1.19      0.00
   -1   -2   19      4.66      0.00
    7   -2   19      0.52      0.00
    8   -2   19     -0.24      0.00
    9   -2   19     -1.27      0.00
   10   -2   19      1.85      0.00
   -2   -1   19      1.60      0.00
    7   -1   19     -0.30      0.00
    8   -1   19      1.67      0.00
    9   -1   19      1.29      0.00
   10   -1   19     -2.47      0.00
   -2    0   19      8.77      0.00
    8    0   19     -0.87      0.00
    9    0   19      1.01      0.00
   10    0   19      3.62      0.00
   -2    1   19     -2.28      0.00
   -1    1   19     -3.38      0.00
    8    1   19      3.77      0.00
    9    1   19      1.74      0.00
   10    1   19     -4.19      0.00
   11    1   19     -0.24      0.00
   -1    2   19     -2.48      0.00
    9    2   19      0.62      0.00
   10    2   19     -4.16      0.00
   11    2   19      1.72      0.00
   -1    3   19      2.99      0.00
    9    3   19      4.05      0.00
   10    3   19     -3.67      0.00
   11    3   19      2.77      0.00
   -1    4   19     -2.56      0.00
    0    4   19      1.92      0.00
   10    4   19     -2.67      0.00
   11    4   19     -0.45      0.00
    0    5   19     -3.37      0.00
   10    5   19     -1.05      0.00
   11    5   19      2.96      0.00
    1    6   19      1.36      0.00
   10    6   19     -1.40      0.00
    1    7   19      0.10      0.00
    2    7   19     -2.28      0.00
    9    7   19     -2.07      0.00
   10    7   19      4.99      0.00
    3    8   19     -0.25      0.00
    4    8   19     -0.56      0.00
    5    8   19      3.57      0.00
    6    8   19     -0.55      0.00
    7    8   19      2.85      0.00
    8    8   19     -1.02      0.00
    9    8   19     -0.96      0.00
    5    9   19      2.14      0.00
    6    9   19     -1.06      0.00
    7    9   19      0.47      0.00
    2   -3   20      0.21      0.00
    3   -3   20      0.54      0.00
    4   -3   20     -4.68      0.00
    5   -3   20      0.75      0.00
    6   -3   20     -3.46      0.00
    2   -2   20      0.70      0.00
    3   -2   20     -2.98      0.00
    4   -2   20      2.81      0.00
    5   -2   20      2.76      0.00
    6   -2   20     -2.98      0.00
    7   -2   20      1.38      0.00
    1   -1   20     -1.16      0.00
    2   -1   20     -1.40      0.00
    3   -1   20     -1.75      0.00
    6   -1   20     -2.13      0.00
    7   -1   20      2.96      0.00
    8   -1   20     -0.76      0.00
    1    0   20     -0.94      0.00
    2    0   20      4.65      0.00
    7    0   20     -0.45      0.00
    8    0   20      1.28      0.00
    1    1   20     -2.20      0.00
    2    1   20      3.54      0.00
    7    1   20     -4.90      0.00
    8    1   20      1.07      0.00
    1    2   20      3.85      0.00
    2    2   20      1.43      0.00
    7    2   20     -2.77      0.00
    8    2   20      6.67      0.00
    9    2   20     -0.96      0.00
    2    3   20      0.05      0.00
    3    3   20     -6.26      0.00
    7    3   20      1.47      0.00
    8    3   20      0.66      0.00
    9    3   20     -3.24      0.00
    2    4   20     -4.11      0.00
    3    4   20     -1.09      0.00
    4    4   20      3.76      0.00
    5    4   20      0.58      0.00
    6    4   20      1.88      0.00
    7    4   20      3.03      0.00
    8    4   20     -0.03      0.00
    3    5   20      0.97      0.00
    4    5   20      4.55      0.00
    5    5   20     -6.07      0.00
    6    5   20     -4.22      0.00
    7    5   20      2.76      0.00
    8    5   20      1.08      0.00
    5    6   20     -2.83      0.00
    6    6   20     -0.56      0.00
    7    6   20      5.87      0.00
    0    0    0      0.00      0.00
# SQUEEZE RESULTS (Version =  90522)
# Note: Data are Listed for all Voids in the P1 Unit Cell
# i.e. Centre of Gravity, Solvent Accessible Volume,
# Recovered number of Electrons in the Void and
# Details about the Squeezed Material
loop_
  _platon_squeeze_void_nr
  _platon_squeeze_void_average_x
  _platon_squeeze_void_average_y
  _platon_squeeze_void_average_z
  _platon_squeeze_void_volume
  _platon_squeeze_void_count_electrons
  _platon_squeeze_void_content
   1  0.055  0.415  0.415      1018       379 ' '
   2  0.069  0.931  0.857         7         0 ' '
   3  0.930  0.069  0.143         7         0 ' '
# Missing Reflections Below sin(th)/lambda = 0.25
loop_
  _platon_missing_refln_index_h
  _platon_missing_refln_index_k
  _platon_missing_refln_index_l
  _platon_missing_refln_theta
    1    0    0     1.575
    3    0    0     4.731
   -4    1    0     6.718
   -1    1    0     2.266
    0    1    0     1.340
    1    1    0     1.850
    2    1    0     3.165
    3    1    0     4.648
    1    2    0     2.821
    2    2    0     3.701
    3    2    0     4.943
    4    2    0     6.340
   -2    3    0     5.597
    6    3    0     9.534
   -4    4    0     9.101
   -3    4    0     7.857
   -1    4    0     5.896
    0    4    0     5.368
    0    5    0     6.715
   -1    6    0     8.532
   -1    7    0     9.870
   -2   -2    1     4.223
   -3   -1    1     5.182
   -2   -1    1     3.758
   -1   -1    1     2.527
    0   -1    1     1.904
   -2    0    1     3.743
    0    0    1     1.341
    1    0    1     1.774
    5    0    1     7.649
   -2    1    1     4.183
   -1    1    1     2.836
    0    1    1     1.888
    3    1    1     4.468
    4    1    1     5.952
    1    2    1     2.926
    2    2    1     3.629
    3    2    1     4.771
    4    2    1     6.113
   -3    3    1     7.182
   -2    3    1     5.943
    1    5    1     6.617
    2    7    1     9.272
    1   -2    2     4.056
    1   -1    2     3.183
    2   -1    2     4.022
    1    0    2     2.722
    2    0    2     3.550
   -2    1    2     5.016
   -1    1    2     3.815
    0    1    2     2.989
    2    1    2     3.552
    5    1    2     7.460
   -1    2    2     4.556
    0    2    2     3.778
    1    2    2     3.573
    2    2    2     4.030
   -2    6    2     9.857
    1   -1    3     4.247
    2    0    3     4.398
    1    1    3     4.017
    2    1    3     4.397
    2    2    3     4.789
    3    3    3     6.051
    0   -1    4     5.548
    1    0    4     5.175
    1    1    4     5.254
    0   -1    5     6.864
    1    0    5     6.476
    3    0    5     7.109
    1    1    5     6.537
    1    1    6     7.845
_platon_squeeze_void_probe_radius                  1.20
_platon_squeeze_details
)
TITL 20janbm in P -1
CELL   13.7330   15.5530   15.7990     86.17     73.99     77.70
SPGR P-1
# Solvent Accessible Volume =      1030
# Electrons Found in S.A.V. =       377
# Note: Atoms in Void are Labelled as Cxxx and Qxxx for all Others
C101 0.251 0.136 0.487 !       6.45 eA-3
C102 0.327 0.138 0.400 !       6.13 eA-3
C103 0.786 0.779 0.483 !       5.86 eA-3
C104 0.247 0.299 0.470 !       5.20 eA-3
C105 0.317 0.293 0.406 !       5.11 eA-3
C106 0.368 0.204 0.359 !       4.58 eA-3
C107 0.403 0.498 0.494 !       4.04 eA-3
C108 0.432 0.984 0.074 !       3.76 eA-3
C109 0.530 0.901 0.051 !       3.73 eA-3
C110 0.227 0.577 0.411 !       3.68 eA-3
C111 0.474 0.429 0.484 !       3.62 eA-3
C112 0.946 0.325 0.498 !       3.59 eA-3
C113 0.417 0.067 0.037 !       3.39 eA-3
C114 0.201 0.606 0.386 !       3.38 eA-3
Q115 0.249 0.092 0.021 !       3.18 eA-3
C116 0.579 0.431 0.484 !       3.18 eA-3
Q117 0.335 0.962 0.090 !       3.13 eA-3
C118 0.390 0.105 0.120 !       3.09 eA-3
C119 0.152 0.539 0.405 !       2.99 eA-3
Q120 0.262 0.017 0.027 !       2.80 eA-3
C121 0.718 0.358 0.505 !       2.65 eA-3
C122 0.028 0.596 0.485 !       2.57 eA-3
C123 0.652 0.472 0.468 !       2.56 eA-3
C124 0.360 0.102 0.073 !       2.54 eA-3
Q125 0.487 0.112 0.141 !       2.50 eA-3
C126 0.245 0.513 0.431 !       2.49 eA-3
C127 0.188 0.674 0.424 !       2.48 eA-3
C128 0.237 0.538 0.407 !       2.46 eA-3
C129 0.876 0.319 0.497 !       2.44 eA-3
C130 0.203 0.664 0.492 !       2.42 eA-3
C131 0.671 0.387 0.505 !       2.32 eA-3
C132 0.362 0.018 0.116 !       2.26 eA-3
Q133 0.251 0.531 0.151 !       2.26 eA-3
C134 0.669 0.515 0.478 !       2.24 eA-3
C135 0.500 0.500 0.500 !       2.24 eA-3
Q136 0.830 1.000 0.410 !       2.18 eA-3
C137 0.237 0.654 0.455 !       2.13 eA-3
C138 0.325 0.093 0.268 !       2.10 eA-3
C139 0.330 0.500 0.454 !       2.04 eA-3
C140 0.372 0.405 0.502 !       2.04 eA-3
C141 0.158 0.577 0.332 !       2.00 eA-3
C142 0.639 0.537 0.466 !       1.98 eA-3
Q143 0.075 0.910 0.406 !       1.97 eA-3
Q144 0.877 0.847 0.033 !       1.96 eA-3
C145 0.346 0.441 0.490 !       1.95 eA-3
C146 0.266 0.633 0.467 !       1.95 eA-3
C147 0.363 0.116 0.314 !       1.93 eA-3
Q148 0.362 0.886 0.353 !       1.93 eA-3
C149 0.514 0.931 0.113 !       1.90 eA-3
Q150 0.531 0.514 0.185 !       1.90 eA-3
C151 0.314 0.488 0.402 !       1.89 eA-3
C152 0.093 0.545 0.453 !       1.88 eA-3
Q153 0.869 0.999 0.354 !       1.86 eA-3
Q154 0.264 0.137 0.137 !       1.86 eA-3
Q155 0.880 0.490 0.317 !       1.85 eA-3
C156 0.059 0.627 0.437 !       1.83 eA-3
Q157 0.499 0.856 0.115 !       1.83 eA-3
Q158 0.356 0.156 0.030 !       1.82 eA-3
Q159 0.283 0.098 0.184 !       1.79 eA-3
Q160 0.236 0.791 0.171 !       1.79 eA-3
Q161 0.698 0.326 0.004 !       1.77 eA-3
C162 0.293 0.596 0.454 !       1.77 eA-3
C163 0.287 0.225 0.403 !       1.76 eA-3
Q164 0.593 0.082 0.381 !       1.76 eA-3
C165 0.388 0.929 0.148 !       1.75 eA-3
C166 0.345 0.092 0.201 !       1.74 eA-3
Q167 0.464 0.130 0.078 !       1.74 eA-3
C168 0.124 0.624 0.385 !       1.74 eA-3
Q169 0.751 0.372 0.203 !       1.74 eA-3
Q170 0.998 0.446 0.175 !       1.72 eA-3
Q171 0.804 0.419 0.160 !       1.72 eA-3
C172 0.314 0.028 0.106 !       1.71 eA-3
Q173 0.577 0.766 0.420 !       1.69 eA-3
Q174 0.863 0.784 0.071 !       1.66 eA-3
Q175 0.607 0.953 0.430 !       1.66 eA-3
C176 0.283 0.486 0.461 !       1.65 eA-3
Q177 0.161 0.782 0.270 !       1.65 eA-3
C178 0.860 0.774 0.405 !       1.65 eA-3
Q179 0.340 0.858 0.121 !       1.64 eA-3
Q180 0.159 0.442 0.268 !       1.62 eA-3
C181 0.174 0.472 0.357 !       1.62 eA-3
C182 0.503 0.461 0.424 !       1.62 eA-3
C183 0.377 0.157 0.299 !       1.61 eA-3
Q184 0.267 0.128 0.061 !       1.59 eA-3
Q185 0.278 0.545 0.185 !       1.59 eA-3
Q186 0.160 0.081 0.256 !       1.58 eA-3
Q187 0.552 0.449 0.077 !       1.58 eA-3
C188 0.389 0.152 0.230 !       1.57 eA-3
Q189 0.483 0.066 0.109 !       1.56 eA-3
C190 0.280 0.069 0.128 !       1.55 eA-3
C191 0.502 0.987 0.136 !       1.55 eA-3
Q192 0.564 0.576 0.090 !       1.55 eA-3
C193 0.176 0.734 0.474 !       1.55 eA-3
Q194 0.343 0.149 0.256 !       1.55 eA-3
Q195 0.267 0.476 0.202 !       1.54 eA-3
Q196 0.579 0.526 0.122 !       1.54 eA-3
Q197 0.082 0.426 0.316 !       1.53 eA-3
Q198 0.577 0.851 0.079 !       1.53 eA-3
C199 0.048 0.533 0.471 !       1.53 eA-3
)
;
_shelx_fab_checksum              2832
loop_
_space_group_symop_operation_xyz
'x, y, z'
'-x, -y, -z'
loop_
_atom_site_label
_atom_site_type_symbol
_atom_site_fract_x
_atom_site_fract_y
_atom_site_fract_z
_atom_site_U_iso_or_equiv
_atom_site_adp_type
_atom_site_occupancy
_atom_site_site_symmetry_order
_atom_site_calc_flag
_atom_site_refinement_flags_posn
_atom_site_refinement_flags_adp
_atom_site_refinement_flags_occupancy
_atom_site_disorder_assembly
_atom_site_disorder_group
Br1 Br -0.32651(8) 0.32347(7) 0.99978(8) 0.0384(3) Uani 1 1 d . . . . .
Br2 Br -0.24827(8) 0.23406(8) 0.79424(9) 0.0483(4) Uani 1 1 d . . . . .
Br3 Br 0.16883(8) -0.04170(7) 0.65807(9) 0.0438(4) Uani 1 1 d . . . . .
Br4 Br 0.41062(8) 0.00169(7) 0.62639(8) 0.0434(3) Uani 1 1 d . . . . .
Br5 Br 0.49704(8) 0.36506(7) 0.71180(7) 0.0375(3) Uani 1 1 d . . . . .
Br6 Br 0.43003(8) 0.44397(7) 0.92145(8) 0.0396(3) Uani 1 1 d . . . . .
Br7 Br 0.17043(9) 0.27675(8) 1.26023(8) 0.0424(3) Uani 1 1 d . . . . .
Br8 Br -0.07467(9) 0.24592(7) 1.28794(8) 0.0407(3) Uani 1 1 d . . . . .
Fe1 Fe 0.12938(10) 0.23174(8) 0.90439(10) 0.0247(4) Uani 1 1 d . . . . .
N1 N -0.0130(6) 0.2176(5) 0.9160(6) 0.0254(19) Uani 1 1 d . . . . .
N2 N 0.1761(5) 0.1776(5) 0.7857(5) 0.0236(19) Uani 1 1 d . . . . .
N3 N 0.2687(6) 0.2595(5) 0.8882(5) 0.028(2) Uani 1 1 d . . . . .
N4 N 0.0888(6) 0.2719(5) 1.0270(6) 0.028(2) Uani 1 1 d . . . . .
C1 C -0.0993(7) 0.2545(6) 0.9831(7) 0.029(2) Uani 1 1 d . . . . .
C2 C -0.1901(7) 0.2638(6) 0.9490(8) 0.033(3) Uani 1 1 d . . . . .
C3 C -0.1594(7) 0.2262(6) 0.8665(8) 0.031(3) Uani 1 1 d . . . . .
C4 C -0.0489(7) 0.1957(6) 0.8487(7) 0.029(3) Uani 1 1 d . . . . .
C5 C 0.0126(7) 0.1408(6) 0.7795(7) 0.024(2) Uani 1 1 d . U . . .
C6 C 0.1213(7) 0.1255(6) 0.7589(7) 0.028(2) Uani 1 1 d . . . . .
C7 C 0.1941(7) 0.0592(6) 0.6991(8) 0.032(3) Uani 1 1 d . U . . .
C8 C 0.2895(7) 0.0762(6) 0.6878(7) 0.029(2) Uani 1 1 d . . . . .
C9 C 0.2775(7) 0.1526(6) 0.7391(7) 0.025(2) Uani 1 1 d . . . . .
C10 C 0.3540(7) 0.2006(6) 0.7387(7) 0.029(2) Uani 1 1 d . . . . .
C11 C 0.3412(7) 0.2580(6) 0.8071(7) 0.025(2) Uani 1 1 d . . . . .
C12 C 0.4046(7) 0.3209(6) 0.8100(7) 0.028(2) Uani 1 1 d . . . . .
C13 C 0.3743(7) 0.3536(6) 0.8883(7) 0.031(3) Uani 1 1 d . . . . .
C14 C 0.2905(7) 0.3143(6) 0.9415(7) 0.031(3) Uani 1 1 d . . . . .
C15 C 0.2478(7) 0.3166(6) 1.0321(6) 0.026(2) Uani 1 1 d . . . . .
C16 C 0.1563(8) 0.2873(6) 1.0739(7) 0.030(2) Uani 1 1 d . . . . .
C17 C 0.1096(8) 0.2799(6) 1.1680(7) 0.031(2) Uani 1 1 d . . . . .
C18 C 0.0127(8) 0.2654(6) 1.1766(7) 0.031(3) Uani 1 1 d . . . . .
C19 C -0.0039(7) 0.2640(6) 1.0897(7) 0.033(3) Uani 1 1 d . . . . .
C20 C -0.0951(7) 0.2665(6) 1.0696(7) 0.027(2) Uani 1 1 d . . . . .
C21 C -0.1948(4) 0.2858(4) 1.1412(4) 0.035(3) Uani 1 1 d G . . . .
C22 C -0.2361(5) 0.3711(4) 1.1720(5) 0.039(3) Uani 1 1 d G . . . .
H22A H -0.203244 0.417894 1.145865 0.047 Uiso 1 1 calc R U . . .
C23 C -0.3256(5) 0.3878(4) 1.2411(5) 0.045(3) Uani 1 1 d G . . . .
H23A H -0.353897 0.446125 1.262217 0.054 Uiso 1 1 calc R U . . .
C24 C -0.3738(4) 0.3193(5) 1.2794(4) 0.057(4) Uani 1 1 d G . . . .
H24A H -0.434934 0.330779 1.326652 0.068 Uiso 1 1 calc R U . . .
C25 C -0.3324(5) 0.2340(5) 1.2486(5) 0.054(4) Uani 1 1 d G . . . .
H25A H -0.365316 0.187202 1.274736 0.065 Uiso 1 1 calc R U . . .
C26 C -0.2429(5) 0.2173(4) 1.1795(5) 0.045(3) Uani 1 1 d G . . . .
H26A H -0.214662 0.158970 1.158384 0.054 Uiso 1 1 calc R U . . .
C27 C -0.0380(5) 0.0964(4) 0.7265(5) 0.043(3) Uani 1 1 d G . . . .
C28 C -0.0852(6) 0.0270(5) 0.7634(5) 0.050(4) Uani 1 1 d G . . . .
H28A H -0.091250 0.011463 0.823594 0.060 Uiso 1 1 calc R U . . .
C29 C -0.1236(6) -0.0198(4) 0.7124(7) 0.072(5) Uani 1 1 d G . . . .
H29A H -0.155914 -0.067194 0.737707 0.086 Uiso 1 1 calc R U . . .
C30 C -0.1148(6) 0.0029(6) 0.6244(6) 0.094(7) Uani 1 1 d G . . . .
H30A H -0.141096 -0.029021 0.589556 0.112 Uiso 1 1 calc R U . . .
C31 C -0.0676(6) 0.0723(6) 0.5874(5) 0.075(5) Uani 1 1 d G . . . .
H31A H -0.061615 0.087811 0.527291 0.090 Uiso 1 1 calc R U . . .
C32 C -0.0292(5) 0.1190(4) 0.6385(5) 0.049(3) Uani 1 1 d G . . . .
H32A H 0.003050 0.166469 0.613177 0.059 Uiso 1 1 calc R U . . .
C33 C 0.4543(4) 0.1826(5) 0.6715(5) 0.040(3) Uani 1 1 d G . . . .
C34 C 0.4612(6) 0.1995(6) 0.5827(5) 0.068(5) Uani 1 1 d G . . . .
H34A H 0.400250 0.221008 0.564135 0.082 Uiso 1 1 calc R U . . .
C35 C 0.5573(9) 0.1847(7) 0.5212(5) 0.081(6) Uani 1 1 d G . . . .
H35A H 0.561989 0.196237 0.460536 0.097 Uiso 1 1 calc R U . . .
C36 C 0.6465(6) 0.1532(7) 0.5484(7) 0.098(7) Uani 1 1 d G . . . .
H36A H 0.712142 0.143163 0.506356 0.117 Uiso 1 1 calc R U . . .
C37 C 0.6396(5) 0.1364(6) 0.6372(8) 0.096(6) Uani 1 1 d G U . . .
H37A H 0.700558 0.114859 0.655774 0.115 Uiso 1 1 calc R U . . .
C38 C 0.5435(6) 0.1511(5) 0.6987(5) 0.058(4) Uani 1 1 d G . . . .
H38A H 0.538819 0.139629 0.759374 0.070 Uiso 1 1 calc R U . . .
C39 C 0.2964(5) 0.3601(5) 1.0882(5) 0.036(3) Uani 1 1 d G . . . .
C40 C 0.3887(5) 0.3169(5) 1.1053(5) 0.047(3) Uani 1 1 d G . . . .
H40A H 0.421557 0.260325 1.081260 0.056 Uiso 1 1 calc R U . . .
C41 C 0.4329(5) 0.3563(7) 1.1577(5) 0.066(5) Uani 1 1 d G . . . .
H41A H 0.495906 0.326797 1.169381 0.079 Uiso 1 1 calc R U . . .
C42 C 0.3848(7) 0.4391(7) 1.1929(5) 0.074(5) Uani 1 1 d G . . . .
H42A H 0.414942 0.466055 1.228697 0.089 Uiso 1 1 calc R U . . .
C43 C 0.2925(7) 0.4823(5) 1.1758(5) 0.058(4) Uani 1 1 d G . . . .
H43A H 0.259628 0.538841 1.199892 0.070 Uiso 1 1 calc R U . . .
C44 C 0.2483(5) 0.4428(5) 1.1235(5) 0.048(3) Uani 1 1 d G . . . .
H44A H 0.185276 0.472370 1.111773 0.057 Uiso 1 1 calc R U . . .
N5 N 0.1706(6) 0.1107(4) 0.9468(6) 0.046(3) Uani 1 1 d G U . . .
C45 C 0.1036(6) 0.0524(5) 0.9859(8) 0.083(5) Uani 1 1 d G U . . .
H45A H 0.030506 0.067972 1.007619 0.100 Uiso 1 1 calc R U . . .
C46 C 0.1652(9) -0.0333(4) 0.9869(8) 0.102(7) Uani 1 1 d G U . . .
H46A H 0.140492 -0.085146 1.009422 0.123 Uiso 1 1 calc R U . . .
N6 N 0.2702(7) -0.0280(5) 0.9484(9) 0.131(7) Uani 1 1 d G U . . .
C47 C 0.2735(5) 0.0610(6) 0.9236(9) 0.110(7) Uani 1 1 d G U . . .
H47A H 0.334001 0.083364 0.896351 0.131 Uiso 1 1 calc R U . . .
C48 C 0.3561(17) -0.0944(11) 0.9279(17) 0.146(10) Uani 1 1 d . . . . .
H48A H 0.417884 -0.069056 0.905102 0.219 Uiso 1 1 calc R U . . .
H48B H 0.350090 -0.132048 0.883061 0.219 Uiso 1 1 calc R U . . .
H48C H 0.361635 -0.129443 0.980876 0.219 Uiso 1 1 calc R U . . .
N7 N 0.0914(5) 0.3491(3) 0.8571(4) 0.0256(19) Uani 1 1 d G . . . .
C49 C 0.0420(6) 0.4268(4) 0.9066(4) 0.049(3) Uani 1 1 d G U . . .
H49A H 0.018269 0.430371 0.968917 0.059 Uiso 1 1 calc R U . . .
C50 C 0.0343(6) 0.4983(3) 0.8464(5) 0.041(3) Uani 1 1 d G . . . .
H50A H 0.004487 0.558136 0.861420 0.050 Uiso 1 1 calc R U . . .
N8 N 0.0789(7) 0.4648(4) 0.7598(4) 0.067(3) Uani 1 1 d G . . . .
C51 C 0.1142(7) 0.3725(4) 0.7664(4) 0.067(4) Uani 1 1 d G . . . .
H51A H 0.147212 0.333371 0.718593 0.080 Uiso 1 1 calc R U . . .
C52 C 0.0934(19) 0.5142(10) 0.6823(11) 0.125(8) Uani 1 1 d . U . . .
H52A H 0.085653 0.576162 0.696268 0.188 Uiso 1 1 calc R U . . .
H52B H 0.041878 0.508501 0.651887 0.188 Uiso 1 1 calc R U . . .
H52C H 0.163005 0.492742 0.644230 0.188 Uiso 1 1 calc R U . . .
loop_
_atom_site_aniso_label
_atom_site_aniso_U_11
_atom_site_aniso_U_22
_atom_site_aniso_U_33
_atom_site_aniso_U_23
_atom_site_aniso_U_13
_atom_site_aniso_U_12
Br1 0.0243(5) 0.0317(6) 0.0485(7) -0.0034(5) 0.0018(5) 0.0034(5)
Br2 0.0229(6) 0.0498(8) 0.0728(9) -0.0308(7) -0.0073(6) -0.0067(5)
Br3 0.0322(6) 0.0233(6) 0.0726(9) -0.0235(5) -0.0019(6) -0.0078(5)
Br4 0.0255(6) 0.0367(7) 0.0618(9) -0.0247(6) -0.0005(5) -0.0002(5)
Br5 0.0351(6) 0.0360(6) 0.0406(7) -0.0056(5) 0.0010(5) -0.0189(5)
Br6 0.0436(7) 0.0354(6) 0.0452(7) -0.0067(5) -0.0077(5) -0.0232(5)
Br7 0.0365(6) 0.0499(7) 0.0370(7) 0.0026(5) -0.0065(5) -0.0054(5)
Br8 0.0405(7) 0.0338(6) 0.0403(7) 0.0026(5) 0.0023(5) -0.0099(5)
Fe1 0.0195(7) 0.0129(7) 0.0386(9) -0.0047(6) -0.0002(6) -0.0052(6)
N1 0.019(4) 0.014(4) 0.044(6) -0.010(4) -0.005(4) -0.007(3)
N2 0.015(4) 0.015(4) 0.040(5) -0.009(4) -0.001(4) -0.007(3)
N3 0.030(5) 0.023(5) 0.028(5) -0.005(4) -0.002(4) -0.008(4)
N4 0.025(4) 0.012(4) 0.042(6) -0.005(4) 0.000(4) -0.002(3)
C1 0.014(5) 0.022(5) 0.047(7) -0.004(5) 0.000(5) -0.008(4)
C2 0.016(5) 0.019(5) 0.063(8) 0.003(5) -0.003(5) -0.009(4)
C3 0.012(5) 0.022(5) 0.056(8) -0.012(5) -0.003(5) -0.004(4)
C4 0.023(5) 0.010(5) 0.050(7) -0.004(4) -0.001(5) -0.005(4)
C5 0.025(5) 0.013(4) 0.038(5) -0.009(4) -0.007(4) -0.011(4)
C6 0.024(5) 0.022(5) 0.036(6) -0.007(4) 0.002(5) -0.009(4)
C7 0.024(5) 0.007(5) 0.061(7) -0.006(4) -0.006(5) -0.002(4)
C8 0.029(5) 0.017(5) 0.042(7) -0.008(4) -0.008(5) -0.003(4)
C9 0.023(5) 0.007(4) 0.042(6) -0.008(4) 0.000(5) -0.006(4)
C10 0.028(5) 0.027(6) 0.033(6) -0.001(4) -0.007(5) -0.006(5)
C11 0.029(5) 0.016(5) 0.030(6) -0.003(4) -0.005(5) -0.005(4)
C12 0.021(5) 0.027(6) 0.035(7) 0.003(5) 0.002(5) -0.018(4)
C13 0.017(5) 0.027(6) 0.046(7) 0.001(5) -0.004(5) -0.009(4)
C14 0.016(5) 0.023(5) 0.053(7) -0.011(5) -0.005(5) -0.003(4)
C15 0.019(5) 0.032(6) 0.022(6) -0.005(4) 0.002(4) -0.004(4)
C16 0.034(6) 0.017(5) 0.038(7) -0.002(4) -0.006(5) -0.008(5)
C17 0.032(6) 0.026(6) 0.035(7) -0.005(5) -0.011(5) -0.005(5)
C18 0.032(6) 0.023(6) 0.032(7) -0.004(4) 0.001(5) -0.006(5)
C19 0.027(5) 0.020(5) 0.040(7) -0.004(5) 0.009(5) -0.004(4)
C20 0.020(5) 0.014(5) 0.046(7) 0.000(4) -0.008(5) -0.004(4)
C21 0.021(5) 0.032(6) 0.049(7) -0.003(5) -0.010(5) 0.001(5)
C22 0.023(5) 0.046(7) 0.044(7) 0.003(5) -0.010(5) 0.004(5)
C23 0.033(6) 0.046(8) 0.042(8) -0.010(6) -0.010(6) 0.021(6)
C24 0.020(6) 0.065(10) 0.068(10) 0.004(7) 0.003(6) 0.009(6)
C25 0.021(6) 0.090(11) 0.039(8) 0.026(7) 0.003(5) -0.006(6)
C26 0.027(6) 0.051(8) 0.043(8) 0.000(6) 0.007(5) -0.002(5)
C27 0.024(6) 0.030(6) 0.070(9) -0.033(6) 0.001(6) -0.004(5)
C28 0.030(6) 0.044(7) 0.080(10) -0.026(7) -0.002(6) -0.025(6)
C29 0.038(7) 0.054(9) 0.121(14) -0.054(9) 0.003(8) -0.021(7)
C30 0.030(7) 0.140(16) 0.116(15) -0.095(13) 0.008(8) -0.035(9)
C31 0.036(7) 0.115(14) 0.069(11) -0.059(10) -0.004(7) -0.003(8)
C32 0.018(5) 0.060(8) 0.061(9) -0.032(7) 0.005(6) -0.001(5)
C33 0.022(6) 0.047(7) 0.050(8) -0.018(6) 0.004(5) -0.018(5)
C34 0.085(10) 0.095(11) 0.045(9) -0.015(8) -0.006(8) -0.074(9)
C35 0.110(13) 0.116(14) 0.025(8) -0.031(8) 0.014(8) -0.074(12)
C36 0.057(10) 0.093(13) 0.128(17) -0.059(12) 0.041(11) -0.052(10)
C37 0.039(8) 0.073(10) 0.165(15) -0.060(10) 0.012(9) -0.021(7)
C38 0.030(6) 0.042(8) 0.103(12) -0.044(8) -0.013(7) -0.002(6)
C39 0.026(6) 0.053(7) 0.029(6) -0.003(5) -0.002(5) -0.015(5)
C40 0.027(6) 0.070(9) 0.045(8) 0.008(6) -0.009(6) -0.017(6)
C41 0.046(8) 0.128(14) 0.041(9) 0.015(8) -0.013(7) -0.057(9)
C42 0.075(11) 0.114(14) 0.052(10) -0.005(9) -0.003(8) -0.075(11)
C43 0.084(10) 0.045(8) 0.052(9) -0.007(6) -0.003(8) -0.040(8)
C44 0.055(8) 0.040(7) 0.044(8) -0.013(6) 0.003(6) -0.018(6)
N5 0.045(5) 0.023(5) 0.053(7) 0.000(4) 0.010(5) -0.003(4)
C45 0.111(8) 0.031(6) 0.106(13) 0.024(8) -0.017(10) -0.037(6)
C46 0.117(11) 0.033(7) 0.111(15) 0.004(8) 0.031(12) 0.004(7)
N6 0.130(9) 0.032(7) 0.199(19) 0.030(9) -0.012(13) 0.000(7)
C47 0.075(8) 0.057(9) 0.168(19) 0.049(11) -0.015(12) 0.011(7)
C48 0.15(2) 0.040(11) 0.26(3) -0.008(14) -0.11(2) 0.027(12)
N7 0.023(4) 0.023(4) 0.031(5) -0.004(4) 0.000(4) -0.012(4)
C49 0.051(6) 0.019(5) 0.058(7) -0.010(5) 0.004(5) 0.014(5)
C50 0.040(7) 0.026(6) 0.055(8) -0.009(5) -0.013(6) 0.001(5)
N8 0.087(9) 0.018(5) 0.082(9) 0.006(5) -0.018(7) 0.015(6)
C51 0.104(12) 0.030(7) 0.049(9) -0.003(6) -0.006(8) 0.006(7)
C52 0.25(2) 0.043(10) 0.063(11) 0.015(8) -0.050(13) 0.017(12)
loop_
_atom_type_symbol
_atom_type_description
_atom_type_scat_dispersion_real
_atom_type_scat_dispersion_imag
_atom_type_scat_source
C C 0.0033 0.0016 'International Tables Vol C Tables 4.2.6.8 and 6.1.1.4'
H H 0.0000 0.0000 'International Tables Vol C Tables 4.2.6.8 and 6.1.1.4'
N N 0.0061 0.0033 'International Tables Vol C Tables 4.2.6.8 and 6.1.1.4'
Fe Fe 0.3463 0.8444 'International Tables Vol C Tables 4.2.6.8 and 6.1.1.4'
Br Br -0.2901 2.4595 'International Tables Vol C Tables 4.2.6.8 and 6.1.1.4'
loop_
_geom_angle_atom_site_label_1
_geom_angle_atom_site_label_2
_geom_angle_atom_site_label_3
_geom_angle
_geom_angle_site_symmetry_1
_geom_angle_site_symmetry_3
_geom_angle_publ_flag
N7 Fe1 N4 93.9(3) . . ?
N7 Fe1 N1 87.7(3) . . ?
N4 Fe1 N1 90.3(3) . . ?
N7 Fe1 N5 177.4(3) . . ?
N4 Fe1 N5 88.7(4) . . ?
N1 Fe1 N5 92.6(3) . . ?
N7 Fe1 N2 92.6(3) . . ?
N4 Fe1 N2 173.5(3) . . ?
N1 Fe1 N2 90.5(3) . . ?
N5 Fe1 N2 84.8(3) . . ?
N7 Fe1 N3 86.1(3) . . ?
N4 Fe1 N3 89.7(3) . . ?
N1 Fe1 N3 173.8(3) . . ?
N5 Fe1 N3 93.7(3) . . ?
N2 Fe1 N3 90.2(3) . . ?
C4 N1 C1 107.3(8) . . ?
C4 N1 Fe1 125.3(6) . . ?
C1 N1 Fe1 124.5(6) . . ?
C9 N2 C6 107.3(7) . . ?
C9 N2 Fe1 124.4(6) . . ?
C6 N2 Fe1 122.2(6) . . ?
C14 N3 C11 107.5(8) . . ?
C14 N3 Fe1 124.2(6) . . ?
C11 N3 Fe1 123.3(6) . . ?
C16 N4 C19 106.6(9) . . ?
C16 N4 Fe1 125.7(6) . . ?
C19 N4 Fe1 125.1(7) . . ?
N1 C1 C20 123.3(9) . . ?
N1 C1 C2 107.1(9) . . ?
C20 C1 C2 129.0(9) . . ?
C3 C2 C1 108.8(8) . . ?
C3 C2 Br1 122.7(8) . . ?
C1 C2 Br1 128.3(8) . . ?
C2 C3 C4 105.2(9) . . ?
C2 C3 Br2 122.9(7) . . ?
C4 C3 Br2 131.2(8) . . ?
N1 C4 C5 123.2(9) . . ?
N1 C4 C3 111.2(9) . . ?
C5 C4 C3 125.1(9) . . ?
C4 C5 C6 121.1(8) . . ?
C4 C5 C27 119.6(8) . . ?
C6 C5 C27 119.3(8) . . ?
N2 C6 C5 124.5(8) . . ?
N2 C6 C7 108.5(8) . . ?
C5 C6 C7 126.7(9) . . ?
C8 C7 C6 107.1(8) . . ?
C8 C7 Br3 124.2(7) . . ?
C6 C7 Br3 128.1(7) . . ?
C7 C8 C9 107.2(8) . . ?
C7 C8 Br4 123.1(7) . . ?
C9 C8 Br4 129.3(7) . . ?
N2 C9 C10 123.2(8) . . ?
N2 C9 C8 109.6(7) . . ?
C10 C9 C8 127.1(9) . . ?
C11 C10 C9 120.9(9) . . ?
C11 C10 C33 118.6(8) . . ?
C9 C10 C33 120.0(8) . . ?
N3 C11 C10 124.9(8) . . ?
N3 C11 C12 107.6(8) . . ?
C10 C11 C12 127.3(9) . . ?
C13 C12 C11 107.7(8) . . ?
C13 C12 Br5 124.9(7) . . ?
C11 C12 Br5 126.4(8) . . ?
C12 C13 C14 109.6(9) . . ?
C12 C13 Br6 122.9(7) . . ?
C14 C13 Br6 127.4(8) . . ?
N3 C14 C15 122.5(9) . . ?
N3 C14 C13 107.3(9) . . ?
C15 C14 C13 129.4(9) . . ?
C14 C15 C16 123.2(9) . . ?
C14 C15 C39 118.7(8) . . ?
C16 C15 C39 117.8(8) . . ?
N4 C16 C15 122.0(9) . . ?
N4 C16 C17 109.8(8) . . ?
C15 C16 C17 127.7(9) . . ?
C18 C17 C16 106.1(9) . . ?
C18 C17 Br7 124.9(8) . . ?
C16 C17 Br7 128.6(7) . . ?
C17 C18 C19 109.2(9) . . ?
C17 C18 Br8 121.1(8) . . ?
C19 C18 Br8 129.6(7) . . ?
C20 C19 N4 124.0(10) . . ?
C20 C19 C18 127.7(9) . . ?
N4 C19 C18 107.9(9) . . ?
C19 C20 C1 122.2(9) . . ?
C19 C20 C21 119.2(9) . . ?
C1 C20 C21 118.6(8) . . ?
C22 C21 C26 120.0 . . ?
C22 C21 C20 120.2(5) . . ?
C26 C21 C20 119.7(5) . . ?
C21 C22 C23 120.0 . . ?
C21 C22 H22A 120.0 . . ?
C23 C22 H22A 120.0 . . ?
C22 C23 C24 120.0 . . ?
C22 C23 H23A 120.0 . . ?
C24 C23 H23A 120.0 . . ?
C25 C24 C23 120.0 . . ?
C25 C24 H24A 120.0 . . ?
C23 C24 H24A 120.0 . . ?
C24 C25 C26 120.0 . . ?
C24 C25 H25A 120.0 . . ?
C26 C25 H25A 120.0 . . ?
C25 C26 C21 120.0 . . ?
C25 C26 H26A 120.0 . . ?
C21 C26 H26A 120.0 . . ?
C28 C27 C32 120.0 . . ?
C28 C27 C5 119.6(6) . . ?
C32 C27 C5 120.1(6) . . ?
C27 C28 C29 120.0 . . ?
C27 C28 H28A 120.0 . . ?
C29 C28 H28A 120.0 . . ?
C28 C29 C30 120.0 . . ?
C28 C29 H29A 120.0 . . ?
C30 C29 H29A 120.0 . . ?
C29 C30 C31 120.0 . . ?
C29 C30 H30A 120.0 . . ?
C31 C30 H30A 120.0 . . ?
C32 C31 C30 120.0 . . ?
C32 C31 H31A 120.0 . . ?
C30 C31 H31A 120.0 . . ?
C31 C32 C27 120.0 . . ?
C31 C32 H32A 120.0 . . ?
C27 C32 H32A 120.0 . . ?
C34 C33 C38 120.0 . . ?
C34 C33 C10 121.3(7) . . ?
C38 C33 C10 118.7(7) . . ?
C33 C34 C35 120.0 . . ?
C33 C34 H34A 120.0 . . ?
C35 C34 H34A 120.0 . . ?
C34 C35 C36 120.0 . . ?
C34 C35 H35A 120.0 . . ?
C36 C35 H35A 120.0 . . ?
C37 C36 C35 120.0 . . ?
C37 C36 H36A 120.0 . . ?
C35 C36 H36A 120.0 . . ?
C36 C37 C38 120.0 . . ?
C36 C37 H37A 120.0 . . ?
C38 C37 H37A 120.0 . . ?
C37 C38 C33 120.0 . . ?
C37 C38 H38A 120.0 . . ?
C33 C38 H38A 120.0 . . ?
C40 C39 C44 120.0 . . ?
C40 C39 C15 119.9(6) . . ?
C44 C39 C15 120.1(6) . . ?
C39 C40 C41 120.0 . . ?
C39 C40 H40A 120.0 . . ?
C41 C40 H40A 120.0 . . ?
C42 C41 C40 120.0 . . ?
C42 C41 H41A 120.0 . . ?
C40 C41 H41A 120.0 . . ?
C41 C42 C43 120.0 . . ?
C41 C42 H42A 120.0 . . ?
C43 C42 H42A 120.0 . . ?
C42 C43 C44 120.0 . . ?
C42 C43 H43A 120.0 . . ?
C44 C43 H43A 120.0 . . ?
C43 C44 C39 120.0 . . ?
C43 C44 H44A 120.0 . . ?
C39 C44 H44A 120.0 . . ?
C47 N5 C45 108.0 . . ?
C47 N5 Fe1 123.9(5) . . ?
C45 N5 Fe1 126.5(5) . . ?
N5 C45 C46 108.0 . . ?
N5 C45 H45A 126.0 . . ?
C46 C45 H45A 126.0 . . ?
N6 C46 C45 108.0 . . ?
N6 C46 H46A 126.0 . . ?
C45 C46 H46A 126.0 . . ?
C48 N6 C46 129.2(12) . . ?
C48 N6 C47 122.5(12) . . ?
C46 N6 C47 108.0 . . ?
N5 C47 N6 108.0 . . ?
N5 C47 H47A 126.0 . . ?
N6 C47 H47A 126.0 . . ?
N6 C48 H48A 109.5 . . ?
N6 C48 H48B 109.5 . . ?
H48A C48 H48B 109.5 . . ?
N6 C48 H48C 109.5 . . ?
H48A C48 H48C 109.5 . . ?
H48B C48 H48C 109.5 . . ?
C49 N7 C51 108.0 . . ?
C49 N7 Fe1 126.5(4) . . ?
C51 N7 Fe1 125.4(4) . . ?
C50 C49 N7 108.0 . . ?
C50 C49 H49A 126.0 . . ?
N7 C49 H49A 126.0 . . ?
C49 C50 N8 108.0 . . ?
C49 C50 H50A 126.0 . . ?
N8 C50 H50A 126.0 . . ?
C52 N8 C50 126.1(9) . . ?
C52 N8 C51 125.7(9) . . ?
C50 N8 C51 108.0 . . ?
N8 C51 N7 108.0 . . ?
N8 C51 H51A 126.0 . . ?
N7 C51 H51A 126.0 . . ?
N8 C52 H52A 109.5 . . ?
N8 C52 H52B 109.5 . . ?
H52A C52 H52B 109.5 . . ?
N8 C52 H52C 109.5 . . ?
H52A C52 H52C 109.5 . . ?
H52B C52 H52C 109.5 . . ?
loop_
_geom_bond_atom_site_label_1
_geom_bond_atom_site_label_2
_geom_bond_distance
_geom_bond_site_symmetry_2
_geom_bond_publ_flag
Br1 C2 1.882(10) . ?
Br2 C3 1.868(11) . ?
Br3 C7 1.869(9) . ?
Br4 C8 1.867(9) . ?
Br5 C12 1.906(9) . ?
Br6 C13 1.901(10) . ?
Br7 C17 1.862(11) . ?
Br8 C18 1.883(10) . ?
Fe1 N7 1.946(5) . ?
Fe1 N4 1.968(9) . ?
Fe1 N1 1.971(7) . ?
Fe1 N5 1.975(6) . ?
Fe1 N2 1.989(8) . ?
Fe1 N3 1.995(8) . ?
N1 C4 1.377(13) . ?
N1 C1 1.399(12) . ?
N2 C9 1.369(11) . ?
N2 C6 1.374(11) . ?
N3 C14 1.367(12) . ?
N3 C11 1.387(12) . ?
N4 C16 1.400(13) . ?
N4 C19 1.405(12) . ?
C1 C20 1.410(15) . ?
C1 C2 1.466(14) . ?
C2 C3 1.384(14) . ?
C3 C4 1.444(12) . ?
C4 C5 1.395(13) . ?
C5 C6 1.408(13) . ?
C5 C27 1.505(10) . ?
C6 C7 1.458(13) . ?
C7 C8 1.353(13) . ?
C8 C9 1.437(12) . ?
C9 C10 1.411(12) . ?
C10 C11 1.398(13) . ?
C10 C33 1.474(11) . ?
C11 C12 1.453(12) . ?
C12 C13 1.293(14) . ?
C13 C14 1.449(13) . ?
C14 C15 1.389(14) . ?
C15 C16 1.403(13) . ?
C15 C39 1.512(11) . ?
C16 C17 1.456(14) . ?
C17 C18 1.366(14) . ?
C18 C19 1.454(15) . ?
C19 C20 1.367(14) . ?
C20 C21 1.504(11) . ?
C21 C22 1.3900 . ?
C21 C26 1.3900 . ?
C22 C23 1.3900 . ?
C22 H22A 0.9500 . ?
C23 C24 1.3900 . ?
C23 H23A 0.9500 . ?
C24 C25 1.3900 . ?
C24 H24A 0.9500 . ?
C25 C26 1.3900 . ?
C25 H25A 0.9500 . ?
C26 H26A 0.9500 . ?
C27 C28 1.3900 . ?
C27 C32 1.3900 . ?
C28 C29 1.3900 . ?
C28 H28A 0.9500 . ?
C29 C30 1.3900 . ?
C29 H29A 0.9500 . ?
C30 C31 1.3900 . ?
C30 H30A 0.9500 . ?
C31 C32 1.3900 . ?
C31 H31A 0.9500 . ?
C32 H32A 0.9500 . ?
C33 C34 1.3900 . ?
C33 C38 1.3900 . ?
C34 C35 1.3900 . ?
C34 H34A 0.9500 . ?
C35 C36 1.3900 . ?
C35 H35A 0.9500 . ?
C36 C37 1.3900 . ?
C36 H36A 0.9500 . ?
C37 C38 1.3900 . ?
C37 H37A 0.9500 . ?
C38 H38A 0.9500 . ?
C39 C40 1.3900 . ?
C39 C44 1.3900 . ?
C40 C41 1.3900 . ?
C40 H40A 0.9500 . ?
C41 C42 1.3900 . ?
C41 H41A 0.9500 . ?
C42 C43 1.3900 . ?
C42 H42A 0.9500 . ?
C43 C44 1.3900 . ?
C43 H43A 0.9500 . ?
C44 H44A 0.9500 . ?
N5 C47 1.4200 . ?
N5 C45 1.4200 . ?
C45 C46 1.4200 . ?
C45 H45A 0.9500 . ?
C46 N6 1.4200 . ?
C46 H46A 0.9500 . ?
N6 C48 1.369(18) . ?
N6 C47 1.4200 . ?
C47 H47A 0.9500 . ?
C48 H48A 0.9800 . ?
C48 H48B 0.9800 . ?
C48 H48C 0.9800 . ?
N7 C49 1.4200 . ?
N7 C51 1.4200 . ?
C49 C50 1.4200 . ?
C49 H49A 0.9500 . ?
C50 N8 1.4200 . ?
C50 H50A 0.9500 . ?
N8 C52 1.390(16) . ?
N8 C51 1.4200 . ?
C51 H51A 0.9500 . ?
C52 H52A 0.9800 . ?
C52 H52B 0.9800 . ?
C52 H52C 0.9800 . ?
