#------------------------------------------------------------------------------
#$Date: 2023-05-30 01:51:04 +0300 (Tue, 30 May 2023) $
#$Revision: 284051 $
#$URL: file:///home/coder/svn-repositories/cod/cif/7/71/31/7713178.cif $
#------------------------------------------------------------------------------
#
# This file is available in the Crystallography Open Database (COD),
# http://www.crystallography.net/
#
# All data on this site have been placed in the public domain by the
# contributors.
#
data_7713178
loop_
_publ_author_name
'Sahoo, Dipankar'
'Mazumdar, Rakesh'
'Pramanik, Subhadip'
'Banerjee, Sayantani'
'Patra, Ranjan'
'Rath, Sankar Prasad'
_publ_section_title
;
 Modulation of iron spin states in highly distorted iron(III)porphyrin:
 H-bonding interactions and implications for the hemoproteins
;
_journal_name_full               'Dalton Transactions'
_journal_paper_doi               10.1039/D3DT00846K
_journal_year                    2023
_chemical_formula_sum            'C52 H40 Br8 Cl Fe N4 O8'
_chemical_formula_weight         1579.46
_space_group_crystal_system      monoclinic
_space_group_IT_number           15
_space_group_name_Hall           '-C 2yc'
_space_group_name_H-M_alt        'C 1 2/c 1'
_atom_sites_solution_hydrogens   mixed
_audit_creation_method           SHELXL-2018/3
_audit_update_record
;
2023-05-01 deposited with the CCDC.	2023-05-29 downloaded from the CCDC.
;
_cell_angle_alpha                90
_cell_angle_beta                 115.931(7)
_cell_angle_gamma                90
_cell_formula_units_Z            4
_cell_length_a                   26.344(10)
_cell_length_b                   10.225(4)
_cell_length_c                   28.292(10)
_cell_measurement_reflns_used    999
_cell_measurement_temperature    100(2)
_cell_measurement_theta_max      27.0
_cell_measurement_theta_min      2.5
_cell_volume                     6854(4)
_computing_cell_refinement       'Bruker SAINT'
_computing_data_collection       'Bruker APEX'
_computing_data_reduction        'Bruker SAINT'
_computing_molecular_graphics    'SHELXL 5.1, XP (Sheldrick, 1994)'
_computing_publication_material  SHELXL-97
_computing_structure_refinement  'SHELXL-2018/3 (Sheldrick, 2018)'
_computing_structure_solution    'SHELXS-97 (Sheldrick, 2008)'
_diffrn_ambient_temperature      100(2)
_diffrn_measured_fraction_theta_full 0.993
_diffrn_measured_fraction_theta_max 0.994
_diffrn_measurement_device_type  'Bruker SMART APEX'
_diffrn_measurement_method       \w
_diffrn_radiation_type           MoK\a
_diffrn_radiation_wavelength     0.71073
_diffrn_reflns_av_R_equivalents  0.0697
_diffrn_reflns_av_unetI/netI     0.0912
_diffrn_reflns_Laue_measured_fraction_full 0.993
_diffrn_reflns_Laue_measured_fraction_max 0.994
_diffrn_reflns_limit_h_max       22
_diffrn_reflns_limit_h_min       -31
_diffrn_reflns_limit_k_max       12
_diffrn_reflns_limit_k_min       -11
_diffrn_reflns_limit_l_max       34
_diffrn_reflns_limit_l_min       -24
_diffrn_reflns_number            17748
_diffrn_reflns_point_group_measured_fraction_full 0.993
_diffrn_reflns_point_group_measured_fraction_max 0.994
_diffrn_reflns_theta_full        25.000
_diffrn_reflns_theta_max         25.498
_diffrn_reflns_theta_min         2.178
_diffrn_source                   'fine-focus sealed tube'
_exptl_absorpt_coefficient_mu    4.968
_exptl_absorpt_correction_T_max  0.609
_exptl_absorpt_correction_T_min  0.480
_exptl_absorpt_correction_type   multi-scan
_exptl_crystal_colour            'dark red'
_exptl_crystal_density_diffrn    1.531
_exptl_crystal_description       block
_exptl_crystal_F_000             3068
_exptl_crystal_size_max          0.150
_exptl_crystal_size_mid          0.140
_exptl_crystal_size_min          0.100
_refine_diff_density_max         0.847
_refine_diff_density_min         -0.623
_refine_diff_density_rms         0.144
_refine_ls_extinction_method     none
_refine_ls_goodness_of_fit_ref   1.049
_refine_ls_hydrogen_treatment    constr
_refine_ls_matrix_type           full
_refine_ls_number_parameters     302
_refine_ls_number_reflns         6340
_refine_ls_number_restraints     15
_refine_ls_restrained_S_all      1.057
_refine_ls_R_factor_all          0.1180
_refine_ls_R_factor_gt           0.0696
_refine_ls_shift/su_max          0.001
_refine_ls_shift/su_mean         0.000
_refine_ls_structure_factor_coef Fsqd
_refine_ls_weighting_details
'w=1/[\s^2^(Fo^2^)+(0.1107P)^2^+3.8093P] where P=(Fo^2^+2Fc^2^)/3'
_refine_ls_weighting_scheme      calc
_refine_ls_wR_factor_gt          0.1943
_refine_ls_wR_factor_ref         0.2219
_reflns_Friedel_coverage         0.000
_reflns_number_gt                3540
_reflns_number_total             6340
_reflns_threshold_expression     'I > 2\s(I)'
_cod_data_source_file            d3dt00846k2.cif
_cod_data_source_block           shelx_CCDC2
_cod_original_sg_symbol_H-M      'C 2/c'
_cod_database_code               7713178
_shelx_shelxl_version_number     2018/3
_shelx_space_group_comment
;
The symmetry employed for this shelxl refinement is uniquely defined
by the following loop, which should always be used as a source of
symmetry information in preference to the above space-group names.
They are only intended as comments.
;
_shelx_estimated_absorpt_t_min   0.523
_shelx_estimated_absorpt_t_max   0.636
_exptl_absorpt_special_details   'SADABS 2.05 (Sheldrick, 2002)'
_shelx_res_file
;
TITL skchat in C2/c
    shelx.res
    created by SHELXL-2018/3 at 23:56:58 on 27-Apr-2023
CELL 0.71073  26.3437  10.2253  28.2915  90.000 115.931  90.000
ZERR    4.00   0.0101   0.0038   0.0104   0.000   0.007   0.000
LATT  7
SYMM -X, Y, 0.5-Z
SFAC C H N O CL FE BR
UNIT 208 160 16 32 4 4 32
TEMP -173.0
omit -3 51.0
omit -3   1   4
omit    -1   1  13
omit    -1   1   9
omit     0   0   4
omit     0   2   1
omit    -2   0  10
omit -4 0 4
omit -1 1 4
omit -1 3 13
omit -1 1 6
isor 0.02 c14 c15
DFIX 0.82 o1 h1a o2 h2a
SIZE 0.15 0.14 0.10 ! Dark Red
L.S. 12
ACTA 50
EQIV $2 -x+1, y-1, -z+1/2
HTAB O1 O1S_$2
BOND
FMAP 2
PLAN 10
ABIN
DELU c13 c14
WGHT    0.110700    3.809300
FVAR       0.12509   0.52814
FE1   6    0.500000    2.767300    0.250000    10.50000    0.04221    0.04860 =
         0.03544    0.00000    0.00651    0.00000
N1    3    0.530327    2.771959    0.195476    11.00000    0.04174    0.06264 =
         0.03495    0.01762   -0.00097    0.00074
N2    3    0.420895    2.765690    0.191645    11.00000    0.04204    0.05199 =
         0.04217    0.00165    0.01197   -0.00974
O1    4    0.500000    2.562085    0.250000    10.50000    0.07328    0.04024 =
         0.07105    0.00000    0.04623    0.00000
O2    4    0.500000    2.974781    0.250000    10.50000    0.04373    0.06146 =
         0.11728    0.00000    0.01212    0.00000
BR1   7    0.641831    3.001719    0.168993    11.00000    0.05259    0.07035 =
         0.08199    0.02049    0.02128   -0.01056
BR2   7    0.507825    2.988815    0.066548    11.00000    0.06554    0.08770 =
         0.06332    0.03550    0.01616   -0.00927
BR3   7    0.327733    2.547539    0.059352    11.00000    0.07990    0.11147 =
         0.04325   -0.01833    0.02146   -0.04385
BR4   7    0.278065    2.549484    0.155167    11.00000    0.05836    0.07281 =
         0.05282   -0.00831    0.02040   -0.02386
C1    1    0.584674    2.814258    0.209370    11.00000    0.04520    0.05304 =
         0.04465    0.01563    0.01274    0.00060
C2    1    0.583504    2.891797    0.167184    11.00000    0.04571    0.07362 =
         0.04519    0.00747    0.00837   -0.00786
C3    1    0.531541    2.886925    0.127436    11.00000    0.04184    0.05704 =
         0.05479    0.01666    0.01358   -0.00947
C4    1    0.497315    2.808596    0.144732    11.00000    0.04169    0.05587 =
         0.05563    0.01787    0.01656   -0.00169
C5    1    0.442441    2.763709    0.116241    11.00000    0.05150    0.07156 =
         0.02268    0.00778    0.00230   -0.01067
C6    1    0.408920    2.723113    0.141352    11.00000    0.04576    0.05747 =
         0.03045    0.00685    0.00174   -0.01157
C7    1    0.358406    2.647720    0.121817    11.00000    0.05089    0.05929 =
         0.03047    0.00018    0.00924   -0.01775
C8    1    0.337059    2.652896    0.157279    11.00000    0.03706    0.06166 =
         0.04039    0.00787    0.00406   -0.01043
C9    1    0.376642    2.726738    0.200955    11.00000    0.04957    0.03748 =
         0.04776   -0.00020    0.01614   -0.00467
C10   1    0.369161    2.773246    0.243885    11.00000    0.05162    0.03976 =
         0.04240    0.00522    0.01635    0.00045
AFIX  66
C11   1    0.417784    2.763665    0.057953    11.00000    0.06996    0.10460 =
         0.04631    0.02163    0.01530   -0.03393
C12   1    0.446597    2.702125    0.033120    11.00000    0.09517    0.13787 =
         0.04391    0.00009    0.01446   -0.04895
AFIX  43
H12A  2    0.481311    2.658835    0.053395    11.00000   -1.20000
AFIX  65
C13   1    0.424618    2.703924   -0.021378    11.00000    0.21053    0.11458 =
         0.06827   -0.01200    0.04912   -0.06115
AFIX  43
H13A  2    0.444310    2.661864   -0.038350    11.00000   -1.20000
AFIX  65
C14   1    0.373825    2.767262   -0.051044    11.00000    0.18684    0.12636 =
         0.04084    0.00377    0.01504   -0.07940
AFIX  43
H14A  2    0.358804    2.768491   -0.088291    11.00000   -1.20000
AFIX  65
C15   1    0.345012    2.828802   -0.026211    11.00000    0.13550    0.16560 =
         0.05635    0.03095   -0.01258   -0.05100
AFIX  43
H15A  2    0.310298    2.872091   -0.046487    11.00000   -1.20000
AFIX  65
C16   1    0.366991    2.827005    0.028287    11.00000    0.10154    0.12056 =
         0.04856    0.04629   -0.02274   -0.04233
AFIX  43
H16A  2    0.347298    2.869065    0.045259    11.00000   -1.20000
AFIX   0
C17   1    0.311439    2.778666    0.242332    11.00000    0.04839    0.04539 =
         0.05398   -0.00627    0.01006   -0.00704
C18   1    0.299086    2.716879    0.278812    11.00000    0.05120    0.06233 =
         0.06392    0.00043    0.02809   -0.00903
AFIX  43
H18A  2    0.327204    2.667196    0.306094    11.00000   -1.20000
AFIX   0
C19   1    0.246289    2.726850    0.275879    11.00000    0.06678    0.09494 =
         0.06764   -0.01379    0.02179   -0.00800
AFIX  43
H19A  2    0.237622    2.683797    0.301208    11.00000   -1.20000
AFIX   0
C20   1    0.205543    2.798399    0.236736    11.00000    0.05343    0.07435 =
         0.07790   -0.02001    0.02702   -0.00922
AFIX  43
H20A  2    0.169086    2.807084    0.235519    11.00000   -1.20000
AFIX   0
C21   1    0.217458    2.857013    0.199592    11.00000    0.03895    0.09044 =
         0.05594   -0.01058   -0.00042    0.00821
AFIX  43
H21A  2    0.188756    2.904789    0.172040    11.00000   -1.20000
AFIX   0
C22   1    0.269066    2.848592    0.201146    11.00000    0.03842    0.06501 =
         0.03877    0.00012    0.00262   -0.00389
AFIX  43
H22A  2    0.276811    2.889267    0.174815    11.00000   -1.20000
AFIX   0
CL1   5    0.449557    3.443156    0.343437    10.50000    0.06313    0.06560 =
         0.07182   -0.00215    0.04278   -0.00240
O1S   4    0.438162    3.425410    0.291543    10.50000    0.11602    0.13787 =
         0.07509   -0.02030    0.05662   -0.09212
O2S   4    0.508764    3.466183    0.364005    10.50000    0.05826    0.07572 =
         0.16834   -0.00874    0.05219    0.00274
O3S   4    0.441865    3.314489    0.357322    10.50000    0.11541    0.08877 =
         0.08858    0.04037    0.06143   -0.00626
O4S   4    0.421855    3.530440    0.357731    10.50000    0.07520    0.18780 =
         0.12818    0.03152    0.02686   -0.01786
AFIX   1
H1A   2    0.518700    2.519200    0.243000    11.00000    0.05000
H2A   2    0.469000    3.020200    0.232300    11.00000    0.05000
AFIX   0
HKLF 4




REM  skchat in C2/c
REM wR2 = 0.2219, GooF = S = 1.049, Restrained GooF = 1.057 for all data
REM R1 = 0.0696 for 3540 Fo > 4sig(Fo) and 0.1180 for all 6340 data
REM 302 parameters refined using 15 restraints

END

WGHT      0.1107      3.8235

REM Highest difference peak  0.847,  deepest hole -0.623,  1-sigma level  0.144
Q1    1   0.4407  2.9862  0.0641  11.00000  0.05    0.85
Q2    1   0.2607  2.5589  0.0583  11.00000  0.05    0.84
Q3    1   0.3377  2.5526  0.1547  11.00000  0.05    0.82
Q4    1   0.2219  2.5461  0.1555  11.00000  0.05    0.76
Q5    1   0.4408  2.7816  0.2475  11.00000  0.05    0.67
Q6    1   0.4886  3.4176  0.3194  11.00000  0.05    0.66
Q7    1   0.6910  2.9885  0.1612  11.00000  0.05    0.66
Q8    1   0.3793  2.5772  0.0538  11.00000  0.05    0.60
Q9    1   0.3582  2.9583  0.0580  11.00000  0.05    0.60
Q10   1   0.4328  2.6531 -0.0283  11.00000  0.05    0.58
;
_shelx_res_checksum              30566
_shelx_fab_file
;
    4    0    0   -240.77      0.00
    6    0    0    -14.23      0.00
    8    0    0    -12.48      0.00
   10    0    0     41.55      0.00
   12    0    0     12.38      0.00
   14    0    0      7.66      0.00
   16    0    0      1.56      0.00
   18    0    0    -14.99      0.00
   20    0    0     -2.16      0.00
   22    0    0      5.26      0.00
   24    0    0     -3.35      0.00
   26    0    0     -5.93      0.00
   28    0    0      4.17      0.00
   30    0    0     17.34      0.00
    3    1    0     11.80      0.00
    5    1    0     47.48      0.00
    7    1    0      9.34      0.00
    9    1    0     -3.86      0.00
   11    1    0      0.88      0.00
   13    1    0    -16.56      0.00
   15    1    0     -5.42      0.00
   17    1    0      2.53      0.00
   19    1    0      4.47      0.00
   21    1    0     -0.45      0.00
   23    1    0     -4.39      0.00
   25    1    0      6.85      0.00
   27    1    0      2.39      0.00
   29    1    0    -13.13      0.00
    2    2    0      2.57      0.00
    4    2    0     15.57      0.00
    6    2    0     -3.06      0.00
    8    2    0     -3.66      0.00
   10    2    0     -6.76      0.00
   12    2    0      8.86      0.00
   14    2    0      5.45      0.00
   16    2    0     -2.53      0.00
   18    2    0      2.13      0.00
   20    2    0     -0.03      0.00
   22    2    0     -2.45      0.00
   24    2    0     -2.96      0.00
   26    2    0      3.00      0.00
   28    2    0      7.72      0.00
   30    2    0     -3.67      0.00
    1    3    0     15.82      0.00
    3    3    0    -24.67      0.00
    5    3    0     -3.97      0.00
    7    3    0     13.80      0.00
    9    3    0    -24.04      0.00
   11    3    0     -7.76      0.00
   13    3    0     10.12      0.00
   15    3    0      0.91      0.00
   17    3    0      0.94      0.00
   19    3    0     -1.13      0.00
   21    3    0     -1.02      0.00
   23    3    0      0.94      0.00
   25    3    0      3.48      0.00
   27    3    0     -5.77      0.00
   29    3    0     -1.84      0.00
    0    4    0    -16.85      0.00
    2    4    0      1.64      0.00
    4    4    0     23.23      0.00
    6    4    0      6.01      0.00
    8    4    0      5.06      0.00
   10    4    0     -2.18      0.00
   12    4    0     -0.88      0.00
   14    4    0      1.40      0.00
   16    4    0      1.87      0.00
   18    4    0      0.31      0.00
   20    4    0      2.30      0.00
   22    4    0      1.98      0.00
   24    4    0     -0.39      0.00
   26    4    0     -0.97      0.00
   28    4    0     -3.22      0.00
    1    5    0     -3.48      0.00
    3    5    0     19.48      0.00
    5    5    0    -16.88      0.00
    7    5    0    -14.19      0.00
    9    5    0     16.52      0.00
   11    5    0     -3.48      0.00
   13    5    0      9.88      0.00
   15    5    0      1.25      0.00
   17    5    0     -4.04      0.00
   19    5    0      1.10      0.00
   21    5    0     -5.66      0.00
   23    5    0     -8.31      0.00
   25    5    0      1.01      0.00
   27    5    0      5.94      0.00
    0    6    0     -5.62      0.00
    2    6    0     13.08      0.00
    4    6    0     -2.74      0.00
    6    6    0      1.09      0.00
    8    6    0     -4.80      0.00
   10    6    0      0.23      0.00
   12    6    0     -2.28      0.00
   14    6    0     -1.55      0.00
   16    6    0     -6.03      0.00
   18    6    0      3.06      0.00
   20    6    0     -1.97      0.00
   22    6    0      1.52      0.00
   24    6    0     -4.19      0.00
   26    6    0     -8.05      0.00
    1    7    0      8.09      0.00
    3    7    0     -8.28      0.00
    5    7    0     -0.05      0.00
    7    7    0     -6.09      0.00
    9    7    0      1.68      0.00
   11    7    0      0.47      0.00
   13    7    0      1.05      0.00
   15    7    0      5.74      0.00
   17    7    0      5.45      0.00
   19    7    0     -1.13      0.00
   21    7    0     -0.47      0.00
   23    7    0     -4.08      0.00
   25    7    0      5.89      0.00
    0    8    0     -4.05      0.00
    2    8    0     -0.59      0.00
    4    8    0      0.83      0.00
    6    8    0      0.66      0.00
    8    8    0      3.11      0.00
   10    8    0     -1.30      0.00
   12    8    0     -3.95      0.00
   14    8    0      6.22      0.00
   16    8    0     -5.68      0.00
   18    8    0     -0.57      0.00
   20    8    0      3.40      0.00
   22    8    0      7.10      0.00
   24    8    0     -1.19      0.00
    1    9    0      5.86      0.00
    3    9    0     -2.97      0.00
    5    9    0     -3.24      0.00
    7    9    0      7.92      0.00
    9    9    0     -2.76      0.00
   11    9    0     -3.27      0.00
   13    9    0      3.83      0.00
   15    9    0     -1.98      0.00
   17    9    0      3.29      0.00
   19    9    0     11.30      0.00
   21    9    0     -0.97      0.00
    0   10    0      7.56      0.00
    2   10    0     -1.01      0.00
    4   10    0     -3.39      0.00
    6   10    0      1.56      0.00
    8   10    0     -0.79      0.00
   10   10    0     10.03      0.00
   12   10    0      4.64      0.00
   14   10    0     -5.47      0.00
   16   10    0     -3.36      0.00
   18   10    0     -4.18      0.00
   20   10    0     -5.33      0.00
    1   11    0     -7.59      0.00
    3   11    0      4.93      0.00
    5   11    0      3.36      0.00
    7   11    0     -6.45      0.00
    9   11    0      8.18      0.00
   11   11    0    -10.22      0.00
   13   11    0     -5.44      0.00
   15   11    0      2.68      0.00
   17   11    0     -4.60      0.00
    0   12    0     11.50      0.00
    2   12    0      4.03      0.00
    4   12    0     -6.95      0.00
    6   12    0     -4.80      0.00
    8   12    0      7.78      0.00
   10   12    0    -29.76      0.00
   12   12    0     -3.02      0.00
    1   13    0     -6.54      0.00
    3   13    0      9.44      0.00
    5   13    0      1.03      0.00
  -31    1    1      9.17      0.00
  -29    1    1     -9.70      0.00
  -27    1    1     -4.74      0.00
  -25    1    1     -6.27      0.00
  -23    1    1     10.26      0.00
  -21    1    1     -5.24      0.00
  -19    1    1     -2.30      0.00
  -17    1    1     -0.72      0.00
  -15    1    1     -1.48      0.00
  -13    1    1     21.74      0.00
  -11    1    1     15.85      0.00
   -9    1    1    -24.42      0.00
   -7    1    1      8.26      0.00
   -5    1    1   -117.50      0.00
   -3    1    1    124.24      0.00
   -1    1    1    467.22      0.00
    3    1    1   -124.23      0.00
    5    1    1      8.90      0.00
    7    1    1      1.92      0.00
    9    1    1     20.87      0.00
   11    1    1    -10.73      0.00
   13    1    1      9.00      0.00
   15    1    1     -3.69      0.00
   17    1    1     -8.05      0.00
   19    1    1     -5.34      0.00
   21    1    1      0.74      0.00
   23    1    1     -0.93      0.00
   25    1    1      2.49      0.00
   27    1    1      2.15      0.00
   29    1    1      4.97      0.00
  -30    2    1     -6.58      0.00
  -28    2    1     -2.00      0.00
  -26    2    1      8.07      0.00
  -24    2    1     -4.96      0.00
  -22    2    1      2.04      0.00
  -20    2    1     -1.36      0.00
  -18    2    1     -1.05      0.00
  -16    2    1      1.56      0.00
  -14    2    1    -16.56      0.00
  -12    2    1      7.64      0.00
  -10    2    1      3.90      0.00
   -8    2    1     -4.93      0.00
   -6    2    1     20.36      0.00
   -4    2    1     51.40      0.00
    0    2    1   -132.07      0.00
    2    2    1     16.49      0.00
    4    2    1     72.29      0.00
    6    2    1     -7.18      0.00
    8    2    1     13.30      0.00
   10    2    1    -10.08      0.00
   12    2    1    -25.93      0.00
   14    2    1     -5.19      0.00
   16    2    1      4.21      0.00
   18    2    1      1.83      0.00
   20    2    1      3.56      0.00
   22    2    1     -5.68      0.00
   24    2    1      8.83      0.00
   26    2    1     -4.77      0.00
   28    2    1     -0.78      0.00
   30    2    1      1.31      0.00
  -29    3    1      8.75      0.00
  -27    3    1      4.19      0.00
  -25    3    1     -3.63      0.00
  -23    3    1     -7.08      0.00
  -21    3    1     -3.18      0.00
  -19    3    1      0.26      0.00
  -17    3    1     -4.94      0.00
  -15    3    1     10.29      0.00
  -13    3    1      5.45      0.00
  -11    3    1     -2.07      0.00
   -9    3    1      5.70      0.00
   -7    3    1    -29.18      0.00
   -5    3    1    -53.40      0.00
   -3    3    1     21.98      0.00
   -1    3    1     32.78      0.00
    1    3    1      7.23      0.00
    3    3    1    -23.29      0.00
    5    3    1    -23.61      0.00
    7    3    1     -3.44      0.00
    9    3    1      7.95      0.00
   11    3    1     15.90      0.00
   13    3    1      2.09      0.00
   15    3    1     -2.82      0.00
   17    3    1      5.06      0.00
   19    3    1     -4.50      0.00
   21    3    1     -0.40      0.00
   23    3    1      0.31      0.00
   25    3    1      1.61      0.00
   27    3    1     11.11      0.00
   29    3    1      3.73      0.00
  -28    4    1      4.48      0.00
  -26    4    1      1.20      0.00
  -24    4    1      1.54      0.00
  -22    4    1      1.18      0.00
  -20    4    1      2.27      0.00
  -18    4    1      3.63      0.00
  -16    4    1     -9.19      0.00
  -14    4    1     -4.27      0.00
  -12    4    1     -4.49      0.00
  -10    4    1     -7.76      0.00
   -8    4    1     19.39      0.00
   -6    4    1     -0.12      0.00
   -4    4    1    -14.06      0.00
   -2    4    1     -0.17      0.00
    0    4    1    -18.20      0.00
    2    4    1     -6.46      0.00
    4    4    1     25.93      0.00
    6    4    1      5.69      0.00
    8    4    1    -29.62      0.00
   10    4    1      3.65      0.00
   12    4    1     -1.34      0.00
   14    4    1      3.39      0.00
   16    4    1      6.28      0.00
   18    4    1     -4.80      0.00
   20    4    1      4.47      0.00
   22    4    1      7.74      0.00
   24    4    1     -6.84      0.00
   26    4    1     -9.63      0.00
   28    4    1     -4.59      0.00
  -27    5    1      2.20      0.00
  -25    5    1      4.61      0.00
  -23    5    1     -5.79      0.00
  -21    5    1      3.83      0.00
  -19    5    1      2.04      0.00
  -17    5    1      1.73      0.00
  -15    5    1      8.17      0.00
  -13    5    1      3.08      0.00
  -11    5    1     -3.52      0.00
   -9    5    1      3.56      0.00
   -7    5    1      2.17      0.00
   -5    5    1     -6.97      0.00
   -3    5    1      0.02      0.00
   -1    5    1     11.29      0.00
    1    5    1      2.47      0.00
    3    5    1      2.04      0.00
    5    5    1     -3.20      0.00
    7    5    1      4.24      0.00
    9    5    1      6.90      0.00
   11    5    1      3.09      0.00
   13    5    1     -0.04      0.00
   15    5    1      3.04      0.00
   17    5    1      0.22      0.00
   19    5    1      1.69      0.00
   21    5    1     -1.09      0.00
   23    5    1      3.06      0.00
   25    5    1      0.29      0.00
   27    5    1     -0.34      0.00
  -26    6    1     -8.19      0.00
  -24    6    1     -1.31      0.00
  -22    6    1      0.57      0.00
  -20    6    1      4.40      0.00
  -18    6    1     -7.72      0.00
  -16    6    1      2.33      0.00
  -14    6    1      2.49      0.00
  -12    6    1     -1.20      0.00
  -10    6    1      2.66      0.00
   -8    6    1     -5.33      0.00
   -6    6    1     -1.30      0.00
   -4    6    1     10.12      0.00
   -2    6    1    -13.38      0.00
    0    6    1     -8.17      0.00
    2    6    1     16.00      0.00
    4    6    1    -10.28      0.00
    6    6    1     -3.83      0.00
    8    6    1      4.94      0.00
   10    6    1     -1.11      0.00
   12    6    1     -0.74      0.00
   14    6    1     -5.70      0.00
   16    6    1     -3.83      0.00
   18    6    1      0.78      0.00
   20    6    1     -4.03      0.00
   22    6    1      0.37      0.00
   24    6    1      1.34      0.00
   26    6    1      3.01      0.00
  -25    7    1     -4.81      0.00
  -23    7    1      2.19      0.00
  -21    7    1      2.24      0.00
  -19    7    1      5.42      0.00
  -17    7    1      0.29      0.00
  -15    7    1     -6.79      0.00
  -13    7    1      4.31      0.00
  -11    7    1     -1.06      0.00
   -9    7    1      1.86      0.00
   -7    7    1     -0.36      0.00
   -5    7    1      7.83      0.00
   -3    7    1      4.99      0.00
   -1    7    1      5.98      0.00
    1    7    1      2.17      0.00
    3    7    1    -11.80      0.00
    5    7    1      0.45      0.00
    7    7    1     -3.05      0.00
    9    7    1     -2.41      0.00
   11    7    1      6.74      0.00
   13    7    1     -1.79      0.00
   15    7    1     -3.96      0.00
   17    7    1      1.20      0.00
   19    7    1     -7.51      0.00
   21    7    1      2.74      0.00
   23    7    1     -0.96      0.00
   25    7    1     -5.86      0.00
  -24    8    1     -1.37      0.00
  -22    8    1     -4.55      0.00
  -20    8    1      0.11      0.00
  -18    8    1      0.23      0.00
  -16    8    1      4.02      0.00
  -14    8    1     -4.73      0.00
  -12    8    1      1.47      0.00
  -10    8    1     -3.73      0.00
   -8    8    1     -1.70      0.00
   -6    8    1      0.31      0.00
   -4    8    1     -7.13      0.00
   -2    8    1     -2.01      0.00
    0    8    1      4.57      0.00
    2    8    1      5.09      0.00
    4    8    1     -3.19      0.00
    6    8    1    -10.38      0.00
    8    8    1      4.76      0.00
   10    8    1     -0.17      0.00
   12    8    1     -2.33      0.00
   14    8    1      4.38      0.00
   16    8    1     -1.52      0.00
   18    8    1     -6.76      0.00
   20    8    1     -2.00      0.00
   22    8    1     -5.04      0.00
   24    8    1      3.47      0.00
  -23    9    1      7.98      0.00
  -21    9    1      2.04      0.00
  -19    9    1     -5.11      0.00
  -17    9    1     -2.27      0.00
  -15    9    1      6.11      0.00
  -13    9    1     -4.66      0.00
  -11    9    1      0.89      0.00
   -9    9    1     -1.99      0.00
   -7    9    1      0.43      0.00
   -5    9    1      5.10      0.00
   -3    9    1      2.49      0.00
   -1    9    1     -7.34      0.00
    1    9    1      2.15      0.00
    3    9    1     -2.73      0.00
    5    9    1      5.09      0.00
    7    9    1      0.97      0.00
    9    9    1      0.52      0.00
   11    9    1     -0.57      0.00
   13    9    1      8.85      0.00
   15    9    1     -2.07      0.00
   17    9    1      2.82      0.00
   19    9    1      1.06      0.00
   21    9    1     -0.55      0.00
  -20   10    1      3.77      0.00
  -18   10    1      9.39      0.00
  -16   10    1     -0.34      0.00
  -14   10    1      0.08      0.00
  -12   10    1     -0.91      0.00
  -10   10    1     -7.04      0.00
   -8   10    1      8.38      0.00
   -6   10    1     -6.04      0.00
   -4   10    1     -0.99      0.00
   -2   10    1      1.81      0.00
    0   10    1      9.43      0.00
    2   10    1     -6.23      0.00
    4   10    1     -6.81      0.00
    6   10    1     11.74      0.00
    8   10    1     -5.30      0.00
   10   10    1     -2.00      0.00
   12   10    1      4.68      0.00
   14   10    1     -0.72      0.00
   16   10    1      4.15      0.00
   18   10    1     11.02      0.00
   20   10    1     -0.14      0.00
  -17   11    1      1.28      0.00
  -15   11    1     -2.80      0.00
  -13   11    1      4.86      0.00
  -11   11    1     26.96      0.00
   -9   11    1     -5.27      0.00
   -7   11    1     -1.00      0.00
   -5   11    1     -2.83      0.00
   -3   11    1     -3.44      0.00
   -1   11    1      2.34      0.00
    1   11    1     -2.85      0.00
    3   11    1     10.04      0.00
    5   11    1      3.85      0.00
    7   11    1     -9.74      0.00
    9   11    1     18.14      0.00
   11   11    1      7.57      0.00
   13   11    1     -9.51      0.00
   15   11    1     -2.22      0.00
   17   11    1     -6.94      0.00
  -14   12    1     -4.61      0.00
  -12   12    1    -19.58      0.00
  -10   12    1     14.09      0.00
   -8   12    1      1.41      0.00
   -6   12    1     -3.97      0.00
   -4   12    1      2.89      0.00
   -2   12    1      2.54      0.00
    0   12    1     -5.82      0.00
    2   12    1     -1.00      0.00
    4   12    1      2.09      0.00
    6   12    1      0.29      0.00
    8   12    1      2.68      0.00
   10   12    1    -24.14      0.00
   12   12    1     -7.73      0.00
   -5   13    1     -2.05      0.00
   -3   13    1      3.87      0.00
   -1   13    1      6.19      0.00
    1   13    1     -1.10      0.00
    3   13    1     -7.87      0.00
    5   13    1     -1.59      0.00
  -30    0    2      3.86      0.00
  -28    0    2      9.13      0.00
  -26    0    2      1.89      0.00
  -24    0    2     -6.09      0.00
  -22    0    2     -2.45      0.00
  -20    0    2     10.37      0.00
  -18    0    2      2.67      0.00
  -16    0    2     -3.71      0.00
  -14    0    2    -30.75      0.00
  -12    0    2      3.43      0.00
  -10    0    2     34.52      0.00
   -8    0    2    -10.65      0.00
   -6    0    2     69.00      0.00
   -4    0    2   -141.45      0.00
    6    0    2     11.32      0.00
    8    0    2    -18.87      0.00
   10    0    2     13.46      0.00
   12    0    2    -23.09      0.00
   14    0    2      7.27      0.00
   16    0    2      7.71      0.00
   18    0    2      4.12      0.00
   20    0    2     11.78      0.00
   22    0    2     -4.40      0.00
   24    0    2     -8.71      0.00
   26    0    2     -1.18      0.00
   28    0    2     -1.00      0.00
  -31    1    2      8.80      0.00
  -29    1    2     -9.20      0.00
  -27    1    2     -1.04      0.00
  -25    1    2      2.68      0.00
  -23    1    2      3.43      0.00
  -21    1    2     -1.12      0.00
  -19    1    2     -6.16      0.00
  -17    1    2      0.06      0.00
  -15    1    2     14.31      0.00
  -13    1    2      1.49      0.00
  -11    1    2      4.06      0.00
   -9    1    2    -11.45      0.00
   -7    1    2      6.00      0.00
   -5    1    2    -59.73      0.00
   -3    1    2     13.65      0.00
   -1    1    2    212.34      0.00
    3    1    2    -60.11      0.00
    5    1    2     15.67      0.00
    7    1    2     -8.64      0.00
    9    1    2     13.36      0.00
   11    1    2     15.49      0.00
   13    1    2      3.70      0.00
   15    1    2      0.00      0.00
   17    1    2     -1.64      0.00
   19    1    2     -2.90      0.00
   21    1    2     -2.63      0.00
   23    1    2     -0.21      0.00
   25    1    2      4.94      0.00
   27    1    2      3.53      0.00
   29    1    2     -5.75      0.00
  -30    2    2    -11.22      0.00
  -28    2    2     -3.46      0.00
  -26    2    2      3.43      0.00
  -24    2    2      2.56      0.00
  -22    2    2      2.84      0.00
  -20    2    2      2.74      0.00
  -18    2    2     -3.85      0.00
  -16    2    2     -9.55      0.00
  -14    2    2     10.38      0.00
  -12    2    2    -10.09      0.00
  -10    2    2    -13.76      0.00
   -8    2    2     39.61      0.00
   -6    2    2     14.29      0.00
   -4    2    2    -23.17      0.00
   -2    2    2     20.18      0.00
    2    2    2     26.49      0.00
    4    2    2     25.44      0.00
    6    2    2      1.15      0.00
    8    2    2    -18.19      0.00
   10    2    2    -13.07      0.00
   12    2    2      9.85      0.00
   14    2    2     -2.11      0.00
   16    2    2     -3.53      0.00
   18    2    2     -0.02      0.00
   20    2    2     -1.78      0.00
   22    2    2      2.48      0.00
   24    2    2     -0.03      0.00
   26    2    2     -7.97      0.00
   28    2    2     -3.16      0.00
  -29    3    2     -3.33      0.00
  -27    3    2      6.92      0.00
  -25    3    2      7.30      0.00
  -23    3    2     -3.82      0.00
  -21    3    2     -9.53      0.00
  -19    3    2     -1.37      0.00
  -17    3    2      6.85      0.00
  -15    3    2     -4.23      0.00
  -13    3    2      0.69      0.00
  -11    3    2     -7.02      0.00
   -9    3    2     -3.18      0.00
   -7    3    2     15.75      0.00
   -5    3    2     21.91      0.00
   -3    3    2    -11.07      0.00
   -1    3    2    -34.63      0.00
    1    3    2      6.61      0.00
    3    3    2      7.57      0.00
    5    3    2      3.74      0.00
    7    3    2     16.20      0.00
    9    3    2    -22.49      0.00
   11    3    2    -11.51      0.00
   13    3    2     -4.86      0.00
   15    3    2      0.06      0.00
   17    3    2      2.67      0.00
   19    3    2     -4.71      0.00
   21    3    2      1.09      0.00
   23    3    2      1.08      0.00
   25    3    2     10.83      0.00
   27    3    2     -5.91      0.00
   29    3    2     -0.44      0.00
  -30    4    2      3.10      0.00
  -28    4    2     -2.70      0.00
  -26    4    2     -2.99      0.00
  -24    4    2     -9.83      0.00
  -22    4    2     -3.50      0.00
  -20    4    2      1.22      0.00
  -18    4    2      2.78      0.00
  -16    4    2     -1.02      0.00
  -14    4    2      5.56      0.00
  -12    4    2      2.91      0.00
  -10    4    2     -4.56      0.00
   -8    4    2     -9.97      0.00
   -6    4    2    -12.61      0.00
   -4    4    2     12.92      0.00
   -2    4    2      6.61      0.00
    0    4    2      8.10      0.00
    2    4    2     -4.93      0.00
    4    4    2    -18.62      0.00
    6    4    2     -6.41      0.00
    8    4    2      7.91      0.00
   10    4    2      3.93      0.00
   12    4    2      3.83      0.00
   14    4    2     -2.98      0.00
   16    4    2      1.22      0.00
   18    4    2     -8.20      0.00
   20    4    2      2.98      0.00
   22    4    2      3.44      0.00
   24    4    2      1.58      0.00
   26    4    2      4.05      0.00
   28    4    2      5.34      0.00
  -29    5    2      1.34      0.00
  -27    5    2      5.00      0.00
  -25    5    2     -1.13      0.00
  -23    5    2     -1.31      0.00
  -21    5    2      0.14      0.00
  -19    5    2      5.95      0.00
  -17    5    2     -6.30      0.00
  -15    5    2     -0.84      0.00
  -13    5    2     -1.60      0.00
  -11    5    2     -1.35      0.00
   -9    5    2      6.48      0.00
   -7    5    2     -1.03      0.00
   -5    5    2      6.74      0.00
   -3    5    2      7.37      0.00
   -1    5    2    -20.21      0.00
    1    5    2     -2.11      0.00
    3    5    2     29.62      0.00
    5    5    2     -4.50      0.00
    7    5    2    -12.60      0.00
    9    5    2     -2.16      0.00
   11    5    2     -3.32      0.00
   13    5    2     15.12      0.00
   15    5    2     -2.10      0.00
   17    5    2     -1.55      0.00
   19    5    2      4.55      0.00
   21    5    2     -2.94      0.00
   23    5    2     -8.34      0.00
   25    5    2     -1.66      0.00
   27    5    2     -3.24      0.00
  -28    6    2      1.99      0.00
  -26    6    2      0.67      0.00
  -24    6    2     -6.81      0.00
  -22    6    2     -4.29      0.00
  -20    6    2      4.24      0.00
  -18    6    2      5.87      0.00
  -16    6    2      4.88      0.00
  -14    6    2      1.57      0.00
  -12    6    2     -8.09      0.00
  -10    6    2      4.72      0.00
   -8    6    2     -4.88      0.00
   -6    6    2    -16.32      0.00
   -4    6    2     -4.11      0.00
   -2    6    2     11.19      0.00
    0    6    2      9.82      0.00
    2    6    2      9.89      0.00
    4    6    2    -17.78      0.00
    6    6    2     10.21      0.00
    8    6    2     11.68      0.00
   10    6    2     -3.27      0.00
   12    6    2     -3.30      0.00
   14    6    2      9.35      0.00
   16    6    2     -2.07      0.00
   18    6    2      1.19      0.00
   20    6    2      1.79      0.00
   22    6    2      0.46      0.00
   24    6    2      0.97      0.00
   26    6    2     -4.82      0.00
  -25    7    2      6.74      0.00
  -23    7    2      6.97      0.00
  -21    7    2     -2.40      0.00
  -19    7    2     -3.67      0.00
  -17    7    2     -2.30      0.00
  -15    7    2      8.90      0.00
  -13    7    2     -1.40      0.00
  -11    7    2      0.31      0.00
   -9    7    2     -0.25      0.00
   -7    7    2      2.19      0.00
   -5    7    2     11.34      0.00
   -3    7    2     -2.16      0.00
   -1    7    2    -18.27      0.00
    1    7    2      2.88      0.00
    3    7    2      4.63      0.00
    5    7    2      7.25      0.00
    7    7    2     -7.49      0.00
    9    7    2     -1.16      0.00
   11    7    2      0.05      0.00
   13    7    2     -1.27      0.00
   15    7    2      0.03      0.00
   17    7    2      4.41      0.00
   19    7    2      1.67      0.00
   21    7    2     -0.49      0.00
   23    7    2     -2.19      0.00
   25    7    2      2.46      0.00
  -24    8    2     -1.09      0.00
  -22    8    2      5.16      0.00
  -20    8    2     -0.11      0.00
  -18    8    2      3.65      0.00
  -16    8    2     -9.91      0.00
  -14    8    2     -0.47      0.00
  -12    8    2     -0.47      0.00
  -10    8    2      6.20      0.00
   -8    8    2     -3.33      0.00
   -6    8    2     -4.01      0.00
   -4    8    2     -2.58      0.00
   -2    8    2      5.20      0.00
    0    8    2      4.48      0.00
    2    8    2     -8.79      0.00
    4    8    2     -0.31      0.00
    6    8    2     -3.09      0.00
    8    8    2      1.46      0.00
   10    8    2      0.42      0.00
   12    8    2      1.01      0.00
   14    8    2     -2.15      0.00
   16    8    2     -2.15      0.00
   18    8    2      7.75      0.00
   20    8    2      5.81      0.00
   22    8    2      0.94      0.00
  -23    9    2     -0.17      0.00
  -21    9    2     -5.11      0.00
  -19    9    2     -3.42      0.00
  -17    9    2     -7.03      0.00
  -15    9    2      5.65      0.00
  -13    9    2      0.07      0.00
  -11    9    2     -0.76      0.00
   -9    9    2      3.71      0.00
   -7    9    2     -0.76      0.00
   -5    9    2     -1.34      0.00
   -3    9    2      4.16      0.00
   -1    9    2     -1.91      0.00
    1    9    2      7.69      0.00
    3    9    2     -1.24      0.00
    5    9    2     -5.68      0.00
    7    9    2     -0.23      0.00
    9    9    2     -5.04      0.00
   11    9    2     -1.52      0.00
   13    9    2      3.46      0.00
   15    9    2     -7.47      0.00
   17    9    2    -10.69      0.00
   19    9    2      2.18      0.00
   21    9    2     -1.59      0.00
  -20   10    2     -2.77      0.00
  -18   10    2      1.75      0.00
  -16   10    2      3.18      0.00
  -14   10    2     -4.03      0.00
  -12   10    2     -8.49      0.00
  -10   10    2      2.45      0.00
   -8   10    2     -0.05      0.00
   -6   10    2      5.16      0.00
   -4   10    2     -5.03      0.00
   -2   10    2     -4.70      0.00
    0   10    2      0.49      0.00
    2   10    2     -5.30      0.00
    4   10    2      4.36      0.00
    6   10    2      8.68      0.00
    8   10    2     -2.83      0.00
   10   10    2     -2.28      0.00
   12   10    2      6.85      0.00
   14   10    2     -3.03      0.00
   16   10    2      0.95      0.00
   18   10    2      1.89      0.00
  -17   11    2     -0.72      0.00
  -15   11    2      6.23      0.00
  -13   11    2      4.57      0.00
  -11   11    2    -13.57      0.00
   -9   11    2      3.59      0.00
   -7   11    2     -1.59      0.00
   -5   11    2     -8.97      0.00
   -3   11    2      4.74      0.00
   -1   11    2      7.60      0.00
    1   11    2     -4.70      0.00
    3   11    2      3.75      0.00
    5   11    2      1.79      0.00
    7   11    2     -1.04      0.00
    9   11    2     -1.10      0.00
   11   11    2      5.51      0.00
   13   11    2     -4.17      0.00
   15   11    2     -5.69      0.00
  -14   12    2      1.18      0.00
  -12   12    2     17.26      0.00
  -10   12    2     -7.17      0.00
   -8   12    2     -3.58      0.00
   -6   12    2     -3.42      0.00
   -4   12    2     -1.94      0.00
   -2   12    2     -2.23      0.00
    0   12    2      3.90      0.00
    2   12    2     10.52      0.00
    4   12    2      2.15      0.00
    6   12    2    -10.56      0.00
    8   12    2     11.85      0.00
   10   12    2      1.24      0.00
   12   12    2     -4.78      0.00
   -5   13    2      5.68      0.00
   -3   13    2      5.45      0.00
   -1   13    2     -4.54      0.00
    1   13    2     -3.73      0.00
    3   13    2      2.15      0.00
    5   13    2     -1.58      0.00
  -31    1    3      1.94      0.00
  -29    1    3     -4.62      0.00
  -27    1    3      7.38      0.00
  -25    1    3     -8.25      0.00
  -23    1    3      0.03      0.00
  -21    1    3      3.55      0.00
  -19    1    3      3.76      0.00
  -17    1    3      1.94      0.00
  -15    1    3    -20.53      0.00
  -13    1    3     25.66      0.00
  -11    1    3     18.82      0.00
   -9    1    3    -36.48      0.00
   -7    1    3     36.72      0.00
   -5    1    3      6.00      0.00
   -3    1    3     39.62      0.00
   -1    1    3    -37.80      0.00
    3    1    3     83.70      0.00
    5    1    3     20.67      0.00
    7    1    3      5.64      0.00
    9    1    3     -6.24      0.00
   11    1    3    -25.57      0.00
   13    1    3      4.99      0.00
   15    1    3     -1.37      0.00
   17    1    3      4.73      0.00
   19    1    3      7.14      0.00
   21    1    3     -7.00      0.00
   23    1    3     -4.08      0.00
   25    1    3     -0.45      0.00
   27    1    3     10.31      0.00
   29    1    3     -4.11      0.00
  -30    2    3     -7.57      0.00
  -28    2    3     -8.08      0.00
  -26    2    3     -2.58      0.00
  -24    2    3      7.68      0.00
  -22    2    3     -1.00      0.00
  -20    2    3     -4.23      0.00
  -18    2    3     -6.13      0.00
  -16    2    3     21.13      0.00
  -14    2    3      5.91      0.00
  -12    2    3     -1.23      0.00
  -10    2    3    -12.95      0.00
   -8    2    3     -2.65      0.00
   -6    2    3    -46.08      0.00
    0    2    3    -73.78      0.00
    2    2    3    -30.42      0.00
    4    2    3      6.82      0.00
    6    2    3    -20.74      0.00
    8    2    3     27.86      0.00
   10    2    3      8.89      0.00
   12    2    3      1.60      0.00
   14    2    3      2.84      0.00
   16    2    3      2.24      0.00
   18    2    3     -7.69      0.00
   20    2    3     -3.17      0.00
   22    2    3     -1.65      0.00
   24    2    3      3.18      0.00
   26    2    3     -0.29      0.00
   28    2    3     -1.56      0.00
  -31    3    3     -4.17      0.00
  -29    3    3      4.98      0.00
  -27    3    3      2.70      0.00
  -25    3    3      6.38      0.00
  -23    3    3      5.77      0.00
  -21    3    3     -5.24      0.00
  -19    3    3     -4.74      0.00
  -17    3    3     -6.97      0.00
  -15    3    3     -2.82      0.00
  -13    3    3     -9.54      0.00
  -11    3    3     -1.26      0.00
   -9    3    3     25.20      0.00
   -7    3    3     -4.24      0.00
   -5    3    3    -37.94      0.00
   -3    3    3     -0.08      0.00
   -1    3    3    -14.35      0.00
    1    3    3     29.59      0.00
    3    3    3     38.71      0.00
    5    3    3    -10.01      0.00
    7    3    3    -14.55      0.00
    9    3    3     -5.30      0.00
   11    3    3      6.11      0.00
   13    3    3      0.49      0.00
   15    3    3      3.63      0.00
   17    3    3      5.02      0.00
   19    3    3     -2.58      0.00
   21    3    3     -2.47      0.00
   23    3    3      1.47      0.00
   25    3    3     -5.90      0.00
   27    3    3     -2.37      0.00
  -30    4    3     -3.22      0.00
  -28    4    3     10.36      0.00
  -26    4    3      4.48      0.00
  -24    4    3     -8.40      0.00
  -22    4    3     -5.72      0.00
  -20    4    3     -5.51      0.00
  -18    4    3      3.54      0.00
  -16    4    3      1.19      0.00
  -14    4    3      2.66      0.00
  -12    4    3     -1.80      0.00
  -10    4    3     12.64      0.00
   -8    4    3     -5.36      0.00
   -6    4    3    -20.94      0.00
   -4    4    3     19.12      0.00
   -2    4    3     20.42      0.00
    0    4    3    -15.90      0.00
    2    4    3    -20.72      0.00
    4    4    3      2.12      0.00
    6    4    3      6.68      0.00
    8    4    3     -1.98      0.00
   10    4    3     -2.83      0.00
   12    4    3     -9.77      0.00
   14    4    3      1.87      0.00
   16    4    3      6.64      0.00
   18    4    3     -6.99      0.00
   20    4    3      6.82      0.00
   22    4    3      8.16      0.00
   24    4    3      0.30      0.00
   26    4    3     -1.59      0.00
   28    4    3      6.65      0.00
  -29    5    3      2.21      0.00
  -27    5    3     -9.08      0.00
  -25    5    3     -0.78      0.00
  -23    5    3      2.32      0.00
  -21    5    3      2.88      0.00
  -19    5    3     -2.62      0.00
  -17    5    3     -0.48      0.00
  -15    5    3      5.63      0.00
  -13    5    3      1.74      0.00
  -11    5    3     -6.95      0.00
   -9    5    3      4.07      0.00
   -7    5    3     11.04      0.00
   -5    5    3     -4.07      0.00
   -3    5    3     -8.70      0.00
   -1    5    3     -2.17      0.00
    1    5    3      9.95      0.00
    3    5    3     -1.15      0.00
    5    5    3    -11.94      0.00
    7    5    3     -4.14      0.00
    9    5    3      7.85      0.00
   11    5    3      1.64      0.00
   13    5    3     -8.58      0.00
   15    5    3      2.37      0.00
   17    5    3     -8.37      0.00
   19    5    3     -0.39      0.00
   21    5    3      6.23      0.00
   23    5    3      0.77      0.00
   25    5    3      5.18      0.00
   27    5    3     -3.30      0.00
  -28    6    3      7.10      0.00
  -26    6    3     -4.16      0.00
  -24    6    3     -3.95      0.00
  -22    6    3      3.03      0.00
  -20    6    3      8.12      0.00
  -18    6    3     -2.34      0.00
  -16    6    3     -7.48      0.00
  -14    6    3     -3.86      0.00
  -12    6    3     -0.28      0.00
  -10    6    3      0.52      0.00
   -8    6    3      2.37      0.00
   -6    6    3      3.63      0.00
   -4    6    3      3.28      0.00
   -2    6    3      3.90      0.00
    0    6    3      2.70      0.00
    2    6    3     -1.00      0.00
    4    6    3     -1.94      0.00
    6    6    3      0.85      0.00
    8    6    3     -5.47      0.00
   10    6    3      1.52      0.00
   12    6    3      3.79      0.00
   14    6    3     -5.61      0.00
   16    6    3      0.78      0.00
   18    6    3     -1.86      0.00
   20    6    3     -0.21      0.00
   22    6    3     -1.79      0.00
   24    6    3     -4.86      0.00
   26    6    3     -6.87      0.00
  -27    7    3     -4.66      0.00
  -25    7    3     -4.32      0.00
  -23    7    3      1.88      0.00
  -21    7    3     11.48      0.00
  -19    7    3      1.02      0.00
  -17    7    3      6.55      0.00
  -15    7    3     -0.14      0.00
  -13    7    3      0.55      0.00
  -11    7    3     -6.39      0.00
   -9    7    3      6.14      0.00
   -7    7    3     -5.68      0.00
   -5    7    3      1.59      0.00
   -3    7    3      2.25      0.00
   -1    7    3      6.65      0.00
    1    7    3      3.86      0.00
    3    7    3    -13.22      0.00
    5    7    3      7.30      0.00
    7    7    3      8.72      0.00
    9    7    3     -7.11      0.00
   11    7    3     -1.83      0.00
   13    7    3      8.79      0.00
   15    7    3     -2.58      0.00
   17    7    3    -10.78      0.00
   19    7    3     -2.23      0.00
   21    7    3      2.47      0.00
   23    7    3      2.20      0.00
  -24    8    3      8.27      0.00
  -22    8    3     -2.12      0.00
  -20    8    3      1.59      0.00
  -18    8    3      4.62      0.00
  -16    8    3     -0.68      0.00
  -14    8    3     -4.24      0.00
  -12    8    3      4.75      0.00
  -10    8    3     -4.44      0.00
   -8    8    3      6.90      0.00
   -6    8    3      4.85      0.00
   -4    8    3    -11.99      0.00
   -2    8    3     -9.47      0.00
    0    8    3     -2.37      0.00
    2    8    3      9.14      0.00
    4    8    3      4.86      0.00
    6    8    3     -0.53      0.00
    8    8    3      1.06      0.00
   10    8    3      0.47      0.00
   12    8    3     -1.97      0.00
   14    8    3      3.67      0.00
   16    8    3      2.37      0.00
   18    8    3     -1.13      0.00
   20    8    3     -0.71      0.00
   22    8    3      0.41      0.00
  -23    9    3      0.45      0.00
  -21    9    3     -1.49      0.00
  -19    9    3     -3.51      0.00
  -17    9    3     -4.69      0.00
  -15    9    3     -1.36      0.00
  -13    9    3     -0.45      0.00
  -11    9    3      1.96      0.00
   -9    9    3     -1.85      0.00
   -7    9    3     -3.96      0.00
   -5    9    3      4.36      0.00
   -3    9    3      3.97      0.00
   -1    9    3      1.77      0.00
    1    9    3      0.65      0.00
    3    9    3     -7.29      0.00
    5    9    3     -1.10      0.00
    7    9    3     -0.94      0.00
    9    9    3      2.13      0.00
   11    9    3      1.01      0.00
   13    9    3      6.29      0.00
   15    9    3     -0.18      0.00
   17    9    3      6.24      0.00
   19    9    3     -6.03      0.00
   21    9    3     -0.49      0.00
  -20   10    3    -13.29      0.00
  -18   10    3     -3.88      0.00
  -16   10    3      2.38      0.00
  -14   10    3      0.00      0.00
  -12   10    3      9.43      0.00
  -10   10    3      2.97      0.00
   -8   10    3      1.04      0.00
   -6   10    3      1.81      0.00
   -4   10    3     -0.20      0.00
   -2   10    3     -5.33      0.00
    0   10    3     -0.25      0.00
    2   10    3     -1.25      0.00
    4   10    3      4.46      0.00
    6   10    3     -0.58      0.00
    8   10    3      0.47      0.00
   10   10    3      0.46      0.00
   12   10    3      3.04      0.00
   14   10    3     -7.30      0.00
   16   10    3     -9.40      0.00
   18   10    3      6.05      0.00
  -17   11    3      3.99      0.00
  -15   11    3     -3.95      0.00
  -13   11    3    -10.96      0.00
  -11   11    3     10.26      0.00
   -9   11    3     -2.06      0.00
   -7   11    3     -1.43      0.00
   -5   11    3      6.34      0.00
   -3   11    3     -9.17      0.00
   -1   11    3     -1.58      0.00
    1   11    3      1.34      0.00
    3   11    3      1.88      0.00
    5   11    3      9.34      0.00
    7   11    3     -1.89      0.00
    9   11    3     -6.40      0.00
   11   11    3     -1.22      0.00
   13   11    3      1.41      0.00
   15   11    3      8.25      0.00
  -14   12    3      2.48      0.00
  -12   12    3     -4.70      0.00
  -10   12    3     -2.16      0.00
   -8   12    3      3.20      0.00
   -6   12    3     -9.92      0.00
   -4   12    3      1.28      0.00
   -2   12    3      8.22      0.00
    0   12    3     -3.78      0.00
    2   12    3      4.71      0.00
    4   12    3     -3.54      0.00
    6   12    3     -4.39      0.00
    8   12    3      3.53      0.00
   10   12    3      7.58      0.00
   12   12    3    -10.02      0.00
   -5   13    3     -0.52      0.00
   -3   13    3      5.63      0.00
   -1   13    3      1.75      0.00
    1   13    3      1.13      0.00
    3   13    3     -0.15      0.00
  -32    0    4     17.53      0.00
  -30    0    4     -7.06      0.00
  -28    0    4     -4.71      0.00
  -26    0    4      1.34      0.00
  -24    0    4      4.96      0.00
  -22    0    4    -11.58      0.00
  -20    0    4      0.53      0.00
  -18    0    4      4.74      0.00
  -16    0    4     12.93      0.00
  -14    0    4    -21.20      0.00
  -12    0    4     -2.52      0.00
  -10    0    4     19.74      0.00
   -8    0    4    -22.06      0.00
   -6    0    4    -72.53      0.00
   -4    0    4    -38.05      0.00
    0    0    4     -0.33      0.00
    4    0    4      0.02      0.00
    6    0    4     -4.95      0.00
    8    0    4     27.24      0.00
   10    0    4     32.38      0.00
   12    0    4     -4.94      0.00
   14    0    4      4.11      0.00
   16    0    4     -8.24      0.00
   18    0    4    -10.65      0.00
   20    0    4     10.64      0.00
   22    0    4      5.46      0.00
   24    0    4     -6.41      0.00
   26    0    4     -5.26      0.00
   28    0    4      8.97      0.00
  -31    1    4      5.71      0.00
  -29    1    4      1.94      0.00
  -27    1    4      1.05      0.00
  -25    1    4     -5.87      0.00
  -23    1    4      4.56      0.00
  -21    1    4      9.57      0.00
  -19    1    4     -2.96      0.00
  -17    1    4    -14.86      0.00
  -15    1    4      1.28      0.00
  -13    1    4      4.27      0.00
  -11    1    4     12.21      0.00
   -9    1    4     -8.60      0.00
   -7    1    4     27.25      0.00
   -5    1    4    -35.35      0.00
   -3    1    4    -39.75      0.00
   -1    1    4     99.28      0.00
    3    1    4     37.72      0.00
    5    1    4     18.95      0.00
    7    1    4    -23.27      0.00
    9    1    4      1.69      0.00
   11    1    4     -7.70      0.00
   13    1    4     -1.56      0.00
   15    1    4      0.71      0.00
   17    1    4     10.38      0.00
   19    1    4      7.21      0.00
   21    1    4     -6.66      0.00
   23    1    4     -0.51      0.00
   25    1    4      7.13      0.00
   27    1    4     -1.82      0.00
  -30    2    4     -2.91      0.00
  -28    2    4      3.69      0.00
  -26    2    4     -0.49      0.00
  -24    2    4     -6.30      0.00
  -22    2    4      2.36      0.00
  -20    2    4      1.32      0.00
  -18    2    4      1.98      0.00
  -16    2    4     -0.65      0.00
  -14    2    4     16.87      0.00
  -12    2    4     -2.43      0.00
  -10    2    4    -17.76      0.00
   -8    2    4     24.11      0.00
   -6    2    4     20.84      0.00
    0    2    4    -45.64      0.00
    2    2    4     41.24      0.00
    4    2    4      8.71      0.00
    6    2    4      0.53      0.00
    8    2    4    -12.01      0.00
   10    2    4     -8.41      0.00
   12    2    4      3.50      0.00
   14    2    4     -6.17      0.00
   16    2    4     -2.28      0.00
   18    2    4      0.70      0.00
   20    2    4      2.57      0.00
   22    2    4     -4.58      0.00
   24    2    4      0.54      0.00
   26    2    4      6.96      0.00
   28    2    4      4.70      0.00
  -31    3    4     -8.31      0.00
  -29    3    4     -9.99      0.00
  -27    3    4      4.86      0.00
  -25    3    4      3.32      0.00
  -23    3    4     -1.07      0.00
  -21    3    4      0.16      0.00
  -19    3    4      2.92      0.00
  -17    3    4      5.67      0.00
  -15    3    4     -0.51      0.00
  -13    3    4    -12.50      0.00
  -11    3    4    -23.35      0.00
   -9    3    4     20.57      0.00
   -7    3    4      7.87      0.00
   -5    3    4    -32.78      0.00
   -3    3    4      0.86      0.00
   -1    3    4      6.49      0.00
    1    3    4     18.20      0.00
    3    3    4    -10.32      0.00
    5    3    4    -11.22      0.00
    7    3    4      6.90      0.00
    9    3    4     -0.22      0.00
   11    3    4      7.05      0.00
   13    3    4     -0.54      0.00
   15    3    4     -2.38      0.00
   17    3    4     -1.15      0.00
   19    3    4     -9.93      0.00
   21    3    4     -1.22      0.00
   23    3    4     -3.91      0.00
   25    3    4      7.22      0.00
   27    3    4     -8.16      0.00
  -30    4    4      1.80      0.00
  -28    4    4      5.00      0.00
  -26    4    4      6.88      0.00
  -24    4    4     -5.91      0.00
  -22    4    4     -8.53      0.00
  -20    4    4     -0.45      0.00
  -18    4    4     -5.80      0.00
  -16    4    4     -3.54      0.00
  -14    4    4     -0.75      0.00
  -12    4    4      4.51      0.00
  -10    4    4      0.65      0.00
   -8    4    4     -1.22      0.00
   -6    4    4      2.22      0.00
   -4    4    4      2.28      0.00
   -2    4    4    -25.74      0.00
    0    4    4      9.78      0.00
    2    4    4     20.20      0.00
    4    4    4     -4.53      0.00
    6    4    4     -4.37      0.00
    8    4    4     -6.68      0.00
   10    4    4      2.57      0.00
   12    4    4      7.68      0.00
   14    4    4      0.20      0.00
   16    4    4      8.65      0.00
   18    4    4     -8.62      0.00
   20    4    4     -4.37      0.00
   22    4    4     -1.16      0.00
   24    4    4     -1.01      0.00
   26    4    4     -2.11      0.00
  -29    5    4     -2.13      0.00
  -27    5    4      1.12      0.00
  -25    5    4     -4.61      0.00
  -23    5    4     -9.49      0.00
  -21    5    4     -2.68      0.00
  -19    5    4      6.42      0.00
  -17    5    4      8.77      0.00
  -15    5    4     13.44      0.00
  -13    5    4     -2.50      0.00
  -11    5    4      4.45      0.00
   -9    5    4    -18.75      0.00
   -7    5    4    -22.00      0.00
   -5    5    4     17.57      0.00
   -3    5    4      9.26      0.00
   -1    5    4     -6.56      0.00
    1    5    4     -4.03      0.00
    3    5    4     -4.78      0.00
    5    5    4     -2.66      0.00
    7    5    4     17.68      0.00
    9    5    4     -3.18      0.00
   11    5    4     -4.38      0.00
   13    5    4     11.74      0.00
   15    5    4     -2.40      0.00
   17    5    4     -1.22      0.00
   19    5    4      9.01      0.00
   21    5    4      2.46      0.00
   23    5    4     -1.34      0.00
   25    5    4      3.74      0.00
  -28    6    4     -4.02      0.00
  -26    6    4     -0.65      0.00
  -24    6    4      4.51      0.00
  -22    6    4     -9.43      0.00
  -20    6    4     -2.80      0.00
  -18    6    4      2.83      0.00
  -16    6    4      0.04      0.00
  -14    6    4     -3.88      0.00
  -12    6    4     -4.44      0.00
  -10    6    4     10.87      0.00
   -8    6    4      8.19      0.00
   -6    6    4      1.92      0.00
   -4    6    4     -6.79      0.00
   -2    6    4     -7.91      0.00
    0    6    4     12.86      0.00
    2    6    4      8.77      0.00
    4    6    4    -14.49      0.00
    6    6    4     -5.94      0.00
    8    6    4      6.77      0.00
   10    6    4     -1.30      0.00
   12    6    4    -10.19      0.00
   14    6    4      4.18      0.00
   16    6    4      2.41      0.00
   18    6    4      0.57      0.00
   20    6    4      0.85      0.00
   22    6    4     -0.43      0.00
   24    6    4      5.37      0.00
  -27    7    4      2.65      0.00
  -25    7    4     -5.08      0.00
  -23    7    4     -4.58      0.00
  -21    7    4      1.68      0.00
  -19    7    4      2.59      0.00
  -17    7    4     -6.91      0.00
  -15    7    4     -0.99      0.00
  -13    7    4     -2.22      0.00
  -11    7    4      2.68      0.00
   -9    7    4     -5.65      0.00
   -7    7    4      0.93      0.00
   -5    7    4     10.94      0.00
   -3    7    4     11.81      0.00
   -1    7    4      0.60      0.00
    1    7    4    -12.84      0.00
    3    7    4      1.08      0.00
    5    7    4      5.42      0.00
    7    7    4      0.36      0.00
    9    7    4      0.61      0.00
   11    7    4      4.21      0.00
   13    7    4     -1.83      0.00
   15    7    4      0.93      0.00
   17    7    4     -0.28      0.00
   19    7    4      3.67      0.00
   21    7    4     -7.11      0.00
   23    7    4     -3.50      0.00
  -26    8    4      5.40      0.00
  -24    8    4     10.07      0.00
  -22    8    4      6.94      0.00
  -20    8    4     -0.42      0.00
  -18    8    4      0.49      0.00
  -16    8    4      7.29      0.00
  -14    8    4     -0.70      0.00
  -12    8    4      0.07      0.00
  -10    8    4      6.46      0.00
   -8    8    4     -0.28      0.00
   -6    8    4     -3.14      0.00
   -4    8    4     -1.05      0.00
   -2    8    4     -3.25      0.00
    0    8    4      0.46      0.00
    2    8    4     -3.83      0.00
    4    8    4      6.49      0.00
    6    8    4      0.39      0.00
    8    8    4     -5.47      0.00
   10    8    4     -1.15      0.00
   12    8    4      4.23      0.00
   14    8    4     -6.16      0.00
   16    8    4     -9.84      0.00
   18    8    4     12.24      0.00
   20    8    4      1.96      0.00
   22    8    4     -1.05      0.00
  -23    9    4      0.98      0.00
  -21    9    4      2.61      0.00
  -19    9    4     12.64      0.00
  -17    9    4    -11.95      0.00
  -15    9    4      2.31      0.00
  -13    9    4     -1.47      0.00
  -11    9    4     -2.87      0.00
   -9    9    4     -0.71      0.00
   -7    9    4     -4.28      0.00
   -5    9    4     -4.79      0.00
   -3    9    4      4.64      0.00
   -1    9    4      2.05      0.00
    1    9    4     -1.89      0.00
    3    9    4     -1.41      0.00
    5    9    4      5.06      0.00
    7    9    4     -0.53      0.00
    9    9    4     -3.12      0.00
   11    9    4      0.98      0.00
   13    9    4      5.80      0.00
   15    9    4     -1.80      0.00
   17    9    4      0.48      0.00
   19    9    4      0.58      0.00
  -20   10    4     -5.97      0.00
  -18   10    4     -4.25      0.00
  -16   10    4      5.66      0.00
  -14   10    4     -1.38      0.00
  -12   10    4      1.30      0.00
  -10   10    4      4.45      0.00
   -8   10    4     -1.73      0.00
   -6   10    4     -4.19      0.00
   -4   10    4      6.10      0.00
   -2   10    4      0.42      0.00
    0   10    4     -5.77      0.00
    2   10    4     -0.97      0.00
    4   10    4     -1.80      0.00
    6   10    4      0.70      0.00
    8   10    4      1.04      0.00
   10   10    4      6.88      0.00
   12   10    4      0.58      0.00
   14   10    4    -12.29      0.00
   16   10    4     -2.36      0.00
   18   10    4     -1.04      0.00
  -17   11    4      2.44      0.00
  -15   11    4      3.67      0.00
  -13   11    4      5.13      0.00
  -11   11    4     -0.58      0.00
   -9   11    4     -7.41      0.00
   -7   11    4     -0.29      0.00
   -5   11    4      2.56      0.00
   -3   11    4      0.39      0.00
   -1   11    4     -3.91      0.00
    1   11    4      1.12      0.00
    3   11    4     16.41      0.00
    5   11    4     -1.14      0.00
    7   11    4      0.47      0.00
    9   11    4     -5.20      0.00
   11   11    4      0.91      0.00
   13   11    4     -2.68      0.00
   15   11    4     -6.79      0.00
  -14   12    4      0.75      0.00
  -12   12    4      1.31      0.00
  -10   12    4     -4.16      0.00
   -8   12    4     -0.86      0.00
   -6   12    4      0.32      0.00
   -4   12    4     -9.16      0.00
   -2   12    4     -2.85      0.00
    0   12    4     16.33      0.00
    2   12    4     -2.05      0.00
    4   12    4     -1.31      0.00
    6   12    4      5.12      0.00
    8   12    4     -7.18      0.00
   10   12    4     -4.78      0.00
   -5   13    4      3.37      0.00
   -3   13    4      1.35      0.00
   -1   13    4     -9.54      0.00
    1   13    4      0.63      0.00
    3   13    4      1.90      0.00
  -31    1    5     -6.67      0.00
  -29    1    5    -11.03      0.00
  -27    1    5      5.07      0.00
  -25    1    5      0.45      0.00
  -23    1    5     -3.96      0.00
  -21    1    5      4.64      0.00
  -19    1    5     -1.81      0.00
  -17    1    5     11.24      0.00
  -15    1    5    -11.67      0.00
  -13    1    5      9.09      0.00
  -11    1    5      6.14      0.00
   -9    1    5    -17.00      0.00
   -7    1    5    -26.32      0.00
   -5    1    5     18.17      0.00
   -3    1    5    174.29      0.00
   -1    1    5   -102.46      0.00
    5    1    5    -11.21      0.00
    7    1    5     26.92      0.00
    9    1    5      5.71      0.00
   11    1    5     -4.32      0.00
   13    1    5      7.49      0.00
   15    1    5     -6.32      0.00
   17    1    5     -7.14      0.00
   19    1    5      1.88      0.00
   21    1    5      0.02      0.00
   23    1    5      1.72      0.00
   25    1    5     -8.00      0.00
   27    1    5      8.87      0.00
  -32    2    5      6.80      0.00
  -30    2    5     -1.44      0.00
  -28    2    5     -4.30      0.00
  -26    2    5     -2.20      0.00
  -24    2    5     13.55      0.00
  -22    2    5     -1.14      0.00
  -20    2    5     -5.49      0.00
  -18    2    5     -7.52      0.00
  -16    2    5      3.31      0.00
  -14    2    5     18.82      0.00
  -12    2    5      5.65      0.00
  -10    2    5    -24.53      0.00
   -8    2    5     18.74      0.00
   -6    2    5     12.41      0.00
   -2    2    5    -25.79      0.00
    0    2    5     -2.18      0.00
    2    2    5     51.49      0.00
    4    2    5     10.54      0.00
    6    2    5    -15.82      0.00
    8    2    5     -1.40      0.00
   10    2    5    -11.30      0.00
   12    2    5     -2.70      0.00
   14    2    5      4.13      0.00
   16    2    5     10.85      0.00
   18    2    5      6.72      0.00
   20    2    5     -0.59      0.00
   22    2    5     -0.29      0.00
   24    2    5      2.22      0.00
   26    2    5      3.14      0.00
   28    2    5     -2.18      0.00
  -31    3    5     -0.87      0.00
  -29    3    5      3.91      0.00
  -27    3    5     -3.86      0.00
  -25    3    5     -2.40      0.00
  -23    3    5      5.02      0.00
  -21    3    5     -2.44      0.00
  -19    3    5      4.89      0.00
  -17    3    5      4.09      0.00
  -15    3    5      1.79      0.00
  -13    3    5     -5.23      0.00
  -11    3    5      0.85      0.00
   -9    3    5     -9.35      0.00
   -7    3    5    -20.33      0.00
   -5    3    5     25.16      0.00
   -3    3    5     18.18      0.00
   -1    3    5    -18.77      0.00
    1    3    5      0.33      0.00
    3    3    5    -11.09      0.00
    5    3    5     -3.34      0.00
    7    3    5     12.22      0.00
    9    3    5      0.65      0.00
   11    3    5     -1.91      0.00
   13    3    5     -4.83      0.00
   15    3    5     -0.62      0.00
   17    3    5      1.69      0.00
   19    3    5      6.47      0.00
   21    3    5     -1.77      0.00
   23    3    5     -1.26      0.00
   25    3    5      2.53      0.00
   27    3    5      4.98      0.00
  -30    4    5      3.20      0.00
  -28    4    5      0.47      0.00
  -26    4    5      1.67      0.00
  -24    4    5      1.37      0.00
  -22    4    5      1.02      0.00
  -20    4    5     -1.19      0.00
  -18    4    5     -8.15      0.00
  -16    4    5     -9.72      0.00
  -14    4    5     -5.95      0.00
  -12    4    5     -4.76      0.00
  -10    4    5     33.28      0.00
   -8    4    5      9.63      0.00
   -6    4    5    -37.88      0.00
   -4    4    5      6.95      0.00
   -2    4    5     10.22      0.00
    0    4    5     16.05      0.00
    2    4    5      7.80      0.00
    4    4    5     -9.72      0.00
    6    4    5    -19.45      0.00
    8    4    5      6.67      0.00
   10    4    5      1.07      0.00
   12    4    5     -5.26      0.00
   14    4    5      1.38      0.00
   16    4    5      2.96      0.00
   18    4    5     -9.61      0.00
   20    4    5     -1.04      0.00
   22    4    5      4.04      0.00
   24    4    5      4.96      0.00
   26    4    5     -4.87      0.00
  -29    5    5     11.44      0.00
  -27    5    5     -5.17      0.00
  -25    5    5     -8.79      0.00
  -23    5    5      4.48      0.00
  -21    5    5      2.77      0.00
  -19    5    5     -8.83      0.00
  -17    5    5      3.07      0.00
  -15    5    5      7.34      0.00
  -13    5    5     -3.01      0.00
  -11    5    5     -9.38      0.00
   -9    5    5     -5.04      0.00
   -7    5    5     -8.71      0.00
   -5    5    5     -1.20      0.00
   -3    5    5     -3.51      0.00
   -1    5    5     -4.04      0.00
    1    5    5     -4.00      0.00
    3    5    5     -2.90      0.00
    5    5    5      1.12      0.00
    7    5    5     -1.00      0.00
    9    5    5      4.31      0.00
   11    5    5      4.50      0.00
   13    5    5     -4.24      0.00
   15    5    5      1.78      0.00
   17    5    5    -12.45      0.00
   19    5    5     -1.14      0.00
   21    5    5      0.79      0.00
   23    5    5     -9.43      0.00
   25    5    5      5.87      0.00
  -28    6    5     -5.15      0.00
  -26    6    5      4.77      0.00
  -24    6    5      2.89      0.00
  -22    6    5      1.75      0.00
  -20    6    5      2.45      0.00
  -18    6    5     10.85      0.00
  -16    6    5      4.28      0.00
  -14    6    5     -1.87      0.00
  -12    6    5     -5.91      0.00
  -10    6    5     -7.44      0.00
   -8    6    5     -8.45      0.00
   -6    6    5      5.62      0.00
   -4    6    5     -1.14      0.00
   -2    6    5     -0.05      0.00
    0    6    5     15.76      0.00
    2    6    5    -20.01      0.00
    4    6    5     -0.09      0.00
    6    6    5      8.58      0.00
    8    6    5     -1.22      0.00
   10    6    5      0.76      0.00
   12    6    5      4.43      0.00
   14    6    5     -2.00      0.00
   16    6    5      2.32      0.00
   18    6    5      0.72      0.00
   20    6    5      2.68      0.00
   22    6    5      2.09      0.00
   24    6    5      0.06      0.00
  -27    7    5    -10.03      0.00
  -25    7    5      0.09      0.00
  -23    7    5     -4.05      0.00
  -21    7    5     -0.94      0.00
  -19    7    5      2.42      0.00
  -17    7    5     -6.32      0.00
  -15    7    5     -5.92      0.00
  -13    7    5      3.84      0.00
  -11    7    5      3.43      0.00
   -9    7    5      7.91      0.00
   -7    7    5     -0.56      0.00
   -5    7    5     -4.58      0.00
   -3    7    5      3.66      0.00
   -1    7    5      6.67      0.00
    1    7    5     -0.27      0.00
    3    7    5     -9.34      0.00
    5    7    5     -4.71      0.00
    7    7    5      5.22      0.00
    9    7    5     -2.48      0.00
   11    7    5     -7.66      0.00
   13    7    5      5.56      0.00
   15    7    5      5.50      0.00
   17    7    5    -10.34      0.00
   19    7    5      0.61      0.00
   21    7    5      0.91      0.00
   23    7    5      1.23      0.00
  -26    8    5     -9.72      0.00
  -24    8    5     -6.47      0.00
  -22    8    5      0.86      0.00
  -20    8    5     -0.93      0.00
  -18    8    5      4.16      0.00
  -16    8    5     -6.25      0.00
  -14    8    5     -1.55      0.00
  -12    8    5      4.97      0.00
  -10    8    5      1.02      0.00
   -8    8    5      6.49      0.00
   -6    8    5      8.26      0.00
   -4    8    5     -2.81      0.00
   -2    8    5      5.80      0.00
    0    8    5     -1.68      0.00
    2    8    5      0.60      0.00
    4    8    5      2.26      0.00
    6    8    5      5.28      0.00
    8    8    5      0.82      0.00
   10    8    5      7.61      0.00
   12    8    5      0.78      0.00
   14    8    5      2.83      0.00
   16    8    5     -4.02      0.00
   18    8    5     -2.19      0.00
   20    8    5     -4.36      0.00
   22    8    5      2.72      0.00
  -23    9    5      5.24      0.00
  -21    9    5     -2.18      0.00
  -19    9    5      1.26      0.00
  -17    9    5      0.59      0.00
  -15    9    5     -0.09      0.00
  -13    9    5      0.24      0.00
  -11    9    5     -1.15      0.00
   -9    9    5      3.32      0.00
   -7    9    5     -1.15      0.00
   -5    9    5     -3.94      0.00
   -3    9    5     -1.13      0.00
   -1    9    5     -0.22      0.00
    1    9    5      0.19      0.00
    3    9    5     -0.53      0.00
    5    9    5      2.91      0.00
    7    9    5     -2.37      0.00
    9    9    5     -2.40      0.00
   11    9    5      1.01      0.00
   13    9    5      4.13      0.00
   15    9    5     -3.58      0.00
   17    9    5     12.35      0.00
   19    9    5     -9.76      0.00
  -22   10    5      7.35      0.00
  -20   10    5      4.89      0.00
  -18   10    5      0.65      0.00
  -16   10    5     -5.49      0.00
  -14   10    5     -1.46      0.00
  -12   10    5      5.48      0.00
  -10   10    5      2.15      0.00
   -8   10    5     -1.95      0.00
   -6   10    5     -1.37      0.00
   -4   10    5     -1.32      0.00
   -2   10    5      3.30      0.00
    0   10    5     -8.45      0.00
    2   10    5     -7.96      0.00
    4   10    5      6.03      0.00
    6   10    5      2.80      0.00
    8   10    5      1.43      0.00
   10   10    5      0.35      0.00
   12   10    5      9.70      0.00
   14   10    5     -0.53      0.00
   16   10    5     -0.59      0.00
   18   10    5     -1.72      0.00
  -19   11    5     -0.23      0.00
  -17   11    5      0.86      0.00
  -15   11    5     -0.43      0.00
  -13   11    5      1.01      0.00
  -11   11    5      4.61      0.00
   -9   11    5     -3.86      0.00
   -7   11    5     -7.85      0.00
   -5   11    5     13.60      0.00
   -3   11    5     -4.74      0.00
   -1   11    5    -18.03      0.00
    1   11    5     10.83      0.00
    3   11    5      3.37      0.00
    5   11    5     -1.47      0.00
    7   11    5     -0.80      0.00
    9   11    5      7.18      0.00
   11   11    5    -12.97      0.00
   13   11    5    -10.16      0.00
   15   11    5      5.05      0.00
  -14   12    5     -5.17      0.00
  -12   12    5      8.73      0.00
  -10   12    5     -8.21      0.00
   -8   12    5      6.34      0.00
   -6   12    5     13.26      0.00
   -4   12    5      1.57      0.00
   -2   12    5      4.78      0.00
    0   12    5     -0.90      0.00
    2   12    5      4.15      0.00
    4   12    5     -1.43      0.00
    6   12    5      1.27      0.00
    8   12    5     -2.78      0.00
   10   12    5     -4.62      0.00
   -5   13    5    -11.28      0.00
   -3   13    5      7.91      0.00
   -1   13    5     12.97      0.00
    1   13    5     -1.76      0.00
  -32    0    6     16.27      0.00
  -30    0    6      0.88      0.00
  -28    0    6     -1.82      0.00
  -26    0    6      0.44      0.00
  -24    0    6      4.79      0.00
  -22    0    6      0.04      0.00
  -20    0    6     -1.94      0.00
  -18    0    6    -12.95      0.00
  -16    0    6      5.43      0.00
  -14    0    6     -2.03      0.00
  -12    0    6     14.32      0.00
  -10    0    6     -0.45      0.00
   -8    0    6     32.28      0.00
   -6    0    6    -28.13      0.00
   -4    0    6   -106.90      0.00
   -2    0    6    215.32      0.00
    4    0    6     29.93      0.00
    6    0    6    -29.11      0.00
    8    0    6     -0.87      0.00
   10    0    6     -6.07      0.00
   12    0    6     -1.00      0.00
   14    0    6     12.04      0.00
   16    0    6      9.42      0.00
   18    0    6     -2.30      0.00
   20    0    6     -2.23      0.00
   22    0    6     -0.57      0.00
   24    0    6     -1.15      0.00
   26    0    6     -3.61      0.00
  -31    1    6     -0.15      0.00
  -29    1    6      3.91      0.00
  -27    1    6     -0.76      0.00
  -25    1    6     -5.91      0.00
  -23    1    6     -5.43      0.00
  -21    1    6      3.30      0.00
  -19    1    6      3.80      0.00
  -17    1    6      1.92      0.00
  -15    1    6     -4.35      0.00
  -13    1    6     -0.18      0.00
  -11    1    6     13.42      0.00
   -9    1    6    -11.21      0.00
   -7    1    6    -18.49      0.00
   -5    1    6     -8.76      0.00
   -3    1    6     28.22      0.00
   -1    1    6    -22.95      0.00
    1    1    6    -52.80      0.00
    3    1    6     27.79      0.00
    5    1    6      3.81      0.00
    7    1    6     -1.13      0.00
    9    1    6     18.20      0.00
   11    1    6     -2.81      0.00
   13    1    6     -4.10      0.00
   15    1    6    -10.69      0.00
   17    1    6     -1.25      0.00
   19    1    6      6.41      0.00
   21    1    6     -1.62      0.00
   23    1    6     -4.96      0.00
   25    1    6      3.57      0.00
   27    1    6     -2.46      0.00
  -32    2    6     -6.90      0.00
  -30    2    6     -0.60      0.00
  -28    2    6      3.27      0.00
  -26    2    6      1.23      0.00
  -24    2    6     -3.69      0.00
  -22    2    6      3.55      0.00
  -20    2    6     -2.31      0.00
  -18    2    6     -2.89      0.00
  -16    2    6      0.29      0.00
  -14    2    6      2.61      0.00
  -12    2    6    -10.86      0.00
  -10    2    6     16.45      0.00
   -8    2    6      8.82      0.00
   -6    2    6    -39.56      0.00
   -4    2    6     15.84      0.00
   -2    2    6    -30.25      0.00
    0    2    6    -30.48      0.00
    2    2    6     42.02      0.00
    4    2    6    -18.63      0.00
    6    2    6    -10.32      0.00
    8    2    6     -5.10      0.00
   10    2    6      3.72      0.00
   12    2    6      9.94      0.00
   14    2    6     -1.48      0.00
   16    2    6     -2.56      0.00
   18    2    6     -7.68      0.00
   20    2    6      3.59      0.00
   22    2    6      1.91      0.00
   24    2    6      2.35      0.00
   26    2    6     -3.97      0.00
  -31    3    6     -9.45      0.00
  -29    3    6     -1.27      0.00
  -27    3    6     14.63      0.00
  -25    3    6     -0.08      0.00
  -23    3    6     -5.05      0.00
  -21    3    6     -5.99      0.00
  -19    3    6      3.75      0.00
  -17    3    6      5.49      0.00
  -15    3    6      5.25      0.00
  -13    3    6     -4.32      0.00
  -11    3    6    -28.01      0.00
   -9    3    6     15.55      0.00
   -7    3    6     28.64      0.00
   -5    3    6    -31.38      0.00
   -3    3    6    -23.03      0.00
   -1    3    6      4.38      0.00
    1    3    6     23.87      0.00
    3    3    6     -0.87      0.00
    5    3    6      6.80      0.00
    7    3    6    -12.63      0.00
    9    3    6     -7.77      0.00
   11    3    6      3.17      0.00
   13    3    6     -2.57      0.00
   15    3    6      0.37      0.00
   17    3    6      7.88      0.00
   19    3    6      2.12      0.00
   21    3    6     -6.50      0.00
   23    3    6     -2.85      0.00
   25    3    6      3.64      0.00
   27    3    6     -1.06      0.00
  -30    4    6     -3.72      0.00
  -28    4    6      4.14      0.00
  -26    4    6     -1.86      0.00
  -24    4    6     -4.46      0.00
  -22    4    6      3.15      0.00
  -20    4    6     10.99      0.00
  -18    4    6     -6.17      0.00
  -16    4    6     -0.28      0.00
  -14    4    6     -1.56      0.00
  -12    4    6      4.29      0.00
  -10    4    6     -3.49      0.00
   -8    4    6      5.60      0.00
   -6    4    6     21.66      0.00
   -4    4    6     11.88      0.00
   -2    4    6     -3.94      0.00
    0    4    6     11.69      0.00
    2    4    6     -6.52      0.00
    4    4    6     -5.95      0.00
    6    4    6     15.26      0.00
    8    4    6     -3.30      0.00
   10    4    6     -2.35      0.00
   12    4    6      4.58      0.00
   14    4    6      0.52      0.00
   16    4    6      4.14      0.00
   18    4    6     -2.15      0.00
   20    4    6      6.62      0.00
   22    4    6     -6.98      0.00
   24    4    6     -1.07      0.00
   26    4    6      1.44      0.00
  -29    5    6     -2.37      0.00
  -27    5    6     -0.81      0.00
  -25    5    6      1.39      0.00
  -23    5    6    -10.63      0.00
  -21    5    6      0.96      0.00
  -19    5    6     -6.32      0.00
  -17    5    6     -4.95      0.00
  -15    5    6      4.56      0.00
  -13    5    6      1.92      0.00
  -11    5    6     21.94      0.00
   -9    5    6      6.47      0.00
   -7    5    6    -13.75      0.00
   -5    5    6     -0.18      0.00
   -3    5    6    -13.90      0.00
   -1    5    6     10.13      0.00
    1    5    6     27.34      0.00
    3    5    6    -12.16      0.00
    5    5    6    -17.43      0.00
    7    5    6      1.34      0.00
    9    5    6     -2.06      0.00
   11    5    6     -2.35      0.00
   13    5    6      5.20      0.00
   15    5    6      2.18      0.00
   17    5    6      0.89      0.00
   19    5    6     -1.39      0.00
   21    5    6      3.68      0.00
   23    5    6      9.96      0.00
   25    5    6      1.04      0.00
  -28    6    6     -2.00      0.00
  -26    6    6     -5.99      0.00
  -24    6    6      3.87      0.00
  -22    6    6      4.63      0.00
  -20    6    6     -1.24      0.00
  -18    6    6      5.23      0.00
  -16    6    6     -1.74      0.00
  -14    6    6     -6.49      0.00
  -12    6    6     -9.48      0.00
  -10    6    6     -4.61      0.00
   -8    6    6     -7.44      0.00
   -6    6    6      7.47      0.00
   -4    6    6      4.72      0.00
   -2    6    6     -6.11      0.00
    0    6    6     -5.00      0.00
    2    6    6     -1.89      0.00
    4    6    6      9.92      0.00
    6    6    6     -0.56      0.00
    8    6    6      1.46      0.00
   10    6    6      2.40      0.00
   12    6    6     -1.32      0.00
   14    6    6     -7.33      0.00
   16    6    6     -5.28      0.00
   18    6    6      5.07      0.00
   20    6    6     -0.14      0.00
   22    6    6     -9.87      0.00
   24    6    6      0.50      0.00
  -27    7    6     12.96      0.00
  -25    7    6     13.00      0.00
  -23    7    6     -8.12      0.00
  -21    7    6     -3.18      0.00
  -19    7    6      0.60      0.00
  -17    7    6      7.21      0.00
  -15    7    6     -4.30      0.00
  -13    7    6     -4.72      0.00
  -11    7    6      0.91      0.00
   -9    7    6     -4.46      0.00
   -7    7    6     -1.27      0.00
   -5    7    6     -6.16      0.00
   -3    7    6     -9.92      0.00
   -1    7    6      9.42      0.00
    1    7    6     -6.68      0.00
    3    7    6      0.38      0.00
    5    7    6     -3.12      0.00
    7    7    6     -3.67      0.00
    9    7    6     -4.98      0.00
   11    7    6      2.80      0.00
   13    7    6      1.72      0.00
   15    7    6      5.00      0.00
   17    7    6      2.79      0.00
   19    7    6     -0.68      0.00
   21    7    6     -3.73      0.00
   23    7    6      5.16      0.00
  -26    8    6      1.06      0.00
  -24    8    6     -0.03      0.00
  -22    8    6     -5.09      0.00
  -20    8    6      8.55      0.00
  -18    8    6     -8.40      0.00
  -16    8    6     -1.25      0.00
  -14    8    6     -0.89      0.00
  -12    8    6      9.15      0.00
  -10    8    6     -5.76      0.00
   -8    8    6     -0.79      0.00
   -6    8    6      5.64      0.00
   -4    8    6      4.63      0.00
   -2    8    6      0.66      0.00
    0    8    6     -5.33      0.00
    2    8    6     -2.68      0.00
    4    8    6      0.08      0.00
    6    8    6      4.34      0.00
    8    8    6      2.09      0.00
   10    8    6     -0.67      0.00
   12    8    6      0.21      0.00
   14    8    6     -3.06      0.00
   16    8    6     -8.96      0.00
   18    8    6     11.42      0.00
   20    8    6      0.12      0.00
  -23    9    6     -0.90      0.00
  -21    9    6     -7.24      0.00
  -19    9    6      0.08      0.00
  -17    9    6     -0.85      0.00
  -15    9    6      3.74      0.00
  -13    9    6      1.82      0.00
  -11    9    6      5.22      0.00
   -9    9    6      2.11      0.00
   -7    9    6     -1.95      0.00
   -5    9    6     -1.91      0.00
   -3    9    6      7.18      0.00
   -1    9    6      5.37      0.00
    1    9    6      0.69      0.00
    3    9    6      4.84      0.00
    5    9    6     -1.44      0.00
    7    9    6     -3.01      0.00
    9    9    6      6.84      0.00
   11    9    6      4.32      0.00
   13    9    6     -2.27      0.00
   15    9    6     -5.42      0.00
   17    9    6      8.07      0.00
   19    9    6      1.49      0.00
  -22   10    6     -1.35      0.00
  -20   10    6      2.83      0.00
  -18   10    6     -5.87      0.00
  -16   10    6      0.46      0.00
  -14   10    6     -2.15      0.00
  -12   10    6      6.29      0.00
  -10   10    6      3.89      0.00
   -8   10    6      1.45      0.00
   -6   10    6     -4.29      0.00
   -4   10    6      1.45      0.00
   -2   10    6      3.14      0.00
    0   10    6     -7.59      0.00
    2   10    6      0.77      0.00
    4   10    6      3.02      0.00
    6   10    6      6.00      0.00
    8   10    6     -5.10      0.00
   10   10    6      5.57      0.00
   12   10    6      4.32      0.00
   14   10    6    -12.98      0.00
   16   10    6      0.98      0.00
  -19   11    6     -2.76      0.00
  -17   11    6      2.01      0.00
  -15   11    6      1.90      0.00
  -13   11    6      3.47      0.00
  -11   11    6      1.58      0.00
   -9   11    6     -8.02      0.00
   -7   11    6    -18.81      0.00
   -5   11    6     -1.05      0.00
   -3   11    6     -0.40      0.00
   -1   11    6     -0.03      0.00
    1   11    6     -1.45      0.00
    3   11    6      4.46      0.00
    5   11    6     -1.58      0.00
    7   11    6     -7.02      0.00
    9   11    6      8.52      0.00
   11   11    6      4.56      0.00
   13   11    6     -4.30      0.00
  -14   12    6      4.88      0.00
  -12   12    6     -0.38      0.00
  -10   12    6     -8.31      0.00
   -8   12    6      5.85      0.00
   -6   12    6      9.01      0.00
   -4   12    6     -9.79      0.00
   -2   12    6    -21.79      0.00
    0   12    6     16.40      0.00
    2   12    6      9.87      0.00
    4   12    6     -7.06      0.00
    6   12    6     -0.28      0.00
    8   12    6      1.33      0.00
   10   12    6    -14.58      0.00
   -5   13    6      3.85      0.00
   -3   13    6     -2.82      0.00
   -1   13    6     -3.04      0.00
    1   13    6     -2.37      0.00
  -33    1    7      2.74      0.00
  -31    1    7     -4.16      0.00
  -29    1    7     -4.33      0.00
  -27    1    7      6.18      0.00
  -25    1    7      4.86      0.00
  -23    1    7     -0.62      0.00
  -21    1    7      0.33      0.00
  -19    1    7     -4.41      0.00
  -17    1    7      5.14      0.00
  -15    1    7      8.52      0.00
  -13    1    7     17.59      0.00
  -11    1    7    -16.40      0.00
   -9    1    7     15.71      0.00
   -7    1    7     15.18      0.00
   -5    1    7     -2.19      0.00
   -3    1    7     76.85      0.00
   -1    1    7     11.89      0.00
    1    1    7    -27.19      0.00
    3    1    7     36.50      0.00
    5    1    7    -22.14      0.00
    7    1    7     -0.71      0.00
    9    1    7    -14.56      0.00
   11    1    7     -4.64      0.00
   13    1    7      9.94      0.00
   15    1    7      3.70      0.00
   17    1    7     -0.29      0.00
   19    1    7     -1.96      0.00
   21    1    7     -6.83      0.00
   23    1    7     -0.30      0.00
   25    1    7      5.34      0.00
   27    1    7      3.78      0.00
  -32    2    7      6.65      0.00
  -30    2    7     -5.52      0.00
  -28    2    7     -6.95      0.00
  -26    2    7     -3.12      0.00
  -24    2    7      1.95      0.00
  -22    2    7      2.28      0.00
  -20    2    7      0.76      0.00
  -18    2    7     14.68      0.00
  -16    2    7     -9.28      0.00
  -14    2    7      6.18      0.00
  -12    2    7      7.09      0.00
  -10    2    7    -19.20      0.00
   -8    2    7     -4.14      0.00
   -6    2    7     26.20      0.00
   -4    2    7     23.95      0.00
   -2    2    7    -60.34      0.00
    0    2    7     -7.38      0.00
    2    2    7     30.65      0.00
    4    2    7    -10.85      0.00
    6    2    7     16.56      0.00
    8    2    7      9.48      0.00
   10    2    7     -4.30      0.00
   12    2    7     -1.40      0.00
   14    2    7     -7.03      0.00
   16    2    7     -3.80      0.00
   18    2    7      2.65      0.00
   20    2    7      4.39      0.00
   22    2    7     -4.27      0.00
   24    2    7     -3.13      0.00
   26    2    7      1.88      0.00
  -31    3    7      2.40      0.00
  -29    3    7     -0.89      0.00
  -27    3    7      0.90      0.00
  -25    3    7     -0.31      0.00
  -23    3    7     -4.57      0.00
  -21    3    7     -7.09      0.00
  -19    3    7     -0.75      0.00
  -17    3    7      0.85      0.00
  -15    3    7      3.64      0.00
  -13    3    7    -12.01      0.00
  -11    3    7     16.08      0.00
   -9    3    7     -2.45      0.00
   -7    3    7    -40.00      0.00
   -5    3    7      4.75      0.00
   -3    3    7    -18.70      0.00
   -1    3    7      3.55      0.00
    1    3    7     32.90      0.00
    3    3    7    -23.81      0.00
    5    3    7    -15.30      0.00
    7    3    7      6.95      0.00
    9    3    7      8.14      0.00
   11    3    7      1.63      0.00
   13    3    7      4.49      0.00
   15    3    7      5.53      0.00
   17    3    7     -5.22      0.00
   19    3    7     -0.36      0.00
   21    3    7     11.26      0.00
   23    3    7      1.81      0.00
   25    3    7     -4.11      0.00
  -30    4    7     10.62      0.00
  -28    4    7      0.91      0.00
  -26    4    7     -0.77      0.00
  -24    4    7      1.37      0.00
  -22    4    7     -6.28      0.00
  -20    4    7      4.99      0.00
  -18    4    7      1.88      0.00
  -16    4    7      1.32      0.00
  -14    4    7     -7.23      0.00
  -12    4    7    -15.93      0.00
  -10    4    7     -3.61      0.00
   -8    4    7     -3.17      0.00
   -6    4    7     -5.06      0.00
   -4    4    7     10.74      0.00
   -2    4    7    -12.72      0.00
    0    4    7    -14.81      0.00
    2    4    7      9.35      0.00
    4    4    7     10.68      0.00
    6    4    7     -3.64      0.00
    8    4    7     -3.53      0.00
   10    4    7     -2.94      0.00
   12    4    7     -5.14      0.00
   14    4    7     -5.93      0.00
   16    4    7      3.22      0.00
   18    4    7      3.63      0.00
   20    4    7     -8.75      0.00
   22    4    7     -7.46      0.00
   24    4    7     -1.55      0.00
  -29    5    7      4.79      0.00
  -27    5    7     -4.55      0.00
  -25    5    7     -3.04      0.00
  -23    5    7      4.62      0.00
  -21    5    7      0.57      0.00
  -19    5    7     -2.63      0.00
  -17    5    7      1.03      0.00
  -15    5    7      3.77      0.00
  -13    5    7     -1.05      0.00
  -11    5    7      6.64      0.00
   -9    5    7     13.93      0.00
   -7    5    7     -4.42      0.00
   -5    5    7     -5.65      0.00
   -3    5    7      8.21      0.00
   -1    5    7     24.26      0.00
    1    5    7     -6.66      0.00
    3    5    7    -12.25      0.00
    5    5    7      4.37      0.00
    7    5    7      3.29      0.00
    9    5    7     -1.02      0.00
   11    5    7      1.07      0.00
   13    5    7      5.65      0.00
   15    5    7      0.37      0.00
   17    5    7    -11.08      0.00
   19    5    7      5.02      0.00
   21    5    7      3.48      0.00
   23    5    7     -1.51      0.00
   25    5    7      2.21      0.00
  -28    6    7     -7.00      0.00
  -26    6    7     -0.31      0.00
  -24    6    7     -0.77      0.00
  -22    6    7      4.63      0.00
  -20    6    7     -0.95      0.00
  -18    6    7     -3.88      0.00
  -16    6    7      3.35      0.00
  -14    6    7      3.75      0.00
  -12    6    7      4.07      0.00
  -10    6    7      6.90      0.00
   -8    6    7     -3.94      0.00
   -6    6    7      3.17      0.00
   -4    6    7     -2.24      0.00
   -2    6    7     -3.70      0.00
    0    6    7     15.04      0.00
    2    6    7     -9.82      0.00
    4    6    7     -0.23      0.00
    6    6    7     -2.71      0.00
    8    6    7      0.80      0.00
   10    6    7     -3.25      0.00
   12    6    7     -0.75      0.00
   14    6    7      2.57      0.00
   16    6    7      2.12      0.00
   18    6    7     -0.09      0.00
   20    6    7      1.28      0.00
   22    6    7      2.31      0.00
  -27    7    7     -7.42      0.00
  -25    7    7      3.04      0.00
  -23    7    7     10.37      0.00
  -21    7    7     -1.50      0.00
  -19    7    7      2.15      0.00
  -17    7    7     -5.92      0.00
  -15    7    7     -2.94      0.00
  -13    7    7     -4.63      0.00
  -11    7    7      3.87      0.00
   -9    7    7      3.46      0.00
   -7    7    7     -0.75      0.00
   -5    7    7     -1.71      0.00
   -3    7    7      5.13      0.00
   -1    7    7      1.99      0.00
    1    7    7     -5.77      0.00
    3    7    7      2.42      0.00
    5    7    7     -6.22      0.00
    7    7    7     -4.99      0.00
    9    7    7      7.15      0.00
   11    7    7      2.48      0.00
   13    7    7     -0.72      0.00
   15    7    7     -3.63      0.00
   17    7    7     -4.83      0.00
   19    7    7      2.97      0.00
   21    7    7      2.21      0.00
  -26    8    7     11.37      0.00
  -24    8    7     -7.39      0.00
  -22    8    7     -5.68      0.00
  -20    8    7      2.75      0.00
  -18    8    7      1.98      0.00
  -16    8    7     -6.26      0.00
  -14    8    7      0.21      0.00
  -12    8    7     -3.14      0.00
  -10    8    7      0.63      0.00
   -8    8    7     -1.41      0.00
   -6    8    7     -7.32      0.00
   -4    8    7    -10.63      0.00
   -2    8    7      5.63      0.00
    0    8    7      0.68      0.00
    2    8    7     -5.00      0.00
    4    8    7      0.82      0.00
    6    8    7     -2.12      0.00
    8    8    7    -10.08      0.00
   10    8    7     -2.10      0.00
   12    8    7      5.53      0.00
   14    8    7      4.83      0.00
   16    8    7     -0.56      0.00
   18    8    7     -8.48      0.00
   20    8    7     -0.66      0.00
  -23    9    7      1.16      0.00
  -21    9    7      1.38      0.00
  -19    9    7      6.62      0.00
  -17    9    7    -10.55      0.00
  -15    9    7     -3.04      0.00
  -13    9    7      2.61      0.00
  -11    9    7     -6.19      0.00
   -9    9    7      4.59      0.00
   -7    9    7      7.24      0.00
   -5    9    7      0.95      0.00
   -3    9    7      0.32      0.00
   -1    9    7     -0.74      0.00
    1    9    7     -1.12      0.00
    3    9    7      0.08      0.00
    5    9    7      4.47      0.00
    7    9    7      6.06      0.00
    9    9    7      1.80      0.00
   11    9    7      2.91      0.00
   13    9    7      4.17      0.00
   15    9    7     -5.01      0.00
   17    9    7      7.02      0.00
   19    9    7     -4.68      0.00
  -22   10    7     -4.73      0.00
  -20   10    7     -5.43      0.00
  -18   10    7     10.01      0.00
  -16   10    7      1.18      0.00
  -14   10    7     -1.05      0.00
  -12   10    7      3.72      0.00
  -10   10    7      2.44      0.00
   -8   10    7      2.50      0.00
   -6   10    7      4.09      0.00
   -4   10    7      0.75      0.00
   -2   10    7      3.26      0.00
    0   10    7      1.58      0.00
    2   10    7      4.56      0.00
    4   10    7      2.78      0.00
    6   10    7      0.99      0.00
    8   10    7      0.54      0.00
   10   10    7     -3.32      0.00
   12   10    7      0.64      0.00
   14   10    7     -1.67      0.00
   16   10    7     12.33      0.00
  -19   11    7      3.11      0.00
  -17   11    7     -6.93      0.00
  -15   11    7      0.27      0.00
  -13   11    7     13.49      0.00
  -11   11    7      5.08      0.00
   -9   11    7     -5.21      0.00
   -7   11    7     -0.15      0.00
   -5   11    7     -0.05      0.00
   -3   11    7      4.89      0.00
   -1   11    7    -10.56      0.00
    1   11    7      1.50      0.00
    3   11    7      1.85      0.00
    5   11    7     10.62      0.00
    7   11    7     -6.74      0.00
    9   11    7      5.33      0.00
   11   11    7      1.25      0.00
   13   11    7     -9.77      0.00
  -14   12    7    -10.89      0.00
  -12   12    7      1.86      0.00
  -10   12    7     -7.59      0.00
   -8   12    7    -10.61      0.00
   -6   12    7      2.30      0.00
   -4   12    7      8.19      0.00
   -2   12    7      3.28      0.00
    0   12    7     -2.27      0.00
    2   12    7     -5.49      0.00
    4   12    7     -5.46      0.00
    6   12    7     -5.41      0.00
    8   12    7     12.82      0.00
   -3   13    7     -3.57      0.00
   -1   13    7      5.92      0.00
  -32    0    8      5.90      0.00
  -30    0    8      0.46      0.00
  -28    0    8     -7.50      0.00
  -26    0    8     -1.11      0.00
  -24    0    8     -4.61      0.00
  -22    0    8      6.22      0.00
  -20    0    8      6.46      0.00
  -18    0    8     -3.41      0.00
  -16    0    8     -8.65      0.00
  -14    0    8    -16.90      0.00
  -12    0    8     29.43      0.00
  -10    0    8    -17.43      0.00
   -8    0    8    -11.54      0.00
   -6    0    8      0.29      0.00
   -4    0    8    -43.80      0.00
   -2    0    8      6.87      0.00
    2    0    8      8.39      0.00
    4    0    8     29.09      0.00
    6    0    8      5.81      0.00
    8    0    8     21.47      0.00
   10    0    8     -9.50      0.00
   12    0    8     -8.83      0.00
   14    0    8     -4.51      0.00
   16    0    8      6.32      0.00
   18    0    8      6.76      0.00
   20    0    8     -4.53      0.00
   22    0    8      0.43      0.00
   24    0    8    -10.66      0.00
   26    0    8     -0.42      0.00
  -33    1    8      2.55      0.00
  -31    1    8      2.72      0.00
  -29    1    8      1.70      0.00
  -27    1    8      1.29      0.00
  -25    1    8      3.01      0.00
  -23    1    8     -1.72      0.00
  -21    1    8     -5.24      0.00
  -19    1    8    -13.08      0.00
  -17    1    8      9.99      0.00
  -15    1    8      7.63      0.00
  -13    1    8     -1.12      0.00
  -11    1    8      2.22      0.00
   -9    1    8      3.80      0.00
   -7    1    8    -15.09      0.00
   -5    1    8     -0.80      0.00
   -3    1    8     42.08      0.00
   -1    1    8    -19.80      0.00
    3    1    8     18.12      0.00
    5    1    8    -13.77      0.00
    7    1    8     -8.66      0.00
    9    1    8      5.63      0.00
   11    1    8      4.07      0.00
   13    1    8      6.23      0.00
   15    1    8     -0.58      0.00
   17    1    8     -5.88      0.00
   19    1    8      0.31      0.00
   21    1    8      6.25      0.00
   23    1    8      3.09      0.00
   25    1    8      1.65      0.00
  -32    2    8     -9.05      0.00
  -30    2    8      4.81      0.00
  -28    2    8      7.37      0.00
  -26    2    8     -0.02      0.00
  -24    2    8     -1.64      0.00
  -22    2    8      4.67      0.00
  -20    2    8      4.45      0.00
  -18    2    8     -3.07      0.00
  -16    2    8      0.82      0.00
  -14    2    8     10.98      0.00
  -12    2    8    -29.15      0.00
  -10    2    8      5.40      0.00
   -8    2    8     22.70      0.00
   -6    2    8     -2.72      0.00
   -4    2    8     27.92      0.00
   -2    2    8    -13.22      0.00
    0    2    8    -28.47      0.00
    2    2    8     26.60      0.00
    4    2    8    -14.80      0.00
    6    2    8     -6.05      0.00
    8    2    8     -6.35      0.00
   10    2    8     -2.84      0.00
   12    2    8     -1.24      0.00
   14    2    8     -1.99      0.00
   16    2    8      8.41      0.00
   18    2    8     -2.09      0.00
   20    2    8     -7.48      0.00
   22    2    8     -3.70      0.00
   24    2    8     10.48      0.00
   26    2    8     -3.72      0.00
  -31    3    8     -8.16      0.00
  -29    3    8     -4.02      0.00
  -27    3    8      6.04      0.00
  -25    3    8     -3.77      0.00
  -23    3    8      1.72      0.00
  -21    3    8      0.11      0.00
  -19    3    8      4.21      0.00
  -17    3    8     -4.82      0.00
  -15    3    8     -5.94      0.00
  -13    3    8      3.82      0.00
  -11    3    8      6.75      0.00
   -9    3    8     16.31      0.00
   -7    3    8      8.42      0.00
   -5    3    8    -15.62      0.00
   -3    3    8    -10.05      0.00
   -1    3    8     19.98      0.00
    1    3    8      7.55      0.00
    3    3    8    -17.44      0.00
    5    3    8     14.56      0.00
    7    3    8      0.30      0.00
    9    3    8     -1.79      0.00
   11    3    8      4.27      0.00
   13    3    8     -4.11      0.00
   15    3    8     -8.05      0.00
   17    3    8     -1.37      0.00
   19    3    8      9.76      0.00
   21    3    8     -7.95      0.00
   23    3    8      9.03      0.00
   25    3    8      5.61      0.00
  -30    4    8     -2.92      0.00
  -28    4    8      8.27      0.00
  -26    4    8     -8.21      0.00
  -24    4    8    -10.71      0.00
  -22    4    8      3.92      0.00
  -20    4    8      1.61      0.00
  -18    4    8      0.58      0.00
  -16    4    8      5.17      0.00
  -14    4    8     -2.13      0.00
  -12    4    8     -1.64      0.00
  -10    4    8     -5.84      0.00
   -8    4    8     -3.73      0.00
   -6    4    8     -4.94      0.00
   -4    4    8    -22.29      0.00
   -2    4    8      2.37      0.00
    0    4    8     17.10      0.00
    2    4    8     -2.28      0.00
    4    4    8     -8.67      0.00
    6    4    8      9.16      0.00
    8    4    8      3.15      0.00
   10    4    8      1.46      0.00
   12    4    8      4.74      0.00
   14    4    8     11.30      0.00
   16    4    8      3.14      0.00
   18    4    8     -8.54      0.00
   20    4    8      7.72      0.00
   22    4    8     -8.22      0.00
   24    4    8      0.55      0.00
  -31    5    8      0.28      0.00
  -29    5    8     -2.17      0.00
  -27    5    8     -1.45      0.00
  -25    5    8      5.29      0.00
  -23    5    8     -6.86      0.00
  -21    5    8      7.27      0.00
  -19    5    8      3.18      0.00
  -17    5    8     -6.23      0.00
  -15    5    8     -4.96      0.00
  -13    5    8    -15.23      0.00
  -11    5    8     -6.38      0.00
   -9    5    8     -1.85      0.00
   -7    5    8     15.69      0.00
   -5    5    8     13.17      0.00
   -3    5    8    -17.43      0.00
   -1    5    8    -11.06      0.00
    1    5    8      6.07      0.00
    3    5    8      6.21      0.00
    5    5    8      9.49      0.00
    7    5    8     -8.84      0.00
    9    5    8     -0.58      0.00
   11    5    8     -2.51      0.00
   13    5    8     -9.30      0.00
   15    5    8     -1.37      0.00
   17    5    8      7.18      0.00
   19    5    8     -4.15      0.00
   21    5    8     -8.86      0.00
   23    5    8     -2.12      0.00
  -28    6    8      1.38      0.00
  -26    6    8     -0.31      0.00
  -24    6    8    -13.13      0.00
  -22    6    8      0.17      0.00
  -20    6    8      2.58      0.00
  -18    6    8      8.58      0.00
  -16    6    8     -2.54      0.00
  -14    6    8     -0.70      0.00
  -12    6    8      2.79      0.00
  -10    6    8      0.21      0.00
   -8    6    8     -6.08      0.00
   -6    6    8     -9.47      0.00
   -4    6    8      1.76      0.00
   -2    6    8     14.28      0.00
    0    6    8      6.78      0.00
    2    6    8     -9.14      0.00
    4    6    8      9.54      0.00
    6    6    8      2.09      0.00
    8    6    8     -4.53      0.00
   10    6    8     -7.11      0.00
   12    6    8      9.80      0.00
   14    6    8      3.05      0.00
   16    6    8     -3.50      0.00
   18    6    8     -1.94      0.00
   20    6    8     -1.01      0.00
   22    6    8      1.65      0.00
  -27    7    8     -2.98      0.00
  -25    7    8      8.40      0.00
  -23    7    8      3.29      0.00
  -21    7    8      4.79      0.00
  -19    7    8     -6.97      0.00
  -17    7    8      4.45      0.00
  -15    7    8     -2.83      0.00
  -13    7    8      6.40      0.00
  -11    7    8      0.91      0.00
   -9    7    8      5.18      0.00
   -7    7    8     12.14      0.00
   -5    7    8     -3.19      0.00
   -3    7    8    -12.95      0.00
   -1    7    8     -1.09      0.00
    1    7    8      1.55      0.00
    3    7    8      5.93      0.00
    5    7    8     -1.31      0.00
    7    7    8      2.16      0.00
    9    7    8      0.70      0.00
   11    7    8     -4.16      0.00
   13    7    8     -5.08      0.00
   15    7    8      0.11      0.00
   17    7    8      8.34      0.00
   19    7    8     -1.45      0.00
   21    7    8     -3.34      0.00
  -26    8    8      2.94      0.00
  -24    8    8      3.79      0.00
  -22    8    8     -6.12      0.00
  -20    8    8      2.35      0.00
  -18    8    8      3.10      0.00
  -16    8    8      2.96      0.00
  -14    8    8     -4.64      0.00
  -12    8    8      5.92      0.00
  -10    8    8     -6.66      0.00
   -8    8    8     -7.04      0.00
   -6    8    8      3.16      0.00
   -4    8    8      3.68      0.00
   -2    8    8      0.83      0.00
    0    8    8     -7.11      0.00
    2    8    8     -3.90      0.00
    4    8    8     -6.44      0.00
    6    8    8     -4.97      0.00
    8    8    8      4.82      0.00
   10    8    8      4.91      0.00
   12    8    8      1.05      0.00
   14    8    8     -3.53      0.00
   16    8    8      3.16      0.00
   18    8    8      6.56      0.00
   20    8    8      2.72      0.00
  -25    9    8     -2.78      0.00
  -23    9    8     -1.54      0.00
  -21    9    8      5.83      0.00
  -19    9    8    -10.20      0.00
  -17    9    8     -5.01      0.00
  -15    9    8      3.62      0.00
  -13    9    8      2.73      0.00
  -11    9    8      0.10      0.00
   -9    9    8      2.74      0.00
   -7    9    8     -1.77      0.00
   -5    9    8     -5.57      0.00
   -3    9    8     -1.60      0.00
   -1    9    8     -5.08      0.00
    1    9    8     -2.67      0.00
    3    9    8      4.74      0.00
    5    9    8     -1.75      0.00
    7    9    8     -5.35      0.00
    9    9    8     -1.30      0.00
   11    9    8      7.01      0.00
   13    9    8     -3.51      0.00
   15    9    8     -6.34      0.00
   17    9    8     -2.25      0.00
  -22   10    8     -0.80      0.00
  -20   10    8      2.95      0.00
  -18   10    8     -7.12      0.00
  -16   10    8     -4.40      0.00
  -14   10    8     -5.20      0.00
  -12   10    8     -2.72      0.00
  -10   10    8      6.16      0.00
   -8   10    8      2.02      0.00
   -6   10    8      7.61      0.00
   -4   10    8      0.00      0.00
   -2   10    8     -1.21      0.00
    0   10    8     -5.72      0.00
    2   10    8      5.74      0.00
    4   10    8      3.22      0.00
    6   10    8      6.42      0.00
    8   10    8      3.37      0.00
   10   10    8      3.21      0.00
   12   10    8      3.57      0.00
   14   10    8     -5.62      0.00
   16   10    8      2.75      0.00
  -19   11    8      2.00      0.00
  -17   11    8      2.32      0.00
  -15   11    8      2.26      0.00
  -13   11    8      2.30      0.00
  -11   11    8     -4.89      0.00
   -9   11    8      6.60      0.00
   -7   11    8      0.91      0.00
   -5   11    8     -4.68      0.00
   -3   11    8     -1.42      0.00
   -1   11    8      7.95      0.00
    1   11    8      5.38      0.00
    3   11    8      3.39      0.00
    5   11    8      3.74      0.00
    7   11    8    -13.03      0.00
    9   11    8     -0.14      0.00
   11   11    8      2.37      0.00
  -14   12    8     10.31      0.00
  -12   12    8      3.05      0.00
  -10   12    8    -12.11      0.00
   -8   12    8     -0.76      0.00
   -6   12    8     -2.33      0.00
   -4   12    8     -2.49      0.00
   -2   12    8     -0.93      0.00
    0   12    8     -0.79      0.00
    2   12    8      1.54      0.00
    4   12    8      1.01      0.00
    6   12    8     -4.39      0.00
    8   12    8      8.55      0.00
  -33    1    9      3.31      0.00
  -31    1    9     -3.72      0.00
  -29    1    9     -5.57      0.00
  -27    1    9      2.86      0.00
  -25    1    9     -1.04      0.00
  -23    1    9      0.91      0.00
  -21    1    9      2.51      0.00
  -19    1    9     10.88      0.00
  -17    1    9     -7.85      0.00
  -15    1    9     -3.54      0.00
  -13    1    9     28.38      0.00
  -11    1    9    -10.01      0.00
   -9    1    9     -2.96      0.00
   -7    1    9     -2.00      0.00
   -5    1    9     -0.51      0.00
   -3    1    9     -6.30      0.00
   -1    1    9     31.87      0.00
    3    1    9     20.37      0.00
    5    1    9     -6.78      0.00
    7    1    9      5.51      0.00
    9    1    9     -8.93      0.00
   11    1    9     -3.42      0.00
   13    1    9     -5.07      0.00
   15    1    9     -1.84      0.00
   17    1    9      1.44      0.00
   19    1    9     -1.71      0.00
   21    1    9      1.11      0.00
   23    1    9     -7.29      0.00
   25    1    9      2.49      0.00
  -32    2    9      3.81      0.00
  -30    2    9     -4.96      0.00
  -28    2    9      1.07      0.00
  -26    2    9      4.66      0.00
  -24    2    9      1.40      0.00
  -22    2    9     -4.26      0.00
  -20    2    9    -10.97      0.00
  -18    2    9     19.16      0.00
  -16    2    9     11.73      0.00
  -14    2    9      1.27      0.00
  -12    2    9    -15.58      0.00
  -10    2    9     -7.11      0.00
   -8    2    9     -0.70      0.00
   -6    2    9      7.25      0.00
   -4    2    9      7.09      0.00
   -2    2    9    -26.76      0.00
    0    2    9      4.39      0.00
    2    2    9     10.43      0.00
    4    2    9    -22.97      0.00
    6    2    9      5.19      0.00
    8    2    9      3.33      0.00
   10    2    9      0.72      0.00
   12    2    9     11.04      0.00
   14    2    9      3.29      0.00
   16    2    9     -3.53      0.00
   18    2    9     -0.36      0.00
   20    2    9      6.34      0.00
   22    2    9     -3.35      0.00
   24    2    9     -4.49      0.00
  -31    3    9      4.83      0.00
  -29    3    9      2.19      0.00
  -27    3    9      4.69      0.00
  -25    3    9      2.83      0.00
  -23    3    9      0.26      0.00
  -21    3    9      2.22      0.00
  -19    3    9     -3.44      0.00
  -17    3    9     -7.48      0.00
  -15    3    9     -1.56      0.00
  -13    3    9    -17.20      0.00
  -11    3    9      1.53      0.00
   -9    3    9      7.95      0.00
   -7    3    9     18.89      0.00
   -5    3    9     16.97      0.00
   -3    3    9    -34.10      0.00
   -1    3    9    -11.65      0.00
    1    3    9     10.84      0.00
    3    3    9    -10.34      0.00
    5    3    9      7.91      0.00
    7    3    9     -2.43      0.00
    9    3    9     -0.15      0.00
   11    3    9     -5.46      0.00
   13    3    9     -5.43      0.00
   15    3    9      7.18      0.00
   17    3    9      4.10      0.00
   19    3    9     -2.96      0.00
   21    3    9      7.18      0.00
   23    3    9     -4.04      0.00
   25    3    9     -1.20      0.00
  -32    4    9     -2.16      0.00
  -30    4    9      2.87      0.00
  -28    4    9     -3.59      0.00
  -26    4    9     -2.56      0.00
  -24    4    9     -3.13      0.00
  -22    4    9     -4.94      0.00
  -20    4    9      2.36      0.00
  -18    4    9     -3.89      0.00
  -16    4    9      8.13      0.00
  -14    4    9      5.42      0.00
  -12    4    9     13.00      0.00
  -10    4    9      7.26      0.00
   -8    4    9    -29.57      0.00
   -6    4    9     -7.51      0.00
   -4    4    9     15.09      0.00
   -2    4    9     19.03      0.00
    0    4    9     -7.62      0.00
    2    4    9    -12.16      0.00
    4    4    9     -4.08      0.00
    6    4    9     11.29      0.00
    8    4    9     -1.96      0.00
   10    4    9      0.39      0.00
   12    4    9      2.61      0.00
   14    4    9     -5.06      0.00
   16    4    9     -0.49      0.00
   18    4    9      4.15      0.00
   20    4    9      1.43      0.00
   22    4    9     11.52      0.00
   24    4    9      7.72      0.00
  -31    5    9     -3.67      0.00
  -29    5    9      0.29      0.00
  -27    5    9     -3.74      0.00
  -25    5    9      4.21      0.00
  -23    5    9      7.10      0.00
  -21    5    9     -4.58      0.00
  -19    5    9      0.28      0.00
  -17    5    9      0.18      0.00
  -15    5    9      1.47      0.00
  -13    5    9     -8.13      0.00
  -11    5    9      2.90      0.00
   -9    5    9      7.87      0.00
   -7    5    9      8.82      0.00
   -5    5    9     -8.28      0.00
   -3    5    9    -14.86      0.00
   -1    5    9      5.79      0.00
    1    5    9      2.56      0.00
    3    5    9     -4.40      0.00
    5    5    9      2.27      0.00
    7    5    9      5.51      0.00
    9    5    9      2.54      0.00
   11    5    9     -3.68      0.00
   13    5    9      4.02      0.00
   15    5    9     -0.37      0.00
   17    5    9     -7.84      0.00
   19    5    9      2.77      0.00
   21    5    9     -5.04      0.00
   23    5    9      0.85      0.00
  -30    6    9     -2.57      0.00
  -28    6    9     -0.33      0.00
  -26    6    9      1.18      0.00
  -24    6    9     -5.01      0.00
  -22    6    9      2.35      0.00
  -20    6    9     -1.09      0.00
  -18    6    9    -12.18      0.00
  -16    6    9      0.65      0.00
  -14    6    9     -8.90      0.00
  -12    6    9     -1.41      0.00
  -10    6    9      4.14      0.00
   -8    6    9      1.90      0.00
   -6    6    9      6.90      0.00
   -4    6    9      5.04      0.00
   -2    6    9     -1.40      0.00
    0    6    9    -10.99      0.00
    2    6    9      4.26      0.00
    4    6    9      9.36      0.00
    6    6    9     -8.41      0.00
    8    6    9      0.98      0.00
   10    6    9     -1.60      0.00
   12    6    9     -2.72      0.00
   14    6    9      1.33      0.00
   16    6    9     -0.55      0.00
   18    6    9     -2.95      0.00
   20    6    9     -1.12      0.00
   22    6    9     -8.32      0.00
  -27    7    9     -0.86      0.00
  -25    7    9     -8.65      0.00
  -23    7    9     -1.21      0.00
  -21    7    9      6.11      0.00
  -19    7    9      3.36      0.00
  -17    7    9     -0.48      0.00
  -15    7    9     -0.02      0.00
  -13    7    9     -3.96      0.00
  -11    7    9      1.12      0.00
   -9    7    9     -1.09      0.00
   -7    7    9     -5.27      0.00
   -5    7    9     -0.60      0.00
   -3    7    9      8.11      0.00
   -1    7    9     10.65      0.00
    1    7    9      0.29      0.00
    3    7    9      2.07      0.00
    5    7    9      1.47      0.00
    7    7    9     -8.82      0.00
    9    7    9     -3.29      0.00
   11    7    9      3.10      0.00
   13    7    9     10.25      0.00
   15    7    9     -8.17      0.00
   17    7    9     -9.57      0.00
   19    7    9     -6.02      0.00
   21    7    9      5.18      0.00
  -26    8    9      9.21      0.00
  -24    8    9      3.89      0.00
  -22    8    9     -3.67      0.00
  -20    8    9      3.46      0.00
  -18    8    9     -0.91      0.00
  -16    8    9     -7.14      0.00
  -14    8    9      7.06      0.00
  -12    8    9     -1.97      0.00
  -10    8    9      0.61      0.00
   -8    8    9      2.77      0.00
   -6    8    9     -6.85      0.00
   -4    8    9      0.26      0.00
   -2    8    9      1.55      0.00
    0    8    9     -4.55      0.00
    2    8    9      2.23      0.00
    4    8    9      2.96      0.00
    6    8    9      1.35      0.00
    8    8    9      2.49      0.00
   10    8    9     -5.89      0.00
   12    8    9     -2.84      0.00
   14    8    9      2.54      0.00
   16    8    9     11.75      0.00
   18    8    9     -0.81      0.00
  -25    9    9     -1.96      0.00
  -23    9    9     -0.42      0.00
  -21    9    9      2.01      0.00
  -19    9    9     15.72      0.00
  -17    9    9     -4.29      0.00
  -15    9    9     -1.79      0.00
  -13    9    9     -3.27      0.00
  -11    9    9     -8.76      0.00
   -9    9    9      0.56      0.00
   -7    9    9      1.13      0.00
   -5    9    9      0.71      0.00
   -3    9    9      2.01      0.00
   -1    9    9      1.60      0.00
    1    9    9     -9.57      0.00
    3    9    9     -6.89      0.00
    5    9    9     -0.37      0.00
    7    9    9      0.78      0.00
    9    9    9      2.58      0.00
   11    9    9      8.17      0.00
   13    9    9      1.30      0.00
   15    9    9      7.94      0.00
   17    9    9     -6.59      0.00
  -22   10    9      0.35      0.00
  -20   10    9     -7.90      0.00
  -18   10    9     -5.43      0.00
  -16   10    9      2.07      0.00
  -14   10    9     11.83      0.00
  -12   10    9      7.16      0.00
  -10   10    9     -1.71      0.00
   -8   10    9     -3.44      0.00
   -6   10    9      0.40      0.00
   -4   10    9     -8.32      0.00
   -2   10    9     -0.82      0.00
    0   10    9     -1.73      0.00
    2   10    9      1.76      0.00
    4   10    9      4.15      0.00
    6   10    9      1.19      0.00
    8   10    9      1.44      0.00
   10   10    9      2.84      0.00
   12   10    9      0.12      0.00
   14   10    9     -4.28      0.00
  -19   11    9      2.87      0.00
  -17   11    9     -1.26      0.00
  -15   11    9    -10.79      0.00
  -13   11    9      0.64      0.00
  -11   11    9      9.64      0.00
   -9   11    9      8.16      0.00
   -7   11    9     13.63      0.00
   -5   11    9     -2.73      0.00
   -3   11    9     -5.26      0.00
   -1   11    9     -4.52      0.00
    1   11    9     11.81      0.00
    3   11    9      3.87      0.00
    5   11    9      4.02      0.00
    7   11    9     -5.22      0.00
    9   11    9     -2.62      0.00
   11   11    9      5.39      0.00
  -14   12    9     -5.12      0.00
  -12   12    9     -2.14      0.00
  -10   12    9     -4.30      0.00
   -8   12    9      1.50      0.00
   -6   12    9     -7.99      0.00
   -4   12    9     14.25      0.00
   -2   12    9      0.95      0.00
    0   12    9     -1.45      0.00
    2   12    9      0.10      0.00
    4   12    9      1.93      0.00
    6   12    9     -6.49      0.00
  -32    0   10     -0.22      0.00
  -30    0   10      5.26      0.00
  -28    0   10      0.58      0.00
  -26    0   10      4.65      0.00
  -24    0   10     -5.00      0.00
  -22    0   10     -6.81      0.00
  -20    0   10     -7.03      0.00
  -18    0   10     11.02      0.00
  -16    0   10     18.06      0.00
  -14    0   10    -24.27      0.00
  -12    0   10      8.32      0.00
  -10    0   10     -4.54      0.00
   -8    0   10    -10.39      0.00
   -6    0   10     -5.14      0.00
   -4    0   10      3.46      0.00
   -2    0   10    -15.75      0.00
    0    0   10    -18.79      0.00
    2    0   10     10.96      0.00
    4    0   10     -0.37      0.00
    6    0   10     -6.74      0.00
    8    0   10     16.37      0.00
   10    0   10      1.35      0.00
   12    0   10     11.40      0.00
   14    0   10     -0.52      0.00
   16    0   10     -5.85      0.00
   18    0   10     10.26      0.00
   20    0   10    -11.43      0.00
   22    0   10      8.98      0.00
   24    0   10      1.28      0.00
  -33    1   10      2.81      0.00
  -31    1   10      3.30      0.00
  -29    1   10     -2.39      0.00
  -27    1   10      1.31      0.00
  -25    1   10     -3.89      0.00
  -23    1   10      4.08      0.00
  -21    1   10      6.41      0.00
  -19    1   10    -10.67      0.00
  -17    1   10     -7.66      0.00
  -15    1   10      0.37      0.00
  -13    1   10     10.38      0.00
  -11    1   10     -0.67      0.00
   -9    1   10      3.68      0.00
   -7    1   10      9.37      0.00
   -5    1   10     -1.67      0.00
   -3    1   10      7.08      0.00
   -1    1   10     -8.34      0.00
    1    1   10     11.49      0.00
    3    1   10     12.65      0.00
    5    1   10     -2.36      0.00
    7    1   10      0.11      0.00
    9    1   10     -3.69      0.00
   11    1   10     -4.43      0.00
   13    1   10     -4.55      0.00
   15    1   10      6.62      0.00
   17    1   10     -0.17      0.00
   19    1   10     -5.25      0.00
   21    1   10      0.68      0.00
   23    1   10      0.64      0.00
   25    1   10     -0.51      0.00
  -32    2   10     -7.36      0.00
  -30    2   10     -2.87      0.00
  -28    2   10      3.57      0.00
  -26    2   10     -6.89      0.00
  -24    2   10     -6.87      0.00
  -22    2   10      2.49      0.00
  -20    2   10      6.59      0.00
  -18    2   10      2.52      0.00
  -16    2   10      2.71      0.00
  -14    2   10     16.29      0.00
  -12    2   10     -8.85      0.00
  -10    2   10     -2.43      0.00
   -8    2   10    -11.96      0.00
   -6    2   10      0.31      0.00
   -4    2   10     24.23      0.00
   -2    2   10      9.15      0.00
    0    2   10     -7.48      0.00
    2    2   10     -1.62      0.00
    4    2   10    -19.43      0.00
    6    2   10     -3.79      0.00
    8    2   10     -1.00      0.00
   10    2   10      2.37      0.00
   12    2   10     -2.42      0.00
   14    2   10     -7.63      0.00
   16    2   10     -0.77      0.00
   18    2   10      0.08      0.00
   20    2   10      0.57      0.00
   22    2   10     -0.66      0.00
   24    2   10      2.29      0.00
  -31    3   10      2.09      0.00
  -29    3   10      1.64      0.00
  -27    3   10      5.10      0.00
  -25    3   10      4.28      0.00
  -23    3   10     -1.21      0.00
  -21    3   10     -3.28      0.00
  -19    3   10      5.74      0.00
  -17    3   10      3.12      0.00
  -15    3   10     -3.73      0.00
  -13    3   10    -22.93      0.00
  -11    3   10     -0.42      0.00
   -9    3   10     24.56      0.00
   -7    3   10     -6.21      0.00
   -5    3   10    -18.94      0.00
   -3    3   10     -9.92      0.00
   -1    3   10     15.36      0.00
    1    3   10      2.49      0.00
    3    3   10    -12.32      0.00
    5    3   10      6.21      0.00
    7    3   10      2.99      0.00
    9    3   10      2.11      0.00
   11    3   10      6.45      0.00
   13    3   10      2.08      0.00
   15    3   10     -1.39      0.00
   17    3   10     -2.32      0.00
   19    3   10      2.08      0.00
   21    3   10    -15.64      0.00
   23    3   10      0.60      0.00
  -32    4   10      3.06      0.00
  -30    4   10      1.35      0.00
  -28    4   10      9.24      0.00
  -26    4   10     -5.59      0.00
  -24    4   10     -7.55      0.00
  -22    4   10      6.39      0.00
  -20    4   10     -1.58      0.00
  -18    4   10     -4.61      0.00
  -16    4   10     -8.12      0.00
  -14    4   10     -0.87      0.00
  -12    4   10     -2.32      0.00
  -10    4   10     -4.73      0.00
   -8    4   10      3.35      0.00
   -6    4   10      2.94      0.00
   -4    4   10    -10.45      0.00
   -2    4   10      3.53      0.00
    0    4   10     -7.73      0.00
    2    4   10      4.84      0.00
    4    4   10      5.13      0.00
    6    4   10     -2.29      0.00
    8    4   10     -1.26      0.00
   10    4   10      3.11      0.00
   12    4   10     -7.04      0.00
   14    4   10      5.86      0.00
   16    4   10      8.05      0.00
   18    4   10      2.24      0.00
   20    4   10      1.45      0.00
   22    4   10     -8.10      0.00
   24    4   10      5.41      0.00
  -31    5   10     -0.53      0.00
  -29    5   10     -0.04      0.00
  -27    5   10     -5.25      0.00
  -25    5   10      1.83      0.00
  -23    5   10      2.54      0.00
  -21    5   10      4.06      0.00
  -19    5   10      7.16      0.00
  -17    5   10      1.28      0.00
  -15    5   10      6.50      0.00
  -13    5   10     -4.83      0.00
  -11    5   10     -4.97      0.00
   -9    5   10    -13.22      0.00
   -7    5   10      0.50      0.00
   -5    5   10      1.44      0.00
   -3    5   10      7.61      0.00
   -1    5   10     13.15      0.00
    1    5   10    -14.88      0.00
    3    5   10     -5.58      0.00
    5    5   10     13.76      0.00
    7    5   10     -2.66      0.00
    9    5   10      2.81      0.00
   11    5   10      4.77      0.00
   13    5   10      0.45      0.00
   15    5   10      3.62      0.00
   17    5   10     -0.79      0.00
   19    5   10      1.96      0.00
   21    5   10     10.99      0.00
   23    5   10      3.43      0.00
  -30    6   10      1.84      0.00
  -28    6   10      4.33      0.00
  -26    6   10     12.60      0.00
  -24    6   10     -6.48      0.00
  -22    6   10      1.11      0.00
  -20    6   10     -8.55      0.00
  -18    6   10     -5.75      0.00
  -16    6   10      3.93      0.00
  -14    6   10      5.53      0.00
  -12    6   10      8.99      0.00
  -10    6   10      4.90      0.00
   -8    6   10      8.55      0.00
   -6    6   10     -8.23      0.00
   -4    6   10    -10.50      0.00
   -2    6   10     -5.23      0.00
    0    6   10     -0.21      0.00
    2    6   10      4.89      0.00
    4    6   10     -1.15      0.00
    6    6   10     -1.81      0.00
    8    6   10      3.51      0.00
   10    6   10     -9.68      0.00
   12    6   10     -7.03      0.00
   14    6   10     -0.22      0.00
   16    6   10      8.13      0.00
   18    6   10      9.01      0.00
   20    6   10     -6.74      0.00
   22    6   10     -6.66      0.00
  -27    7   10     -5.69      0.00
  -25    7   10     -4.71      0.00
  -23    7   10      2.77      0.00
  -21    7   10     -3.74      0.00
  -19    7   10     -5.19      0.00
  -17    7   10      8.91      0.00
  -15    7   10     -8.18      0.00
  -13    7   10      2.98      0.00
  -11    7   10      1.33      0.00
   -9    7   10      2.12      0.00
   -7    7   10     11.51      0.00
   -5    7   10     -3.62      0.00
   -3    7   10      0.79      0.00
   -1    7   10      0.33      0.00
    1    7   10     -1.36      0.00
    3    7   10      4.60      0.00
    5    7   10     -6.34      0.00
    7    7   10     -0.25      0.00
    9    7   10      4.86      0.00
   11    7   10      3.17      0.00
   13    7   10     -3.28      0.00
   15    7   10     -4.73      0.00
   17    7   10     -2.90      0.00
   19    7   10     -5.56      0.00
  -26    8   10      0.56      0.00
  -24    8   10     -4.51      0.00
  -22    8   10      0.68      0.00
  -20    8   10     -3.00      0.00
  -18    8   10     -2.16      0.00
  -16    8   10      4.71      0.00
  -14    8   10      6.67      0.00
  -12    8   10     -0.42      0.00
  -10    8   10     -3.94      0.00
   -8    8   10     -1.85      0.00
   -6    8   10      0.83      0.00
   -4    8   10      2.30      0.00
   -2    8   10     -0.80      0.00
    0    8   10      4.25      0.00
    2    8   10      4.46      0.00
    4    8   10     -3.63      0.00
    6    8   10     -2.98      0.00
    8    8   10     -5.93      0.00
   10    8   10     -3.62      0.00
   12    8   10      3.30      0.00
   14    8   10    -11.34      0.00
   16    8   10      6.19      0.00
   18    8   10      0.55      0.00
  -25    9   10     -2.03      0.00
  -23    9   10     -1.43      0.00
  -21    9   10      7.06      0.00
  -19    9   10      2.65      0.00
  -17    9   10     -7.33      0.00
  -15    9   10     -6.42      0.00
  -13    9   10     -4.47      0.00
  -11    9   10     -1.26      0.00
   -9    9   10      3.31      0.00
   -7    9   10     -0.09      0.00
   -5    9   10      5.19      0.00
   -3    9   10     -0.65      0.00
   -1    9   10     -5.21      0.00
    1    9   10      3.11      0.00
    3    9   10      3.90      0.00
    5    9   10     -2.41      0.00
    7    9   10      0.01      0.00
    9    9   10      1.39      0.00
   11    9   10      0.69      0.00
   13    9   10      3.73      0.00
   15    9   10      9.73      0.00
   17    9   10      2.82      0.00
  -22   10   10      1.82      0.00
  -20   10   10      2.42      0.00
  -18   10   10     -6.68      0.00
  -16   10   10      3.10      0.00
  -14   10   10      0.31      0.00
  -12   10   10    -10.27      0.00
  -10   10   10     -3.73      0.00
   -8   10   10     -3.78      0.00
   -6   10   10      0.61      0.00
   -4   10   10      6.70      0.00
   -2   10   10      1.26      0.00
    0   10   10    -15.49      0.00
    2   10   10     -4.29      0.00
    4   10   10      3.85      0.00
    6   10   10      2.96      0.00
    8   10   10      4.29      0.00
   10   10   10      5.45      0.00
   12   10   10     -3.53      0.00
   14   10   10      1.24      0.00
  -19   11   10     -0.98      0.00
  -17   11   10     -1.10      0.00
  -15   11   10     15.01      0.00
  -13   11   10      6.43      0.00
  -11   11   10     -2.99      0.00
   -9   11   10     -2.28      0.00
   -7   11   10      0.77      0.00
   -5   11   10    -12.75      0.00
   -3   11   10      6.60      0.00
   -1   11   10      1.42      0.00
    1   11   10      0.04      0.00
    3   11   10     -1.02      0.00
    5   11   10      2.54      0.00
    7   11   10      1.93      0.00
    9   11   10      3.32      0.00
   11   11   10      2.13      0.00
  -14   12   10      4.48      0.00
  -12   12   10      5.06      0.00
  -10   12   10      9.71      0.00
   -8   12   10      6.51      0.00
   -6   12   10     -2.92      0.00
   -4   12   10    -14.42      0.00
   -2   12   10      5.26      0.00
    0   12   10      4.60      0.00
    2   12   10      3.25      0.00
    4   12   10     -3.66      0.00
    6   12   10     -7.27      0.00
  -33    1   11      2.78      0.00
  -31    1   11      4.03      0.00
  -29    1   11      3.54      0.00
  -27    1   11      7.52      0.00
  -25    1   11      0.35      0.00
  -23    1   11     -2.61      0.00
  -21    1   11     -2.55      0.00
  -19    1   11     13.61      0.00
  -17    1   11      4.81      0.00
  -15    1   11     -6.18      0.00
  -13    1   11     -2.07      0.00
  -11    1   11     -9.69      0.00
   -9    1   11      5.67      0.00
   -7    1   11     -9.63      0.00
   -5    1   11      5.38      0.00
   -3    1   11     -8.62      0.00
   -1    1   11     14.36      0.00
    1    1   11     -3.35      0.00
    3    1   11     -3.49      0.00
    5    1   11     -4.80      0.00
    7    1   11      8.59      0.00
    9    1   11     -3.11      0.00
   11    1   11      9.68      0.00
   13    1   11     -0.21      0.00
   15    1   11     -4.29      0.00
   17    1   11     -0.04      0.00
   19    1   11     -7.25      0.00
   21    1   11      7.31      0.00
   23    1   11      1.85      0.00
  -32    2   11     -1.03      0.00
  -30    2   11     -1.44      0.00
  -28    2   11      0.73      0.00
  -26    2   11     -7.87      0.00
  -24    2   11      6.73      0.00
  -22    2   11      4.24      0.00
  -20    2   11     -0.95      0.00
  -18    2   11     -5.73      0.00
  -16    2   11      0.98      0.00
  -14    2   11     16.03      0.00
  -12    2   11     -1.17      0.00
  -10    2   11     -4.59      0.00
   -8    2   11     18.88      0.00
   -6    2   11      6.24      0.00
   -4    2   11     -7.83      0.00
   -2    2   11     -8.52      0.00
    0    2   11     18.87      0.00
    2    2   11      4.21      0.00
    4    2   11     -3.69      0.00
    6    2   11     -0.02      0.00
    8    2   11     -3.89      0.00
   10    2   11     -6.10      0.00
   12    2   11     -3.55      0.00
   14    2   11      3.56      0.00
   16    2   11      3.33      0.00
   18    2   11      2.60      0.00
   20    2   11     -0.30      0.00
   22    2   11     -0.37      0.00
   24    2   11     -0.25      0.00
  -33    3   11     -5.66      0.00
  -31    3   11     -3.17      0.00
  -29    3   11     -3.67      0.00
  -27    3   11      0.05      0.00
  -25    3   11     -4.00      0.00
  -23    3   11     -0.61      0.00
  -21    3   11      2.91      0.00
  -19    3   11      7.23      0.00
  -17    3   11     11.19      0.00
  -15    3   11     -2.14      0.00
  -13    3   11     -0.78      0.00
  -11    3   11      7.04      0.00
   -9    3   11    -14.07      0.00
   -7    3   11      8.55      0.00
   -5    3   11     10.73      0.00
   -3    3   11     -8.39      0.00
   -1    3   11      2.21      0.00
    1    3   11     -8.53      0.00
    3    3   11    -18.96      0.00
    5    3   11      9.67      0.00
    7    3   11     -0.64      0.00
    9    3   11      2.26      0.00
   11    3   11      6.13      0.00
   13    3   11     -5.06      0.00
   15    3   11     -3.63      0.00
   17    3   11     -3.90      0.00
   19    3   11     -0.09      0.00
   21    3   11      6.77      0.00
   23    3   11     -4.53      0.00
  -32    4   11      0.72      0.00
  -30    4   11      3.43      0.00
  -28    4   11      0.86      0.00
  -26    4   11     -0.72      0.00
  -24    4   11     -5.43      0.00
  -22    4   11      0.40      0.00
  -20    4   11      1.24      0.00
  -18    4   11     -7.02      0.00
  -16    4   11     -0.61      0.00
  -14    4   11    -10.11      0.00
  -12    4   11      6.78      0.00
  -10    4   11     17.43      0.00
   -8    4   11     -7.41      0.00
   -6    4   11     -3.85      0.00
   -4    4   11    -12.55      0.00
   -2    4   11      2.67      0.00
    0    4   11      4.75      0.00
    2    4   11      0.93      0.00
    4    4   11      1.19      0.00
    6    4   11      4.08      0.00
    8    4   11     -4.07      0.00
   10    4   11     -1.49      0.00
   12    4   11     -5.11      0.00
   14    4   11     -3.04      0.00
   16    4   11      7.39      0.00
   18    4   11     -0.82      0.00
   20    4   11     -6.00      0.00
   22    4   11     -1.35      0.00
  -31    5   11     -5.15      0.00
  -29    5   11     -0.59      0.00
  -27    5   11     -7.49      0.00
  -25    5   11     -0.58      0.00
  -23    5   11      1.93      0.00
  -21    5   11      5.85      0.00
  -19    5   11      2.80      0.00
  -17    5   11     -9.08      0.00
  -15    5   11     -9.51      0.00
  -13    5   11    -11.16      0.00
  -11    5   11     -0.12      0.00
   -9    5   11    -10.80      0.00
   -7    5   11      3.83      0.00
   -5    5   11      7.90      0.00
   -3    5   11     -1.84      0.00
   -1    5   11     -3.12      0.00
    1    5   11     -3.16      0.00
    3    5   11      7.49      0.00
    5    5   11     -0.03      0.00
    7    5   11      3.15      0.00
    9    5   11      5.25      0.00
   11    5   11      1.79      0.00
   13    5   11      3.23      0.00
   15    5   11     -4.64      0.00
   17    5   11    -11.60      0.00
   19    5   11      4.28      0.00
   21    5   11     -2.74      0.00
  -30    6   11     -0.80      0.00
  -28    6   11      6.73      0.00
  -26    6   11      3.94      0.00
  -24    6   11     -1.95      0.00
  -22    6   11      8.36      0.00
  -20    6   11     -4.93      0.00
  -18    6   11     -6.93      0.00
  -16    6   11      6.97      0.00
  -14    6   11     -7.15      0.00
  -12    6   11     -3.47      0.00
  -10    6   11     -0.46      0.00
   -8    6   11     -2.86      0.00
   -6    6   11     -1.18      0.00
   -4    6   11      0.36      0.00
   -2    6   11     13.02      0.00
    0    6   11    -10.50      0.00
    2    6   11      0.74      0.00
    4    6   11      8.25      0.00
    6    6   11     -1.73      0.00
    8    6   11     -0.34      0.00
   10    6   11     -0.20      0.00
   12    6   11      2.03      0.00
   14    6   11      3.77      0.00
   16    6   11     -1.04      0.00
   18    6   11      3.20      0.00
   20    6   11     14.54      0.00
  -29    7   11      1.70      0.00
  -27    7   11      1.57      0.00
  -25    7   11     -0.13      0.00
  -23    7   11     -3.99      0.00
  -21    7   11     -0.93      0.00
  -19    7   11     -2.73      0.00
  -17    7   11      1.81      0.00
  -15    7   11      3.12      0.00
  -13    7   11      2.95      0.00
  -11    7   11      3.32      0.00
   -9    7   11     -2.16      0.00
   -7    7   11     -3.82      0.00
   -5    7   11      0.79      0.00
   -3    7   11     -0.33      0.00
   -1    7   11     -7.37      0.00
    1    7   11      5.01      0.00
    3    7   11     -3.38      0.00
    5    7   11     -4.90      0.00
    7    7   11      3.54      0.00
    9    7   11      0.04      0.00
   11    7   11    -11.44      0.00
   13    7   11     10.14      0.00
   15    7   11      0.48      0.00
   17    7   11      2.59      0.00
   19    7   11     -1.36      0.00
  -26    8   11      2.40      0.00
  -24    8   11     -1.37      0.00
  -22    8   11     -5.04      0.00
  -20    8   11     -4.62      0.00
  -18    8   11     10.73      0.00
  -16    8   11     -2.99      0.00
  -14    8   11      3.61      0.00
  -12    8   11      1.21      0.00
  -10    8   11      3.64      0.00
   -8    8   11      5.22      0.00
   -6    8   11     -8.58      0.00
   -4    8   11      6.08      0.00
   -2    8   11      5.48      0.00
    0    8   11     -9.56      0.00
    2    8   11     -1.55      0.00
    4    8   11      1.36      0.00
    6    8   11      1.89      0.00
    8    8   11      0.08      0.00
   10    8   11     -0.12      0.00
   12    8   11     -4.53      0.00
   14    8   11      0.23      0.00
   16    8   11     -0.76      0.00
   18    8   11     -3.06      0.00
  -25    9   11     -2.91      0.00
  -23    9   11     -2.33      0.00
  -21    9   11     -1.04      0.00
  -19    9   11      4.07      0.00
  -17    9   11     -0.89      0.00
  -15    9   11     11.28      0.00
  -13    9   11     -4.23      0.00
  -11    9   11     -5.27      0.00
   -9    9   11      6.77      0.00
   -7    9   11     -0.14      0.00
   -5    9   11     -4.70      0.00
   -3    9   11      0.91      0.00
   -1    9   11      7.00      0.00
    1    9   11      6.45      0.00
    3    9   11     -4.56      0.00
    5    9   11     -3.56      0.00
    7    9   11    -10.10      0.00
    9    9   11     -3.30      0.00
   11    9   11      9.25      0.00
   13    9   11     -6.85      0.00
   15    9   11     11.41      0.00
  -22   10   11      4.28      0.00
  -20   10   11      8.97      0.00
  -18   10   11    -10.73      0.00
  -16   10   11    -14.08      0.00
  -14   10   11      0.77      0.00
  -12   10   11      5.80      0.00
  -10   10   11      4.65      0.00
   -8   10   11      0.46      0.00
   -6   10   11      6.82      0.00
   -4   10   11     -3.62      0.00
   -2   10   11      3.60      0.00
    0   10   11      1.28      0.00
    2   10   11      1.51      0.00
    4   10   11     -0.81      0.00
    6   10   11     -3.27      0.00
    8   10   11      2.92      0.00
   10   10   11      1.57      0.00
   12   10   11      1.39      0.00
  -19   11   11     -3.78      0.00
  -17   11   11      7.55      0.00
  -15   11   11     -3.57      0.00
  -13   11   11     -2.37      0.00
  -11   11   11    -13.05      0.00
   -9   11   11      1.05      0.00
   -7   11   11      2.03      0.00
   -5   11   11      8.40      0.00
   -3   11   11      0.94      0.00
   -1   11   11    -13.65      0.00
    1   11   11      3.90      0.00
    3   11   11      5.42      0.00
    5   11   11      0.66      0.00
    7   11   11     -2.60      0.00
    9   11   11      2.86      0.00
  -12   12   11      6.44      0.00
  -10   12   11     -2.88      0.00
   -8   12   11     -0.60      0.00
   -6   12   11     -9.03      0.00
   -4   12   11     13.46      0.00
   -2   12   11     -3.96      0.00
    0   12   11     -2.95      0.00
    2   12   11      1.63      0.00
    4   12   11      3.46      0.00
  -34    0   12      0.93      0.00
  -32    0   12    -10.35      0.00
  -30    0   12     -2.46      0.00
  -28    0   12      3.19      0.00
  -26    0   12      0.89      0.00
  -24    0   12     -2.69      0.00
  -22    0   12     -2.97      0.00
  -20    0   12     -7.71      0.00
  -18    0   12     -5.99      0.00
  -16    0   12     12.10      0.00
  -14    0   12      4.97      0.00
  -12    0   12     12.76      0.00
  -10    0   12    -12.98      0.00
   -8    0   12      5.11      0.00
   -6    0   12      0.09      0.00
   -4    0   12     -3.32      0.00
    0    0   12     23.07      0.00
    2    0   12     28.69      0.00
    4    0   12     -0.43      0.00
    6    0   12    -12.92      0.00
    8    0   12      0.12      0.00
   10    0   12     -8.34      0.00
   12    0   12      1.49      0.00
   14    0   12     13.06      0.00
   16    0   12     -1.88      0.00
   18    0   12      4.15      0.00
   20    0   12    -12.59      0.00
   22    0   12      3.67      0.00
   24    0   12      6.19      0.00
  -33    1   12      1.10      0.00
  -31    1   12      1.70      0.00
  -29    1   12      0.90      0.00
  -27    1   12      4.35      0.00
  -25    1   12     -6.67      0.00
  -23    1   12     -1.59      0.00
  -21    1   12      0.73      0.00
  -19    1   12      2.74      0.00
  -17    1   12      2.57      0.00
  -15    1   12     -8.92      0.00
  -13    1   12     -2.95      0.00
  -11    1   12     -1.03      0.00
   -9    1   12     -4.47      0.00
   -7    1   12      3.33      0.00
   -5    1   12      1.66      0.00
   -3    1   12      4.71      0.00
   -1    1   12    -19.54      0.00
    1    1   12      8.33      0.00
    3    1   12     -8.59      0.00
    5    1   12     -2.13      0.00
    7    1   12      7.07      0.00
    9    1   12      2.60      0.00
   11    1   12      6.48      0.00
   13    1   12     -7.36      0.00
   15    1   12     -3.20      0.00
   17    1   12      2.75      0.00
   19    1   12      2.47      0.00
   21    1   12      0.80      0.00
   23    1   12     -4.25      0.00
  -32    2   12      1.40      0.00
  -30    2   12     -0.77      0.00
  -28    2   12      9.39      0.00
  -26    2   12      0.02      0.00
  -24    2   12     -1.58      0.00
  -22    2   12      0.68      0.00
  -20    2   12     -6.32      0.00
  -18    2   12     -0.81      0.00
  -16    2   12      4.05      0.00
  -14    2   12    -13.50      0.00
  -12    2   12     -6.42      0.00
  -10    2   12     18.63      0.00
   -8    2   12     -3.53      0.00
   -6    2   12     -6.03      0.00
   -4    2   12      5.80      0.00
   -2    2   12     -1.99      0.00
    0    2   12     -6.85      0.00
    2    2   12     -5.16      0.00
    4    2   12     -3.52      0.00
    6    2   12      0.76      0.00
    8    2   12     -3.79      0.00
   10    2   12      0.11      0.00
   12    2   12      3.41      0.00
   14    2   12      0.12      0.00
   16    2   12      0.75      0.00
   18    2   12     -4.48      0.00
   20    2   12     -0.43      0.00
   22    2   12      2.10      0.00
  -33    3   12     -6.14      0.00
  -31    3   12      3.23      0.00
  -29    3   12      0.73      0.00
  -27    3   12     -2.52      0.00
  -25    3   12      0.14      0.00
  -23    3   12      1.60      0.00
  -21    3   12      5.89      0.00
  -19    3   12      1.31      0.00
  -17    3   12     -1.61      0.00
  -15    3   12      8.64      0.00
  -13    3   12     -7.61      0.00
  -11    3   12     -7.36      0.00
   -9    3   12      9.45      0.00
   -7    3   12     -1.56      0.00
   -5    3   12     -0.05      0.00
   -3    3   12     -4.06      0.00
   -1    3   12     -5.34      0.00
    1    3   12     -1.72      0.00
    3    3   12     -3.41      0.00
    5    3   12      3.19      0.00
    7    3   12     -0.46      0.00
    9    3   12      0.71      0.00
   11    3   12      0.78      0.00
   13    3   12     -0.97      0.00
   15    3   12     -0.10      0.00
   17    3   12      1.72      0.00
   19    3   12     -1.57      0.00
   21    3   12     -2.55      0.00
   23    3   12      5.31      0.00
  -32    4   12      2.76      0.00
  -30    4   12     -3.62      0.00
  -28    4   12      2.92      0.00
  -26    4   12     -0.98      0.00
  -24    4   12      2.12      0.00
  -22    4   12     -3.18      0.00
  -20    4   12      2.32      0.00
  -18    4   12      9.54      0.00
  -16    4   12      4.58      0.00
  -14    4   12      2.48      0.00
  -12    4   12     -0.91      0.00
  -10    4   12      6.09      0.00
   -8    4   12      6.39      0.00
   -6    4   12     -3.33      0.00
   -4    4   12     -1.11      0.00
   -2    4   12      9.48      0.00
    0    4   12     -3.06      0.00
    2    4   12     -6.84      0.00
    4    4   12      6.03      0.00
    6    4   12     -1.76      0.00
    8    4   12     -1.10      0.00
   10    4   12      4.94      0.00
   12    4   12     -1.89      0.00
   14    4   12      5.04      0.00
   16    4   12     -3.59      0.00
   18    4   12     -0.32      0.00
   20    4   12     -0.15      0.00
   22    4   12      2.66      0.00
  -31    5   12      0.55      0.00
  -29    5   12     -2.19      0.00
  -27    5   12     -5.89      0.00
  -25    5   12     -1.73      0.00
  -23    5   12      8.39      0.00
  -21    5   12      5.08      0.00
  -19    5   12     -6.87      0.00
  -17    5   12     -8.37      0.00
  -15    5   12      0.95      0.00
  -13    5   12      8.35      0.00
  -11    5   12      2.70      0.00
   -9    5   12      3.68      0.00
   -7    5   12      3.83      0.00
   -5    5   12    -10.10      0.00
   -3    5   12    -12.51      0.00
   -1    5   12      4.11      0.00
    1    5   12      7.09      0.00
    3    5   12      0.87      0.00
    5    5   12     -1.63      0.00
    7    5   12     -2.87      0.00
    9    5   12     -1.09      0.00
   11    5   12     -5.56      0.00
   13    5   12     -0.11      0.00
   15    5   12     12.78      0.00
   17    5   12      0.86      0.00
   19    5   12     -8.40      0.00
   21    5   12      1.82      0.00
  -30    6   12      2.10      0.00
  -28    6   12     -5.32      0.00
  -26    6   12      6.38      0.00
  -24    6   12     -2.43      0.00
  -22    6   12     11.06      0.00
  -20    6   12      0.93      0.00
  -18    6   12     -7.62      0.00
  -16    6   12     -6.83      0.00
  -14    6   12     -6.57      0.00
  -12    6   12      2.29      0.00
  -10    6   12     -1.85      0.00
   -8    6   12      3.77      0.00
   -6    6   12     -5.01      0.00
   -4    6   12      1.17      0.00
   -2    6   12      7.26      0.00
    0    6   12    -10.14      0.00
    2    6   12     16.11      0.00
    4    6   12      3.28      0.00
    6    6   12     -2.74      0.00
    8    6   12      3.63      0.00
   10    6   12      5.57      0.00
   12    6   12     -1.26      0.00
   14    6   12    -10.24      0.00
   16    6   12     -9.87      0.00
   18    6   12     -1.53      0.00
   20    6   12     -2.43      0.00
  -29    7   12      2.69      0.00
  -27    7   12     -0.16      0.00
  -25    7   12     -2.55      0.00
  -23    7   12     12.09      0.00
  -21    7   12     -8.54      0.00
  -19    7   12     -7.56      0.00
  -17    7   12      7.28      0.00
  -15    7   12     -2.85      0.00
  -13    7   12     -7.03      0.00
  -11    7   12     -1.99      0.00
   -9    7   12     -4.27      0.00
   -7    7   12      5.63      0.00
   -5    7   12     -6.80      0.00
   -3    7   12      1.02      0.00
   -1    7   12      3.79      0.00
    1    7   12      4.51      0.00
    3    7   12      2.06      0.00
    5    7   12     -8.61      0.00
    7    7   12     -0.01      0.00
    9    7   12      0.74      0.00
   11    7   12     -2.59      0.00
   13    7   12     -5.04      0.00
   15    7   12      6.10      0.00
   17    7   12     10.34      0.00
   19    7   12      6.18      0.00
  -26    8   12      0.77      0.00
  -24    8   12      0.21      0.00
  -22    8   12      4.29      0.00
  -20    8   12      2.28      0.00
  -18    8   12     -9.97      0.00
  -16    8   12     -3.76      0.00
  -14    8   12      4.72      0.00
  -12    8   12      1.22      0.00
  -10    8   12      0.02      0.00
   -8    8   12      3.40      0.00
   -6    8   12     -1.03      0.00
   -4    8   12      1.06      0.00
   -2    8   12    -10.16      0.00
    0    8   12     -2.68      0.00
    2    8   12      7.88      0.00
    4    8   12     -3.15      0.00
    6    8   12     10.63      0.00
    8    8   12     -2.19      0.00
   10    8   12     -8.62      0.00
   12    8   12      5.97      0.00
   14    8   12     -2.29      0.00
   16    8   12      0.64      0.00
  -25    9   12     -5.65      0.00
  -23    9   12     -4.54      0.00
  -21    9   12     -7.41      0.00
  -19    9   12     11.64      0.00
  -17    9   12      2.39      0.00
  -15    9   12     -3.51      0.00
  -13    9   12     -4.25      0.00
  -11    9   12      2.27      0.00
   -9    9   12      3.38      0.00
   -7    9   12     -5.85      0.00
   -5    9   12      1.35      0.00
   -3    9   12     -4.10      0.00
   -1    9   12     -4.48      0.00
    1    9   12      1.71      0.00
    3    9   12      5.20      0.00
    5    9   12      0.53      0.00
    7    9   12     -7.57      0.00
    9    9   12      4.43      0.00
   11    9   12     -0.12      0.00
   13    9   12      6.29      0.00
   15    9   12      5.00      0.00
  -22   10   12      3.16      0.00
  -20   10   12     -3.22      0.00
  -18   10   12     -5.80      0.00
  -16   10   12      7.54      0.00
  -14   10   12     -5.88      0.00
  -12   10   12      6.26      0.00
  -10   10   12     10.61      0.00
   -8   10   12      2.03      0.00
   -6   10   12    -12.69      0.00
   -4   10   12      5.94      0.00
   -2   10   12      2.42      0.00
    0   10   12      1.51      0.00
    2   10   12      3.32      0.00
    4   10   12     -2.95      0.00
    6   10   12     -5.79      0.00
    8   10   12     -3.36      0.00
   10   10   12      4.19      0.00
   12   10   12     -3.15      0.00
  -19   11   12     -2.47      0.00
  -17   11   12    -14.79      0.00
  -15   11   12      7.42      0.00
  -13   11   12     -2.20      0.00
  -11   11   12      2.40      0.00
   -9   11   12      0.75      0.00
   -7   11   12      5.98      0.00
   -5   11   12     -7.94      0.00
   -3   11   12      3.99      0.00
   -1   11   12     -4.03      0.00
    1   11   12      1.45      0.00
    3   11   12    -10.06      0.00
    5   11   12     -0.21      0.00
    7   11   12      1.44      0.00
    9   11   12      2.09      0.00
  -12   12   12     -6.44      0.00
  -10   12   12      6.97      0.00
   -8   12   12     -1.21      0.00
   -6   12   12      5.85      0.00
   -4   12   12     -1.21      0.00
   -2   12   12     -0.63      0.00
    0   12   12     -3.39      0.00
    2   12   12      2.75      0.00
  -33    1   13     -0.97      0.00
  -31    1   13      1.78      0.00
  -29    1   13      0.74      0.00
  -27    1   13     -2.42      0.00
  -25    1   13     -3.09      0.00
  -23    1   13     -0.08      0.00
  -21    1   13      5.00      0.00
  -19    1   13      2.40      0.00
  -17    1   13     -3.59      0.00
  -15    1   13     11.59      0.00
  -13    1   13      5.00      0.00
  -11    1   13    -20.59      0.00
   -9    1   13     13.28      0.00
   -7    1   13      6.94      0.00
   -5    1   13     10.80      0.00
   -3    1   13      2.25      0.00
   -1    1   13     34.38      0.00
    1    1   13      7.70      0.00
    3    1   13     -2.57      0.00
    5    1   13    -12.01      0.00
    7    1   13     -1.87      0.00
    9    1   13     -5.03      0.00
   11    1   13      1.24      0.00
   13    1   13      5.08      0.00
   15    1   13      0.85      0.00
   17    1   13      1.27      0.00
   19    1   13     -6.01      0.00
   21    1   13      4.54      0.00
   23    1   13     -0.05      0.00
  -32    2   13     -0.58      0.00
  -30    2   13      3.52      0.00
  -28    2   13      4.97      0.00
  -26    2   13     -5.38      0.00
  -24    2   13      2.38      0.00
  -22    2   13     -8.32      0.00
  -20    2   13      3.60      0.00
  -18    2   13     -1.27      0.00
  -16    2   13      3.14      0.00
  -14    2   13     -0.19      0.00
  -12    2   13     -0.04      0.00
  -10    2   13     -0.76      0.00
   -8    2   13      8.31      0.00
   -6    2   13     -1.12      0.00
   -4    2   13      2.76      0.00
   -2    2   13      9.70      0.00
    0    2   13     -0.24      0.00
    2    2   13    -17.98      0.00
    4    2   13      0.36      0.00
    6    2   13      8.67      0.00
    8    2   13      2.94      0.00
   10    2   13      2.77      0.00
   12    2   13     -5.42      0.00
   14    2   13     -3.90      0.00
   16    2   13     -0.83      0.00
   18    2   13      7.14      0.00
   20    2   13     -3.13      0.00
   22    2   13     -6.14      0.00
  -33    3   13     -5.58      0.00
  -31    3   13      5.49      0.00
  -29    3   13      2.21      0.00
  -27    3   13      1.35      0.00
  -25    3   13     -4.18      0.00
  -23    3   13     -1.08      0.00
  -21    3   13     -1.96      0.00
  -19    3   13     -2.72      0.00
  -17    3   13      2.43      0.00
  -15    3   13    -13.47      0.00
  -13    3   13      5.48      0.00
  -11    3   13      8.08      0.00
   -9    3   13    -13.64      0.00
   -7    3   13      0.03      0.00
   -5    3   13     -4.62      0.00
   -3    3   13    -13.61      0.00
   -1    3   13     -7.69      0.00
    1    3   13      1.75      0.00
    3    3   13     -2.23      0.00
    5    3   13      7.30      0.00
    7    3   13     -5.10      0.00
    9    3   13      0.62      0.00
   11    3   13      2.50      0.00
   13    3   13      0.68      0.00
   15    3   13      7.07      0.00
   17    3   13     -2.65      0.00
   19    3   13     -2.30      0.00
   21    3   13      0.37      0.00
  -32    4   13     -3.69      0.00
  -30    4   13      7.80      0.00
  -28    4   13      1.99      0.00
  -26    4   13     -7.13      0.00
  -24    4   13     -2.54      0.00
  -22    4   13      5.15      0.00
  -20    4   13      7.51      0.00
  -18    4   13      2.96      0.00
  -16    4   13     -3.70      0.00
  -14    4   13     -9.17      0.00
  -12    4   13     -2.73      0.00
  -10    4   13    -11.65      0.00
   -8    4   13     -1.63      0.00
   -6    4   13     15.52      0.00
   -4    4   13     -4.20      0.00
   -2    4   13     -6.82      0.00
    0    4   13     -8.21      0.00
    2    4   13     -2.01      0.00
    4    4   13      6.77      0.00
    6    4   13      3.24      0.00
    8    4   13      0.08      0.00
   10    4   13      3.23      0.00
   12    4   13     -5.90      0.00
   14    4   13     -9.23      0.00
   16    4   13     -0.90      0.00
   18    4   13      0.12      0.00
   20    4   13      2.18      0.00
  -31    5   13     -7.77      0.00
  -29    5   13      4.96      0.00
  -27    5   13     -4.51      0.00
  -25    5   13      1.54      0.00
  -23    5   13     -9.41      0.00
  -21    5   13     -3.38      0.00
  -19    5   13      6.68      0.00
  -17    5   13      7.15      0.00
  -15    5   13     -2.44      0.00
  -13    5   13     -2.37      0.00
  -11    5   13     12.90      0.00
   -9    5   13      3.59      0.00
   -7    5   13      1.06      0.00
   -5    5   13     -2.14      0.00
   -3    5   13      1.38      0.00
   -1    5   13      4.48      0.00
    1    5   13    -12.48      0.00
    3    5   13      5.14      0.00
    5    5   13     -1.72      0.00
    7    5   13     -0.54      0.00
    9    5   13     -3.05      0.00
   11    5   13      3.48      0.00
   13    5   13     10.21      0.00
   15    5   13      3.06      0.00
   17    5   13     -2.19      0.00
   19    5   13      8.94      0.00
   21    5   13      2.31      0.00
  -30    6   13     -3.63      0.00
  -28    6   13      3.12      0.00
  -26    6   13     -2.49      0.00
  -24    6   13     -3.28      0.00
  -22    6   13     13.40      0.00
  -20    6   13    -12.07      0.00
  -18    6   13     -4.86      0.00
  -16    6   13      6.03      0.00
  -14    6   13     11.32      0.00
  -12    6   13      4.12      0.00
  -10    6   13     -0.26      0.00
   -8    6   13     -1.30      0.00
   -6    6   13      1.18      0.00
   -4    6   13    -12.88      0.00
   -2    6   13      0.44      0.00
    0    6   13      1.91      0.00
    2    6   13      3.78      0.00
    4    6   13     -0.23      0.00
    6    6   13      2.99      0.00
    8    6   13      0.38      0.00
   10    6   13     -0.89      0.00
   12    6   13      3.06      0.00
   14    6   13      0.43      0.00
   16    6   13    -11.61      0.00
   18    6   13     -2.27      0.00
  -29    7   13      1.91      0.00
  -27    7   13     -1.06      0.00
  -25    7   13      2.22      0.00
  -23    7   13      1.60      0.00
  -21    7   13     -5.20      0.00
  -19    7   13      7.15      0.00
  -17    7   13     -2.15      0.00
  -15    7   13     -4.38      0.00
  -13    7   13     -4.39      0.00
  -11    7   13     -2.55      0.00
   -9    7   13     -0.52      0.00
   -7    7   13      1.68      0.00
   -5    7   13      0.98      0.00
   -3    7   13      8.05      0.00
   -1    7   13     -8.28      0.00
    1    7   13      5.30      0.00
    3    7   13      2.25      0.00
    5    7   13     -8.46      0.00
    7    7   13      2.47      0.00
    9    7   13      7.50      0.00
   11    7   13     -4.70      0.00
   13    7   13     -1.36      0.00
   15    7   13     -6.79      0.00
   17    7   13     -5.84      0.00
  -26    8   13      9.27      0.00
  -24    8   13     -0.22      0.00
  -22    8   13      2.81      0.00
  -20    8   13     -7.26      0.00
  -18    8   13      4.01      0.00
  -16    8   13      0.26      0.00
  -14    8   13     -3.32      0.00
  -12    8   13     -8.32      0.00
  -10    8   13      3.80      0.00
   -8    8   13     -0.20      0.00
   -6    8   13     -4.18      0.00
   -4    8   13      5.87      0.00
   -2    8   13      1.35      0.00
    0    8   13      2.26      0.00
    2    8   13     -2.53      0.00
    4    8   13     -5.52      0.00
    6    8   13      1.62      0.00
    8    8   13     -1.94      0.00
   10    8   13     -8.00      0.00
   12    8   13     -8.69      0.00
   14    8   13      8.86      0.00
   16    8   13      3.76      0.00
  -25    9   13     -0.10      0.00
  -23    9   13      4.43      0.00
  -21    9   13      3.56      0.00
  -19    9   13     -6.24      0.00
  -17    9   13     -6.65      0.00
  -15    9   13      8.01      0.00
  -13    9   13     -4.51      0.00
  -11    9   13     -5.96      0.00
   -9    9   13      5.75      0.00
   -7    9   13      3.71      0.00
   -5    9   13     -2.83      0.00
   -3    9   13     -0.81      0.00
   -1    9   13     -6.13      0.00
    1    9   13      3.78      0.00
    3    9   13      5.38      0.00
    5    9   13      7.17      0.00
    7    9   13     -1.53      0.00
    9    9   13     -3.21      0.00
   11    9   13      4.89      0.00
   13    9   13      2.15      0.00
  -22   10   13     -5.41      0.00
  -20   10   13     13.04      0.00
  -18   10   13     -4.90      0.00
  -16   10   13     -2.45      0.00
  -14   10   13      1.59      0.00
  -12   10   13      2.71      0.00
  -10   10   13      6.25      0.00
   -8   10   13     -9.86      0.00
   -6   10   13     -0.73      0.00
   -4   10   13      7.07      0.00
   -2   10   13     -1.77      0.00
    0   10   13      8.69      0.00
    2   10   13      7.25      0.00
    4   10   13     -5.67      0.00
    6   10   13     -6.03      0.00
    8   10   13      6.20      0.00
   10   10   13      6.94      0.00
   12   10   13      2.24      0.00
  -17   11   13      5.48      0.00
  -15   11   13     -7.42      0.00
  -13   11   13     13.13      0.00
  -11   11   13      3.98      0.00
   -9   11   13      3.60      0.00
   -7   11   13     -9.59      0.00
   -5   11   13      1.83      0.00
   -3   11   13      2.68      0.00
   -1   11   13      1.56      0.00
    1   11   13      4.41      0.00
    3   11   13     -0.55      0.00
    5   11   13     -6.89      0.00
    7   11   13     -7.61      0.00
  -12   12   13     -0.72      0.00
  -10   12   13     -2.58      0.00
   -8   12   13     -0.51      0.00
   -6   12   13     -2.86      0.00
   -4   12   13      0.81      0.00
   -2   12   13     -7.82      0.00
    0   12   13      1.29      0.00
    2   12   13     -5.46      0.00
  -34    0   14      2.95      0.00
  -32    0   14     -1.26      0.00
  -30    0   14      4.27      0.00
  -28    0   14      7.48      0.00
  -26    0   14      6.69      0.00
  -24    0   14     -4.33      0.00
  -22    0   14     -1.82      0.00
  -20    0   14     -1.48      0.00
  -18    0   14      8.31      0.00
  -16    0   14     -4.30      0.00
  -14    0   14    -13.99      0.00
  -12    0   14     13.67      0.00
  -10    0   14    -16.84      0.00
   -8    0   14    -12.76      0.00
   -6    0   14     -3.18      0.00
   -2    0   14    -23.03      0.00
    0    0   14      3.72      0.00
    2    0   14      1.31      0.00
    4    0   14     12.81      0.00
    8    0   14      0.93      0.00
   10    0   14     -0.60      0.00
   12    0   14     -8.35      0.00
   14    0   14      5.89      0.00
   16    0   14      3.12      0.00
   18    0   14     -0.84      0.00
   20    0   14     -8.24      0.00
   22    0   14      1.13      0.00
  -33    1   14     -6.18      0.00
  -31    1   14     -4.44      0.00
  -29    1   14      6.58      0.00
  -27    1   14      0.66      0.00
  -25    1   14     -3.76      0.00
  -23    1   14      5.41      0.00
  -21    1   14      2.07      0.00
  -19    1   14      3.03      0.00
  -17    1   14     -5.70      0.00
  -15    1   14     -6.57      0.00
  -13    1   14      7.22      0.00
  -11    1   14     -1.99      0.00
   -9    1   14     -2.04      0.00
   -7    1   14      3.87      0.00
   -5    1   14     -4.33      0.00
   -3    1   14     -4.66      0.00
   -1    1   14      0.37      0.00
    1    1   14     15.55      0.00
    3    1   14     -7.91      0.00
    5    1   14     -6.42      0.00
    7    1   14     -2.05      0.00
    9    1   14     -0.63      0.00
   11    1   14      6.74      0.00
   13    1   14      1.38      0.00
   15    1   14     -1.25      0.00
   17    1   14     -3.44      0.00
   19    1   14      2.74      0.00
   21    1   14      7.99      0.00
  -32    2   14     -1.21      0.00
  -30    2   14     -6.19      0.00
  -28    2   14     -0.68      0.00
  -26    2   14     -3.58      0.00
  -24    2   14      3.81      0.00
  -22    2   14      6.07      0.00
  -20    2   14     -4.36      0.00
  -18    2   14     -4.77      0.00
  -16    2   14     12.84      0.00
  -14    2   14     -6.41      0.00
  -12    2   14     -6.15      0.00
  -10    2   14     13.44      0.00
   -8    2   14      6.99      0.00
   -6    2   14      9.41      0.00
   -4    2   14      9.97      0.00
   -2    2   14      3.40      0.00
    0    2   14      5.38      0.00
    2    2   14    -11.33      0.00
    4    2   14    -10.40      0.00
    6    2   14     -0.28      0.00
    8    2   14      0.25      0.00
   10    2   14     -1.63      0.00
   12    2   14     -0.25      0.00
   14    2   14      2.12      0.00
   16    2   14      6.51      0.00
   18    2   14     -5.89      0.00
   20    2   14     -8.74      0.00
   22    2   14      0.05      0.00
  -33    3   14     -1.08      0.00
  -31    3   14     -1.79      0.00
  -29    3   14      1.59      0.00
  -27    3   14      4.04      0.00
  -25    3   14     -4.64      0.00
  -23    3   14     -8.38      0.00
  -21    3   14     -2.32      0.00
  -19    3   14      4.50      0.00
  -17    3   14      9.60      0.00
  -15    3   14     -8.43      0.00
  -13    3   14     -1.39      0.00
  -11    3   14     15.61      0.00
   -9    3   14      1.83      0.00
   -7    3   14    -15.47      0.00
   -5    3   14     14.87      0.00
   -3    3   14     12.01      0.00
   -1    3   14     -9.05      0.00
    1    3   14    -10.33      0.00
    3    3   14     -1.94      0.00
    5    3   14      8.52      0.00
    7    3   14     -1.94      0.00
    9    3   14     -2.41      0.00
   11    3   14      0.45      0.00
   13    3   14     -1.01      0.00
   15    3   14     -1.45      0.00
   17    3   14      2.00      0.00
   19    3   14     -0.69      0.00
   21    3   14     -4.78      0.00
  -32    4   14      9.63      0.00
  -30    4   14      0.76      0.00
  -28    4   14      0.42      0.00
  -26    4   14     -7.16      0.00
  -24    4   14      7.43      0.00
  -22    4   14      5.48      0.00
  -20    4   14     -4.27      0.00
  -18    4   14     -3.54      0.00
  -16    4   14     -0.37      0.00
  -14    4   14      2.97      0.00
  -12    4   14    -13.46      0.00
  -10    4   14     -6.06      0.00
   -8    4   14      3.53      0.00
   -6    4   14     -2.85      0.00
   -4    4   14     -9.68      0.00
   -2    4   14     -7.91      0.00
    0    4   14     11.66      0.00
    2    4   14     -2.30      0.00
    4    4   14      6.82      0.00
    6    4   14     -1.53      0.00
    8    4   14      3.24      0.00
   10    4   14     -4.33      0.00
   12    4   14     -0.42      0.00
   14    4   14      9.14      0.00
   16    4   14     -2.28      0.00
   18    4   14     -4.27      0.00
   20    4   14     -7.85      0.00
  -31    5   14      6.12      0.00
  -29    5   14     -1.46      0.00
  -27    5   14      3.76      0.00
  -25    5   14      0.28      0.00
  -23    5   14     -2.04      0.00
  -21    5   14      9.85      0.00
  -19    5   14     -0.29      0.00
  -17    5   14     -7.34      0.00
  -15    5   14    -17.08      0.00
  -13    5   14     -1.44      0.00
  -11    5   14     -2.91      0.00
   -9    5   14      5.70      0.00
   -7    5   14      5.18      0.00
   -5    5   14      7.69      0.00
   -3    5   14     -1.54      0.00
   -1    5   14    -14.35      0.00
    1    5   14      5.48      0.00
    3    5   14      0.93      0.00
    5    5   14     -2.40      0.00
    7    5   14     -0.05      0.00
    9    5   14      1.57      0.00
   11    5   14     -3.46      0.00
   13    5   14     -4.86      0.00
   15    5   14      2.32      0.00
   17    5   14     -1.32      0.00
   19    5   14      0.96      0.00
  -30    6   14      8.88      0.00
  -28    6   14     -6.02      0.00
  -26    6   14     -3.98      0.00
  -24    6   14     -4.85      0.00
  -22    6   14      5.25      0.00
  -20    6   14     -2.45      0.00
  -18    6   14      3.03      0.00
  -16    6   14      8.25      0.00
  -14    6   14      3.53      0.00
  -12    6   14      3.55      0.00
  -10    6   14     -5.12      0.00
   -8    6   14      2.11      0.00
   -6    6   14     -0.35      0.00
   -4    6   14     -2.40      0.00
   -2    6   14      4.12      0.00
    0    6   14     -6.43      0.00
    2    6   14      5.52      0.00
    4    6   14      2.01      0.00
    6    6   14     -0.22      0.00
    8    6   14     -1.82      0.00
   10    6   14     -1.05      0.00
   12    6   14     10.19      0.00
   14    6   14      6.72      0.00
   16    6   14     10.28      0.00
   18    6   14     -2.28      0.00
  -29    7   14     -3.49      0.00
  -27    7   14     -7.78      0.00
  -25    7   14     -0.59      0.00
  -23    7   14      9.10      0.00
  -21    7   14     -7.26      0.00
  -19    7   14      4.84      0.00
  -17    7   14      4.39      0.00
  -15    7   14      4.87      0.00
  -13    7   14      1.04      0.00
  -11    7   14      1.06      0.00
   -9    7   14      1.61      0.00
   -7    7   14      2.20      0.00
   -5    7   14     -6.24      0.00
   -3    7   14     -1.95      0.00
   -1    7   14     -4.65      0.00
    1    7   14      5.68      0.00
    3    7   14      3.71      0.00
    5    7   14     -0.43      0.00
    7    7   14      1.02      0.00
    9    7   14      3.37      0.00
   11    7   14     -0.04      0.00
   13    7   14     -9.49      0.00
   15    7   14     -7.27      0.00
   17    7   14      1.69      0.00
  -26    8   14     -1.51      0.00
  -24    8   14     -2.50      0.00
  -22    8   14     -6.78      0.00
  -20    8   14      8.13      0.00
  -18    8   14     -0.75      0.00
  -16    8   14     -1.91      0.00
  -14    8   14     -5.83      0.00
  -12    8   14     -5.78      0.00
  -10    8   14      0.23      0.00
   -8    8   14      4.89      0.00
   -6    8   14     -0.26      0.00
   -4    8   14      0.77      0.00
   -2    8   14     -4.31      0.00
    0    8   14     -1.37      0.00
    2    8   14     -0.55      0.00
    4    8   14     -6.89      0.00
    6    8   14      4.60      0.00
    8    8   14      2.16      0.00
   10    8   14      0.89      0.00
   12    8   14     -5.48      0.00
   14    8   14      7.24      0.00
   16    8   14      2.95      0.00
  -25    9   14     -1.00      0.00
  -23    9   14      4.24      0.00
  -21    9   14     -3.30      0.00
  -19    9   14      5.40      0.00
  -17    9   14     -0.80      0.00
  -15    9   14     -9.73      0.00
  -13    9   14     -4.25      0.00
  -11    9   14      4.32      0.00
   -9    9   14      3.82      0.00
   -7    9   14     -3.25      0.00
   -5    9   14      1.23      0.00
   -3    9   14     -2.72      0.00
   -1    9   14     -3.97      0.00
    1    9   14      1.45      0.00
    3    9   14      0.02      0.00
    5    9   14     -0.81      0.00
    7    9   14     -6.31      0.00
    9    9   14     -5.70      0.00
   11    9   14     -2.85      0.00
   13    9   14      7.17      0.00
  -22   10   14      7.98      0.00
  -20   10   14     -4.58      0.00
  -18   10   14     -8.09      0.00
  -16   10   14      7.26      0.00
  -14   10   14    -10.09      0.00
  -12   10   14     -8.13      0.00
  -10   10   14      3.54      0.00
   -8   10   14     10.85      0.00
   -6   10   14     -0.55      0.00
   -4   10   14      1.97      0.00
   -2   10   14     -9.26      0.00
    0   10   14      3.08      0.00
    2   10   14      5.49      0.00
    4   10   14      7.58      0.00
    6   10   14      1.88      0.00
    8   10   14     -3.12      0.00
   10   10   14     -3.35      0.00
  -17   11   14     -0.45      0.00
  -15   11   14      4.19      0.00
  -13   11   14     -0.26      0.00
  -11   11   14      8.89      0.00
   -9   11   14    -12.71      0.00
   -7   11   14      0.93      0.00
   -5   11   14      9.80      0.00
   -3   11   14      2.69      0.00
   -1   11   14     -0.66      0.00
    1   11   14      8.15      0.00
    3   11   14    -15.76      0.00
    5   11   14      4.63      0.00
    7   11   14      1.22      0.00
  -10   12   14      3.06      0.00
   -8   12   14     -0.86      0.00
   -6   12   14     -0.70      0.00
   -4   12   14     -0.65      0.00
   -2   12   14      4.08      0.00
    0   12   14     -5.65      0.00
  -33    1   15      8.21      0.00
  -31    1   15      6.50      0.00
  -29    1   15      7.65      0.00
  -27    1   15      1.40      0.00
  -25    1   15     -1.23      0.00
  -23    1   15     -3.91      0.00
  -21    1   15      4.14      0.00
  -19    1   15      4.77      0.00
  -17    1   15     -7.94      0.00
  -15    1   15     -7.62      0.00
  -13    1   15      4.22      0.00
  -11    1   15     -7.83      0.00
   -9    1   15      5.06      0.00
   -7    1   15     -6.94      0.00
   -5    1   15      8.87      0.00
   -3    1   15     -6.02      0.00
   -1    1   15     -1.86      0.00
    1    1   15     -0.90      0.00
    3    1   15     14.12      0.00
    5    1   15      4.94      0.00
    7    1   15     -2.51      0.00
    9    1   15     -2.18      0.00
   11    1   15     -2.20      0.00
   13    1   15     -1.55      0.00
   15    1   15     -1.19      0.00
   17    1   15      3.31      0.00
   19    1   15     -4.59      0.00
   21    1   15      2.13      0.00
  -32    2   15      0.15      0.00
  -30    2   15      3.77      0.00
  -28    2   15      1.13      0.00
  -26    2   15     -1.32      0.00
  -24    2   15      9.22      0.00
  -22    2   15      2.51      0.00
  -20    2   15      1.06      0.00
  -18    2   15    -15.26      0.00
  -16    2   15     10.94      0.00
  -14    2   15     10.68      0.00
  -12    2   15     -5.62      0.00
  -10    2   15     -1.69      0.00
   -8    2   15      9.88      0.00
   -6    2   15     -9.53      0.00
   -4    2   15    -14.58      0.00
   -2    2   15     15.70      0.00
    0    2   15      3.57      0.00
    2    2   15     -7.70      0.00
    4    2   15     -2.79      0.00
    6    2   15      1.44      0.00
    8    2   15      4.99      0.00
   10    2   15      5.23      0.00
   12    2   15      2.23      0.00
   14    2   15      1.57      0.00
   16    2   15     -3.90      0.00
   18    2   15      0.10      0.00
   20    2   15      9.31      0.00
  -33    3   15    -10.90      0.00
  -31    3   15      5.55      0.00
  -29    3   15     -1.60      0.00
  -27    3   15      2.34      0.00
  -25    3   15      1.62      0.00
  -23    3   15     -5.34      0.00
  -21    3   15      2.05      0.00
  -19    3   15     -4.02      0.00
  -17    3   15      4.24      0.00
  -15    3   15     -1.06      0.00
  -13    3   15      2.48      0.00
  -11    3   15     -0.67      0.00
   -9    3   15      1.08      0.00
   -7    3   15     13.23      0.00
   -5    3   15     -1.65      0.00
   -3    3   15      1.80      0.00
   -1    3   15     -1.81      0.00
    1    3   15     -9.48      0.00
    3    3   15     -9.39      0.00
    5    3   15      9.87      0.00
    7    3   15     -1.08      0.00
    9    3   15      2.38      0.00
   11    3   15     -5.85      0.00
   13    3   15     -0.95      0.00
   15    3   15      3.70      0.00
   17    3   15     -5.95      0.00
   19    3   15     -2.17      0.00
   21    3   15      4.78      0.00
  -32    4   15     -6.02      0.00
  -30    4   15     -0.78      0.00
  -28    4   15     -2.61      0.00
  -26    4   15     -5.52      0.00
  -24    4   15      1.08      0.00
  -22    4   15     -1.36      0.00
  -20    4   15      1.44      0.00
  -18    4   15      5.86      0.00
  -16    4   15     -7.56      0.00
  -14    4   15      6.19      0.00
  -12    4   15      9.94      0.00
  -10    4   15    -11.45      0.00
   -8    4   15     -7.80      0.00
   -6    4   15      4.68      0.00
   -4    4   15     -1.16      0.00
   -2    4   15      1.94      0.00
    0    4   15     -4.45      0.00
    2    4   15      3.35      0.00
    4    4   15      5.72      0.00
    6    4   15     -5.56      0.00
    8    4   15     -4.43      0.00
   10    4   15      2.93      0.00
   12    4   15      2.05      0.00
   14    4   15      1.60      0.00
   16    4   15      1.15      0.00
   18    4   15     -2.15      0.00
   20    4   15     -2.35      0.00
  -31    5   15     -4.40      0.00
  -29    5   15      6.67      0.00
  -27    5   15     -3.85      0.00
  -25    5   15      4.27      0.00
  -23    5   15      1.79      0.00
  -21    5   15     -2.06      0.00
  -19    5   15     -0.68      0.00
  -17    5   15     -7.95      0.00
  -15    5   15     -2.80      0.00
  -13    5   15      1.08      0.00
  -11    5   15      2.12      0.00
   -9    5   15      1.93      0.00
   -7    5   15      1.38      0.00
   -5    5   15     -6.92      0.00
   -3    5   15     -0.02      0.00
   -1    5   15      3.05      0.00
    1    5   15     -3.77      0.00
    3    5   15     -1.01      0.00
    5    5   15      0.32      0.00
    7    5   15      2.62      0.00
    9    5   15     -5.00      0.00
   11    5   15     -1.55      0.00
   13    5   15     -2.62      0.00
   15    5   15     -5.56      0.00
   17    5   15      2.00      0.00
   19    5   15      1.29      0.00
  -30    6   15      4.52      0.00
  -28    6   15      7.04      0.00
  -26    6   15     -2.32      0.00
  -24    6   15     -7.47      0.00
  -22    6   15      0.49      0.00
  -20    6   15     -8.72      0.00
  -18    6   15     -2.67      0.00
  -16    6   15     -5.26      0.00
  -14    6   15     -0.34      0.00
  -12    6   15      0.90      0.00
  -10    6   15     -2.26      0.00
   -8    6   15      0.94      0.00
   -6    6   15      6.92      0.00
   -4    6   15     -1.87      0.00
   -2    6   15     -2.43      0.00
    0    6   15      1.88      0.00
    2    6   15      0.84      0.00
    4    6   15     -5.39      0.00
    6    6   15      1.79      0.00
    8    6   15      1.72      0.00
   10    6   15     -0.87      0.00
   12    6   15      3.63      0.00
   14    6   15      1.54      0.00
   16    6   15    -10.52      0.00
   18    6   15      6.86      0.00
  -29    7   15      0.47      0.00
  -27    7   15     -7.05      0.00
  -25    7   15      0.91      0.00
  -23    7   15     15.46      0.00
  -21    7   15     -6.36      0.00
  -19    7   15      1.58      0.00
  -17    7   15      3.60      0.00
  -15    7   15      4.27      0.00
  -13    7   15     -2.32      0.00
  -11    7   15     -2.30      0.00
   -9    7   15     -3.50      0.00
   -7    7   15      3.90      0.00
   -5    7   15      1.35      0.00
   -3    7   15      3.44      0.00
   -1    7   15     -1.87      0.00
    1    7   15      4.91      0.00
    3    7   15      0.69      0.00
    5    7   15     -1.95      0.00
    7    7   15     -1.43      0.00
    9    7   15     -5.35      0.00
   11    7   15      6.43      0.00
   13    7   15      0.91      0.00
   15    7   15     -2.79      0.00
  -26    8   15      9.14      0.00
  -24    8   15     -5.35      0.00
  -22    8   15     -4.48      0.00
  -20    8   15      4.41      0.00
  -18    8   15      1.66      0.00
  -16    8   15      3.70      0.00
  -14    8   15      3.61      0.00
  -12    8   15     -6.67      0.00
  -10    8   15      8.34      0.00
   -8    8   15     -3.12      0.00
   -6    8   15     -2.96      0.00
   -4    8   15     -1.65      0.00
   -2    8   15     -5.05      0.00
    0    8   15      5.01      0.00
    2    8   15      3.00      0.00
    4    8   15     -0.26      0.00
    6    8   15     -0.19      0.00
    8    8   15      3.22      0.00
   10    8   15     -1.48      0.00
   12    8   15     -4.00      0.00
   14    8   15      4.86      0.00
  -25    9   15     -7.79      0.00
  -23    9   15     -2.86      0.00
  -21    9   15      9.35      0.00
  -19    9   15      0.61      0.00
  -17    9   15     -1.41      0.00
  -15    9   15     -4.04      0.00
  -13    9   15     -0.47      0.00
  -11    9   15      4.09      0.00
   -9    9   15     -6.49      0.00
   -7    9   15     -3.56      0.00
   -5    9   15      5.34      0.00
   -3    9   15     -1.79      0.00
   -1    9   15     -0.71      0.00
    1    9   15     -4.08      0.00
    3    9   15      1.96      0.00
    5    9   15     -4.60      0.00
    7    9   15      7.14      0.00
    9    9   15      5.71      0.00
   11    9   15     -6.43      0.00
  -22   10   15     -4.11      0.00
  -20   10   15      4.99      0.00
  -18   10   15    -10.94      0.00
  -16   10   15      3.04      0.00
  -14   10   15      1.51      0.00
  -12   10   15     -1.52      0.00
  -10   10   15     14.69      0.00
   -8   10   15     -3.35      0.00
   -6   10   15     -9.77      0.00
   -4   10   15      5.61      0.00
   -2   10   15     -9.32      0.00
    0   10   15      7.09      0.00
    2   10   15      5.68      0.00
    4   10   15     -9.27      0.00
    6   10   15      0.54      0.00
    8   10   15     -1.06      0.00
   10   10   15      2.99      0.00
  -17   11   15      2.44      0.00
  -15   11   15     -5.98      0.00
  -13   11   15     -1.50      0.00
  -11   11   15      4.96      0.00
   -9   11   15      1.40      0.00
   -7   11   15      8.01      0.00
   -5   11   15      2.61      0.00
   -3   11   15     -7.32      0.00
   -1   11   15     10.56      0.00
    1   11   15     -0.16      0.00
    3   11   15      3.78      0.00
    5   11   15     -7.26      0.00
  -10   12   15     -7.76      0.00
   -8   12   15     -1.55      0.00
   -6   12   15      3.77      0.00
   -4   12   15      3.50      0.00
   -2   12   15     -7.17      0.00
  -34    0   16    -10.09      0.00
  -32    0   16     -4.34      0.00
  -30    0   16      3.20      0.00
  -28    0   16     -3.80      0.00
  -26    0   16      2.49      0.00
  -24    0   16      0.36      0.00
  -22    0   16      4.01      0.00
  -20    0   16     -0.11      0.00
  -18    0   16      6.31      0.00
  -16    0   16     -1.38      0.00
  -14    0   16     -2.87      0.00
  -12    0   16     -2.62      0.00
  -10    0   16    -10.19      0.00
   -8    0   16      5.47      0.00
   -6    0   16      0.25      0.00
   -4    0   16      0.58      0.00
   -2    0   16     12.38      0.00
    0    0   16      1.25      0.00
    2    0   16    -16.22      0.00
    4    0   16     -2.18      0.00
    6    0   16      2.45      0.00
    8    0   16      1.56      0.00
   10    0   16      4.96      0.00
   12    0   16     -0.93      0.00
   14    0   16      2.89      0.00
   16    0   16      8.91      0.00
   18    0   16      7.19      0.00
   20    0   16     -2.83      0.00
  -33    1   16     -2.34      0.00
  -31    1   16     -4.28      0.00
  -29    1   16      4.45      0.00
  -27    1   16      0.89      0.00
  -25    1   16     -6.82      0.00
  -23    1   16      0.93      0.00
  -21    1   16     -1.25      0.00
  -19    1   16      9.60      0.00
  -17    1   16     -7.87      0.00
  -15    1   16    -14.46      0.00
  -13    1   16      4.93      0.00
  -11    1   16      0.10      0.00
   -9    1   16     -4.32      0.00
   -7    1   16      8.45      0.00
   -5    1   16      5.83      0.00
   -3    1   16     -4.91      0.00
   -1    1   16      8.72      0.00
    1    1   16     -0.69      0.00
    3    1   16     -7.34      0.00
    5    1   16      2.80      0.00
    7    1   16     -2.79      0.00
    9    1   16     -2.93      0.00
   11    1   16     -0.86      0.00
   13    1   16      2.08      0.00
   15    1   16      2.56      0.00
   17    1   16     -4.02      0.00
   19    1   16     -7.79      0.00
   21    1   16      3.87      0.00
  -32    2   16     -2.33      0.00
  -30    2   16      3.09      0.00
  -28    2   16      1.84      0.00
  -26    2   16     -4.53      0.00
  -24    2   16      0.45      0.00
  -22    2   16      1.30      0.00
  -20    2   16      5.37      0.00
  -18    2   16     -4.80      0.00
  -16    2   16     -6.13      0.00
  -14    2   16      2.42      0.00
  -12    2   16     10.24      0.00
  -10    2   16     -4.21      0.00
   -8    2   16     -9.73      0.00
   -6    2   16     12.59      0.00
   -4    2   16     -5.87      0.00
   -2    2   16    -13.95      0.00
    0    2   16     14.20      0.00
    2    2   16     -3.78      0.00
    4    2   16     -3.91      0.00
    6    2   16     -4.23      0.00
    8    2   16      0.80      0.00
   10    2   16      3.49      0.00
   12    2   16     -5.78      0.00
   14    2   16      2.69      0.00
   16    2   16      3.88      0.00
   18    2   16     -2.35      0.00
   20    2   16     -9.49      0.00
  -33    3   16      1.27      0.00
  -31    3   16      3.82      0.00
  -29    3   16      3.82      0.00
  -27    3   16     -0.80      0.00
  -25    3   16      2.17      0.00
  -23    3   16      2.46      0.00
  -21    3   16     -1.61      0.00
  -19    3   16     -1.25      0.00
  -17    3   16     15.54      0.00
  -15    3   16     -4.13      0.00
  -13    3   16     -2.95      0.00
  -11    3   16      7.26      0.00
   -9    3   16      5.32      0.00
   -7    3   16    -10.58      0.00
   -5    3   16      4.39      0.00
   -3    3   16     -3.10      0.00
   -1    3   16      1.78      0.00
    1    3   16     -7.51      0.00
    3    3   16      4.10      0.00
    5    3   16     10.14      0.00
    7    3   16      2.20      0.00
    9    3   16     -0.29      0.00
   11    3   16      0.65      0.00
   13    3   16     -0.93      0.00
   15    3   16     -1.10      0.00
   17    3   16     -0.15      0.00
   19    3   16      2.78      0.00
  -32    4   16      6.45      0.00
  -30    4   16     -5.74      0.00
  -28    4   16      5.10      0.00
  -26    4   16     -3.45      0.00
  -24    4   16     -4.25      0.00
  -22    4   16      2.62      0.00
  -20    4   16     -4.95      0.00
  -18    4   16      4.50      0.00
  -16    4   16     -5.50      0.00
  -14    4   16     -1.53      0.00
  -12    4   16     -6.25      0.00
  -10    4   16      2.77      0.00
   -8    4   16      2.62      0.00
   -6    4   16      2.40      0.00
   -4    4   16     -4.22      0.00
   -2    4   16     -2.99      0.00
    0    4   16      5.56      0.00
    2    4   16     -3.71      0.00
    4    4   16      5.12      0.00
    6    4   16     -3.00      0.00
    8    4   16      2.92      0.00
   10    4   16     -6.11      0.00
   12    4   16      1.77      0.00
   14    4   16     -0.27      0.00
   16    4   16     -2.87      0.00
   18    4   16      5.04      0.00
  -31    5   16     -3.93      0.00
  -29    5   16     -5.05      0.00
  -27    5   16      5.56      0.00
  -25    5   16      7.58      0.00
  -23    5   16      4.42      0.00
  -21    5   16     -0.21      0.00
  -19    5   16     -1.34      0.00
  -17    5   16     -0.10      0.00
  -15    5   16      4.44      0.00
  -13    5   16      1.64      0.00
  -11    5   16     -2.83      0.00
   -9    5   16     -1.39      0.00
   -7    5   16     -5.05      0.00
   -5    5   16     -0.65      0.00
   -3    5   16      5.73      0.00
   -1    5   16     -3.84      0.00
    1    5   16      6.29      0.00
    3    5   16      2.86      0.00
    5    5   16     -3.41      0.00
    7    5   16     -3.04      0.00
    9    5   16      1.20      0.00
   11    5   16      4.15      0.00
   13    5   16      4.02      0.00
   15    5   16      7.21      0.00
   17    5   16    -11.82      0.00
  -30    6   16      5.70      0.00
  -28    6   16      3.80      0.00
  -26    6   16     -2.73      0.00
  -24    6   16     -5.02      0.00
  -22    6   16      6.30      0.00
  -20    6   16      0.74      0.00
  -18    6   16     -9.93      0.00
  -16    6   16      2.94      0.00
  -14    6   16      8.35      0.00
  -12    6   16      4.20      0.00
  -10    6   16     -2.00      0.00
   -8    6   16      0.72      0.00
   -6    6   16     -3.41      0.00
   -4    6   16     -5.11      0.00
   -2    6   16     -3.00      0.00
    0    6   16      2.57      0.00
    2    6   16     -3.10      0.00
    4    6   16     -1.87      0.00
    6    6   16      2.02      0.00
    8    6   16      3.47      0.00
   10    6   16     -6.61      0.00
   12    6   16      0.45      0.00
   14    6   16     -1.14      0.00
   16    6   16      5.35      0.00
  -29    7   16     -0.83      0.00
  -27    7   16     -5.79      0.00
  -25    7   16      2.90      0.00
  -23    7   16     -3.56      0.00
  -21    7   16     -9.53      0.00
  -19    7   16      7.34      0.00
  -17    7   16      1.19      0.00
  -15    7   16     -5.16      0.00
  -13    7   16     -3.03      0.00
  -11    7   16     -1.95      0.00
   -9    7   16      4.27      0.00
   -7    7   16      2.62      0.00
   -5    7   16      3.05      0.00
   -3    7   16      1.16      0.00
   -1    7   16     -1.20      0.00
    1    7   16      1.99      0.00
    3    7   16     -0.90      0.00
    5    7   16     -0.18      0.00
    7    7   16     -0.36      0.00
    9    7   16     -1.98      0.00
   11    7   16      1.24      0.00
   13    7   16     -3.89      0.00
   15    7   16     -2.27      0.00
  -26    8   16      3.33      0.00
  -24    8   16      9.85      0.00
  -22    8   16     -5.44      0.00
  -20    8   16     -4.62      0.00
  -18    8   16     -1.72      0.00
  -16    8   16     -1.40      0.00
  -14    8   16      3.85      0.00
  -12    8   16     -1.79      0.00
  -10    8   16      2.11      0.00
   -8    8   16      1.60      0.00
   -6    8   16     -1.67      0.00
   -4    8   16     -1.59      0.00
   -2    8   16      1.95      0.00
    0    8   16      6.27      0.00
    2    8   16     -7.73      0.00
    4    8   16     -2.31      0.00
    6    8   16     -5.57      0.00
    8    8   16     -7.27      0.00
   10    8   16      5.60      0.00
   12    8   16     -7.73      0.00
   14    8   16      0.30      0.00
  -23    9   16     -2.99      0.00
  -21    9   16      0.98      0.00
  -19    9   16      0.88      0.00
  -17    9   16      2.17      0.00
  -15    9   16     -5.77      0.00
  -13    9   16     -1.43      0.00
  -11    9   16     -1.84      0.00
   -9    9   16     -1.22      0.00
   -7    9   16      3.88      0.00
   -5    9   16     -1.39      0.00
   -3    9   16      2.18      0.00
   -1    9   16      0.15      0.00
    1    9   16      4.89      0.00
    3    9   16      4.83      0.00
    5    9   16     -6.73      0.00
    7    9   16      2.13      0.00
    9    9   16      3.11      0.00
   11    9   16      2.82      0.00
  -20   10   16     -0.54      0.00
  -18   10   16     -5.95      0.00
  -16   10   16     -5.00      0.00
  -14   10   16      5.79      0.00
  -12   10   16     -0.02      0.00
  -10   10   16     -5.83      0.00
   -8   10   16     -8.56      0.00
   -6   10   16      3.78      0.00
   -4   10   16     -1.60      0.00
   -2   10   16     -2.94      0.00
    0   10   16      7.54      0.00
    2   10   16     -6.75      0.00
    4   10   16      4.72      0.00
    6   10   16      5.15      0.00
    8   10   16      1.55      0.00
  -17   11   16     10.22      0.00
  -15   11   16      7.40      0.00
  -13   11   16     -4.48      0.00
  -11   11   16     13.39      0.00
   -9   11   16     -4.58      0.00
   -7   11   16     -4.24      0.00
   -5   11   16     -1.91      0.00
   -3   11   16      2.28      0.00
   -1   11   16      2.40      0.00
    1   11   16      5.59      0.00
    3   11   16     -9.37      0.00
  -33    1   17      6.41      0.00
  -31    1   17     -2.19      0.00
  -29    1   17     -0.17      0.00
  -27    1   17     -2.19      0.00
  -25    1   17      6.24      0.00
  -23    1   17     -0.19      0.00
  -21    1   17      1.84      0.00
  -19    1   17     -4.35      0.00
  -17    1   17     -0.55      0.00
  -15    1   17      4.76      0.00
  -13    1   17     -4.59      0.00
  -11    1   17     -1.81      0.00
   -9    1   17     13.80      0.00
   -7    1   17     -5.98      0.00
   -5    1   17      7.16      0.00
   -3    1   17     13.59      0.00
   -1    1   17     -9.79      0.00
    1    1   17     -0.28      0.00
    3    1   17      2.88      0.00
    5    1   17     -2.57      0.00
    7    1   17      0.59      0.00
    9    1   17      0.75      0.00
   11    1   17      4.43      0.00
   13    1   17     -0.24      0.00
   15    1   17      7.40      0.00
   17    1   17      3.95      0.00
   19    1   17     -6.52      0.00
  -32    2   17      1.40      0.00
  -30    2   17     -1.51      0.00
  -28    2   17      1.84      0.00
  -26    2   17     -2.83      0.00
  -24    2   17     -2.14      0.00
  -22    2   17      2.10      0.00
  -20    2   17      2.15      0.00
  -18    2   17    -13.33      0.00
  -16    2   17     -0.98      0.00
  -14    2   17     -5.64      0.00
  -12    2   17      0.80      0.00
  -10    2   17      3.33      0.00
   -8    2   17      6.94      0.00
   -6    2   17      1.32      0.00
   -4    2   17      0.45      0.00
   -2    2   17      9.21      0.00
    0    2   17     -7.52      0.00
    2    2   17    -13.93      0.00
    4    2   17      4.62      0.00
    6    2   17     -0.13      0.00
    8    2   17     -1.54      0.00
   10    2   17     -0.38      0.00
   12    2   17      0.49      0.00
   14    2   17      0.52      0.00
   16    2   17     -0.85      0.00
   18    2   17     -6.77      0.00
  -33    3   17     -7.72      0.00
  -31    3   17      9.23      0.00
  -29    3   17      0.86      0.00
  -27    3   17     -1.75      0.00
  -25    3   17     -0.40      0.00
  -23    3   17     -0.34      0.00
  -21    3   17      8.53      0.00
  -19    3   17     -2.82      0.00
  -17    3   17     -5.08      0.00
  -15    3   17      6.28      0.00
  -13    3   17      5.14      0.00
  -11    3   17     -7.91      0.00
   -9    3   17     -0.07      0.00
   -7    3   17      8.54      0.00
   -5    3   17     -7.41      0.00
   -3    3   17     -3.38      0.00
   -1    3   17      1.12      0.00
    1    3   17     -9.04      0.00
    3    3   17     -0.32      0.00
    5    3   17      3.82      0.00
    7    3   17      0.07      0.00
    9    3   17      6.52      0.00
   11    3   17     -2.11      0.00
   13    3   17      1.73      0.00
   15    3   17     -2.94      0.00
   17    3   17     -9.06      0.00
   19    3   17     -3.55      0.00
  -32    4   17      9.81      0.00
  -30    4   17     -1.00      0.00
  -28    4   17     -6.69      0.00
  -26    4   17     -2.94      0.00
  -24    4   17     -2.98      0.00
  -22    4   17      4.50      0.00
  -20    4   17      1.03      0.00
  -18    4   17      4.03      0.00
  -16    4   17     -7.87      0.00
  -14    4   17      1.26      0.00
  -12    4   17      2.39      0.00
  -10    4   17      2.00      0.00
   -8    4   17      6.00      0.00
   -6    4   17     -0.47      0.00
   -4    4   17     -8.46      0.00
   -2    4   17     -0.85      0.00
    0    4   17     -3.51      0.00
    2    4   17      4.52      0.00
    4    4   17      9.95      0.00
    6    4   17     -2.65      0.00
    8    4   17     -4.70      0.00
   10    4   17     -2.71      0.00
   12    4   17     -5.03      0.00
   14    4   17      2.10      0.00
   16    4   17      8.48      0.00
   18    4   17     -3.32      0.00
  -31    5   17     -9.55      0.00
  -29    5   17      1.98      0.00
  -27    5   17     -2.36      0.00
  -25    5   17     -1.35      0.00
  -23    5   17     -4.78      0.00
  -21    5   17     -0.74      0.00
  -19    5   17      6.53      0.00
  -17    5   17     -6.73      0.00
  -15    5   17     -6.50      0.00
  -13    5   17     -0.80      0.00
  -11    5   17     -4.40      0.00
   -9    5   17      1.52      0.00
   -7    5   17      3.85      0.00
   -5    5   17     -2.61      0.00
   -3    5   17      0.51      0.00
   -1    5   17      2.63      0.00
    1    5   17      2.48      0.00
    3    5   17     -4.93      0.00
    5    5   17     -0.46      0.00
    7    5   17      2.10      0.00
    9    5   17     -1.33      0.00
   11    5   17      3.47      0.00
   13    5   17     -3.40      0.00
   15    5   17     -4.01      0.00
   17    5   17      2.73      0.00
  -30    6   17      9.14      0.00
  -28    6   17     -0.28      0.00
  -26    6   17      2.24      0.00
  -24    6   17      9.77      0.00
  -22    6   17     -2.85      0.00
  -20    6   17     -5.39      0.00
  -18    6   17     -4.63      0.00
  -16    6   17      9.32      0.00
  -14    6   17      1.12      0.00
  -12    6   17     -1.57      0.00
  -10    6   17     -3.63      0.00
   -8    6   17      1.60      0.00
   -6    6   17     -1.24      0.00
   -4    6   17      0.73      0.00
   -2    6   17     -4.02      0.00
    0    6   17      1.50      0.00
    2    6   17      4.78      0.00
    4    6   17      1.44      0.00
    6    6   17     -1.56      0.00
    8    6   17      0.95      0.00
   10    6   17     -2.02      0.00
   12    6   17      4.12      0.00
   14    6   17      4.10      0.00
   16    6   17     -6.22      0.00
  -27    7   17     -1.91      0.00
  -25    7   17     -4.97      0.00
  -23    7   17      4.65      0.00
  -21    7   17      3.65      0.00
  -19    7   17      0.99      0.00
  -17    7   17      4.61      0.00
  -15    7   17      0.74      0.00
  -13    7   17     -6.86      0.00
  -11    7   17      4.03      0.00
   -9    7   17     -2.12      0.00
   -7    7   17     -1.44      0.00
   -5    7   17     -4.29      0.00
   -3    7   17     -2.54      0.00
   -1    7   17      1.66      0.00
    1    7   17      7.55      0.00
    3    7   17     -2.43      0.00
    5    7   17      5.66      0.00
    7    7   17      4.58      0.00
    9    7   17     -1.15      0.00
   11    7   17      3.02      0.00
   13    7   17     -1.41      0.00
   15    7   17    -10.75      0.00
  -26    8   17      4.31      0.00
  -24    8   17     -1.59      0.00
  -22    8   17     -0.17      0.00
  -20    8   17      2.86      0.00
  -18    8   17     -3.58      0.00
  -16    8   17     -0.58      0.00
  -14    8   17      0.44      0.00
  -12    8   17      3.17      0.00
  -10    8   17      2.56      0.00
   -8    8   17     -5.22      0.00
   -6    8   17      4.17      0.00
   -4    8   17     -6.38      0.00
   -2    8   17     -1.93      0.00
    0    8   17      0.81      0.00
    2    8   17      0.46      0.00
    4    8   17     -2.25      0.00
    6    8   17     -1.77      0.00
    8    8   17     -6.64      0.00
   10    8   17     -0.59      0.00
   12    8   17     -0.20      0.00
  -23    9   17     -3.34      0.00
  -21    9   17      4.50      0.00
  -19    9   17     -1.99      0.00
  -17    9   17      5.06      0.00
  -15    9   17     -2.21      0.00
  -13    9   17     -0.62      0.00
  -11    9   17      6.89      0.00
   -9    9   17      0.71      0.00
   -7    9   17     -5.87      0.00
   -5    9   17      6.21      0.00
   -3    9   17     -4.24      0.00
   -1    9   17      7.34      0.00
    1    9   17     -7.99      0.00
    3    9   17     -0.95      0.00
    5    9   17     -8.00      0.00
    7    9   17      2.00      0.00
    9    9   17      5.00      0.00
  -20   10   17     -3.79      0.00
  -18   10   17    -10.82      0.00
  -16   10   17      0.03      0.00
  -14   10   17      5.75      0.00
  -12   10   17      0.23      0.00
  -10   10   17     -0.35      0.00
   -8   10   17      5.49      0.00
   -6   10   17      0.40      0.00
   -4   10   17      1.57      0.00
   -2   10   17     -2.76      0.00
    0   10   17      5.80      0.00
    2   10   17      7.19      0.00
    4   10   17    -14.74      0.00
    6   10   17      7.61      0.00
  -15   11   17      1.58      0.00
  -13   11   17     -4.71      0.00
  -11   11   17      6.97      0.00
   -9   11   17    -13.17      0.00
   -7   11   17      3.94      0.00
   -5   11   17      3.31      0.00
   -3   11   17     -1.90      0.00
   -1   11   17      8.50      0.00
    1   11   17     -7.63      0.00
  -34    0   18     -5.44      0.00
  -32    0   18      3.90      0.00
  -30    0   18      9.49      0.00
  -28    0   18     -0.55      0.00
  -26    0   18     -5.68      0.00
  -24    0   18      0.46      0.00
  -22    0   18      4.11      0.00
  -20    0   18      8.08      0.00
  -18    0   18     -2.36      0.00
  -16    0   18    -20.25      0.00
  -14    0   18      5.55      0.00
  -12    0   18     -1.26      0.00
  -10    0   18    -11.70      0.00
   -8    0   18     11.41      0.00
   -6    0   18     -3.36      0.00
   -4    0   18    -15.63      0.00
   -2    0   18     19.06      0.00
    0    0   18     -5.65      0.00
    2    0   18     -4.47      0.00
    4    0   18     10.77      0.00
    6    0   18     -1.54      0.00
    8    0   18     -0.54      0.00
   10    0   18     -3.37      0.00
   12    0   18      2.05      0.00
   14    0   18     -6.00      0.00
  -33    1   18     -3.61      0.00
  -31    1   18      3.35      0.00
  -29    1   18      1.33      0.00
  -27    1   18     -0.15      0.00
  -25    1   18     -1.69      0.00
  -23    1   18      2.20      0.00
  -21    1   18     -1.79      0.00
  -19    1   18      6.10      0.00
  -17    1   18     -2.58      0.00
  -15    1   18      1.63      0.00
  -13    1   18      2.45      0.00
  -11    1   18     -4.81      0.00
   -9    1   18     -4.52      0.00
   -7    1   18      5.68      0.00
   -5    1   18     -8.20      0.00
   -3    1   18     -2.81      0.00
   -1    1   18      9.90      0.00
    1    1   18     -0.80      0.00
    3    1   18     -1.33      0.00
    5    1   18      1.84      0.00
    7    1   18     -2.49      0.00
    9    1   18      1.24      0.00
   11    1   18     -0.94      0.00
   13    1   18      5.48      0.00
   15    1   18      0.26      0.00
   17    1   18     -0.82      0.00
  -32    2   18     -3.86      0.00
  -30    2   18     -4.36      0.00
  -28    2   18      2.40      0.00
  -26    2   18      5.12      0.00
  -24    2   18      0.05      0.00
  -22    2   18     -3.07      0.00
  -20    2   18      0.73      0.00
  -18    2   18      4.66      0.00
  -16    2   18      4.55      0.00
  -14    2   18     -5.35      0.00
  -12    2   18      0.87      0.00
  -10    2   18     -2.94      0.00
   -8    2   18     -1.74      0.00
   -6    2   18     10.88      0.00
   -4    2   18      0.42      0.00
   -2    2   18      3.42      0.00
    0    2   18      9.87      0.00
    2    2   18    -12.50      0.00
    4    2   18     -2.53      0.00
    6    2   18     -2.90      0.00
    8    2   18     -1.29      0.00
   10    2   18      3.23      0.00
   12    2   18     -1.13      0.00
   14    2   18     10.37      0.00
   16    2   18     -4.99      0.00
   18    2   18     -6.70      0.00
  -33    3   18     -3.64      0.00
  -31    3   18     -2.35      0.00
  -29    3   18      7.37      0.00
  -27    3   18     -2.21      0.00
  -25    3   18      2.03      0.00
  -23    3   18     -0.94      0.00
  -21    3   18      1.22      0.00
  -19    3   18     -5.37      0.00
  -17    3   18     -4.27      0.00
  -15    3   18     -3.94      0.00
  -13    3   18      3.74      0.00
  -11    3   18     -0.20      0.00
   -9    3   18     -2.47      0.00
   -7    3   18      0.60      0.00
   -5    3   18      4.37      0.00
   -3    3   18     -3.77      0.00
   -1    3   18      2.97      0.00
    1    3   18    -19.99      0.00
    3    3   18      8.21      0.00
    5    3   18      5.86      0.00
    7    3   18     -1.89      0.00
    9    3   18      1.12      0.00
   11    3   18     -0.99      0.00
   13    3   18     -0.02      0.00
   15    3   18     -3.33      0.00
   17    3   18      4.87      0.00
  -32    4   18     11.77      0.00
  -30    4   18     -2.33      0.00
  -28    4   18      0.68      0.00
  -26    4   18     -6.12      0.00
  -24    4   18      3.83      0.00
  -22    4   18      3.34      0.00
  -20    4   18     -2.56      0.00
  -18    4   18     -0.82      0.00
  -16    4   18     -3.49      0.00
  -14    4   18      7.28      0.00
  -12    4   18      3.60      0.00
  -10    4   18      3.67      0.00
   -8    4   18     -2.62      0.00
   -6    4   18      7.40      0.00
   -4    4   18     -1.90      0.00
   -2    4   18     -5.81      0.00
    0    4   18     -0.77      0.00
    2    4   18      7.81      0.00
    4    4   18     -1.20      0.00
    6    4   18     -5.89      0.00
    8    4   18      1.84      0.00
   10    4   18     -1.00      0.00
   12    4   18      1.12      0.00
   14    4   18     -2.58      0.00
   16    4   18     -2.22      0.00
  -31    5   18     -7.08      0.00
  -29    5   18     -1.92      0.00
  -27    5   18     -2.95      0.00
  -25    5   18     -6.05      0.00
  -23    5   18      8.03      0.00
  -21    5   18      1.07      0.00
  -19    5   18      2.82      0.00
  -17    5   18     -9.67      0.00
  -15    5   18      3.53      0.00
  -13    5   18      2.84      0.00
  -11    5   18      2.71      0.00
   -9    5   18      0.78      0.00
   -7    5   18      1.68      0.00
   -5    5   18     -9.36      0.00
   -3    5   18      1.34      0.00
   -1    5   18      0.71      0.00
    1    5   18     -1.59      0.00
    3    5   18      1.39      0.00
    5    5   18      1.12      0.00
    7    5   18     -1.58      0.00
    9    5   18     -0.86      0.00
   11    5   18      0.02      0.00
   13    5   18     -2.64      0.00
   15    5   18      9.78      0.00
  -30    6   18     -0.67      0.00
  -28    6   18     -0.27      0.00
  -26    6   18     -0.99      0.00
  -24    6   18     -0.30      0.00
  -22    6   18      4.64      0.00
  -20    6   18      3.91      0.00
  -18    6   18     -5.78      0.00
  -16    6   18     -2.63      0.00
  -14    6   18     -0.53      0.00
  -12    6   18     -0.60      0.00
  -10    6   18      2.09      0.00
   -8    6   18      5.81      0.00
   -6    6   18     -1.46      0.00
   -4    6   18     -3.11      0.00
   -2    6   18     -0.59      0.00
    0    6   18     -3.86      0.00
    2    6   18     -1.02      0.00
    4    6   18     -1.27      0.00
    6    6   18      0.03      0.00
    8    6   18     -1.09      0.00
   10    6   18      1.50      0.00
   12    6   18      3.65      0.00
   14    6   18      5.43      0.00
  -27    7   18     -2.13      0.00
  -25    7   18      7.68      0.00
  -23    7   18     -3.65      0.00
  -21    7   18     -2.41      0.00
  -19    7   18      0.60      0.00
  -17    7   18     -0.56      0.00
  -15    7   18      1.22      0.00
  -13    7   18     -6.44      0.00
  -11    7   18      3.99      0.00
   -9    7   18      7.62      0.00
   -7    7   18     -2.26      0.00
   -5    7   18     -0.46      0.00
   -3    7   18     -4.36      0.00
   -1    7   18      1.28      0.00
    1    7   18      7.74      0.00
    3    7   18      1.95      0.00
    5    7   18     -0.78      0.00
    7    7   18     -0.46      0.00
    9    7   18     -8.27      0.00
   11    7   18      3.29      0.00
   13    7   18      2.17      0.00
  -26    8   18      0.37      0.00
  -24    8   18     -3.13      0.00
  -22    8   18      2.34      0.00
  -20    8   18      3.13      0.00
  -18    8   18      3.62      0.00
  -16    8   18    -12.55      0.00
  -14    8   18     -1.52      0.00
  -12    8   18      1.04      0.00
  -10    8   18      2.17      0.00
   -8    8   18      2.65      0.00
   -6    8   18     -4.74      0.00
   -4    8   18     -6.92      0.00
   -2    8   18      1.30      0.00
    0    8   18     12.82      0.00
    2    8   18      1.97      0.00
    4    8   18      0.73      0.00
    6    8   18     -1.13      0.00
    8    8   18      1.56      0.00
   10    8   18     -1.03      0.00
   12    8   18     -3.53      0.00
  -23    9   18      5.02      0.00
  -21    9   18      3.43      0.00
  -19    9   18     -6.56      0.00
  -17    9   18     -0.49      0.00
  -15    9   18     -4.39      0.00
  -13    9   18     -3.91      0.00
  -11    9   18      1.91      0.00
   -9    9   18     -1.65      0.00
   -7    9   18      0.16      0.00
   -5    9   18     -8.07      0.00
   -3    9   18      3.96      0.00
   -1    9   18     -4.85      0.00
    1    9   18     -2.27      0.00
    3    9   18      9.27      0.00
    5    9   18     -6.74      0.00
    7    9   18     -4.80      0.00
    9    9   18      4.09      0.00
  -20   10   18      0.44      0.00
  -18   10   18      0.92      0.00
  -16   10   18     -3.07      0.00
  -14   10   18      4.58      0.00
  -12   10   18     -5.49      0.00
  -10   10   18      7.82      0.00
   -8   10   18      0.13      0.00
   -6   10   18      2.64      0.00
   -4   10   18     -6.76      0.00
   -2   10   18      6.14      0.00
    0   10   18      7.63      0.00
    2   10   18     -7.63      0.00
    4   10   18     -0.27      0.00
    6   10   18      0.42      0.00
  -15   11   18      8.19      0.00
  -13   11   18      0.26      0.00
  -11   11   18     -2.20      0.00
   -9   11   18     -2.79      0.00
   -7   11   18      2.42      0.00
   -5   11   18     -4.00      0.00
   -3   11   18      1.86      0.00
   -1   11   18     -2.84      0.00
    1   11   18     -3.16      0.00
  -33    1   19      7.46      0.00
  -31    1   19      5.35      0.00
  -29    1   19     -0.69      0.00
  -27    1   19     -6.42      0.00
  -25    1   19      3.02      0.00
  -23    1   19      2.28      0.00
  -21    1   19      4.14      0.00
  -19    1   19     -8.93      0.00
  -17    1   19    -10.42      0.00
  -15    1   19      9.05      0.00
  -13    1   19      5.91      0.00
  -11    1   19     -0.57      0.00
   -9    1   19      9.38      0.00
   -7    1   19     -9.80      0.00
   -5    1   19     -8.17      0.00
   -3    1   19      4.82      0.00
   -1    1   19     -2.72      0.00
    1    1   19      6.87      0.00
    3    1   19     12.60      0.00
    5    1   19     -1.84      0.00
    7    1   19      1.50      0.00
    9    1   19     -2.19      0.00
   11    1   19      2.30      0.00
   13    1   19     -0.73      0.00
   15    1   19     13.83      0.00
   17    1   19      2.38      0.00
  -32    2   19      6.61      0.00
  -30    2   19     -0.46      0.00
  -28    2   19     -3.97      0.00
  -26    2   19      2.44      0.00
  -24    2   19     -1.63      0.00
  -22    2   19      0.20      0.00
  -20    2   19      1.68      0.00
  -18    2   19      2.20      0.00
  -16    2   19      7.62      0.00
  -14    2   19     -8.24      0.00
  -12    2   19     -0.32      0.00
  -10    2   19      3.17      0.00
   -8    2   19     -2.55      0.00
   -6    2   19      0.00      0.00
   -4    2   19      0.89      0.00
   -2    2   19      5.09      0.00
    0    2   19      3.17      0.00
    2    2   19     -6.21      0.00
    4    2   19      3.81      0.00
    6    2   19     -2.41      0.00
    8    2   19     -0.68      0.00
   10    2   19      4.97      0.00
   12    2   19     -0.37      0.00
   14    2   19     -2.83      0.00
   16    2   19     -5.62      0.00
  -33    3   19     -1.42      0.00
  -31    3   19     -4.72      0.00
  -29    3   19      6.46      0.00
  -27    3   19      8.46      0.00
  -25    3   19     -7.43      0.00
  -23    3   19      1.99      0.00
  -21    3   19     -1.15      0.00
  -19    3   19      4.64      0.00
  -17    3   19      2.43      0.00
  -15    3   19    -12.44      0.00
  -13    3   19     -7.59      0.00
  -11    3   19     -1.38      0.00
   -9    3   19      6.52      0.00
   -7    3   19     -4.37      0.00
   -5    3   19     -2.86      0.00
   -3    3   19      8.59      0.00
   -1    3   19      1.38      0.00
    1    3   19    -14.04      0.00
    3    3   19      8.22      0.00
    5    3   19      1.70      0.00
    7    3   19     -0.43      0.00
    9    3   19      1.45      0.00
   11    3   19      0.42      0.00
   13    3   19      2.12      0.00
   15    3   19     -3.01      0.00
   17    3   19     -5.27      0.00
  -32    4   19      4.08      0.00
  -30    4   19      3.18      0.00
  -28    4   19      2.01      0.00
  -26    4   19      1.97      0.00
  -24    4   19     -5.95      0.00
  -22    4   19      0.50      0.00
  -20    4   19     -5.30      0.00
  -18    4   19     -2.12      0.00
  -16    4   19      2.84      0.00
  -14    4   19     -4.72      0.00
  -12    4   19     -2.76      0.00
  -10    4   19     -1.95      0.00
   -8    4   19      1.97      0.00
   -6    4   19      3.17      0.00
   -4    4   19      0.60      0.00
   -2    4   19      0.18      0.00
    0    4   19    -10.14      0.00
    2    4   19      3.21      0.00
    4    4   19      5.73      0.00
    6    4   19     -2.53      0.00
    8    4   19     -3.80      0.00
   10    4   19      2.87      0.00
   12    4   19     -0.72      0.00
   14    4   19     -3.30      0.00
   16    4   19      2.50      0.00
  -31    5   19     -4.40      0.00
  -29    5   19      0.97      0.00
  -27    5   19     -6.87      0.00
  -25    5   19     -1.32      0.00
  -23    5   19     -5.14      0.00
  -21    5   19      1.65      0.00
  -19    5   19     -5.01      0.00
  -17    5   19      3.51      0.00
  -15    5   19      3.79      0.00
  -13    5   19      6.43      0.00
  -11    5   19     -2.90      0.00
   -9    5   19      4.82      0.00
   -7    5   19      6.51      0.00
   -5    5   19     -0.68      0.00
   -3    5   19     -5.34      0.00
   -1    5   19      8.04      0.00
    1    5   19      1.93      0.00
    3    5   19     -7.70      0.00
    5    5   19     -6.74      0.00
    7    5   19      1.48      0.00
    9    5   19     -1.48      0.00
   11    5   19     -3.79      0.00
   13    5   19      2.09      0.00
   15    5   19      6.97      0.00
  -30    6   19      5.78      0.00
  -28    6   19     -5.28      0.00
  -26    6   19      0.01      0.00
  -24    6   19      2.52      0.00
  -22    6   19     -1.05      0.00
  -20    6   19      3.25      0.00
  -18    6   19     -1.78      0.00
  -16    6   19      4.98      0.00
  -14    6   19      0.81      0.00
  -12    6   19     -4.70      0.00
  -10    6   19     -5.47      0.00
   -8    6   19      4.00      0.00
   -6    6   19     -0.80      0.00
   -4    6   19      2.79      0.00
   -2    6   19     -3.45      0.00
    0    6   19     -7.29      0.00
    2    6   19      0.43      0.00
    4    6   19      8.40      0.00
    6    6   19      1.26      0.00
    8    6   19      3.97      0.00
   10    6   19     -3.37      0.00
   12    6   19     -4.08      0.00
   14    6   19     -2.85      0.00
  -27    7   19     -0.29      0.00
  -25    7   19      6.29      0.00
  -23    7   19      2.34      0.00
  -21    7   19     -3.51      0.00
  -19    7   19     -2.91      0.00
  -17    7   19      1.74      0.00
  -15    7   19      4.13      0.00
  -13    7   19     -2.13      0.00
  -11    7   19      1.85      0.00
   -9    7   19     -1.70      0.00
   -7    7   19      2.99      0.00
   -5    7   19     -1.42      0.00
   -3    7   19     -3.66      0.00
   -1    7   19     -8.24      0.00
    1    7   19      1.55      0.00
    3    7   19     -2.70      0.00
    5    7   19      2.10      0.00
    7    7   19     -2.09      0.00
    9    7   19      7.29      0.00
   11    7   19      1.58      0.00
   13    7   19      3.31      0.00
  -26    8   19      0.52      0.00
  -24    8   19     -5.23      0.00
  -22    8   19      7.02      0.00
  -20    8   19      2.57      0.00
  -18    8   19     -0.75      0.00
  -16    8   19      4.87      0.00
  -14    8   19     -3.33      0.00
  -12    8   19      6.38      0.00
  -10    8   19     -3.36      0.00
   -8    8   19     -0.37      0.00
   -6    8   19      2.41      0.00
   -4    8   19     -6.63      0.00
   -2    8   19      8.81      0.00
    0    8   19      1.81      0.00
    2    8   19     -2.14      0.00
    4    8   19     -1.26      0.00
    6    8   19     -0.17      0.00
    8    8   19     -7.98      0.00
   10    8   19     -1.19      0.00
  -23    9   19      0.86      0.00
  -21    9   19      0.48      0.00
  -19    9   19     -5.89      0.00
  -17    9   19     -2.36      0.00
  -15    9   19     -1.46      0.00
  -13    9   19     11.07      0.00
  -11    9   19     -2.61      0.00
   -9    9   19     -2.18      0.00
   -7    9   19     -8.23      0.00
   -5    9   19      1.44      0.00
   -3    9   19     -9.31      0.00
   -1    9   19     11.55      0.00
    1    9   19      3.49      0.00
    3    9   19     -5.53      0.00
    5    9   19      1.22      0.00
    7    9   19     -0.28      0.00
  -20   10   19     -4.67      0.00
  -18   10   19     -0.50      0.00
  -16   10   19     -7.89      0.00
  -14   10   19     -5.79      0.00
  -12   10   19     13.99      0.00
  -10   10   19      3.12      0.00
   -8   10   19     -0.38      0.00
   -6   10   19     -4.53      0.00
   -4   10   19      2.78      0.00
   -2   10   19      2.71      0.00
    0   10   19      1.09      0.00
    2   10   19      7.82      0.00
    4   10   19     -9.19      0.00
  -13   11   19     -6.81      0.00
  -11   11   19      8.05      0.00
   -9   11   19     -2.32      0.00
   -7   11   19      2.00      0.00
   -5   11   19     -2.45      0.00
   -3   11   19      5.86      0.00
  -32    0   20     -3.31      0.00
  -30    0   20      5.40      0.00
  -28    0   20      0.17      0.00
  -26    0   20     -2.44      0.00
  -24    0   20     -2.13      0.00
  -22    0   20     -1.05      0.00
  -20    0   20      7.94      0.00
  -18    0   20      2.17      0.00
  -16    0   20    -17.29      0.00
  -14    0   20      1.47      0.00
  -12    0   20     -4.11      0.00
  -10    0   20    -14.67      0.00
   -8    0   20     21.16      0.00
   -6    0   20      0.73      0.00
   -4    0   20     -6.10      0.00
   -2    0   20      5.38      0.00
    0    0   20    -17.58      0.00
    2    0   20    -10.78      0.00
    4    0   20      6.34      0.00
    6    0   20     -5.25      0.00
    8    0   20      3.94      0.00
   10    0   20     -3.26      0.00
   12    0   20      0.46      0.00
   14    0   20    -12.80      0.00
  -33    1   20     -5.42      0.00
  -31    1   20      3.48      0.00
  -29    1   20      5.27      0.00
  -27    1   20     -2.87      0.00
  -25    1   20     -0.17      0.00
  -23    1   20      3.91      0.00
  -21    1   20      1.51      0.00
  -19    1   20     -3.48      0.00
  -17    1   20     -1.02      0.00
  -15    1   20      1.10      0.00
  -13    1   20      0.01      0.00
  -11    1   20     -2.37      0.00
   -9    1   20      5.64      0.00
   -7    1   20      1.68      0.00
   -5    1   20     -9.98      0.00
   -3    1   20      4.57      0.00
   -1    1   20     -1.20      0.00
    1    1   20     -6.75      0.00
    3    1   20      0.76      0.00
    5    1   20      5.32      0.00
    7    1   20     -1.09      0.00
    9    1   20     -3.11      0.00
   11    1   20     -4.83      0.00
   13    1   20      9.87      0.00
   15    1   20      4.56      0.00
  -32    2   20      8.14      0.00
  -30    2   20     -7.23      0.00
  -28    2   20     -2.64      0.00
  -26    2   20      4.09      0.00
  -24    2   20      0.44      0.00
  -22    2   20      4.99      0.00
  -20    2   20     -0.99      0.00
  -18    2   20     -3.52      0.00
  -16    2   20     11.00      0.00
  -14    2   20      5.37      0.00
  -12    2   20     -1.75      0.00
  -10    2   20     -2.04      0.00
   -8    2   20      0.90      0.00
   -6    2   20     -4.73      0.00
   -4    2   20     -1.35      0.00
   -2    2   20     10.90      0.00
    0    2   20      0.94      0.00
    2    2   20      2.50      0.00
    4    2   20      0.46      0.00
    6    2   20     -4.16      0.00
    8    2   20     -0.27      0.00
   10    2   20      2.90      0.00
   12    2   20      6.37      0.00
   14    2   20      4.25      0.00
   16    2   20     -2.23      0.00
  -33    3   20      3.84      0.00
  -31    3   20     -3.48      0.00
  -29    3   20      2.00      0.00
  -27    3   20     -0.71      0.00
  -25    3   20      2.92      0.00
  -23    3   20     -3.84      0.00
  -21    3   20      2.80      0.00
  -19    3   20      4.55      0.00
  -17    3   20     -6.68      0.00
  -15    3   20      2.17      0.00
  -13    3   20     -0.65      0.00
  -11    3   20      0.66      0.00
   -9    3   20     -3.89      0.00
   -7    3   20      5.69      0.00
   -5    3   20     -1.36      0.00
   -3    3   20      0.36      0.00
   -1    3   20      8.50      0.00
    1    3   20    -11.23      0.00
    3    3   20      5.96      0.00
    5    3   20     -0.93      0.00
    7    3   20      1.08      0.00
    9    3   20      0.62      0.00
   11    3   20     -7.56      0.00
   13    3   20      5.60      0.00
   15    3   20     -4.94      0.00
  -32    4   20     -1.81      0.00
  -30    4   20      1.27      0.00
  -28    4   20      8.52      0.00
  -26    4   20     -6.72      0.00
  -24    4   20      3.45      0.00
  -22    4   20     -2.64      0.00
  -20    4   20      3.27      0.00
  -18    4   20     -1.93      0.00
  -16    4   20     -8.97      0.00
  -14    4   20     -5.62      0.00
  -12    4   20      0.49      0.00
  -10    4   20     -1.19      0.00
   -8    4   20     -7.71      0.00
   -6    4   20     -0.71      0.00
   -4    4   20      3.18      0.00
   -2    4   20      2.27      0.00
    0    4   20     -1.68      0.00
    2    4   20     14.14      0.00
    4    4   20      2.43      0.00
    6    4   20     -1.81      0.00
    8    4   20     -0.04      0.00
   10    4   20      1.02      0.00
   12    4   20     -4.48      0.00
   14    4   20     -1.83      0.00
   16    4   20      4.21      0.00
  -31    5   20      3.94      0.00
  -29    5   20      4.21      0.00
  -27    5   20     -3.09      0.00
  -25    5   20     -0.25      0.00
  -23    5   20      0.57      0.00
  -21    5   20     -2.78      0.00
  -19    5   20     -1.32      0.00
  -17    5   20     -2.85      0.00
  -15    5   20     -3.14      0.00
  -13    5   20      2.58      0.00
  -11    5   20      2.52      0.00
   -9    5   20     -1.46      0.00
   -7    5   20      3.96      0.00
   -5    5   20     -0.07      0.00
   -3    5   20      2.29      0.00
   -1    5   20     -5.30      0.00
    1    5   20     -1.85      0.00
    3    5   20     -2.95      0.00
    5    5   20     -0.16      0.00
    7    5   20     -3.68      0.00
    9    5   20      0.56      0.00
   11    5   20      6.13      0.00
   13    5   20     -1.36      0.00
   15    5   20      0.45      0.00
  -28    6   20     -4.66      0.00
  -26    6   20     -4.70      0.00
  -24    6   20     -3.78      0.00
  -22    6   20      7.72      0.00
  -20    6   20      1.25      0.00
  -18    6   20      1.04      0.00
  -16    6   20      2.04      0.00
  -14    6   20     -0.38      0.00
  -12    6   20      7.33      0.00
  -10    6   20      2.01      0.00
   -8    6   20      0.81      0.00
   -6    6   20     -5.17      0.00
   -4    6   20      1.43      0.00
   -2    6   20     11.03      0.00
    0    6   20     -0.54      0.00
    2    6   20     -4.89      0.00
    4    6   20     -3.52      0.00
    6    6   20     -0.46      0.00
    8    6   20     -3.20      0.00
   10    6   20      1.39      0.00
   12    6   20      0.11      0.00
  -27    7   20      0.20      0.00
  -25    7   20     -1.40      0.00
  -23    7   20     -5.89      0.00
  -21    7   20      0.79      0.00
  -19    7   20      3.08      0.00
  -17    7   20     -2.20      0.00
  -15    7   20      5.72      0.00
  -13    7   20     -7.73      0.00
  -11    7   20      2.90      0.00
   -9    7   20      6.62      0.00
   -7    7   20     -0.21      0.00
   -5    7   20     -1.46      0.00
   -3    7   20     -6.02      0.00
   -1    7   20     -8.72      0.00
    1    7   20      8.55      0.00
    3    7   20      1.72      0.00
    5    7   20      0.94      0.00
    7    7   20      0.88      0.00
    9    7   20     -4.59      0.00
   11    7   20     -0.07      0.00
  -26    8   20      2.65      0.00
  -24    8   20     -3.40      0.00
  -22    8   20      4.27      0.00
  -20    8   20     -0.44      0.00
  -18    8   20      0.55      0.00
  -16    8   20     -2.70      0.00
  -14    8   20     -6.81      0.00
  -12    8   20      1.86      0.00
  -10    8   20      4.77      0.00
   -8    8   20      3.60      0.00
   -6    8   20     -3.11      0.00
   -4    8   20      1.21      0.00
   -2    8   20     -7.25      0.00
    0    8   20      0.74      0.00
    2    8   20      1.44      0.00
    4    8   20     -3.00      0.00
    6    8   20      2.92      0.00
    8    8   20      0.69      0.00
   10    8   20     -6.43      0.00
  -23    9   20      2.06      0.00
  -21    9   20      3.26      0.00
  -19    9   20      1.00      0.00
  -17    9   20      3.77      0.00
  -15    9   20      5.33      0.00
  -13    9   20    -14.31      0.00
  -11    9   20     -7.56      0.00
   -9    9   20      5.88      0.00
   -7    9   20      2.29      0.00
   -5    9   20     -8.42      0.00
   -3    9   20      7.70      0.00
   -1    9   20     -4.71      0.00
    1    9   20     -3.99      0.00
    3    9   20      4.50      0.00
    5    9   20     -4.26      0.00
    7    9   20     -3.21      0.00
  -18   10   20      0.10      0.00
  -16   10   20      2.13      0.00
  -14   10   20      4.99      0.00
  -12   10   20     -5.96      0.00
  -10   10   20      1.08      0.00
   -8   10   20     -6.86      0.00
   -6   10   20      2.86      0.00
   -4   10   20     -5.42      0.00
   -2   10   20      6.29      0.00
    0   10   20      3.92      0.00
    2   10   20      0.92      0.00
  -11   11   20     -0.25      0.00
   -9   11   20     -1.75      0.00
   -7   11   20     -3.74      0.00
   -5   11   20      6.06      0.00
  -33    1   21     -2.77      0.00
  -31    1   21      6.75      0.00
  -29    1   21     -3.07      0.00
  -27    1   21     -1.21      0.00
  -25    1   21     -2.97      0.00
  -23    1   21     -1.28      0.00
  -21    1   21      1.22      0.00
  -19    1   21     -0.61      0.00
  -17    1   21     -5.22      0.00
  -15    1   21     -3.21      0.00
  -13    1   21     -1.40      0.00
  -11    1   21     -7.03      0.00
   -9    1   21      9.01      0.00
   -7    1   21      0.34      0.00
   -5    1   21     -3.45      0.00
   -3    1   21     -1.85      0.00
   -1    1   21    -11.03      0.00
    1    1   21     -7.33      0.00
    3    1   21     10.25      0.00
    5    1   21     -0.59      0.00
    7    1   21      2.14      0.00
    9    1   21     -1.22      0.00
   11    1   21     -7.74      0.00
   13    1   21     -2.53      0.00
   15    1   21      7.34      0.00
  -32    2   21      1.56      0.00
  -30    2   21      5.30      0.00
  -28    2   21     -4.50      0.00
  -26    2   21      4.15      0.00
  -24    2   21      5.14      0.00
  -22    2   21      4.39      0.00
  -20    2   21     -6.80      0.00
  -18    2   21      2.86      0.00
  -16    2   21      0.72      0.00
  -14    2   21      1.14      0.00
  -12    2   21      0.63      0.00
  -10    2   21      8.88      0.00
   -8    2   21    -10.77      0.00
   -6    2   21     -5.11      0.00
   -4    2   21     -1.35      0.00
   -2    2   21      2.63      0.00
    0    2   21     -1.04      0.00
    2    2   21     -1.07      0.00
    4    2   21      3.40      0.00
    6    2   21     -2.77      0.00
    8    2   21     -1.67      0.00
   10    2   21      0.21      0.00
   12    2   21      3.45      0.00
   14    2   21      7.97      0.00
   16    2   21     -2.55      0.00
  -31    3   21     -6.96      0.00
  -29    3   21      1.77      0.00
  -27    3   21      3.84      0.00
  -25    3   21     -0.96      0.00
  -23    3   21      7.63      0.00
  -21    3   21     -1.63      0.00
  -19    3   21     -4.21      0.00
  -17    3   21      5.53      0.00
  -15    3   21     -4.57      0.00
  -13    3   21      3.23      0.00
  -11    3   21      3.65      0.00
   -9    3   21      3.62      0.00
   -7    3   21      1.17      0.00
   -5    3   21      1.88      0.00
   -3    3   21     -0.60      0.00
   -1    3   21     -8.28      0.00
    1    3   21     -8.26      0.00
    3    3   21      8.21      0.00
    5    3   21     -4.27      0.00
    7    3   21     -1.13      0.00
    9    3   21      9.07      0.00
   11    3   21     -0.10      0.00
   13    3   21     -7.04      0.00
   15    3   21     -3.17      0.00
  -32    4   21     -3.52      0.00
  -30    4   21      1.20      0.00
  -28    4   21     -0.20      0.00
  -26    4   21     -8.64      0.00
  -24    4   21     -0.08      0.00
  -22    4   21     -2.32      0.00
  -20    4   21      4.01      0.00
  -18    4   21     -2.78      0.00
  -16    4   21      4.35      0.00
  -14    4   21     -5.40      0.00
  -12    4   21     -1.21      0.00
  -10    4   21      0.60      0.00
   -8    4   21      0.99      0.00
   -6    4   21     -3.91      0.00
   -4    4   21      0.69      0.00
   -2    4   21      7.84      0.00
    0    4   21     -0.66      0.00
    2    4   21      2.95      0.00
    4    4   21     -1.42      0.00
    6    4   21      5.72      0.00
    8    4   21     -5.77      0.00
   10    4   21     -4.61      0.00
   12    4   21      5.53      0.00
   14    4   21      4.18      0.00
  -31    5   21     -3.65      0.00
  -29    5   21      4.34      0.00
  -27    5   21      1.00      0.00
  -25    5   21     -0.99      0.00
  -23    5   21     -7.62      0.00
  -21    5   21      3.44      0.00
  -19    5   21     -3.58      0.00
  -17    5   21     -0.34      0.00
  -15    5   21    -13.99      0.00
  -13    5   21     -0.26      0.00
  -11    5   21      2.07      0.00
   -9    5   21      4.59      0.00
   -7    5   21      3.74      0.00
   -5    5   21     -3.05      0.00
   -3    5   21     -1.99      0.00
   -1    5   21      2.14      0.00
    1    5   21      4.63      0.00
    3    5   21      5.62      0.00
    5    5   21     -2.79      0.00
    7    5   21     -2.17      0.00
    9    5   21      3.84      0.00
   11    5   21     -6.58      0.00
   13    5   21     -0.84      0.00
  -28    6   21     -3.24      0.00
  -26    6   21      6.07      0.00
  -24    6   21     -1.95      0.00
  -22    6   21     -0.93      0.00
  -20    6   21     -4.87      0.00
  -18    6   21     -2.97      0.00
  -16    6   21     -3.87      0.00
  -14    6   21      4.32      0.00
  -12    6   21     -0.56      0.00
  -10    6   21     -1.68      0.00
   -8    6   21      2.13      0.00
   -6    6   21      0.15      0.00
   -4    6   21      2.77      0.00
   -2    6   21      1.52      0.00
    0    6   21     -5.24      0.00
    2    6   21     -1.54      0.00
    4    6   21      5.19      0.00
    6    6   21     -0.63      0.00
    8    6   21     -2.24      0.00
   10    6   21     -2.17      0.00
   12    6   21      6.03      0.00
  -27    7   21      2.46      0.00
  -25    7   21     -2.78      0.00
  -23    7   21      6.78      0.00
  -21    7   21     -1.54      0.00
  -19    7   21      5.32      0.00
  -17    7   21     -0.74      0.00
  -15    7   21      1.22      0.00
  -13    7   21      4.31      0.00
  -11    7   21     -4.25      0.00
   -9    7   21     -2.35      0.00
   -7    7   21      1.88      0.00
   -5    7   21      0.02      0.00
   -3    7   21      5.08      0.00
   -1    7   21      0.97      0.00
    1    7   21      1.81      0.00
    3    7   21      0.25      0.00
    5    7   21     -7.85      0.00
    7    7   21      6.27      0.00
    9    7   21      6.43      0.00
  -24    8   21     -4.41      0.00
  -22    8   21      1.49      0.00
  -20    8   21     -1.85      0.00
  -18    8   21      3.68      0.00
  -16    8   21      4.63      0.00
  -14    8   21      1.67      0.00
  -12    8   21      9.97      0.00
  -10    8   21     -3.43      0.00
   -8    8   21     -1.03      0.00
   -6    8   21     -3.23      0.00
   -4    8   21     -6.52      0.00
   -2    8   21      3.60      0.00
    0    8   21      0.15      0.00
    2    8   21     -3.97      0.00
    4    8   21      2.24      0.00
    6    8   21     -2.69      0.00
    8    8   21      2.44      0.00
  -21    9   21     -1.34      0.00
  -19    9   21     -8.08      0.00
  -17    9   21     -2.45      0.00
  -15    9   21     -3.53      0.00
  -13    9   21      7.28      0.00
  -11    9   21     -0.15      0.00
   -9    9   21      3.13      0.00
   -7    9   21     -7.16      0.00
   -5    9   21      6.53      0.00
   -3    9   21     -9.46      0.00
   -1    9   21     -0.38      0.00
    1    9   21     -1.50      0.00
    3    9   21     -8.09      0.00
    5    9   21      8.67      0.00
  -18   10   21      5.67      0.00
  -16   10   21     -0.47      0.00
  -14   10   21     -7.46      0.00
  -12   10   21      2.63      0.00
  -10   10   21      3.46      0.00
   -8   10   21     -2.39      0.00
   -6   10   21    -11.59      0.00
   -4   10   21      1.09      0.00
   -2   10   21      2.10      0.00
    0   10   21      2.92      0.00
  -32    0   22     -2.81      0.00
  -30    0   22      4.39      0.00
  -28    0   22      1.04      0.00
  -26    0   22     -0.34      0.00
  -24    0   22     -0.46      0.00
  -22    0   22     -2.44      0.00
  -20    0   22      0.61      0.00
  -18    0   22      7.48      0.00
  -16    0   22     -4.18      0.00
  -14    0   22      9.74      0.00
  -12    0   22      3.46      0.00
  -10    0   22     -7.03      0.00
   -8    0   22      3.94      0.00
   -6    0   22    -14.13      0.00
   -4    0   22      5.76      0.00
   -2    0   22     21.10      0.00
    0    0   22     -5.01      0.00
    2    0   22    -12.07      0.00
    4    0   22      0.53      0.00
    6    0   22     -3.30      0.00
    8    0   22      5.13      0.00
   10    0   22      8.10      0.00
   12    0   22      7.31      0.00
  -33    1   22     -4.00      0.00
  -31    1   22     -2.28      0.00
  -29    1   22      2.42      0.00
  -27    1   22     -0.60      0.00
  -25    1   22     -1.27      0.00
  -23    1   22     -2.13      0.00
  -21    1   22      5.82      0.00
  -19    1   22     -1.93      0.00
  -17    1   22     -0.42      0.00
  -15    1   22     -2.40      0.00
  -13    1   22      0.06      0.00
  -11    1   22     -6.62      0.00
   -9    1   22     11.37      0.00
   -7    1   22      3.49      0.00
   -5    1   22     -1.89      0.00
   -3    1   22      3.84      0.00
   -1    1   22     -9.56      0.00
    1    1   22      5.80      0.00
    3    1   22      3.85      0.00
    5    1   22      0.45      0.00
    7    1   22     -0.49      0.00
    9    1   22      3.73      0.00
   11    1   22     -7.35      0.00
   13    1   22     -3.32      0.00
   15    1   22      2.56      0.00
  -32    2   22      7.74      0.00
  -30    2   22     -4.14      0.00
  -28    2   22     -2.59      0.00
  -26    2   22     -3.11      0.00
  -24    2   22     -2.71      0.00
  -22    2   22      3.87      0.00
  -20    2   22      4.36      0.00
  -18    2   22      0.60      0.00
  -16    2   22     -4.35      0.00
  -14    2   22     -6.41      0.00
  -12    2   22     -7.23      0.00
  -10    2   22      3.09      0.00
   -8    2   22     -1.57      0.00
   -6    2   22     -6.27      0.00
   -4    2   22      3.28      0.00
   -2    2   22      4.83      0.00
    0    2   22     -5.35      0.00
    2    2   22      3.07      0.00
    4    2   22      2.62      0.00
    6    2   22     -0.75      0.00
    8    2   22     -5.14      0.00
   10    2   22     -4.00      0.00
   12    2   22     13.97      0.00
   14    2   22     -4.73      0.00
  -31    3   22     -0.43      0.00
  -29    3   22      8.74      0.00
  -27    3   22      8.84      0.00
  -25    3   22      4.89      0.00
  -23    3   22      2.13      0.00
  -21    3   22    -11.57      0.00
  -19    3   22      3.08      0.00
  -17    3   22     -0.85      0.00
  -15    3   22      8.98      0.00
  -13    3   22     -1.98      0.00
  -11    3   22      2.48      0.00
   -9    3   22     -6.32      0.00
   -7    3   22     -0.81      0.00
   -5    3   22      1.68      0.00
   -3    3   22      3.11      0.00
   -1    3   22     -3.89      0.00
    1    3   22     -2.37      0.00
    3    3   22      1.37      0.00
    5    3   22     -7.11      0.00
    7    3   22      3.21      0.00
    9    3   22      0.79      0.00
   11    3   22     -3.24      0.00
   13    3   22      5.11      0.00
  -30    4   22     -0.56      0.00
  -28    4   22     -2.16      0.00
  -26    4   22      4.52      0.00
  -24    4   22      1.21      0.00
  -22    4   22     -0.03      0.00
  -20    4   22     -6.30      0.00
  -18    4   22      0.45      0.00
  -16    4   22      6.73      0.00
  -14    4   22     -1.62      0.00
  -12    4   22     -0.24      0.00
  -10    4   22     -2.88      0.00
   -8    4   22      0.19      0.00
   -6    4   22      1.19      0.00
   -4    4   22     -7.03      0.00
   -2    4   22     -3.70      0.00
    0    4   22     -7.36      0.00
    2    4   22      5.30      0.00
    4    4   22     -1.53      0.00
    6    4   22     -0.92      0.00
    8    4   22      0.32      0.00
   10    4   22     -1.92      0.00
   12    4   22     -4.28      0.00
   14    4   22     -1.18      0.00
  -29    5   22     -3.17      0.00
  -27    5   22     -7.59      0.00
  -25    5   22      7.67      0.00
  -23    5   22      0.81      0.00
  -21    5   22      4.13      0.00
  -19    5   22     -1.23      0.00
  -17    5   22      4.82      0.00
  -15    5   22     -6.54      0.00
  -13    5   22      2.59      0.00
  -11    5   22     -2.84      0.00
   -9    5   22      0.44      0.00
   -7    5   22     -1.30      0.00
   -5    5   22      0.87      0.00
   -3    5   22      4.38      0.00
   -1    5   22      1.32      0.00
    1    5   22      0.79      0.00
    3    5   22     -3.76      0.00
    5    5   22      5.48      0.00
    7    5   22     -0.57      0.00
    9    5   22     -1.42      0.00
   11    5   22     -0.22      0.00
  -28    6   22     -1.30      0.00
  -26    6   22      1.10      0.00
  -24    6   22     -8.59      0.00
  -22    6   22      5.17      0.00
  -20    6   22     -1.45      0.00
  -18    6   22     -5.66      0.00
  -16    6   22     -4.39      0.00
  -14    6   22     -0.88      0.00
  -12    6   22     17.64      0.00
  -10    6   22      4.43      0.00
   -8    6   22     -4.08      0.00
   -6    6   22     -6.43      0.00
   -4    6   22     -0.31      0.00
   -2    6   22     -6.12      0.00
    0    6   22      3.73      0.00
    2    6   22      0.29      0.00
    4    6   22      5.40      0.00
    6    6   22     -7.44      0.00
    8    6   22      0.14      0.00
   10    6   22      7.38      0.00
  -27    7   22     -0.30      0.00
  -25    7   22     -1.49      0.00
  -23    7   22      2.24      0.00
  -21    7   22     -2.00      0.00
  -19    7   22     -9.42      0.00
  -17    7   22     -2.94      0.00
  -15    7   22      3.94      0.00
  -13    7   22     -1.05      0.00
  -11    7   22     -0.73      0.00
   -9    7   22      6.20      0.00
   -7    7   22      0.72      0.00
   -5    7   22      1.10      0.00
   -3    7   22      3.52      0.00
   -1    7   22     -1.30      0.00
    1    7   22      4.48      0.00
    3    7   22      2.00      0.00
    5    7   22     -2.07      0.00
    7    7   22     -8.75      0.00
    9    7   22     -4.39      0.00
  -24    8   22     -3.74      0.00
  -22    8   22      1.90      0.00
  -20    8   22      5.55      0.00
  -18    8   22     -2.06      0.00
  -16    8   22     -0.91      0.00
  -14    8   22     -3.44      0.00
  -12    8   22      5.05      0.00
  -10    8   22      5.24      0.00
   -8    8   22     -2.50      0.00
   -6    8   22     -7.38      0.00
   -4    8   22      6.40      0.00
   -2    8   22      2.09      0.00
    0    8   22     12.67      0.00
    2    8   22     -0.21      0.00
    4    8   22    -13.73      0.00
    6    8   22     11.44      0.00
  -21    9   22     -3.06      0.00
  -19    9   22      3.04      0.00
  -17    9   22     -3.43      0.00
  -15    9   22      2.76      0.00
  -13    9   22      0.50      0.00
  -11    9   22      2.39      0.00
   -9    9   22      3.17      0.00
   -7    9   22      1.54      0.00
   -5    9   22     -3.17      0.00
   -3    9   22     -0.23      0.00
   -1    9   22     -4.65      0.00
    1    9   22     -0.17      0.00
    3    9   22      4.07      0.00
  -16   10   22      6.90      0.00
  -14   10   22     -7.23      0.00
  -12   10   22     -3.19      0.00
  -10   10   22      3.33      0.00
   -8   10   22     -9.81      0.00
   -6   10   22      1.08      0.00
   -4   10   22     -7.36      0.00
   -2   10   22     -0.78      0.00
  -33    1   23     -3.87      0.00
  -31    1   23      5.75      0.00
  -29    1   23      4.03      0.00
  -27    1   23      1.31      0.00
  -25    1   23     -5.31      0.00
  -23    1   23     -1.10      0.00
  -21    1   23      2.70      0.00
  -19    1   23      1.45      0.00
  -17    1   23      3.55      0.00
  -15    1   23      5.31      0.00
  -13    1   23      0.72      0.00
  -11    1   23     -0.96      0.00
   -9    1   23     -3.28      0.00
   -7    1   23     -4.70      0.00
   -5    1   23      2.06      0.00
   -3    1   23     14.31      0.00
   -1    1   23     -7.20      0.00
    1    1   23     -4.64      0.00
    3    1   23     -2.14      0.00
    5    1   23     -0.14      0.00
    7    1   23      7.16      0.00
    9    1   23      5.88      0.00
   11    1   23     -7.25      0.00
   13    1   23      1.07      0.00
  -32    2   23     -3.81      0.00
  -30    2   23     -0.59      0.00
  -28    2   23     -6.07      0.00
  -26    2   23      4.53      0.00
  -24    2   23      2.47      0.00
  -22    2   23      7.17      0.00
  -20    2   23     -3.29      0.00
  -18    2   23     -1.64      0.00
  -16    2   23    -11.41      0.00
  -14    2   23      6.63      0.00
  -12    2   23     -2.03      0.00
  -10    2   23      7.91      0.00
   -8    2   23      0.57      0.00
   -6    2   23     -1.20      0.00
   -4    2   23     -3.69      0.00
   -2    2   23     -0.39      0.00
    0    2   23      5.26      0.00
    2    2   23     10.30      0.00
    4    2   23      1.89      0.00
    6    2   23     -5.43      0.00
    8    2   23      3.33      0.00
   10    2   23    -10.00      0.00
   12    2   23     -1.29      0.00
   14    2   23      2.14      0.00
  -31    3   23     -3.26      0.00
  -29    3   23      2.16      0.00
  -27    3   23     -9.49      0.00
  -25    3   23      1.95      0.00
  -23    3   23     -0.26      0.00
  -21    3   23     10.22      0.00
  -19    3   23     -3.13      0.00
  -17    3   23     -5.02      0.00
  -15    3   23     -8.05      0.00
  -13    3   23     -2.15      0.00
  -11    3   23      4.98      0.00
   -9    3   23     -3.64      0.00
   -7    3   23     -0.46      0.00
   -5    3   23      6.76      0.00
   -3    3   23      5.97      0.00
   -1    3   23      3.63      0.00
    1    3   23     -7.05      0.00
    3    3   23      3.36      0.00
    5    3   23      1.33      0.00
    7    3   23      0.11      0.00
    9    3   23      9.07      0.00
   11    3   23      0.16      0.00
   13    3   23     -3.84      0.00
  -30    4   23      8.67      0.00
  -28    4   23      8.28      0.00
  -26    4   23    -12.55      0.00
  -24    4   23      0.75      0.00
  -22    4   23     -9.52      0.00
  -20    4   23      3.01      0.00
  -18    4   23      4.68      0.00
  -16    4   23     -0.07      0.00
  -14    4   23      1.30      0.00
  -12    4   23      2.14      0.00
  -10    4   23      1.54      0.00
   -8    4   23      3.20      0.00
   -6    4   23     -1.12      0.00
   -4    4   23      2.27      0.00
   -2    4   23     -6.23      0.00
    0    4   23     -2.30      0.00
    2    4   23      3.58      0.00
    4    4   23     -6.37      0.00
    6    4   23      3.41      0.00
    8    4   23     -1.07      0.00
   10    4   23     -2.73      0.00
   12    4   23      1.82      0.00
  -29    5   23     -6.34      0.00
  -27    5   23      3.24      0.00
  -25    5   23     -0.56      0.00
  -23    5   23     -4.95      0.00
  -21    5   23      1.86      0.00
  -19    5   23      3.86      0.00
  -17    5   23      4.12      0.00
  -15    5   23    -13.65      0.00
  -13    5   23    -10.54      0.00
  -11    5   23      2.48      0.00
   -9    5   23      1.81      0.00
   -7    5   23      4.45      0.00
   -5    5   23     -4.70      0.00
   -3    5   23      0.15      0.00
   -1    5   23     -3.88      0.00
    1    5   23     -1.37      0.00
    3    5   23     -1.96      0.00
    5    5   23     -0.27      0.00
    7    5   23     -3.79      0.00
    9    5   23     -0.09      0.00
   11    5   23     -2.01      0.00
  -28    6   23      5.24      0.00
  -26    6   23      3.58      0.00
  -24    6   23     -4.13      0.00
  -22    6   23     -3.92      0.00
  -20    6   23      5.85      0.00
  -18    6   23      4.21      0.00
  -16    6   23     -8.54      0.00
  -14    6   23      3.78      0.00
  -12    6   23     -3.03      0.00
  -10    6   23     -2.73      0.00
   -8    6   23      4.96      0.00
   -6    6   23     -2.00      0.00
   -4    6   23     -2.91      0.00
   -2    6   23      0.79      0.00
    0    6   23     -1.40      0.00
    2    6   23      1.94      0.00
    4    6   23      5.47      0.00
    6    6   23      3.40      0.00
    8    6   23      1.02      0.00
   10    6   23     -8.57      0.00
  -27    7   23      4.51      0.00
  -25    7   23     -7.10      0.00
  -23    7   23     11.90      0.00
  -21    7   23     -4.27      0.00
  -19    7   23     -1.34      0.00
  -17    7   23      1.91      0.00
  -15    7   23     -2.50      0.00
  -13    7   23      4.95      0.00
  -11    7   23     -1.17      0.00
   -9    7   23     -0.99      0.00
   -7    7   23     -2.24      0.00
   -5    7   23     -1.18      0.00
   -3    7   23     -8.06      0.00
   -1    7   23     -7.75      0.00
    1    7   23      1.89      0.00
    3    7   23     14.19      0.00
    5    7   23    -13.55      0.00
    7    7   23      9.06      0.00
  -24    8   23      0.69      0.00
  -22    8   23     -1.41      0.00
  -20    8   23     -5.29      0.00
  -18    8   23      7.04      0.00
  -16    8   23      2.52      0.00
  -14    8   23     -2.78      0.00
  -12    8   23     -1.23      0.00
  -10    8   23      0.68      0.00
   -8    8   23      1.27      0.00
   -6    8   23      0.51      0.00
   -4    8   23     -1.06      0.00
   -2    8   23      1.24      0.00
    0    8   23      0.32      0.00
    2    8   23     -3.40      0.00
    4    8   23     -3.66      0.00
    6    8   23     -6.86      0.00
  -21    9   23      1.49      0.00
  -19    9   23     -2.31      0.00
  -17    9   23     -5.62      0.00
  -15    9   23      9.01      0.00
  -13    9   23      9.67      0.00
  -11    9   23      2.03      0.00
   -9    9   23     -3.07      0.00
   -7    9   23     -5.23      0.00
   -5    9   23     11.92      0.00
   -3    9   23      4.91      0.00
   -1    9   23      7.16      0.00
    1    9   23     -2.96      0.00
  -14   10   23      3.17      0.00
  -12   10   23      7.01      0.00
  -10   10   23      7.54      0.00
   -8   10   23      0.70      0.00
   -6   10   23     -6.94      0.00
   -4   10   23     -4.77      0.00
  -32    0   24     -2.57      0.00
  -30    0   24     -8.18      0.00
  -28    0   24      8.11      0.00
  -26    0   24      1.38      0.00
  -24    0   24      0.20      0.00
  -22    0   24     -7.72      0.00
  -20    0   24      4.45      0.00
  -18    0   24      4.78      0.00
  -16    0   24     -9.14      0.00
  -14    0   24      7.54      0.00
  -12    0   24     -4.01      0.00
  -10    0   24      6.59      0.00
   -8    0   24      1.26      0.00
   -6    0   24    -12.12      0.00
   -4    0   24     -2.48      0.00
   -2    0   24      6.04      0.00
    0    0   24     -0.98      0.00
    2    0   24      6.48      0.00
    4    0   24     -0.32      0.00
    6    0   24    -12.02      0.00
    8    0   24      2.88      0.00
   10    0   24     11.97      0.00
  -33    1   24      1.42      0.00
  -31    1   24     -1.57      0.00
  -29    1   24     -3.52      0.00
  -27    1   24     -3.35      0.00
  -25    1   24     -0.30      0.00
  -23    1   24      2.14      0.00
  -21    1   24      0.55      0.00
  -19    1   24      3.11      0.00
  -17    1   24     -1.55      0.00
  -15    1   24     -1.05      0.00
  -13    1   24     -5.06      0.00
  -11    1   24     -3.98      0.00
   -9    1   24      3.30      0.00
   -7    1   24     -3.97      0.00
   -5    1   24     -0.28      0.00
   -3    1   24      3.95      0.00
   -1    1   24    -12.18      0.00
    1    1   24      0.22      0.00
    3    1   24      2.13      0.00
    5    1   24      4.37      0.00
    7    1   24      2.09      0.00
    9    1   24      1.88      0.00
   11    1   24     -0.94      0.00
   13    1   24     -0.85      0.00
  -32    2   24      3.60      0.00
  -30    2   24     10.91      0.00
  -28    2   24      3.13      0.00
  -26    2   24     -1.82      0.00
  -24    2   24     -1.69      0.00
  -22    2   24     -0.26      0.00
  -20    2   24      2.57      0.00
  -18    2   24      5.87      0.00
  -16    2   24      1.41      0.00
  -14    2   24      1.48      0.00
  -12    2   24     -0.69      0.00
  -10    2   24      2.96      0.00
   -8    2   24     -3.96      0.00
   -6    2   24      1.50      0.00
   -4    2   24      2.08      0.00
   -2    2   24     -6.38      0.00
    0    2   24      1.98      0.00
    2    2   24     -3.06      0.00
    4    2   24     -2.88      0.00
    6    2   24     -4.33      0.00
    8    2   24      0.02      0.00
   10    2   24     -1.16      0.00
   12    2   24      9.32      0.00
  -31    3   24     -5.06      0.00
  -29    3   24     -2.79      0.00
  -27    3   24     14.35      0.00
  -25    3   24      1.77      0.00
  -23    3   24      1.73      0.00
  -21    3   24     -8.26      0.00
  -19    3   24     -3.83      0.00
  -17    3   24     -5.19      0.00
  -15    3   24      5.04      0.00
  -13    3   24     -2.61      0.00
  -11    3   24     -2.09      0.00
   -9    3   24     -1.33      0.00
   -7    3   24     -0.49      0.00
   -5    3   24     -2.35      0.00
   -3    3   24      5.33      0.00
   -1    3   24     -0.39      0.00
    1    3   24      5.86      0.00
    3    3   24      2.00      0.00
    5    3   24     -2.50      0.00
    7    3   24     -0.99      0.00
    9    3   24     -7.34      0.00
   11    3   24      4.52      0.00
  -30    4   24      7.23      0.00
  -28    4   24     -9.28      0.00
  -26    4   24      2.77      0.00
  -24    4   24     -1.85      0.00
  -22    4   24      5.27      0.00
  -20    4   24     -4.80      0.00
  -18    4   24     -0.64      0.00
  -16    4   24      0.61      0.00
  -14    4   24      0.82      0.00
  -12    4   24      0.96      0.00
  -10    4   24     -0.41      0.00
   -8    4   24     -0.46      0.00
   -6    4   24     10.01      0.00
   -4    4   24      4.24      0.00
   -2    4   24      1.94      0.00
    0    4   24     -4.67      0.00
    2    4   24      1.59      0.00
    4    4   24      4.10      0.00
    6    4   24      0.66      0.00
    8    4   24      0.00      0.00
   10    4   24     -4.42      0.00
  -29    5   24     -2.33      0.00
  -27    5   24     -4.32      0.00
  -25    5   24      3.67      0.00
  -23    5   24      3.69      0.00
  -21    5   24     -2.77      0.00
  -19    5   24     -2.16      0.00
  -17    5   24      3.70      0.00
  -15    5   24     -4.23      0.00
  -13    5   24     11.54      0.00
  -11    5   24      2.11      0.00
   -9    5   24     -3.78      0.00
   -7    5   24     -0.65      0.00
   -5    5   24      4.27      0.00
   -3    5   24     -4.25      0.00
   -1    5   24     -2.75      0.00
    1    5   24     -0.08      0.00
    3    5   24     -1.27      0.00
    5    5   24      4.29      0.00
    7    5   24     -5.79      0.00
    9    5   24      3.99      0.00
  -28    6   24     -1.47      0.00
  -26    6   24     -1.43      0.00
  -24    6   24     -5.66      0.00
  -22    6   24      7.84      0.00
  -20    6   24      3.20      0.00
  -18    6   24     -2.30      0.00
  -16    6   24     -7.02      0.00
  -14    6   24     -3.53      0.00
  -12    6   24      4.23      0.00
  -10    6   24      5.75      0.00
   -8    6   24      3.02      0.00
   -6    6   24     -1.92      0.00
   -4    6   24      0.38      0.00
   -2    6   24     -0.98      0.00
    0    6   24      0.72      0.00
    2    6   24     -9.56      0.00
    4    6   24      2.48      0.00
    6    6   24     -2.50      0.00
    8    6   24     -1.98      0.00
  -25    7   24     -6.30      0.00
  -23    7   24     -2.81      0.00
  -21    7   24      7.49      0.00
  -19    7   24     -2.79      0.00
  -17    7   24     -1.31      0.00
  -15    7   24     -1.82      0.00
  -13    7   24      4.28      0.00
  -11    7   24     -2.24      0.00
   -9    7   24      2.12      0.00
   -7    7   24     -2.24      0.00
   -5    7   24      3.25      0.00
   -3    7   24      2.12      0.00
   -1    7   24      1.82      0.00
    1    7   24      0.69      0.00
    3    7   24      9.97      0.00
    5    7   24     -2.16      0.00
    7    7   24     -2.18      0.00
  -24    8   24     10.96      0.00
  -22    8   24     -1.23      0.00
  -20    8   24     -2.96      0.00
  -18    8   24     -0.52      0.00
  -16    8   24     -9.51      0.00
  -14    8   24     -6.34      0.00
  -12    8   24      5.54      0.00
  -10    8   24      3.95      0.00
   -8    8   24     -3.14      0.00
   -6    8   24     -6.61      0.00
   -4    8   24    -11.77      0.00
   -2    8   24     -8.45      0.00
    0    8   24      9.27      0.00
    2    8   24      9.54      0.00
    4    8   24     -8.07      0.00
  -19    9   24      8.00      0.00
  -17    9   24      1.41      0.00
  -15    9   24     -7.56      0.00
  -13    9   24     -3.79      0.00
  -11    9   24     -0.14      0.00
   -9    9   24     -1.51      0.00
   -7    9   24      2.87      0.00
   -5    9   24     -1.36      0.00
   -3    9   24     -2.88      0.00
   -1    9   24      0.54      0.00
    1    9   24     -1.96      0.00
  -12   10   24      5.91      0.00
  -10   10   24      1.91      0.00
   -8   10   24     -0.81      0.00
  -31    1   25     -7.85      0.00
  -29    1   25      1.50      0.00
  -27    1   25      3.09      0.00
  -25    1   25      0.92      0.00
  -23    1   25     -5.69      0.00
  -21    1   25      6.49      0.00
  -19    1   25     -0.41      0.00
  -17    1   25     -4.52      0.00
  -15    1   25      3.99      0.00
  -13    1   25     -7.67      0.00
  -11    1   25      2.77      0.00
   -9    1   25     -3.35      0.00
   -7    1   25     -0.08      0.00
   -5    1   25      0.28      0.00
   -3    1   25      9.52      0.00
   -1    1   25     -9.77      0.00
    1    1   25     10.89      0.00
    3    1   25      2.09      0.00
    5    1   25     -3.61      0.00
    7    1   25      4.17      0.00
    9    1   25      3.39      0.00
   11    1   25     -7.09      0.00
  -32    2   25     -2.10      0.00
  -30    2   25      2.72      0.00
  -28    2   25     -9.83      0.00
  -26    2   25      1.25      0.00
  -24    2   25     10.96      0.00
  -22    2   25      2.19      0.00
  -20    2   25     -2.22      0.00
  -18    2   25     -1.70      0.00
  -16    2   25     -7.83      0.00
  -14    2   25     -3.99      0.00
  -12    2   25      2.90      0.00
  -10    2   25      0.84      0.00
   -8    2   25     -3.61      0.00
   -6    2   25      2.13      0.00
   -4    2   25     -1.56      0.00
   -2    2   25      1.18      0.00
    0    2   25     -1.55      0.00
    2    2   25     -1.71      0.00
    4    2   25      2.68      0.00
    6    2   25      7.66      0.00
    8    2   25      1.21      0.00
   10    2   25    -12.21      0.00
   12    2   25      4.94      0.00
  -31    3   25      3.47      0.00
  -29    3   25      6.50      0.00
  -27    3   25      1.41      0.00
  -25    3   25      0.55      0.00
  -23    3   25     -7.83      0.00
  -21    3   25      4.89      0.00
  -19    3   25      4.48      0.00
  -17    3   25      1.60      0.00
  -15    3   25      1.58      0.00
  -13    3   25      1.10      0.00
  -11    3   25      1.78      0.00
   -9    3   25     -5.73      0.00
   -7    3   25     -5.30      0.00
   -5    3   25      0.74      0.00
   -3    3   25      0.33      0.00
   -1    3   25     -1.39      0.00
    1    3   25     -1.87      0.00
    3    3   25     -1.97      0.00
    5    3   25     -5.26      0.00
    7    3   25      7.48      0.00
    9    3   25      9.67      0.00
   11    3   25      0.62      0.00
  -30    4   25     -3.02      0.00
  -28    4   25      9.08      0.00
  -26    4   25     -8.04      0.00
  -24    4   25     -8.31      0.00
  -22    4   25      5.43      0.00
  -20    4   25     -3.49      0.00
  -18    4   25      2.57      0.00
  -16    4   25     -6.65      0.00
  -14    4   25     -4.12      0.00
  -12    4   25     -3.87      0.00
  -10    4   25      3.77      0.00
   -8    4   25      3.70      0.00
   -6    4   25     -6.27      0.00
   -4    4   25      1.83      0.00
   -2    4   25      3.49      0.00
    0    4   25     -0.84      0.00
    2    4   25      1.55      0.00
    4    4   25     -0.70      0.00
    6    4   25      3.33      0.00
    8    4   25     -2.45      0.00
   10    4   25     -3.02      0.00
  -29    5   25     -3.81      0.00
  -27    5   25     -2.89      0.00
  -25    5   25      1.59      0.00
  -23    5   25     -8.65      0.00
  -21    5   25     -0.66      0.00
  -19    5   25      4.11      0.00
  -17    5   25     -1.35      0.00
  -15    5   25      1.48      0.00
  -13    5   25     -2.99      0.00
  -11    5   25      1.96      0.00
   -9    5   25     -1.36      0.00
   -7    5   25     10.21      0.00
   -5    5   25      6.62      0.00
   -3    5   25     -5.13      0.00
   -1    5   25     -3.19      0.00
    1    5   25      4.86      0.00
    3    5   25      0.23      0.00
    5    5   25     -5.01      0.00
    7    5   25     -4.18      0.00
    9    5   25     -2.00      0.00
  -28    6   25      7.93      0.00
  -26    6   25     -1.34      0.00
  -24    6   25      0.94      0.00
  -22    6   25     -7.51      0.00
  -20    6   25     -1.71      0.00
  -18    6   25      3.16      0.00
  -16    6   25     -2.92      0.00
  -14    6   25      8.50      0.00
  -12    6   25      0.40      0.00
  -10    6   25     -4.81      0.00
   -8    6   25      1.28      0.00
   -6    6   25     -2.14      0.00
   -4    6   25     -5.29      0.00
   -2    6   25      0.29      0.00
    0    6   25     -4.58      0.00
    2    6   25      1.34      0.00
    4    6   25      5.30      0.00
    6    6   25     -2.08      0.00
  -25    7   25     -7.44      0.00
  -23    7   25      9.23      0.00
  -21    7   25      3.40      0.00
  -19    7   25      0.70      0.00
  -17    7   25      2.98      0.00
  -15    7   25     -2.17      0.00
  -13    7   25      2.31      0.00
  -11    7   25      1.33      0.00
   -9    7   25      4.20      0.00
   -7    7   25      1.35      0.00
   -5    7   25      2.90      0.00
   -3    7   25      1.50      0.00
   -1    7   25     -2.65      0.00
    1    7   25     -5.48      0.00
    3    7   25      3.59      0.00
    5    7   25     -7.09      0.00
  -22    8   25     -0.66      0.00
  -20    8   25     -0.21      0.00
  -18    8   25     -0.75      0.00
  -16    8   25      0.53      0.00
  -14    8   25      0.16      0.00
  -12    8   25      3.58      0.00
  -10    8   25     -1.16      0.00
   -8    8   25     -2.57      0.00
   -6    8   25     11.04      0.00
   -4    8   25      1.48      0.00
   -2    8   25     -6.95      0.00
    0    8   25      1.24      0.00
    2    8   25      5.13      0.00
  -17    9   25     -9.37      0.00
  -15    9   25     -0.57      0.00
  -13    9   25      0.47      0.00
  -11    9   25     -0.80      0.00
   -9    9   25     -3.76      0.00
   -7    9   25     -4.65      0.00
   -5    9   25     -7.48      0.00
   -3    9   25     -0.71      0.00
  -32    0   26      4.54      0.00
  -30    0   26     -1.85      0.00
  -28    0   26      7.07      0.00
  -26    0   26     -5.84      0.00
  -24    0   26      5.62      0.00
  -22    0   26     -9.61      0.00
  -20    0   26      2.95      0.00
  -18    0   26      1.67      0.00
  -16    0   26     -1.55      0.00
  -14    0   26      4.26      0.00
  -12    0   26     -3.46      0.00
  -10    0   26      2.50      0.00
   -8    0   26     -6.43      0.00
   -6    0   26     -9.39      0.00
   -4    0   26      3.48      0.00
   -2    0   26     13.51      0.00
    0    0   26     -8.72      0.00
    2    0   26     -3.80      0.00
    4    0   26      5.42      0.00
    6    0   26     -3.89      0.00
    8    0   26      0.50      0.00
   10    0   26     12.37      0.00
  -31    1   26      0.29      0.00
  -29    1   26      0.17      0.00
  -27    1   26     -1.40      0.00
  -25    1   26     -6.29      0.00
  -23    1   26      3.81      0.00
  -21    1   26      4.35      0.00
  -19    1   26      8.11      0.00
  -17    1   26     -4.49      0.00
  -15    1   26      9.41      0.00
  -13    1   26     -6.15      0.00
  -11    1   26     -0.60      0.00
   -9    1   26      2.93      0.00
   -7    1   26     -3.46      0.00
   -5    1   26      0.49      0.00
   -3    1   26     -6.27      0.00
   -1    1   26     -3.16      0.00
    1    1   26      7.18      0.00
    3    1   26     -0.93      0.00
    5    1   26     -9.28      0.00
    7    1   26      9.94      0.00
    9    1   26      3.03      0.00
   11    1   26     -3.20      0.00
  -30    2   26      1.38      0.00
  -28    2   26      1.24      0.00
  -26    2   26      5.20      0.00
  -24    2   26     -3.03      0.00
  -22    2   26      0.53      0.00
  -20    2   26     -2.50      0.00
  -18    2   26     -1.55      0.00
  -16    2   26      2.52      0.00
  -14    2   26     -9.66      0.00
  -12    2   26      2.92      0.00
  -10    2   26      8.22      0.00
   -8    2   26     -0.73      0.00
   -6    2   26      0.73      0.00
   -4    2   26      3.08      0.00
   -2    2   26      3.21      0.00
    0    2   26      1.58      0.00
    2    2   26      1.32      0.00
    4    2   26     -0.48      0.00
    6    2   26    -10.98      0.00
    8    2   26     -4.31      0.00
   10    2   26      0.82      0.00
  -31    3   26      6.68      0.00
  -29    3   26     -8.66      0.00
  -27    3   26     10.29      0.00
  -25    3   26     10.11      0.00
  -23    3   26     -9.09      0.00
  -21    3   26     -2.35      0.00
  -19    3   26     -2.24      0.00
  -17    3   26     -3.04      0.00
  -15    3   26      0.25      0.00
  -13    3   26      2.52      0.00
  -11    3   26     -2.27      0.00
   -9    3   26     -2.58      0.00
   -7    3   26      9.54      0.00
   -5    3   26     -3.60      0.00
   -3    3   26      0.48      0.00
   -1    3   26     -5.50      0.00
    1    3   26     -5.59      0.00
    3    3   26      1.10      0.00
    5    3   26      4.41      0.00
    7    3   26     -1.25      0.00
    9    3   26     -6.71      0.00
  -30    4   26      9.96      0.00
  -28    4   26      8.75      0.00
  -26    4   26     -8.98      0.00
  -24    4   26      0.10      0.00
  -22    4   26      0.25      0.00
  -20    4   26      0.05      0.00
  -18    4   26      5.67      0.00
  -16    4   26     -3.74      0.00
  -14    4   26      2.90      0.00
  -12    4   26     -2.22      0.00
  -10    4   26     -7.64      0.00
   -8    4   26     -8.68      0.00
   -6    4   26      4.49      0.00
   -4    4   26      8.15      0.00
   -2    4   26     -5.37      0.00
    0    4   26      1.22      0.00
    2    4   26     -1.92      0.00
    4    4   26      6.86      0.00
    6    4   26      5.19      0.00
    8    4   26      2.45      0.00
  -29    5   26     -2.00      0.00
  -27    5   26      0.28      0.00
  -25    5   26      1.49      0.00
  -23    5   26      5.25      0.00
  -21    5   26     -1.35      0.00
  -19    5   26      0.64      0.00
  -17    5   26     -7.40      0.00
  -15    5   26     -5.53      0.00
  -13    5   26      2.57      0.00
  -11    5   26      4.82      0.00
   -9    5   26      0.96      0.00
   -7    5   26     -1.55      0.00
   -5    5   26     -0.65      0.00
   -3    5   26      0.59      0.00
   -1    5   26      1.57      0.00
    1    5   26     -0.75      0.00
    3    5   26     -0.97      0.00
    5    5   26      5.85      0.00
    7    5   26     -8.01      0.00
  -26    6   26     -5.69      0.00
  -24    6   26     -7.65      0.00
  -22    6   26      3.04      0.00
  -20    6   26      0.63      0.00
  -18    6   26      2.57      0.00
  -16    6   26     -3.68      0.00
  -14    6   26      6.06      0.00
  -12    6   26     -2.45      0.00
  -10    6   26     -0.64      0.00
   -8    6   26      4.32      0.00
   -6    6   26      7.43      0.00
   -4    6   26     -6.40      0.00
   -2    6   26     -2.31      0.00
    0    6   26      0.25      0.00
    2    6   26      1.32      0.00
    4    6   26     -2.58      0.00
    6    6   26     -2.22      0.00
  -25    7   26     -0.54      0.00
  -23    7   26     -2.64      0.00
  -21    7   26     -1.52      0.00
  -19    7   26      5.46      0.00
  -17    7   26      2.24      0.00
  -15    7   26      1.26      0.00
  -13    7   26     -1.16      0.00
  -11    7   26      3.35      0.00
   -9    7   26      0.29      0.00
   -7    7   26     -9.02      0.00
   -5    7   26     -4.38      0.00
   -3    7   26      5.59      0.00
   -1    7   26     -3.87      0.00
    1    7   26     -2.58      0.00
    3    7   26      8.12      0.00
  -22    8   26      1.67      0.00
  -20    8   26     -2.02      0.00
  -18    8   26      2.12      0.00
  -16    8   26      0.27      0.00
  -14    8   26      4.67      0.00
  -12    8   26      3.71      0.00
  -10    8   26     -2.83      0.00
   -8    8   26      4.31      0.00
   -6    8   26      6.62      0.00
   -4    8   26      0.05      0.00
   -2    8   26      2.18      0.00
    0    8   26     -1.17      0.00
  -17    9   26      0.99      0.00
  -15    9   26     -5.35      0.00
  -13    9   26      5.62      0.00
  -11    9   26      4.04      0.00
   -9    9   26     -1.16      0.00
   -7    9   26      4.33      0.00
   -5    9   26     -8.50      0.00
  -31    1   27      7.36      0.00
  -29    1   27     -1.45      0.00
  -27    1   27     -5.37      0.00
  -25    1   27      3.77      0.00
  -23    1   27     -5.21      0.00
  -21    1   27     -0.34      0.00
  -19    1   27     -2.47      0.00
  -17    1   27     -1.95      0.00
  -15    1   27      3.75      0.00
  -13    1   27     -6.24      0.00
  -11    1   27     -3.08      0.00
   -9    1   27     -6.02      0.00
   -7    1   27      2.45      0.00
   -5    1   27     -2.72      0.00
   -3    1   27     14.36      0.00
   -1    1   27     -5.45      0.00
    1    1   27     -2.30      0.00
    3    1   27      6.00      0.00
    5    1   27      5.54      0.00
    7    1   27      2.70      0.00
    9    1   27      1.09      0.00
  -30    2   27      1.59      0.00
  -28    2   27      0.22      0.00
  -26    2   27     -4.66      0.00
  -24    2   27      6.03      0.00
  -22    2   27      2.40      0.00
  -20    2   27      7.38      0.00
  -18    2   27     -2.90      0.00
  -16    2   27      3.18      0.00
  -14    2   27     -5.27      0.00
  -12    2   27      0.75      0.00
  -10    2   27      0.32      0.00
   -8    2   27     -6.80      0.00
   -6    2   27      3.76      0.00
   -4    2   27     -3.30      0.00
   -2    2   27      3.97      0.00
    0    2   27      9.45      0.00
    2    2   27     -4.05      0.00
    4    2   27    -10.05      0.00
    6    2   27     12.55      0.00
    8    2   27      0.72      0.00
  -29    3   27     -2.90      0.00
  -27    3   27      9.55      0.00
  -25    3   27     -4.28      0.00
  -23    3   27      7.32      0.00
  -21    3   27     -4.13      0.00
  -19    3   27      0.98      0.00
  -17    3   27      1.02      0.00
  -15    3   27     -8.16      0.00
  -13    3   27      8.61      0.00
  -11    3   27     10.04      0.00
   -9    3   27     -1.75      0.00
   -7    3   27     -3.39      0.00
   -5    3   27     -1.23      0.00
   -3    3   27     15.18      0.00
   -1    3   27     -8.11      0.00
    1    3   27     -0.47      0.00
    3    3   27     -5.08      0.00
    5    3   27     -7.51      0.00
    7    3   27      4.71      0.00
  -28    4   27      5.77      0.00
  -26    4   27      3.01      0.00
  -24    4   27    -15.13      0.00
  -22    4   27      2.85      0.00
  -20    4   27     -1.29      0.00
  -18    4   27      5.62      0.00
  -16    4   27     -3.56      0.00
  -14    4   27      0.41      0.00
  -12    4   27     -1.04      0.00
  -10    4   27      0.59      0.00
   -8    4   27      4.37      0.00
   -6    4   27     -1.73      0.00
   -4    4   27     -3.92      0.00
   -2    4   27     -2.57      0.00
    0    4   27     -6.03      0.00
    2    4   27      2.35      0.00
    4    4   27      1.91      0.00
    6    4   27      1.67      0.00
  -27    5   27    -13.36      0.00
  -25    5   27      4.38      0.00
  -23    5   27     -1.15      0.00
  -21    5   27     -3.25      0.00
  -19    5   27      3.46      0.00
  -17    5   27     -5.72      0.00
  -15    5   27      0.35      0.00
  -13    5   27     -2.51      0.00
  -11    5   27     -0.28      0.00
   -9    5   27     -4.47      0.00
   -7    5   27      3.91      0.00
   -5    5   27      6.72      0.00
   -3    5   27      0.10      0.00
   -1    5   27     -2.48      0.00
    1    5   27      1.86      0.00
    3    5   27     -2.80      0.00
    5    5   27      5.04      0.00
  -26    6   27      0.18      0.00
  -24    6   27     -7.03      0.00
  -22    6   27      0.74      0.00
  -20    6   27     -1.82      0.00
  -18    6   27     -2.76      0.00
  -16    6   27     -5.58      0.00
  -14    6   27      5.03      0.00
  -12    6   27     -7.41      0.00
  -10    6   27      1.79      0.00
   -8    6   27      4.23      0.00
   -6    6   27      1.55      0.00
   -4    6   27     -5.01      0.00
   -2    6   27      7.75      0.00
    0    6   27     -2.75      0.00
    2    6   27     -1.09      0.00
    4    6   27     -1.53      0.00
  -23    7   27      7.01      0.00
  -21    7   27      1.69      0.00
  -19    7   27     -2.05      0.00
  -17    7   27     -2.71      0.00
  -15    7   27     -2.90      0.00
  -13    7   27      4.22      0.00
  -11    7   27     -2.20      0.00
   -9    7   27     -4.12      0.00
   -7    7   27      4.45      0.00
   -5    7   27     -5.94      0.00
   -3    7   27     -6.23      0.00
   -1    7   27     -0.62      0.00
    1    7   27      5.38      0.00
  -20    8   27     11.72      0.00
  -18    8   27     -2.66      0.00
  -16    8   27      0.47      0.00
  -14    8   27     -1.25      0.00
  -12    8   27      1.69      0.00
  -10    8   27     -0.98      0.00
   -8    8   27     -5.33      0.00
   -6    8   27      2.25      0.00
   -4    8   27      3.76      0.00
   -2    8   27     -5.84      0.00
  -13    9   27      4.47      0.00
  -11    9   27     -6.66      0.00
  -30    0   28      1.49      0.00
  -28    0   28      9.18      0.00
  -26    0   28      3.11      0.00
  -24    0   28      5.13      0.00
  -22    0   28      2.26      0.00
  -20    0   28      0.08      0.00
  -18    0   28     -3.96      0.00
  -16    0   28      5.34      0.00
  -14    0   28     -1.94      0.00
  -12    0   28      1.56      0.00
  -10    0   28      0.63      0.00
   -8    0   28     -1.04      0.00
   -6    0   28     -5.45      0.00
   -4    0   28    -14.32      0.00
   -2    0   28      5.25      0.00
    0    0   28      3.80      0.00
    2    0   28     -3.72      0.00
    4    0   28     -6.17      0.00
    6    0   28      0.59      0.00
    8    0   28     -0.29      0.00
  -31    1   28     -0.07      0.00
  -29    1   28     -0.16      0.00
  -27    1   28      1.11      0.00
  -25    1   28      2.13      0.00
  -23    1   28     -1.12      0.00
  -21    1   28     -3.18      0.00
  -19    1   28      5.83      0.00
  -17    1   28     -0.54      0.00
  -15    1   28     -0.27      0.00
  -13    1   28     -0.52      0.00
  -11    1   28      2.69      0.00
   -9    1   28      3.83      0.00
   -7    1   28     -4.66      0.00
   -5    1   28      6.35      0.00
   -3    1   28     -2.60      0.00
   -1    1   28     -6.52      0.00
    1    1   28      8.07      0.00
    3    1   28      2.21      0.00
    5    1   28     -9.34      0.00
    7    1   28      6.43      0.00
  -30    2   28     -3.53      0.00
  -28    2   28     -3.76      0.00
  -26    2   28      2.03      0.00
  -24    2   28     -7.94      0.00
  -22    2   28     -0.07      0.00
  -20    2   28     -4.06      0.00
  -18    2   28     -3.36      0.00
  -16    2   28      9.04      0.00
  -14    2   28    -12.53      0.00
  -12    2   28     -3.43      0.00
  -10    2   28      1.54      0.00
   -8    2   28     -0.48      0.00
   -6    2   28     -4.87      0.00
   -4    2   28     -3.59      0.00
   -2    2   28      6.23      0.00
    0    2   28     -3.87      0.00
    2    2   28     10.58      0.00
    4    2   28      0.84      0.00
    6    2   28     -4.43      0.00
    8    2   28     -0.20      0.00
  -29    3   28     -1.90      0.00
  -27    3   28     -0.31      0.00
  -25    3   28      5.53      0.00
  -23    3   28     -3.41      0.00
  -21    3   28      4.96      0.00
  -19    3   28     -1.39      0.00
  -17    3   28      0.60      0.00
  -15    3   28     -1.21      0.00
  -13    3   28     -0.84      0.00
  -11    3   28      3.16      0.00
   -9    3   28     -0.48      0.00
   -7    3   28      7.77      0.00
   -5    3   28     -1.56      0.00
   -3    3   28      4.66      0.00
   -1    3   28      0.89      0.00
    1    3   28     -7.87      0.00
    3    3   28     -1.60      0.00
    5    3   28      0.33      0.00
    7    3   28     -1.48      0.00
  -28    4   28     15.21      0.00
  -26    4   28     -7.02      0.00
  -24    4   28      5.68      0.00
  -22    4   28      0.03      0.00
  -20    4   28     -0.48      0.00
  -18    4   28     -0.63      0.00
  -16    4   28     -4.82      0.00
  -14    4   28      6.46      0.00
  -12    4   28      2.99      0.00
  -10    4   28     -6.35      0.00
   -8    4   28     -0.39      0.00
   -6    4   28     -1.80      0.00
   -4    4   28      7.25      0.00
   -2    4   28     -6.02      0.00
    0    4   28      2.68      0.00
    2    4   28      0.65      0.00
    4    4   28     -3.41      0.00
    6    4   28     -1.46      0.00
  -27    5   28     -2.27      0.00
  -25    5   28      3.74      0.00
  -23    5   28     -5.28      0.00
  -21    5   28     -0.90      0.00
  -19    5   28      7.23      0.00
  -17    5   28     -2.71      0.00
  -15    5   28      5.36      0.00
  -13    5   28      3.11      0.00
  -11    5   28     -0.49      0.00
   -9    5   28     -0.33      0.00
   -7    5   28     -1.33      0.00
   -5    5   28      1.48      0.00
   -3    5   28     -4.85      0.00
   -1    5   28     -3.09      0.00
    1    5   28      0.55      0.00
    3    5   28      7.60      0.00
  -24    6   28     -3.21      0.00
  -22    6   28      1.41      0.00
  -20    6   28      2.62      0.00
  -18    6   28     -0.66      0.00
  -16    6   28     -5.06      0.00
  -14    6   28      6.85      0.00
  -12    6   28      5.47      0.00
  -10    6   28      2.34      0.00
   -8    6   28     -1.05      0.00
   -6    6   28      4.45      0.00
   -4    6   28      0.40      0.00
   -2    6   28     -2.01      0.00
    0    6   28     -2.39      0.00
    2    6   28     -5.01      0.00
  -23    7   28      2.38      0.00
  -21    7   28     -7.00      0.00
  -19    7   28      5.17      0.00
  -17    7   28     -3.53      0.00
  -15    7   28      0.91      0.00
  -13    7   28    -10.16      0.00
  -11    7   28      6.63      0.00
   -9    7   28      4.90      0.00
   -7    7   28      4.77      0.00
   -5    7   28     -4.20      0.00
   -3    7   28      7.10      0.00
   -1    7   28     -7.57      0.00
  -18    8   28     -5.90      0.00
  -16    8   28     -0.49      0.00
  -12    8   28      0.41      0.00
  -10    8   28     -7.18      0.00
   -8    8   28      2.78      0.00
   -6    8   28     -7.66      0.00
   -4    8   28     -0.77      0.00
  -29    1   29      6.10      0.00
  -27    1   29      3.96      0.00
  -25    1   29     -1.88      0.00
  -23    1   29     -2.09      0.00
  -21    1   29     -1.35      0.00
  -19    1   29     -1.62      0.00
  -17    1   29     -0.36      0.00
  -15    1   29     -1.51      0.00
  -13    1   29     -0.18      0.00
  -11    1   29      2.40      0.00
   -9    1   29      0.30      0.00
   -7    1   29      3.94      0.00
   -5    1   29     -6.52      0.00
   -3    1   29      3.27      0.00
   -1    1   29     -0.30      0.00
    1    1   29     -7.11      0.00
    3    1   29     -1.75      0.00
    5    1   29      3.82      0.00
    7    1   29     -1.86      0.00
  -30    2   29     -3.43      0.00
  -28    2   29      4.01      0.00
  -26    2   29      5.17      0.00
  -24    2   29      1.40      0.00
  -22    2   29     -8.34      0.00
  -20    2   29      5.72      0.00
  -18    2   29      0.98      0.00
  -16    2   29     -6.43      0.00
  -14    2   29      2.41      0.00
  -12    2   29     -2.21      0.00
  -10    2   29     -1.64      0.00
   -8    2   29      2.60      0.00
   -6    2   29      0.93      0.00
   -4    2   29      4.16      0.00
   -2    2   29     -1.60      0.00
    0    2   29      8.21      0.00
    2    2   29     -0.97      0.00
    4    2   29     -2.65      0.00
    6    2   29      9.55      0.00
  -29    3   29     -2.48      0.00
  -27    3   29      5.10      0.00
  -25    3   29    -12.67      0.00
  -23    3   29      2.45      0.00
  -21    3   29     -5.62      0.00
  -19    3   29      3.44      0.00
  -17    3   29      5.97      0.00
  -15    3   29    -10.58      0.00
  -13    3   29      1.12      0.00
  -11    3   29      2.75      0.00
   -9    3   29     -9.15      0.00
   -7    3   29      0.94      0.00
   -5    3   29     -4.34      0.00
   -3    3   29      8.14      0.00
   -1    3   29     -5.19      0.00
    1    3   29      5.37      0.00
    3    3   29      3.05      0.00
    5    3   29      1.66      0.00
  -28    4   29     -2.83      0.00
  -26    4   29      1.87      0.00
  -24    4   29      5.90      0.00
  -22    4   29     -0.40      0.00
  -20    4   29      0.57      0.00
  -18    4   29     -2.15      0.00
  -16    4   29     -2.71      0.00
  -14    4   29      1.82      0.00
  -12    4   29      6.26      0.00
  -10    4   29      3.37      0.00
   -8    4   29      4.59      0.00
   -6    4   29     -4.35      0.00
   -4    4   29      2.32      0.00
   -2    4   29      1.13      0.00
    0    4   29     -2.64      0.00
    2    4   29     -9.19      0.00
    4    4   29     -0.64      0.00
  -25    5   29     -2.93      0.00
  -23    5   29      0.06      0.00
  -21    5   29     -1.14      0.00
  -19    5   29      1.56      0.00
  -17    5   29     -5.63      0.00
  -15    5   29     -0.86      0.00
  -13    5   29     -7.55      0.00
  -11    5   29     -1.43      0.00
   -9    5   29      1.06      0.00
   -7    5   29     -0.09      0.00
   -5    5   29     -1.84      0.00
   -3    5   29      4.57      0.00
   -1    5   29     -6.78      0.00
    1    5   29     10.37      0.00
    3    5   29    -14.05      0.00
  -24    6   29     -5.91      0.00
  -22    6   29      1.36      0.00
  -20    6   29      1.11      0.00
  -18    6   29      7.15      0.00
  -16    6   29     -0.50      0.00
  -14    6   29      8.40      0.00
  -12    6   29     -8.57      0.00
  -10    6   29     -0.99      0.00
   -8    6   29     -1.56      0.00
   -6    6   29      4.75      0.00
   -4    6   29     -5.29      0.00
   -2    6   29      3.30      0.00
    0    6   29      0.06      0.00
  -21    7   29      6.59      0.00
  -19    7   29     -2.94      0.00
  -17    7   29     -2.79      0.00
  -15    7   29      7.53      0.00
  -13    7   29      5.75      0.00
  -11    7   29     -1.31      0.00
   -9    7   29     -5.06      0.00
   -7    7   29      3.18      0.00
   -5    7   29     -3.52      0.00
   -3    7   29     -1.20      0.00
  -14    8   29      2.41      0.00
  -12    8   29      1.00      0.00
  -10    8   29      0.89      0.00
   -8    8   29      5.21      0.00
  -30    0   30      0.50      0.00
  -28    0   30      0.73      0.00
  -26    0   30     11.83      0.00
  -24    0   30      3.52      0.00
  -22    0   30      6.93      0.00
  -20    0   30     -2.84      0.00
  -18    0   30      5.59      0.00
  -16    0   30      6.39      0.00
  -14    0   30     -4.26      0.00
  -12    0   30     -2.52      0.00
  -10    0   30     -6.84      0.00
   -8    0   30     -1.23      0.00
   -6    0   30      6.82      0.00
   -4    0   30      2.51      0.00
   -2    0   30     -0.13      0.00
    0    0   30      9.86      0.00
    2    0   30     -3.09      0.00
    4    0   30     -3.88      0.00
  -29    1   30     -1.75      0.00
  -27    1   30     -3.61      0.00
  -25    1   30      4.96      0.00
  -23    1   30     -0.82      0.00
  -21    1   30     -3.63      0.00
  -19    1   30      0.96      0.00
  -17    1   30      3.96      0.00
  -15    1   30     -7.89      0.00
  -13    1   30      2.61      0.00
  -11    1   30     -1.43      0.00
   -9    1   30     -1.12      0.00
   -7    1   30     -6.58      0.00
   -5    1   30      1.62      0.00
   -3    1   30      2.70      0.00
   -1    1   30     -7.98      0.00
    1    1   30      9.14      0.00
    3    1   30     -4.28      0.00
    5    1   30     -6.35      0.00
  -28    2   30      0.71      0.00
  -26    2   30     -3.56      0.00
  -24    2   30      0.41      0.00
  -22    2   30      6.22      0.00
  -20    2   30     -1.70      0.00
  -18    2   30     -3.52      0.00
  -16    2   30      3.53      0.00
  -14    2   30     -2.01      0.00
  -12    2   30      7.07      0.00
  -10    2   30      6.61      0.00
   -8    2   30     -1.36      0.00
   -6    2   30      0.09      0.00
   -4    2   30     -2.23      0.00
   -2    2   30     -5.95      0.00
    0    2   30     -9.32      0.00
    2    2   30     -2.04      0.00
    4    2   30     -3.72      0.00
  -27    3   30      1.91      0.00
  -25    3   30     -5.64      0.00
  -23    3   30     -5.93      0.00
  -21    3   30     -1.30      0.00
  -19    3   30      3.45      0.00
  -17    3   30     -6.43      0.00
  -15    3   30     -4.24      0.00
  -13    3   30     -4.59      0.00
  -11    3   30     -0.91      0.00
   -9    3   30      4.87      0.00
   -7    3   30      1.96      0.00
   -5    3   30      0.95      0.00
   -3    3   30     -0.35      0.00
   -1    3   30      2.36      0.00
    1    3   30      5.31      0.00
    3    3   30      5.91      0.00
  -26    4   30     -1.60      0.00
  -24    4   30     -4.62      0.00
  -22    4   30     -1.70      0.00
  -20    4   30      6.83      0.00
  -18    4   30      2.12      0.00
  -16    4   30     -1.60      0.00
  -14    4   30     -0.23      0.00
  -12    4   30      0.30      0.00
  -10    4   30     -5.64      0.00
   -8    4   30      7.31      0.00
   -6    4   30      2.09      0.00
   -4    4   30      1.98      0.00
   -2    4   30      0.99      0.00
    0    4   30     -4.49      0.00
    2    4   30     14.13      0.00
  -25    5   30      7.36      0.00
  -23    5   30     -2.04      0.00
  -21    5   30     -1.36      0.00
  -19    5   30     -4.17      0.00
  -17    5   30      0.84      0.00
  -15    5   30      5.07      0.00
  -13    5   30      4.99      0.00
  -11    5   30     -0.36      0.00
   -9    5   30      2.75      0.00
   -7    5   30     -4.09      0.00
   -5    5   30      3.38      0.00
   -3    5   30     -1.37      0.00
   -1    5   30      0.58      0.00
    1    5   30     -9.15      0.00
  -22    6   30      2.34      0.00
  -20    6   30      4.46      0.00
  -18    6   30     -3.01      0.00
  -16    6   30     -6.74      0.00
  -14    6   30     -2.00      0.00
  -12    6   30      7.16      0.00
  -10    6   30      3.75      0.00
   -8    6   30     -1.78      0.00
   -6    6   30     -0.72      0.00
   -4    6   30      0.00      0.00
   -2    6   30     -8.61      0.00
  -19    7   30      4.28      0.00
  -17    7   30     -0.45      0.00
  -15    7   30      3.38      0.00
  -13    7   30     -7.73      0.00
  -11    7   30      3.46      0.00
   -9    7   30     -1.43      0.00
   -7    7   30      7.08      0.00
   -5    7   30     -0.61      0.00
  -29    1   31      5.69      0.00
  -27    1   31      6.90      0.00
  -25    1   31     -3.18      0.00
  -23    1   31     -3.96      0.00
  -21    1   31      0.88      0.00
  -19    1   31      7.22      0.00
  -17    1   31      1.16      0.00
  -15    1   31     -3.77      0.00
  -13    1   31     -5.45      0.00
  -11    1   31     -6.94      0.00
   -9    1   31      5.50      0.00
   -7    1   31      3.18      0.00
   -5    1   31      7.37      0.00
   -3    1   31      4.72      0.00
   -1    1   31      7.03      0.00
    1    1   31     -3.24      0.00
    3    1   31     -4.97      0.00
  -28    2   31      0.70      0.00
  -26    2   31      2.82      0.00
  -24    2   31      1.43      0.00
  -22    2   31     -0.48      0.00
  -20    2   31     -2.17      0.00
  -18    2   31      4.61      0.00
  -16    2   31     -5.59      0.00
  -14    2   31      4.99      0.00
  -12    2   31     -3.58      0.00
  -10    2   31     -8.39      0.00
   -8    2   31      6.85      0.00
   -6    2   31     -4.04      0.00
   -4    2   31      7.86      0.00
   -2    2   31     -5.76      0.00
    0    2   31     -1.76      0.00
    2    2   31     -4.95      0.00
  -27    3   31      0.98      0.00
  -25    3   31      7.35      0.00
  -23    3   31      1.97      0.00
  -21    3   31     -2.31      0.00
  -19    3   31     -0.02      0.00
  -17    3   31      0.79      0.00
  -15    3   31      1.09      0.00
  -13    3   31      6.19      0.00
  -11    3   31      2.35      0.00
   -9    3   31     -8.56      0.00
   -7    3   31     -1.18      0.00
   -5    3   31     -0.87      0.00
   -3    3   31     -7.40      0.00
   -1    3   31     -1.89      0.00
    1    3   31     -9.22      0.00
  -26    4   31    -10.17      0.00
  -24    4   31     -0.02      0.00
  -22    4   31     -7.14      0.00
  -20    4   31      6.33      0.00
  -18    4   31     -9.40      0.00
  -16    4   31     -1.03      0.00
  -14    4   31     -2.80      0.00
  -12    4   31      2.08      0.00
  -10    4   31     -2.28      0.00
   -8    4   31      1.01      0.00
   -6    4   31     -1.11      0.00
   -4    4   31      4.30      0.00
   -2    4   31     -0.50      0.00
    0    4   31     11.26      0.00
  -23    5   31     -5.32      0.00
  -21    5   31      4.24      0.00
  -19    5   31      0.69      0.00
  -17    5   31     -4.39      0.00
  -15    5   31     -1.66      0.00
  -13    5   31     -3.39      0.00
  -11    5   31      3.13      0.00
   -9    5   31     10.75      0.00
   -7    5   31      3.17      0.00
   -5    5   31     -0.49      0.00
   -3    5   31      9.12      0.00
   -1    5   31     -8.56      0.00
  -20    6   31     -2.05      0.00
  -18    6   31      7.72      0.00
  -16    6   31      0.62      0.00
  -14    6   31      2.38      0.00
  -12    6   31     -6.59      0.00
  -10    6   31     -0.55      0.00
   -8    6   31     -4.18      0.00
   -6    6   31      2.83      0.00
   -4    6   31     -0.92      0.00
  -15    7   31      7.12      0.00
  -13    7   31      4.98      0.00
  -11    7   31      1.41      0.00
  -28    0   32      4.77      0.00
  -26    0   32      7.25      0.00
  -24    0   32     -4.87      0.00
  -22    0   32     -2.06      0.00
  -20    0   32     -8.37      0.00
  -18    0   32     -0.63      0.00
  -16    0   32      5.18      0.00
  -14    0   32      4.27      0.00
  -12    0   32      6.80      0.00
  -10    0   32     -5.12      0.00
   -8    0   32     -8.46      0.00
   -6    0   32      0.55      0.00
   -4    0   32      4.63      0.00
   -2    0   32    -10.40      0.00
    0    0   32     18.63      0.00
    2    0   32     -1.08      0.00
  -27    1   32     -1.40      0.00
  -25    1   32      3.94      0.00
  -23    1   32     -1.89      0.00
  -21    1   32     -1.20      0.00
  -19    1   32      9.39      0.00
  -17    1   32     -1.74      0.00
  -15    1   32     -7.52      0.00
  -13    1   32      6.70      0.00
  -11    1   32     -2.28      0.00
   -9    1   32     -2.52      0.00
   -7    1   32      1.22      0.00
   -5    1   32     -3.42      0.00
   -3    1   32     -1.02      0.00
   -1    1   32      3.90      0.00
    1    1   32      2.74      0.00
  -26    2   32     -6.88      0.00
  -24    2   32     -5.62      0.00
  -22    2   32      1.99      0.00
  -20    2   32      5.24      0.00
  -18    2   32     -1.95      0.00
  -16    2   32     -0.74      0.00
  -14    2   32     -3.08      0.00
  -12    2   32     -2.58      0.00
  -10    2   32      9.74      0.00
   -8    2   32     -2.26      0.00
   -6    2   32      5.14      0.00
   -4    2   32     10.15      0.00
   -2    2   32     -4.28      0.00
    0    2   32      2.11      0.00
  -25    3   32      1.12      0.00
  -23    3   32      6.52      0.00
  -21    3   32     -8.03      0.00
  -19    3   32      3.78      0.00
  -17    3   32     -1.35      0.00
  -15    3   32     -3.69      0.00
  -13    3   32      1.52      0.00
  -11    3   32      1.57      0.00
   -9    3   32      2.51      0.00
   -7    3   32     -4.44      0.00
   -5    3   32     -1.34      0.00
   -3    3   32     -6.67      0.00
   -1    3   32     -6.91      0.00
  -24    4   32     -2.53      0.00
  -22    4   32     -0.07      0.00
  -20    4   32      8.19      0.00
  -18    4   32     -2.42      0.00
  -16    4   32      2.30      0.00
  -14    4   32      1.90      0.00
  -12    4   32     -9.08      0.00
  -10    4   32     -7.82      0.00
   -8    4   32      3.08      0.00
   -6    4   32     -1.60      0.00
   -4    4   32     -6.22      0.00
   -2    4   32      7.14      0.00
  -21    5   32     -0.90      0.00
  -19    5   32     -6.06      0.00
  -17    5   32      6.47      0.00
  -15    5   32     -3.48      0.00
  -13    5   32      4.89      0.00
  -11    5   32      0.09      0.00
   -9    5   32     -2.83      0.00
   -7    5   32      2.05      0.00
   -5    5   32      6.27      0.00
  -18    6   32     -0.42      0.00
  -16    6   32     -2.17      0.00
  -14    6   32      1.01      0.00
  -12    6   32      6.97      0.00
  -10    6   32      8.70      0.00
   -8    6   32      4.71      0.00
  -25    1   33     -1.47      0.00
  -23    1   33     -4.95      0.00
  -21    1   33     -4.04      0.00
  -19    1   33      3.43      0.00
  -17    1   33      0.96      0.00
  -15    1   33      2.99      0.00
  -13    1   33      6.90      0.00
  -11    1   33     -7.58      0.00
   -9    1   33      6.62      0.00
   -7    1   33     -3.46      0.00
   -5    1   33      2.82      0.00
   -3    1   33     -0.18      0.00
   -1    1   33      6.49      0.00
  -26    2   33     -1.57      0.00
  -24    2   33     -5.58      0.00
  -22    2   33      9.03      0.00
  -20    2   33      5.41      0.00
  -18    2   33     -5.82      0.00
  -16    2   33     -2.56      0.00
  -14    2   33      1.71      0.00
  -12    2   33     -2.38      0.00
  -10    2   33     -0.36      0.00
   -8    2   33      8.59      0.00
   -6    2   33     -1.83      0.00
   -4    2   33      1.02      0.00
   -2    2   33      6.45      0.00
  -25    3   33      0.77      0.00
  -23    3   33     -7.68      0.00
  -21    3   33      0.69      0.00
  -19    3   33      6.41      0.00
  -17    3   33      2.81      0.00
  -15    3   33     -2.37      0.00
  -13    3   33      3.45      0.00
  -11    3   33      2.54      0.00
   -9    3   33     -0.40      0.00
   -7    3   33      1.84      0.00
   -5    3   33      9.82      0.00
   -3    3   33     -7.95      0.00
  -22    4   33     -4.92      0.00
  -20    4   33      0.14      0.00
  -18    4   33     -9.52      0.00
  -16    4   33      5.03      0.00
  -14    4   33      2.52      0.00
  -12    4   33      2.12      0.00
  -10    4   33     -3.24      0.00
   -8    4   33     -8.77      0.00
   -6    4   33     -7.17      0.00
   -4    4   33     -0.35      0.00
  -19    5   33     -3.97      0.00
  -17    5   33      0.53      0.00
  -15    5   33     -6.83      0.00
  -13    5   33     -8.33      0.00
  -11    5   33     -5.65      0.00
   -9    5   33      4.84      0.00
   -7    5   33      0.13      0.00
  -24    0   34     -1.58      0.00
  -22    0   34     -3.70      0.00
  -20    0   34      5.30      0.00
  -18    0   34    -10.34      0.00
  -16    0   34     -5.22      0.00
  -14    0   34     -5.11      0.00
  -12    0   34     -4.59      0.00
  -10    0   34     -2.42      0.00
   -8    0   34      2.59      0.00
   -6    0   34      2.72      0.00
   -4    0   34     -0.18      0.00
  -25    1   34      0.21      0.00
  -23    1   34     -0.52      0.00
  -21    1   34     -6.03      0.00
  -19    1   34      7.67      0.00
  -17    1   34      2.97      0.00
  -15    1   34     -0.69      0.00
  -13    1   34      2.33      0.00
  -11    1   34     -2.38      0.00
   -9    1   34     -6.22      0.00
   -7    1   34      7.08      0.00
   -5    1   34      3.68      0.00
   -3    1   34    -12.15      0.00
  -24    2   34     -0.32      0.00
  -22    2   34     -4.37      0.00
  -20    2   34      2.95      0.00
  -18    2   34     -7.42      0.00
  -16    2   34      0.99      0.00
  -14    2   34      6.54      0.00
  -12    2   34     -6.03      0.00
  -10    2   34      2.86      0.00
   -8    2   34     -3.13      0.00
   -6    2   34     -4.33      0.00
   -4    2   34      4.21      0.00
  -23    3   34     10.28      0.00
  -21    3   34      3.39      0.00
  -19    3   34     -5.77      0.00
  -17    3   34     -0.85      0.00
  -15    3   34     -3.80      0.00
  -13    3   34      3.21      0.00
  -11    3   34     11.75      0.00
   -9    3   34      6.75      0.00
   -7    3   34      2.96      0.00
   -5    3   34     -3.29      0.00
  -20    4   34     12.71      0.00
  -18    4   34      1.58      0.00
  -16    4   34     -4.10      0.00
  -14    4   34      6.19      0.00
  -12    4   34     -2.52      0.00
  -10    4   34     -3.52      0.00
   -8    4   34      5.90      0.00
  -15    5   34     -1.79      0.00
  -13    5   34     -0.86      0.00
  -23    1   35     -0.63      0.00
  -21    1   35     -0.64      0.00
  -19    1   35     -0.59      0.00
  -17    1   35     -3.93      0.00
  -15    1   35     -4.56      0.00
  -13    1   35      2.61      0.00
  -11    1   35     -1.35      0.00
   -9    1   35     11.24      0.00
   -7    1   35      2.44      0.00
  -22    2   35     -0.38      0.00
  -20    2   35     10.01      0.00
  -18    2   35      0.54      0.00
  -16    2   35      2.75      0.00
  -14    2   35     -6.72      0.00
  -12    2   35     -7.11      0.00
  -10    2   35      2.43      0.00
   -8    2   35      0.61      0.00
   -6    2   35      7.66      0.00
  -19    3   35     -4.62      0.00
  -17    3   35      5.00      0.00
  -15    3   35      1.05      0.00
  -13    3   35     -0.15      0.00
  -11    3   35     -5.36      0.00
   -9    3   35     -1.00      0.00
  -16    4   35     -0.75      0.00
  -14    4   35      5.14      0.00
  -20    0   36      7.55      0.00
  -18    0   36      2.55      0.00
  -16    0   36     -0.56      0.00
  -14    0   36     -0.04      0.00
  -12    0   36     -9.31      0.00
  -10    0   36     -9.83      0.00
  -19    1   36     -7.65      0.00
  -17    1   36      0.04      0.00
  -15    1   36      5.71      0.00
  -13    1   36     -2.59      0.00
  -11    1   36     -0.05      0.00
   -9    1   36     -1.12      0.00
  -18    2   36     -1.29      0.00
  -16    2   36     -1.21      0.00
  -14    2   36      5.10      0.00
  -12    2   36      2.68      0.00
    2    0    0   -115.54      0.00
    1    1    0    -67.48      0.00
    0    2    0   -166.71      0.00
    7   13    0     -9.21      0.00
    1    1    1   -221.75      0.00
   -2    2    1    -25.16      0.00
  -29    5    1      3.78      0.00
  -28    6    1      2.87      0.00
   -7   13    1      3.96      0.00
   -2    0    2   -249.95      0.00
    0    0    2    304.68      0.00
    2    0    2    -57.52      0.00
    4    0    2     46.59      0.00
   30    0    2      5.83      0.00
    1    1    2   -102.97      0.00
    0    2    2    -64.35      0.00
  -27    7    2     -7.10      0.00
   -7   13    2     -6.12      0.00
    1    1    3   -104.66      0.00
   -4    2    3     53.95      0.00
   -2    2    3     86.02      0.00
   25    7    3     -2.29      0.00
   -7   13    3      2.75      0.00
    5   13    3     -5.35      0.00
   -2    0    4    286.80      0.00
    2    0    4   -201.72      0.00
    1    1    4    -35.16      0.00
   29    1    4     -3.59      0.00
  -32    2    4     -3.07      0.00
   -4    2    4     -7.26      0.00
   -2    2    4    -51.64      0.00
   21    9    4      1.76      0.00
   -7   13    4     -7.91      0.00
    1    1    5   -126.47      0.00
    3    1    5     29.10      0.00
   -4    2    5     24.83      0.00
   -7   13    5     -1.77      0.00
    3   13    5     -4.16      0.00
    0    0    6     45.08      0.00
    2    0    6    -22.81      0.00
   28    0    6      5.75      0.00
   -7   13    6      4.11      0.00
   26    4    7     -3.63      0.00
   24    6    7     -0.17      0.00
   -7   13    7      4.98      0.00
   -5   13    7    -10.38      0.00
    1   13    7      4.78      0.00
    0    0    8     -1.87      0.00
    1    1    8    -21.86      0.00
  -32    4    8     -1.14      0.00
  -30    6    8      4.16      0.00
   13   11    8     -5.25      0.00
   -5   13    8      9.51      0.00
   -3   13    8    -13.11      0.00
   -1   13    8     -1.62      0.00
    1    1    9      3.07      0.00
   26    2    9      1.11      0.00
  -33    3   10     -4.06      0.00
  -29    7   10      1.24      0.00
  -14   12   11     -0.03      0.00
   -2    0   12      3.58      0.00
   24    2   12     -0.49      0.00
  -14   12   12      4.41      0.00
    4   12   12     -2.54      0.00
   22    4   13      2.02      0.00
   20    6   13      3.97      0.00
  -19   11   13     -4.96      0.00
   -4    0   14     -0.25      0.00
    6    0   14     10.81      0.00
  -12   12   14     -1.36      0.00
  -34    2   15     -5.76      0.00
   17    7   15      0.64      0.00
   13    9   15      8.09      0.00
  -34    2   16      2.68      0.00
  -25    9   16     -2.99      0.00
  -22   10   16      4.82      0.00
   -8   12   16      6.03      0.00
   -6   12   16      1.38      0.00
   -4   12   16     -4.60      0.00
  -34    2   17     -1.67      0.00
   20    2   17      9.40      0.00
  -29    7   17      4.90      0.00
   11    9   17     -5.73      0.00
  -17   11   17      0.43      0.00
    3   11   17      4.58      0.00
   16    0   18      8.58      0.00
   18    0   18      8.28      0.00
   19    1   18     -5.78      0.00
   18    4   18     -2.27      0.00
   17    5   18     -7.87      0.00
   18    2   19     -4.61      0.00
  -15   11   19      4.81      0.00
   -1   11   19      3.67      0.00
  -34    0   20     -6.55      0.00
   16    0   20      7.91      0.00
   17    1   20     -0.81      0.00
  -30    6   20      2.21      0.00
  -20   10   20     -2.61      0.00
  -13   11   20      6.50      0.00
   -3   11   20      8.41      0.00
  -33    3   21      9.86      0.00
   11    7   21     -5.30      0.00
  -26    8   21     -2.03      0.00
  -23    9   21     10.28      0.00
    2   10   21      1.99      0.00
   -9   11   21     -2.80      0.00
   14    0   22     -7.75      0.00
  -32    4   22      0.62      0.00
   13    5   22      2.78      0.00
  -18   10   22      1.26      0.00
    0   10   22     -1.97      0.00
    3    9   23    -10.86      0.00
  -16   10   23     -5.90      0.00
   12    0   24      0.41      0.00
  -14   10   24      0.93      0.00
   -6   10   24      8.16      0.00
  -19    9   25      2.21      0.00
   -1    9   25      4.37      0.00
  -32    2   26     -9.51      0.00
  -30    4   27     -2.09      0.00
    8    4   27      1.17      0.00
   -9    9   27      1.03      0.00
    5    5   28      3.93      0.00
  -26    6   28      0.01      0.00
  -14    8   28      3.04      0.00
  -27    5   29     -7.84      0.00
  -16    8   29     -4.76      0.00
  -22    6   31     -1.34      0.00
  -17    7   31     -7.19      0.00
   -9    7   31     -0.85      0.00
  -23    5   32     -0.87      0.00
   -3    5   32      0.25      0.00
  -27    1   33     -0.56      0.00
  -21    5   33      5.37      0.00
  -14    6   33      4.03      0.00
  -12    6   33     -0.39      0.00
  -26    0   34      4.30      0.00
   -2    0   34     -4.33      0.00
   -6    4   34      1.04      0.00
  -17    5   34      8.58      0.00
  -11    5   34      1.64      0.00
   -5    1   35     -1.15      0.00
  -21    3   35     -5.66      0.00
  -18    4   35     -4.20      0.00
  -12    4   35      5.76      0.00
   -8    0   36      0.22      0.00
  -21    1   36     -0.49      0.00
  -20    2   36      5.76      0.00
  -10    2   36      0.85      0.00
  -15    3   36     -4.90      0.00
    0    0    0      0.00      0.00
# SQUEEZE RESULTS (Version =  90522)
# Note: Data are Listed for all Voids in the P1 Unit Cell
# i.e. Centre of Gravity, Solvent Accessible Volume,
# Recovered number of Electrons in the Void and
# Details about the Squeezed Material
loop_
  _platon_squeeze_void_nr
  _platon_squeeze_void_average_x
  _platon_squeeze_void_average_y
  _platon_squeeze_void_average_z
  _platon_squeeze_void_volume
  _platon_squeeze_void_count_electrons
  _platon_squeeze_void_content
   1 -0.027  0.750  0.223      1272       444 ' '
   2 -0.027  0.250  0.723      1272       444 ' '
# Missing Reflections Below sin(th)/lambda = 0.25
loop_
  _platon_missing_refln_index_h
  _platon_missing_refln_index_k
  _platon_missing_refln_index_l
  _platon_missing_refln_theta
    2    0    0     1.719
    1    1    0     2.169
    0    2    0     3.986
    1    1    1     2.439
   -2    2    1     4.276
   -2    0    2     1.764
    0    0    2     1.601
    2    0    2     2.816
    4    0    2     4.385
    1    1    2     2.911
    0    2    2     4.296
    1    1    3     3.505
   -4    2    3     5.128
   -2    2    3     4.584
   -2    0    4     2.898
    2    0    4     4.248
    1    1    4     4.170
   -4    2    4     5.327
   -2    2    4     4.930
    1    1    5     4.876
    3    1    5     5.981
   -4    2    5     5.636
    0    0    6     4.807
    2    0    6     5.774
    0    0    8     6.415
    1    1    8     7.125
    1    1    9     7.898
   -2    0   12     9.023
_platon_squeeze_void_probe_radius                  1.20
_platon_squeeze_details
)
TITL skchat in C2/c
CELL   26.3440   10.2250   28.2920     90.00    115.93     90.00
SPGR C2/c
# Solvent Accessible Volume =      2554
# Electrons Found in S.A.V. =       886
# Note: Atoms in Void are Labelled as Cxxx and Qxxx for all Others
C101 0.330 0.394 0.939 !       3.16 eA-3
Q102 0.923 0.409 0.670 !       3.09 eA-3
C103 0.201 0.150 0.045 !       2.38 eA-3
C104 0.641 0.386 0.557 !       2.37 eA-3
C105 0.306 0.255 0.968 !       2.31 eA-3
C106 0.874 0.344 0.687 !       2.23 eA-3
C107 0.867 0.395 0.668 !       2.22 eA-3
C108 0.899 0.129 0.458 !       2.20 eA-3
C109 0.625 0.063 0.359 !       2.19 eA-3
C110 0.103 0.210 0.054 !       2.19 eA-3
C111 0.663 0.188 0.391 !       2.12 eA-3
C112 0.328 0.192 0.133 !       2.12 eA-3
C113 0.881 0.346 0.481 !       2.00 eA-3
C114 0.132 0.302 0.034 !       1.99 eA-3
C115 0.900 0.184 0.486 !       1.86 eA-3
C116 0.657 0.256 0.500 !       1.86 eA-3
C117 0.446 0.174 0.164 !       1.69 eA-3
C118 0.133 0.251 0.832 !       1.68 eA-3
C119 0.565 0.150 0.367 !       1.56 eA-3
C120 0.593 0.187 0.266 !       1.56 eA-3
C121 0.669 0.140 0.399 !       1.54 eA-3
C122 0.602 0.104 0.285 !       1.51 eA-3
C123 0.397 0.125 0.131 !       1.51 eA-3
C124 0.594 0.310 0.339 !       1.50 eA-3
C125 0.602 0.213 0.529 !       1.48 eA-3
C126 0.844 0.406 0.633 !       1.47 eA-3
C127 0.408 0.187 0.211 !       1.47 eA-3
Q128 0.357 0.062 0.025 !       1.39 eA-3
Q129 0.079 0.209 0.067 !       1.37 eA-3
C130 0.618 0.252 0.366 !       1.35 eA-3
C131 0.791 0.256 0.425 !       1.34 eA-3
C132 0.291 0.257 0.934 !       1.34 eA-3
C133 0.908 0.212 0.518 !       1.33 eA-3
Q134 0.349 0.037 0.554 !       1.25 eA-3
C135 0.412 0.407 0.987 !       1.25 eA-3
C136 0.587 0.197 0.466 !       1.25 eA-3
Q137 0.280 0.033 0.345 !       1.21 eA-3
C138 0.368 0.153 0.026 !       1.20 eA-3
C139 0.297 0.119 0.134 !       1.18 eA-3
Q140 0.922 0.321 0.404 !       1.18 eA-3
C141 0.225 0.087 0.067 !       1.17 eA-3
C142 0.767 0.286 0.438 !       1.17 eA-3
Q143 0.695 0.060 0.939 !       1.17 eA-3
Q144 0.530 0.307 0.351 !       1.16 eA-3
Q145 0.845 0.031 0.466 !       1.15 eA-3
Q146 0.996 0.055 0.827 !       1.14 eA-3
C147 0.602 0.081 0.389 !       1.14 eA-3
C148 0.607 0.125 0.464 !       1.12 eA-3
C149 0.275 0.259 0.978 !       1.12 eA-3
Q150 0.570 0.156 0.494 !       1.11 eA-3
C151 0.436 0.250 0.005 !       1.11 eA-3
C152 0.875 0.184 0.669 !       1.10 eA-3
Q153 0.930 0.490 0.068 !       1.10 eA-3
Q154 0.837 0.064 0.154 !       1.09 eA-3
C155 0.241 0.315 0.013 !       1.09 eA-3
Q156 0.618 0.410 0.460 !       1.09 eA-3
Q157 0.071 0.489 0.433 !       1.09 eA-3
C158 0.897 0.317 0.603 !       1.09 eA-3
C159 0.256 0.253 0.006 !       1.08 eA-3
Q160 0.882 0.027 0.487 !       1.07 eA-3
C161 0.577 0.215 0.324 !       1.07 eA-3
Q162 0.259 0.066 0.875 !       1.07 eA-3
C163 0.193 0.381 0.066 !       1.07 eA-3
C164 0.369 0.257 0.914 !       1.06 eA-3
C165 0.828 0.309 0.526 !       1.06 eA-3
Q166 0.367 0.412 0.886 !       1.06 eA-3
Q167 0.068 0.466 0.004 !       1.06 eA-3
Q168 0.554 0.044 0.926 !       1.05 eA-3
Q169 0.596 0.023 0.457 !       1.04 eA-3
Q170 0.445 0.336 0.366 !       1.04 eA-3
Q171 0.118 0.054 0.444 !       1.04 eA-3
C172 0.945 0.289 0.634 !       1.04 eA-3
Q173 0.523 0.380 0.318 !       1.04 eA-3
Q174 0.735 0.316 0.371 !       1.03 eA-3
Q175 0.540 0.274 0.205 !       1.03 eA-3
Q176 0.538 0.247 0.041 !       1.03 eA-3
C177 0.852 0.316 0.538 !       1.02 eA-3
Q178 0.869 0.402 0.758 !       1.01 eA-3
Q179 0.985 0.221 0.837 !       1.01 eA-3
C180 0.585 0.133 0.245 !       1.01 eA-3
Q181 0.884 0.440 0.867 !       1.00 eA-3
Q182 0.478 0.276 0.018 !       1.00 eA-3
Q183 0.320 0.470 0.433 !       1.00 eA-3
C184 0.314 0.030 0.135 !       1.00 eA-3
C185 0.064 0.161 0.983 !       0.99 eA-3
C186 0.131 0.162 0.999 !       0.99 eA-3
Q187 0.304 0.471 0.465 !       0.99 eA-3
Q188 0.523 0.351 0.189 !       0.98 eA-3
Q189 0.572 0.099 0.460 !       0.98 eA-3
Q190 0.998 0.129 0.665 !       0.98 eA-3
Q191 0.006 0.099 0.188 !       0.97 eA-3
C192 0.718 0.194 0.404 !       0.96 eA-3
C193 0.968 0.398 0.647 !       0.96 eA-3
Q194 0.225 0.032 0.123 !       0.96 eA-3
Q195 0.179 0.229 0.969 !       0.96 eA-3
Q196 0.491 0.280 0.318 !       0.95 eA-3
Q197 0.016 0.190 0.878 !       0.95 eA-3
Q198 0.789 0.215 0.581 !       0.94 eA-3
Q199 0.509 0.497 0.235 !       0.94 eA-3
)
;
_shelx_fab_checksum              58978
loop_
_space_group_symop_operation_xyz
'x, y, z'
'-x, y, -z+1/2'
'x+1/2, y+1/2, z'
'-x+1/2, y+1/2, -z+1/2'
'-x, -y, -z'
'x, -y, z-1/2'
'-x+1/2, -y+1/2, -z'
'x+1/2, -y+1/2, z-1/2'
loop_
_atom_site_label
_atom_site_type_symbol
_atom_site_fract_x
_atom_site_fract_y
_atom_site_fract_z
_atom_site_U_iso_or_equiv
_atom_site_adp_type
_atom_site_occupancy
_atom_site_site_symmetry_order
_atom_site_calc_flag
_atom_site_refinement_flags_posn
_atom_site_refinement_flags_adp
_atom_site_refinement_flags_occupancy
_atom_site_disorder_assembly
_atom_site_disorder_group
Fe1 Fe 0.500000 2.76730(16) 0.250000 0.0459(4) Uani 1 2 d S T P . .
N1 N 0.5303(3) 2.7720(7) 0.1955(2) 0.0528(18) Uani 1 1 d . . . . .
N2 N 0.4209(3) 2.7657(7) 0.1916(2) 0.0477(17) Uani 1 1 d . . . . .
O1 O 0.500000 2.5621(7) 0.250000 0.056(2) Uani 1 2 d DS T P . .
O2 O 0.500000 2.9748(9) 0.250000 0.082(3) Uani 1 2 d DS T P . .
Br1 Br 0.64183(4) 3.00172(10) 0.16899(4) 0.0712(4) Uani 1 1 d . . . . .
Br2 Br 0.50782(5) 2.98882(11) 0.06655(4) 0.0765(4) Uani 1 1 d . . . . .
Br3 Br 0.32773(5) 2.54754(12) 0.05935(4) 0.0802(4) Uani 1 1 d . . . . .
Br4 Br 0.27807(4) 2.54948(10) 0.15517(4) 0.0627(3) Uani 1 1 d . . . . .
C1 C 0.5847(4) 2.8143(8) 0.2094(3) 0.050(2) Uani 1 1 d . . . . .
C2 C 0.5835(4) 2.8918(9) 0.1672(3) 0.059(2) Uani 1 1 d . . . . .
C3 C 0.5315(3) 2.8869(9) 0.1274(3) 0.054(2) Uani 1 1 d . . . . .
C4 C 0.4973(4) 2.8086(8) 0.1447(3) 0.053(2) Uani 1 1 d . . . . .
C5 C 0.4424(4) 2.7637(9) 0.1162(3) 0.054(2) Uani 1 1 d . . . . .
C6 C 0.4089(3) 2.7231(8) 0.1414(3) 0.050(2) Uani 1 1 d . . . . .
C7 C 0.3584(3) 2.6477(8) 0.1218(3) 0.050(2) Uani 1 1 d . . . . .
C8 C 0.3371(3) 2.6529(8) 0.1573(3) 0.051(2) Uani 1 1 d . . . . .
C9 C 0.3766(4) 2.7267(8) 0.2010(3) 0.047(2) Uani 1 1 d . . . . .
C10 C 0.3692(4) 2.7732(8) 0.2439(3) 0.046(2) Uani 1 1 d . . . . .
C11 C 0.4178(3) 2.7637(8) 0.05795(19) 0.077(3) Uani 1 1 d G . . . .
C12 C 0.4466(3) 2.7021(8) 0.0331(3) 0.098(4) Uani 1 1 d G . . . .
H12A H 0.481311 2.658835 0.053395 0.118 Uiso 1 1 calc R U . . .
C13 C 0.4246(4) 2.7039(9) -0.0214(3) 0.135(5) Uani 1 1 d G U . . .
H13A H 0.444310 2.661864 -0.038350 0.162 Uiso 1 1 calc R U . . .
C14 C 0.3738(4) 2.7673(9) -0.05104(19) 0.131(6) Uani 1 1 d G U . . .
H14A H 0.358804 2.768491 -0.088291 0.157 Uiso 1 1 calc R U . . .
C15 C 0.3450(3) 2.8288(9) -0.0262(3) 0.139(6) Uani 1 1 d G U . . .
H15A H 0.310298 2.872091 -0.046487 0.167 Uiso 1 1 calc R U . . .
C16 C 0.3670(3) 2.8270(8) 0.0283(3) 0.110(5) Uani 1 1 d G . . . .
H16A H 0.347298 2.869065 0.045259 0.132 Uiso 1 1 calc R U . . .
C17 C 0.3114(4) 2.7787(8) 0.2423(3) 0.054(2) Uani 1 1 d . . . . .
C18 C 0.2991(4) 2.7169(9) 0.2788(4) 0.058(2) Uani 1 1 d . . . . .
H18A H 0.327204 2.667196 0.306094 0.070 Uiso 1 1 calc R U . . .
C19 C 0.2463(5) 2.7268(12) 0.2759(4) 0.079(3) Uani 1 1 d . . . . .
H19A H 0.237622 2.683797 0.301208 0.095 Uiso 1 1 calc R U . . .
C20 C 0.2055(4) 2.7984(10) 0.2367(4) 0.069(3) Uani 1 1 d . . . . .
H20A H 0.169086 2.807084 0.235519 0.083 Uiso 1 1 calc R U . . .
C21 C 0.2175(4) 2.8570(11) 0.1996(4) 0.069(3) Uani 1 1 d . . . . .
H21A H 0.188756 2.904789 0.172040 0.083 Uiso 1 1 calc R U . . .
C22 C 0.2691(3) 2.8486(9) 0.2011(3) 0.053(2) Uani 1 1 d . . . . .
H22A H 0.276811 2.889267 0.174815 0.063 Uiso 1 1 calc R U . . .
Cl1 Cl 0.4496(2) 3.4432(5) 0.3434(2) 0.0621(12) Uani 0.5 1 d . . P . .
O1S O 0.4382(7) 3.4254(17) 0.2915(6) 0.104(6) Uani 0.5 1 d . . P . .
O2S O 0.5088(6) 3.4662(14) 0.3640(8) 0.100(5) Uani 0.5 1 d . . P . .
O3S O 0.4419(7) 3.3145(15) 0.3573(6) 0.092(5) Uani 0.5 1 d . . P . .
O4S O 0.4219(8) 3.530(2) 0.3577(9) 0.137(8) Uani 0.5 1 d . . P . .
H1A H 0.518700 2.519200 0.243000 0.050 Uiso 1 1 d D . . . .
H2A H 0.469000 3.020200 0.232300 0.050 Uiso 1 1 d D . . . .
loop_
_atom_site_aniso_label
_atom_site_aniso_U_11
_atom_site_aniso_U_22
_atom_site_aniso_U_33
_atom_site_aniso_U_23
_atom_site_aniso_U_13
_atom_site_aniso_U_12
Fe1 0.0422(10) 0.0486(10) 0.0354(9) 0.000 0.0065(7) 0.000
N1 0.042(4) 0.063(5) 0.035(4) 0.018(3) -0.001(3) 0.001(3)
N2 0.042(4) 0.052(4) 0.042(4) 0.002(3) 0.012(3) -0.010(3)
O1 0.073(6) 0.040(5) 0.071(6) 0.000 0.046(5) 0.000
O2 0.044(6) 0.061(6) 0.117(9) 0.000 0.012(5) 0.000
Br1 0.0526(6) 0.0703(7) 0.0820(7) 0.0205(5) 0.0213(5) -0.0106(5)
Br2 0.0655(7) 0.0877(8) 0.0633(6) 0.0355(5) 0.0162(5) -0.0093(5)
Br3 0.0799(8) 0.1115(9) 0.0432(5) -0.0183(5) 0.0215(5) -0.0438(7)
Br4 0.0584(6) 0.0728(7) 0.0528(6) -0.0083(4) 0.0204(4) -0.0239(5)
C1 0.045(5) 0.053(5) 0.045(5) 0.016(4) 0.013(4) 0.001(4)
C2 0.046(6) 0.074(6) 0.045(5) 0.007(4) 0.008(4) -0.008(5)
C3 0.042(5) 0.057(5) 0.055(5) 0.017(4) 0.014(4) -0.009(4)
C4 0.042(5) 0.056(5) 0.056(5) 0.018(4) 0.017(4) -0.002(4)
C5 0.051(6) 0.072(6) 0.023(4) 0.008(4) 0.002(4) -0.011(5)
C6 0.046(5) 0.057(5) 0.030(4) 0.007(4) 0.002(4) -0.012(4)
C7 0.051(5) 0.059(5) 0.030(4) 0.000(4) 0.009(4) -0.018(4)
C8 0.037(5) 0.062(6) 0.040(5) 0.008(4) 0.004(4) -0.010(4)
C9 0.050(5) 0.037(4) 0.048(5) 0.000(4) 0.016(4) -0.005(4)
C10 0.052(5) 0.040(5) 0.042(5) 0.005(4) 0.016(4) 0.000(4)
C11 0.070(7) 0.105(9) 0.046(6) 0.022(5) 0.015(5) -0.034(6)
C12 0.095(9) 0.138(11) 0.044(6) 0.000(6) 0.014(6) -0.049(8)
C13 0.211(15) 0.115(11) 0.068(9) -0.012(7) 0.049(9) -0.061(10)
C14 0.187(12) 0.126(10) 0.041(6) 0.004(6) 0.015(7) -0.079(9)
C15 0.136(11) 0.166(12) 0.056(7) 0.031(8) -0.013(7) -0.051(10)
C16 0.102(10) 0.121(10) 0.049(6) 0.046(6) -0.023(6) -0.042(8)
C17 0.048(6) 0.045(5) 0.054(5) -0.006(4) 0.010(4) -0.007(4)
C18 0.051(6) 0.062(6) 0.064(6) 0.000(5) 0.028(5) -0.009(5)
C19 0.067(8) 0.095(8) 0.068(7) -0.014(6) 0.022(6) -0.008(6)
C20 0.053(7) 0.074(7) 0.078(7) -0.020(6) 0.027(6) -0.009(5)
C21 0.039(6) 0.090(8) 0.056(6) -0.011(5) 0.000(4) 0.008(5)
C22 0.038(5) 0.065(6) 0.039(4) 0.000(4) 0.003(4) -0.004(4)
Cl1 0.063(3) 0.066(3) 0.072(3) -0.002(2) 0.043(3) -0.002(2)
O1S 0.116(13) 0.138(14) 0.075(10) -0.020(9) 0.057(9) -0.092(11)
O2S 0.058(10) 0.076(10) 0.168(17) -0.009(10) 0.052(10) 0.003(8)
O3S 0.115(13) 0.089(11) 0.089(11) 0.040(8) 0.061(10) -0.006(9)
O4S 0.075(13) 0.19(2) 0.128(17) 0.032(15) 0.027(11) -0.018(13)
loop_
_atom_type_symbol
_atom_type_description
_atom_type_scat_dispersion_real
_atom_type_scat_dispersion_imag
_atom_type_scat_source
C C 0.0033 0.0016 'International Tables Vol C Tables 4.2.6.8 and 6.1.1.4'
H H 0.0000 0.0000 'International Tables Vol C Tables 4.2.6.8 and 6.1.1.4'
N N 0.0061 0.0033 'International Tables Vol C Tables 4.2.6.8 and 6.1.1.4'
O O 0.0106 0.0060 'International Tables Vol C Tables 4.2.6.8 and 6.1.1.4'
Cl Cl 0.1484 0.1585 'International Tables Vol C Tables 4.2.6.8 and 6.1.1.4'
Fe Fe 0.3463 0.8444 'International Tables Vol C Tables 4.2.6.8 and 6.1.1.4'
Br Br -0.2901 2.4595 'International Tables Vol C Tables 4.2.6.8 and 6.1.1.4'
loop_
_geom_angle_atom_site_label_1
_geom_angle_atom_site_label_2
_geom_angle_atom_site_label_3
_geom_angle
_geom_angle_site_symmetry_1
_geom_angle_site_symmetry_3
_geom_angle_publ_flag
N2 Fe1 N2 179.1(4) 2_655 . ?
N2 Fe1 N1 90.8(3) 2_655 . ?
N2 Fe1 N1 89.3(3) . . ?
N2 Fe1 N1 89.3(3) 2_655 2_655 ?
N2 Fe1 N1 90.8(3) . 2_655 ?
N1 Fe1 N1 177.3(4) . 2_655 ?
N2 Fe1 O1 89.53(19) 2_655 . ?
N2 Fe1 O1 89.53(19) . . ?
N1 Fe1 O1 91.3(2) . . ?
N1 Fe1 O1 91.3(2) 2_655 . ?
N2 Fe1 O2 90.47(19) 2_655 . ?
N2 Fe1 O2 90.47(19) . . ?
N1 Fe1 O2 88.7(2) . . ?
N1 Fe1 O2 88.7(2) 2_655 . ?
O1 Fe1 O2 180.0 . . ?
C4 N1 C1 108.6(7) . . ?
C4 N1 Fe1 121.7(6) . . ?
C1 N1 Fe1 119.8(5) . . ?
C9 N2 C6 106.1(7) . . ?
C9 N2 Fe1 120.7(5) . . ?
C6 N2 Fe1 122.2(6) . . ?
N1 C1 C10 122.4(7) . 2_655 ?
N1 C1 C2 107.3(7) . . ?
C10 C1 C2 130.2(8) 2_655 . ?
C3 C2 C1 108.8(8) . . ?
C3 C2 Br1 124.5(7) . . ?
C1 C2 Br1 126.2(6) . . ?
C2 C3 C4 107.3(8) . . ?
C2 C3 Br2 124.0(7) . . ?
C4 C3 Br2 127.9(6) . . ?
N1 C4 C5 122.8(7) . . ?
N1 C4 C3 107.7(7) . . ?
C5 C4 C3 129.3(8) . . ?
C4 C5 C6 121.6(7) . . ?
C4 C5 C11 118.9(7) . . ?
C6 C5 C11 119.4(7) . . ?
N2 C6 C5 120.7(7) . . ?
N2 C6 C7 108.8(7) . . ?
C5 C6 C7 130.2(7) . . ?
C8 C7 C6 108.2(7) . . ?
C8 C7 Br3 124.7(6) . . ?
C6 C7 Br3 126.9(6) . . ?
C7 C8 C9 106.2(7) . . ?
C7 C8 Br4 124.6(6) . . ?
C9 C8 Br4 127.6(7) . . ?
N2 C9 C10 121.8(7) . . ?
N2 C9 C8 110.4(7) . . ?
C10 C9 C8 127.1(8) . . ?
C9 C10 C1 121.6(8) . 2_655 ?
C9 C10 C17 120.9(7) . . ?
C1 C10 C17 117.5(7) 2_655 . ?
C12 C11 C16 120.0 . . ?
C12 C11 C5 119.4(6) . . ?
C16 C11 C5 120.6(6) . . ?
C13 C12 C11 120.0 . . ?
C14 C13 C12 120.0 . . ?
C13 C14 C15 120.0 . . ?
C16 C15 C14 120.0 . . ?
C15 C16 C11 120.0 . . ?
C18 C17 C22 119.8(9) . . ?
C18 C17 C10 122.2(8) . . ?
C22 C17 C10 118.0(8) . . ?
C19 C18 C17 119.6(10) . . ?
C18 C19 C20 120.6(11) . . ?
C21 C20 C19 119.7(10) . . ?
C22 C21 C20 121.2(9) . . ?
C21 C22 C17 119.0(9) . . ?
O4S Cl1 O1S 121.5(14) . . ?
O4S Cl1 O3S 112.2(12) . . ?
O1S Cl1 O3S 100.5(10) . . ?
O4S Cl1 O2S 114.5(12) . . ?
O1S Cl1 O2S 98.4(10) . . ?
O3S Cl1 O2S 107.7(10) . . ?
loop_
_geom_bond_atom_site_label_1
_geom_bond_atom_site_label_2
_geom_bond_distance
_geom_bond_site_symmetry_2
_geom_bond_publ_flag
Fe1 N2 2.015(6) 2_655 ?
Fe1 N2 2.015(6) . ?
Fe1 N1 2.024(7) . ?
Fe1 N1 2.024(7) 2_655 ?
Fe1 O1 2.098(8) . ?
Fe1 O2 2.122(9) . ?
N1 C4 1.366(10) . ?
N1 C1 1.378(10) . ?
N2 C9 1.362(10) . ?
N2 C6 1.386(10) . ?
Br1 C2 1.886(9) . ?
Br2 C3 1.871(8) . ?
Br3 C7 1.891(8) . ?
Br4 C8 1.859(8) . ?
C1 C10 1.413(11) 2_655 ?
C1 C2 1.422(11) . ?
C2 C3 1.340(11) . ?
C3 C4 1.442(11) . ?
C4 C5 1.390(11) . ?
C5 C6 1.416(12) . ?
C5 C11 1.485(9) . ?
C6 C7 1.424(11) . ?
C7 C8 1.349(12) . ?
C8 C9 1.434(11) . ?
C9 C10 1.396(11) . ?
C10 C17 1.503(12) . ?
C11 C12 1.3900 . ?
C11 C16 1.3900 . ?
C12 C13 1.3900 . ?
C13 C14 1.3900 . ?
C14 C15 1.3900 . ?
C15 C16 1.3900 . ?
C17 C18 1.365(12) . ?
C17 C22 1.406(11) . ?
C18 C19 1.360(13) . ?
C19 C20 1.369(15) . ?
C20 C21 1.360(14) . ?
C21 C22 1.344(12) . ?
Cl1 O4S 1.32(3) . ?
Cl1 O1S 1.376(14) . ?
Cl1 O3S 1.413(14) . ?
Cl1 O2S 1.426(15) . ?
loop_
_geom_hbond_atom_site_label_D
_geom_hbond_atom_site_label_H
_geom_hbond_atom_site_label_A
_geom_hbond_distance_DH
_geom_hbond_distance_HA
_geom_hbond_distance_DA
_geom_hbond_angle_DHA
_geom_hbond_site_symmetry_A
_geom_hbond_publ_flag
O1 H1A O1S 0.75 2.03 2.768(13) 167.1 2_645 yes
