#------------------------------------------------------------------------------
#$Date: 2023-06-02 11:59:29 +0300 (Fri, 02 Jun 2023) $
#$Revision: 284152 $
#$URL: file:///home/coder/svn-repositories/cod/cif/8/10/72/8107296.cif $
#------------------------------------------------------------------------------
#
# This file is available in the Crystallography Open Database (COD),
# http://www.crystallography.net/
#
# All data on this site have been placed in the public domain by the
# contributors.
#
data_8107296
loop_
_publ_author_name
'Zhou, Tingting'
_publ_section_title
;
 The crystal structure of
 dimethanol-\k1O-(5,10,15,20-tetrakis(4-nitrophenyl)porphyrin-21,23-diido-\k4
 O,O&#x2032;,O&#x2033;,O&#x2032;&#x2033;)manganese(III)
 trans-dicyanido-\k1C-bis(acetylacetonato-\k2 O,O&#x2032;)ruthenium(III),
 C58H46N10O14RuMn
;
_journal_issue                   6
_journal_name_full
'Zeitschrift f\"ur Kristallographie - New Crystal Structures'
_journal_page_first              1071
_journal_page_last               1073
_journal_paper_doi               10.1515/ncrs-2022-0349
_journal_volume                  237
_journal_year                    2022
_chemical_formula_moiety         'C46 H32 Mn N8 O10, C12 H14 N2 O4 Ru'
_chemical_formula_sum            'C58 H46 Mn N10 O14 Ru'
_chemical_formula_weight         1263.06
_space_group_crystal_system      triclinic
_space_group_IT_number           2
_space_group_name_Hall           '-P 1'
_space_group_name_H-M_alt        'P -1'
_atom_sites_solution_hydrogens   mixed
_audit_creation_method           SHELXL-2018/3
_cell_angle_alpha                107.379(4)
_cell_angle_beta                 98.415(4)
_cell_angle_gamma                93.430(4)
_cell_formula_units_Z            1
_cell_length_a                   8.0148(18)
_cell_length_b                   12.141(3)
_cell_length_c                   14.843(3)
_cell_measurement_reflns_used    1982
_cell_measurement_temperature    293(2)
_cell_measurement_theta_max      27.061
_cell_measurement_theta_min      2.871
_cell_volume                     1355.3(5)
_computing_cell_refinement       'SAINT-Plus (Bruker, 2001)'
_computing_data_collection       'APEX2 (Bruker, 2004)'
_computing_data_reduction        SAINT-Plus
_computing_molecular_graphics    'SHELXL (Sheldrick, 2018)'
_computing_publication_material  SHELXL
_computing_structure_refinement  'SHELXL-2018/3 (Sheldrick, 2018)'
_computing_structure_solution    'SHELXL-2018/3 (Sheldrick, 2018)'
_diffrn_ambient_temperature      293(2)
_diffrn_measured_fraction_theta_full 0.982
_diffrn_measured_fraction_theta_max 0.982
_diffrn_measurement_device_type  'Bruker APEX II CCD area-detector'
_diffrn_measurement_method       '\f and \w scans'
_diffrn_radiation_type           MoK\a
_diffrn_radiation_wavelength     0.71073
_diffrn_reflns_av_R_equivalents  0.0315
_diffrn_reflns_av_unetI/netI     0.0834
_diffrn_reflns_Laue_measured_fraction_full 0.982
_diffrn_reflns_Laue_measured_fraction_max 0.982
_diffrn_reflns_limit_h_max       8
_diffrn_reflns_limit_h_min       -9
_diffrn_reflns_limit_k_max       14
_diffrn_reflns_limit_k_min       -14
_diffrn_reflns_limit_l_max       17
_diffrn_reflns_limit_l_min       -10
_diffrn_reflns_number            6469
_diffrn_reflns_point_group_measured_fraction_full 0.982
_diffrn_reflns_point_group_measured_fraction_max 0.982
_diffrn_reflns_theta_full        25.008
_diffrn_reflns_theta_max         25.008
_diffrn_reflns_theta_min         1.768
_diffrn_source                   'fine-focus sealed tube'
_exptl_absorpt_coefficient_mu    0.591
_exptl_absorpt_correction_type   multi-scan
_exptl_crystal_colour            dark-red
_exptl_crystal_density_diffrn    1.547
_exptl_crystal_description       block
_exptl_crystal_F_000             645
_exptl_crystal_size_max          0.210
_exptl_crystal_size_mid          0.150
_exptl_crystal_size_min          0.130
_exptl_transmission_factor_max   0.191
_exptl_transmission_factor_min   0.117
_refine_diff_density_max         0.525
_refine_diff_density_min         -0.899
_refine_diff_density_rms         0.087
_refine_ls_extinction_coef       .
_refine_ls_extinction_method     none
_refine_ls_goodness_of_fit_ref   1.041
_refine_ls_hydrogen_treatment    constr
_refine_ls_matrix_type           full
_refine_ls_number_parameters     385
_refine_ls_number_reflns         4688
_refine_ls_number_restraints     0
_refine_ls_restrained_S_all      1.041
_refine_ls_R_factor_all          0.0949
_refine_ls_R_factor_gt           0.0509
_refine_ls_shift/su_max          0.080
_refine_ls_shift/su_mean         0.001
_refine_ls_structure_factor_coef Fsqd
_refine_ls_weighting_details
'w=1/[\s^2^(Fo^2^)+(0.0631P)^2^+0.5290P] where P=(Fo^2^+2Fc^2^)/3'
_refine_ls_weighting_scheme      calc
_refine_ls_wR_factor_gt          0.1184
_refine_ls_wR_factor_ref         0.1400
_reflns_Friedel_coverage         0.000
_reflns_Friedel_fraction_full    .
_reflns_Friedel_fraction_max     .
_reflns_number_gt                3008
_reflns_number_total             4688
_reflns_threshold_expression     'I > 2\s(I)'
_cod_data_source_file            suppl_j_ncrs-2022-0349_suppl.cif
_cod_data_source_block           Mn-Ru
_cod_original_cell_volume        1355.4(5)
_cod_database_code               8107296
_shelx_shelxl_version_number     2018/3
_shelx_space_group_comment
;
The symmetry employed for this shelxl refinement is uniquely defined
by the following loop, which should always be used as a source of
symmetry information in preference to the above space-group names.
They are only intended as comments.
;
_shelx_estimated_absorpt_t_min   0.886
_shelx_estimated_absorpt_t_max   0.927
_shelx_res_file
;
TITL test in P-1
    test.res
    created by SHELXL-2018/3 at 16:38:30 on 09-Jul-2022
CELL 0.71073   8.0148  12.1409  14.8434 107.379  98.415  93.430
ZERR    1.00   0.0018   0.0026   0.0031   0.004   0.004   0.004
LATT 1
SFAC C  H  N  O  Ru Mn
UNIT 58 46 10 14 1 1
omit 0  -1   1
omit     -3  -2   4
OMIT  -3.00  50.02
L.S. 8
ACTA
BOND $h
FMAP 2
PLAN 10
HTAB C19 O7_$7
EQIV $7 -x+1, -y+1, -z
HTAB C9 N1_$6
EQIV $6 x-1, y+1, z
HTAB C6 O5_$5
EQIV $5 x-1, y, z
HTAB C6 O2_$4
EQIV $4 -x+1, -y, -z
HTAB O3 N1_$3
EQIV $3 x, y+1, z
htab
size 0.13 0.15 0.21
TEMP 0
WGHT    0.063100    0.529000
FVAR       0.65855
MOLE 1
RU1   5    1.000000    0.000000    0.000000    10.50000    0.04118    0.03173 =
         0.02699   -0.00327    0.00279    0.00323
MOLE 2
MN1   6    1.000000    1.000000    0.500000    10.50000    0.02373    0.02026 =
         0.01596   -0.00508   -0.00305    0.00291
MOLE 1
O1    4    1.077976    0.170548    0.053794    11.00000    0.05249    0.03077 =
         0.03902   -0.00253    0.00778    0.00196
O2    4    0.771272    0.026452    0.035341    11.00000    0.04193    0.04165 =
         0.03169   -0.00245    0.00402    0.00381
MOLE 2
O3    4    1.104995    1.095725    0.403846    11.00000    0.04082    0.03553 =
         0.02569    0.00413    0.00292    0.00797
AFIX   3
H3A   2    1.118730    1.041372    0.358203    11.00000   -1.20000
AFIX   0
O4    4    1.867233    0.459711    0.372148    11.00000    0.06765    0.08188 =
         0.12110    0.00802    0.02350    0.04167
O5    4    1.655337    0.332588    0.346804    11.00000    0.13060    0.04594 =
         0.08752    0.01485    0.04253    0.04233
O6    4    0.405274    0.575134   -0.144949    11.00000    0.13999    0.10035 =
         0.03694   -0.02392   -0.02540    0.04159
O7    4    0.210747    0.529892   -0.071652    11.00000    0.11222    0.07191 =
         0.08991   -0.00825   -0.05296   -0.02398
MOLE 1
N1    3    1.119843   -0.017492    0.212287    11.00000    0.06026    0.06746 =
         0.03610    0.00981    0.00377    0.01932
MOLE 2
N2    3    1.007921    0.852872    0.393347    11.00000    0.02567    0.02183 =
         0.01588   -0.00382   -0.00288    0.00051
N3    3    0.768472    1.020180    0.435646    11.00000    0.02510    0.02291 =
         0.01969   -0.00127   -0.00118    0.00244
N4    3    1.717392    0.431833    0.366898    11.00000    0.07821    0.04907 =
         0.04568    0.01185    0.01977    0.03410
N5    3    0.345862    0.581443   -0.072572    11.00000    0.08823    0.05321 =
         0.04665   -0.00784   -0.03237    0.02052
MOLE 1
C1    1    1.080821   -0.013777    0.135413    11.00000    0.04379    0.03756 =
         0.03738   -0.00207    0.00263    0.00518
C2    1    1.109282    0.358225    0.163730    11.00000    0.06887    0.04286 =
         0.08732   -0.01646    0.01350   -0.00061
AFIX 137
H2A   2    1.225376    0.348465    0.183780    11.00000   -1.50000
H2B   2    1.062579    0.399728    0.218488    11.00000   -1.50000
H2C   2    1.103906    0.401273    0.118828    11.00000   -1.50000
AFIX   0
C3    1    1.009450    0.241589    0.117090    11.00000    0.04761    0.03518 =
         0.04623   -0.00013    0.00227    0.00438
C4    1    0.856280    0.217090    0.142559    11.00000    0.05573    0.04450 =
         0.03826   -0.00035    0.01330    0.01053
AFIX  43
H4    2    0.825020    0.273811    0.192988    11.00000   -1.20000
AFIX   0
C5    1    0.742492    0.116427    0.101048    11.00000    0.04451    0.05330 =
         0.02814    0.00599    0.00563    0.00817
C6    1    0.572020    0.109901    0.129367    11.00000    0.05299    0.05968 =
         0.05059    0.00612    0.01650    0.00816
AFIX 137
H6A   2    0.486247    0.109989    0.076969    11.00000   -1.50000
H6B   2    0.567258    0.175718    0.183906    11.00000   -1.50000
H6C   2    0.552835    0.039794    0.145453    11.00000   -1.50000
AFIX   0
MOLE 2
C7    1    0.672912    1.112211    0.464757    11.00000    0.02771    0.02182 =
         0.02563    0.00144    0.00108    0.00586
C8    1    0.524749    1.097052    0.392859    11.00000    0.02665    0.03826 =
         0.03112    0.00355   -0.00321    0.01453
AFIX  43
H8    2    0.440563    1.146792    0.394752    11.00000   -1.20000
AFIX   0
C9    1    0.529812    0.998813    0.322975    11.00000    0.03694    0.03739 =
         0.02367   -0.00002   -0.00984    0.00934
AFIX  43
H9    2    0.448178    0.966897    0.268207    11.00000   -1.20000
AFIX   0
C10   1    0.680295    0.951940    0.346637    11.00000    0.02064    0.02698 =
         0.02017   -0.00025   -0.00332   -0.00206
C11   1    0.737965    0.853263    0.286931    11.00000    0.02820    0.02452 =
         0.01565   -0.00256   -0.00428   -0.00311
C12   1    0.627654    0.790139    0.191792    11.00000    0.02760    0.02520 =
         0.02271   -0.00405   -0.00850    0.00323
C13   1    0.475044    0.731244    0.188098    11.00000    0.05091    0.07381 =
         0.02729    0.00259   -0.00386   -0.01777
AFIX  43
H13   2    0.435208    0.735636    0.244718    11.00000   -1.20000
AFIX   0
C14   1    0.377450    0.664260    0.100317    11.00000    0.05313    0.06643 =
         0.04710    0.00453   -0.01779   -0.02411
AFIX  43
H14   2    0.272356    0.625227    0.097349    11.00000   -1.20000
AFIX   0
C15   1    0.442762    0.658598    0.019394    11.00000    0.05619    0.03678 =
         0.02921   -0.00719   -0.02257    0.00870
C16   1    0.591369    0.719813    0.021004    11.00000    0.07363    0.05059 =
         0.02001   -0.00340   -0.00231    0.01791
AFIX  43
H16   2    0.629325    0.716790   -0.035883    11.00000   -1.20000
AFIX   0
C17   1    0.686038    0.786932    0.108395    11.00000    0.04270    0.04410 =
         0.02675    0.00408    0.00089    0.00153
AFIX  43
H17   2    0.787929    0.829321    0.110565    11.00000   -1.20000
AFIX   0
C18   1    0.889690    0.810013    0.309313    11.00000    0.02658    0.02178 =
         0.02107   -0.00355   -0.00418    0.00084
C19   1    0.945175    0.707513    0.249486    11.00000    0.03561    0.02952 =
         0.02206   -0.00751   -0.00370    0.00516
AFIX  43
H19   2    0.888106    0.661400    0.189651    11.00000   -1.20000
AFIX   0
C20   1    1.092621    0.689821    0.294490    11.00000    0.03546    0.02701 =
         0.02394   -0.00861   -0.00096    0.00842
AFIX  43
H20   2    1.156796    0.629454    0.271559    11.00000   -1.20000
AFIX   0
C21   1    1.135059    0.780834    0.385030    11.00000    0.02612    0.02265 =
         0.02331   -0.00100    0.00029    0.00483
C22   1    1.281275    0.792409    0.452144    11.00000    0.02812    0.02276 =
         0.02896    0.00288    0.00204    0.00453
C23   1    1.396760    0.699000    0.432138    11.00000    0.03250    0.02860 =
         0.01739   -0.00063    0.00041    0.00895
C24   1    1.565657    0.722858    0.430299    11.00000    0.04262    0.02697 =
         0.03098    0.00323    0.00351    0.00843
AFIX  43
H24   2    1.610083    0.799758    0.444134    11.00000   -1.20000
AFIX   0
C25   1    1.672158    0.636555    0.408590    11.00000    0.03433    0.04571 =
         0.04342    0.01183    0.01257    0.01594
AFIX  43
H25   2    1.786192    0.654229    0.407446    11.00000   -1.20000
AFIX   0
C26   1    1.603877    0.525054    0.389015    11.00000    0.05417    0.03687 =
         0.02936    0.00364    0.00855    0.02486
C27   1    1.438078    0.496406    0.390917    11.00000    0.06548    0.02622 =
         0.03570    0.00290    0.00417    0.00639
AFIX  43
H27   2    1.395846    0.419088    0.377215    11.00000   -1.20000
AFIX   0
C28   1    1.333005    0.582998    0.413345    11.00000    0.04205    0.02843 =
         0.03008    0.00035   -0.00250    0.00587
AFIX  43
H28   2    1.219960    0.564316    0.415974    11.00000   -1.20000
AFIX   0
C31   1    1.034864    1.191959    0.383458    11.00000    0.07685    0.04900 =
         0.04961    0.01658    0.01004    0.01499
AFIX 137
H31A  2    0.934264    1.164995    0.335747    11.00000   -1.50000
H31B  2    1.116213    1.232670    0.359985    11.00000   -1.50000
H31C  2    1.006659    1.243334    0.440846    11.00000   -1.50000
AFIX   0
HKLF 4




REM  test in P-1
REM wR2 = 0.1400, GooF = S = 1.041, Restrained GooF = 1.041 for all data
REM R1 = 0.0509 for 3008 Fo > 4sig(Fo) and 0.0949 for all 4688 data
REM 385 parameters refined using 0 restraints

END

WGHT      0.0625      0.6848

REM Instructions for potential hydrogen bonds
HTAB O3 N1_$3
HTAB C6 O2_$4
HTAB C6 O5_$5
HTAB C9 N1_$6
HTAB C19 O7_$7

REM Highest difference peak  0.525,  deepest hole -0.899,  1-sigma level  0.087
Q1    1   0.9932  1.0751  0.4972  11.00000  0.05    0.53
Q2    1   0.8482  0.0630  0.0050  11.00000  0.05    0.52
Q3    1   1.1115 -0.0244  0.0784  11.00000  0.05    0.49
Q4    1   1.0576  1.0741  0.4603  11.00000  0.05    0.43
Q5    1   1.0529  0.0802 -0.0426  11.00000  0.05    0.38
Q6    1   1.1161  1.0322  0.4913  11.00000  0.05    0.37
Q7    1   0.8554  1.0579  0.4956  11.00000  0.05    0.37
Q8    1   0.9867  0.0822  0.0031  11.00000  0.05    0.35
Q9    1   0.7395  1.0035  0.3828  11.00000  0.05    0.35
Q10   1   1.0200 -0.0833  0.0320  11.00000  0.05    0.33
;
_shelx_res_checksum              19568
_shelx_hkl_file
;
   1   0   0  549.04   14.73
   2   0   0 2234.13   51.57
  -4   0   0   67.01   12.72
  -5   0   0  106.36   15.14
  -6   0   0   83.48   16.88
  -7   0   0  259.04   25.26
  -8   0   0  249.04   27.94
  -9   0   0  241.17   33.96
  -9   1   0   61.23   27.01
  -8   1   0  183.62   27.76
  -7   1   0  139.76   21.69
  -6   1   0  419.32   26.00
  -5   1   0  229.11   17.92
  -4   1   0 4106.37   95.09
  -3   1   0  855.71   27.29
  -2   1   0 4131.66   88.36
  -1   1   0 3602.27   75.54
   0   1   0 3300.30   69.13
   1   1   0 8716.64  176.01
   2   1   0  436.10   14.31
   2   1   0  429.05   16.07
   3   1   0   92.53   10.45
   4   1   0  970.57   33.26
   5   1   0   38.38   11.40
  -6  -1   0   82.82   17.03
  -7  -1   0  178.13   24.33
  -8  -1   0  227.06   27.69
  -9  -1   0  292.87   36.24
  -9   2   0   95.43   29.48
  -8   2   0   89.86   26.23
  -7   2   0   -2.74   15.95
  -6   2   0  281.26   23.32
  -5   2   0  150.58   16.41
  -4   2   0 2174.97   58.42
  -3   2   0  658.60   24.21
  -2   2   0   29.63    7.74
  -1   2   0 3167.21   69.42
   0   2   0 1120.74   27.87
   1   2   0   -5.35    3.61
   2   2   0  126.15    7.72
   2   2   0  149.34   11.04
   3   2   0    5.63    5.93
   4   2   0  555.35   24.41
   5   2   0  590.77   28.58
   6   2   0  191.63   20.43
  -7  -2   0  153.48   23.10
  -8  -2   0  127.00   24.81
  -9  -2   0  200.98   31.33
  -9   3   0   43.94   27.61
  -8   3   0   47.53   22.74
  -7   3   0  -14.09   15.09
  -6   3   0   92.59   17.77
  -5   3   0  169.78   17.73
  -4   3   0  485.14   24.46
  -3   3   0  451.75   22.41
  -2   3   0 4189.62   93.81
  -1   3   0  439.28   19.90
  -1   3   0  392.36   12.18
   0   3   0 1484.09   38.15
   1   3   0 2239.24   53.52
   2   3   0   72.07    9.14
   2   3   0   59.20    6.76
  -2  -3   0   59.59    6.47
   3   3   0  454.77   17.29
   3   3   0  497.80   21.94
   4   3   0  303.98   19.39
   5   3   0  610.28   29.53
   6   3   0  382.18   26.48
   7   3   0   50.27   17.57
  -8  -3   0   47.20   19.48
  -9  -3   0   98.86   25.41
  -9   4   0   -2.16   24.06
  -8   4   0  253.57   29.32
  -7   4   0  345.89   28.90
  -6   4   0   24.01   15.92
  -5   4   0  327.89   25.07
  -4   4   0  714.48   30.81
  -3   4   0   49.66   12.07
  -2   4   0 1956.18   51.98
  -1   4   0 1697.35   45.66
  -1   4   0 1773.71   37.16
   0   4   0 2802.29   66.16
  -1  -4   0 1161.42   32.47
   1   4   0 1143.78   34.51
   1   4   0 1211.68   26.89
   2   4   0  717.37   20.36
  -2  -4   0  712.40   22.28
   2   4   0  713.63   26.59
   3   4   0  349.91   19.85
   3   4   0  367.97   15.99
   4   4   0  424.39   23.20
   5   4   0  918.61   37.74
   6   4   0  273.94   24.68
   7   4   0   38.91   18.64
   8   4   0   41.93   20.85
  -9  -4   0  107.21   25.25
  -9   5   0  -14.61   26.50
  -8   5   0  197.09   32.65
  -7   5   0  225.15   28.88
  -6   5   0  706.73   37.15
  -5   5   0  152.95   20.88
  -4   5   0  559.57   29.21
  -3   5   0 1644.95   49.80
  -2   5   0  449.38   24.17
  -1   5   0  900.67   22.99
  -1   5   0  883.99   31.17
   0   5   0 1678.59   46.05
   0   5   0 1654.80   35.30
   1   5   0 5095.74  115.23
  -1  -5   0 5042.74  113.81
   1   5   0 5226.00   96.84
   2   5   0 1294.31   31.75
   2   5   0 1337.41   41.37
   3   5   0  379.76   21.34
   3   5   0  356.41   16.53
   4   5   0  418.35   24.54
   5   5   0  178.85   19.62
   6   5   0  204.62   22.68
   7   5   0   53.35   18.60
   8   5   0   54.81   22.48
  -9   6   0   18.53   26.22
  -8   6   0   41.20   24.76
  -7   6   0  149.19   25.58
  -6   6   0   26.72   19.54
  -5   6   0  169.52   25.29
  -4   6   0 1128.16   43.66
  -3   6   0  568.64   29.80
  -2   6   0  369.88   15.76
  -2   6   0  378.20   23.55
  -1   6   0 2423.17   50.82
  -1   6   0 2326.09   63.15
   0   6   0 1920.01   41.12
   0   6   0 1946.68   53.95
   1   6   0  858.44   22.46
   1   6   0  821.52   31.83
   2   6   0 1171.09   40.05
  -2  -6   0 1201.39   36.09
   2   6   0 1188.09   30.29
  -3  -6   0  191.71   15.06
   3   6   0  215.98   13.56
   3   6   0  214.21   18.18
   4   6   0  149.47   17.69
   4   6   0  157.43   14.41
   5   6   0  563.51   31.99
   6   6   0   31.06   16.16
   7   6   0    6.42   15.94
   8   6   0  181.63   29.86
  -9   7   0  -35.92   25.91
  -8   7   0   41.45   27.48
  -7   7   0  207.94   32.14
  -6   7   0   30.56   22.06
  -5   7   0  441.30   32.36
  -4   7   0 1105.41   45.71
  -3   7   0  717.69   36.22
  -2   7   0  290.59   15.10
  -2   7   0  283.14   23.36
  -1   7   0  268.83   13.46
  -1   7   0  245.77   20.53
   0   7   0  928.16   35.47
   0   7   0  953.04   24.90
   1   7   0  760.47   32.27
   2   7   0 1128.13   41.15
   3   7   0  318.26   23.09
   4   7   0  417.52   27.41
   5   7   0  361.09   28.14
   6   7   0  123.58   23.04
   7   7   0   13.93   17.89
  -8   8   0  125.14   32.84
  -7   8   0  267.25   34.19
  -6   8   0    8.72   21.29
  -5   8   0  411.67   32.72
  -4   8   0  374.29   20.76
  -3   8   0  175.92   14.98
  -3   8   0  196.57   25.64
  -2   8   0  552.12   32.58
  -2   8   0  563.12   21.57
  -1   8   0  359.81   26.12
   0   8   0  338.01   23.78
   1   8   0  245.79   21.96
   2   8   0  440.52   26.74
   3   8   0  126.15   18.83
   4   8   0  626.46   34.93
   5   8   0  134.80   23.57
   6   8   0  197.87   27.64
   7   8   0   90.06   24.10
  -8   9   0  180.36   35.22
  -7   9   0  113.05   30.01
  -6   9   0  131.31   28.85
  -6   9   0  153.30   19.43
  -5   9   0   11.82   21.22
  -5   9   0   14.61   11.84
  -4   9   0  232.79   29.60
  -3   9   0  222.26   28.82
  -2   9   0   28.18   18.26
  -1   9   0  269.61   26.02
   0   9   0 1015.70   42.29
   1   9   0  251.46   24.11
   2   9   0  464.93   29.62
   3   9   0  202.47   23.15
   4   9   0   64.40   19.49
   5   9   0  127.92   24.59
   6   9   0  228.89   28.29
  -8  10   0   45.24   16.45
  -7  10   0   25.16   28.09
  -6  10   0   24.80   25.38
  -5  10   0   22.16   23.18
  -4  10   0   14.07   20.11
  -3  10   0    9.40   19.07
  -2  10   0  500.22   34.52
  -1  10   0   66.93   19.76
   0  10   0  704.57   37.78
   1  10   0  802.16   39.80
   2  10   0  304.81   26.17
   3  10   0  288.71   27.38
   4  10   0   98.50   21.89
   5  10   0   56.40   21.48
   6  10   0   14.38   19.12
  -7  11   0   85.42   31.38
  -6  11   0   49.98   28.03
  -5  11   0   -8.29   22.52
  -4  11   0  164.88   29.71
  -3  11   0  163.08   28.24
  -2  11   0  141.16   26.48
  -1  11   0  139.29   25.22
   0  11   0  202.17   24.81
   1  11   0  363.13   29.41
   2  11   0  558.68   35.48
   3  11   0   10.95   17.05
   4  11   0   85.10   22.32
   5  11   0   64.51   23.24
  -6  12   0   70.96   28.86
  -5  12   0    1.50   23.25
  -4  12   0  241.92   33.62
  -3  12   0  399.62   36.28
  -2  12   0  590.66   40.27
  -1  12   0   48.31   21.42
   0  12   0   96.42   23.78
   1  12   0  185.77   27.80
   2  12   0   95.19   23.03
   3  12   0   25.71   19.47
   4  12   0   58.21   22.19
  -5  13   0   99.63   29.19
  -4  13   0   72.25   26.80
  -3  13   0  117.17   29.87
  -2  13   0  386.12   35.35
  -1  13   0  224.13   31.70
   0  13   0   83.61   23.75
   1  13   0  418.18   34.23
   2  13   0   91.29   23.80
   3  13   0   61.28   23.82
  -3  14   0   85.04   27.29
  -2  14   0  104.88   27.98
  -1  14   0   55.93   24.32
   0  14   0  182.85   30.26
   1  14   0   84.80   24.85
   1  14  -1    4.23   18.22
   0  14  -1   33.11   21.52
  -1  14  -1   18.19   21.48
  -2  14  -1   47.27   26.13
  -3  14  -1   40.34   28.48
   3  13  -1   84.33   25.56
   2  13  -1    1.60   17.92
   1  13  -1   43.16   19.65
   0  13  -1   87.45   24.69
  -1  13  -1   19.42   20.74
  -2  13  -1   24.26   22.08
  -3  13  -1   64.32   25.50
  -4  13  -1    6.13   24.05
  -5  13  -1    3.82   26.02
   4  12  -1   35.08   19.75
   3  12  -1  141.10   26.28
   2  12  -1   41.33   17.72
   1  12  -1   64.56   20.83
   0  12  -1  112.43   24.47
  -1  12  -1   -9.35   16.87
  -2  12  -1   28.64   22.09
  -3  12  -1   30.64   22.51
  -4  12  -1   17.74   22.99
  -5  12  -1   -6.58   23.30
  -6  12  -1  -23.62   23.71
   5  11  -1    4.34   18.47
   4  11  -1   74.35   21.86
   3  11  -1   -3.39   15.72
   2  11  -1   41.25   17.88
   1  11  -1   12.45   15.00
   0  11  -1   13.73   15.68
  -1  11  -1    6.69   17.01
  -2  11  -1   33.24   20.32
  -3  11  -1   19.50   20.62
  -4  11  -1  -27.62   20.18
  -5  11  -1    8.11   22.96
  -6  11  -1  -30.17   23.29
  -7  11  -1    9.48   26.59
   6  10  -1   26.86   20.36
   5  10  -1   35.88   21.51
   4  10  -1   70.95   20.14
   3  10  -1   45.75   17.49
   2  10  -1   11.85   13.44
   1  10  -1    0.28   13.57
   0  10  -1   -2.23   13.44
  -1  10  -1   -7.90   15.62
  -2  10  -1   58.12   21.11
  -3  10  -1   91.02   24.24
  -4  10  -1   15.44   21.80
  -5  10  -1   18.17   23.70
  -6  10  -1    6.73   24.72
  -7  10  -1   -9.14   25.61
   7   9  -1   -5.83   20.02
   6   9  -1   -4.93   15.96
   5   9  -1   27.03   18.40
   4   9  -1   -3.79   12.92
   3   9  -1    7.79   12.76
   2   9  -1   18.59   12.23
   1   9  -1   84.35   17.37
   0   9  -1   13.49   12.62
  -1   9  -1   11.85   14.38
  -2   9  -1   81.43   20.57
  -3   9  -1   24.94   20.19
  -4   9  -1    1.16   20.93
  -5   9  -1   40.91   23.22
  -6   9  -1   -6.66   22.02
  -7   9  -1  -25.79   23.38
  -8   9  -1    3.43   26.55
   7   8  -1   12.11   18.99
   6   8  -1    1.22   16.22
   5   8  -1   -5.67   13.65
   4   8  -1   18.50   13.71
   3   8  -1   34.59   13.70
  -2  -8   1    0.30   10.80
   2   8  -1  -10.51    8.04
   1   8  -1   36.32   12.64
   0   8  -1   40.05   13.66
  -1   8  -1   -7.46   11.80
  -2   8  -1    6.28   15.85
  -3   8  -1   77.44   20.95
  -3   8  -1   60.44   10.73
  -4   8  -1   -3.58   18.96
  -5   8  -1  172.08   26.91
  -6   8  -1   18.72   21.61
  -7   8  -1   -8.42   22.46
  -8   8  -1  -27.28   24.83
   8   7  -1   21.76   21.27
   7   7  -1   18.29   18.85
   6   7  -1    9.07   16.37
   5   7  -1   42.63   16.47
   4   7  -1   31.89   13.17
  -3  -7   1   -7.61   10.17
   3   7  -1  -11.15    8.21
   2   7  -1   55.39   12.43
  -2  -7   1   54.77   12.40
  -1  -7   1    3.50    9.05
   1   7  -1   -0.23    7.89
   0   7  -1   28.51   10.49
  -1   7  -1   61.20   13.58
  -1   7  -1   31.93    6.56
  -2   7  -1   40.86    7.67
  -2   7  -1   41.59   14.36
  -3   7  -1    0.65   15.67
  -4   7  -1    5.69   17.26
  -5   7  -1  188.97   26.68
  -6   7  -1  -36.30   18.86
  -7   7  -1    9.95   22.20
  -8   7  -1  -40.52   20.98
  -9   7  -1  -40.86   24.37
   8   6  -1   -6.50   18.40
   7   6  -1   -2.66   17.63
   6   6  -1  -10.89   12.70
   5   6  -1   -0.06   10.08
   4   6  -1  100.68   16.39
   3   6  -1  102.06   14.77
  -3  -6   1   83.69   12.19
  -2  -6   1  127.06   13.14
   2   6  -1  112.80   14.11
   2   6  -1  128.20    8.71
  -1  -6   1  393.79   20.07
   1   6  -1  397.89   21.80
   0   6  -1  -12.35    7.56
   0  -6   1   -5.21    7.08
  -1   6  -1  563.00   26.86
  -2   6  -1  252.67   21.25
  -3   6  -1  269.15   22.81
  -4   6  -1   60.14   17.41
  -5   6  -1   27.04   17.69
  -6   6  -1   24.02   18.51
  -7   6  -1    4.92   19.11
  -8   6  -1   -9.66   20.81
  -9   6  -1  -20.26   24.32
   8   5  -1    8.61   19.48
   7   5  -1   17.13   16.42
   6   5  -1   35.31   15.12
   5   5  -1  142.40   18.96
   4   5  -1   24.09   10.43
   3   5  -1   92.46   13.03
  -3  -5   1   98.86   10.79
  -2  -5   1  614.62   22.86
   2   5  -1  659.61   18.49
   2   5  -1  668.11   26.63
  -1  -5   1  314.13   16.27
   1   5  -1  263.25   17.07
   0  -5   1  710.58   25.94
   0   5  -1  679.64   26.30
  -1   5  -1  301.96   19.09
  -2   5  -1   -1.92   10.07
  -3   5  -1   -3.59   11.60
  -4   5  -1   62.92   14.94
  -5   5  -1    7.30   14.23
  -6   5  -1   27.51   18.44
  -7   5  -1  -16.96   17.88
  -8   5  -1  -16.83   21.57
  -9   5  -1  -16.27   25.35
  -9  -4   1   84.12   24.30
   8   4  -1   30.89   20.00
   7   4  -1  -24.50   13.68
   6   4  -1    9.23   12.98
   5   4  -1   36.98   13.02
   4   4  -1  336.52   20.70
  -4  -4   1  319.64   14.75
  -3  -4   1  161.60   10.56
   3   4  -1  181.05   14.85
  -2  -4   1   49.15    6.92
   2   4  -1   40.51    5.55
   2   4  -1   35.85    8.47
   1   4  -1  705.48   24.89
  -1  -4   1  703.53   22.85
   0  -4   1    5.20    6.34
   0   4  -1    3.75    7.18
  -1   4  -1   -4.18    7.82
  -2   4  -1  212.01   17.39
  -3   4  -1  676.66   27.96
  -4   4  -1    0.86    9.69
  -5   4  -1   18.18   12.52
  -6   4  -1  713.21   35.85
  -7   4  -1  -14.48   16.46
  -8   4  -1   -3.06   20.39
  -9   4  -1  -32.51   23.57
  -9  -3   1   18.52   23.60
  -8  -3   1   91.28   22.47
   7   3  -1   91.74   20.84
   6   3  -1   14.86   12.83
   5   3  -1   10.63    9.56
   4   3  -1   -2.28    6.99
  -4  -3   1    8.50    4.87
   3   3  -1   90.61   11.08
  -3  -3   1   86.29    7.83
  -2  -3   1  951.16   25.40
   2   3  -1  950.99   29.30
  -1  -3   1 1575.26   38.65
   1   3  -1 1649.18   40.89
   0   3  -1 5004.84  106.58
   0  -3   1 5072.11  109.09
  -1   3  -1 2318.46   55.47
  -2   3  -1  645.65   24.40
  -3   3  -1  562.41   24.03
  -4   3  -1   -2.98    8.04
  -5   3  -1   46.49   13.81
  -6   3  -1   16.91   14.09
  -7   3  -1  546.00   35.11
  -8   3  -1  -19.81   19.21
  -9   3  -1  -32.34   24.14
  -9  -2   1  -17.80   22.39
  -8  -2   1  -10.61   16.66
  -7  -2   1   96.19   20.18
   6   2  -1   15.54   12.44
   5   2  -1    2.66    9.16
   4   2  -1  277.59   17.39
   3   2  -1    5.00    5.85
   2   2  -1 1964.87   47.70
  -2  -2   1 1958.31   44.83
   1   2  -1  169.79    9.86
   0   2  -1   44.24    5.28
   1  -2   1  775.36   22.36
  -1   2  -1  728.55   22.50
  -2   2  -1  231.53   15.16
  -3   2  -1   84.74   11.18
  -4   2  -1    1.43    8.03
  -5   2  -1  181.61   17.42
  -6   2  -1   -8.90   12.22
  -7   2  -1   50.48   18.67
  -8   2  -1  -19.53   20.02
  -9   2  -1  -44.11   23.49
  -9  -1   1   -7.25   22.21
  -8  -1   1  -11.24   18.56
  -7  -1   1   -3.77   14.34
  -6  -1   1  -12.11   11.23
   5   1  -1   29.71   10.51
   4   1  -1   13.45    8.16
   3   1  -1  244.30   14.00
   2   1  -1  439.57   15.76
   1   1  -1  220.88    8.66
   0   1  -1    1.43    1.01
  -1   1  -1  734.73   19.72
  -2   1  -1  270.64   13.34
  -3   1  -1  181.96   13.46
  -4   1  -1  118.96   14.01
  -5   1  -1  145.01   16.88
  -6   1  -1   -6.45   11.76
  -7   1  -1   35.89   16.99
  -8   1  -1  -20.14   16.76
  -9   1  -1  -33.23   21.87
  -9   0   1   24.51   23.71
  -8   0   1  -21.40   17.27
  -7   0   1   26.16   16.69
  -6   0   1   15.26   13.08
  -5   0   1  220.47   17.52
  -4   0   1  110.38   12.96
  -3   0   1  230.59   13.98
  -2   0   1 3075.08   67.21
  -1   0   1  906.76   21.27
   1   0   1 3148.04   66.48
   2   0   1 1194.13   28.44
   2   0   1 1163.02   31.16
   3   0   1  560.60   21.80
  -4   0  -1    6.98    9.06
  -5   0  -1  243.26   19.06
  -6   0  -1   -9.05   11.78
  -7   0  -1  -22.68   13.85
  -8   0  -1   -2.93   17.26
  -9   0  -1   -4.60   23.40
  -9   1   1  -23.45   22.60
  -8   1   1    8.06   19.27
  -7   1   1   -9.43   13.83
  -6   1   1    0.14   10.58
  -5   1   1  108.31   14.43
  -4   1   1  315.11   17.84
  -3   1   1  586.30   21.21
  -2   1   1  529.82   18.49
  -1   1   1  216.07    9.86
   0   1   1  609.97   15.52
   1   1   1  139.39    8.18
   2   1   1  214.80   10.77
   2   1   1  223.00   12.07
   3   1   1   12.07    5.83
   3   1   1   12.03    6.41
   4   1   1  485.87   22.87
   5   1   1  127.92   15.64
  -6  -1  -1   23.99   13.89
  -7  -1  -1    1.55   15.46
  -8  -1  -1    7.74   19.33
  -9  -1  -1    6.41   22.56
  -9   2   1  -32.73   23.43
  -8   2   1   -4.39   20.53
  -7   2   1  156.59   24.46
  -6   2   1   27.07   14.83
  -5   2   1    3.60    9.64
  -4   2   1  219.48   16.62
  -3   2   1  619.81   23.18
  -2   2   1 1092.55   31.67
  -1   2   1  497.62   14.23
  -1   2   1  519.19   18.78
   0   2   1    2.11    4.60
   1   2   1 1207.68   31.63
   2   2   1   39.74    6.14
   2   2   1   43.04    7.27
   3   2   1   13.98    5.97
   3   2   1   14.63    6.91
   4   2   1    0.40    6.35
   4   2   1    1.04    6.77
   5   2   1  136.76   16.52
   6   2   1   -4.40   10.74
  -7  -2  -1   23.85   15.46
  -8  -2  -1   21.70   18.77
  -9  -2  -1   13.13   22.81
  -9   3   1  -31.04   23.20
  -8   3   1  -19.55   18.25
  -7   3   1   26.66   17.38
  -6   3   1   11.73   13.75
  -5   3   1   37.94   12.25
  -4   3   1   87.51   13.51
  -3   3   1  309.79   19.06
  -2   3   1 2102.08   53.48
  -1   3   1  849.78   26.97
   0   3   1  382.73   16.69
   0   3   1  387.20   12.42
   1   3   1  886.60   27.57
   1   3   1  970.98   23.25
   2   3   1   25.04    7.03
   2   3   1    4.13    2.49
   3   3   1  109.30   10.60
   3   3   1  103.40   11.90
   4   3   1  140.96   14.21
   4   3   1  124.28   12.35
   5   3   1  181.07   18.03
   6   3   1  172.32   20.82
   7   3   1  136.65   23.12
  -8  -3  -1   57.14   19.62
  -9  -3  -1   34.01   21.30
  -9   4   1  -41.58   23.40
  -8   4   1  -22.77   18.94
  -7   4   1  -13.96   15.91
  -6   4   1  248.62   25.32
  -5   4   1    0.56   13.10
  -4   4   1   -2.78   10.05
  -3   4   1  482.68   25.23
  -2   4   1   51.21   11.66
  -2   4   1   47.84    7.57
  -1   4   1  256.78   11.28
  -1   4   1  325.54   17.60
   0   4   1  603.19   22.81
   0   4   1  634.59   17.58
   1   4   1 1470.86   40.98
   1   4   1 1461.51   33.35
   2   4   1  673.90   20.95
   2   4   1  688.55   26.28
   3   4   1  221.46   16.39
   4   4   1  218.59   17.30
   4   4   1  219.27   15.52
   5   4   1    1.60    9.48
   6   4   1   71.57   17.09
   7   4   1  -13.14   13.04
   8   4   1    9.13   18.91
  -9   5   1  -31.17   23.95
  -8   5   1  -18.34   20.35
  -7   5   1   -6.86   18.08
  -6   5   1  -10.86   15.69
  -5   5   1    8.68   14.83
  -4   5   1  223.30   22.45
  -3   5   1    3.29   10.82
  -2   5   1  736.82   29.85
  -1   5   1   78.27   12.10
  -1   5   1   77.40    8.51
   0   5   1  310.20   12.89
   0   5   1  281.46   17.38
   1   5   1    4.53    6.57
   1   5   1    5.48    4.28
   2   5   1  477.47   23.24
   2   5   1  475.87   17.83
   3   5   1  137.35   14.48
   3   5   1  134.95   12.16
   5   5   1   22.56   12.45
   6   5   1  -13.16   11.72
   7   5   1   10.05   15.17
   8   5   1   35.93   22.32
  -9   6   1  -37.51   24.22
  -8   6   1  -32.98   20.77
  -7   6   1  -29.68   19.00
  -6   6   1    9.26   19.06
  -5   6   1   50.58   20.44
  -4   6   1  167.31   22.63
  -3   6   1    3.30    6.82
  -3   6   1  -14.59   11.41
  -2   6   1   98.61   15.58
  -2   6   1   46.36    8.05
  -1   6   1   32.13    7.16
  -1   6   1   29.33   11.24
   0   6   1  227.32   12.26
   0   6   1  221.79   17.23
   1   6   1    5.75    7.40
   1   6   1    7.41    4.51
   2   6   1  101.69   13.28
   2   6   1   64.29    8.36
   3   6   1   12.56    7.20
   3   6   1    4.40    8.26
   4   6   1   37.52   12.94
   4   6   1   39.59   10.65
   5   6   1  166.28   21.42
   6   6   1    6.09   13.42
   7   6   1    3.09   16.76
   8   6   1  -11.66   18.59
  -9   7   1  -59.83   25.07
  -8   7   1   -7.81   25.81
  -7   7   1   10.14   23.89
  -6   7   1   17.71   20.40
  -5   7   1  191.75   26.80
  -4   7   1  -10.94   17.72
  -4   7   1  -12.27    9.00
  -3   7   1  182.97   23.10
  -2   7   1  203.91   14.05
  -2   7   1  228.10   21.98
  -1   7   1   39.36   13.58
  -1   7   1   31.07    7.62
   0   7   1  294.46   20.67
   0   7   1  314.61   14.82
   1   7   1  102.57   10.19
   1   7   1  127.52   16.39
   2   7   1   47.38   12.09
   3   7   1   -0.41    8.74
   4   7   1   62.12   16.39
   5   7   1    5.81   12.84
   6   7   1   -6.49   14.96
   7   7   1    0.46   16.46
  -8   8   1    4.52   25.27
  -7   8   1    0.51   24.10
  -6   8   1  -15.65   20.58
  -6   8   1   23.63   12.76
  -5   8   1  -16.38   11.20
  -5   8   1   17.86   20.51
  -4   8   1   26.39   22.53
  -4   8   1    2.45   11.61
  -3   8   1  103.15   13.34
  -3   8   1  203.00   25.93
  -2   8   1   88.98   12.82
  -2   8   1  142.68   21.65
  -1   8   1  393.82   27.24
   0   8   1  332.06   24.34
   1   8   1  189.94   21.06
   2   8   1    3.59   10.19
   3   8   1   23.46   12.08
   4   8   1   51.57   17.16
   5   8   1  -13.27   13.07
   6   8   1   -3.00   16.09
   7   8   1   20.70   18.06
  -8   9   1  -12.35   27.10
  -8   9   1   15.43   14.49
  -7   9   1   23.65   14.01
  -7   9   1  -21.11   24.07
  -6   9   1   16.21   13.64
  -6   9   1   -5.47   21.91
  -5   9   1   48.16   14.35
  -5   9   1   52.09   24.56
  -4   9   1  123.76   25.71
  -3   9   1   90.67   23.56
  -2   9   1  651.87   36.80
  -1   9   1  194.54   23.38
   0   9   1    9.90   14.07
   1   9   1   35.98   14.71
   2   9   1   12.30   12.66
   3   9   1   21.30   14.70
   4   9   1  -14.93   14.32
   5   9   1   99.99   22.54
   6   9   1    2.11   15.73
  -8  10   1    0.78   15.65
  -7  10   1   -6.70   25.33
  -6  10   1  -39.65   22.11
  -5  10   1   -3.09   21.90
  -4  10   1   35.87   22.82
  -3  10   1   15.70   19.20
  -2  10   1   23.66   18.26
  -1  10   1  329.65   28.76
   0  10   1   21.25   15.57
   1  10   1   31.99   15.30
   2  10   1    8.16   13.78
   3  10   1  145.13   23.86
   4  10   1  -20.47   13.97
   5  10   1    8.07   16.93
  -7  11   1   -2.11   27.42
  -6  11   1  -23.58   22.26
  -5  11   1    0.59   23.20
  -4  11   1    0.20   21.08
  -3  11   1   38.44   22.94
  -2  11   1   26.54   19.77
  -1  11   1   94.80   21.86
   0  11   1   85.09   21.24
   1  11   1   13.74   16.40
   2  11   1  116.52   22.16
   3  11   1   68.08   21.46
   4  11   1   22.80   18.38
   5  11   1   -8.94   18.21
  -6  12   1  -11.78   25.57
  -5  12   1   -7.13   24.27
  -4  12   1   31.36   24.04
  -3  12   1    6.18   20.45
  -2  12   1   48.91   22.06
  -1  12   1   33.81   20.24
   0  12   1   -3.10   17.13
   1  12   1    5.75   17.12
   2  12   1   71.50   20.42
   3  12   1   27.22   19.84
  -5  13   1   28.42   26.18
  -4  13   1   73.33   28.15
  -3  13   1   56.06   24.56
  -2  13   1   30.03   22.56
  -1  13   1   49.81   22.32
   0  13   1   51.37   21.62
   1  13   1   26.26   20.21
   2  13   1   31.78   20.44
  -2  14   1    4.53   21.27
  -1  14   1   42.40   21.90
   0  14   1   39.61   19.18
   2  14  -2  127.65   27.94
   1  14  -2   46.64   23.56
   0  14  -2   54.93   23.59
  -1  14  -2  188.14   31.70
  -2  14  -2  134.64   31.20
  -3  14  -2  188.54   35.73
   3  13  -2   50.97   21.26
   2  13  -2   40.56   20.09
   1  13  -2  128.21   26.19
   0  13  -2    0.42   17.99
  -1  13  -2  165.09   28.65
  -2  13  -2  276.78   33.94
  -3  13  -2  250.58   34.79
  -4  13  -2  190.38   33.62
  -5  13  -2   38.83   28.03
   4  12  -2   37.39   20.21
   3  12  -2   76.21   22.44
   2  12  -2  170.15   26.46
   1  12  -2  205.49   28.71
   0  12  -2   53.51   20.87
  -1  12  -2   58.71   22.59
  -2  12  -2  123.06   27.09
  -3  12  -2  149.28   29.79
  -4  12  -2   13.04   23.68
  -5  12  -2   32.44   25.43
  -6  12  -2   32.45   27.22
   5  11  -2  119.81   26.30
   4  11  -2   66.99   20.26
   3  11  -2  166.25   25.30
   2  11  -2   75.01   20.36
   1  11  -2  359.17   29.93
   0  11  -2  219.57   25.33
  -1  11  -2   10.89   17.01
  -2  11  -2   72.17   22.73
  -3  11  -2   57.93   23.22
  -4  11  -2   66.11   25.68
  -5  11  -2  113.77   27.97
  -6  11  -2    9.46   26.09
  -7  11  -2   31.28   29.17
   6  10  -2  210.84   30.38
   5  10  -2  143.41   26.11
   4  10  -2  130.16   23.30
   3  10  -2   66.89   18.59
   2  10  -2   75.44   18.64
   1  10  -2   87.25   19.24
   0  10  -2  255.73   25.18
  -1  10  -2  373.05   30.97
  -2  10  -2  218.72   28.94
  -3  10  -2  297.29   31.21
  -4  10  -2  456.90   35.86
  -5  10  -2   57.25   25.73
  -6  10  -2   49.78   26.87
  -7  10  -2   92.03   29.85
   7   9  -2   34.78   24.48
   6   9  -2  304.28   30.36
   5   9  -2  238.47   26.94
   4   9  -2  314.25   27.17
   3   9  -2  229.11   23.02
  -3  -9   2  228.49   22.70
   2   9  -2  176.70   20.23
  -2  -9   2  184.36   21.34
  -1  -9   2  326.31   23.79
   1   9  -2  330.95   25.41
   0   9  -2  538.12   30.88
  -1   9  -2  559.69   33.09
  -2   9  -2  245.12   27.69
  -3   9  -2  922.25   44.64
  -4   9  -2  984.50   47.77
  -5   9  -2   16.36   22.52
  -6   9  -2  184.63   30.16
  -7   9  -2   59.52   28.50
  -8   9  -2   94.41   31.04
   7   8  -2   34.49   20.49
   6   8  -2  288.60   28.96
   5   8  -2  191.80   25.50
   4   8  -2  265.63   23.79
   3   8  -2  458.43   28.48
  -3  -8   2  517.80   26.99
  -2  -8   2  485.75   25.86
   2   8  -2  487.15   27.61
   1   8  -2  364.67   24.33
  -1  -8   2  370.26   23.06
   0   8  -2 1096.44   41.41
   0  -8   2 1111.48   40.54
  -1   8  -2  222.06   22.49
  -2   8  -2  566.01   32.80
  -3   8  -2 1169.46   48.11
  -4   8  -2  108.82   23.83
  -5   8  -2  136.89   25.92
  -6   8  -2   91.19   25.28
  -7   8  -2   -1.43   23.53
  -8   8  -2   52.10   31.95
   8   7  -2   52.04   23.95
   7   7  -2   11.10   17.12
   6   7  -2   75.76   20.14
   5   7  -2  496.10   31.08
   4   7  -2    2.43   10.86
   3   7  -2  161.14   17.80
  -3  -7   2  168.27   16.51
   2   7  -2  801.10   33.09
  -2  -7   2  817.87   31.13
   1   7  -2  785.07   32.51
  -1  -7   2  824.63   31.22
   0   7  -2  399.90   23.30
   0  -7   2  402.68   22.54
  -1   7  -2  135.79   17.43
  -2   7  -2   51.03   15.38
  -3   7  -2  628.91   33.98
  -4   7  -2  444.69   30.62
  -5   7  -2  104.88   23.52
  -6   7  -2  310.17   30.89
  -7   7  -2   65.95   24.48
  -8   7  -2   -4.99   22.59
   8   6  -2  -12.86   18.74
   7   6  -2    0.05   15.76
   6   6  -2  186.44   23.42
   5   6  -2   60.74   15.35
   4   6  -2  367.04   24.41
  -4  -6   2  350.33   19.74
  -3  -6   2  504.56   22.35
   3   6  -2  541.54   26.38
   2   6  -2  396.68   21.61
  -2  -6   2  414.26   19.87
  -1  -6   2 2921.96   72.39
   1   6  -2 2905.02   73.38
   0   6  -2  467.09   23.43
   0  -6   2  476.32   22.69
  -1   6  -2   39.33   12.03
  -1   6  -2   33.42    5.32
   1  -6   2   36.30   10.61
  -2   6  -2  473.20   26.88
  -3   6  -2   23.02   14.07
  -4   6  -2  404.30   29.11
  -5   6  -2  253.46   25.33
  -6   6  -2  386.12   31.11
  -7   6  -2  461.76   34.14
  -8   6  -2  115.61   29.20
  -9   6  -2   63.69   29.00
   9   5  -2  -56.75   22.25
   8   5  -2   -7.47   19.94
   7   5  -2    0.04   14.92
   6   5  -2  377.98   27.37
   5   5  -2  817.75   36.07
  -4  -5   2  840.59   28.67
   4   5  -2  854.29   34.76
  -3  -5   2  821.54   26.74
   3   5  -2  825.84   31.67
  -2  -5   2 1448.05   39.63
   2   5  -2 1451.23   43.00
   1   5  -2  630.16   24.77
  -1  -5   2  654.73   23.69
   0  -5   2  577.78   23.04
   0   5  -2  568.71   23.48
  -1   5  -2  468.40   22.56
   1  -5   2  467.14   21.59
  -2   5  -2  149.89   16.74
  -3   5  -2 1938.10   57.48
  -4   5  -2  402.43   25.34
  -5   5  -2  289.64   25.56
  -6   5  -2  240.33   27.47
  -7   5  -2  226.34   29.30
  -8   5  -2  103.16   28.01
  -9   5  -2   58.97   29.44
  -9  -4   2   73.21   25.36
   8   4  -2   38.20   20.86
   7   4  -2  248.66   26.19
   6   4  -2  202.76   21.83
   5   4  -2 1399.23   47.74
  -4  -4   2  948.40   29.65
   4   4  -2  966.94   35.21
   3   4  -2 1154.03   36.88
  -3  -4   2 1132.92   32.38
   2   4  -2  143.27   12.67
  -2  -4   2  145.91   10.19
  -1  -4   2  262.28   13.01
   1   4  -2  248.80   14.74
   0  -4   2   22.53    6.91
   0   4  -2   11.20    7.23
  -1   4  -2 2045.17   53.13
   1  -4   2 2130.67   54.08
  -2   4  -2    3.29    9.24
  -3   4  -2  331.34   20.66
  -4   4  -2 1795.91   54.09
  -5   4  -2  229.86   22.67
  -6   4  -2    6.92   14.67
  -7   4  -2  293.29   28.61
  -8   4  -2   46.22   24.22
  -9   4  -2  -35.70   22.87
  -9  -3   2  116.14   27.83
  -8  -3   2   56.33   20.80
   7   3  -2  276.66   25.72
   6   3  -2  150.40   20.64
  -5  -3   2 1590.22   44.34
   5   3  -2 1690.35   51.89
  -4  -3   2  783.42   25.09
   4   3  -2  788.35   30.02
   3   3  -2 1927.08   51.53
  -3  -3   2 1990.09   48.13
  -2  -3   2  168.45    9.90
   2   3  -2  159.25   11.82
  -1  -3   2 1086.44   28.88
   1   3  -2 1095.68   30.25
   0   3  -2  815.13   24.62
   0  -3   2  787.78   23.74
   1  -3   2 4626.16  102.94
  -1   3  -2 4704.55  100.88
  -2   3  -2 1431.25   40.22
  -3   3  -2 2609.83   64.77
  -4   3  -2 1184.54   39.40
  -5   3  -2 1305.00   45.11
  -6   3  -2  343.07   27.00
  -7   3  -2   -5.98   15.63
  -8   3  -2  197.43   30.09
  -9   3  -2  -18.14   26.00
  -9  -2   2  133.41   29.81
  -8  -2   2  295.92   29.15
  -7  -2   2  182.99   22.62
   6   2  -2   45.55   14.29
   5   2  -2  346.04   22.06
   4   2  -2 2617.17   66.36
   3   2  -2  150.39   11.64
   2   2  -2  330.91   14.41
   1   2  -2 8024.54  159.07
  -1  -2   2 7591.66  162.26
   0   2  -2 1257.59   29.78
   1  -2   2  830.82   23.67
  -1   2  -2  835.55   24.48
  -2   2  -2   62.95    8.93
   2  -2   2   61.45    7.23
  -3   2  -2 1831.40   48.92
  -4   2  -2 1106.69   36.78
  -5   2  -2 1042.22   38.59
  -6   2  -2  471.25   29.36
  -7   2  -2  227.56   25.53
  -8   2  -2  192.14   29.92
  -9   2  -2   -5.45   26.65
  -9  -1   2  205.20   32.52
  -8  -1   2   84.02   23.15
  -7  -1   2  477.65   30.99
  -6  -1   2  171.42   19.52
   4   1  -2 1314.07   39.59
   3   1  -2  305.77   15.26
   2   1  -2  191.47   10.04
   1   1  -2 9037.55  182.64
   0   1  -2 4897.16  102.56
  -1   1  -2 4700.44   94.73
   1  -1   2 4404.29   84.64
   2  -1   2 2063.15   44.79
  -2   1  -2 2065.00   49.22
   3  -1   2 1635.56   40.60
  -3   1  -2 1682.93   44.88
  -4   1  -2  863.96   31.78
  -5   1  -2  402.94   24.36
  -6   1  -2   75.87   17.56
  -7   1  -2  199.13   23.71
  -8   1  -2  286.04   30.41
  -9   1  -2   92.90   28.40
 -10   0   2  -19.85   25.98
  -9   0   2  113.76   28.35
  -8   0   2    2.47   17.52
  -7   0   2  303.32   25.77
  -6   0   2  128.26   18.99
  -5   0   2 1281.07   41.45
  -4   0   2 1970.93   51.98
  -3   0   2 2187.21   52.75
  -2   0   2  286.94   12.28
  -1   0   2  143.03    6.09
   1   0   2  299.71   11.07
   1   0   2  305.96   11.16
   2   0   2  201.33   11.71
   2   0   2  196.79   10.55
   3   0   2 1654.05   44.89
   3   0   2 1691.26   41.40
   4   0   2  614.01   23.84
  -4   0  -2  597.14   26.01
  -5   0  -2  864.33   34.90
  -6   0  -2  401.22   26.82
  -7   0  -2  161.87   23.81
  -8   0  -2  208.98   29.32
  -9   0  -2  108.03   28.17
 -10   1   2  -47.10   26.37
  -9   1   2  -20.34   24.00
  -8   1   2   -1.41   17.33
  -7   1   2  113.78   20.33
  -6   1   2  313.49   22.79
  -5   1   2  530.80   24.85
  -4   1   2  806.70   28.31
  -3   1   2 2343.37   56.02
  -2   1   2  556.52   18.53
  -1   1   2  306.61   12.09
  -1   1   2  296.38   10.98
   0   1   2    9.22    3.55
   0   1   2   12.39    3.60
   1   1   2 2783.24   61.45
   1   1   2 2838.82   56.37
   2   1   2 1002.47   26.27
   2   1   2  998.27   28.70
   3   1   2  439.74   18.32
   3   1   2  436.99   19.56
   4   1   2 1695.57   45.29
   4   1   2 1685.37   49.28
   5   1   2  191.28   18.00
  -6  -1  -2  329.42   24.28
  -7  -1  -2   13.17   14.50
  -8  -1  -2  279.64   28.57
  -9  -1  -2   82.89   26.26
 -10   2   2  -43.92   26.13
  -9   2   2  163.33   32.12
  -8   2   2  176.83   26.74
  -7   2   2    2.69   15.22
  -6   2   2  256.15   22.47
  -5   2   2  189.62   17.83
  -4   2   2  696.00   27.09
  -3   2   2 1701.73   44.86
  -2   2   2 2912.88   66.04
  -2   2   2 2880.50   59.73
  -1   2   2 3000.35   66.54
  -1   2   2 3067.58   60.32
   0   2   2 3034.32   59.60
   0   2   2 3025.41   66.17
   1   2   2 1476.41   37.22
   1   2   2 1473.33   33.51
   2   2   2    3.16    5.01
   2   2   2   -0.87    4.18
   3   2   2   41.16    8.60
   3   2   2   39.50    7.88
   4   2   2  182.68   15.66
   4   2   2  177.48   14.42
   5   2   2  520.80   25.42
   5   2   2  518.40   27.75
   6   2   2  308.37   24.23
  -7  -2  -2   15.03   14.40
  -8  -2  -2  110.64   22.36
  -9  -2  -2  180.69   30.20
  -9   3   2   63.60   28.32
  -8   3   2  314.27   32.46
  -7   3   2  436.42   33.28
  -6   3   2   99.18   18.67
  -5   3   2  541.73   27.92
  -4   3   2  934.17   34.56
  -3   3   2  196.14   16.06
  -2   3   2  578.74   19.32
  -2   3   2  573.63   22.86
  -1   3   2 3826.73   73.31
  -1   3   2 3540.77   81.00
   0   3   2  403.93   16.59
   0   3   2  409.49   14.08
   1   3   2  559.28   17.89
   1   3   2  573.40   20.97
   2   3   2  851.01   24.93
   2   3   2  836.87   28.39
   3   3   2    2.03    5.56
   3   3   2    3.19    5.31
   4   3   2  364.78   19.61
   4   3   2  360.53   21.31
   5   3   2  581.17   27.42
   5   3   2  555.53   29.07
   6   3   2   85.94   17.82
   7   3   2  231.41   25.09
  -8  -3  -2  231.13   24.85
  -9   4   2   23.01   25.65
  -8   4   2  207.27   31.22
  -7   4   2   24.48   19.60
  -6   4   2   47.44   18.56
  -5   4   2  863.21   36.59
  -4   4   2  525.38   26.87
  -3   4   2  973.68   35.00
  -3   4   2 1003.42   30.02
  -2   4   2  506.79   23.12
  -2   4   2  509.99   18.91
  -1   4   2 1377.01   33.12
  -1   4   2 1260.11   37.34
   0   4   2 2601.49   62.40
   1   4   2 1226.59   36.35
   2   4   2  265.33   16.41
   3   4   2  129.45   13.89
   3   4   2  144.93   12.42
   4   4   2  521.41   26.27
   4   4   2  532.45   24.47
   5   4   2  539.06   29.43
   5   4   2  509.68   26.42
   6   4   2  169.29   21.07
   7   4   2  200.91   24.63
   8   4   2  232.62   28.25
  -9   5   2    3.34   24.70
  -8   5   2   56.20   25.19
  -7   5   2   -5.53   18.40
  -6   5   2   -8.45   16.27
  -5   5   2  422.85   29.51
  -4   5   2 1021.25   34.13
  -4   5   2  986.72   39.31
  -3   5   2 1277.02   43.11
  -3   5   2 1350.56   37.53
  -2   5   2 1206.28   38.97
  -2   5   2 1216.95   32.97
  -1   5   2 2943.50   72.16
   0   5   2  642.29   20.84
   0   5   2  647.62   25.62
   1   5   2 3615.15   85.75
   1   5   2 3532.65   73.24
   2   5   2  125.84   13.89
   2   5   2   99.84   10.68
   4   5   2 1299.01   41.26
   4   5   2 1356.18   47.39
   5   5   2    1.36   10.00
   5   5   2   -3.33    9.72
   6   5   2  180.46   22.17
   7   5   2  248.48   25.74
   8   5   2   44.91   20.81
  -9   6   2  -10.01   25.02
  -8   6   2  -13.23   22.41
  -7   6   2   38.76   21.82
  -6   6   2   40.75   23.03
  -5   6   2  743.29   31.43
  -5   6   2  757.27   37.95
  -4   6   2 2008.95   61.75
  -4   6   2 1988.97   53.55
  -3   6   2 1719.19   54.89
  -3   6   2 1783.52   46.84
  -2   6   2 1051.69   37.99
  -1   6   2 1072.16   30.34
  -1   6   2 1066.81   37.11
   0   6   2  509.85   24.77
   0   6   2  528.97   19.39
   1   6   2   30.26    9.24
   1   6   2   35.78    7.14
   2   6   2  570.81   27.32
   2   6   2  551.21   21.85
   3   6   2  320.24   17.86
   3   6   2  309.75   21.61
   4   6   2  287.74   23.30
   5   6   2 1354.01   51.21
   5   6   2 1209.39   43.48
   6   6   2   23.75   14.69
   7   6   2  109.73   22.97
  -9   7   2   78.37   34.07
  -8   7   2  144.78   31.51
  -7   7   2  218.98   31.70
  -6   7   2   50.64   22.02
  -6   7   2   39.59   13.71
  -5   7   2  721.04   39.04
  -5   7   2  688.85   30.89
  -4   7   2  394.90   30.99
  -4   7   2  356.79   21.87
  -3   7   2 1000.30   33.22
  -3   7   2 1009.58   41.89
  -2   7   2  722.42   26.76
  -2   7   2  949.84   37.33
  -1   7   2  422.99   25.77
  -1   7   2  469.24   19.51
   0   7   2  550.41   21.62
   0   7   2  522.10   27.27
   1   7   2  399.18   18.31
   1   7   2  447.19   25.04
   2   7   2   53.87    9.51
   2   7   2   71.22   14.74
   3   7   2  467.70   27.79
   4   7   2   30.85   13.83
   5   7   2  456.40   30.99
   6   7   2  290.29   28.08
   7   7   2   81.37   22.48
  -9   8   2   39.64   17.55
  -8   8   2  -10.71   25.40
  -8   8   2   67.06   16.72
  -7   8   2  118.73   29.68
  -7   8   2  179.09   21.75
  -6   8   2   42.34   22.96
  -6   8   2   67.45   15.29
  -5   8   2  233.26   21.07
  -5   8   2  254.55   29.41
  -4   8   2  224.40   18.86
  -4   8   2  238.26   29.23
  -3   8   2  584.18   35.66
  -2   8   2  108.97   13.99
  -2   8   2  134.38   21.82
  -1   8   2  854.11   28.65
  -1   8   2  876.20   37.68
   0   8   2  198.37   21.50
   1   8   2  683.69   33.33
   2   8   2  246.22   22.32
   3   8   2   -6.66   10.79
   4   8   2  238.45   24.66
   5   8   2  180.58   26.12
   6   8   2   64.13   20.12
  -8   9   2   23.74   15.57
  -8   9   2  -16.85   27.42
  -7   9   2  134.60   30.29
  -7   9   2  161.10   23.12
  -6   9   2   92.43   18.70
  -6   9   2   95.29   27.23
  -5   9   2   17.76   21.37
  -5   9   2   27.72   13.87
  -4   9   2  194.66   28.90
  -4   9   2  124.28   17.28
  -3   9   2  278.10   28.61
  -2   9   2   -2.80   16.51
  -1   9   2  121.29   21.74
   0   9   2  208.32   23.04
   1   9   2  400.29   28.01
   2   9   2  297.89   25.48
   3   9   2   88.33   18.99
   4   9   2   91.55   20.74
   5   9   2   50.61   19.22
   6   9   2   20.36   18.50
  -8  10   2    1.71   16.76
  -7  10   2   68.21   29.85
  -7  10   2   67.83   18.84
  -6  10   2   37.60   26.73
  -5  10   2  143.02   29.35
  -4  10   2  105.01   25.46
  -3  10   2  356.04   30.60
  -2  10   2  254.43   27.49
  -1  10   2   69.44   18.37
   0  10   2  297.55   26.42
   1  10   2  564.84   33.87
   2  10   2   12.00   13.65
   3  10   2  300.18   27.73
   4  10   2  180.07   26.85
   5  10   2   63.96   22.84
  -7  11   2   -3.98   27.32
  -6  11   2   -2.60   24.67
  -5  11   2   45.15   25.94
  -4  11   2   66.89   24.92
  -3  11   2  678.48   41.63
  -2  11   2  332.34   30.73
  -1  11   2  361.04   29.86
   0  11   2  264.08   27.20
   1  11   2  210.05   24.44
   2  11   2  173.05   26.03
   3  11   2   76.78   21.81
   4  11   2  162.15   29.00
  -6  12   2   45.89   30.35
  -5  12   2  153.55   31.32
  -4  12   2  122.90   27.95
  -3  12   2  247.18   30.89
  -2  12   2  300.26   31.26
  -1  12   2  402.07   34.33
   0  12   2  391.73   32.72
   1  12   2  271.71   28.28
   2  12   2  223.90   27.31
   3  12   2   87.91   24.91
  -4  13   2  106.56   30.24
  -3  13   2  115.11   27.88
  -2  13   2  128.00   26.54
  -1  13   2  241.58   31.35
   0  13   2  109.07   24.30
   1  13   2  181.85   28.28
   2  13   2  118.17   26.22
   2  14  -3   12.94   20.66
   1  14  -3   57.34   21.99
   0  14  -3   30.61   21.70
  -1  14  -3   26.38   21.91
  -2  14  -3    8.78   22.69
  -3  14  -3   59.52   27.94
   4  13  -3    7.11   22.06
   3  13  -3   36.77   19.95
   2  13  -3   32.40   19.52
   1  13  -3   21.02   19.43
   0  13  -3  112.81   25.80
  -1  13  -3    3.84   20.51
  -2  13  -3   55.69   25.97
  -3  13  -3   35.17   24.23
  -4  13  -3   26.22   25.07
  -5  13  -3   -1.22   25.07
   5  12  -3  -14.26   20.65
   4  12  -3    7.09   16.42
   3  12  -3   25.40   17.81
   2  12  -3   14.26   18.00
   1  12  -3    4.34   18.15
   0  12  -3  171.76   27.74
  -1  12  -3   12.40   19.38
  -2  12  -3   34.03   22.66
  -3  12  -3   61.74   25.29
  -4  12  -3   27.29   24.76
  -5  12  -3   -2.31   22.93
  -6  12  -3   25.54   26.18
   6  11  -3   39.62   23.89
   5  11  -3   29.99   20.37
   4  11  -3   49.83   19.13
   3  11  -3   -7.12   14.37
   2  11  -3  130.97   23.02
  -2 -11   3  109.55   21.69
   1  11  -3    5.69   15.95
   0  11  -3   53.33   18.58
  -1  11  -3  175.67   27.25
  -2  11  -3   26.67   20.96
  -3  11  -3  -22.70   19.78
  -4  11  -3  -10.79   21.44
  -5  11  -3   11.75   23.61
  -6  11  -3    5.54   24.47
  -7  11  -3   -2.88   27.72
   6  10  -3   -4.12   19.32
   5  10  -3   29.45   18.05
   4  10  -3   29.90   17.10
   3  10  -3   20.12   15.52
  -3 -10   3    0.86   16.25
   2  10  -3   29.64   14.63
  -2 -10   3   30.16   17.21
   1  10  -3   14.64   14.43
  -1 -10   3   35.89   16.42
   0  10  -3   -8.02   13.72
  -1  10  -3   46.36   19.46
  -2  10  -3   67.80   22.68
  -3  10  -3   93.93   25.06
  -4  10  -3  -22.60   19.70
  -5  10  -3   90.44   26.94
  -6  10  -3   -6.12   21.82
  -7  10  -3  -32.03   24.61
   7   9  -3  -20.14   17.13
   6   9  -3    9.35   16.81
   5   9  -3   -7.92   14.89
   4   9  -3   45.53   16.41
   3   9  -3   -1.58   11.85
  -3  -9   3   -9.40   12.91
  -2  -9   3  -10.13   13.08
   2   9  -3   -3.26   10.74
  -1  -9   3   71.98   16.59
   1   9  -3   59.10   15.80
   0  -9   3   27.55   14.36
   0   9  -3   -3.62   13.04
  -1   9  -3   19.85   16.61
  -2   9  -3  114.81   22.69
  -3   9  -3  143.98   25.40
  -4   9  -3  265.66   30.20
  -5   9  -3   39.19   22.72
  -6   9  -3   -7.25   21.51
  -7   9  -3    6.53   23.54
  -8   9  -3   -0.21   25.67
   8   8  -3   35.70   25.64
   7   8  -3  -12.83   16.57
   6   8  -3    2.62   15.05
   5   8  -3   17.21   15.51
   4   8  -3   24.88   13.17
  -3  -8   3   10.86   12.29
   3   8  -3   14.46   10.78
  -2  -8   3    4.51   10.77
   2   8  -3   -5.28    8.52
   1   8  -3  313.13   22.88
  -1  -8   3  291.02   21.32
   0  -8   3   31.25   13.34
   0   8  -3   45.32   14.39
  -1   8  -3   47.43   15.56
   1  -8   3   27.69   12.69
  -2   8  -3   85.23   18.85
  -3   8  -3  124.35   23.41
  -4   8  -3  132.24   24.98
  -5   8  -3   53.82   21.86
  -6   8  -3   -0.82   21.19
  -7   8  -3  -17.84   23.48
  -8   8  -3  -50.21   24.23
   8   7  -3   21.96   20.05
   7   7  -3   24.93   18.00
   6   7  -3   26.35   16.54
   5   7  -3    4.41   13.53
   4   7  -3   75.44   15.63
  -4  -7   3  100.21   15.12
   3   7  -3   -5.63    8.32
  -3  -7   3    9.86    9.28
  -2  -7   3  154.97   15.26
   2   7  -3  140.98   15.87
  -1  -7   3  353.97   20.57
   1   7  -3  316.46   21.10
   0  -7   3  108.89   14.96
   0   7  -3  104.24   15.75
  -1   7  -3  359.28   24.66
   1  -7   3  424.91   23.99
  -2   7  -3    6.60   12.60
  -3   7  -3   53.93   17.72
  -4   7  -3   12.88   18.08
  -5   7  -3   24.50   20.36
  -6   7  -3    0.26   19.31
  -7   7  -3    3.97   20.04
  -8   7  -3  -13.05   23.14
   8   6  -3    4.58   22.07
   7   6  -3   -1.49   15.19
   6   6  -3    2.64   14.83
   5   6  -3  550.35   31.02
   4   6  -3    4.06    9.82
  -4  -6   3   -1.74    7.79
   3   6  -3  190.68   16.84
  -3  -6   3  191.93   14.23
   2   6  -3   -0.50    6.87
  -2  -6   3    7.82    6.91
   1   6  -3   -1.27    6.99
  -1  -6   3   -0.10    6.98
   0  -6   3  188.45   15.34
   0   6  -3  191.94   17.12
  -1   6  -3   -3.12   10.13
   1  -6   3    8.06    8.46
  -2   6  -3 3276.63   83.40
  -3   6  -3   23.46   13.78
  -4   6  -3  253.16   25.32
  -5   6  -3  197.64   24.32
  -6   6  -3   11.08   17.54
  -7   6  -3   -7.76   18.97
  -8   6  -3  -22.79   21.46
  -9   6  -3  -25.47   24.14
   9   5  -3   -8.23   24.66
   8   5  -3   37.16   21.72
   7   5  -3   -6.02   14.06
   6   5  -3   54.71   17.00
   5   5  -3  181.80   19.06
  -4  -5   3  339.07   18.06
   4   5  -3  358.89   22.42
   3   5  -3    6.10    7.31
  -3  -5   3   25.46    7.08
   2   5  -3  129.06   12.96
  -2  -5   3  145.92   11.65
   1   5  -3  118.05   12.58
  -1  -5   3   98.33   10.58
   0   5  -3  139.48   13.83
   0  -5   3  178.02   13.17
  -1   5  -3  168.39   16.50
   1  -5   3  192.97   15.27
  -2   5  -3  -15.42    9.53
   2  -5   3   -5.73    7.29
  -3   5  -3  202.77   20.08
  -4   5  -3  203.62   20.94
  -5   5  -3   14.48   15.04
  -6   5  -3  204.49   26.16
  -7   5  -3  -23.67   18.37
  -8   5  -3  -36.76   19.70
  -9   5  -3  -42.37   24.22
  -9  -4   3   72.07   26.24
   8   4  -3  -11.32   19.61
   7   4  -3   26.85   18.92
   6   4  -3    3.55   13.25
   5   4  -3    5.63    9.80
  -5  -4   3   16.82    8.36
  -4  -4   3  125.59   11.42
   4   4  -3  126.06   13.87
   3   4  -3   16.80    7.70
  -3  -4   3   25.75    6.71
   2   4  -3    1.22    5.70
  -2  -4   3   10.96    5.13
   1   4  -3   55.90    8.50
  -1  -4   3   47.17    7.37
   0  -4   3    8.97    5.70
   0   4  -3   -0.34    6.42
   1  -4   3  275.85   15.58
  -1   4  -3  269.50   18.30
   2  -4   3   32.23    8.78
  -2   4  -3   28.97   10.87
  -3   4  -3  154.46   16.61
  -4   4  -3   43.04   12.99
  -5   4  -3   39.60   14.86
  -6   4  -3   23.06   15.86
  -7   4  -3   -8.84   17.49
  -9  -3   3   44.17   24.57
  -8  -3   3   35.18   19.61
   7   3  -3   27.79   16.94
   6   3  -3   20.05   13.22
   5   3  -3  -10.38    8.05
   4   3  -3    9.54    7.63
  -3  -3   3    0.05    4.67
   3   3  -3    0.42    5.44
   2   3  -3  376.24   16.43
  -2  -3   3  373.23   15.34
  -1  -3   3 3536.30   78.71
   1   3  -3 3474.04   76.65
   0   3  -3 1720.69   41.71
   0  -3   3 1733.88   42.71
   1  -3   3 1330.79   36.86
   1  -3   3 1403.74   30.47
  -1   3  -3 1442.68   38.23
   2  -3   3  421.49   19.16
  -2   3  -3  438.53   20.87
   2  -3   3  448.49   15.88
  -3   3  -3   19.22    9.44
  -4   3  -3  252.61   19.34
  -5   3  -3    4.96   12.25
  -6   3  -3  -12.66   13.68
  -7   3  -3   -0.77   16.63
  -8   3  -3  -31.72   20.12
  -9   3  -3  -55.57   22.74
  -9  -2   3  -12.48   21.06
  -8  -2   3   18.81   18.92
  -7  -2   3   50.81   18.74
   6   2  -3   33.92   14.23
   5   2  -3    5.32    9.67
   4   2  -3   15.63    8.11
   3   2  -3    0.71    5.04
   1   2  -3 9997.34  200.18
  -1  -2   3 9865.13  206.08
   0   2  -3 4238.58   86.62
   0  -2   3 4051.65   89.56
   1  -2   3 1254.54   27.95
  -1   2  -3 1225.95   32.90
   1  -2   3 1306.73   32.21
  -2   2  -3  544.84   20.95
   2  -2   3  561.93   19.86
   2  -2   3  524.63   17.84
   3  -2   3   -6.11    4.91
  -3   2  -3    4.51    7.19
  -4   2  -3  553.64   25.11
  -5   2  -3   11.94   11.59
  -6   2  -3   15.90   13.75
  -7   2  -3    1.84   16.17
  -8   2  -3  -24.93   20.38
  -9   2  -3  -58.46   22.05
 -10  -1   3  -20.75   26.01
  -9  -1   3  -27.50   20.09
  -8  -1   3   12.08   18.78
  -7  -1   3   78.71   19.23
  -6  -1   3   -6.71   11.32
  -5  -1   3  223.36   17.42
   4   1  -3 1074.51   34.21
   3   1  -3   20.93    6.28
   2   1  -3 2155.38   48.49
   1   1  -3 1673.55   37.15
  -1  -1   3 1748.33   35.77
   0  -1   3  451.92   14.38
   1  -1   3 1784.98   38.46
  -2   1  -3  141.74   11.56
   2  -1   3  134.97    9.83
   3  -1   3  205.57   12.96
  -3   1  -3  208.89   15.08
   4  -1   3   65.84   10.05
  -4   1  -3   75.48   12.92
  -5   1  -3   19.75   11.88
  -6   1  -3  -14.53   11.18
  -7   1  -3    9.93   15.86
  -8   1  -3   -6.81   19.55
  -9   1  -3  -18.65   21.39
 -10   0   3  -39.32   27.11
  -9   0   3    2.70   21.60
  -8   0   3   31.84   19.60
  -7   0   3  -19.19   12.93
  -6   0   3   45.31   13.80
  -5   0   3    2.73    8.64
  -4   0   3  670.56   25.15
  -3   0   3 1052.38   29.64
  -2   0   3  841.93   22.72
  -2   0   3  880.98   22.96
  -1   0   3  261.47   10.75
   0   0   3 1220.37   27.63
   1   0   3 1800.69   41.83
   1   0   3 1880.85   40.35
   2   0   3  157.07   11.03
   2   0   3  140.73    9.73
   3   0   3  406.61   19.24
   3   0   3  428.29   18.33
   4   0   3   36.89    9.14
  -4   0  -3   29.78   10.68
  -5   0  -3   -0.09   10.92
  -6   0  -3    4.42   12.61
  -7   0  -3   33.62   17.85
  -8   0  -3    3.74   19.04
  -9   0  -3  -21.00   20.93
 -10   1   3  -69.76   25.39
  -9   1   3  -39.66   21.42
  -8   1   3    9.33   19.11
  -7   1   3    3.13   15.02
  -6   1   3   47.99   14.08
  -5   1   3  165.16   15.11
  -4   1   3  452.92   20.56
  -3   1   3  744.78   24.58
  -2   1   3  325.24   13.89
  -2   1   3  334.65   15.19
  -1   1   3  112.51   10.13
  -1   1   3  132.44    9.00
   0   1   3  494.18   15.81
   0   1   3  462.05   14.06
   1   1   3 1141.08   28.27
   1   1   3 1112.69   29.19
   2   1   3   57.89    7.70
   2   1   3   59.78    7.57
   3   1   3   -5.21    4.80
   3   1   3    0.45    5.00
   4   1   3    1.42    6.84
   4   1   3    3.47    6.96
   5   1   3  148.26   17.40
   5   1   3  139.82   16.37
  -6  -1  -3  154.90   20.62
  -7  -1  -3  108.23   20.08
  -8  -1  -3   -8.65   16.77
  -9  -1  -3    7.88   22.00
 -10   2   3  -66.89   26.11
  -9   2   3   35.32   25.46
  -8   2   3  -14.98   17.36
  -7   2   3  160.19   22.39
  -6   2   3    6.32   13.31
  -5   2   3   62.44   12.42
  -4   2   3  977.24   33.13
  -3   2   3  297.03   15.04
  -3   2   3  271.40   17.44
  -2   2   3   -0.61    4.41
  -2   2   3   -1.37    7.22
  -1   2   3    1.84    5.35
  -1   2   3   -2.69    4.61
   0   2   3   69.55    7.78
   0   2   3   69.16    7.55
   1   2   3   83.97    8.70
   1   2   3   81.06    9.16
   2   2   3   10.05    5.49
   2   2   3    0.15    5.21
   3   2   3   -1.47    5.26
   3   2   3   -1.24    5.37
   4   2   3   86.14   12.66
   4   2   3   70.26   12.02
   5   2   3   98.99   15.81
   5   2   3   84.76   14.24
   6   2   3  814.57   38.53
  -7  -2  -3   17.41   15.18
  -8  -2  -3    8.27   17.87
 -10   3   3  -62.03   26.41
  -9   3   3  -29.32   23.48
  -8   3   3  -17.15   20.51
  -7   3   3    2.00   16.46
  -6   3   3  439.86   28.13
  -5   3   3   23.17   13.48
  -4   3   3  139.61   17.13
  -3   3   3 1592.30   45.45
  -3   3   3 1566.58   40.70
  -2   3   3  215.88   12.88
  -2   3   3  210.67   15.62
  -1   3   3  301.75   14.42
  -1   3   3  286.49   15.47
   0   3   3  773.63   22.64
   0   3   3  776.14   24.52
   1   3   3    2.87    4.54
   1   3   3   -0.89    4.06
   2   3   3 1456.09   41.68
   2   3   3 1477.28   38.00
   3   3   3  336.23   17.47
   3   3   3  329.15   19.03
   4   3   3  122.62   14.69
   4   3   3  111.08   14.27
   5   3   3  292.38   21.18
   5   3   3  331.01   23.54
   6   3   3   54.62   16.21
   7   3   3  -13.01   13.84
  -8  -3  -3   39.61   17.01
  -9   4   3  -37.02   24.48
  -8   4   3  -10.91   22.50
  -7   4   3  146.51   25.47
  -6   4   3    2.69   15.76
  -5   4   3   15.82   13.88
  -4   4   3    1.56   11.58
  -4   4   3   -3.28    7.22
  -3   4   3   13.95    8.06
  -3   4   3   29.50   11.79
  -2   4   3  175.86   12.13
  -2   4   3  165.50   15.81
  -1   4   3  381.03   18.93
  -1   4   3  403.22   16.60
   0   4   3   92.46    9.27
   0   4   3   90.43   10.83
   1   4   3    0.64    4.81
   1   4   3    0.13    5.67
   2   4   3  382.56   19.82
   2   4   3  392.56   17.82
   3   4   3   32.32    8.44
   3   4   3   39.66   10.11
   4   4   3  139.86   16.44
   4   4   3  135.15   14.63
   5   4   3  331.95   22.72
   5   4   3  358.27   25.00
   6   4   3  -10.59   12.15
   6   4   3   -2.97   11.73
   7   4   3    9.44   15.18
   8   4   3   -9.38   16.80
  -9   5   3  -30.26   23.05
  -8   5   3   -9.33   20.26
  -7   5   3    4.24   18.16
  -6   5   3   -1.49   18.03
  -5   5   3    9.54   18.87
  -5   5   3   13.95   11.65
  -4   5   3   63.10   17.54
  -4   5   3   75.75   12.75
  -3   5   3  328.07   18.26
  -3   5   3  323.20   23.11
  -2   5   3   13.74    7.52
  -2   5   3   21.83   10.93
  -1   5   3    7.71    8.12
  -1   5   3    8.69    6.53
   0   5   3   96.47    9.70
   1   5   3    0.13    2.69
   1   5   3   -4.94    5.76
   2   5   3   79.58   12.07
   2   5   3   78.27    9.71
   3   5   3   49.88    9.54
   3   5   3   57.05   12.10
   4   5   3   21.46   11.05
   4   5   3   36.87   11.03
   5   5   3   37.17   13.13
   5   5   3   44.34   14.46
   6   5   3   52.27   16.94
   6   5   3   42.79   14.93
   7   5   3   -7.17   13.21
   8   5   3  -28.34   16.92
  -9   6   3  -51.05   23.70
  -8   6   3  -41.70   21.57
  -7   6   3   56.55   16.14
  -7   6   3   43.27   24.91
  -6   6   3   -9.24   11.15
  -6   6   3    3.06   20.19
  -5   6   3    2.93   11.18
  -5   6   3   32.37   20.04
  -4   6   3  193.90   24.66
  -4   6   3  172.66   18.33
  -3   6   3  241.28   17.01
  -3   6   3  281.20   24.04
  -2   6   3   84.49   12.06
  -2   6   3   72.15   14.97
  -1   6   3    0.51    4.00
  -1   6   3    0.75    9.12
   0   6   3  992.47   29.54
   0   6   3 1028.16   36.23
   1   6   3    0.14    6.83
   1   6   3    0.98    5.19
   2   6   3   16.86    9.11
   2   6   3    4.50    6.22
   3   6   3   -2.76    8.07
   3   6   3    3.96    3.84
   4   6   3   31.51   10.92
   4   6   3   13.82   11.49
   5   6   3  136.10   20.54
   5   6   3   92.66   16.80
   6   6   3   58.02   15.86
   6   6   3   24.24   16.11
   7   6   3   -3.00   16.53
  -9   7   3  -12.95   29.37
  -9   7   3   24.55   16.35
  -8   7   3   -3.94   25.28
  -8   7   3   35.99   16.09
  -7   7   3   79.69   17.98
  -7   7   3   93.84   27.11
  -6   7   3  121.81   18.52
  -6   7   3   71.55   22.72
  -5   7   3   14.40   20.66
  -5   7   3   10.82   12.25
  -4   7   3  305.08   29.89
  -4   7   3  305.31   21.09
  -3   7   3  191.79   24.24
  -3   7   3  160.89   17.07
  -2   7   3   77.34   17.48
  -2   7   3   36.52   10.20
  -1   7   3  105.87   17.00
  -1   7   3  109.71   12.21
   0   7   3   38.73   12.74
   0   7   3   46.04    9.36
   1   7   3   13.60    6.83
   1   7   3   30.80   11.23
   2   7   3    9.70   10.06
   2   7   3    3.11    6.83
   3   7   3  165.08   19.99
   3   7   3  135.60   13.95
   4   7   3   23.62   13.32
   5   7   3   19.86   14.19
   6   7   3    7.70   14.77
   7   7   3   -2.83   16.89
  -9   8   3    9.64   15.58
  -8   8   3  -37.09   24.16
  -8   8   3   17.28   14.62
  -7   8   3   -3.35   15.20
  -7   8   3   12.58   24.08
  -6   8   3   -0.69   13.83
  -6   8   3  -20.47   20.95
  -5   8   3   70.71   15.81
  -5   8   3   46.03   23.50
  -4   8   3   33.57   20.64
  -4   8   3   25.63   12.62
  -3   8   3   36.66   13.14
  -3   8   3   40.89   20.11
  -2   8   3  220.59   25.15
  -1   8   3   21.79   14.27
  -1   8   3   28.22    9.84
   0   8   3   27.42   13.93
   1   8   3    5.97   10.48
   2   8   3  134.39   19.40
   3   8   3   13.38   11.10
   4   8   3   34.25   16.14
   5   8   3   66.48   18.95
   6   8   3   60.98   21.40
  -8   9   3   -9.35   16.90
  -8   9   3  -39.18   26.25
  -7   9   3   18.79   25.95
  -7   9   3    2.27   14.78
  -6   9   3   29.96   15.83
  -6   9   3   -0.84   23.51
  -5   9   3   12.90   14.01
  -5   9   3   42.45   22.29
  -4   9   3   -9.94   17.76
  -4   9   3   -3.27   11.35
  -3   9   3   18.14   17.95
  -3   9   3   -8.63    7.76
  -2   9   3  169.66   24.98
  -1   9   3  -11.14   12.37
   0   9   3  -10.88   11.59
   1   9   3   61.78   15.84
   2   9   3  470.63   31.05
   3   9   3   10.45   13.05
   4   9   3    3.07   14.00
   5   9   3   -0.69   15.73
   6   9   3   12.28   17.44
  -8  10   3   -7.92   15.55
  -7  10   3  -18.44   15.94
  -7  10   3  -12.53   27.01
  -6  10   3   13.78   23.53
  -5  10   3    5.87   22.55
  -4  10   3  -16.49   19.51
  -3  10   3   25.09   18.23
  -2  10   3  342.58   29.09
  -1  10   3  170.54   23.70
   0  10   3   -2.49   13.47
   1  10   3  150.35   22.13
   2  10   3   77.14   18.86
   3  10   3   17.15   15.95
   4  10   3   -4.31   15.08
   5  10   3   10.98   16.69
  -7  11   3  -20.89   26.55
  -6  11   3  -10.29   25.70
  -5  11   3   -3.90   23.54
  -4  11   3   46.60   22.90
  -3  11   3   52.05   21.70
  -2  11   3  136.86   25.99
  -1  11   3   21.37   18.41
   0  11   3    3.29   15.08
   1  11   3    7.06   14.80
   2  11   3    4.28   14.77
   3  11   3   17.04   15.55
   4  11   3   21.76   19.18
  -6  12   3    2.82   27.06
  -5  12   3   21.72   24.76
  -4  12   3   45.43   23.18
  -3  12   3  100.07   26.33
  -2  12   3   37.11   20.19
  -1  12   3   11.32   17.54
   0  12   3   35.52   16.79
   1  12   3   28.39   17.01
   2  12   3    1.30   16.48
   3  12   3    9.92   18.17
  -4  13   3   37.87   26.41
  -3  13   3   54.08   24.63
  -2  13   3   27.22   22.03
  -1  13   3   39.04   21.04
   0  13   3   31.87   19.90
   1  13   3   49.37   19.96
   2  14  -4   71.35   25.44
   1  14  -4   32.25   21.95
   0  14  -4   86.86   24.07
  -1  14  -4  174.58   30.82
  -2  14  -4  114.27   29.70
  -3  14  -4  161.17   31.78
  -4  14  -4   41.65   27.24
   4  13  -4   50.21   23.68
   3  13  -4  113.82   25.39
   2  13  -4  143.82   26.72
   1  13  -4  136.39   25.86
   0  13  -4   82.70   24.46
  -1  13  -4   80.70   25.26
  -2  13  -4   19.11   23.54
  -3  13  -4  101.23   29.60
  -4  13  -4   72.21   28.40
  -5  13  -4   40.51   27.31
   5  12  -4   17.31   22.28
   4  12  -4   76.05   23.02
   3  12  -4   48.73   19.51
   2  12  -4  141.49   25.31
  -2 -12   4  167.56   27.26
   1  12  -4  141.39   25.82
   0  12  -4   33.46   19.95
  -1  12  -4  115.41   26.21
  -2  12  -4   -4.25   19.38
  -3  12  -4  151.56   29.95
  -4  12  -4   95.74   27.94
  -5  12  -4   46.97   25.72
  -6  12  -4   15.36   26.42
   6  11  -4   75.16   26.37
   5  11  -4  118.10   26.10
   4  11  -4  118.56   23.17
  -3 -11   4   50.67   21.01
   3  11  -4   77.07   20.20
   2  11  -4   -1.12   14.47
  -2 -11   4  -24.74   15.51
   1  11  -4  194.81   26.09
  -1 -11   4  187.23   24.69
   0 -11   4  214.94   25.06
   0  11  -4  249.46   26.07
  -1  11  -4  -13.01   17.75
  -2  11  -4  554.79   38.13
  -3  11  -4  463.93   36.66
  -4  11  -4   38.87   23.46
  -5  11  -4  312.58   34.97
  -6  11  -4   36.82   25.70
   7  10  -4   60.50   26.00
   6  10  -4  155.26   28.72
   5  10  -4  131.98   24.40
   4  10  -4   95.17   21.03
  -3 -10   4  198.91   23.72
   3  10  -4  215.11   22.37
   2  10  -4  125.32   20.82
  -2 -10   4  128.81   21.29
  -1 -10   4  261.22   24.38
   1  10  -4  280.70   25.84
   0 -10   4  169.36   21.82
   0  10  -4  195.66   25.43
  -1  10  -4  800.02   41.43
  -2  10  -4   33.94   21.19
  -3  10  -4  862.64   45.13
  -4  10  -4  116.27   27.30
  -5  10  -4   90.66   26.74
  -6  10  -4  151.06   29.69
  -7  10  -4    1.12   25.62
   7   9  -4   91.71   24.77
   6   9  -4  172.99   26.59
   5   9  -4   49.70   18.70
   4   9  -4  124.00   20.28
   3   9  -4  147.61   20.67
  -3  -9   4  138.66   20.12
  -2  -9   4  134.05   19.16
   2   9  -4  107.21   18.27
   1   9  -4  566.99   31.12
  -1  -9   4  528.45   29.28
   0  -9   4   33.68   14.18
   0   9  -4   32.97   15.92
   1  -9   4  317.54   25.14
  -1   9  -4  301.00   27.19
  -2   9  -4 1301.93   51.44
  -3   9  -4  115.67   25.28
  -4   9  -4  445.36   34.82
  -5   9  -4  251.69   31.78
  -6   9  -4   27.00   24.39
  -7   9  -4   17.23   24.73
  -8   9  -4    2.10   27.72
   8   8  -4   36.19   26.44
   7   8  -4   41.44   20.94
   6   8  -4  118.91   21.88
   5   8  -4    0.23   13.49
  -4  -8   4   24.68   13.53
   4   8  -4    8.84   12.62
   3   8  -4  106.86   16.92
  -3  -8   4   66.65   14.36
  -2  -8   4  282.25   21.01
   2   8  -4  287.85   21.87
   1   8  -4  443.77   26.20
  -1  -8   4  454.52   25.14
   0   8  -4  600.77   30.74
   0  -8   4  676.57   30.52
  -1   8  -4  250.97   24.13
   1  -8   4  260.76   21.32
  -2   8  -4  509.32   31.52
   2  -8   4  488.05   28.40
  -3   8  -4  663.86   37.40
  -4   8  -4  161.83   26.18
  -5   8  -4  339.59   30.59
  -6   8  -4  306.52   33.62
  -7   8  -4   33.10   26.86
  -8   8  -4  -26.84   25.43
   8   7  -4   59.84   23.99
   7   7  -4   63.32   21.09
   6   7  -4   39.04   17.56
   5   7  -4  281.90   24.86
  -4  -7   4   13.64   10.21
   4   7  -4    5.83   10.84
   3   7  -4  176.65   17.54
  -3  -7   4  168.89   15.53
   2   7  -4  510.21   25.94
  -2  -7   4  520.93   24.46
  -1  -7   4  707.75   28.74
   1   7  -4  657.95   29.40
   0   7  -4 1584.78   49.34
   0  -7   4 1620.95   49.03
  -1   7  -4  981.81   37.70
   1  -7   4  966.12   36.80
   2  -7   4  266.38   20.88
  -2   7  -4  264.46   24.43
  -3   7  -4  422.29   29.06
  -4   7  -4  174.79   24.36
  -5   7  -4   -2.67   19.39
  -6   7  -4  246.92   28.31
  -7   7  -4   72.80   25.73
  -8   7  -4   17.73   24.18
   8   6  -4   28.03   22.75
   7   6  -4  148.25   24.49
   6   6  -4  191.39   22.18
   5   6  -4  145.45   19.40
   4   6  -4  666.58   31.10
  -4  -6   4  692.31   28.31
   3   6  -4  237.39   18.58
  -3  -6   4  284.13   17.31
   2   6  -4  117.03   13.87
  -2  -6   4  101.36   11.24
  -1  -6   4 1855.86   52.50
   1   6  -4 2047.86   54.19
   0   6  -4 1016.96   34.59
   0  -6   4  988.19   33.91
  -1   6  -4  138.40   16.45
   1  -6   4  118.77   14.54
  -2   6  -4  417.85   25.38
   2  -6   4  391.34   22.98
  -3   6  -4  514.49   29.11
  -4   6  -4   40.03   16.87
  -5   6  -4   -0.27   16.43
  -6   6  -4  108.07   22.96
  -7   6  -4   65.47   24.22
  -8   6  -4   86.45   28.19
   7   5  -4   66.92   19.24
   6   5  -4  229.43   22.07
   5   5  -4  510.69   27.84
  -5  -5   4  515.95   24.00
  -4  -5   4  318.55   18.23
   4   5  -4  313.83   20.95
   3   5  -4   -1.92    6.41
  -3  -5   4   -0.45    5.15
   2   5  -4  179.59   13.89
  -2  -5   4  175.20   12.71
  -1  -5   4   35.39    7.68
   1   5  -4   30.89    8.32
   0  -5   4 1042.30   33.45
   0   5  -4 1149.68   34.29
  -1   5  -4  237.53   18.45
   1  -5   4  221.18   15.44
   2  -5   4 1015.69   35.32
  -2   5  -4  990.60   35.66
  -3   5  -4  185.20   18.86
  -4   5  -4  612.76   31.36
  -5   5  -4  289.04   26.17
  -6   5  -4   15.24   17.68
  -7   5  -4  322.82   31.91
  -8   5  -4   63.45   26.95
  -9   5  -4  -38.57   26.51
  -9  -4   4  132.26   30.07
   8   4  -4  108.86   25.02
   7   4  -4   50.97   17.51
   6   4  -4   63.69   16.10
   5   4  -4  288.57   20.57
  -5  -4   4  288.24   17.49
  -4  -4   4  742.86   27.05
   4   4  -4  766.14   29.66
  -3  -4   4  172.42   12.15
   3   4  -4  167.57   13.68
   2   4  -4 2222.67   55.37
  -2  -4   4 2251.40   55.86
  -2  -4   4 2178.03   44.30
   1   4  -4  932.43   28.48
  -1  -4   4 1005.43   29.84
   0   4  -4  309.15   16.08
   0  -4   4  345.94   15.83
  -1   4  -4   97.05   11.94
   1  -4   4   60.95    6.36
   1  -4   4   72.26    9.55
   2  -4   4  285.27   13.08
  -2   4  -4  289.48   19.08
   2  -4   4  284.29   17.25
  -3   4  -4  721.36   30.41
  -4   4  -4  583.14   28.82
  -5   4  -4  857.77   38.32
  -6   4  -4  245.88   27.44
  -7   4  -4  398.32   31.91
  -8   4  -4  110.50   27.56
  -9   4  -4  -55.17   23.63
  -9  -3   4  120.73   28.83
  -8  -3   4  232.95   29.77
   7   3  -4  115.75   21.43
   6   3  -4  215.70   20.79
   5   3  -4  565.32   26.88
   4   3  -4  600.20   24.53
   3   3  -4  122.76   11.11
  -2  -3   4 2581.27   51.55
  -2  -3   4 2560.04   61.74
   1   3  -4 3553.17   75.37
  -1  -3   4 3343.10   78.12
   0   3  -4 3129.74   68.25
   0  -3   4 3076.76   71.29
   1  -3   4 2688.68   63.84
   1  -3   4 2784.49   54.66
   2  -3   4  206.17   11.52
  -2   3  -4  190.20   15.98
   2  -3   4  139.49   11.51
  -3   3  -4  793.74   29.55
   3  -3   4  795.26   25.91
  -4   3  -4  617.13   28.76
  -5   3  -4  868.58   37.86
  -6   3  -4  347.74   28.27
  -7   3  -4  413.38   32.31
  -8   3  -4  118.38   28.48
  -9   3  -4   78.61   31.13
  -9  -2   4   35.21   25.65
  -8  -2   4  339.81   30.47
  -7  -2   4  246.50   24.94
   5   2  -4  453.78   23.30
   4   2  -4 1804.71   48.94
   3   2  -4    6.12    3.54
   2   2  -4  466.31   16.08
  -2  -2   4  473.84   15.23
  -1  -2   4 5212.26  103.77
   1   2  -4 5851.27  115.29
  -1  -2   4 5743.22  121.13
   0  -2   4   10.02    4.54
   0   2  -4   18.44    5.64
   0  -2   4   13.97    4.70
   1  -2   4 5354.67  115.13
   1  -2   4 5512.27  102.27
  -1   2  -4 5254.89  112.47
  -2   2  -4 3095.94   70.35
   2  -2   4 2932.05   62.75
   2  -2   4 3023.39   69.28
   3  -2   4  939.05   28.89
  -3   2  -4  919.34   31.39
   4  -2   4  435.13   20.49
  -4   2  -4  428.95   23.19
  -5   2  -4 1119.45   41.91
  -6   2  -4  242.47   23.94
  -7   2  -4  324.41   29.14
  -8   2  -4  127.38   27.77
  -9   2  -4   49.71   28.80
 -10  -1   4   12.45   27.13
  -9  -1   4  -16.12   20.54
  -8  -1   4   68.01   21.66
  -7  -1   4  347.52   26.86
  -6  -1   4  539.88   28.30
  -5  -1   4  774.06   29.90
  -4  -1   4  592.62   22.97
   3   1  -4 1234.77   33.53
   2   1  -4   30.40    5.24
  -2  -1   4   28.62    5.98
  -1  -1   4  158.92   10.05
   0  -1   4 4935.92   93.61
   1  -1   4  143.09   10.41
   1  -1   4  142.94    8.46
  -1   1  -4  145.29    9.47
   2  -1   4  293.38   13.60
   2  -1   4  308.90   12.09
  -2   1  -4  284.85   15.03
   3  -1   4 3127.90   69.48
  -3   1  -4 3189.34   75.62
   4  -1   4  239.58   16.14
  -4   1  -4  217.50   18.11
   5  -1   4  977.06   35.42
  -5   1  -4  943.15   38.01
  -6   1  -4  180.60   23.03
  -7   1  -4   29.79   17.93
  -8   1  -4  210.80   30.13
  -9   1  -4   51.06   27.64
 -10   0   4  -28.86   28.39
  -9   0   4  -13.50   21.59
  -8   0   4   40.44   19.97
  -7   0   4   85.93   18.65
  -6   0   4  315.58   21.88
  -5   0   4  508.79   23.48
  -4   0   4  886.35   28.87
  -3   0   4  866.37   25.69
  -3   0   4  831.65   24.87
  -2   0   4  357.79   14.53
  -2   0   4  355.07   13.15
  -1   0   4  105.90    9.53
   0   0   4 2879.50   58.59
   1   0   4 4897.94   94.86
   1   0   4 4845.81  101.79
   2   0   4  903.02   26.97
   2   0   4  868.63   25.97
   3   0   4   63.69    9.34
   3   0   4   87.37   10.49
   4   0   4 1222.73   38.47
  -4   0  -4 1251.96   40.67
  -5   0  -4  467.31   26.73
   5   0   4  463.25   24.63
  -6   0  -4    1.73   13.31
  -7   0  -4   29.43   17.89
  -8   0  -4   57.52   21.24
  -9   0  -4   22.95   23.91
 -10   1   4  -43.90   26.44
  -9   1   4  185.91   31.40
  -8   1   4  217.97   27.51
  -7   1   4  201.38   23.13
  -6   1   4  466.41   26.85
  -5   1   4  212.58   17.64
  -4   1   4   30.62    9.27
  -3   1   4  487.64   19.03
  -3   1   4  514.85   19.49
  -2   1   4   25.33    6.34
  -2   1   4   27.80    6.73
  -1   1   4 2672.17   55.51
  -1   1   4 2569.74   56.04
   0   1   4 1571.34   36.31
   0   1   4 1523.42   35.45
   1   1   4  480.46   16.93
   1   1   4  505.48   18.42
   2   1   4  327.22   15.60
   2   1   4  356.94   16.51
   3   1   4  475.18   20.26
   3   1   4  457.87   21.10
   4   1   4  336.40   20.80
   4   1   4  347.34   19.86
   5   1   4  483.43   27.52
   5   1   4  479.90   25.76
   6   1   4    1.28   11.76
  -6  -1  -4    7.09   13.74
  -7  -1  -4  199.55   22.80
  -8  -1  -4  102.00   23.12
  -9   2   4  216.24   32.35
  -8   2   4  223.57   26.87
  -7   2   4  141.70   21.86
  -6   2   4  864.91   35.69
  -5   2   4  840.53   33.28
  -4   2   4  164.81   14.34
  -4   2   4  178.95   16.53
  -3   2   4  775.43   26.75
  -3   2   4  788.14   25.97
  -2   2   4  119.67   10.24
  -2   2   4  117.69   12.54
  -1   2   4  130.17   10.46
  -1   2   4  159.30   11.05
   0   2   4  926.75   25.85
   0   2   4  897.36   25.21
   1   2   4 3398.17   70.81
   1   2   4 3392.47   75.96
   2   2   4   95.61   10.38
   2   2   4   99.62   10.66
   3   2   4 1324.40   37.43
   3   2   4 1342.50   40.63
   4   2   4 1029.30   35.10
   4   2   4  988.89   36.75
   5   2   4   77.93   14.99
   5   2   4  107.95   16.08
   6   2   4 1008.43   41.60
   6   2   4  991.76   42.84
  -7  -2  -4  311.66   24.63
  -8  -2  -4   86.63   20.59
  -9   3   4    5.26   24.70
  -8   3   4  233.75   29.67
  -7   3   4  411.74   30.80
  -6   3   4   22.20   17.09
  -5   3   4 1684.86   48.76
  -5   3   4 1693.75   52.94
  -4   3   4  627.84   25.54
  -4   3   4  597.23   26.69
  -3   3   4  110.66   12.09
  -3   3   4  107.03   14.07
  -2   3   4 2414.85   58.69
  -2   3   4 2483.36   55.98
  -1   3   4 1320.23   35.74
  -1   3   4 1343.76   34.90
   0   3   4 4837.32   96.74
   0   3   4 4907.39  105.52
   1   3   4  262.18   14.57
   1   3   4  261.32   14.40
   2   3   4 3175.96   69.74
   2   3   4 3158.76   76.40
   3   3   4 1116.50   34.32
   3   3   4 1103.52   37.15
   4   3   4  701.04   28.83
   4   3   4  691.73   30.41
   5   3   4  156.68   18.74
   5   3   4  153.59   18.67
   6   3   4  164.51   22.64
   6   3   4  197.17   20.56
   7   3   4  331.22   29.07
  -8  -3  -4   98.59   20.36
 -10   4   4  -39.12   28.29
  -9   4   4   37.05   28.10
  -8   4   4  183.52   30.09
  -7   4   4   -2.73   18.79
  -6   4   4  705.39   36.02
  -6   4   4  663.51   30.92
  -5   4   4  394.21   22.44
  -5   4   4  377.42   26.95
  -4   4   4  718.37   32.57
  -4   4   4  725.91   28.54
  -3   4   4 1182.78   35.45
  -3   4   4 1132.89   37.97
  -2   4   4  185.25   15.87
  -2   4   4  172.43   13.03
  -1   4   4  222.16   15.63
  -1   4   4  237.13   14.47
   0   4   4 2515.12   61.67
   0   4   4 2458.10   55.93
   1   4   4 2124.98   55.30
   1   4   4 2096.58   50.15
   2   4   4  739.67   26.31
   2   4   4  737.10   28.34
   3   4   4 1134.92   35.68
   3   4   4 1139.14   39.72
   4   4   4  245.64   18.33
   4   4   4  211.47   19.15
   5   4   4  150.37   18.83
   5   4   4  180.43   18.75
   6   4   4   28.93   13.90
   6   4   4   32.80   13.66
   7   4   4   65.52   19.12
   8   4   4    8.63   19.11
  -9   5   4   50.61   27.41
  -9   5   4   55.03   18.12
  -8   5   4  103.59   26.14
  -8   5   4  143.93   20.82
  -7   5   4   49.14   15.64
  -7   5   4   50.63   21.44
  -6   5   4  235.99   28.33
  -6   5   4  274.38   21.27
  -5   5   4  350.11   28.07
  -5   5   4  332.43   22.27
  -4   5   4  237.81   24.69
  -4   5   4  244.74   18.64
  -3   5   4  775.79   32.73
  -3   5   4  761.81   28.27
  -2   5   4 1129.87   37.88
  -2   5   4 1160.21   35.19
  -1   5   4  408.81   21.18
  -1   5   4  440.77   19.55
   0   5   4  112.86   13.27
   0   5   4  124.18   12.27
   1   5   4  560.51   24.60
   1   5   4  564.24   22.36
   2   5   4  398.60   21.80
   2   5   4  405.66   19.95
   3   5   4  239.27   19.22
   3   5   4  218.59   16.42
   4   5   4  752.99   34.15
   4   5   4  752.05   31.09
   5   5   4  328.18   23.46
   5   5   4  332.35   25.40
   6   5   4   49.65   15.13
   6   5   4   28.79   14.95
   7   5   4  163.74   25.69
  -9   6   4  -19.04   26.93
  -9   6   4   27.83   15.63
  -8   6   4   52.77   17.24
  -8   6   4   29.86   27.51
  -7   6   4  191.74   30.82
  -7   6   4  166.28   21.96
  -6   6   4  211.23   28.33
  -6   6   4  206.61   20.92
  -5   6   4   72.18   22.66
  -5   6   4   93.85   16.81
  -4   6   4  665.81   35.16
  -4   6   4  651.99   29.41
  -3   6   4  212.95   17.40
  -3   6   4  232.81   23.07
  -2   6   4  854.28   34.31
  -2   6   4  905.25   30.71
  -1   6   4  185.94   15.24
  -1   6   4  165.41   17.39
   0   6   4 1165.29   39.32
   0   6   4 1121.17   34.40
   1   6   4  936.33   35.20
   1   6   4  929.19   30.36
   2   6   4  228.72   16.56
   2   6   4  254.95   19.57
   3   6   4   33.35   10.29
   3   6   4   27.30   11.74
   4   6   4  272.77   23.28
   4   6   4  293.68   20.38
   5   6   4  425.48   26.79
   5   6   4  409.86   29.30
   6   6   4   95.47   19.98
   6   6   4   98.17   18.36
   7   6   4  197.70   28.47
  -9   7   4   20.33   29.47
  -9   7   4   14.84   17.57
  -8   7   4   18.00   26.18
  -8   7   4   36.72   16.63
  -7   7   4  115.85   28.47
  -7   7   4   79.44   20.24
  -6   7   4  125.06   20.36
  -6   7   4  101.32   26.14
  -5   7   4   55.27   15.46
  -5   7   4   66.63   22.69
  -4   7   4  513.78   26.56
  -4   7   4  475.69   32.75
  -3   7   4  286.38   26.04
  -3   7   4  256.30   19.57
  -2   7   4 1232.07   38.66
  -2   7   4 1277.78   45.40
  -1   7   4  311.52   18.57
  -1   7   4  347.01   23.32
   1   7   4  462.79   21.46
   1   7   4  550.41   27.83
   2   7   4    7.52    5.48
   2   7   4   24.73   11.27
   4   7   4    6.66   12.48
   5   7   4   75.05   17.79
   6   7   4  110.95   22.25
  -8   8   4  118.15   31.78
  -8   8   4   74.47   20.92
  -7   8   4  113.06   28.82
  -7   8   4  151.46   23.32
  -6   8   4  408.79   35.61
  -6   8   4  359.15   27.38
  -5   8   4  216.52   21.39
  -5   8   4  232.85   29.88
  -4   8   4  639.24   36.82
  -4   8   4  587.53   29.93
  -3   8   4  442.90   31.12
  -3   8   4  429.10   25.64
  -2   8   4   81.82   14.03
  -2   8   4  128.68   22.53
  -1   8   4  265.41   23.26
  -1   8   4  182.91   16.48
   0   8   4  123.32   14.74
   0   8   4  125.17   19.38
   1   8   4   87.43   15.84
   2   8   4  123.31   18.45
   3   8   4  307.90   25.54
   4   8   4   51.43   16.95
   5   8   4  145.61   22.59
   6   8   4   72.73   21.80
  -8   9   4   18.57   17.76
  -8   9   4  -12.69   26.93
  -7   9   4   14.24   16.78
  -7   9   4    7.79   26.57
  -6   9   4  171.92   30.60
  -6   9   4  195.75   24.78
  -5   9   4  226.24   22.92
  -5   9   4  232.69   31.88
  -4   9   4  334.02   31.11
  -4   9   4  300.84   23.47
  -3   9   4  299.90   21.81
  -3   9   4  406.83   30.48
  -2   9   4  225.47   25.10
  -1   9   4   11.50   14.08
   0   9   4   58.53   16.06
   1   9   4   84.29   16.84
   2   9   4  136.44   20.62
   3   9   4  434.15   30.60
   4   9   4  138.28   23.00
   5   9   4  188.45   26.94
  -7  10   4   67.33   29.07
  -7  10   4   21.43   18.98
  -6  10   4  105.62   29.84
  -6  10   4  151.09   24.05
  -5  10   4   92.51   26.67
  -4  10   4  232.45   31.74
  -3  10   4  314.44   30.64
  -2  10   4  223.08   26.16
  -1  10   4  534.89   33.84
   0  10   4  208.11   23.73
   1  10   4  204.80   23.16
   2  10   4  193.42   23.67
   3  10   4  262.40   26.29
   4  10   4  106.37   23.74
  -6  11   4  248.15   36.59
  -5  11   4  173.74   32.19
  -4  11   4  144.68   28.39
  -3  11   4  315.25   31.86
  -2  11   4  168.05   25.68
  -1  11   4  227.53   25.92
   0  11   4  223.45   25.38
   1  11   4  215.31   24.93
   2  11   4  254.25   27.78
   3  11   4  226.81   29.34
   4  11   4   40.45   20.57
  -5  12   4  304.31   35.97
  -4  12   4   54.37   25.51
  -3  12   4   87.66   24.96
  -2  12   4   90.94   23.53
  -1  12   4  213.86   28.38
   0  12   4  157.42   25.08
   1  12   4  177.22   26.47
   2  12   4   99.28   24.03
  -4  13   4  327.16   35.71
  -3  13   4  108.70   27.39
  -2  13   4   79.13   24.80
  -1  13   4   19.37   20.46
   0  13   4  141.51   26.45
   3  14  -5   47.14   23.79
   2  14  -5    5.97   18.53
   1  14  -5   43.17   20.79
   0  14  -5   97.82   25.90
  -1  14  -5   32.86   22.00
  -2  14  -5   59.72   26.89
  -3  14  -5   90.95   28.94
  -4  14  -5   65.75   30.32
   4  13  -5  -13.99   19.51
   3  13  -5    2.20   18.28
  -2 -13   5  -28.15   18.57
   2  13  -5   14.17   18.01
   1  13  -5   64.32   21.67
   0  13  -5   35.33   21.45
  -1  13  -5   54.65   23.89
  -2  13  -5   23.39   22.82
  -3  13  -5   34.45   24.29
  -4  13  -5   40.03   25.99
  -5  13  -5   23.79   27.05
   5  12  -5   13.15   19.72
   4  12  -5   -4.79   18.55
   3  12  -5   42.29   18.75
  -3 -12   5  -29.18   20.43
  -2 -12   5   -7.16   19.56
   2  12  -5    7.32   15.69
  -1 -12   5   10.70   18.50
   1  12  -5    9.36   18.10
   0  12  -5    5.05   18.30
   0 -12   5    8.75   17.15
  -1  12  -5   16.00   20.59
  -2  12  -5   46.12   22.80
  -3  12  -5   26.36   21.80
  -4  12  -5   53.25   25.55
  -5  12  -5    4.81   22.39
  -6  12  -5   -7.21   26.49
   6  11  -5   10.90   20.51
   5  11  -5    5.31   18.17
   4  11  -5    3.19   16.82
   3  11  -5    9.03   15.60
  -3 -11   5    2.74   18.50
  -2 -11   5   -5.41   16.66
   2  11  -5    6.28   15.59
  -1 -11   5    6.79   16.32
   1  11  -5    0.08   15.58
   0  11  -5   96.28   21.30
   0 -11   5   73.47   19.07
   1 -11   5   25.19   16.39
  -1  11  -5   60.67   21.11
  -2  11  -5  144.80   27.22
  -3  11  -5   59.26   23.35
  -4  11  -5   27.68   23.73
  -5  11  -5   -1.80   24.11
  -6  11  -5   -5.73   24.09
   7  10  -5   -6.44   20.54
   6  10  -5  -11.56   17.66
   5  10  -5   10.03   17.58
   4  10  -5   -1.25   13.41
   3  10  -5   -1.04   13.12
  -3 -10   5   -9.75   14.79
   2  10  -5   -1.56   12.47
  -2 -10   5    0.57   13.84
  -1 -10   5   47.81   16.69
   1  10  -5    6.42   14.72
   0 -10   5    1.90   14.16
   0  10  -5    0.84   15.45
   1 -10   5   -7.63   13.41
  -1  10  -5   -2.09   16.88
  -2  10  -5    1.03   18.38
  -3  10  -5   10.38   20.85
  -4  10  -5   42.62   23.99
  -5  10  -5   48.13   26.08
  -6  10  -5  -26.90   23.04
  -7  10  -5  -47.77   24.37
   7   9  -5  -19.53   18.17
   6   9  -5    4.49   17.49
   5   9  -5   38.54   17.12
   4   9  -5   -7.98   12.24
  -4  -9   5    6.23   14.32
  -3  -9   5   -0.96   13.82
   3   9  -5   12.93   11.88
   2   9  -5   11.57   11.72
  -2  -9   5    9.80   12.41
   1   9  -5  127.54   19.65
  -1  -9   5  112.14   17.99
   0  -9   5  102.32   17.63
   0   9  -5   93.16   19.46
   1  -9   5   33.64   14.78
  -1   9  -5   44.21   18.08
  -2   9  -5   44.13   20.42
   2  -9   5   29.45   15.69
  -3   9  -5   13.06   20.03
  -4   9  -5   57.06   22.90
  -5   9  -5   25.01   21.99
  -6   9  -5   -9.77   22.64
  -7   9  -5  -29.25   22.08
   8   8  -5   -8.32   20.65
   7   8  -5  -25.10   16.81
   6   8  -5   24.42   18.27
   5   8  -5   -9.29   13.12
   4   8  -5   -6.31   10.68
  -4  -8   5   -1.31   11.25
   3   8  -5    1.32   10.04
  -3  -8   5    7.45   10.42
   2   8  -5   29.90   11.93
  -2  -8   5   16.33   10.69
  -1  -8   5   51.12   13.13
   1   8  -5   60.37   13.88
   0   8  -5  223.67   21.94
   0  -8   5  189.74   18.25
   1  -8   5  169.47   19.91
  -1   8  -5  186.41   22.04
  -2   8  -5   -6.67   14.25
   2  -8   5  -15.76   10.81
  -3   8  -5    1.71   17.42
  -4   8  -5   18.33   20.16
  -5   8  -5   -7.16   18.50
  -6   8  -5    2.30   22.62
  -7   8  -5  -25.50   23.80
  -8   8  -5  -10.07   28.21
   8   7  -5  -12.21   19.71
   7   7  -5    1.54   16.88
   6   7  -5   -6.68   14.03
  -5  -7   5   26.13   12.43
   5   7  -5   29.37   15.08
   4   7  -5   94.13   16.15
  -4  -7   5   98.55   15.08
  -3  -7   5   26.13   10.44
   3   7  -5   34.17   11.25
   2   7  -5   76.97   13.59
  -2  -7   5   89.63   13.06
   1   7  -5  149.36   16.55
  -1  -7   5  155.50   14.79
   0  -7   5   48.04   11.72
   0   7  -5   39.80   12.69
  -1   7  -5  185.76   19.85
   1  -7   5  136.03   16.10
  -2   7  -5   65.41   17.72
   2  -7   5   50.67   13.98
  -3   7  -5   11.86   16.20
  -4   7  -5  224.02   25.79
  -5   7  -5  158.82   27.01
  -6   7  -5   15.18   20.94
  -7   7  -5   26.54   22.54
  -8   7  -5  -49.63   22.26
   9   6  -5   31.59   26.31
   8   6  -5    9.29   19.78
   7   6  -5   -3.63   16.52
   6   6  -5   12.80   14.61
  -5  -6   5  171.88   16.84
   5   6  -5  167.25   18.11
  -4  -6   5   78.16   12.70
   4   6  -5   83.35   14.87
   3   6  -5  513.82   25.23
  -3  -6   5  534.31   23.96
   2   6  -5   74.50   11.68
  -2  -6   5   78.56   11.84
  -1  -6   5   79.29   11.33
   1   6  -5  100.21   12.67
   0  -6   5  195.34   14.83
   0   6  -5  208.37   17.08
  -1   6  -5    2.05    9.82
   1  -6   5    4.69    8.21
  -2   6  -5   29.58   13.09
   2  -6   5   45.04   12.17
  -3   6  -5    6.16   14.37
   3  -6   5   -6.65   10.05
  -4   6  -5   41.46   17.73
  -5   6  -5  304.94   28.20
  -6   6  -5   -6.25   17.68
  -7   6  -5   16.45   21.31
  -8   6  -5  -31.99   22.11
  -9  -5   5   79.73   28.70
   8   5  -5   32.08   20.94
   7   5  -5    3.91   16.70
   6   5  -5   14.21   13.38
  -5  -5   5   14.87    8.37
   5   5  -5    0.07   10.13
  -4  -5   5  295.02   17.54
   4   5  -5  290.48   20.13
  -3  -5   5  183.73   13.55
   3   5  -5  153.97   14.29
  -3  -5   5  171.19    9.87
  -2  -5   5  319.61   17.25
   2   5  -5  346.01   18.10
  -2  -5   5  353.32   11.52
  -1  -5   5  452.74   20.17
   1   5  -5  437.82   19.55
   0   5  -5   24.83    8.29
   0  -5   5   26.29    7.52
   1  -5   5    0.69    4.29
  -1   5  -5   11.93    9.97
   1  -5   5    4.01    6.92
  -2   5  -5  824.76   32.47
   2  -5   5  786.46   30.94
   2  -5   5  857.11   24.74
   3  -5   5  234.51   18.40
  -3   5  -5  228.92   20.07
  -4   5  -5   -7.44   12.84
  -5   5  -5   90.04   20.52
  -6   5  -5  153.56   24.65
  -7   5  -5   55.65   22.46
  -8   5  -5  -14.38   22.32
  -9  -4   5   34.05   25.54
   7   4  -5  107.19   21.29
  -6  -4   5   -0.81    9.16
   6   4  -5  -18.30    9.97
   5   4  -5    2.43    8.91
  -5  -4   5   -1.89    7.61
   4   4  -5   44.08    9.59
  -4  -4   5   43.98    9.24
  -3  -4   5   74.86    8.01
  -3  -4   5   69.26    9.81
   3   4  -5   60.24    9.55
  -2  -4   5 1280.11   36.76
  -2  -4   5 1196.92   28.22
  -1  -4   5  682.18   24.44
   1   4  -5  678.17   22.68
   0   4  -5  246.59   13.95
   0  -4   5  248.89   14.49
   0  -4   5  232.56    9.88
   1  -4   5  103.13   11.27
   1  -4   5  115.75    8.05
  -1   4  -5   68.35   10.48
  -2   4  -5   49.95   10.89
   2  -4   5   42.69    9.22
   2  -4   5   37.92    7.25
  -3   4  -5   38.81   12.58
   3  -4   5   53.27    9.05
  -4   4  -5  140.46   17.98
  -5   4  -5  158.85   21.32
  -6   4  -5   22.43   18.42
  -7   4  -5  -24.88   17.86
  -8   4  -5  -50.46   20.86
  -9  -3   5   13.04   24.27
  -8  -3   5   12.19   20.23
   6   3  -5    3.65   11.90
   5   3  -5    2.20    8.60
   4   3  -5   39.22    8.76
  -3  -3   5    1.12    4.98
   3   3  -5    9.69    5.29
  -2  -3   5 1969.12   42.80
  -2  -3   5 2015.66   51.94
   2   3  -5 2036.43   48.12
   1   3  -5   71.91    7.47
  -1  -3   5   61.64    6.89
  -1  -3   5   84.11    9.12
   0   3  -5  534.86   18.33
   0  -3   5  515.99   16.36
   0  -3   5  522.18   19.67
  -1   3  -5  801.20   25.71
   1  -3   5  745.08   24.68
   1  -3   5  766.53   22.01
   2  -3   5   -5.17    3.00
  -2   3  -5    5.96    7.75
   2  -3   5   -3.10    4.17
   3  -3   5  176.70   14.79
   3  -3   5  142.19   12.36
  -3   3  -5  188.49   15.68
  -4   3  -5  358.98   23.02
   4  -3   5  320.40   18.51
  -5   3  -5   21.98   13.95
  -6   3  -5  -26.27   14.97
  -7   3  -5    1.50   18.91
  -8   3  -5  -15.50   21.25
 -10  -2   5   16.91   28.04
  -9  -2   5   55.87   24.77
  -8  -2   5   10.46   18.77
  -7  -2   5   33.08   16.75
  -6  -2   5   12.90   13.05
   5   2  -5   73.32   13.05
   4   2  -5    0.27    3.70
  -3  -2   5  870.90   25.23
   3   2  -5  868.76   26.08
  -2  -2   5  220.99   11.18
   2   2  -5  201.49    9.80
  -1  -2   5  406.85   14.95
   0   2  -5 2904.57   61.10
   0  -2   5 2761.08   65.84
   0  -2   5 2850.77   58.09
  -1   2  -5  866.20   24.95
   1  -2   5  818.22   23.73
  -2   2  -5    8.77    6.68
   2  -2   5    7.77    5.12
   2  -2   5   14.67    5.82
  -3   2  -5    1.83    7.65
   3  -2   5   -1.74    5.96
   3  -2   5   -2.83    5.69
  -4   2  -5   53.80   13.20
   4  -2   5   48.50   10.42
   5  -2   5   18.12   10.48
  -5   2  -5   24.06   13.32
  -6   2  -5    3.67   14.90
  -7   2  -5  -12.66   16.76
  -8   2  -5  -29.19   21.07
  -9   2  -5  -32.86   25.55
 -10  -1   5  -34.87   24.80
  -9  -1   5    4.89   21.48
  -8  -1   5   51.34   19.44
  -7  -1   5   -1.17   14.61
  -6  -1   5    2.06   11.41
  -5  -1   5   23.36    9.49
  -4  -1   5   37.58    9.38
  -4  -1   5   51.32    8.96
  -3  -1   5    1.88    5.14
  -3  -1   5   -2.31    5.37
  -2  -1   5  237.29   12.15
  -1  -1   5  656.97   20.45
   0  -1   5 1096.63   28.20
   1  -1   5 3384.80   71.36
   1  -1   5 3456.31   77.31
  -1   1  -5 3625.17   75.37
   2  -1   5   88.73    9.74
   2  -1   5   72.25    7.57
   3  -1   5   -6.29    5.32
   3  -1   5    1.29    5.05
  -3   1  -5   -9.05    7.15
   4  -1   5   34.01   10.24
  -4   1  -5   54.66   12.95
  -5   1  -5    8.25   12.29
   5  -1   5   -2.80    7.96
  -6   1  -5  376.14   27.02
  -7   1  -5  209.49   26.52
  -8   1  -5   12.34   20.60
 -10   0   5  -49.02   26.27
  -9   0   5  -18.01   22.39
  -8   0   5   34.64   19.14
  -7   0   5   32.18   15.00
  -6   0   5   24.61   12.13
  -5   0   5   -0.62    7.19
  -4   0   5    0.07    6.35
  -4   0   5   -6.52    6.51
  -3   0   5  178.63   12.43
  -3   0   5  181.42   11.61
  -2   0   5  137.03    9.28
  -2   0   5  129.66   10.51
  -1   0   5   98.25   10.00
   0   0   5 2007.34   45.24
   1   0   5   79.64    8.81
   1   0   5   71.98    7.04
   2   0   5 1809.08   46.07
   2   0   5 1829.65   45.05
   3   0   5  275.10   16.87
   3   0   5  280.55   16.28
  -4   0  -5    2.56    9.83
   4   0   5    6.91    8.48
  -5   0  -5  224.58   20.41
   5   0   5  209.45   18.80
   6   0   5  179.10   21.01
  -6   0  -5  197.86   21.48
  -7   0  -5   15.94   17.60
  -8   0  -5  -10.89   18.40
 -10   1   5  -55.29   24.55
  -9   1   5  -29.88   21.81
  -8   1   5    6.26   18.84
  -7   1   5   30.35   16.63
  -6   1   5    7.23   12.54
  -5   1   5   74.37   13.01
  -5   1   5   75.32   13.08
  -4   1   5   65.84   10.56
  -4   1   5   59.87   10.79
  -3   1   5  570.10   22.02
  -3   1   5  600.05   22.31
  -2   1   5  105.80   10.34
  -2   1   5   96.80   10.23
  -1   1   5  187.67   12.38
   0   1   5  830.75   22.05
   0   1   5  876.39   25.33
   1   1   5  496.19   17.47
   1   1   5  517.11   19.85
   2   1   5  323.82   15.76
   2   1   5  339.33   16.81
   3   1   5  114.82   12.53
   3   1   5  113.44   12.22
   4   1   5    5.46    7.52
   4   1   5   -5.42    7.03
   5   1   5  259.90   20.94
   5   1   5  270.93   21.57
  -6  -1  -5    3.24   13.66
   6   1   5   16.92   12.10
  -7  -1  -5   31.30   16.37
  -8  -1  -5   28.06   18.70
  -9   2   5  -54.92   22.52
  -8   2   5   45.56   22.98
  -7   2   5  143.07   23.14
  -6   2   5   20.24   11.21
  -6   2   5   23.14   14.81
  -5   2   5   14.58   11.51
  -5   2   5    3.60    8.71
  -4   2   5   88.86   12.54
  -4   2   5  100.79   13.72
  -3   2   5  141.59   15.48
  -3   2   5  118.05   12.19
  -2   2   5  103.58   11.12
  -2   2   5  103.81   11.40
  -1   2   5   12.60    6.01
  -1   2   5    7.29    4.70
   0   2   5  340.90   13.96
   0   2   5  348.41   16.15
   1   2   5 1775.87   43.86
   1   2   5 1740.12   44.40
   2   2   5   11.40    6.28
   2   2   5    2.39    4.70
   3   2   5  106.05   12.41
   3   2   5   95.81   12.34
   4   2   5   81.91   13.24
   4   2   5   67.80   12.42
   5   2   5   13.83   10.69
   5   2   5  -10.24    9.47
   6   2   5   35.82   14.94
   6   2   5   49.42   14.98
  -7  -2  -5   25.26   15.13
  -8  -2  -5   13.99   16.07
 -10   3   5   -9.07   15.16
  -8   3   5  -22.73   19.87
  -7   3   5   62.19   15.45
  -7   3   5   64.08   21.74
  -6   3   5   -9.81   15.57
  -6   3   5    8.31   10.52
  -5   3   5  198.22   21.31
  -5   3   5  174.67   17.33
  -4   3   5   52.54   14.67
  -4   3   5   54.12   11.69
  -3   3   5   36.79   11.22
  -3   3   5   13.05    7.89
  -2   3   5  762.34   25.88
  -2   3   5  806.19   27.34
  -1   3   5   27.18    7.01
  -1   3   5   25.08    7.40
   0   3   5    0.29    5.44
   0   3   5    0.62    4.23
   1   3   5   12.04    6.30
   1   3   5    9.84    5.15
   2   3   5    8.67    5.82
   2   3   5    6.37    6.57
   3   3   5   30.16    9.22
   3   3   5   41.83    9.95
   4   3   5   41.08   11.62
   4   3   5   49.38   11.61
   5   3   5   26.18   11.58
   5   3   5   34.74   12.81
   6   3   5    5.10   12.58
   6   3   5   -0.70   11.74
   7   3   5   -3.20   14.33
  -8  -3  -5   29.84   16.94
 -10   4   5   10.06   16.97
  -9   4   5   21.77   15.64
  -9   4   5  -25.35   22.93
  -8   4   5   -4.91   13.52
  -8   4   5  -17.58   20.19
  -7   4   5   -0.14   10.94
  -7   4   5  -45.85   16.85
  -6   4   5  442.98   31.00
  -6   4   5  453.41   26.95
  -5   4   5   -1.67   16.05
  -5   4   5   -2.95    8.83
  -4   4   5   37.23   11.66
  -4   4   5   50.39   15.61
  -3   4   5    0.58    7.42
  -3   4   5    3.54   10.65
  -2   4   5  424.09   20.79
  -2   4   5  430.29   21.06
  -1   4   5    4.31    6.47
  -1   4   5    0.26    6.11
   0   4   5  202.68   14.73
   0   4   5  187.01   13.70
   1   4   5   84.78   11.07
   1   4   5   99.51   11.20
   2   4   5   11.79    7.49
   2   4   5   10.70    6.76
   3   4   5   -2.34    5.79
   3   4   5   -4.82    7.12
   4   4   5  455.54   26.31
   4   4   5  444.28   23.88
   5   4   5  417.52   26.17
   5   4   5  395.63   27.05
   6   4   5    7.66   12.66
   6   4   5   11.95   13.31
   7   4   5  -15.31   13.52
   7   4   5    7.88   15.33
  -9   5   5    9.08   15.47
  -8   5   5   49.26   16.89
  -8   5   5   12.64   23.55
  -7   5   5   36.92   16.20
  -7   5   5   40.07   24.25
  -6   5   5   -8.20   11.87
  -6   5   5    7.01   20.25
  -5   5   5  113.65   17.77
  -5   5   5  120.70   22.81
  -4   5   5    2.98   10.46
  -4   5   5    6.95   15.55
  -3   5   5  302.36   22.47
  -3   5   5  312.95   19.42
  -2   5   5   22.65    9.36
  -2   5   5   24.61   10.25
  -1   5   5  249.59   17.25
  -1   5   5  274.64   17.16
   0   5   5   14.06    7.19
   0   5   5   23.49    8.19
   1   5   5  371.95   19.97
   1   5   5  394.36   21.35
   2   5   5   31.67    9.11
   2   5   5   20.64    8.28
   3   5   5   67.18   13.01
   3   5   5   53.46   11.60
   4   5   5    2.14    8.50
   4   5   5    2.50    9.02
   5   5   5   -4.49    9.42
   5   5   5   18.24   11.91
   6   5   5   22.45   15.29
   6   5   5   27.93   15.01
   7   5   5   -7.79   16.27
   7   5   5   -6.60   14.42
  -9   6   5  -30.24   26.90
  -9   6   5   10.50   17.11
  -8   6   5    5.23   15.70
  -8   6   5  -20.47   24.42
  -7   6   5  143.68   23.02
  -7   6   5  137.95   28.69
  -6   6   5  180.58   22.92
  -6   6   5  172.25   27.30
  -5   6   5   30.73   13.34
  -5   6   5   20.47   19.38
  -4   6   5  160.23   17.54
  -4   6   5  188.99   24.59
  -3   6   5  296.36   24.67
  -3   6   5  277.95   20.34
  -2   6   5    3.20    8.90
  -2   6   5   -8.31    9.97
  -1   6   5    4.29    8.29
  -1   6   5    0.26    8.93
   0   6   5   62.58   12.02
   0   6   5   62.34   11.79
   1   6   5  323.63   19.74
   1   6   5  339.97   21.29
   2   6   5  137.34   14.76
   2   6   5  141.32   16.81
   3   6   5   14.21    9.66
   3   6   5    6.11    8.83
   4   6   5   12.19   10.68
   4   6   5   35.32   11.09
   5   6   5   81.11   18.05
   5   6   5  102.12   17.09
   6   6   5   38.32   15.77
   6   6   5   25.17   16.59
   7   6   5   18.42   17.24
  -9   7   5   -3.85   17.58
  -8   7   5  -17.54   14.53
  -8   7   5  -16.61   24.68
  -7   7   5   69.49   27.19
  -7   7   5   75.04   20.81
  -6   7   5  105.43   21.33
  -6   7   5  124.08   26.97
  -5   7   5    3.40   12.77
  -5   7   5   -4.31   18.84
  -4   7   5  -23.74   15.56
  -4   7   5  -11.15   11.03
  -3   7   5  261.59   25.88
  -3   7   5  232.52   20.79
  -2   7   5   -0.68   13.11
  -2   7   5    1.94    8.80
  -1   7   5   50.51   12.14
  -1   7   5   38.81   13.84
   0   7   5   12.42    9.77
   0   7   5    1.43    9.75
   1   7   5  197.03   19.03
   1   7   5  169.92   16.67
   2   7   5   45.88   13.08
   2   7   5   50.44   10.75
   3   7   5   28.41   12.78
   3   7   5   31.05   10.35
   4   7   5   51.93   15.18
   4   7   5   32.80   11.24
   5   7   5   30.07   16.15
   6   7   5   10.32   15.12
  -8   8   5  -31.46   25.17
  -8   8   5    1.18   16.99
  -7   8   5   29.78   26.30
  -7   8   5   24.87   17.24
  -6   8   5  -12.75   22.00
  -6   8   5   19.46   17.41
  -5   8   5   -0.29   20.06
  -5   8   5    7.27   13.95
  -4   8   5  158.79   20.79
  -4   8   5  155.28   25.24
  -3   8   5   31.14   16.63
  -3   8   5   -0.91   11.51
  -2   8   5  210.60   23.51
  -2   8   5  165.40   18.43
  -1   8   5  303.91   24.48
  -1   8   5  265.92   20.51
   0   8   5   -2.11    5.45
   0   8   5    1.71   10.22
   2   8   5   37.97   13.56
   3   8   5   -2.28   10.49
   4   8   5    4.40   13.34
   5   8   5   -3.44   13.13
   6   8   5   -0.16   14.83
  -8   9   5   38.66   20.30
  -7   9   5    7.18   27.29
  -7   9   5   -4.48   16.16
  -6   9   5   -1.93   15.66
  -6   9   5   -0.27   23.11
  -5   9   5   -3.64   14.68
  -5   9   5    9.93   21.60
  -4   9   5   74.86   22.54
  -4   9   5   76.15   18.74
  -3   9   5  -11.78   11.71
  -3   9   5    6.30   16.49
  -2   9   5   30.98   12.37
  -2   9   5   35.40   16.04
  -1   9   5  166.27   21.95
   0   9   5   83.46   17.32
   1   9   5   68.86   16.24
   2   9   5   69.82   17.23
   3   9   5    8.04   14.23
   4   9   5    5.43   15.26
   5   9   5    2.43   14.35
  -7  10   5  -12.07   17.84
  -6  10   5   -3.40   23.65
  -6  10   5   -1.22   17.37
  -5  10   5   10.28   21.31
  -4  10   5   17.21   19.98
  -3  10   5   43.28   19.28
  -2  10   5   56.38   18.57
  -1  10   5   10.29   15.41
   0  10   5   16.06   13.86
   1  10   5   27.14   14.68
   2  10   5    9.90   14.29
   3  10   5    7.94   14.89
   4  10   5   14.42   16.28
  -5  11   5   62.94   25.65
  -4  11   5   43.03   21.49
  -3  11   5   41.54   19.96
  -2  11   5   80.42   21.28
  -1  11   5   52.84   18.40
   0  11   5   28.73   16.36
   1  11   5   34.35   16.18
   2  11   5   40.03   17.67
   3  11   5    6.72   16.77
  -4  12   5   72.21   25.70
  -3  12   5   53.12   21.96
  -2  12   5   44.44   20.41
  -1  12   5   33.06   17.89
   0  12   5   25.67   15.75
   1  12   5    5.77   16.01
   2  12   5   22.31   17.35
  -3  13   5   56.72   24.80
  -2  13   5   22.27   18.52
  -1  13   5   28.54   18.26
   0  13   5   58.97   19.61
   0  15  -6   94.42   29.54
  -1  15  -6   43.29   27.84
   3  14  -6   52.74   24.76
  -2 -14   6   62.00   27.55
   2  14  -6  101.03   25.07
   1  14  -6  110.82   26.43
   0  14  -6   87.13   26.38
  -1  14  -6   30.36   23.48
  -2  14  -6   62.12   25.83
  -3  14  -6   23.19   24.58
   4  13  -6   23.22   19.89
   3  13  -6   47.71   20.69
  -3 -13   6  -14.70   23.00
   2  13  -6   95.00   23.54
  -2 -13   6   97.20   26.50
  -1 -13   6   45.14   21.76
   1  13  -6   82.24   23.60
   0 -13   6   48.81   21.57
   0  13  -6   93.52   24.93
  -1  13  -6  106.70   25.75
  -2  13  -6  162.40   30.28
  -3  13  -6   53.19   27.87
  -4  13  -6   56.38   27.06
  -5  13  -6   77.02   29.84
   5  12  -6   81.83   24.77
   4  12  -6   83.44   23.16
  -3 -12   6   93.76   25.49
   3  12  -6   90.67   22.74
   2  12  -6  150.94   24.40
  -2 -12   6  137.98   26.38
   1  12  -6  234.28   26.14
  -1 -12   6  191.07   27.27
   0 -12   6  140.28   24.21
   0  12  -6  166.05   26.55
  -1  12  -6  198.19   30.09
   1 -12   6   92.35   22.51
  -2  12  -6  292.45   32.84
  -3  12  -6   56.02   25.23
  -4  12  -6  231.08   34.61
  -5  12  -6   65.52   26.82
  -6  12  -6   13.29   27.86
   6  11  -6   57.64   23.07
   5  11  -6   32.36   19.43
   3  11  -6  143.74   23.71
  -3 -11   6  194.33   26.88
  -2 -11   6  319.26   28.79
   2  11  -6  291.52   27.16
  -1 -11   6  145.65   23.68
   1  11  -6  188.21   24.94
   0 -11   6  129.31   22.09
   0  11  -6  119.67   22.77
   1 -11   6  247.48   26.44
  -1  11  -6  301.27   30.05
  -2  11  -6  291.89   31.35
  -3  11  -6   45.38   23.81
  -4  11  -6   75.14   26.45
  -5  11  -6  148.29   30.07
  -6  11  -6   33.29   27.61
   7  10  -6   17.61   21.76
   6  10  -6    3.98   18.71
   5  10  -6   53.33   20.15
   4  10  -6  151.65   23.51
  -4 -10   6  180.65   25.27
  -3 -10   6  192.50   24.95
   3  10  -6  194.36   21.62
  -2 -10   6  185.37   22.03
   2  10  -6  163.44   22.48
   1  10  -6  111.02   20.82
  -1 -10   6   99.69   19.56
   0 -10   6   28.89   15.21
   0  10  -6   22.44   16.68
   1 -10   6  105.24   19.76
  -1  10  -6  169.10   26.07
  -2  10  -6   66.60   21.87
   2 -10   6   47.15   18.05
  -3  10  -6  256.05   28.94
  -4  10  -6  276.46   34.06
  -5  10  -6  236.42   32.64
  -6  10  -6  121.17   31.07
  -7  10  -6  -24.97   26.34
   7   9  -6   43.54   21.23
   6   9  -6   23.62   18.43
   5   9  -6   42.57   18.05
   4   9  -6   84.24   17.98
  -4  -9   6   69.20   17.00
   3   9  -6   88.38   16.82
  -3  -9   6   90.22   18.06
   2   9  -6   36.45   13.97
  -2  -9   6   56.81   14.86
   1   9  -6  141.90   20.10
  -1  -9   6  122.83   18.50
   0   9  -6   71.47   17.97
   0  -9   6   75.36   16.05
   1  -9   6   76.33   16.62
  -1   9  -6   78.15   20.28
   2  -9   6  646.71   35.34
  -2   9  -6  673.80   38.45
  -3   9  -6   83.71   24.88
  -4   9  -6  217.10   30.04
  -5   9  -6  484.53   36.76
  -6   9  -6   77.09   26.39
  -7   9  -6   12.15   26.31
   8   8  -6   15.14   22.01
   7   8  -6   16.85   18.68
   6   8  -6    8.14   15.43
  -5  -8   6  339.03   25.06
   4   8  -6   33.79   14.09
  -4  -8   6   47.08   14.33
   3   8  -6  121.84   17.68
  -3  -8   6  116.21   16.34
  -2  -8   6  280.43   20.28
   2   8  -6  267.62   21.18
  -1  -8   6  383.99   22.69
   1   8  -6  358.42   23.60
   0   8  -6  317.22   23.89
   0  -8   6  328.42   22.32
  -1   8  -6  191.58   22.28
   1  -8   6  181.34   19.41
   2  -8   6  435.70   27.90
  -2   8  -6  435.31   30.40
  -3   8  -6  359.94   30.91
   3  -8   6  344.50   27.43
  -4   8  -6  214.13   28.15
  -5   8  -6   95.50   24.53
  -6   8  -6  110.38   28.50
  -7   8  -6   -3.41   25.57
  -8   8  -6  -39.39   26.29
   8   7  -6    9.78   20.92
   7   7  -6   79.66   21.48
   6   7  -6  117.95   20.89
   5   7  -6  162.65   21.88
  -5  -7   6  151.91   17.86
   4   7  -6  318.44   22.82
  -4  -7   6  307.21   21.43
  -3  -7   6  124.74   14.72
   3   7  -6   94.33   14.88
   2   7  -6  111.04   14.78
  -2  -7   6  104.15   13.52
   1   7  -6  415.90   22.85
  -1  -7   6  377.21   21.27
   0   7  -6 1129.09   39.17
   0  -7   6 1079.73   38.19
  -1   7  -6  606.15   30.11
   1  -7   6  601.98   28.65
   2  -7   6  984.23   39.43
  -2   7  -6 1036.43   41.60
   3  -7   6  455.78   28.59
  -3   7  -6  394.80   28.89
  -4   7  -6  290.04   29.00
  -5   7  -6   24.93   20.43
  -6   7  -6   61.20   22.27
  -7   7  -6   30.92   23.62
  -8   7  -6    9.43   24.64
   9   6  -6   15.31   25.75
   8   6  -6   56.90   23.83
   7   6  -6  132.31   23.35
   6   6  -6  161.36   22.59
  -5  -6   6  190.29   17.52
   5   6  -6  196.85   19.65
  -4  -6   6  347.93   21.19
   4   6  -6  362.46   22.69
   3   6  -6  257.67   18.53
  -3  -6   6  292.79   18.59
   2   6  -6  573.59   24.74
  -2  -6   6  563.33   25.14
   1   6  -6  232.47   16.14
  -1  -6   6  196.35   15.09
   0   6  -6  719.02   27.82
   0  -6   6  686.47   27.46
   0  -6   6  689.68   17.32
  -1   6  -6  396.51   23.53
   1  -6   6  417.48   22.41
   1  -6   6  445.76   15.35
   2  -6   6  696.83   30.48
  -2   6  -6  678.43   31.70
   2  -6   6  700.40   23.06
   3  -6   6 1203.84   43.50
  -3   6  -6 1179.66   44.55
  -4   6  -6  530.13   31.89
  -5   6  -6    8.02   17.32
  -6   6  -6  209.58   27.95
  -7   6  -6   -3.28   21.53
  -8   6  -6  -25.92   23.14
  -9  -5   6  185.05   32.15
   8   5  -6   94.16   23.59
   7   5  -6   45.40   19.29
   6   5  -6   73.52   17.33
  -6  -5   6   51.38   12.80
  -5  -5   6  208.82   17.00
   5   5  -6  208.36   18.35
  -4  -5   6  235.58   13.64
  -4  -5   6  244.16   17.01
   4   5  -6  230.16   18.25
  -3  -5   6  676.71   26.66
  -3  -5   6  659.56   20.27
  -2  -5   6 2278.43   46.25
   2   5  -6 2150.04   55.78
  -2  -5   6 2210.97   59.26
  -1  -5   6  328.84   11.75
  -1  -5   6  310.72   17.20
   1   5  -6  310.86   16.50
   0   5  -6  977.15   30.80
   0  -5   6 1019.83   33.23
   0  -5   6  975.95   23.93
   1  -5   6 1017.51   33.87
   1  -5   6  996.96   25.73
  -2   5  -6  152.07   17.39
   2  -5   6  106.63   10.06
   2  -5   6  112.28   13.99
   3  -5   6   39.49   11.47
  -3   5  -6   45.25   14.18
   3  -5   6   43.07    8.87
  -4   5  -6  818.37   37.34
  -5   5  -6  315.06   28.99
  -6   5  -6   80.42   22.64
  -7   5  -6  263.05   30.40
  -8   5  -6  -14.86   23.50
  -9  -4   6   83.69   28.65
  -8  -4   6  224.35   27.45
   7   4  -6  127.38   21.62
  -6  -4   6  179.27   16.52
   6   4  -6  169.83   19.07
   5   4  -6  170.06   16.42
  -5  -4   6  159.29   14.91
  -4  -4   6  123.53   12.99
  -4  -4   6  144.27   11.55
   3   4  -6  566.24   22.30
  -3  -4   6  563.56   18.97
  -3  -4   6  541.90   23.40
  -2  -4   6 1754.50   48.85
  -2  -4   6 1708.96   39.56
   2   4  -6 1831.92   45.57
   1   4  -6  235.49   13.12
  -1  -4   6  225.87   11.05
  -1  -4   6  249.46   14.95
   0   4  -6  607.10   21.75
   0  -4   6  624.68   23.72
   0  -4   6  638.10   18.79
   1  -4   6  749.68   26.64
   1  -4   6  782.84   22.46
  -1   4  -6  812.11   27.60
   2  -4   6  722.89   23.15
  -2   4  -6  711.97   27.71
   2  -4   6  704.82   26.90
   3  -4   6  324.15   17.35
  -3   4  -6  354.08   22.91
   3  -4   6  325.98   19.02
  -4   4  -6  169.70   20.46
   4  -4   6  209.20   16.34
  -5   4  -6  623.95   35.18
  -6   4  -6  584.07   35.03
  -7   4  -6  -33.06   17.01
  -8   4  -6  313.90   35.50
  -9  -3   6   54.28   26.62
  -8  -3   6  321.06   29.80
  -7  -3   6  100.88   20.24
   6   3  -6  251.23   20.67
   5   3  -6   31.70   10.79
  -4  -3   6  235.39   14.19
   4   3  -6  243.81   15.30
  -3  -3   6   93.56    9.50
   3   3  -6   95.17    9.30
  -2  -3   6  912.31   30.75
  -2  -3   6  961.05   26.63
   2   3  -6  998.91   26.72
  -1  -3   6  145.59   10.17
  -1  -3   6  147.13   11.49
   1   3  -6  135.64    9.34
   0   3  -6 2415.16   54.45
   0  -3   6 2447.43   60.01
   0  -3   6 2403.68   51.60
   1  -3   6 3214.90   76.26
   1  -3   6 3238.11   67.46
  -1   3  -6 3287.37   73.96
   2  -3   6 1166.76   35.02
   2  -3   6 1276.86   33.09
  -3   3  -6  114.97   14.39
   3  -3   6  119.14   13.16
   3  -3   6  107.18   11.79
   4  -3   6 1729.30   48.91
  -4   3  -6 1741.64   53.31
  -5   3  -6  370.87   26.68
   5  -3   6  355.71   22.43
  -6   3  -6  336.60   28.37
  -7   3  -6  317.48   30.71
  -8   3  -6   60.95   25.90
 -10  -2   6    9.26   27.22
  -9  -2   6   -0.61   21.27
  -8  -2   6   16.61   19.05
  -7  -2   6   36.47   16.94
  -6  -2   6  197.24   19.21
  -5  -2   6   65.46   12.03
   4   2  -6  854.28   28.56
  -4  -2   6  836.25   27.70
  -3  -2   6 1128.89   31.21
   3   2  -6 1091.90   30.42
  -2  -2   6 1316.25   33.54
  -1  -2   6  666.69   20.78
   0  -2   6  610.57   20.12
   0  -2   6  600.64   21.55
   1  -2   6 1530.55   38.67
  -1   2  -6 1621.37   39.49
   2  -2   6 2154.49   50.41
   2  -2   6 2105.12   51.73
  -3   2  -6  356.76   19.52
   3  -2   6  360.73   17.30
   3  -2   6  346.83   18.14
   4  -2   6  734.76   29.43
  -4   2  -6  721.04   30.75
   5  -2   6  296.79   21.36
  -5   2  -6  301.04   23.04
  -6   2  -6   31.58   16.10
  -7   2  -6  288.66   29.00
  -8   2  -6  -14.10   21.99
  -9  -1   6    9.75   21.26
  -8  -1   6    6.81   16.48
  -7  -1   6   96.51   18.10
  -6  -1   6   23.19   12.01
  -5  -1   6  107.40   13.90
  -5  -1   6  113.99   13.56
  -4  -1   6  693.79   24.05
  -4  -1   6  708.75   25.83
  -3  -1   6 2159.79   49.60
  -3  -1   6 2129.54   50.64
  -2  -1   6  769.55   24.54
  -1  -1   6 2435.33   53.42
   0  -1   6 2110.91   48.05
   1  -1   6    9.05    4.80
  -1   1  -6    1.34    5.00
   1  -1   6    7.55    5.43
   2  -1   6    5.40    4.05
  -2   1  -6   -2.24    6.35
   2  -1   6    4.63    6.11
   3  -1   6  662.04   25.22
  -3   1  -6  675.81   26.46
  -4   1  -6   73.07   14.33
   4  -1   6   76.33   12.88
   5  -1   6   37.32   12.67
  -5   1  -6   68.54   16.28
   6  -1   6  297.34   23.76
  -6   1  -6  291.68   24.93
  -7   1  -6   16.92   16.86
  -8   1  -6   -2.24   19.41
  -9   0   6   41.00   24.63
  -8   0   6   51.38   19.66
  -7   0   6  183.50   21.38
  -6   0   6  110.35   15.72
  -6   0   6  106.37   16.02
  -5   0   6  362.02   20.75
  -5   0   6  368.75   19.71
  -4   0   6  187.62   14.00
  -4   0   6  193.06   14.67
  -3   0   6  737.90   25.16
  -3   0   6  711.00   22.61
  -2   0   6 2172.42   51.06
  -1   0   6  537.63   19.92
   0   0   6   22.53    6.61
   1   0   6  314.41   13.24
   1   0   6  303.21   15.85
   2   0   6  571.93   18.14
   2   0   6  615.53   23.06
   2   0   6  588.17   22.03
   3   0   6   25.08    8.16
  -4   0  -6  338.32   21.05
   4   0   6  339.37   20.23
   5   0   6   68.49   14.15
  -5   0  -6  111.99   17.15
   6   0   6  637.93   33.10
  -6   0  -6  588.95   32.67
  -7   0  -6  141.39   23.52
  -8   0  -6   81.02   22.17
 -10   1   6   22.02   17.80
  -9   1   6   98.88   26.53
  -8   1   6   97.12   21.95
  -8   1   6   94.77   18.50
  -7   1   6   12.26   15.03
  -7   1   6   38.28   13.33
  -6   1   6  690.21   30.64
  -6   1   6  676.65   29.73
  -5   1   6  435.21   22.87
  -5   1   6  438.56   23.13
  -4   1   6  462.42   21.83
  -4   1   6  430.44   21.35
  -3   1   6  968.04   30.70
  -3   1   6  993.48   29.25
  -2   1   6 1789.07   45.28
  -1   1   6 1079.36   30.94
   0   1   6  763.38   21.11
   0   1   6  784.55   25.43
   1   1   6  105.35   11.60
   1   1   6   99.98    8.90
   2   1   6  611.56   22.57
   2   1   6  599.09   23.69
   3   1   6  930.81   32.07
   3   1   6  960.11   33.39
   4   1   6  169.35   16.45
   4   1   6  191.64   17.87
   5   1   6 1170.04   43.24
   6   1   6  647.11   33.99
  -6  -1  -6  566.39   30.74
  -7  -1  -6  339.99   26.87
  -8  -1  -6   25.32   19.34
 -10   2   6   39.71   18.61
  -9   2   6   74.99   18.38
  -8   2   6    8.58   19.81
  -8   2   6   49.39   15.73
  -7   2   6  346.68   23.98
  -7   2   6  365.40   29.27
  -6   2   6  507.13   30.59
  -6   2   6  538.26   27.14
  -5   2   6  680.21   31.46
  -5   2   6  714.93   29.95
  -4   2   6  343.55   19.72
  -4   2   6  309.90   20.62
  -3   2   6 1445.03   40.93
  -3   2   6 1466.05   39.88
  -2   2   6   56.19    8.10
  -2   2   6   53.15   10.16
  -1   2   6  526.33   17.55
  -1   2   6  517.76   21.11
   0   2   6  758.99   26.15
   0   2   6  792.62   23.28
   1   2   6 1665.92   43.75
   1   2   6 1678.00   43.35
   2   2   6 2086.36   54.41
   2   2   6 2112.50   53.22
   3   2   6 1420.34   43.59
   3   2   6 1420.83   42.42
   4   2   6  492.40   25.78
   4   2   6  414.35   23.50
   5   2   6  188.55   19.46
   5   2   6  208.36   20.24
   6   2   6  381.61   27.78
   6   2   6  390.03   27.58
  -7  -2  -6  207.95   21.59
   7   2   6  183.16   24.86
  -8  -2  -6   38.15   18.09
 -10   3   6   35.09   18.61
  -9   3   6  116.33   21.02
  -8   3   6   33.67   15.32
  -8   3   6   10.58   21.97
  -7   3   6  390.20   25.97
  -7   3   6  399.42   31.72
  -6   3   6  132.80   18.96
  -6   3   6  149.80   22.18
  -5   3   6  235.45   19.03
  -5   3   6  224.66   23.22
  -4   3   6  280.04   19.35
  -4   3   6  303.52   21.98
  -3   3   6  399.38   21.29
  -3   3   6  398.91   20.59
  -2   3   6  612.63   24.17
  -2   3   6  562.08   21.88
  -1   3   6  118.29   12.60
  -1   3   6   92.00   10.36
   0   3   6 1489.14   40.84
   0   3   6 1536.90   40.23
   1   3   6  692.29   24.76
   1   3   6  699.15   26.13
   2   3   6  970.79   32.55
   2   3   6  967.85   32.89
   3   3   6 1545.00   45.71
   3   3   6 1528.77   47.40
   4   3   6  793.42   33.79
   4   3   6  734.41   31.52
   5   3   6  163.33   19.47
   5   3   6  151.55   19.20
   6   3   6  160.08   21.93
   6   3   6  157.28   22.42
   7   3   6   35.96   17.92
  -8  -3  -6   38.97   18.24
  -9   4   6   76.31   19.30
  -8   4   6   54.24   16.83
  -8   4   6   55.04   24.78
  -7   4   6  232.86   28.40
  -7   4   6  224.28   23.04
  -6   4   6  166.32   26.62
  -6   4   6  183.19   19.80
  -5   4   6  -19.31   14.55
  -5   4   6  -13.41    9.64
  -4   4   6  352.91   24.83
  -4   4   6  325.47   21.04
  -3   4   6  658.38   27.79
  -3   4   6  655.60   27.72
  -2   4   6  316.36   18.75
  -2   4   6  326.22   18.80
  -1   4   6  273.02   17.17
  -1   4   6  255.19   16.16
   0   4   6 1179.76   35.48
   0   4   6 1171.62   36.48
   1   4   6 1169.90   36.43
   1   4   6 1162.67   36.60
   2   4   6  349.78   20.40
   2   4   6  362.11   20.49
   3   4   6  474.29   24.83
   3   4   6  534.05   25.85
   4   4   6  781.03   32.66
   4   4   6  855.09   35.99
   5   4   6   51.69   13.79
   5   4   6   25.36   12.87
   6   4   6  317.31   27.60
   6   4   6  349.72   27.06
   7   4   6   60.88   21.17
   7   4   6   98.22   21.42
  -9   5   6   36.09   19.02
  -8   5   6   64.49   20.22
  -7   5   6  127.79   21.02
  -7   5   6  113.43   27.04
  -6   5   6   19.15   20.30
  -6   5   6   40.04   15.22
  -5   5   6   92.47   17.43
  -5   5   6   85.95   21.28
  -4   5   6  243.20   23.61
  -4   5   6  225.76   19.47
  -3   5   6  435.70   24.29
  -3   5   6  457.84   25.32
  -2   5   6 1636.65   48.11
  -2   5   6 1640.93   46.65
  -1   5   6 1010.86   33.72
  -1   5   6  955.74   33.82
   0   5   6 1368.18   40.96
   0   5   6 1313.32   41.22
   1   5   6  252.04   18.58
   1   5   6  261.33   17.82
   2   5   6  680.50   29.45
   2   5   6  671.65   28.16
   3   5   6  101.15   14.58
   3   5   6  103.17   15.14
   4   5   6   85.02   14.60
   4   5   6   92.24   16.08
   5   5   6  270.56   22.82
   5   5   6  245.65   24.14
   6   5   6   36.37   15.67
   6   5   6   61.65   16.55
   7   5   6   47.90   21.00
   7   5   6   45.84   18.80
  -9   6   6   70.06   22.16
  -8   6   6  109.72   21.73
  -7   6   6  120.36   22.79
  -6   6   6  150.50   22.59
  -6   6   6  147.07   26.60
  -5   6   6  155.47   24.73
  -5   6   6  110.15   19.27
  -4   6   6  110.61   17.61
  -4   6   6  107.26   20.50
  -3   6   6  178.18   19.93
  -3   6   6  190.32   21.16
  -2   6   6  736.98   29.99
  -2   6   6  717.96   31.56
  -1   6   6  609.03   28.04
  -1   6   6  610.06   27.23
   0   6   6  631.66   28.18
   0   6   6  638.63   28.43
   1   6   6  383.40   22.33
   1   6   6  415.00   23.57
   2   6   6  259.25   19.41
   2   6   6  251.06   19.63
   3   6   6   51.03   12.04
   3   6   6   35.71   11.97
   4   6   6   15.12   11.67
   4   6   6   19.95   10.82
   5   6   6   -2.33   11.28
   5   6   6   13.18   11.84
   6   6   6  166.83   22.75
   6   6   6  162.24   25.28
  -8   7   6   46.05   20.60
  -7   7   6   91.30   22.00
  -6   7   6  253.27   30.86
  -6   7   6  225.80   26.97
  -5   7   6  239.57   28.56
  -5   7   6  212.40   22.72
  -4   7   6  326.12   27.84
  -4   7   6  358.62   26.05
  -3   7   6   70.70   17.94
  -3   7   6   43.21   13.68
  -2   7   6  250.33   20.98
  -2   7   6  234.80   22.37
  -1   7   6  147.28   18.36
  -1   7   6  133.51   17.46
   0   7   6   -1.99    8.64
   0   7   6  -10.67    8.59
   1   7   6   22.26   10.62
   1   7   6   32.14   11.25
   2   7   6  472.05   24.96
   2   7   6  457.08   27.03
   3   7   6  176.11   17.72
   3   7   6  182.34   20.48
   4   7   6  242.57   23.58
   4   7   6  213.05   19.48
   5   7   6  114.67   21.44
   6   7   6   77.37   21.79
  -8   8   6   28.17   20.17
  -7   8   6   14.46   17.79
  -6   8   6  113.47   23.00
  -5   8   6    2.21   14.83
  -5   8   6   -2.26   18.70
  -4   8   6  361.95   29.56
  -4   8   6  289.15   24.44
  -3   8   6  196.53   24.26
  -3   8   6  175.82   20.78
  -2   8   6   86.05   15.88
  -2   8   6  119.44   18.91
  -1   8   6  740.70   32.04
  -1   8   6  726.55   34.60
   0   8   6  151.82   19.57
   0   8   6  132.67   17.34
   1   8   6   66.99   13.24
   1   8   6   74.12   15.95
   2   8   6  818.33   38.37
   3   8   6  208.37   23.34
   4   8   6  135.08   22.83
   5   8   6   95.17   21.52
  -7   9   6   79.18   22.82
  -6   9   6   50.28   19.96
  -5   9   6   85.81   21.43
  -4   9   6   99.16   19.66
  -4   9   6  157.82   24.91
  -3   9   6  223.73   21.97
  -3   9   6  317.00   28.65
  -2   9   6  870.02   36.77
  -2   9   6  916.43   41.06
  -1   9   6  248.05   24.23
   0   9   6  621.04   33.42
   1   9   6  229.17   23.37
   2   9   6  271.50   24.96
   3   9   6  253.03   26.12
   4   9   6  109.40   21.87
   5   9   6   70.90   21.08
  -7  10   6   70.56   23.34
  -6  10   6  110.72   26.94
  -5  10   6  111.47   23.66
  -3  10   6  110.29   23.28
  -2  10   6  282.13   26.73
  -1  10   6  450.73   30.78
   0  10   6  168.16   22.64
   1  10   6  196.18   23.26
   2  10   6  252.49   26.05
   3  10   6   48.01   18.59
   4  10   6   67.86   20.06
  -2  11   6  106.49   21.91
  -1  11   6  145.39   23.56
   0  11   6  163.41   23.79
   1  11   6   66.28   19.79
   2  11   6  112.14   22.79
   3  11   6   53.60   20.23
   0  12   6   82.97   20.97
   1  12   6   28.59   18.21
  -2 -15   7  -29.92   24.71
   0  15  -7   54.44   26.99
  -1  15  -7   60.51   28.47
   3  14  -7   22.94   21.03
  -3 -14   7  -60.85   23.74
  -2 -14   7  -13.95   22.53
   2  14  -7   18.43   20.75
  -1 -14   7    6.41   21.90
   1  14  -7   24.48   21.15
   0  14  -7   55.49   24.49
   0 -14   7    7.03   20.81
  -1  14  -7   18.37   22.78
  -2  14  -7   11.73   23.85
  -3  14  -7   12.92   24.10
   4  13  -7   -1.05   19.70
  -3 -13   7   19.26   24.22
   3  13  -7   50.94   21.16
   2  13  -7   10.58   18.23
  -2 -13   7   -4.88   19.97
   1  13  -7   32.34   20.28
  -1 -13   7  -21.91   18.73
   0 -13   7    6.38   19.07
   0  13  -7   17.79   19.21
   1 -13   7   -2.98   17.95
  -1  13  -7   26.25   22.42
  -2  13  -7   56.33   24.92
  -3  13  -7   44.63   26.65
  -4  13  -7   30.82   25.87
  -5  13  -7   -8.67   25.91
   5  12  -7  -11.39   17.59
   4  12  -7   18.89   18.23
   3  12  -7   12.43   16.87
  -3 -12   7  -32.21   18.92
  -2 -12   7  -13.62   18.04
   2  12  -7   20.93   17.63
  -1 -12   7   -5.05   16.28
   1  12  -7   24.40   17.76
   0  12  -7   34.13   19.27
   0 -12   7    4.72   17.26
   1 -12   7   25.54   17.55
  -1  12  -7   56.34   23.64
  -2  12  -7   25.61   23.33
  -3  12  -7   19.83   23.21
  -4  12  -7   34.41   25.02
  -5  12  -7   -2.23   24.72
  -6  12  -7  -32.80   26.43
   6  11  -7   38.69   22.27
   5  11  -7   -6.88   17.18
   4  11  -7    3.63   16.66
  -4 -11   7   -3.86   18.91
  -3 -11   7    0.04   18.34
   3  11  -7    9.00   15.13
  -2 -11   7   -0.71   15.83
   2  11  -7   22.32   15.84
  -1 -11   7    5.04   15.77
   1  11  -7   53.17   17.81
   0 -11   7   -7.72   14.15
   0  11  -7   25.65   16.74
  -1  11  -7  107.25   23.30
   1 -11   7   50.34   18.84
   2 -11   7   37.42   18.57
  -2  11  -7   28.68   21.59
  -3  11  -7    7.61   20.81
  -4  11  -7  -36.98   19.89
  -5  11  -7   -8.80   22.89
  -6  11  -7  -22.04   25.08
   7  10  -7   25.76   20.79
   6  10  -7   -4.37   17.07
   5  10  -7  -13.41   14.55
   4  10  -7   21.18   15.39
  -4 -10   7   -4.78   16.57
   3  10  -7   11.71   13.94
  -3 -10   7  -21.99   14.21
   2  10  -7    6.53   13.19
  -2 -10   7   -6.22   13.78
  -1 -10   7    6.75   13.75
   1  10  -7   11.38   14.97
   0  10  -7  164.36   23.38
   0 -10   7  132.29   21.10
  -1  10  -7    9.23   17.90
   1 -10   7    5.35   14.04
  -2  10  -7   40.26   20.24
   2 -10   7  -23.95   13.87
  -3  10  -7    1.99   20.12
  -4  10  -7    4.25   21.30
  -5  10  -7   21.35   24.12
  -6  10  -7  -29.41   23.40
  -7  10  -7  -50.04   25.58
   8   9  -7    4.39   23.14
   7   9  -7  -11.58   18.64
   6   9  -7   -7.36   15.29
   5   9  -7   15.99   17.38
  -5  -9   7    0.57   15.30
  -4  -9   7  -12.72   12.50
   4   9  -7   14.29   13.49
  -3  -9   7    5.71   12.50
   3   9  -7    7.17   12.43
   2   9  -7    1.30   10.69
  -2  -9   7   17.75   13.25
  -1  -9   7   43.60   14.48
   1   9  -7   21.79   14.52
   0   9  -7  204.69   23.52
   0  -9   7  175.90   20.25
   1  -9   7  167.67   22.08
  -1   9  -7  198.90   25.04
  -2   9  -7   75.87   21.87
   2  -9   7   78.92   18.51
   3  -9   7  104.12   21.09
  -3   9  -7   94.50   24.77
  -4   9  -7   30.47   21.98
  -5   9  -7   -8.07   21.57
  -6   9  -7  -36.20   22.34
  -7   9  -7  -17.42   24.21
   8   8  -7  -12.13   19.89
   7   8  -7  -17.94   17.95
   6   8  -7    1.95   14.92
  -5  -8   7    8.88   13.61
   5   8  -7    8.67   14.81
  -4  -8   7  237.98   21.99
   4   8  -7  276.01   22.05
   3   8  -7   52.23   13.14
  -3  -8   7   36.19   12.61
  -2  -8   7   39.38   12.85
   2   8  -7   58.06   13.84
   1   8  -7  225.02   20.19
  -1  -8   7  235.56   18.73
   0  -8   7  294.46   21.25
   0   8  -7  311.34   24.36
   1  -8   7  131.44   17.76
  -1   8  -7   92.16   18.54
  -2   8  -7   10.04   16.05
   2  -8   7   -5.68   12.15
   3  -8   7   53.97   16.63
  -3   8  -7   76.48   21.81
  -4   8  -7   68.22   22.15
  -5   8  -7   23.10   23.09
  -6   8  -7   -5.84   24.66
  -7   8  -7  -42.47   23.85
   8   7  -7  -31.80   18.92
   7   7  -7   18.42   17.96
   6   7  -7    4.10   13.85
  -5  -7   7  180.19   18.79
   5   7  -7  142.37   20.91
   4   7  -7  106.72   16.32
  -4  -7   7  125.83   16.84
  -3  -7   7  174.28   17.40
   3   7  -7  180.13   17.48
   2   7  -7  184.91   16.79
  -2  -7   7  187.45   17.34
   1   7  -7   -5.98    8.16
  -1  -7   7   -7.79    6.65
   0  -7   7  329.26   21.06
   0   7  -7  319.76   21.67
  -1   7  -7   27.35   13.41
   1  -7   7   15.10   11.33
  -2   7  -7  -11.77   13.99
   2  -7   7   -3.96   10.62
  -3   7  -7   31.90   17.52
   3  -7   7   41.14   14.99
  -4   7  -7   18.90   19.70
  -5   7  -7  106.03   24.84
  -6   7  -7   64.45   24.35
  -7   7  -7  -14.95   22.22
  -8   7  -7  -31.29   25.36
   8   6  -7   13.73   20.39
   7   6  -7   -8.04   15.17
  -6  -6   7    5.39   10.89
   6   6  -7    3.66   13.38
  -5  -6   7    8.25    9.86
   5   6  -7   -6.05   11.06
  -4  -6   7  204.53   17.57
   4   6  -7  203.86   18.51
  -3  -6   7  107.90   13.96
  -2  -6   7    4.32    7.15
   2   6  -7    3.87    6.72
   1   6  -7  105.38   12.13
  -1  -6   7  113.39   13.17
   0  -6   7   72.22    7.31
   0  -6   7   73.56   11.71
   0   6  -7   48.98    8.90
   1  -6   7  124.04    9.58
  -1   6  -7   94.68   14.14
   1  -6   7  118.32   15.19
   2  -6   7  172.46   12.42
   2  -6   7  192.16   18.08
  -2   6  -7  195.39   21.87
   3  -6   7   18.58   11.85
   3  -6   7   18.92    8.20
  -3   6  -7   14.41   15.63
  -4   6  -7    3.90   15.96
  -5   6  -7   -2.72   17.40
  -6   6  -7  -21.42   18.12
  -7   6  -7  -32.51   20.75
  -8   6  -7  -32.47   23.45
   8   5  -7   -1.18   18.56
   7   5  -7   -7.17   15.23
   6   5  -7  -13.79   11.15
  -6  -5   7   -0.76   10.19
   5   5  -7   18.62   10.65
  -5  -5   7   18.36    9.61
  -5  -5   7   15.36   10.36
  -4  -5   7  399.58   18.10
  -4  -5   7  437.96   22.94
  -3  -5   7  222.20   16.06
   3   5  -7  204.65   15.23
  -3  -5   7  199.11   12.11
  -2  -5   7  451.74   16.67
  -2  -5   7  486.91   22.51
   2   5  -7  474.57   20.13
   1   5  -7   43.04    8.24
  -1  -5   7   52.67    9.87
  -1  -5   7   43.38    6.52
   0  -5   7   72.86    7.73
   0   5  -7   80.63   10.81
   0  -5   7   78.58   11.34
   1  -5   7   -2.69    6.60
   1  -5   7   -2.27    4.77
  -1   5  -7    5.00    9.02
   2  -5   7  -13.83    7.91
   2  -5   7   -2.57    5.77
  -2   5  -7   -1.18   10.97
   3  -5   7   36.97   11.96
  -3   5  -7   16.97   13.67
   3  -5   7   22.49    8.84
  -4   5  -7    5.35   14.81
   4  -5   7   -2.24    7.98
  -5   5  -7  136.83   24.01
  -6   5  -7  -20.79   17.43
  -7   5  -7  -33.14   20.22
  -8   5  -7  -46.69   23.53
  -8  -4   7   68.81   21.63
  -7  -4   7   10.23   11.82
   7   4  -7  -15.43   14.96
   6   4  -7   -7.04   12.02
  -6  -4   7    1.39   10.38
   5   4  -7   -5.24    5.79
  -5  -4   7   21.42    9.74
   4   4  -7  290.52   17.18
  -4  -4   7  285.54   15.91
  -4  -4   7  288.06   18.64
  -3  -4   7   63.12    8.82
  -3  -4   7   43.07   10.52
   3   4  -7   54.48    8.97
  -2  -4   7   -2.90    5.25
  -2  -4   7   -2.28    5.76
   2   4  -7   -0.31    4.53
  -1  -4   7   97.95   10.64
  -1  -4   7   82.11    8.84
   1   4  -7  101.39    9.75
   0  -4   7    3.82    6.06
   0  -4   7    2.45    5.46
   0   4  -7    7.35    6.35
   1  -4   7  102.24   10.60
   1  -4   7  113.82   12.28
  -1   4  -7  140.44   13.61
  -2   4  -7    2.29    6.10
   2  -4   7   22.06    8.62
   2  -4   7   25.41    7.53
   3  -4   7  362.80   19.14
  -3   4  -7  366.22   23.73
   3  -4   7  374.37   21.66
  -4   4  -7    1.23   12.65
   4  -4   7   12.47    9.04
   5  -4   7  168.76   18.13
  -5   4  -7  207.48   25.31
  -6   4  -7   -7.55   16.03
  -7   4  -7  -26.12   19.50
  -8   4  -7  -59.46   21.98
  -8  -3   7   -2.11   18.16
  -7  -3   7    8.85   11.50
  -7  -3   7   26.98   15.06
  -6  -3   7    1.37   10.58
   5   3  -7  155.96   15.38
  -5  -3   7  152.64   14.31
   4   3  -7   12.24    7.59
  -4  -3   7    7.28    7.32
  -3  -3   7  762.65   24.77
   3   3  -7  743.34   23.32
  -2  -3   7   89.74    9.65
   2   3  -7   88.51    7.55
  -1  -3   7  105.82   11.51
  -1  -3   7  113.47   10.43
   0   3  -7  477.47   16.70
   0  -3   7  445.06   19.59
   0  -3   7  469.67   18.25
   1  -3   7  361.08   17.60
  -1   3  -7  387.37   17.86
   1  -3   7  321.78   16.15
  -2   3  -7  168.68   15.37
   2  -3   7  176.54   13.01
   2  -3   7  185.75   13.21
  -3   3  -7   25.54   10.58
   3  -3   7    5.56    7.92
   3  -3   7   15.60    8.41
  -4   3  -7   86.99   15.69
   4  -3   7   79.22   13.73
  -5   3  -7  184.74   22.98
   5  -3   7  172.87   18.25
  -6   3  -7  -10.57   15.31
  -7   3  -7   27.42   21.38
  -8   3  -7  -57.15   20.28
 -10  -2   7   23.16   19.10
  -9  -2   7   -5.82   15.69
  -8  -2   7   23.50   17.72
  -8  -2   7   15.27   14.58
  -7  -2   7   15.27   12.69
  -7  -2   7   -6.54   13.80
  -6  -2   7   86.65   14.95
  -6  -2   7   97.79   14.84
  -5  -2   7   -0.91    8.10
  -5  -2   7   -7.78    8.07
  -4  -2   7  204.93   14.62
  -3  -2   7  218.79   14.29
   3   2  -7  230.66   12.88
  -2  -2   7   45.17    8.17
  -1  -2   7  152.29   11.77
   0  -2   7  469.11   18.91
   0  -2   7  465.39   19.56
   1  -2   7  167.32   13.02
  -1   2  -7  162.53   12.48
  -2   2  -7  235.77   15.76
   2  -2   7  216.83   13.32
   2  -2   7  234.42   15.70
   3  -2   7    6.23    6.94
   3  -2   7    2.45    6.57
  -3   2  -7   -0.32    7.94
   4  -2   7  124.66   15.61
  -4   2  -7  147.04   17.05
   5  -2   7  359.62   24.04
  -5   2  -7  376.61   25.83
  -6   2  -7  -27.45   12.04
   6  -2   7   -3.11   11.59
  -7   2  -7  -22.59   17.07
  -8   2  -7  -42.33   20.96
 -10  -1   7   23.62   18.80
  -9  -1   7   -8.02   15.25
  -8  -1   7    3.42   14.29
  -7  -1   7   -6.16   12.65
  -7  -1   7   -7.69   10.83
  -6  -1   7   36.78   11.64
  -6  -1   7   52.66   13.59
  -5  -1   7   91.33   13.84
  -5  -1   7   37.08    9.78
  -4  -1   7    7.88    7.47
  -4  -1   7   12.34    6.81
  -3  -1   7  252.49   15.65
  -3  -1   7  258.47   11.95
  -2  -1   7  296.22   16.16
  -1  -1   7   10.20    6.74
   0  -1   7  167.54   12.96
   1  -1   7 1252.62   35.35
   1  -1   7 1251.21   35.04
  -1   1  -7 1277.51   32.69
  -2   1  -7   61.61   10.22
   2  -1   7   62.69   10.25
   2  -1   7   66.29    7.99
   3  -1   7   30.12    9.08
  -3   1  -7   30.47    9.35
  -4   1  -7   93.40   14.98
   4  -1   7   86.34   13.48
  -5   1  -7   35.40   14.94
   5  -1   7   14.24   11.27
   6  -1   7   17.89   12.27
  -6   1  -7   -5.50   13.74
  -7   1  -7   -9.21   16.63
  -8   1  -7  -29.46   18.99
 -10   0   7   15.50   17.15
  -9   0   7    7.98   15.40
  -8   0   7    1.86   13.25
  -7   0   7    9.67   12.64
  -7   0   7   22.10   15.10
  -6   0   7  115.50   16.48
  -6   0   7   91.47   15.45
  -5   0   7  224.07   18.11
  -5   0   7  223.62   16.87
  -4   0   7   72.92   10.53
  -4   0   7   82.90   12.16
  -3   0   7   16.71    7.48
  -3   0   7   32.89    8.59
  -2   0   7  162.87   13.36
  -1   0   7   67.60    9.77
   0   0   7  426.47   19.77
   1   0   7   77.48    8.92
   1   0   7   93.79   11.02
   2   0   7  163.33   10.22
   2   0   7  165.50   13.92
   3   0   7   49.05   10.73
  -3   0  -7   44.26    9.19
  -4   0  -7    3.94    9.46
   4   0   7   -7.68    7.83
   5   0   7   -3.11    9.58
  -5   0  -7    1.14   11.76
  -6   0  -7   13.39   15.32
   6   0   7    3.35   11.42
  -7   0  -7    5.14   16.35
   7   0   7   14.50   14.80
  -8   0  -7   -4.77   18.41
 -10   1   7   -8.26   15.96
  -9   1   7  -14.87   13.69
  -8   1   7   73.48   17.40
  -7   1   7   58.83   15.44
  -6   1   7  130.00   18.13
  -6   1   7   91.80   16.74
  -5   1   7   33.38   12.14
  -5   1   7   43.88   12.72
  -4   1   7  162.33   15.24
  -4   1   7  152.51   16.50
  -3   1   7  282.16   15.72
  -3   1   7  251.62   16.61
  -2   1   7   53.05   10.07
  -1   1   7  106.75   11.87
   0   1   7  244.67   16.17
   0   1   7  244.73   10.75
   1   1   7  122.61    9.97
   1   1   7  131.61   12.99
   2   1   7   83.07   10.24
   2   1   7  100.31   12.41
   3   1   7   -2.06    7.39
   3   1   7   -0.29    6.25
   4   1   7  264.66   20.36
   4   1   7  268.42   19.82
   5   1   7   31.45   12.59
  -5  -1  -7   32.02   12.56
   6   1   7    0.46   12.17
  -6  -1  -7   26.33   13.66
   7   1   7    2.67   13.82
  -7  -1  -7    2.85   15.11
  -8  -1  -7   -1.93   17.83
 -10   2   7    7.67   17.73
  -9   2   7    5.41   15.64
  -8   2   7   48.06   16.90
  -7   2   7  227.18   21.56
  -6   2   7  -18.54   13.83
  -6   2   7   -3.48   10.52
  -5   2   7   26.31   13.73
  -5   2   7   19.12   11.61
  -4   2   7    8.94    8.69
  -4   2   7   -5.13   11.84
  -3   2   7  250.30   17.11
  -3   2   7  239.88   16.44
  -2   2   7  112.75   13.02
  -2   2   7  107.62   10.19
  -1   2   7  133.34    9.05
  -1   2   7  147.38   13.74
   0   2   7    5.36    3.22
   0   2   7    2.29    6.35
   1   2   7  145.56   14.36
   1   2   7  164.19   11.97
   2   2   7   12.17    8.23
   2   2   7    6.91    5.59
   3   2   7    2.28    7.56
   3   2   7   -1.42    8.34
   4   2   7   58.34   12.94
   4   2   7   49.36   12.42
   5   2   7   33.50   12.48
   5   2   7   25.57   12.38
   6   2   7    5.81   12.54
   7   2   7    7.51   14.30
  -7  -2  -7   41.20   15.33
  -8  -2  -7    7.42   17.20
  -9   3   7   17.26   16.89
  -8   3   7   11.80   14.73
  -7   3   7   -0.14   12.30
  -6   3   7   56.24   15.39
  -5   3   7   71.98   14.97
  -5   3   7   43.81   18.17
  -4   3   7  174.01   19.55
  -4   3   7  133.47   16.88
  -3   3   7    1.35    8.95
  -3   3   7   -4.32    8.71
  -2   3   7  710.80   24.49
  -2   3   7  706.38   27.73
  -1   3   7  140.01   14.64
  -1   3   7  118.79   10.84
   0   3   7  165.31   11.66
   0   3   7  176.52   16.86
   1   3   7  130.09   12.35
   1   3   7  175.56   16.00
   2   3   7   40.97    8.56
   2   3   7   41.78   10.46
   3   3   7   78.97   14.03
   3   3   7   79.41   11.95
   4   3   7   18.99   10.84
   4   3   7   13.76    9.13
   5   3   7   27.16   12.36
   5   3   7   28.22   14.27
   6   3   7   -3.27   12.75
   6   3   7   30.27   14.03
   7   3   7    2.61   13.67
  -7  -3  -7   17.80   12.58
  -9   4   7   13.11   16.83
  -8   4   7   -9.02   14.35
  -7   4   7   18.93   15.16
  -6   4   7   46.92   16.24
  -5   4   7    8.96   11.78
  -4   4   7  215.65   21.77
  -4   4   7  213.84   18.64
  -3   4   7  128.97   17.26
  -3   4   7  136.95   16.75
  -2   4   7  123.37   13.54
  -2   4   7  132.78   15.80
  -1   4   7   25.39   10.36
  -1   4   7   27.36    7.87
   0   4   7   16.52    9.41
   0   4   7   12.66    6.13
   1   4   7  137.71   15.48
   1   4   7  126.53   13.03
   2   4   7  228.52   18.55
   2   4   7  225.96   17.73
   3   4   7   -4.37    6.58
   3   4   7   -2.44    8.72
   4   4   7   -0.64    9.28
   4   4   7    1.49    8.23
   5   4   7   57.27   14.49
   5   4   7   66.01   15.61
   6   4   7   -1.75   13.81
   6   4   7    8.98   13.17
   7   4   7   20.50   16.65
   7   4   7  -18.41   15.09
  -9   5   7   10.39   19.06
  -8   5   7   34.76   18.06
  -7   5   7    7.18   16.33
  -6   5   7   23.07   16.37
  -5   5   7   -1.03   11.92
  -4   5   7  100.34   18.45
  -4   5   7  102.93   17.35
  -3   5   7  158.77   18.24
  -3   5   7  154.87   18.42
  -2   5   7   41.72   11.89
  -2   5   7   49.65   11.54
  -1   5   7    1.87    7.22
  -1   5   7   10.95   10.32
   0   5   7  119.26   13.31
   0   5   7  115.57   15.68
   1   5   7  220.45   18.84
   1   5   7  197.48   16.10
   2   5   7   15.66    9.15
   2   5   7    1.06    6.88
   3   5   7   43.94   12.25
   3   5   7   46.98   11.60
   4   5   7   79.24   14.10
   4   5   7   68.84   14.62
   5   5   7   21.63   14.36
   5   5   7   33.62   13.48
   6   5   7   67.85   17.60
   6   5   7   62.71   19.24
   7   5   7   19.07   16.00
   7   5   7  -11.16   15.42
  -9   6   7   54.40   22.38
  -8   6   7    5.27   18.15
  -7   6   7   11.29   16.67
  -6   6   7   -0.85   15.51
  -5   6   7   -3.25   13.38
  -4   6   7  203.40   23.41
  -3   6   7  479.14   26.38
  -3   6   7  479.08   27.30
  -2   6   7   93.46   15.21
  -2   6   7   69.73   14.76
  -1   6   7   -4.73    9.04
  -1   6   7   -6.60    9.60
   0   6   7    3.02    9.27
   0   6   7    3.17    6.87
   1   6   7  186.11   18.55
   1   6   7  206.98   17.56
   2   6   7   -3.22    7.63
   2   6   7   -9.37    7.01
   3   6   7    7.70   10.25
   3   6   7   19.42   10.37
   4   6   7   -0.10    9.08
   4   6   7   -0.79    9.24
   5   6   7   20.97   13.16
   5   6   7   38.27   16.15
   6   6   7    4.58   15.81
   6   6   7   27.39   14.57
  -8   7   7    5.09   19.08
  -7   7   7  -19.12   15.62
  -6   7   7  -27.70   13.88
  -5   7   7  -12.58   13.79
  -4   7   7    5.35   14.04
  -3   7   7  110.29   18.06
  -2   7   7   79.66   15.89
  -2   7   7   80.47   15.62
  -1   7   7   31.87   13.26
  -1   7   7   40.24   12.24
   0   7   7    6.65   10.39
   0   7   7   18.76    8.92
   1   7   7   16.78    8.80
   1   7   7    9.73    8.67
   2   7   7   48.69   12.63
   2   7   7   16.89   11.10
   3   7   7   27.83   12.78
   3   7   7   24.31   11.74
   4   7   7    3.37    9.76
   4   7   7   -0.24   10.35
   5   7   7   33.06   16.80
   6   7   7    3.35   15.48
  -8   8   7   -3.81   19.39
  -7   8   7   -8.29   17.39
  -6   8   7    6.64   17.23
  -5   8   7  -31.21   14.61
  -4   8   7   34.24   16.98
  -3   8   7   45.32   15.33
  -2   8   7   71.53   17.16
  -1   8   7   11.73   11.77
  -1   8   7    5.25   11.28
   0   8   7   -7.96    9.70
   0   8   7   -0.35    9.33
   1   8   7    1.22    9.76
   1   8   7    8.64   11.11
   2   8   7    6.70   11.52
   3   8   7   23.25   13.53
   4   8   7  -13.31   11.02
   5   8   7    2.92   14.49
  -7   9   7  -10.75   18.57
  -6   9   7  -32.24   18.71
  -5   9   7   -2.28   17.05
  -4   9   7   -4.33   15.27
  -3   9   7    5.23   13.39
  -2   9   7  -10.84   13.34
   0   9   7    4.54   11.21
   1   9   7    6.67   11.89
   2   9   7   70.59   17.32
   3   9   7    5.12   13.69
   4   9   7   19.27   15.28
  -6  10   7  -33.63   19.66
  -5  10   7  -15.59   17.02
   2  10   7   27.46   15.66
   3  10   7   43.29   18.75
  -2 -15   8   19.75   27.10
  -1 -15   8   14.78   25.93
   1  15  -8   84.88   25.61
   0  15  -8   60.52   26.48
  -1  15  -8  156.35   32.77
   3  14  -8   62.43   22.33
  -3 -14   8   26.27   26.56
   2  14  -8   63.03   21.56
  -2 -14   8    5.48   23.42
   1  14  -8   85.12   24.67
  -1 -14   8   15.79   23.21
   0  14  -8   82.83   26.77
   0 -14   8   54.07   23.08
  -1  14  -8  211.90   33.17
  -2  14  -8   93.10   29.20
  -3  14  -8   74.67   28.09
   5  13  -8   43.30   23.77
   4  13  -8   67.16   22.89
   3  13  -8   52.27   20.83
  -3 -13   8   39.38   25.31
   2  13  -8  133.88   24.86
  -2 -13   8  108.54   26.25
  -1 -13   8   65.84   23.54
   1  13  -8   53.24   21.98
   0 -13   8   74.07   23.36
   0  13  -8  112.77   25.40
   1 -13   8  233.07   28.56
  -1  13  -8  282.13   31.20
  -2  13  -8   56.35   24.70
  -3  13  -8   36.54   25.48
  -4  13  -8   43.55   27.29
  -5  13  -8   -2.32   27.02
   6  12  -8   13.57   22.48
   5  12  -8   67.72   22.21
   4  12  -8   43.01   20.04
  -4 -12   8   55.30   24.34
   3  12  -8  146.53   24.09
  -3 -12   8  159.47   27.74
  -2 -12   8   66.25   22.95
   2  12  -8   60.95   20.10
   1  12  -8  193.26   24.22
  -1 -12   8  145.44   25.00
   0 -12   8  149.38   24.63
   0  12  -8  196.50   24.34
   1 -12   8   25.66   19.76
  -1  12  -8   57.76   22.34
   2 -12   8  213.01   26.98
  -2  12  -8  211.99   31.41
  -3  12  -8    2.39   22.88
  -4  12  -8  148.01   31.26
  -5  12  -8   53.30   28.01
   6  11  -8   23.73   20.07
   5  11  -8   26.65   19.79
  -4 -11   8   49.46   21.29
   4  11  -8   58.89   20.08
   3  11  -8  147.35   22.58
  -3 -11   8  155.61   25.04
  -2 -11   8  163.21   24.98
   2  11  -8  208.04   22.63
  -1 -11   8    9.21   15.86
   1  11  -8   42.25   16.82
   0 -11   8  126.50   22.69
   0  11  -8  140.21   23.82
   1 -11   8  327.45   28.90
  -1  11  -8  348.14   30.73
   2 -11   8  -13.49   15.70
  -2  11  -8   -8.66   19.40
  -3  11  -8  154.42   28.79
  -4  11  -8  183.23   31.23
  -5  11  -8   62.18   27.87
  -6  11  -8   44.18   26.43
   7  10  -8   -4.92   21.04
   6  10  -8   20.32   18.38
   5  10  -8   72.47   21.46
  -5 -10   8   76.48   21.38
   4  10  -8  110.66   20.87
  -4 -10   8  118.85   21.98
   3  10  -8   97.54   18.22
  -3 -10   8   71.68   19.39
   2  10  -8  111.37   19.24
  -2 -10   8   89.18   18.73
   1  10  -8  169.73   23.09
  -1 -10   8  171.57   22.81
   0  10  -8   91.72   19.60
   0 -10   8   53.38   16.71
  -1  10  -8  107.31   22.45
   1 -10   8   61.74   18.44
  -2  10  -8  217.57   26.96
   2 -10   8  187.92   25.10
  -3  10  -8    5.80   18.63
   3 -10   8   23.09   18.40
  -4  10  -8   86.55   25.97
  -5  10  -8  157.50   30.65
  -6  10  -8   -8.15   25.51
  -7  10  -8   28.27   31.02
   7   9  -8   14.84   19.98
   6   9  -8   21.51   16.49
  -5  -9   8    3.52   16.30
   5   9  -8   31.66   17.51
   4   9  -8  117.24   19.87
  -4  -9   8  115.43   20.55
   3   9  -8   87.90   15.95
  -3  -9   8   78.12   17.17
  -2  -9   8   98.84   17.54
   2   9  -8   94.26   16.99
   1   9  -8  286.32   23.94
  -1  -9   8  306.35   23.94
   0  -9   8  192.50   21.31
   0   9  -8  236.09   23.78
   1  -9   8  159.95   21.38
  -1   9  -8  187.00   24.39
   2  -9   8  181.41   23.21
  -2   9  -8  256.11   27.46
  -3   9  -8   55.35   21.24
   3  -9   8   17.51   16.69
  -4   9  -8   -9.11   18.95
  -5   9  -8   32.74   23.97
  -6   9  -8   48.91   24.85
  -7   9  -8   40.15   28.41
   7   8  -8   43.41   19.73
   6   8  -8   25.10   17.13
   5   8  -8  292.83   24.97
  -5  -8   8  228.54   24.06
  -4  -8   8   75.34   17.12
   4   8  -8   73.46   15.89
   3   8  -8  135.87   16.78
  -3  -8   8  141.43   18.83
  -2  -8   8  188.21   17.84
   2   8  -8  194.35   18.33
   1   8  -8   84.47   15.35
  -1  -8   8   76.11   14.18
   0   8  -8  234.11   22.57
   0  -8   8  238.02   20.37
   1  -8   8  620.59   31.35
  -1   8  -8  605.94   32.33
  -2   8  -8  199.10   25.13
   2  -8   8  204.48   21.83
  -3   8  -8  368.13   30.63
   3  -8   8  386.71   28.56
  -4   8  -8   74.87   21.96
  -5   8  -8   38.99   22.68
  -6   8  -8   64.03   29.05
  -7   8  -8   -0.05   27.62
  -6  -7   8  130.59   20.69
   6   7  -8  131.37   20.88
  -5  -7   8   50.30   15.45
   5   7  -8   46.88   15.24
   4   7  -8  521.30   27.01
  -4  -7   8  559.57   28.83
  -3  -7   8  816.26   34.81
   2   7  -8  102.29   13.85
  -2  -7   8   97.56   14.66
  -1  -7   8  357.34   21.74
   1   7  -8  365.38   21.34
   0  -7   8  202.98   17.49
   0   7  -8  163.05   15.90
  -1   7  -8  598.99   29.95
   1  -7   8  794.60   32.82
  -2   7  -8   24.64   16.05
   2  -7   8   12.95    7.17
   2  -7   8   12.37   11.84
   3  -7   8  715.70   27.72
   3  -7   8  726.98   35.84
  -3   7  -8  753.07   37.03
   4  -7   8   60.54   17.93
  -4   7  -8   87.97   23.55
  -5   7  -8  303.23   30.63
  -6   7  -8  146.34   28.68
  -7   7  -8   -5.11   24.66
  -8   7  -8   13.03   29.54
   6   6  -8  178.13   20.37
  -6  -6   8  154.69   19.27
  -4  -6   8  183.16   16.77
   4   6  -8  168.49   17.34
   3   6  -8 1994.58   54.35
  -3  -6   8 1865.59   57.21
  -2  -6   8  225.55   17.35
   2   6  -8  217.74   15.68
   1   6  -8   38.53    9.81
  -1  -6   8   61.13   11.72
   0   6  -8  939.46   32.60
   0  -6   8  943.48   35.30
   0  -6   8  931.47   25.73
   1  -6   8  382.89   21.60
   1  -6   8  383.14   16.17
  -1   6  -8  415.17   23.94
   2  -6   8  132.50   12.32
   2  -6   8  138.84   16.68
  -2   6  -8  110.13   16.88
   3  -6   8   85.81   16.65
  -3   6  -8  101.73   20.13
   3  -6   8   78.94   12.41
  -4   6  -8  550.83   32.52
   4  -6   8  516.91   25.68
  -5   6  -8  217.37   27.67
  -6   6  -8   91.22   24.73
  -7   6  -8  147.65   30.46
  -8   6  -8   -9.88   28.91
  -7  -5   8  256.52   23.38
  -6  -5   8  321.06   23.43
   6   5  -8  238.66   20.09
  -5  -5   8   79.88   15.06
   5   5  -8   70.87   13.48
   4   5  -8  234.52   17.13
  -4  -5   8  244.52   18.93
  -4  -5   8  254.43   15.22
  -3  -5   8  623.97   27.75
  -3  -5   8  637.17   22.92
   3   5  -8  648.23   24.88
   2   5  -8   45.09    7.92
  -2  -5   8   28.61    7.26
  -2  -5   8   46.02   10.02
   1   5  -8   97.29   11.07
  -1  -5   8  113.79   12.75
  -1  -5   8  117.21   10.64
   0  -5   8  587.16   25.92
   0  -5   8  571.01   20.06
   0   5  -8  596.09   23.21
   1  -5   8 1574.38   47.53
  -1   5  -8 1624.32   46.28
   1  -5   8 1589.89   40.17
  -2   5  -8  302.82   21.00
   2  -5   8  376.25   17.70
   2  -5   8  327.10   20.10
  -3   5  -8  405.38   25.76
   3  -5   8  386.54   20.51
  -4   5  -8  478.07   30.20
   4  -5   8  486.56   24.97
   4  -5   8  462.32   27.23
   5  -5   8  263.68   21.79
  -5   5  -8  294.53   27.73
  -6   5  -8  213.03   29.73
  -7   5  -8   99.60   28.89
  -8   5  -8  -44.28   24.46
  -8  -4   8  103.25   19.02
  -7  -4   8  320.85   22.18
  -6  -4   8  209.10   17.45
  -5  -4   8  182.64   15.50
   5   4  -8  184.79   16.39
  -4  -4   8   47.05    9.68
  -4  -4   8   22.32   11.17
   4   4  -8   38.09    9.68
   3   4  -8  223.25   12.97
  -3  -4   8  192.39   14.94
  -3  -4   8  207.89   16.37
  -2  -4   8    2.89    6.53
  -2  -4   8   -9.28    5.28
   2   4  -8    0.13    4.16
   1   4  -8  541.25   18.37
  -1  -4   8  518.30   19.39
  -1  -4   8  523.33   23.30
   0  -4   8  401.90   20.17
   0   4  -8  390.08   17.21
   0  -4   8  406.01   18.25
  -1   4  -8 3068.84   72.65
   1  -4   8 3084.04   76.98
   1  -4   8 3088.97   67.50
   2  -4   8 1009.81   34.21
  -2   4  -8 1089.01   35.64
   2  -4   8 1044.28   31.89
   3  -4   8 1145.16   35.71
  -3   4  -8  958.92   37.92
   3  -4   8 1185.17   38.36
   4  -4   8  180.70   17.47
  -4   4  -8  206.70   21.86
   5  -4   8   73.04   15.65
  -5   4  -8   49.27   18.75
  -6   4  -8  266.28   31.50
  -7   4  -8  -39.41   20.47
  -8   4  -8    0.84   26.60
  -9  -3   8   16.26   16.60
  -8  -3   8   77.99   17.71
  -7  -3   8   72.80   15.59
  -6  -3   8   13.21   11.54
  -5  -3   8  320.27   19.50
   4   3  -8  183.28   13.79
  -4  -3   8  204.93   14.78
   3   3  -8  277.47   13.12
  -3  -3   8  292.80   16.69
  -2  -3   8  699.58   24.30
  -1  -3   8  734.00   24.70
  -1  -3   8  792.05   28.85
   0  -3   8  193.30   14.06
   0  -3   8  177.74   13.86
   1  -3   8 1331.92   37.49
  -1   3  -8 1370.16   37.48
   1  -3   8 1384.42   40.70
  -2   3  -8 1306.24   39.08
   2  -3   8 1244.29   38.14
   2  -3   8 1281.52   37.68
   3  -3   8  103.72   12.95
   3  -3   8   87.30   12.91
   4  -3   8   70.78   13.95
  -4   3  -8   77.74   16.14
  -5   3  -8    1.50   14.53
   5  -3   8   10.44   11.52
  -6   3  -8  117.27   23.71
   6  -3   8  148.40   21.48
  -7   3  -8  -16.34   20.08
  -8   3  -8  -28.96   22.01
  -9  -2   8   -3.64   16.18
  -8  -2   8    1.82   14.04
  -7  -2   8  116.80   17.68
  -6  -2   8   31.10   13.08
  -5  -2   8   44.86   11.76
  -4  -2   8   19.25    7.94
  -3  -2   8  806.43   27.94
  -2  -2   8  678.42   24.51
  -1  -2   8  140.23   12.65
   0  -2   8 1903.63   48.02
   0  -2   8 2023.57   53.00
  -1   2  -8   15.29    7.38
   1  -2   8   19.62    7.58
   2  -2   8 1063.53   34.21
   2  -2   8 1071.41   32.90
  -2   2  -8 1094.17   33.87
   3  -2   8  133.00   13.97
  -4   2  -8    1.90   11.05
   4  -2   8    4.96    9.32
   5  -2   8   29.17   12.54
  -5   2  -8   41.86   15.74
  -6   2  -8   87.24   21.09
   6  -2   8   66.08   16.90
  -7   2  -8   21.97   21.17
  -8   2  -8  -24.22   21.49
 -10  -1   8   37.42   20.07
  -9  -1   8   19.00   16.61
  -8  -1   8   25.57   15.09
  -7  -1   8   89.81   17.26
  -6  -1   8  156.39   17.05
  -5  -1   8   66.64   13.55
  -4  -1   8  359.44   19.84
  -3  -1   8 1035.65   33.41
  -2  -1   8  923.56   30.06
  -1  -1   8 1222.23   35.07
   0  -1   8  112.99   12.26
   1  -1   8 1040.46   32.88
   1  -1   8 1041.30   31.97
  -1   1  -8 1036.51   28.60
  -2   1  -8  729.06   25.96
   2  -1   8  754.74   24.94
   2  -1   8  730.57   27.95
  -3   1  -8   38.58    9.37
   3  -1   8   63.25   11.82
   4  -1   8  172.80   17.14
  -4   1  -8  183.92   17.61
   5  -1   8  295.00   23.25
  -5   1  -8  316.61   23.88
  -6   1  -8  392.59   28.40
   6  -1   8  377.72   27.70
  -7   1  -8   68.78   21.58
   7  -1   8   90.21   20.37
  -8   1  -8   16.33   20.26
 -10   0   8   36.44   19.27
  -9   0   8   31.45   16.16
  -8   0   8    0.90   13.84
  -7   0   8  497.49   28.92
  -6   0   8  268.89   20.57
  -5   0   8  284.39   20.44
  -4   0   8 1203.58   38.66
  -3   0   8 1338.95   40.16
  -2   0   8 1422.28   40.28
  -1   0   8 1612.44   43.07
   0   0   8  769.61   27.80
   1   0   8  578.24   24.33
   2   0   8 1039.25   34.79
  -2   0  -8 1027.57   31.65
  -3   0  -8  257.79   15.91
  -4   0  -8   56.07   12.98
   4   0   8   40.48   12.28
   5   0   8  376.90   25.94
  -5   0  -8  402.41   25.11
  -6   0  -8  327.95   25.51
   6   0   8  329.48   26.36
  -7   0  -8  150.77   23.29
   7   0   8  160.85   23.77
  -8   0  -8   78.21   23.25
  -9   1   8   45.81   19.23
  -8   1   8   65.07   18.61
  -7   1   8  339.42   25.44
  -6   1   8  615.61   31.32
  -5   1   8  412.21   24.21
  -4   1   8 1139.73   38.62
  -3   1   8 1195.47   38.66
  -2   1   8  306.04   18.35
  -1   1   8  438.60   20.90
   0   1   8  598.51   25.02
   1   1   8 1066.78   34.68
   1   1   8 1003.65   29.51
   2   1   8 1091.76   34.53
   2   1   8 1086.87   36.48
   3   1   8  659.31   29.40
   3   1   8  688.08   28.81
   4   1   8  104.56   15.52
   5   1   8  276.28   22.49
  -5  -1  -8  280.82   20.90
  -6  -1  -8  170.57   20.99
   6   1   8  165.23   22.12
  -7  -1  -8   71.11   19.18
   7   1   8   48.35   17.37
  -8  -1  -8    6.31   18.26
  -9   2   8   19.97   17.33
  -8   2   8  211.40   23.24
  -7   2   8  428.54   28.45
  -6   2   8   -1.77   11.87
  -5   2   8  321.28   22.68
  -4   2   8  347.43   22.48
  -3   2   8  151.62   16.67
  -2   2   8  474.94   22.88
  -1   2   8  212.74   16.80
   0   2   8  230.95   18.31
   0   2   8  260.76   12.88
   1   2   8  373.50   21.20
   1   2   8  359.26   16.95
   2   2   8 1079.54   37.00
   2   2   8 1073.75   34.80
   3   2   8  879.28   33.97
   3   2   8  864.93   34.45
   4   2   8  158.92   18.59
   4   2   8  166.70   17.28
   5   2   8  244.83   21.45
   5   2   8  252.46   22.94
  -6  -2  -8  105.50   16.62
   6   2   8  101.84   19.91
  -7  -2  -8   87.56   18.17
   7   2   8   68.37   18.90
  -9   3   8   23.40   17.16
  -8   3   8   21.09   17.10
  -7   3   8   20.27   15.15
  -6   3   8  243.37   22.73
  -5   3   8   -2.94   11.26
  -4   3   8  337.40   22.77
  -3   3   8 1357.84   43.00
  -2   3   8  130.15   15.49
  -1   3   8  558.29   25.98
   0   3   8  183.83   17.79
   0   3   8  183.87   12.29
   1   3   8  823.83   32.04
   1   3   8  804.05   28.45
   2   3   8   68.11   13.14
   2   3   8   72.04   10.97
   3   3   8  740.32   32.63
   3   3   8  793.57   32.15
   4   3   8  299.47   22.68
   4   3   8  268.56   20.03
   5   3   8  188.74   22.40
   5   3   8  193.81   20.45
   6   3   8  240.10   24.15
   6   3   8  226.59   25.55
  -7  -3  -8   75.60   16.24
   7   3   8   38.28   18.07
  -9   4   8   26.85   19.06
  -8   4   8    8.46   16.92
  -7   4   8  110.06   21.43
  -6   4   8   93.97   18.60
  -5   4   8  183.80   21.36
  -4   4   8   82.88   16.29
  -3   4   8  853.52   33.53
  -2   4   8  946.87   35.12
  -1   4   8  737.25   30.57
   0   4   8  260.41   20.83
   0   4   8  274.44   16.29
   1   4   8  614.20   28.56
   1   4   8  646.44   26.29
   2   4   8  394.32   21.81
   2   4   8  416.20   24.47
   3   4   8  273.09   20.53
   3   4   8  282.91   21.49
   4   4   8   35.79   12.20
   4   4   8   27.73   12.50
   5   4   8  122.72   19.31
   5   4   8   99.11   17.24
   6   4   8   43.08   16.57
   6   4   8   45.66   16.78
   7   4   8  231.83   28.92
  -9   5   8    3.96   19.95
  -8   5   8   29.48   20.44
  -7   5   8  195.31   26.73
  -6   5   8  278.06   26.42
  -5   5   8  402.61   28.43
  -4   5   8  135.11   19.88
  -3   5   8  264.66   21.55
  -2   5   8  297.43   22.06
  -1   5   8  623.52   29.23
   0   5   8   16.20   11.33
   1   5   8  535.95   25.20
   1   5   8  557.10   27.98
   2   5   8  679.54   30.86
   2   5   8  654.91   30.18
   3   5   8  134.45   18.06
   3   5   8  111.75   16.02
   4   5   8   57.87   14.14
   4   5   8   71.76   14.27
   5   5   8  182.69   23.44
   5   5   8  161.11   20.78
   6   5   8   33.01   18.07
   6   5   8   61.91   17.50
  -8   6   8   57.72   22.48
  -7   6   8  144.48   24.73
  -6   6   8  164.38   25.66
  -5   6   8  715.11   37.63
  -4   6   8   58.63   16.99
  -3   6   8  210.26   22.79
  -2   6   8  518.31   27.74
  -1   6   8   59.59   14.81
   0   6   8   12.98   10.88
   1   6   8  338.96   23.54
   2   6   8  734.09   33.76
   2   6   8  755.86   33.34
   3   6   8  292.67   23.27
   3   6   8  287.38   22.47
   4   6   8  193.96   18.86
   4   6   8  182.25   22.38
   5   6   8    1.98   13.14
   5   6   8   27.36   13.28
   6   6   8  218.70   26.97
  -8   7   8   41.72   23.34
  -7   7   8   83.42   23.64
  -6   7   8   85.78   22.22
  -5   7   8  197.86   26.67
  -4   7   8  130.94   21.54
  -3   7   8  155.12   20.47
  -2   7   8  285.57   23.51
  -1   7   8  452.96   27.28
   0   7   8   98.26   17.93
   1   7   8  507.62   28.67
   2   7   8  387.97   26.25
   3   7   8  257.72   23.48
   3   7   8  278.06   23.27
   4   7   8  122.01   17.69
   4   7   8  153.56   22.81
   5   7   8   82.14   21.12
  -7   8   8   57.20   23.68
  -6   8   8    0.32   19.37
  -5   8   8   88.26   22.70
  -4   8   8    2.90   16.11
  -3   8   8  340.09   26.29
  -2   8   8  474.06   29.71
  -1   8   8  393.28   29.24
   0   8   8  427.15   27.82
   1   8   8  242.74   22.74
   2   8   8  331.84   24.50
  -7   9   8  122.61   29.68
  -6   9   8   16.44   22.99
  -5   9   8   10.05   18.38
  -4   9   8   59.50   20.25
  -3   9   8   99.60   20.66
  -2   9   8  223.18   25.42
  -1   9   8  295.53   26.82
  -6  10   8   12.43   21.09
  -5  10   8    8.23   21.00
  -2 -15   9  -20.11   24.82
  -1 -15   9   -0.31   21.70
   1  15  -9   68.88   24.60
   0 -15   9  -18.82   21.61
   0  15  -9   46.76   25.51
  -1  15  -9   80.23   27.39
  -3 -14   9   -9.82   25.38
   3  14  -9   26.87   19.17
  -2 -14   9   -8.19   22.39
   2  14  -9   15.70   18.08
   1  14  -9   41.51   20.29
  -1 -14   9  -25.21   20.07
   0  14  -9   40.59   22.19
   0 -14   9  -12.41   19.73
  -1  14  -9   52.72   24.26
   1 -14   9  -16.99   19.23
  -2  14  -9   26.31   24.60
  -3  14  -9   22.20   25.09
  -4 -13   9  -13.76   23.69
   4  13  -9   29.48   19.61
   3  13  -9   45.13   18.99
  -3 -13   9  -21.62   21.20
   2  13  -9   21.47   18.46
  -2 -13   9  -17.80   19.44
   1  13  -9   41.93   20.38
  -1 -13   9   10.42   19.14
   0  13  -9   18.84   19.66
   0 -13   9  -13.62   17.81
  -1  13  -9   21.07   21.23
   1 -13   9  -22.20   17.69
  -2  13  -9   52.81   23.67
   2 -13   9   14.98   20.77
  -3  13  -9    9.99   22.96
  -4  13  -9    8.01   24.52
   4  12  -9   20.90   16.84
  -4 -12   9  -19.14   21.13
   3  12  -9   11.20   15.10
  -3 -12   9  -33.49   16.67
   2  12  -9   89.13   19.94
  -2 -12   9   38.67   20.20
   1  12  -9   16.44   16.52
  -1 -12   9  -25.39   15.03
   0  12  -9   15.25   16.41
   0 -12   9   24.92   17.97
  -1  12  -9   11.75   19.56
   1 -12   9  -14.19   16.07
   2 -12   9   12.89   20.45
  -2  12  -9   54.70   22.97
  -3  12  -9   10.96   23.23
  -4  12  -9   28.31   25.13
  -5  12  -9   13.30   24.94
  -5 -11   9    6.00   20.94
   4  11  -9    2.64   15.65
  -4 -11   9  -38.31   16.83
   3  11  -9   19.57   15.38
  -3 -11   9  -27.61   15.47
   2  11  -9    5.40   13.42
  -2 -11   9    0.36   15.75
  -1 -11   9   -0.22   15.06
   1  11  -9   27.88   16.16
   0  11  -9   17.06   16.38
   0 -11   9   -9.47   13.83
   1 -11   9   21.02   16.84
  -1  11  -9   54.35   20.36
  -2  11  -9   38.54   21.58
   2 -11   9   51.47   20.85
  -3  11  -9   26.34   21.96
   3 -11   9  -20.45   16.88
  -4  11  -9   -1.67   22.41
  -5  11  -9   -1.46   24.68
  -6  11  -9  -21.75   25.93
  -5 -10   9   12.58   17.72
  -4 -10   9   -6.48   14.63
   4  10  -9    7.09   13.35
  -3 -10   9  -19.70   13.89
   3  10  -9   26.72   12.91
  -2 -10   9    6.51   14.72
   2  10  -9   46.87   15.09
   1  10  -9    7.15   13.33
  -1 -10   9  -12.56   11.85
   0  10  -9   90.89   19.20
   0 -10   9   62.73   17.98
  -1  10  -9   24.26   17.06
   1 -10   9   -7.43   13.22
   2 -10   9  -19.07   15.17
  -2  10  -9   -9.96   16.98
   3 -10   9  141.19   25.58
  -3  10  -9  151.59   26.25
  -4  10  -9    8.45   22.53
  -5  10  -9    3.69   23.01
  -6  10  -9  -17.77   23.99
  -5  -9   9   13.11   16.58
   4   9  -9   50.94   15.79
  -4  -9   9   72.73   18.69
  -3  -9   9  -18.31   14.22
   3   9  -9   29.90   12.35
   2   9  -9    5.17   10.52
  -2  -9   9  -10.31   11.44
  -1  -9   9   14.76   13.36
   1   9  -9   15.70   12.29
   0  -9   9   51.29   15.71
   0   9  -9   68.63   17.16
  -1   9  -9   15.05   15.96
   1  -9   9    9.05   14.02
  -2   9  -9   45.18   17.86
   2  -9   9   33.74   16.95
  -3   9  -9   41.19   20.10
   3  -9   9   24.91   17.18
  -4   9  -9  110.91   25.48
  -5   9  -9  -11.16   20.62
  -6   9  -9  -11.74   24.07
  -7   9  -9  -45.71   25.90
  -6  -8   9   -8.27   13.28
  -5  -8   9    0.31   13.46
  -4  -8   9  126.89   20.32
  -3  -8   9   25.32   14.17
   3   8  -9   41.27   12.10
  -2  -8   9  117.39   18.00
   2   8  -9  126.23   16.62
  -1  -8   9  125.25   16.91
   1   8  -9  128.70   17.29
   0  -8   9   31.60   13.04
   0   8  -9   31.17   10.17
  -1   8  -9   16.96   11.98
   1  -8   9   35.72   14.76
   2  -8   9   13.08   13.86
  -2   8  -9  -10.37   14.72
  -3   8  -9    7.81   16.84
   3  -8   9  -15.83   13.27
  -4   8  -9   35.39   21.01
   4  -8   9   42.62   17.75
  -5   8  -9    8.24   21.26
  -6  -7   9   -2.13   13.38
  -5  -7   9   44.28   15.05
  -4  -7   9  101.02   17.52
  -3  -7   9   34.89   12.29
   3   7  -9   21.08    9.88
  -2  -7   9   77.98   14.03
   2   7  -9   75.76   12.87
  -1  -7   9   20.63   11.28
   1   7  -9   15.03    9.80
   0  -7   9   90.33   14.75
   0   7  -9   73.69   14.15
  -1   7  -9  158.47   18.64
   1  -7   9  147.38   18.81
   2  -7   9   57.29   15.50
   2  -7   9   36.00    9.58
  -2   7  -9   14.94   12.25
  -3   7  -9  179.10   23.33
   3  -7   9  132.34   14.19
   3  -7   9  167.65   21.84
  -4   7  -9   -0.35   17.89
   4  -7   9   -7.42    9.53
   4  -7   9  -18.48   12.57
  -5   7  -9  -28.31   19.79
  -6   7  -9   12.06   21.76
  -7   7  -9  -25.13   23.58
  -7  -6   9  -17.46   14.36
  -6  -6   9  -23.52   11.06
  -5  -6   9   23.64   13.33
  -4  -6   9    0.02    9.48
  -3  -6   9    6.65    9.27
  -2  -6   9   18.37   10.16
   2   6  -9   18.31    7.80
   1   6  -9   29.78    9.33
  -1  -6   9   44.34   11.31
   0  -6   9   25.35    7.87
   0   6  -9   56.53   11.03
   0  -6   9   32.95   11.31
   1  -6   9    8.51    8.96
  -1   6  -9    0.81   10.99
   1  -6   9   -5.37    6.03
   2  -6   9    1.72    6.57
  -2   6  -9    5.02   12.68
   2  -6   9   13.16   11.03
  -3   6  -9   75.42   19.58
   3  -6   9   81.02   16.88
   3  -6   9   46.38   11.92
  -4   6  -9   18.43   15.94
   4  -6   9   -8.13   11.49
   4  -6   9    5.89   10.36
   5  -6   9   29.07   14.52
  -5   6  -9   23.41   18.66
  -6   6  -9   34.57   22.50
  -7   6  -9   44.22   26.52
  -8   6  -9    8.21   29.78
  -7  -5   9    6.92   13.75
  -6  -5   9   16.83   14.44
  -5  -5   9    3.98   11.08
  -4  -5   9  129.33   13.75
  -4  -5   9  132.33   17.05
  -3  -5   9   -1.57    7.55
  -3  -5   9    7.65    8.91
  -2  -5   9   81.30   10.70
  -2  -5   9  112.33   13.78
  -1  -5   9   10.45    8.04
  -1  -5   9   16.24    7.20
   0   5  -9   51.16    9.74
   0  -5   9   54.93   11.22
   0  -5   9   62.58    9.55
  -1   5  -9   41.37   12.59
   1  -5   9   42.17    9.88
   1  -5   9   32.66   10.39
   2  -5   9   11.47    7.83
  -2   5  -9   49.81   14.44
   2  -5   9   11.92   10.13
  -4   5  -9   26.44   16.34
   4  -5   9    6.53   10.62
  -5   5  -9   -0.79   18.26
   5  -5   9  -18.93   10.01
  -6   5  -9  -25.10   19.27
  -7   5  -9  -23.51   22.88
  -8   5  -9  -63.09   26.73
  -7  -4   9   28.47   13.64
  -6  -4   9    2.69   11.33
  -5  -4   9   24.60   10.82
  -4  -4   9  122.58   13.28
  -3  -4   9   99.32   14.43
  -3  -4   9  103.34   12.53
  -2  -4   9   10.11    7.47
  -2  -4   9   17.81    9.11
  -1  -4   9  181.54   14.18
  -1  -4   9  176.80   15.52
   0  -4   9   30.41    8.91
   0  -4   9   48.69    9.39
  -1   4  -9    0.46    8.91
   1  -4   9    3.11    6.87
   1  -4   9  -13.60    6.28
  -2   4  -9   95.60   14.60
   2  -4   9   84.09   12.34
   3  -4   9   -1.22    7.42
  -3   4  -9   -8.87   10.11
   3  -4   9   -1.57    9.31
   4  -4   9   98.87   16.33
  -4   4  -9  124.77   19.76
  -5   4  -9   28.18   18.71
   5  -4   9   58.63   15.81
   6  -4   9   -1.00   13.50
  -6   4  -9  -34.18   18.12
  -7   4  -9  -55.64   20.14
  -8   4  -9  -69.58   24.11
  -9  -3   9   -5.24   17.38
  -8  -3   9   -1.77   14.13
  -7  -3   9   51.47   15.41
  -6  -3   9    4.82   10.80
  -5  -3   9   98.39   14.75
  -4  -3   9   -1.30    9.14
  -3  -3   9  260.07   16.81
  -2  -3   9  159.70   13.98
  -1  -3   9   -7.33    7.21
  -1  -3   9   -3.51    6.07
   0  -3   9  864.97   31.41
   0  -3   9  860.64   28.85
  -1   3  -9   14.89    9.06
   1  -3   9    8.90    7.50
   1  -3   9   17.10    7.37
  -2   3  -9   30.73   11.25
   2  -3   9   34.94    8.77
   2  -3   9   35.54   10.47
  -3   3  -9    9.78   10.75
   3  -3   9    1.72    8.05
   4  -3   9   67.90   14.26
  -4   3  -9   51.42   15.02
  -5   3  -9   40.83   17.80
   5  -3   9   57.79   15.31
  -6   3  -9  -13.01   17.73
   6  -3   9   40.54   16.02
  -7   3  -9  -35.84   18.54
  -8   3  -9  -56.62   21.51
  -9  -2   9    6.53   17.28
  -8  -2   9   21.80   15.73
  -7  -2   9   17.13   13.20
  -6  -2   9   39.16   12.99
  -5  -2   9  161.81   16.02
  -4  -2   9  105.57   14.06
  -3  -2   9    0.83    8.18
  -2  -2   9  400.28   19.91
  -1  -2   9  393.02   19.44
   0  -2   9   22.53    8.89
   0  -2   9   37.94    9.39
  -2   2  -9   -0.58    8.64
   2  -2   9  -10.26    7.00
   2  -2   9    4.12    5.89
  -3   2  -9   12.15   10.74
   3  -2   9    9.73    9.80
  -4   2  -9   24.93   11.91
   4  -2   9    5.52   10.37
  -5   2  -9   39.80   16.49
   5  -2   9   42.86   14.95
   6  -2   9   -0.50   13.33
  -6   2  -9  -31.31   15.11
  -7   2  -9  -17.06   19.24
   7  -2   9   -3.93   14.91
  -8   2  -9  -35.56   22.65
  -9  -1   9   29.33   18.53
  -8  -1   9   38.42   16.94
  -7  -1   9    4.49   13.67
  -6  -1   9   64.40   15.00
  -5  -1   9   40.41   12.22
  -4  -1   9   10.07    9.68
  -3  -1   9  121.97   15.06
  -2  -1   9   55.28   10.92
  -1  -1   9    1.57    7.34
   0  -1   9 1221.50   37.20
   1  -1   9  127.06   11.99
   1  -1   9  130.36   14.22
   2  -1   9    1.09    8.35
  -2   1  -9    1.00    7.30
   3  -1   9    2.43    8.61
  -3   1  -9    6.70    9.50
  -4   1  -9   45.09   11.95
   4  -1   9   64.68   13.91
  -5   1  -9   36.05   14.58
   5  -1   9   38.10   13.46
   6  -1   9    1.03   13.13
  -6   1  -9  -13.06   13.92
   7  -1   9   40.14   16.65
  -7   1  -9   54.40   19.95
  -8   1  -9  -52.37   19.34
  -9   0   9   36.43   17.86
  -8   0   9   27.86   16.63
  -7   0   9   -1.20   13.67
  -6   0   9   26.67   14.11
  -5   0   9   75.19   14.65
  -4   0   9   30.25   11.78
  -3   0   9   47.64   11.93
  -2   0   9    1.07    8.20
  -1   0   9  300.76   18.54
   0   0   9   -3.54    6.73
   1   0   9   -2.59    7.20
   2   0   9   21.15    9.68
  -2   0  -9   37.85    9.66
  -3   0  -9  231.97   16.99
   3   0   9  226.98   19.05
  -4   0  -9   48.56   12.38
   4   0   9   67.24   13.82
  -5   0  -9    2.62   12.54
   5   0   9    7.06   10.25
  -6   0  -9   -8.74   13.78
   6   0   9    2.20   11.67
   7   0   9   32.22   17.31
  -7   0  -9   -0.78   16.65
  -9   1   9   69.05   19.09
  -8   1   9    2.42   15.30
  -7   1   9   15.83   16.80
  -6   1   9    0.78   12.99
  -5   1   9    8.06   11.49
  -4   1   9    8.71   10.27
  -3   1   9   21.55   10.51
  -2   1   9   -2.22    7.23
  -1   1   9   11.77    8.77
   0   1   9   16.72    8.60
   1   1   9   39.69   10.53
   2   1   9   13.51    6.97
   2   1   9   12.50    9.31
   3   1   9   -7.04    9.13
   3   1   9   13.45    9.29
   4   1   9   67.24   13.67
  -4  -1  -9  107.64   14.75
  -5  -1  -9   10.04   11.31
   5   1   9    1.17   10.56
   6   1   9   24.80   14.65
  -6  -1  -9    5.62   12.95
   7   1   9  -15.23   13.08
  -7  -1  -9   -9.93   15.27
  -9   2   9   16.06   18.63
  -8   2   9    2.22   17.12
  -7   2   9   -3.77   13.95
  -6   2   9   72.52   17.41
  -5   2   9  118.00   18.03
  -4   2   9   -0.74   10.11
  -3   2   9   35.35   11.80
  -2   2   9    7.85    9.17
  -1   2   9   29.78   10.26
   0   2   9   15.01    9.68
   1   2   9  523.51   26.37
   2   2   9   22.35   10.37
   3   2   9   35.45   12.63
   3   2   9   27.33    9.95
   4   2   9   42.50   12.59
   4   2   9   53.87   13.36
   5   2   9   44.61   14.63
   6   2   9    8.06   13.74
  -6  -2  -9   33.25   13.30
  -7  -2  -9   35.05   16.27
   7   2   9   28.63   17.15
  -9   3   9    7.71   18.67
  -8   3   9   29.25   18.52
  -7   3   9   76.44   20.32
  -6   3   9   -1.46   13.22
  -5   3   9   46.72   14.82
  -4   3   9   -5.23   10.35
  -3   3   9   15.04   11.03
  -2   3   9  183.81   18.07
  -1   3   9   11.73   10.78
   0   3   9  620.82   29.09
   1   3   9  197.71   19.06
   2   3   9  355.04   23.22
   3   3   9   -6.43    8.74
   4   3   9    4.83   10.02
   4   3   9   16.01   10.15
   5   3   9   35.85   13.68
   5   3   9    8.74   12.93
   6   3   9    0.78   13.24
   7   3   9   51.62   19.24
  -7  -3  -9   80.21   17.26
  -9   4   9   20.23   20.53
  -8   4   9   11.26   18.09
  -7   4   9   10.79   16.36
  -6   4   9   19.72   16.15
  -5   4   9    8.08   13.46
  -4   4   9  108.42   18.26
  -3   4   9  110.83   17.42
  -2   4   9   85.71   15.91
  -1   4   9  100.66   16.47
   0   4   9  522.71   27.66
   1   4   9  209.97   20.16
   2   4   9  127.48   17.22
   3   4   9   59.86   14.25
   4   4   9    8.21   10.85
   5   4   9   27.47   13.47
   6   4   9   -6.21   13.87
  -8   5   9  -12.38   17.89
  -7   5   9   -8.12   16.79
  -6   5   9   -7.09   15.46
  -5   5   9    0.31   14.49
  -4   5   9  210.91   21.59
  -3   5   9  323.60   23.68
  -2   5   9   14.34   12.05
  -1   5   9  467.90   27.09
   0   5   9   69.15   15.73
   1   5   9   65.30   15.02
   2   5   9   31.14   11.75
   3   5   9   65.34   15.04
   4   5   9   -3.91    9.56
   5   5   9   13.54   12.91
   6   5   9    7.60   14.20
  -8   6   9   -0.80   19.90
  -7   6   9  -15.66   16.30
  -6   6   9   10.57   17.89
  -5   6   9   -6.51   16.30
  -4   6   9   -3.76   13.25
  -3   6   9   -4.19   11.91
  -2   6   9   22.40   13.55
  -1   6   9  -18.57    9.21
   0   6   9   -7.70   10.62
   1   6   9  182.76   20.49
   2   6   9   38.40   12.91
   3   6   9    7.13   10.83
   4   6   9   -2.81    9.14
   5   6   9   10.96   13.29
  -7   7   9   -9.79   18.61
  -6   7   9   -3.42   18.29
  -5   7   9   -6.39   16.80
  -4   7   9  -29.24   13.68
  -3   7   9  107.24   19.67
  -2   7   9  230.32   23.62
  -1   7   9   93.12   19.38
   0   7   9    3.78   12.15
   1   7   9    7.70   11.61
   2   7   9    4.09   10.35
   3   7   9    6.29   12.67
   4   7   9    9.61   12.23
  -7   8   9  -33.92   20.71
  -6   8   9    3.29   20.91
  -5   8   9    2.85   18.50
  -4   8   9  -12.67   16.10
  -3   8   9   95.80   20.07
  -2   8   9    7.08   15.37
  -1   8   9  199.56   25.03
   0   8   9   27.12   14.25
   1   8   9   13.44   12.50
   2   8   9  145.71   20.48
  -6   9   9  -33.78   19.58
  -5   9   9    4.80   19.77
  -4   9   9   22.17   18.99
  -3   9   9   59.11   20.15
  -2   9   9   -4.39   13.55
  -1   9   9    3.40   14.29
  -5  10   9  -10.18   18.77
  -1 -15  10  -22.77   23.46
   1  15 -10   70.36   24.06
   0 -15  10   32.97   26.71
   0  15 -10   71.42   25.87
   1 -15  10   69.58   28.28
  -1  15 -10  170.07   31.49
  -3 -14  10   32.90   27.43
  -2 -14  10   26.19   23.97
   1  14 -10   59.15   22.08
  -1 -14  10    5.53   21.90
   0 -14  10   62.07   25.16
   0  14 -10   87.67   25.72
  -1  14 -10   53.65   24.04
   1 -14  10   16.22   22.68
   2 -14  10  -13.14   22.13
  -2  14 -10   39.06   25.88
  -3  14 -10  104.16   29.52
  -4 -13  10    0.91   24.17
  -3 -13  10   65.03   25.80
  -2 -13  10   -8.25   20.04
   1  13 -10  106.96   22.38
  -1 -13  10   43.92   22.72
   0  13 -10   87.97   22.30
   0 -13  10   19.36   20.77
   1 -13  10   22.24   20.19
  -1  13 -10   48.84   24.05
  -2  13 -10   87.31   25.14
   2 -13  10   29.75   22.22
  -3  13 -10  100.69   27.51
  -4  13 -10   87.35   28.19
  -5 -12  10   21.65   24.60
  -4 -12  10   14.14   22.16
  -3 -12  10   10.55   21.10
  -2 -12  10   19.50   19.42
   1  12 -10   62.04   19.02
  -1 -12  10    0.66   17.54
   0 -12  10   19.53   19.38
   0  12 -10   58.35   19.39
   1 -12  10   13.73   19.76
  -1  12 -10   66.24   22.51
  -2  12 -10  101.27   25.19
   2 -12  10   67.49   24.50
  -3  12 -10   51.03   25.80
   3 -12  10   -8.52   21.16
  -4  12 -10  115.69   29.70
  -5  12 -10   44.80   27.03
  -5 -11  10   13.67   19.78
  -4 -11  10   19.96   18.55
  -3 -11  10   -6.44   16.45
  -2 -11  10   84.00   20.76
   1  11 -10    5.18   14.02
  -1 -11  10   -8.13   14.65
   0  11 -10  110.45   22.02
   0 -11  10   83.30   21.21
  -1  11 -10  177.04   26.43
   1 -11  10  160.31   25.84
   2 -11  10  -18.45   16.89
  -2  11 -10   -1.16   18.82
   3 -11  10   93.62   25.37
  -3  11 -10   78.35   24.44
  -4  11 -10   29.89   24.24
  -5  11 -10   12.01   24.83
  -6  11 -10   56.72   30.95
  -5 -10  10  -13.89   16.28
  -4 -10  10   27.17   17.19
  -3 -10  10   20.11   15.76
  -2 -10  10   86.28   19.03
  -1 -10  10   92.67   19.69
   0  10 -10  333.19   26.29
   0 -10  10  248.74   25.46
   1 -10  10  208.24   24.64
  -1  10 -10  274.97   26.84
  -2  10 -10  205.76   26.98
   2 -10  10  130.19   24.20
   3 -10  10  -10.22   17.29
  -3  10 -10    7.76   19.88
   4 -10  10  -12.28   19.04
  -4  10 -10   21.24   23.64
  -5  10 -10  161.07   30.69
  -6  10 -10  -13.71   26.08
  -6  -9  10    5.16   17.62
  -5  -9  10   52.11   19.56
  -4  -9  10  170.09   23.06
  -3  -9  10  349.34   27.69
  -2  -9  10   99.04   18.16
  -1  -9  10  204.66   20.32
   0  -9  10  471.74   29.50
   0   9 -10  430.86   25.92
   1  -9  10  121.74   20.91
  -1   9 -10   48.85   12.86
  -2   9 -10  210.51   25.05
   2  -9  10  198.42   23.98
  -3   9 -10   62.10   21.81
   3  -9  10   80.08   21.64
   4  -9  10  106.56   23.67
  -4   9 -10  109.52   25.52
  -5   9 -10  104.04   27.75
  -6   9 -10   75.46   29.35
  -7   9 -10   -9.09   28.52
  -6  -8  10   29.88   16.80
  -5  -8  10    8.29   13.54
  -4  -8  10  998.03   43.72
  -3  -8  10  376.93   27.37
  -2  -8  10  188.96   20.23
  -1  -8  10  255.95   21.67
   0  -8  10  319.21   23.05
   1  -8  10   88.48   17.29
  -1   8 -10   72.32   17.31
  -2   8 -10    2.35    9.56
   2  -8  10   12.30   14.70
  -3   8 -10   68.44   19.94
   3  -8  10   39.30   16.96
   4  -8  10  146.96   23.73
  -4   8 -10   89.34   22.91
  -5   8 -10  188.84   30.08
  -6   8 -10   64.91   29.56
  -7   8 -10   -4.85   28.69
  -7  -7  10   35.20   18.19
  -6  -7  10   62.16   17.82
  -5  -7  10   15.26   13.43
  -4  -7  10  841.12   38.76
  -3  -7  10  351.23   24.63
  -2  -7  10  126.10   17.56
  -1  -7  10  243.75   20.31
   0  -7  10   61.59   14.29
   1  -7  10   95.17   15.75
  -2   7 -10   -5.65   13.96
   2  -7  10   -7.73    7.66
   2  -7  10   -1.72   11.94
   3  -7  10  175.33   16.33
   3  -7  10  186.08   22.88
  -3   7 -10  119.63   21.02
  -4   7 -10   52.53   20.34
   4  -7  10   24.80   12.15
  -5   7 -10  293.36   32.79
  -6   7 -10  233.06   32.84
  -7   7 -10   13.54   26.93
  -7  -6  10   58.23   18.66
  -6  -6  10   82.85   18.46
  -5  -6  10  158.73   19.76
  -4  -6  10   30.11   12.98
  -3  -6  10  356.34   23.13
  -2  -6  10  100.37   14.42
  -1  -6  10   -1.07    8.76
   0  -6  10  489.59   25.97
   0  -6  10  421.37   19.88
   1  -6  10  310.83   17.73
   1  -6  10  337.14   21.87
   2  -6  10  216.92   15.85
   2  -6  10  214.63   20.31
  -2   6 -10  214.39   22.64
   3  -6  10   85.75   16.77
   3  -6  10   85.33   14.11
   4  -6  10  306.19   22.53
  -4   6 -10  312.80   27.12
   5  -6  10  452.78   28.62
  -5   6 -10  419.02   32.16
  -6   6 -10   85.33   25.94
  -7   6 -10  184.71   33.88
  -7  -5  10   85.57   19.09
  -6  -5  10  175.85   21.02
  -5  -5  10  143.08   20.50
  -4  -5  10  142.52   18.74
  -4  -5  10  153.30   16.36
  -3  -5  10  434.52   20.93
  -3  -5  10  411.53   24.03
  -2  -5  10  147.07   13.57
  -2  -5  10  151.12   15.47
  -1  -5  10  131.78   15.03
  -1  -5  10  164.32   14.64
   0  -5  10  117.27   15.20
   0  -5  10  123.46   13.27
   1  -5  10  632.53   28.93
   1  -5  10  626.90   25.57
   2  -5  10  604.27   27.92
   2  -5  10  547.64   24.57
   3  -5  10  359.11   23.51
  -3   5 -10  403.24   26.08
   3  -5  10  384.26   22.41
   4  -5  10   35.94   13.30
  -4   5 -10   45.86   17.93
   5  -5  10  347.49   25.98
  -5   5 -10  340.20   30.50
  -6   5 -10  313.95   33.14
   6  -5  10  295.35   26.75
  -7   5 -10  -61.89   23.64
  -7  -4  10   59.02   16.16
  -6  -4  10  156.73   17.47
  -5  -4  10   43.59   13.40
  -4  -4  10  279.12   19.85
  -3  -4  10  443.68   24.82
  -3  -4  10  401.09   20.94
  -2  -4  10  358.36   19.41
  -2  -4  10  370.35   22.14
  -1  -4  10  406.56   20.93
  -1  -4  10  385.37   22.02
   0  -4  10  192.94   16.05
   0  -4  10  172.91   15.59
   1  -4  10  339.66   20.37
   1  -4  10  348.26   20.32
   3  -4  10  122.30   15.64
  -4   4 -10  -12.80   11.82
   4  -4  10   34.33   13.44
   5  -4  10  183.13   22.57
  -5   4 -10  141.65   24.57
  -6   4 -10   85.13   25.80
   6  -4  10  120.98   21.49
  -7   4 -10  -12.64   23.87
  -9  -3  10   28.61   18.22
  -8  -3  10   88.46   19.92
  -7  -3  10  138.06   20.80
  -6  -3  10   26.87   13.93
  -5  -3  10  136.63   17.69
  -4  -3  10  249.65   19.58
  -3  -3  10  215.12   17.14
  -2  -3  10  464.50   21.41
  -1  -3  10  124.96   14.19
  -1  -3  10  139.71   14.90
   0  -3  10   23.89    9.38
   0  -3  10   24.68    9.64
   1  -3  10  555.88   25.37
   1  -3  10  571.10   25.24
   2  -3  10  496.40   25.28
   2  -3  10  489.68   23.50
   3  -3  10   51.81   13.14
   4  -3  10   44.54   13.66
  -4   3 -10   -8.82    9.71
   5  -3  10  379.05   27.21
  -5   3 -10  336.06   27.09
   6  -3  10   37.73   16.65
  -6   3 -10   27.25   20.68
  -7   3 -10   13.73   23.07
   7  -3  10   29.48   18.48
  -9  -2  10   -3.59   18.39
  -8  -2  10  121.93   21.01
  -7  -2  10  340.83   25.51
  -6  -2  10   -5.68   12.61
  -5  -2  10  153.27   18.49
  -4  -2  10  283.24   21.40
  -3  -2  10  461.52   23.04
  -2  -2  10  412.03   21.05
  -1  -2  10  386.54   20.78
   0  -2  10  709.53   28.73
   0  -2  10  773.79   29.51
   2  -2  10  384.23   22.20
   3  -2  10  132.33   16.73
   4  -2  10  154.04   18.29
  -5   2 -10  356.06   27.51
   5  -2  10  366.86   26.83
   6  -2  10   79.32   19.13
  -6   2 -10   62.87   22.54
  -7   2 -10   80.47   26.62
   7  -2  10  107.58   22.28
  -9  -1  10   16.78   19.00
  -8  -1  10  210.86   25.76
  -7  -1  10  273.50   24.10
  -6  -1  10  189.65   19.69
  -5  -1  10  281.58   21.45
  -4  -1  10  640.10   29.58
  -3  -1  10  430.97   23.31
  -2  -1  10 1240.36   38.55
  -1  -1  10  284.02   19.47
   0  -1  10  280.10   19.83
   1  -1  10 2407.31   62.28
   1  -1  10 2380.23   62.74
   2  -1  10  203.08   18.44
   3  -1  10   -2.38    9.00
   4  -1  10  291.38   22.13
   5  -1  10   75.39   17.43
   6  -1  10  149.45   22.98
   7  -1  10   89.58   20.04
  -9   0  10  112.00   23.07
  -8   0  10  277.32   26.42
  -7   0  10  136.15   22.44
  -6   0  10  272.86   22.74
  -5   0  10   58.42   15.49
  -4   0  10  599.22   30.27
  -3   0  10  202.08   18.52
  -2   0  10  625.49   26.61
  -1   0  10  415.62   22.52
   0   0  10  895.94   33.68
   1   0  10  355.97   22.77
   2   0  10  952.70   36.43
   3   0  10  308.61   22.81
   4   0  10   65.95   14.09
   5   0  10  239.27   21.99
   6   0  10   76.98   18.51
   7   0  10   96.95   21.16
  -9   1  10   25.30   19.41
  -8   1  10  144.76   24.67
  -7   1  10  179.79   24.66
  -6   1  10   88.95   18.25
  -5   1  10    1.16   12.24
  -4   1  10  358.61   24.90
  -3   1  10  340.39   22.28
  -2   1  10  418.99   23.04
  -1   1  10  279.34   19.80
   0   1  10  668.78   29.94
   1   1  10  303.52   21.64
   2   1  10  689.90   31.23
   3   1  10  258.01   21.25
   4   1  10   69.22   14.01
   5   1  10  257.87   23.62
   6   1  10  141.98   22.37
   7   1  10  143.40   25.55
  -9   2  10    1.26   19.11
  -8   2  10   34.08   19.21
  -7   2  10   30.43   18.31
  -6   2  10   52.45   17.19
  -5   2  10   52.56   16.23
  -4   2  10  393.34   25.38
  -3   2  10  648.40   30.13
  -2   2  10 1406.88   44.52
  -1   2  10  955.77   36.29
   0   2  10   13.91   10.80
   1   2  10  220.83   20.04
   2   2  10  214.90   20.27
   3   2  10   16.25   11.28
   4   2  10   47.37   13.77
   5   2  10  135.65   20.27
   6   2  10  152.10   23.54
   7   2  10   97.63   22.41
  -9   3  10  -22.19   19.25
  -8   3  10   57.38   20.59
  -7   3  10   64.87   20.81
  -6   3  10  390.88   29.45
  -5   3  10   16.89   15.14
  -4   3  10  154.69   19.76
  -3   3  10  734.83   32.85
  -2   3  10  572.25   28.85
  -1   3  10  289.73   22.29
   0   3  10  208.68   20.37
   1   3  10  539.61   29.04
   2   3  10  102.95   16.73
   3   3  10   -2.84    9.81
   4   3  10   86.92   16.02
   5   3  10   14.76   13.20
   6   3  10  279.97   27.22
  -8   4  10   39.46   19.85
  -7   4  10   76.27   22.13
  -6   4  10  337.16   29.28
  -5   4  10  200.74   25.63
  -4   4  10   34.04   14.55
  -3   4  10  282.99   22.89
  -2   4  10 1109.65   41.07
  -1   4  10   12.08   11.91
   0   4  10  164.53   20.27
   1   4  10  393.54   25.87
   2   4  10  263.87   22.31
   3   4  10  256.67   23.02
   4   4  10   21.57   12.68
   5   4  10  257.28   23.47
   6   4  10   21.93   17.12
  -8   5  10   42.58   23.33
  -7   5  10   23.25   20.46
  -6   5  10  348.47   30.94
  -5   5  10  249.62   25.94
  -4   5  10   98.51   19.51
  -3   5  10  741.54   35.10
  -2   5  10  221.50   23.47
  -1   5  10  238.92   22.15
   0   5  10  121.89   19.44
   1   5  10  312.22   24.57
   2   5  10  224.19   21.42
   3   5  10  202.08   21.42
   4   5  10   84.04   16.28
   5   5  10   74.08   17.83
  -8   6  10   21.70   24.43
  -7   6  10   85.17   25.50
  -6   6  10  101.07   24.72
  -5   6  10  230.71   25.68
  -4   6  10  173.63   23.96
  -3   6  10  340.17   26.45
  -2   6  10  453.47   29.36
  -1   6  10  231.46   24.81
   0   6  10  173.13   22.69
   1   6  10  212.39   24.22
   2   6  10  254.72   23.58
   3   6  10  215.22   22.54
   4   6  10  114.82   18.63
   5   6  10   34.18   15.86
  -7   7  10   83.56   27.23
  -6   7  10   70.54   24.19
  -5   7  10    8.00   18.89
  -4   7  10  242.46   25.52
  -3   7  10   49.76   18.54
  -2   7  10  249.06   25.28
  -1   7  10  647.22   35.55
   0   7  10  132.28   21.18
   1   7  10  237.72   25.63
   2   7  10  195.01   23.19
   3   7  10  163.49   23.30
   4   7  10  121.69   19.66
  -6   8  10   74.86   25.11
  -5   8  10  208.90   29.12
  -4   8  10   23.79   18.88
  -3   8  10  119.95   22.30
  -2   8  10  361.02   28.64
  -1   8  10    7.40   15.41
   0   8  10  249.98   26.38
   1   8  10  185.23   23.98
   2   8  10  129.88   21.36
  -5   9  10   20.01   21.88
  -4   9  10   31.24   20.11
  -3   9  10   54.89   21.26
  -2   9  10  195.66   28.24
  -1   9  10  233.56   28.51
   0 -15  11  -24.08   25.02
  -3 -14  11  -28.76   23.20
  -2 -14  11   -2.63   23.82
  -1 -14  11   -6.53   21.89
   0 -14  11  -32.77   19.50
   1 -14  11  -39.36   20.98
   2 -14  11  -12.57   24.18
  -4 -13  11  -24.15   22.63
  -3 -13  11  -29.42   18.81
  -2 -13  11    5.44   20.53
  -1 -13  11  -33.67   17.59
   0 -13  11   -4.33   19.39
   1 -13  11  -41.20   18.18
   2 -13  11   -7.14   22.04
   3 -13  11  -31.17   22.57
  -4  13 -11   31.94   25.40
  -5 -12  11  -11.91   21.91
  -4 -12  11   -4.33   19.93
  -3 -12  11  -12.75   18.24
  -2 -12  11   -7.41   17.14
  -1 -12  11    1.37   17.54
   0 -12  11   -2.07   17.31
   1 -12  11   -6.17   18.11
   2 -12  11   28.03   22.24
   3 -12  11    5.43   21.57
  -4  12 -11   26.28   24.81
  -5  12 -11  -12.73   24.67
  -5 -11  11   37.96   21.17
  -4 -11  11   14.36   18.51
  -3 -11  11  -25.46   14.64
  -2 -11  11   -6.36   16.34
  -1 -11  11    0.31   15.17
   0 -11  11   -3.71   15.78
   1 -11  11  -14.13   16.91
   2 -11  11    4.58   20.34
   3 -11  11   44.23   24.22
  -5  11 -11  -13.96   23.39
  -6 -10  11  -16.46   19.00
  -5 -10  11   29.54   18.87
  -4 -10  11   -8.83   15.67
  -3 -10  11    2.36   14.44
  -2 -10  11    4.03   13.72
  -1 -10  11    0.85   14.43
   0 -10  11   -1.02   14.25
   1 -10  11  -13.14   15.17
   2 -10  11   37.96   20.81
   3 -10  11  119.67   25.58
   4 -10  11   15.68   20.55
  -6  10 -11  -16.02   24.54
  -6  -9  11   24.42   18.70
  -5  -9  11    1.00   16.06
  -4  -9  11   17.33   15.51
  -3  -9  11   44.92   16.77
  -2  -9  11    6.00   14.01
  -1  -9  11   -3.34   12.31
   0  -9  11   -1.05   13.46
   1  -9  11    0.61   14.29
   2  -9  11   -0.71   15.87
   3  -9  11   12.93   18.80
   4  -9  11    7.49   18.11
  -7  -8  11    4.29   18.24
  -6  -8  11    4.90   15.69
  -5  -8  11   -7.82   15.00
  -4  -8  11   99.90   18.77
  -3  -8  11   34.82   15.35
  -2  -8  11   -0.86   12.51
  -1  -8  11   17.17   13.30
   0  -8  11   -2.76   11.48
   1  -8  11   53.96   16.49
   2  -8  11    2.06   14.68
   3  -8  11  -19.21   15.22
  -7  -7  11   -8.89   15.86
  -6  -7  11   -1.01   14.80
  -5  -7  11   -0.53   12.65
  -4  -7  11   17.61   12.76
  -3  -7  11   13.49   12.32
  -2  -7  11    7.02   11.18
  -1  -7  11   -4.87    9.59
   0  -7  11   84.65   16.42
   1  -7  11   40.29   13.60
   2  -7  11   -3.66   11.71
   3  -7  11   -4.56   10.31
   3  -7  11  -16.10   12.72
   4  -7  11   -3.11   11.29
   5  -7  11    5.52   14.68
  -7  -6  11   19.04   16.33
  -6  -6  11    8.72   14.56
  -5  -6  11   64.35   17.69
  -4  -6  11   15.42   12.34
  -3  -6  11   37.29   13.01
  -2  -6  11   -1.53    8.39
  -1  -6  11    4.37    9.35
   0  -6  11   30.72   11.96
   0  -6  11   15.41    9.67
   1  -6  11   41.68   10.99
   1  -6  11   27.74   12.44
   2  -6  11   35.61   14.19
   2  -6  11   11.10    9.44
   3  -6  11   13.56   13.20
   3  -6  11   57.93   13.44
   4  -6  11   61.20   15.11
   5  -6  11    0.26   13.70
  -8  -5  11   40.06   19.87
  -7  -5  11    3.80   15.77
  -6  -5  11   -2.28   13.68
  -5  -5  11   25.69   15.38
  -4  -5  11  -15.81   10.56
  -3  -5  11   32.02   10.98
  -3  -5  11   46.33   13.25
  -2  -5  11   32.62   11.81
  -2  -5  11   15.39    9.09
  -1  -5  11    6.05    8.38
  -1  -5  11   -3.66    7.55
   0  -5  11   22.59   10.55
   0  -5  11   51.13   11.07
   1  -5  11   57.23   13.00
   1  -5  11   64.56   12.76
   2  -5  11   60.04   12.64
   2  -5  11   72.34   13.55
   3  -5  11  128.13   16.59
   4  -5  11  164.51   20.93
   5  -5  11    7.26   14.69
   6  -5  11   -6.85   14.89
  -6  -4  11    5.41   13.85
  -5  -4  11   -6.64   12.29
  -4  -4  11   -1.22    9.96
  -3  -4  11   60.18   12.28
  -3  -4  11   62.56   14.36
  -2  -4  11   44.24   12.23
  -2  -4  11   46.63   11.71
  -1  -4  11   43.13   11.77
  -1  -4  11   36.13   11.32
   0  -4  11  200.10   17.60
   0  -4  11  207.55   17.21
   1  -4  11   12.93    9.07
   1  -4  11   -0.66   10.16
   2  -4  11   -4.83    6.39
   2  -4  11   24.58   11.90
   3  -4  11   57.44   13.12
   4  -4  11   -1.30   11.20
   5  -4  11   14.43   14.41
   6  -4  11   21.83   16.42
   7  -4  11   11.06   16.78
  -8  -3  11   -9.06   16.68
  -7  -3  11    7.66   15.66
  -6  -3  11   -2.63   12.90
  -5  -3  11    9.17   12.62
  -4  -3  11    9.15   11.26
  -3  -3  11  -17.54    8.10
  -2  -3  11   38.53   11.80
  -1  -3  11  265.03   19.50
  -1  -3  11  269.46   19.37
   0  -3  11   16.92    9.75
   0  -3  11   32.34   11.47
   1  -3  11   65.69   13.76
   1  -3  11   45.07   10.82
   2  -3  11   21.78   11.49
   2  -3  11   38.03   11.19
   3  -3  11   -0.52    9.62
   4  -3  11   96.49   17.28
   5  -3  11    3.96   12.21
   6  -3  11   13.13   16.36
   7  -3  11    5.68   16.33
  -9  -2  11   19.53   20.68
  -8  -2  11  -16.70   16.69
  -7  -2  11   -1.15   15.25
  -6  -2  11   -3.29   13.36
  -5  -2  11   -7.50   12.20
  -4  -2  11   19.43   12.13
  -3  -2  11   14.13   11.31
  -2  -2  11    5.99   10.12
  -1  -2  11   71.43   13.61
   0  -2  11   -6.44    8.87
   0  -2  11   -5.95    7.67
   1  -2  11   -1.93    5.82
   1  -2  11    3.79    9.44
   2  -2  11   -4.20    9.83
   3  -2  11    8.14   11.15
   4  -2  11    1.94   11.21
   5  -2  11   17.81   14.37
   6  -2  11   20.17   15.76
   7  -2  11   17.34   16.26
  -9  -1  11   -6.46   19.86
  -8  -1  11    3.98   17.93
  -7  -1  11   11.81   15.75
  -6  -1  11    4.30   14.44
  -5  -1  11   51.27   17.23
  -4  -1  11  285.74   21.23
  -3  -1  11  185.84   17.79
  -2  -1  11   82.59   14.56
  -1  -1  11   -4.50    7.97
   0  -1  11  176.95   18.01
   1  -1  11   13.75   10.01
   1  -1  11   32.88    9.64
   2  -1  11   48.00   13.77
   3  -1  11  150.18   18.33
   4  -1  11   13.29   12.07
   5  -1  11   60.41   16.10
   6  -1  11   59.57   17.26
   7  -1  11   -1.15   15.97
  -9   0  11   -5.03   19.60
  -8   0  11  -13.02   17.22
  -7   0  11   36.10   18.41
  -6   0  11    2.06   15.11
  -5   0  11   29.42   15.58
  -4   0  11  120.48   17.69
  -3   0  11  276.76   21.38
  -2   0  11   -9.93    9.59
  -1   0  11    5.33    9.17
   0   0  11   -5.05    8.60
   1   0  11   41.25   12.73
   2   0  11  193.23   20.39
   3   0  11    2.73   10.78
   4   0  11   54.14   13.94
   5   0  11   10.32   12.47
   6   0  11    6.86   14.51
   7   0  11  -24.40   14.35
  -9   1  11    3.80   19.69
  -8   1  11   21.98   20.16
  -7   1  11    1.79   17.29
  -6   1  11   72.64   20.17
  -5   1  11    7.73   14.88
  -4   1  11   13.00   12.10
  -3   1  11  139.42   17.69
  -2   1  11   -2.07   10.76
  -1   1  11   54.46   13.79
   0   1  11   47.66   13.84
   1   1  11   31.26   12.42
   2   1  11   39.75   12.55
   3   1  11   69.56   15.79
   4   1  11    7.86   10.81
   5   1  11   43.33   15.80
   6   1  11    4.48   14.27
  -8   2  11   15.30   19.34
  -7   2  11   28.08   19.72
  -6   2  11   20.32   16.30
  -5   2  11   25.52   15.82
  -4   2  11   -4.61   11.17
  -3   2  11   -4.28    9.68
  -2   2  11   84.89   16.42
  -1   2  11  542.33   28.70
   0   2  11   68.29   15.76
   1   2  11  186.73   19.93
   2   2  11  116.05   17.73
   3   2  11   89.71   17.09
   4   2  11   33.11   13.58
   5   2  11   39.04   15.20
   6   2  11   17.87   15.24
  -8   3  11   13.34   20.13
  -7   3  11    9.53   18.72
  -6   3  11    5.80   17.89
  -5   3  11  293.82   26.53
  -4   3  11   19.04   13.78
  -3   3  11   87.68   16.31
  -2   3  11  132.62   18.87
  -1   3  11  220.94   21.82
   0   3  11   -5.84   10.22
   1   3  11    4.08   10.41
   2   3  11  228.02   21.83
   3   3  11    8.93   11.82
   4   3  11   -1.78   10.71
   5   3  11   37.46   14.73
   6   3  11   22.71   14.33
  -8   4  11   -9.81   20.38
  -7   4  11  -30.60   16.12
  -6   4  11   -2.65   17.02
  -5   4  11   92.77   20.39
  -4   4  11    5.96   14.49
  -3   4  11   -9.28   10.81
  -2   4  11  289.47   24.12
  -1   4  11   86.96   18.06
   0   4  11   30.15   14.24
   1   4  11    2.51   10.73
   2   4  11    6.80   11.10
   3   4  11   18.49   13.77
   4   4  11    6.58   12.36
   5   4  11   33.79   14.39
  -8   5  11   -1.95   22.98
  -7   5  11  -21.35   18.86
  -6   5  11   -5.51   17.58
  -5   5  11   10.55   16.95
  -4   5  11  -10.37   14.02
  -3   5  11  -13.16   14.01
  -2   5  11    5.76   13.64
  -1   5  11   14.11   13.25
   0   5  11   35.66   15.01
   1   5  11   16.45   13.79
   2   5  11   16.01   12.32
   3   5  11    0.64   12.34
   4   5  11    3.98   12.76
   5   5  11   69.15   19.03
  -7   6  11    2.64   22.64
  -6   6  11   -8.43   17.80
  -5   6  11   -3.98   17.04
  -4   6  11  -13.46   14.81
  -3   6  11    5.25   14.79
  -2   6  11    7.12   15.30
  -1   6  11   38.60   16.63
   0   6  11   31.35   15.33
   1   6  11    1.06   12.89
   2   6  11    5.21   11.24
   3   6  11   -0.19   13.13
   4   6  11   11.16   13.39
  -6   7  11   -8.46   19.58
  -5   7  11    9.46   19.28
  -4   7  11   30.02   19.31
  -3   7  11    0.78   15.13
  -2   7  11    1.11   14.98
  -1   7  11   37.48   17.81
   0   7  11   35.27   16.73
   1   7  11   32.56   15.51
   2   7  11   11.96   12.94
   3   7  11   -7.79   13.18
  -5   8  11   -8.08   19.34
  -4   8  11   -3.48   19.44
  -3   8  11   -8.61   18.09
  -2   8  11   -3.68   16.77
  -1   8  11   72.96   21.35
   0   8  11   -4.03   15.16
   1   8  11   10.97   13.59
   2   8  11   11.59   15.36
  -4   9  11   48.47   22.71
  -3   9  11   22.62   21.93
  -2   9  11   72.94   23.03
  -1   9  11   42.31   19.73
  -2 -14  12   19.94   25.50
  -1 -14  12  -16.48   23.50
   0 -14  12   56.11   27.56
   1 -14  12   32.61   25.49
   2 -14  12   34.10   28.35
  -4 -13  12   17.01   25.06
  -3 -13  12   20.45   22.96
  -2 -13  12  -20.09   19.37
  -1 -13  12   22.11   21.52
   0 -13  12   22.53   22.81
   1 -13  12  -33.08   20.71
   2 -13  12   80.90   27.82
   3 -13  12   42.57   26.00
  -5 -12  12   -3.22   20.73
  -4 -12  12    3.64   20.24
  -3 -12  12   -0.26   19.07
  -2 -12  12  -15.30   15.70
  -1 -12  12   -5.29   18.17
   0 -12  12   79.34   24.34
   1 -12  12   67.27   25.47
   2 -12  12  -13.69   20.62
   3 -12  12   51.90   25.46
  -6 -11  12  -19.64   19.80
  -5 -11  12   10.50   19.06
  -4 -11  12   27.33   18.84
  -3 -11  12    1.62   16.00
  -2 -11  12  -15.73   15.18
  -1 -11  12   40.48   19.03
   0 -11  12   71.96   23.18
   1 -11  12  143.83   26.36
   2 -11  12   87.45   25.67
   3 -11  12   34.40   22.89
   4 -11  12  110.87   28.66
  -6 -10  12    5.86   19.50
  -5 -10  12   75.23   21.91
  -4 -10  12  168.66   26.25
  -3 -10  12  -13.46   14.11
  -2 -10  12   37.47   16.28
  -1 -10  12   92.23   19.79
   0 -10  12  143.28   23.77
   1 -10  12  214.53   28.38
   2 -10  12  166.56   27.20
   3 -10  12   51.20   22.21
   4 -10  12  157.59   28.33
  -6  -9  12    5.63   18.59
  -5  -9  12  190.21   26.43
  -4  -9  12   44.85   17.31
  -3  -9  12  151.84   22.05
  -2  -9  12  133.78   21.59
  -1  -9  12   95.10   18.24
   0  -9  12  207.21   22.76
   1  -9  12  160.80   23.37
   2  -9  12  208.49   25.79
   3  -9  12   63.87   21.84
  -7  -8  12   47.02   20.88
  -6  -8  12    4.58   16.03
  -5  -8  12   -8.01   14.22
  -4  -8  12  214.64   24.12
  -3  -8  12   73.63   17.60
  -2  -8  12   54.13   16.34
  -1  -8  12  299.36   24.67
   0  -8  12  191.69   20.05
   1  -8  12  204.05   23.20
   2  -8  12  167.85   23.86
   3  -8  12   96.74   21.70
  -7  -7  12   55.83   20.68
  -6  -7  12   46.67   18.04
  -5  -7  12   31.48   15.58
  -4  -7  12   71.74   16.37
  -3  -7  12  156.27   19.44
  -2  -7  12  126.64   19.15
  -1  -7  12   86.25   17.49
   0  -7  12  322.74   24.66
   1  -7  12  146.80   19.66
   2  -7  12  467.57   30.00
   3  -7  12    5.94   14.58
   3  -7  12   -5.37   11.27
   4  -7  12   82.56   17.15
   5  -7  12  148.66   22.81
  -8  -6  12   50.95   21.61
  -7  -6  12   55.47   19.09
  -6  -6  12   52.94   17.27
  -5  -6  12   48.75   16.41
  -4  -6  12  136.30   20.39
  -3  -6  12  116.99   17.98
  -2  -6  12  204.16   19.57
  -1  -6  12   15.37   11.25
   0  -6  12  123.84   14.89
   0  -6  12  147.82   17.73
   1  -6  12  147.47   19.35
   1  -6  12  104.24   15.07
   2  -6  12  299.05   19.93
   2  -6  12  251.26   22.41
   3  -6  12    2.48   11.41
   4  -6  12  128.15   20.30
   5  -6  12  139.90   22.77
   6  -6  12   42.29   19.52
  -8  -5  12   20.08   19.59
  -7  -5  12   17.13   17.31
  -6  -5  12   14.74   16.46
  -5  -5  12   82.98   18.57
  -4  -5  12   95.97   18.08
  -3  -5  12  136.04   15.32
  -3  -5  12  172.16   18.34
  -2  -5  12  154.02   18.03
  -2  -5  12  155.91   16.16
  -1  -5  12    1.15    9.80
  -1  -5  12    8.47   10.34
   0  -5  12   54.61   13.36
   0  -5  12   38.32   12.25
   1  -5  12  225.01   18.98
   1  -5  12  211.83   20.13
   2  -5  12  195.13   19.00
   2  -5  12  207.33   19.38
   3  -5  12   61.61   15.19
   4  -5  12  151.51   21.32
   5  -5  12  172.63   24.05
   6  -5  12   95.48   21.46
  -6  -4  12   28.72   15.62
  -5  -4  12  122.98   18.98
  -4  -4  12  311.80   24.19
  -4  -4  12  271.98   21.04
  -3  -4  12   85.75   16.77
  -3  -4  12   96.85   15.05
  -2  -4  12  162.10   17.62
  -2  -4  12  179.43   17.92
  -1  -4  12   29.00   11.89
  -1  -4  12   44.40   12.68
   0  -4  12   41.64   12.47
   0  -4  12   94.36   15.29
   1  -4  12  559.72   28.46
   1  -4  12  560.63   28.21
   2  -4  12   49.58   14.35
   2  -4  12   21.37   10.42
   3  -4  12  464.05   26.32
   4  -4  12  433.46   27.76
   5  -4  12  129.04   22.05
   6  -4  12   91.84   22.44
   7  -4  12   32.79   18.79
  -8  -3  12   90.36   21.98
  -7  -3  12  145.86   23.61
  -6  -3  12   92.45   19.08
  -5  -3  12  291.70   23.51
  -4  -3  12  234.64   20.38
  -3  -3  12  550.00   26.56
  -2  -3  12  135.37   16.34
  -2  -3  12  162.44   18.24
  -1  -3  12   29.74   11.99
  -1  -3  12   41.68   12.78
   0  -3  12  948.72   37.28
   0  -3  12  986.75   36.73
   1  -3  12  120.62   18.00
   1  -3  12  123.64   15.49
   2  -3  12  346.59   23.93
   3  -3  12  307.00   23.38
   4  -3  12  246.80   22.44
   5  -3  12  119.98   21.35
   6  -3  12   80.53   21.27
   7  -3  12   46.88   21.07
  -9  -2  12   49.63   22.30
  -8  -2  12  215.05   28.98
  -7  -2  12  115.15   22.79
  -6  -2  12  185.84   24.44
  -5  -2  12  316.07   24.63
  -4  -2  12  383.64   24.44
  -3  -2  12  316.49   21.96
  -2  -2  12  339.60   22.54
  -1  -2  12  189.07   19.89
   0  -2  12  374.15   22.57
   0  -2  12  352.17   23.52
   1  -2  12  244.82   17.86
   2  -2  12  344.98   24.48
   3  -2  12  153.74   19.76
   4  -2  12  206.01   21.73
   5  -2  12  164.77   23.24
   6  -2  12   40.99   18.38
  -8  -1  12  104.89   24.49
  -7  -1  12  218.44   27.68
  -6  -1  12  205.60   25.25
  -5  -1  12  136.25   21.01
  -4  -1  12  207.52   20.67
  -3  -1  12  165.39   19.90
  -2  -1  12  154.59   18.77
  -1  -1  12  237.49   21.92
   0  -1  12    9.02   11.96
   1  -1  12 1512.25   49.11
   2  -1  12  414.77   26.60
   3  -1  12  182.71   20.24
   4  -1  12  366.16   25.67
   5  -1  12  112.69   20.17
   6  -1  12  122.56   22.79
  -8   0  12   20.47   20.50
  -7   0  12   44.84   20.67
  -6   0  12  208.08   27.53
  -5   0  12  109.45   20.52
  -4   0  12   44.98   15.00
  -3   0  12  384.28   25.25
  -2   0  12  183.50   19.95
  -1   0  12   21.01   12.49
   0   0  12   48.94   14.48
   1   0  12  268.36   22.76
   2   0  12  521.72   29.59
   3   0  12   82.27   16.97
   4   0  12  300.78   24.21
   5   0  12  155.71   21.64
   6   0  12  179.35   25.79
  -8   1  12   36.54   21.01
  -7   1  12  237.49   30.03
  -6   1  12  -15.74   16.62
  -5   1  12  150.08   22.61
  -4   1  12   82.77   17.75
  -3   1  12  195.26   20.25
  -2   1  12  641.21   31.70
  -1   1  12   -3.22   11.07
   0   1  12  425.34   26.58
   1   1  12   92.35   16.47
   2   1  12  294.38   23.96
   3   1  12   83.50   17.38
   4   1  12   70.69   16.56
   5   1  12  135.37   21.21
   6   1  12  177.01   25.17
  -8   2  12   24.03   23.25
  -7   2  12   87.31   24.73
  -6   2  12  320.62   31.20
  -5   2  12  -19.73   12.82
  -4   2  12   94.08   18.36
  -3   2  12  533.17   29.48
  -2   2  12   -0.08   11.32
  -1   2  12  265.25   22.95
   0   2  12  236.57   22.23
   1   2  12  332.22   25.04
   2   2  12  398.43   27.38
   3   2  12  139.60   21.19
   4   2  12  204.91   21.73
   5   2  12   30.49   14.12
  -8   3  12   -3.70   22.47
  -7   3  12  147.03   29.24
  -6   3  12  173.09   28.05
  -5   3  12   54.76   18.91
  -4   3  12  156.53   21.79
  -3   3  12  415.26   27.07
  -2   3  12  205.38   22.32
  -1   3  12  204.28   22.81
   0   3  12  495.38   29.67
   1   3  12  223.64   22.85
   2   3  12  506.74   30.81
   3   3  12  123.50   20.16
   4   3  12   74.08   16.60
   5   3  12   18.13   13.58
  -7   4  12   83.34   26.27
  -6   4  12   99.46   23.54
  -5   4  12  185.72   25.73
  -4   4  12  378.24   28.76
  -3   4  12  276.95   25.02
  -2   4  12  672.63   34.95
  -1   4  12  156.00   22.21
   0   4  12  207.27   24.05
   1   4  12   66.00   17.15
   2   4  12  202.79   23.84
   3   4  12   98.15   18.84
   4   4  12   44.52   16.47
   5   4  12   51.58   17.46
  -7   5  12   13.57   23.05
  -6   5  12   38.39   21.46
  -5   5  12  191.52   26.78
  -4   5  12  105.98   21.64
  -3   5  12  235.10   24.74
  -2   5  12  359.60   27.86
  -1   5  12   51.32   18.13
   0   5  12  178.15   24.17
   1   5  12    3.54   13.54
   2   5  12  114.93   20.78
   3   5  12  183.87   24.43
   4   5  12   89.93   20.33
  -6   6  12   88.90   26.31
  -5   6  12   48.38   22.25
  -4   6  12  172.88   25.90
  -3   6  12  184.77   25.82
  -2   6  12  108.55   21.94
  -1   6  12  226.27   26.94
   0   6  12   68.56   19.65
   1   6  12   80.13   20.27
   2   6  12  220.75   25.65
   3   6  12  326.29   29.15
  -5   7  12  132.10   26.90
  -4   7  12  146.86   26.61
  -3   7  12  230.15   29.59
  -2   7  12  170.51   27.15
  -1   7  12   54.62   20.42
   0   7  12  117.95   23.71
   1   7  12   92.81   21.32
   2   7  12  167.89   25.25
  -4   8  12   57.12   23.59
  -3   8  12   82.36   24.01
  -2   8  12   90.96   24.14
  -1   8  12   31.36   19.86
   0   8  12   43.72   19.37
   1   8  12  191.94   26.84
  -1 -14  13  -10.04   22.60
   0 -14  13  -19.95   23.07
   1 -14  13   -6.44   24.55
  -3 -13  13  -18.26   21.27
  -2 -13  13   -2.60   21.32
  -1 -13  13  -15.84   19.72
   0 -13  13   -5.19   20.94
   1 -13  13    8.06   23.64
   2 -13  13  -31.01   22.16
   3 -13  13  -31.72   25.66
  -4 -12  13  -13.99   18.54
  -3 -12  13  -27.49   18.16
  -2 -12  13  -23.05   17.57
  -1 -12  13  -19.35   16.61
   0 -12  13   -5.34   19.96
   1 -12  13    1.53   20.93
   2 -12  13   88.83   28.37
   3 -12  13  -28.78   22.82
   4 -12  13  -24.11   23.63
  -5 -11  13  -15.22   19.35
  -4 -11  13  -14.30   17.70
  -3 -11  13   19.51   17.60
  -2 -11  13    0.84   16.17
  -1 -11  13   -6.50   17.06
   0 -11  13   15.99   19.86
   1 -11  13    2.22   20.29
   2 -11  13  -29.29   20.06
   3 -11  13   -9.34   21.66
   4 -11  13  -18.38   21.63
  -6 -10  13  -11.17   19.12
  -5 -10  13   39.55   19.36
  -4 -10  13    6.11   16.90
  -3 -10  13   -0.94   16.45
  -2 -10  13   24.35   16.93
  -1 -10  13    8.83   15.68
   0 -10  13   30.19   19.07
   1 -10  13   16.43   19.40
   2 -10  13  -35.08   17.72
   3 -10  13  -16.98   20.02
  -7  -9  13   14.19   20.80
  -6  -9  13   -0.72   17.48
  -5  -9  13   17.99   17.67
  -4  -9  13   -4.42   15.52
  -3  -9  13   19.30   16.18
  -2  -9  13   -2.32   14.80
  -1  -9  13    5.80   14.52
   0  -9  13   10.00   15.55
   1  -9  13   -2.30   16.91
   2  -9  13   -6.86   16.75
   3  -9  13  -29.92   17.81
  -7  -8  13    2.96   19.29
  -6  -8  13   19.05   17.78
  -5  -8  13   17.40   15.84
  -4  -8  13    7.62   14.88
  -3  -8  13   47.95   17.17
  -2  -8  13  -18.31   11.19
  -1  -8  13   86.84   18.93
   0  -8  13    6.36   12.99
   1  -8  13   -6.76   13.71
   2  -8  13  -20.15   14.99
   3  -8  13    2.72   16.73
  -7  -7  13   -4.05   17.28
  -6  -7  13   -8.73   14.45
  -5  -7  13   -7.81   13.31
  -4  -7  13   26.91   13.74
  -3  -7  13    7.36   12.15
  -2  -7  13  -11.34   11.10
  -1  -7  13   10.90   13.09
   0  -7  13   15.10   13.52
   1  -7  13    0.69   12.90
   2  -7  13   35.61   16.42
   4  -7  13    7.97   14.49
   5  -7  13   19.23   15.72
  -8  -6  13   11.12   19.18
  -7  -6  13   26.04   17.85
  -6  -6  13    6.07   14.86
  -5  -6  13    1.62   12.73
  -4  -6  13   -2.54   12.17
  -3  -6  13    5.81   11.85
  -2  -6  13    2.32   10.57
  -1  -6  13   24.22   14.02
   0  -6  13   -3.99   11.23
   0  -6  13   11.24   10.26
   1  -6  13   48.13   15.53
   1  -6  13   55.09   13.36
   2  -6  13  355.41   22.78
   2  -6  13  296.35   24.43
   3  -6  13   41.60   14.84
   4  -6  13   21.50   15.71
   5  -6  13   12.78   16.76
   6  -6  13   -4.97   16.95
  -8  -5  13   12.59   20.22
  -7  -5  13   14.04   18.30
  -6  -5  13  -14.56   14.80
  -5  -5  13   -1.86   13.34
  -4  -5  13   -8.04   11.48
  -3  -5  13   -3.53   10.24
  -3  -5  13    5.25   11.26
  -2  -5  13   60.37   13.87
  -2  -5  13   61.62   15.70
  -1  -5  13   95.88   16.71
  -1  -5  13  100.78   15.46
   0  -5  13   -5.42   10.02
   0  -5  13   16.98   11.92
   1  -5  13   -0.94   10.63
   1  -5  13   18.19   11.75
   2  -5  13  219.61   20.67
   3  -5  13  -13.56   11.68
   4  -5  13    0.26   13.70
   5  -5  13   37.56   17.24
   6  -5  13    5.08   17.55
  -5  -4  13  -12.84   12.70
  -4  -4  13   21.00   14.16
  -4  -4  13   23.47   13.03
  -3  -4  13    4.81   11.95
  -3  -4  13   -7.30   11.36
  -2  -4  13   11.73   12.18
  -2  -4  13   -7.28   11.44
  -1  -4  13    6.42   11.81
  -1  -4  13    1.91   10.56
   0  -4  13   63.19   14.13
   0  -4  13   52.90   14.44
   1  -4  13  226.72   20.62
   1  -4  13  230.16   20.97
   2  -4  13    6.92   12.47
   3  -4  13    9.40   11.80
   4  -4  13   32.89   15.70
   5  -4  13    8.78   16.23
   6  -4  13    0.55   17.23
  -8  -3  13  -21.29   19.12
  -7  -3  13  -11.89   17.31
  -6  -3  13  -17.77   15.63
  -5  -3  13  -22.33   11.66
  -4  -3  13   36.64   13.97
  -3  -3  13   17.75   13.39
  -2  -3  13   -8.31   10.06
  -2  -3  13    4.03   11.56
  -1  -3  13   25.12   12.38
  -1  -3  13   38.15   13.09
   0  -3  13   64.50   15.45
   0  -3  13   79.27   15.19
   1  -3  13  141.50   19.20
   1  -3  13  126.97   16.29
   2  -3  13   94.48   17.93
   3  -3  13    2.43   12.63
   4  -3  13    0.65   13.19
   5  -3  13   14.29   15.58
   6  -3  13    3.25   17.69
  -8  -2  13   -7.37   21.33
  -7  -2  13    3.94   18.55
  -6  -2  13   13.97   18.27
  -5  -2  13  -16.13   12.80
  -4  -2  13   83.44   17.24
  -3  -2  13   55.71   15.50
  -2  -2  13    1.26   11.49
  -1  -2  13   13.84   11.50
  -1  -2  13   19.81   13.39
   0  -2  13  227.21   19.38
   0  -2  13  217.79   21.85
   1  -2  13  382.87   26.20
   2  -2  13   83.12   17.18
   3  -2  13   47.40   16.17
   4  -2  13   -2.93   11.65
   5  -2  13   28.05   16.13
   6  -2  13   16.36   17.99
  -8  -1  13   30.66   23.70
  -7  -1  13  -15.04   20.46
  -6  -1  13   13.97   18.39
  -5  -1  13   11.08   15.10
  -4  -1  13   14.77   14.07
  -3  -1  13  -13.21   10.31
  -2  -1  13   10.74   12.69
  -1  -1  13   66.33   15.84
   0  -1  13   13.38   11.73
   0  -1  13   43.31   14.34
   1  -1  13   30.34   13.32
   2  -1  13    8.20   12.21
   3  -1  13    7.51   11.82
   4  -1  13    3.28   11.63
   5  -1  13    2.99   12.24
   6  -1  13   -4.58   15.38
  -8   0  13   10.98   20.99
  -7   0  13  -19.39   20.69
  -6   0  13   -9.88   17.15
  -5   0  13  -11.43   14.28
  -4   0  13   34.74   14.80
  -3   0  13   26.94   13.84
  -2   0  13   42.99   14.96
  -1   0  13  125.85   19.28
   0   0  13   25.67   13.19
   1   0  13   76.37   15.80
   2   0  13  126.73   19.88
   3   0  13   18.00   13.69
   4   0  13    4.40   12.41
   5   0  13   24.57   14.17
  -8   1  13   -4.15   22.03
  -7   1  13  -33.97   19.79
  -6   1  13  243.38   27.00
  -5   1  13   -1.56   15.93
  -4   1  13    4.23   13.63
  -3   1  13   24.27   14.15
  -2   1  13  213.58   23.31
  -1   1  13    7.32   12.32
   0   1  13    7.67   11.46
   1   1  13  178.89   22.03
   2   1  13   50.26   15.43
   3   1  13   59.29   17.29
   4   1  13    9.33   12.32
   5   1  13   12.38   14.41
  -8   2  13   -5.12   25.48
  -7   2  13  -10.47   21.38
  -6   2  13   10.80   19.04
  -5   2  13  226.20   27.57
  -4   2  13   -9.32   13.29
  -3   2  13   13.80   13.74
  -2   2  13  241.33   23.49
  -1   2  13   -2.59   11.83
   0   2  13   -3.31   11.11
   1   2  13   -3.35   11.74
   2   2  13   74.48   17.97
   3   2  13    9.81   14.03
   4   2  13    2.11   12.87
   5   2  13   31.10   15.45
  -7   3  13    0.56   22.57
  -6   3  13   -8.46   18.64
  -5   3  13   12.90   18.11
  -4   3  13  -11.71   13.66
  -3   3  13   -7.83   13.59
  -2   3  13   17.23   14.38
  -1   3  13  -14.64   11.14
   0   3  13   84.67   18.54
   1   3  13  -12.04   12.16
   2   3  13   -3.20   11.48
   3   3  13   83.91   18.69
   4   3  13    6.56   13.21
  -7   4  13  -20.76   22.46
  -6   4  13   -6.96   19.07
  -5   4  13  -14.54   15.45
  -4   4  13   -7.35   15.25
  -3   4  13   19.36   16.80
  -2   4  13   -6.94   13.26
  -1   4  13  -17.35   12.10
   0   4  13   28.30   15.56
   1   4  13  -13.29   11.77
   2   4  13   30.61   14.27
   3   4  13    1.43   14.51
   4   4  13   27.40   14.64
  -6   5  13   12.96   23.35
  -5   5  13   -8.00   17.72
  -4   5  13  -26.44   15.22
  -3   5  13   -2.43   16.61
  -2   5  13   -6.36   14.68
  -1   5  13  -13.92   13.42
   0   5  13    7.94   15.72
   1   5  13   14.86   14.88
   2   5  13   17.38   14.06
   3   5  13  -21.71   12.85
  -5   6  13  -14.16   21.83
  -4   6  13  -10.27   17.14
  -3   6  13   -3.99   17.99
  -2   6  13    3.79   17.48
  -1   6  13  -11.52   15.03
   0   6  13   32.58   17.99
   1   6  13   46.40   18.20
   2   6  13   27.25   16.58
  -4   7  13   29.57   21.78
  -3   7  13  -10.70   16.17
  -2   7  13   -2.15   16.98
  -1   7  13   27.63   19.50
   0   7  13    4.71   16.24
   1   7  13    8.59   15.61
  -2 -13  14   -0.57   21.81
  -1 -13  14   29.63   24.87
   0 -13  14  -19.73   23.04
   1 -13  14  -27.81   23.49
   2 -13  14  -17.10   25.12
  -4 -12  14   26.64   20.23
  -3 -12  14   -0.84   19.99
  -2 -12  14   17.47   20.99
  -1 -12  14   21.06   20.39
   0 -12  14   30.47   23.97
   1 -12  14  107.10   28.47
   2 -12  14  -22.18   22.28
   3 -12  14  130.79   31.89
  -5 -11  14   22.22   23.08
  -4 -11  14   14.42   19.52
  -3 -11  14   35.24   20.09
  -2 -11  14   46.37   19.61
  -1 -11  14   27.89   20.59
   0 -11  14    8.30   19.68
   1 -11  14   72.33   24.28
   2 -11  14  100.33   27.12
   3 -11  14   -2.27   23.94
  -6 -10  14    5.58   21.15
  -5 -10  14   60.18   21.77
  -4 -10  14   10.28   17.65
  -3 -10  14   30.43   19.17
  -2 -10  14   66.39   20.67
  -1 -10  14   59.63   19.23
   0 -10  14   36.61   20.07
   1 -10  14  123.99   25.81
   2 -10  14   63.38   23.59
   3 -10  14   58.12   25.51
  -6  -9  14   -0.81   17.59
  -5  -9  14   32.20   19.32
  -4  -9  14   12.10   17.65
  -3  -9  14   44.97   19.20
  -2  -9  14   43.52   17.71
  -1  -9  14  128.13   23.30
   0  -9  14   77.93   20.29
   1  -9  14  251.83   27.26
   2  -9  14   80.27   22.27
  -7  -8  14    9.32   20.27
  -6  -8  14   15.55   17.87
  -5  -8  14    7.04   15.52
  -4  -8  14   58.10   19.68
  -3  -8  14   49.95   18.01
  -2  -8  14   67.39   19.66
  -1  -8  14  151.31   23.18
   0  -8  14   85.02   19.76
   1  -8  14  199.31   23.56
   2  -8  14   14.51   17.12
  -7  -7  14    9.41   19.26
  -6  -7  14    4.30   16.20
  -5  -7  14   42.85   18.10
  -4  -7  14   12.21   13.96
  -3  -7  14  124.04   21.52
  -2  -7  14  121.85   21.64
  -1  -7  14   25.42   16.17
   0  -7  14  322.36   26.42
   1  -7  14  166.52   21.56
   2  -7  14    1.63   15.50
   4  -7  14   66.42   18.71
   5  -7  14   22.21   17.74
  -7  -6  14   35.07   19.18
  -6  -6  14   12.18   16.41
  -5  -6  14   23.39   16.20
  -4  -6  14   45.83   17.08
  -3  -6  14  100.21   19.57
  -2  -6  14   36.40   15.44
  -1  -6  14  201.80   22.45
   0  -6  14  200.12   21.99
   1  -6  14  103.36   18.76
   1  -6  14  105.10   17.34
   2  -6  14  150.79   19.22
   3  -6  14  120.94   18.86
   4  -6  14   26.78   16.72
   5  -6  14   33.44   20.20
  -7  -5  14    5.47   18.24
  -6  -5  14   38.26   19.27
  -5  -5  14   46.36   18.24
  -4  -5  14  116.98   20.90
  -3  -5  14   66.12   17.37
  -2  -5  14  110.59   19.74
  -2  -5  14  106.14   16.89
  -1  -5  14  221.26   20.31
  -1  -5  14  189.36   20.98
   0  -5  14  412.50   25.93
   0  -5  14  362.66   26.40
   1  -5  14   47.79   14.92
   1  -5  14   21.55   14.29
   2  -5  14  175.29   21.68
   3  -5  14  130.67   19.85
   4  -5  14   44.90   17.47
   5  -5  14   82.13   21.70
  -8  -4  14   38.45   21.84
  -5  -4  14   21.71   16.09
  -5  -4  14   10.96   15.00
  -4  -4  14  178.26   19.86
  -4  -4  14  185.94   22.29
  -3  -4  14   80.36   18.93
  -3  -4  14  101.58   18.20
  -2  -4  14  298.81   24.51
  -2  -4  14  315.23   24.59
  -1  -4  14  321.86   23.92
  -1  -4  14  334.38   24.96
   0  -4  14  148.99   20.30
   0  -4  14  140.12   19.54
   1  -4  14  589.58   30.97
   1  -4  14  504.05   29.70
   2  -4  14    2.32   12.58
   3  -4  14   94.29   18.57
   4  -4  14   65.75   18.18
   5  -4  14   49.24   19.70
  -7  -3  14   41.39   22.76
  -6  -3  14   13.09   17.10
  -5  -3  14   43.59   17.89
  -4  -3  14   65.64   18.08
  -3  -3  14  537.70   28.92
  -2  -3  14  170.08   21.68
  -2  -3  14  161.77   19.79
  -1  -3  14  253.55   23.10
  -1  -3  14  279.95   22.82
   0  -3  14  708.89   34.10
   0  -3  14  738.36   34.89
   1  -3  14  211.50   22.33
   2  -3  14  119.27   19.58
   3  -3  14  146.67   21.79
   4  -3  14   37.92   17.10
   5  -3  14   70.72   19.41
  -8  -2  14   19.85   24.84
  -7  -2  14   14.29   22.49
  -6  -2  14  127.97   23.33
  -5  -2  14   80.15   20.52
  -4  -2  14   73.90   18.24
  -3  -2  14  450.32   27.74
  -2  -2  14  273.45   23.63
  -1  -2  14   48.28   15.56
  -1  -2  14   58.35   15.91
   0  -2  14  221.04   20.32
   0  -2  14  236.48   23.26
   1  -2  14  760.52   36.12
   2  -2  14   83.25   18.01
   3  -2  14  202.05   24.63
   4  -2  14  179.81   23.64
   5  -2  14  138.87   24.11
  -8  -1  14   62.23   28.84
  -7  -1  14   18.74   23.31
  -6  -1  14  149.89   24.97
  -5  -1  14   87.71   20.56
  -4  -1  14  196.30   23.54
  -3  -1  14  284.46   24.19
  -2  -1  14   66.62   17.49
  -1  -1  14  185.34   22.23
   0  -1  14    7.21   12.02
   0  -1  14    3.66   12.78
   1  -1  14  167.77   22.62
   2  -1  14  151.46   21.85
   3  -1  14   94.27   19.40
   4  -1  14   60.63   16.69
   5  -1  14  172.84   25.22
  -7   0  14  128.47   28.07
  -6   0  14   29.31   20.30
  -5   0  14   52.24   19.67
  -4   0  14   41.41   17.09
  -3   0  14  107.63   20.16
  -2   0  14    2.04   13.16
  -1   0  14  158.61   21.87
   0   0  14   62.55   17.01
   1   0  14  212.11   22.49
   2   0  14  107.23   20.47
   3   0  14  101.58   20.63
   4   0  14   30.31   14.14
   5   0  14  127.70   22.80
  -7   1  14  141.34   27.67
  -6   1  14  -17.84   17.94
  -5   1  14  150.02   24.54
  -4   1  14    9.18   15.53
  -3   1  14   22.08   15.80
  -2   1  14   85.29   18.77
  -1   1  14  237.82   23.17
   0   1  14  223.02   25.24
   1   1  14  385.57   28.40
   2   1  14  450.33   30.43
   3   1  14  200.24   24.73
   4   1  14   46.18   15.88
  -7   2  14   77.20   27.04
  -6   2  14   79.20   24.41
  -5   2  14   28.46   19.62
  -4   2  14   78.40   20.51
  -3   2  14  227.01   26.33
  -2   2  14   77.23   19.70
  -1   2  14  467.50   30.55
   0   2  14  352.17   27.86
   1   2  14  336.95   27.75
   2   2  14  192.96   24.26
   3   2  14  185.59   25.41
   4   2  14   54.37   17.52
  -7   3  14   68.47   27.00
  -6   3  14   24.21   23.07
  -5   3  14   44.38   21.00
  -4   3  14  161.60   25.00
  -3   3  14  175.99   25.12
  -2   3  14  326.06   27.96
  -1   3  14  255.24   24.68
   0   3  14  201.63   25.68
   1   3  14  138.70   22.54
   2   3  14  242.06   27.19
   3   3  14   98.64   21.71
  -6   4  14   35.81   23.78
  -5   4  14   55.26   22.69
  -4   4  14   68.61   21.53
  -3   4  14  109.70   22.94
  -2   4  14  105.31   21.25
  -1   4  14  226.70   26.90
   0   4  14  189.80   26.24
   1   4  14   74.95   19.61
   2   4  14  307.88   27.93
   3   4  14  124.16   22.96
  -5   5  14   56.87   23.86
  -4   5  14   76.97   23.20
  -3   5  14  112.42   25.09
  -2   5  14  115.29   22.26
  -1   5  14  117.48   23.89
   0   5  14  147.34   24.57
   1   5  14  269.50   28.16
   2   5  14  168.17   24.95
  -4   6  14  132.44   27.39
  -3   6  14  101.39   25.26
  -2   6  14   14.47   18.08
  -1   6  14  267.79   28.31
   0   6  14   82.86   22.46
   1   6  14  233.06   30.10
  -1 -13  15    2.15   23.52
   0 -13  15  -39.15   22.60
  -3 -12  15   -5.44   19.88
  -2 -12  15  -15.10   20.56
  -1 -12  15  -33.87   20.39
   0 -12  15  -12.43   21.89
   1 -12  15    2.51   23.28
   2 -12  15  -54.52   23.45
  -4 -11  15   -9.26   20.25
  -3 -11  15    0.71   19.37
  -2 -11  15  -17.21   17.17
  -1 -11  15  -25.58   18.50
   0 -11  15   -7.97   19.96
   1 -11  15  -18.60   20.45
   2 -11  15  -46.27   22.21
   3 -11  15  -16.08   23.37
  -5 -10  15    3.59   19.19
  -4 -10  15   16.55   20.05
  -3 -10  15   -0.63   17.91
  -2 -10  15    0.32   17.13
  -1 -10  15   -7.33   17.08
   0 -10  15   22.74   18.92
   1 -10  15   -0.74   19.21
   2 -10  15    7.99   21.90
  -6  -9  15   22.06   20.05
  -5  -9  15   16.51   18.83
  -4  -9  15    1.41   17.41
  -3  -9  15    6.18   16.75
  -2  -9  15   29.17   18.97
  -1  -9  15   -3.43   16.09
   0  -9  15  -14.16   15.27
   1  -9  15   12.92   19.11
   2  -9  15   47.03   22.99
  -6  -8  15   14.32   18.29
  -5  -8  15    8.44   17.60
  -4  -8  15   19.78   17.79
  -3  -8  15   22.28   16.94
  -2  -8  15   76.36   21.26
  -1  -8  15   -4.90   15.95
   0  -8  15   10.13   15.64
   1  -8  15   -1.91   15.53
   2  -8  15   91.76   22.54
  -6  -7  15  -15.27   15.58
  -5  -7  15   -7.38   15.31
  -4  -7  15   40.51   17.59
  -3  -7  15   14.50   14.67
  -2  -7  15  136.04   23.64
  -1  -7  15  -10.03   13.90
   0  -7  15    8.96   15.63
   1  -7  15   14.79   15.29
  -7  -6  15   21.05   18.60
  -6  -6  15    6.92   17.59
  -5  -6  15    7.73   15.67
  -4  -6  15  -11.99   14.02
  -3  -6  15   21.30   16.36
  -2  -6  15   13.41   14.25
  -1  -6  15   -8.47   14.30
   0  -6  15    7.61   13.70
   1  -6  15   -5.52   13.33
   1  -6  15    7.19   13.40
   2  -6  15    1.95   12.43
   3  -6  15   47.36   15.94
   4  -6  15   25.68   17.03
   5  -6  15   37.01   18.67
  -7  -5  15    3.06   18.99
  -6  -5  15   -2.96   17.30
  -5  -5  15    0.59   16.23
  -4  -5  15   12.80   14.72
  -3  -5  15   12.58   15.78
  -2  -5  15    5.71   14.36
  -2  -5  15   10.05   13.51
  -1  -5  15   -6.82   12.81
  -1  -5  15   -8.01   12.08
   0  -5  15  -10.29   12.25
   0  -5  15    9.79   13.81
   1  -5  15   -5.81   12.39
   1  -5  15    9.26   13.45
   2  -5  15   48.26   17.19
   3  -5  15   20.53   14.24
   4  -5  15   26.96   16.87
   5  -5  15   33.76   20.56
  -7  -4  15   16.73   19.62
  -6  -4  15   10.83   18.05
  -5  -4  15   20.36   17.33
  -4  -4  15   15.82   17.12
  -4  -4  15   36.54   15.94
  -3  -4  15   -2.00   14.31
  -3  -4  15    1.85   14.52
  -2  -4  15    0.29   13.48
  -2  -4  15    1.13   13.77
  -1  -4  15    4.10   13.19
  -1  -4  15   14.68   13.68
   0  -4  15   38.15   14.40
   0  -4  15   41.72   17.17
   1  -4  15  109.45   19.96
   2  -4  15   21.19   15.88
   3  -4  15    8.60   13.67
   4  -4  15   16.79   15.48
   5  -4  15   10.98   17.84
  -7  -3  15   -8.77   19.40
  -6  -3  15   -3.47   18.60
  -5  -3  15   29.84   16.60
  -4  -3  15   -4.34   14.23
  -3  -3  15   49.85   17.71
  -3  -3  15   26.29   15.55
  -2  -3  15   80.43   19.37
  -2  -3  15   69.98   17.88
  -1  -3  15   33.55   14.89
  -1  -3  15    0.17   13.56
   0  -3  15   77.54   16.85
   0  -3  15   94.15   19.98
   1  -3  15   60.63   17.91
   2  -3  15    1.58   14.05
   3  -3  15    0.07   13.89
   4  -3  15    8.19   15.96
   5  -3  15   29.58   18.07
  -7  -2  15  -13.37   20.94
  -6  -2  15  -14.93   19.33
  -5  -2  15    2.32   16.46
  -4  -2  15   18.37   16.56
  -3  -2  15   40.90   18.22
  -2  -2  15   48.94   17.53
  -1  -2  15   12.55   15.56
  -1  -2  15   35.44   15.63
   0  -2  15   67.18   15.84
   0  -2  15   41.38   17.07
   1  -2  15    8.69   13.61
   2  -2  15   49.46   17.53
   3  -2  15    5.33   14.43
   4  -2  15    0.67   13.60
   5  -2  15  -11.19   15.98
  -7  -1  15   36.18   23.55
  -6  -1  15  -13.45   18.89
  -5  -1  15   -2.27   16.85
  -4  -1  15   30.50   18.43
  -3  -1  15   17.05   16.81
  -2  -1  15   61.78   19.49
  -1  -1  15   28.47   16.84
   0  -1  15   43.88   17.70
   1  -1  15   14.83   15.59
   2  -1  15   66.20   18.73
   3  -1  15    6.93   14.72
   4  -1  15    0.00   12.95
  -7   0  15  -25.22   20.66
  -6   0  15   39.18   23.07
  -5   0  15  -25.03   17.70
  -4   0  15  -12.44   15.47
  -3   0  15   57.73   19.54
  -2   0  15  148.49   23.18
  -1   0  15    8.38   14.67
   0   0  15   21.42   15.61
   1   0  15    9.83   15.15
   2   0  15   52.03   17.46
   3   0  15    8.79   14.20
   4   0  15    3.81   12.85
  -7   1  15  -25.08   20.27
  -6   1  15   -6.10   19.69
  -5   1  15  -19.96   17.61
  -4   1  15   -5.38   16.52
  -3   1  15   35.27   18.68
  -2   1  15  107.93   21.49
  -1   1  15   -1.56   13.65
   0   1  15   -4.88   14.29
   1   1  15   -9.61   12.94
   2   1  15   92.45   20.36
   3   1  15   -4.68   14.10
   4   1  15   24.10   15.05
  -6   2  15   -3.90   21.23
  -5   2  15  -24.51   18.44
  -4   2  15   13.86   18.55
  -3   2  15    8.09   17.23
  -2   2  15  143.67   23.03
  -1   2  15  -14.34   13.05
   0   2  15   71.97   19.51
   1   2  15    4.36   12.99
   2   2  15    5.57   14.17
   3   2  15   12.98   15.51
  -6   3  15   -8.65   21.98
  -5   3  15   -7.75   20.31
  -4   3  15    1.02   17.96
  -3   3  15  -20.96   14.91
  -2   3  15   49.14   17.07
  -1   3  15   29.95   16.85
   0   3  15    5.70   14.91
   1   3  15    2.34   14.35
   2   3  15   58.01   19.54
  -5   4  15   -3.20   21.24
  -4   4  15  -18.89   18.24
  -3   4  15    1.78   16.84
  -2   4  15   -0.06   15.32
  -1   4  15   -6.23   14.54
   0   4  15   56.48   19.34
   1   4  15   44.50   18.89
  -4   5  15   -6.20   19.64
  -3   5  15  -14.15   17.76
  -2   5  15  -21.00   15.99
  -1   5  15   23.58   18.45
   0   5  15   12.84   17.01
  -2 -12  16   26.71   23.13
  -1 -12  16  -21.69   21.22
   0 -12  16  -11.70   23.44
  -3 -11  16   26.06   22.97
  -2 -11  16   74.32   24.00
  -1 -11  16  -11.83   20.37
   0 -11  16   53.39   24.85
   1 -11  16   35.38   26.45
   2 -11  16   30.84   26.56
  -4 -10  16   26.78   21.89
  -3 -10  16   62.16   23.30
  -2 -10  16   66.49   23.46
  -1 -10  16    1.47   18.67
   0 -10  16   54.21   22.71
   1 -10  16   32.92   22.43
   2 -10  16    2.01   23.34
  -5  -9  16    7.72   21.96
  -4  -9  16  118.07   26.48
  -3  -9  16   19.58   19.61
  -2  -9  16    2.33   17.79
  -1  -9  16   47.05   21.22
   0  -9  16  -15.45   15.46
   1  -9  16    8.74   20.09
   2  -9  16  -15.90   20.88
  -5  -8  16   30.61   20.56
  -4  -8  16   53.61   21.15
  -3  -8  16   37.16   19.78
  -2  -8  16   23.60   18.06
  -1  -8  16   34.85   19.51
   0  -8  16   30.22   17.76
   1  -8  16    0.39   16.41
  -6  -7  16    5.94   19.52
  -5  -7  16   26.43   18.74
  -4  -7  16   55.64   19.67
  -3  -7  16    6.48   16.99
  -2  -7  16   51.58   19.74
  -1  -7  16   31.91   18.76
   0  -7  16   48.63   19.19
   1  -7  16  110.89   21.63
  -6  -6  16   48.96   22.13
  -5  -6  16   35.44   19.49
  -4  -6  16   62.32   21.04
  -3  -6  16   47.94   19.31
  -2  -6  16   46.21   17.92
  -1  -6  16  167.66   24.64
   0  -6  16   50.22   17.34
   1  -6  16   75.07   19.80
   2  -6  16  103.95   19.70
   3  -6  16  114.48   21.31
   4  -6  16   25.28   19.06
  -6  -5  16   40.95   22.10
  -5  -5  16    7.00   17.90
  -4  -5  16  170.58   25.65
  -3  -5  16  112.07   22.47
  -2  -5  16  114.20   22.35
  -1  -5  16  258.37   24.75
  -1  -5  16  268.09   25.22
   0  -5  16  128.54   22.58
   0  -5  16  218.00   24.49
   1  -5  16   63.86   18.08
   2  -5  16   58.40   19.19
   3  -5  16   50.40   17.98
   4  -5  16   33.38   18.65
  -6  -4  16   32.94   21.94
  -5  -4  16   32.88   19.27
  -4  -4  16  175.12   26.41
  -4  -4  16  116.25   22.32
  -3  -4  16  254.37   26.53
  -3  -4  16  301.08   27.27
  -2  -4  16  126.09   22.65
  -2  -4  16  169.89   23.87
  -1  -4  16  154.19   22.13
  -1  -4  16  134.04   22.99
   0  -4  16  400.04   28.44
   0  -4  16  408.47   29.29
   1  -4  16   63.96   18.94
   2  -4  16  157.57   23.17
   3  -4  16   44.18   17.35
   4  -4  16   70.98   20.03
  -6  -3  16   85.98   23.99
  -5  -3  16   67.01   20.64
  -4  -3  16  211.00   26.22
  -3  -3  16  167.90   23.79
  -3  -3  16  182.77   25.61
  -2  -3  16  219.75   23.86
  -2  -3  16  193.81   25.98
  -1  -3  16   65.58   18.27
  -1  -3  16   42.42   17.74
   0  -3  16  142.59   22.91
   1  -3  16   47.70   18.19
   2  -3  16   58.27   19.59
   3  -3  16   41.96   17.63
   4  -3  16   81.93   20.98
  -6  -2  16   77.52   23.58
  -5  -2  16   47.96   21.03
  -4  -2  16  134.12   23.92
  -3  -2  16   66.66   19.83
  -2  -2  16  154.83   24.55
  -2  -2  16  158.62   22.42
  -1  -2  16   56.50   17.73
  -1  -2  16   30.73   17.56
   0  -2  16    2.50   14.70
   1  -2  16   68.01   19.14
   2  -2  16   36.39   17.30
   3  -2  16   19.17   15.36
   4  -2  16  144.11   24.56
  -6  -1  16   60.95   23.12
  -5  -1  16   59.16   22.01
  -4  -1  16   80.27   21.62
  -3  -1  16   52.84   19.86
  -2  -1  16  158.76   24.63
  -1  -1  16  130.29   23.53
  -1  -1  16  123.32   20.56
   0  -1  16   74.18   20.90
   1  -1  16   32.54   16.92
   2  -1  16  135.68   23.14
   3  -1  16  117.64   23.05
  -6   0  16   -4.69   19.66
  -5   0  16  198.16   28.61
  -4   0  16  153.58   25.96
  -3   0  16   11.38   18.18
  -2   0  16  337.70   28.36
  -1   0  16  185.58   26.51
   0   0  16  113.65   22.44
   1   0  16  104.77   21.81
   2   0  16   91.40   21.30
   3   0  16  136.38   23.92
  -6   1  16   88.25   26.01
  -5   1  16  105.19   25.09
  -4   1  16  226.13   30.29
  -3   1  16  158.51   25.61
  -2   1  16  226.02   24.91
  -1   1  16  258.78   26.40
   0   1  16   53.88   19.54
   1   1  16   39.84   18.76
   2   1  16  124.02   23.43
  -5   2  16   62.60   24.48
  -4   2  16  154.06   27.85
  -3   2  16  176.40   27.89
  -2   2  16  159.95   24.70
  -1   2  16  130.15   23.79
   0   2  16   28.19   17.77
   1   2  16  143.61   24.50
   2   2  16    6.04   15.88
  -5   3  16   50.06   26.07
  -4   3  16  111.38   26.78
  -3   3  16   55.27   22.82
  -2   3  16   54.86   18.93
  -1   3  16  105.77   22.93
   0   3  16   57.09   20.07
   1   3  16  172.52   27.02
  -3   4  16   42.61   18.70
  -2   4  16  132.28   24.19
  -1   4  16   32.75   19.23
   0   4  16  257.18   28.84
  -1 -11  17  -12.39   19.43
   0 -11  17   -9.14   22.68
  -3 -10  17  -22.85   17.92
  -2 -10  17   -3.58   20.77
  -1 -10  17   12.14   19.60
   0 -10  17   -0.86   20.86
   1 -10  17    8.27   22.20
  -4  -9  17    3.16   21.22
  -3  -9  17   33.52   22.84
  -2  -9  17   -2.54   18.37
  -1  -9  17  -16.81   18.34
   0  -9  17    2.85   18.54
   1  -9  17   18.57   22.98
  -5  -8  17   -6.94   19.71
  -4  -8  17   19.96   20.56
  -3  -8  17    2.50   18.36
  -2  -8  17   -3.70   18.45
  -1  -8  17    7.22   17.90
   0  -8  17    4.89   17.69
   1  -8  17  -31.72   15.40
  -5  -7  17   -7.81   17.80
  -4  -7  17    0.11   16.40
  -3  -7  17   12.58   18.82
  -2  -7  17  -18.56   16.19
  -1  -7  17   -5.80   16.22
   0  -7  17  -12.89   15.67
  -5  -6  17   -2.13   19.06
  -4  -6  17    8.66   17.89
  -3  -6  17   -8.04   15.33
  -2  -6  17  -12.08   15.36
  -1  -6  17   -1.36   15.83
   0  -6  17  -10.20   15.10
   3  -6  17    7.03   16.72
  -6  -5  17   15.93   21.30
  -5  -5  17   33.99   20.71
  -4  -5  17    1.77   18.01
  -3  -5  17   37.28   19.47
  -2  -5  17  -15.77   15.85
  -1  -5  17   26.18   16.43
  -1  -5  17   14.28   16.21
   0  -5  17    7.10   15.73
   0  -5  17    3.37   14.81
   1  -5  17   19.27   16.56
   2  -5  17    1.66   16.16
   3  -5  17   11.60   15.23
  -6  -4  17   13.26   22.29
  -5  -4  17   27.59   19.80
  -4  -4  17   19.92   18.88
  -3  -4  17   46.58   18.75
  -3  -4  17   -0.69   17.04
  -2  -4  17   57.40   19.70
  -2  -4  17   58.43   19.77
  -1  -4  17   -1.44   15.40
  -1  -4  17    4.71   16.07
   0  -4  17  122.19   22.72
   1  -4  17   32.19   18.43
   2  -4  17   12.10   17.92
   3  -4  17   20.01   17.31
  -6  -3  17  -37.05   20.13
  -5  -3  17    2.75   19.71
  -4  -3  17  -27.74   17.52
  -4  -3  17   10.21   17.94
  -3  -3  17   64.70   20.43
  -3  -3  17   80.23   22.15
  -2  -3  17   46.38   19.28
  -2  -3  17   26.39   16.55
  -1  -3  17  -16.04   15.33
  -1  -3  17   -2.70   16.17
   0  -3  17    4.80   16.30
   1  -3  17   24.68   16.19
   2  -3  17   38.78   18.92
   3  -3  17   20.73   17.70
  -6  -2  17   -3.90   22.70
  -5  -2  17   -0.18   20.84
  -4  -2  17  -15.44   18.71
  -3  -2  17   68.14   22.50
  -2  -2  17   -1.01   17.29
  -2  -2  17   24.15   16.20
  -1  -2  17  -22.94   15.47
  -1  -2  17   -0.64   14.41
   0  -2  17  -10.68   15.48
   1  -2  17   41.40   18.31
   2  -2  17   45.22   19.25
   3  -2  17   12.16   16.11
  -5  -1  17   -5.95   20.76
  -4  -1  17   -5.56   18.78
  -3  -1  17   -2.01   18.90
  -2  -1  17  -25.11   14.86
  -1  -1  17  -15.14   15.36
   0  -1  17   18.34   18.04
   1  -1  17   29.17   16.97
   2  -1  17   -1.49   15.69
  -5   0  17    2.38   20.51
  -4   0  17   -7.45   20.55
  -3   0  17  -15.23   17.11
  -2   0  17    1.11   17.56
  -1   0  17  -16.15   15.75
   0   0  17   -0.67   15.50
   1   0  17   23.59   17.51
   2   0  17    2.63   16.24
  -5   1  17   10.30   22.35
  -4   1  17  -18.71   20.72
  -3   1  17  -13.54   15.46
  -2   1  17   45.66   20.59
  -1   1  17  -13.80   15.52
   0   1  17    8.60   17.04
   1   1  17   36.42   18.88
  -4   2  17   -9.01   20.92
  -3   2  17   12.10   17.20
  -2   2  17   16.79   18.19
  -1   2  17   35.92   18.93
   0   2  17   -5.87   16.32
  -2  -9  18   19.82   21.76
  -1  -9  18   36.65   23.64
   0  -9  18  -27.26   18.28
  -3  -8  18    5.36   21.44
  -2  -8  18   24.04   21.39
  -1  -8  18   -4.49   19.41
   0  -8  18   12.69   19.71
  -4  -7  18   21.03   20.99
  -3  -7  18   11.43   21.41
  -2  -7  18   16.51   19.73
  -1  -7  18   40.04   20.65
   0  -7  18  -17.40   17.24
  -4  -6  18    6.62   20.22
  -3  -6  18   68.67   22.93
  -2  -6  18   79.57   22.13
  -1  -6  18   58.44   21.22
   0  -6  18   57.48   21.35
  -5  -5  18   25.44   21.93
  -4  -5  18   40.18   23.01
  -3  -5  18   31.96   21.00
  -2  -5  18   42.99   20.34
  -1  -5  18  216.78   28.62
   0  -5  18   54.44   20.97
   1  -5  18  103.67   22.45
   2  -5  18  110.00   23.59
  -5  -4  18   87.07   25.90
  -4  -4  18   41.78   21.98
  -3  -4  18   34.72   22.18
  -3  -4  18  103.12   22.97
  -2  -4  18  -15.25   16.99
  -2  -4  18    5.39   18.29
  -1  -4  18   73.92   22.00
  -1  -4  18   94.70   23.44
   0  -4  18   82.41   22.05
   1  -4  18   -6.74   17.36
   2  -4  18  100.75   24.45
  -5  -3  18   80.09   25.09
  -5  -3  18   58.39   24.97
  -4  -3  18   -3.17   19.95
  -4  -3  18    5.75   19.57
  -3  -3  18    5.92   17.77
  -3  -3  18  -11.88   19.90
  -2  -3  18   76.65   23.16
  -2  -3  18  139.47   24.57
  -1  -3  18    7.32   19.04
   0  -3  18    8.29   18.30
   1  -3  18  120.05   24.46
   2  -3  18   27.19   19.49
  -4  -2  18  -15.75   19.13
  -3  -2  18  -13.82   19.49
  -3  -2  18   25.69   18.68
  -2  -2  18  193.78   26.91
  -2  -2  18  145.35   26.83
  -1  -2  18    8.37   18.47
   0  -2  18   99.89   23.14
   1  -2  18   26.37   18.29
  -4  -1  18   30.99   23.40
  -3  -1  18   47.90   22.19
  -2  -1  18  124.34   22.90
  -2  -1  18  118.64   24.73
  -1  -1  18   65.89   22.91
   0  -1  18   68.07   22.39
   1  -1  18   73.28   21.91
  -3   0  18   29.87   20.57
  -2   0  18  158.77   26.92
  -1   0  18   99.61   24.80
   0   0  18   73.65   22.33
  -1  -7  19   -9.34   20.14
  -2  -6  19   -9.26   20.40
  -1  -6  19   10.65   18.71
  -3  -5  19   44.22   22.13
  -2  -5  19   11.21   20.20
  -1  -5  19    7.11   18.41
  -3  -4  19   16.71   20.13
  -2  -4  19   57.53   22.78
  -2  -4  19   16.87   20.89
  -1  -4  19   -6.62   18.62
   0  -4  19   33.25   20.24
  -2  -3  19    6.04   18.05
  -2  -3  19   -9.64   19.30
  -1  -3  19  -19.00   18.26
   0   0   0    0.00    0.00
;
_shelx_hkl_checksum              34586
loop_
_space_group_symop_operation_xyz
'x, y, z'
'-x, -y, -z'
loop_
_atom_site_label
_atom_site_type_symbol
_atom_site_fract_x
_atom_site_fract_y
_atom_site_fract_z
_atom_site_U_iso_or_equiv
_atom_site_adp_type
_atom_site_occupancy
_atom_site_site_symmetry_order
_atom_site_calc_flag
_atom_site_refinement_flags_posn
_atom_site_refinement_flags_adp
_atom_site_refinement_flags_occupancy
_atom_site_disorder_assembly
_atom_site_disorder_group
Ru1 Ru 1.000000 0.000000 0.000000 0.0364(2) Uani 1 2 d S . P . .
Mn1 Mn 1.000000 1.000000 0.500000 0.0230(3) Uani 1 2 d S . P . .
O1 O 1.0780(5) 0.1705(3) 0.0538(2) 0.0439(10) Uani 1 1 d . . . . .
O2 O 0.7713(5) 0.0265(3) 0.0353(2) 0.0418(9) Uani 1 1 d . . . . .
O3 O 1.1050(4) 1.0957(3) 0.4038(2) 0.0354(9) Uani 1 1 d . . . . .
H3A H 1.118730 1.041372 0.358203 0.042 Uiso 1 1 d R U . . .
O4 O 1.8672(8) 0.4597(5) 0.3721(4) 0.0933(18) Uani 1 1 d . . . . .
O5 O 1.6553(7) 0.3326(5) 0.3468(4) 0.0854(17) Uani 1 1 d . . . . .
O6 O 0.4053(8) 0.5751(5) -0.1449(4) 0.106(2) Uani 1 1 d . . . . .
O7 O 0.2107(8) 0.5299(5) -0.0717(4) 0.108(2) Uani 1 1 d . . . . .
N1 N 1.1198(6) -0.0175(5) 0.2123(3) 0.0560(14) Uani 1 1 d . . . . .
N2 N 1.0079(5) 0.8529(3) 0.3933(2) 0.0241(9) Uani 1 1 d . . . . .
N3 N 0.7685(5) 1.0202(3) 0.4356(2) 0.0249(9) Uani 1 1 d . . . . .
N4 N 1.7174(8) 0.4318(5) 0.3669(3) 0.0562(14) Uani 1 1 d . . . . .
N5 N 0.3459(9) 0.5814(5) -0.0726(4) 0.0720(19) Uani 1 1 d . . . . .
C1 C 1.0808(7) -0.0138(5) 0.1354(4) 0.0431(14) Uani 1 1 d . . . . .
C2 C 1.1093(9) 0.3582(5) 0.1637(5) 0.075(2) Uani 1 1 d . . . . .
H2A H 1.225376 0.348465 0.183780 0.112 Uiso 1 1 calc R U . . .
H2B H 1.062579 0.399728 0.218488 0.112 Uiso 1 1 calc R U . . .
H2C H 1.103906 0.401273 0.118828 0.112 Uiso 1 1 calc R U . . .
C3 C 1.0094(8) 0.2416(5) 0.1171(4) 0.0465(15) Uani 1 1 d . . . . .
C4 C 0.8563(8) 0.2171(5) 0.1426(4) 0.0483(15) Uani 1 1 d . . . . .
H4 H 0.825020 0.273811 0.192988 0.058 Uiso 1 1 calc R U . . .
C5 C 0.7425(7) 0.1164(5) 0.1010(4) 0.0434(14) Uani 1 1 d . . . . .
C6 C 0.5720(8) 0.1099(5) 0.1294(4) 0.0560(17) Uani 1 1 d . . . . .
H6A H 0.486247 0.109989 0.076969 0.084 Uiso 1 1 calc R U . . .
H6B H 0.567258 0.175718 0.183906 0.084 Uiso 1 1 calc R U . . .
H6C H 0.552835 0.039794 0.145453 0.084 Uiso 1 1 calc R U . . .
C7 C 0.6729(6) 1.1122(4) 0.4648(3) 0.0266(11) Uani 1 1 d . . . . .
C8 C 0.5247(6) 1.0971(4) 0.3929(3) 0.0340(12) Uani 1 1 d . . . . .
H8 H 0.440563 1.146792 0.394752 0.041 Uiso 1 1 calc R U . . .
C9 C 0.5298(6) 0.9988(4) 0.3230(3) 0.0362(13) Uani 1 1 d . . . . .
H9 H 0.448178 0.966897 0.268207 0.043 Uiso 1 1 calc R U . . .
C10 C 0.6803(6) 0.9519(4) 0.3466(3) 0.0252(11) Uani 1 1 d . . . . .
C11 C 0.7380(6) 0.8533(4) 0.2869(3) 0.0259(11) Uani 1 1 d . . . . .
C12 C 0.6277(6) 0.7901(4) 0.1918(3) 0.0291(12) Uani 1 1 d . . . . .
C13 C 0.4750(8) 0.7312(5) 0.1881(4) 0.0558(18) Uani 1 1 d . . . . .
H13 H 0.435208 0.735636 0.244718 0.067 Uiso 1 1 calc R U . . .
C14 C 0.3774(8) 0.6643(6) 0.1003(4) 0.0626(19) Uani 1 1 d . . . . .
H14 H 0.272356 0.625227 0.097349 0.075 Uiso 1 1 calc R U . . .
C15 C 0.4428(8) 0.6586(5) 0.0194(4) 0.0476(16) Uani 1 1 d . . . . .
C16 C 0.5914(8) 0.7198(5) 0.0210(4) 0.0519(17) Uani 1 1 d . . . . .
H16 H 0.629325 0.716790 -0.035883 0.062 Uiso 1 1 calc R U . . .
C17 C 0.6860(7) 0.7869(5) 0.1084(3) 0.0401(14) Uani 1 1 d . . . . .
H17 H 0.787929 0.829321 0.110565 0.048 Uiso 1 1 calc R U . . .
C18 C 0.8897(6) 0.8100(4) 0.3093(3) 0.0264(11) Uani 1 1 d . . . . .
C19 C 0.9452(6) 0.7075(4) 0.2495(3) 0.0334(12) Uani 1 1 d . . . . .
H19 H 0.888106 0.661400 0.189651 0.040 Uiso 1 1 calc R U . . .
C20 C 1.0926(6) 0.6898(4) 0.2945(3) 0.0329(12) Uani 1 1 d . . . . .
H20 H 1.156796 0.629454 0.271559 0.040 Uiso 1 1 calc R U . . .
C21 C 1.1351(6) 0.7808(4) 0.3850(3) 0.0262(11) Uani 1 1 d . . . . .
C22 C 1.2813(6) 0.7924(4) 0.4521(3) 0.0280(11) Uani 1 1 d . . . . .
C23 C 1.3968(6) 0.6990(4) 0.4321(3) 0.0281(11) Uani 1 1 d . . . . .
C24 C 1.5657(7) 0.7229(4) 0.4303(3) 0.0349(13) Uani 1 1 d . . . . .
H24 H 1.610083 0.799758 0.444134 0.042 Uiso 1 1 calc R U . . .
C25 C 1.6722(7) 0.6366(5) 0.4086(4) 0.0405(14) Uani 1 1 d . . . . .
H25 H 1.786192 0.654229 0.407446 0.049 Uiso 1 1 calc R U . . .
C26 C 1.6039(8) 0.5251(5) 0.3890(3) 0.0406(14) Uani 1 1 d . . . . .
C27 C 1.4381(8) 0.4964(5) 0.3909(4) 0.0444(15) Uani 1 1 d . . . . .
H27 H 1.395846 0.419088 0.377215 0.053 Uiso 1 1 calc R U . . .
C28 C 1.3330(7) 0.5830(4) 0.4133(3) 0.0363(13) Uani 1 1 d . . . . .
H28 H 1.219960 0.564316 0.415974 0.044 Uiso 1 1 calc R U . . .
C31 C 1.0349(9) 1.1920(5) 0.3835(4) 0.0580(17) Uani 1 1 d . . . . .
H31A H 0.934264 1.164995 0.335747 0.087 Uiso 1 1 calc R U . . .
H31B H 1.116213 1.232670 0.359985 0.087 Uiso 1 1 calc R U . . .
H31C H 1.006659 1.243334 0.440846 0.087 Uiso 1 1 calc R U . . .
loop_
_atom_site_aniso_label
_atom_site_aniso_U_11
_atom_site_aniso_U_22
_atom_site_aniso_U_33
_atom_site_aniso_U_23
_atom_site_aniso_U_13
_atom_site_aniso_U_12
Ru1 0.0412(4) 0.0317(4) 0.0270(3) -0.0033(3) 0.0028(3) 0.0032(3)
Mn1 0.0237(6) 0.0203(6) 0.0160(5) -0.0051(4) -0.0031(4) 0.0029(4)
O1 0.052(3) 0.031(2) 0.039(2) -0.0025(16) 0.0078(18) 0.0020(18)
O2 0.042(2) 0.042(2) 0.032(2) -0.0025(17) 0.0040(16) 0.0038(18)
O3 0.041(2) 0.036(2) 0.0257(18) 0.0041(15) 0.0029(15) 0.0080(17)
O4 0.068(4) 0.082(4) 0.121(5) 0.008(3) 0.024(3) 0.042(3)
O5 0.131(5) 0.046(3) 0.088(4) 0.015(3) 0.043(3) 0.042(3)
O6 0.140(5) 0.100(4) 0.037(3) -0.024(3) -0.025(3) 0.042(4)
O7 0.112(5) 0.072(4) 0.090(4) -0.008(3) -0.053(4) -0.024(4)
N1 0.060(4) 0.067(4) 0.036(3) 0.010(2) 0.004(2) 0.019(3)
N2 0.026(2) 0.022(2) 0.0159(19) -0.0038(15) -0.0029(15) 0.0005(17)
N3 0.025(2) 0.023(2) 0.0197(19) -0.0013(16) -0.0012(16) 0.0024(17)
N4 0.078(5) 0.049(4) 0.046(3) 0.012(3) 0.020(3) 0.034(3)
N5 0.088(5) 0.053(4) 0.047(4) -0.008(3) -0.032(3) 0.021(3)
C1 0.044(4) 0.038(3) 0.037(3) -0.002(3) 0.003(3) 0.005(3)
C2 0.069(5) 0.043(4) 0.087(5) -0.016(3) 0.014(4) -0.001(4)
C3 0.048(4) 0.035(3) 0.046(3) 0.000(3) 0.002(3) 0.004(3)
C4 0.056(4) 0.044(4) 0.038(3) 0.000(3) 0.013(3) 0.011(3)
C5 0.045(4) 0.053(4) 0.028(3) 0.006(3) 0.006(2) 0.008(3)
C6 0.053(4) 0.060(4) 0.051(4) 0.006(3) 0.016(3) 0.008(3)
C7 0.028(3) 0.022(3) 0.026(2) 0.001(2) 0.001(2) 0.006(2)
C8 0.027(3) 0.038(3) 0.031(3) 0.004(2) -0.003(2) 0.015(2)
C9 0.037(3) 0.037(3) 0.024(3) 0.000(2) -0.010(2) 0.009(2)
C10 0.021(3) 0.027(3) 0.020(2) 0.000(2) -0.0033(19) -0.002(2)
C11 0.028(3) 0.025(3) 0.016(2) -0.0026(19) -0.0043(19) -0.003(2)
C12 0.028(3) 0.025(3) 0.023(3) -0.004(2) -0.009(2) 0.003(2)
C13 0.051(4) 0.074(5) 0.027(3) 0.003(3) -0.004(3) -0.018(3)
C14 0.053(4) 0.066(5) 0.047(4) 0.005(3) -0.018(3) -0.024(3)
C15 0.056(4) 0.037(3) 0.029(3) -0.007(2) -0.023(3) 0.009(3)
C16 0.074(5) 0.051(4) 0.020(3) -0.003(2) -0.002(3) 0.018(3)
C17 0.043(3) 0.044(3) 0.027(3) 0.004(2) 0.001(2) 0.002(3)
C18 0.027(3) 0.022(3) 0.021(2) -0.0035(19) -0.0042(19) 0.001(2)
C19 0.036(3) 0.030(3) 0.022(2) -0.008(2) -0.004(2) 0.005(2)
C20 0.035(3) 0.027(3) 0.024(3) -0.009(2) -0.001(2) 0.008(2)
C21 0.026(3) 0.023(3) 0.023(2) -0.0010(19) 0.000(2) 0.005(2)
C22 0.028(3) 0.023(3) 0.029(3) 0.003(2) 0.002(2) 0.005(2)
C23 0.033(3) 0.029(3) 0.017(2) -0.001(2) 0.000(2) 0.009(2)
C24 0.043(4) 0.027(3) 0.031(3) 0.003(2) 0.004(2) 0.008(2)
C25 0.034(3) 0.046(4) 0.043(3) 0.012(3) 0.013(2) 0.016(3)
C26 0.054(4) 0.037(3) 0.029(3) 0.004(2) 0.009(2) 0.025(3)
C27 0.065(5) 0.026(3) 0.036(3) 0.003(2) 0.004(3) 0.006(3)
C28 0.042(3) 0.028(3) 0.030(3) 0.000(2) -0.002(2) 0.006(3)
C31 0.077(5) 0.049(4) 0.050(4) 0.017(3) 0.010(3) 0.015(3)
loop_
_atom_type_symbol
_atom_type_description
_atom_type_scat_dispersion_real
_atom_type_scat_dispersion_imag
_atom_type_scat_source
C C 0.0033 0.0016 'International Tables Vol C Tables 4.2.6.8 and 6.1.1.4'
H H 0.0000 0.0000 'International Tables Vol C Tables 4.2.6.8 and 6.1.1.4'
N N 0.0061 0.0033 'International Tables Vol C Tables 4.2.6.8 and 6.1.1.4'
O O 0.0106 0.0060 'International Tables Vol C Tables 4.2.6.8 and 6.1.1.4'
Ru Ru -1.2594 0.8363 'International Tables Vol C Tables 4.2.6.8 and 6.1.1.4'
Mn Mn 0.3368 0.7283 'International Tables Vol C Tables 4.2.6.8 and 6.1.1.4'
loop_
_geom_angle_atom_site_label_1
_geom_angle_atom_site_label_2
_geom_angle_atom_site_label_3
_geom_angle
_geom_angle_site_symmetry_1
_geom_angle_site_symmetry_3
O2 Ru1 O2 180.0 . 2_755
O2 Ru1 O1 88.83(15) . 2_755
O2 Ru1 O1 91.16(15) 2_755 2_755
O2 Ru1 O1 91.17(15) . .
O2 Ru1 O1 88.84(15) 2_755 .
O1 Ru1 O1 180.0 2_755 .
O2 Ru1 C1 91.45(19) . 2_755
O2 Ru1 C1 88.55(19) 2_755 2_755
O1 Ru1 C1 88.26(18) 2_755 2_755
O1 Ru1 C1 91.74(18) . 2_755
O2 Ru1 C1 88.55(19) . .
O2 Ru1 C1 91.45(19) 2_755 .
O1 Ru1 C1 91.74(18) 2_755 .
O1 Ru1 C1 88.26(18) . .
C1 Ru1 C1 180.0 2_755 .
N2 Mn1 N2 180.0 2_776 .
N2 Mn1 N3 90.81(15) 2_776 2_776
N2 Mn1 N3 89.19(15) . 2_776
N2 Mn1 N3 89.19(15) 2_776 .
N2 Mn1 N3 90.81(15) . .
N3 Mn1 N3 180.0 2_776 .
N2 Mn1 O3 86.07(13) 2_776 2_776
N2 Mn1 O3 93.93(13) . 2_776
N3 Mn1 O3 85.46(14) 2_776 2_776
N3 Mn1 O3 94.54(14) . 2_776
N2 Mn1 O3 93.94(14) 2_776 .
N2 Mn1 O3 86.07(13) . .
N3 Mn1 O3 94.54(14) 2_776 .
N3 Mn1 O3 85.46(14) . .
O3 Mn1 O3 180.0 2_776 .
C3 O1 Ru1 123.4(4) . .
C5 O2 Ru1 123.6(3) . .
C31 O3 Mn1 123.8(3) . .
C31 O3 H3A 117.3 . .
Mn1 O3 H3A 101.6 . .
C21 N2 C18 106.7(4) . .
C21 N2 Mn1 127.6(3) . .
C18 N2 Mn1 125.5(3) . .
C7 N3 C10 105.0(4) . .
C7 N3 Mn1 127.6(3) . .
C10 N3 Mn1 127.0(3) . .
O5 N4 O4 123.8(6) . .
O5 N4 C26 117.9(6) . .
O4 N4 C26 118.3(6) . .
O6 N5 O7 124.3(6) . .
O6 N5 C15 117.5(7) . .
O7 N5 C15 118.2(7) . .
N1 C1 Ru1 176.5(5) . .
C3 C2 H2A 109.5 . .
C3 C2 H2B 109.5 . .
H2A C2 H2B 109.5 . .
C3 C2 H2C 109.5 . .
H2A C2 H2C 109.5 . .
H2B C2 H2C 109.5 . .
O1 C3 C4 124.8(5) . .
O1 C3 C2 114.8(5) . .
C4 C3 C2 120.3(5) . .
C3 C4 C5 127.3(5) . .
C3 C4 H4 116.4 . .
C5 C4 H4 116.4 . .
O2 C5 C4 124.4(5) . .
O2 C5 C6 115.3(5) . .
C4 C5 C6 120.3(5) . .
C5 C6 H6A 109.5 . .
C5 C6 H6B 109.5 . .
H6A C6 H6B 109.5 . .
C5 C6 H6C 109.5 . .
H6A C6 H6C 109.5 . .
H6B C6 H6C 109.5 . .
N3 C7 C22 125.4(4) . 2_776
N3 C7 C8 108.9(4) . .
C22 C7 C8 125.5(4) 2_776 .
C9 C8 C7 107.7(5) . .
C9 C8 H8 126.2 . .
C7 C8 H8 126.2 . .
C8 C9 C10 108.0(4) . .
C8 C9 H9 126.0 . .
C10 C9 H9 126.0 . .
N3 C10 C9 110.3(4) . .
N3 C10 C11 124.7(4) . .
C9 C10 C11 125.0(4) . .
C18 C11 C10 124.7(4) . .
C18 C11 C12 117.5(4) . .
C10 C11 C12 117.8(4) . .
C13 C12 C17 120.1(4) . .
C13 C12 C11 120.3(4) . .
C17 C12 C11 119.5(4) . .
C12 C13 C14 121.0(5) . .
C12 C13 H13 119.5 . .
C14 C13 H13 119.5 . .
C15 C14 C13 117.3(6) . .
C15 C14 H14 121.3 . .
C13 C14 H14 121.3 . .
C16 C15 C14 122.6(5) . .
C16 C15 N5 119.9(6) . .
C14 C15 N5 117.4(6) . .
C15 C16 C17 119.4(5) . .
C15 C16 H16 120.3 . .
C17 C16 H16 120.3 . .
C12 C17 C16 119.4(5) . .
C12 C17 H17 120.3 . .
C16 C17 H17 120.3 . .
C11 C18 N2 127.0(4) . .
C11 C18 C19 124.4(4) . .
N2 C18 C19 108.5(4) . .
C20 C19 C18 108.1(4) . .
C20 C19 H19 125.9 . .
C18 C19 H19 125.9 . .
C19 C20 C21 107.9(4) . .
C19 C20 H20 126.1 . .
C21 C20 H20 126.1 . .
N2 C21 C22 126.4(4) . .
N2 C21 C20 108.7(4) . .
C22 C21 C20 124.8(4) . .
C21 C22 C7 123.5(4) . 2_776
C21 C22 C23 117.7(4) . .
C7 C22 C23 118.8(4) 2_776 .
C24 C23 C28 118.0(5) . .
C24 C23 C22 122.0(4) . .
C28 C23 C22 120.0(5) . .
C23 C24 C25 122.4(5) . .
C23 C24 H24 118.8 . .
C25 C24 H24 118.8 . .
C26 C25 C24 117.5(5) . .
C26 C25 H25 121.2 . .
C24 C25 H25 121.2 . .
C25 C26 C27 122.7(5) . .
C25 C26 N4 118.0(6) . .
C27 C26 N4 119.3(6) . .
C26 C27 C28 119.5(5) . .
C26 C27 H27 120.3 . .
C28 C27 H27 120.3 . .
C27 C28 C23 119.9(5) . .
C27 C28 H28 120.0 . .
C23 C28 H28 120.0 . .
O3 C31 H31A 109.5 . .
O3 C31 H31B 109.5 . .
H31A C31 H31B 109.5 . .
O3 C31 H31C 109.5 . .
H31A C31 H31C 109.5 . .
H31B C31 H31C 109.5 . .
loop_
_geom_bond_atom_site_label_1
_geom_bond_atom_site_label_2
_geom_bond_distance
_geom_bond_site_symmetry_2
Ru1 O2 1.998(4) .
Ru1 O2 1.998(4) 2_755
Ru1 O1 2.007(3) 2_755
Ru1 O1 2.007(3) .
Ru1 C1 2.079(6) 2_755
Ru1 C1 2.079(6) .
Mn1 N2 2.014(3) 2_776
Mn1 N2 2.014(3) .
Mn1 N3 2.023(4) 2_776
Mn1 N3 2.023(4) .
Mn1 O3 2.307(3) 2_776
Mn1 O3 2.307(3) .
O1 C3 1.285(6) .
O2 C5 1.287(6) .
O3 C31 1.419(7) .
O3 H3A 0.8186 .
O4 N4 1.213(7) .
O5 N4 1.208(7) .
O6 N5 1.221(8) .
O7 N5 1.222(8) .
N1 C1 1.153(6) .
N2 C21 1.377(6) .
N2 C18 1.390(5) .
N3 C7 1.390(6) .
N3 C10 1.391(5) .
N4 C26 1.485(7) .
N5 C15 1.477(7) .
C2 C3 1.497(8) .
C2 H2A 0.9600 .
C2 H2B 0.9600 .
C2 H2C 0.9600 .
C3 C4 1.378(8) .
C4 C5 1.399(7) .
C4 H4 0.9300 .
C5 C6 1.492(8) .
C6 H6A 0.9600 .
C6 H6B 0.9600 .
C6 H6C 0.9600 .
C7 C22 1.400(6) 2_776
C7 C8 1.438(6) .
C8 C9 1.334(7) .
C8 H8 0.9300 .
C9 C10 1.407(7) .
C9 H9 0.9300 .
C10 C11 1.409(6) .
C11 C18 1.388(7) .
C11 C12 1.507(5) .
C12 C13 1.365(7) .
C12 C17 1.377(7) .
C13 C14 1.401(7) .
C13 H13 0.9300 .
C14 C15 1.364(8) .
C14 H14 0.9300 .
C15 C16 1.359(8) .
C16 C17 1.389(7) .
C16 H16 0.9300 .
C17 H17 0.9300 .
C18 C19 1.434(6) .
C19 C20 1.332(7) .
C19 H19 0.9300 .
C20 C21 1.441(6) .
C20 H20 0.9300 .
C21 C22 1.393(6) .
C22 C23 1.495(7) .
C23 C24 1.373(7) .
C23 C28 1.400(7) .
C24 C25 1.384(7) .
C24 H24 0.9300 .
C25 C26 1.359(7) .
C25 H25 0.9300 .
C26 C27 1.360(8) .
C27 C28 1.380(7) .
C27 H27 0.9300 .
C28 H28 0.9300 .
C31 H31A 0.9600 .
C31 H31B 0.9600 .
C31 H31C 0.9600 .
loop_
_geom_hbond_atom_site_label_D
_geom_hbond_atom_site_label_H
_geom_hbond_atom_site_label_A
_geom_hbond_distance_DH
_geom_hbond_distance_HA
_geom_hbond_distance_DA
_geom_hbond_angle_DHA
_geom_hbond_site_symmetry_A
_geom_hbond_publ_flag
C19 H19 O7 0.93 2.46 3.301(6) 151.1 2_665 yes
C9 H9 N1 0.93 2.68 3.418(7) 137.2 1_465 yes
C6 H6B O5 0.96 2.56 3.480(8) 160.3 1_455 yes
C6 H6A O2 0.96 2.59 3.370(7) 138.3 2_655 yes
O3 H3A N1 0.82 2.07 2.788(6) 146.3 1_565 yes
